=
 OpenBabel10262421413D

 32 31  0  0  1  0  0  0  0  0999 V2000
  187.6950  177.9100  141.3560 C   0  0  2  0  0  3  0  0  0  0  0  0
  188.2600  177.8530  142.7170 N   0  0  0  0  0  0  0  0  0  0  0  0
  188.8640  175.5950  142.7900 O   0  0  0  0  0  1  0  0  0  0  0  0
  187.9860  176.5450  143.3120 C   0  0  0  0  0  2  0  0  0  0  0  0
  189.7180  178.0560  142.6970 C   0  0  0  0  0  2  0  0  0  0  0  0
  190.2930  178.4520  144.0600 C   0  0  0  0  0  2  0  0  0  0  0  0
  191.6430  177.9350  144.1910 N   0  0  0  0  0  2  0  0  0  0  0  0
  191.5340  176.6040  144.7610 C   0  0  0  0  0  2  0  0  0  0  0  0
  191.3560  176.7100  146.2610 C   0  0  0  0  0  1  0  0  0  0  0  0
  188.6880  178.5130  140.3520 C   0  0  0  0  0  2  0  0  0  0  0  0
  188.1620  178.4580  138.9940 N   0  0  0  0  0  0  0  0  0  0  0  0
  188.8160  179.4090  138.2820 O   0  0  0  0  0  0  0  0  0  0  0  0
  188.5710  179.0900  136.9450 C   0  0  0  0  0  1  0  0  0  0  0  0
  188.5600  177.1710  138.4480 C   0  0  0  0  0  2  0  0  0  0  0  0
  189.8640  176.8760  138.8440 O   0  0  0  0  0  0  0  0  0  0  0  0
  190.2000  175.7300  138.1210 C   0  0  0  0  0  2  0  0  0  0  0  0
  191.4290  175.9610  137.3730 N   0  0  0  0  0  0  0  0  0  0  0  0
  191.0860  176.0840  135.9630 C   0  0  0  0  0  1  0  0  0  0  0  0
  192.3710  174.8460  137.5620 C   0  0  0  0  0  2  0  0  0  0  0  0
  193.9950  176.6180  137.5490 O   0  0  0  0  0  1  0  0  0  0  0  0
  193.7990  175.2820  137.9040 C   0  0  0  0  0  2  0  0  0  0  0  0
  186.3900  178.7090  141.3300 C   0  0  0  0  0  2  0  0  0  0  0  0
  186.1370  179.2490  142.5920 O   0  0  0  0  0  0  0  0  0  0  0  0
  184.7740  179.0360  142.7980 C   0  0  0  0  0  2  0  0  0  0  0  0
  184.3170  179.7750  144.0460 C   0  0  0  0  0  2  0  0  0  0  0  0
  184.0180  178.8040  145.1770 C   0  0  0  0  0  2  0  0  0  0  0  0
  184.9140  179.0510  146.2960 N   0  0  0  0  0  2  0  0  0  0  0  0
  185.9920  178.1700  146.6090 C   0  0  0  0  0  0  0  0  0  0  0  0
  186.8410  178.4700  147.7170 N   0  0  0  0  0  2  0  0  0  0  0  0
  186.1950  177.1380  145.9130 O   0  0  0  0  0  0  0  0  0  0  0  0
  187.9570  177.6160  148.0870 C   0  0  0  0  0  2  0  0  0  0  0  0
  189.0930  178.4680  148.6090 C   0  0  0  0  0  1  0  0  0  0  0  0
  1 10  1  6  0  0  0
  1  2  1  0  0  0  0
  2  4  1  0  0  0  0
  3  4  1  0  0  0  0
  5  2  1  0  0  0  0
  5  6  1  0  0  0  0
  6  7  1  0  0  0  0
  7  8  1  0  0  0  0
  8  9  1  0  0  0  0
 11 10  1  0  0  0  0
 12 11  1  0  0  0  0
 13 12  1  0  0  0  0
 14 15  1  0  0  0  0
 14 11  1  0  0  0  0
 16 15  1  0  0  0  0
 17 19  1  0  0  0  0
 17 16  1  0  0  0  0
 18 17  1  0  0  0  0
 19 21  1  0  0  0  0
 20 21  1  0  0  0  0
 22  1  1  0  0  0  0
 22 23  1  0  0  0  0
 23 24  1  0  0  0  0
 24 25  1  0  0  0  0
 25 26  1  0  0  0  0
 26 27  1  0  0  0  0
 27 28  1  0  0  0  0
 28 29  1  0  0  0  0
 29 31  1  0  0  0  0
 30 28  2  0  0  0  0
 31 32  1  0  0  0  0
M  END
>  <MODEL>
1

>  <REMARK>
 VINA RESULT:      -5.5      0.000      0.000
  Name = 
  22 active torsions:
  status: ('A' for Active; 'I' for Inactive)
    1  A    between atoms: C_1  and  N_20
    2  A    between atoms: C_2  and  C_12
    3  A    between atoms: C_2  and  O_23
    4  A    between atoms: N_4  and  C_5
    5  A    between atoms: N_4  and  C_15
    6  A    between atoms: O_6  and  N_31
    7  A    between atoms: C_8  and  O_23
    8  A    between atoms: C_8  and  C_28
    9  A    between atoms: C_9  and  N_10
   10  A    between atoms: C_9  and  C_12
   11  A    between atoms: N_11  and  C_18
   12  A    between atoms: N_11  and  C_32
   13  A    between atoms: C_13  and  C_28
   14  A    between atoms: C_13  and  N_31
   15  A    between atoms: N_14  and  C_21
   16  A    between atoms: N_14  and  C_26
   17  A    between atoms: N_14  and  C_28
   18  A    between atoms: C_15  and  C_26
   19  A    between atoms: C_16  and  O_27
   20  A    between atoms: C_16  and  N_31
   21  A    between atoms: C_18  and  C_22
   22  A    between atoms: O_27  and  C_32
                            x       y       z     vdW  Elec       q    Type
                         _______ _______ _______ _____ _____    ______ ____

>  <TORSDO>
F 22

$$$$
=
 OpenBabel10262421413D

 32 31  0  0  1  0  0  0  0  0999 V2000
  187.5180  177.8390  141.1640 C   0  0  2  0  0  3  0  0  0  0  0  0
  186.3910  178.6320  141.6900 N   0  0  0  0  0  0  0  0  0  0  0  0
  184.9170  179.7650  140.2710 O   0  0  0  0  0  1  0  0  0  0  0  0
  185.2410  178.5120  140.7940 C   0  0  0  0  0  2  0  0  0  0  0  0
  185.9880  178.1650  143.0270 C   0  0  0  0  0  2  0  0  0  0  0  0
  184.5360  178.5060  143.3750 C   0  0  0  0  0  2  0  0  0  0  0  0
  184.5070  179.5110  144.4220 N   0  0  0  0  0  2  0  0  0  0  0  0
  185.4850  179.1130  145.4190 C   0  0  0  0  0  2  0  0  0  0  0  0
  184.7910  178.3570  146.5320 C   0  0  0  0  0  1  0  0  0  0  0  0
  188.7730  177.9860  142.0370 C   0  0  0  0  0  2  0  0  0  0  0  0
  189.2890  176.6850  142.4400 N   0  0  0  0  0  0  0  0  0  0  0  0
  190.3550  176.4220  141.6440 O   0  0  0  0  0  0  0  0  0  0  0  0
  191.3890  177.2070  142.1580 C   0  0  0  0  0  1  0  0  0  0  0  0
  189.7980  176.8410  143.7930 C   0  0  0  0  0  2  0  0  0  0  0  0
  188.7950  177.3540  144.6150 O   0  0  0  0  0  0  0  0  0  0  0  0
  189.4770  177.8800  145.7130 C   0  0  0  0  0  2  0  0  0  0  0  0
  189.5320  176.8890  146.7810 N   0  0  0  0  0  0  0  0  0  0  0  0
  188.4080  177.1230  147.6760 C   0  0  0  0  0  1  0  0  0  0  0  0
  190.7950  176.9990  147.5280 C   0  0  0  0  0  2  0  0  0  0  0  0
  192.9110  176.0000  148.0780 O   0  0  0  0  0  1  0  0  0  0  0  0
  191.7420  175.8090  147.3390 C   0  0  0  0  0  2  0  0  0  0  0  0
  187.8480  178.2310  139.7230 C   0  0  0  0  0  2  0  0  0  0  0  0
  189.1880  178.6050  139.6250 O   0  0  0  0  0  0  0  0  0  0  0  0
  189.6220  178.0470  138.4220 C   0  0  0  0  0  2  0  0  0  0  0  0
  188.8070  178.6070  137.2670 C   0  0  0  0  0  2  0  0  0  0  0  0
  188.6700  177.5840  136.1500 C   0  0  0  0  0  2  0  0  0  0  0  0
  187.4660  176.7920  136.3420 N   0  0  0  0  0  2  0  0  0  0  0  0
  187.5160  175.4270  136.7540 C   0  0  0  0  0  0  0  0  0  0  0  0
  186.2980  174.7050  136.9320 N   0  0  0  0  0  2  0  0  0  0  0  0
  188.6260  174.8650  136.9620 O   0  0  0  0  0  0  0  0  0  0  0  0
  186.2800  173.3140  137.3530 C   0  0  0  0  0  2  0  0  0  0  0  0
  184.8650  172.9110  137.7050 C   0  0  0  0  0  1  0  0  0  0  0  0
  1 22  1  6  0  0  0
  1  2  1  0  0  0  0
  1 10  1  0  0  0  0
  2  5  1  0  0  0  0
  3  4  1  0  0  0  0
  4  2  1  0  0  0  0
  5  6  1  0  0  0  0
  6  7  1  0  0  0  0
  7  8  1  0  0  0  0
  8  9  1  0  0  0  0
 10 11  1  0  0  0  0
 11 14  1  0  0  0  0
 12 13  1  0  0  0  0
 12 11  1  0  0  0  0
 14 15  1  0  0  0  0
 15 16  1  0  0  0  0
 16 17  1  0  0  0  0
 17 19  1  0  0  0  0
 17 18  1  0  0  0  0
 21 19  1  0  0  0  0
 21 20  1  0  0  0  0
 23 22  1  0  0  0  0
 24 23  1  0  0  0  0
 25 24  1  0  0  0  0
 26 27  1  0  0  0  0
 26 25  1  0  0  0  0
 27 28  1  0  0  0  0
 28 29  1  0  0  0  0
 28 30  2  0  0  0  0
 29 31  1  0  0  0  0
 31 32  1  0  0  0  0
M  END
>  <MODEL>
2

>  <REMARK>
 VINA RESULT:      -5.5      2.622      7.895
  Name = 
  22 active torsions:
  status: ('A' for Active; 'I' for Inactive)
    1  A    between atoms: C_1  and  N_20
    2  A    between atoms: C_2  and  C_12
    3  A    between atoms: C_2  and  O_23
    4  A    between atoms: N_4  and  C_5
    5  A    between atoms: N_4  and  C_15
    6  A    between atoms: O_6  and  N_31
    7  A    between atoms: C_8  and  O_23
    8  A    between atoms: C_8  and  C_28
    9  A    between atoms: C_9  and  N_10
   10  A    between atoms: C_9  and  C_12
   11  A    between atoms: N_11  and  C_18
   12  A    between atoms: N_11  and  C_32
   13  A    between atoms: C_13  and  C_28
   14  A    between atoms: C_13  and  N_31
   15  A    between atoms: N_14  and  C_21
   16  A    between atoms: N_14  and  C_26
   17  A    between atoms: N_14  and  C_28
   18  A    between atoms: C_15  and  C_26
   19  A    between atoms: C_16  and  O_27
   20  A    between atoms: C_16  and  N_31
   21  A    between atoms: C_18  and  C_22
   22  A    between atoms: O_27  and  C_32
                            x       y       z     vdW  Elec       q    Type
                         _______ _______ _______ _____ _____    ______ ____

>  <TORSDO>
F 22

$$$$
=
 OpenBabel10262421413D

 32 31  0  0  1  0  0  0  0  0999 V2000
  188.7150  177.0420  142.2000 C   0  0  2  0  0  3  0  0  0  0  0  0
  190.1370  176.6810  142.3560 N   0  0  0  0  0  0  0  0  0  0  0  0
  191.8380  177.3360  140.8900 O   0  0  0  0  0  1  0  0  0  0  0  0
  190.9810  177.7840  141.8970 C   0  0  0  0  0  2  0  0  0  0  0  0
  190.4650  176.4010  143.7640 C   0  0  0  0  0  2  0  0  0  0  0  0
  191.7500  175.5860  143.9350 C   0  0  0  0  0  2  0  0  0  0  0  0
  192.1500  175.5920  145.3310 N   0  0  0  0  0  2  0  0  0  0  0  0
  191.4310  176.6780  145.9740 C   0  0  0  0  0  2  0  0  0  0  0  0
  191.4220  176.4600  147.4720 C   0  0  0  0  0  1  0  0  0  0  0  0
  188.5400  178.5310  141.8710 C   0  0  0  0  0  2  0  0  0  0  0  0
  187.8870  178.7110  140.5810 N   0  0  0  0  0  0  0  0  0  0  0  0
  188.2220  177.6400  139.8190 O   0  0  0  0  0  0  0  0  0  0  0  0
  189.0400  178.1560  138.8130 C   0  0  0  0  0  1  0  0  0  0  0  0
  186.4560  178.6280  140.8250 C   0  0  0  0  0  2  0  0  0  0  0  0
  185.7640  178.8280  139.6320 O   0  0  0  0  0  0  0  0  0  0  0  0
  184.4900  179.2370  140.0290 C   0  0  0  0  0  2  0  0  0  0  0  0
  183.4820  178.5850  139.2040 N   0  0  0  0  0  0  0  0  0  0  0  0
  184.1500  177.9960  138.0520 C   0  0  0  0  0  1  0  0  0  0  0  0
  182.4710  179.5550  138.7530 C   0  0  0  0  0  2  0  0  0  0  0  0
  180.9850  177.8330  139.5300 O   0  0  0  0  0  1  0  0  0  0  0  0
  181.0290  179.0450  138.8380 C   0  0  0  0  0  2  0  0  0  0  0  0
  187.9140  176.6960  143.4570 C   0  0  0  0  0  2  0  0  0  0  0  0
  187.2990  177.8430  143.9600 O   0  0  0  0  0  0  0  0  0  0  0  0
  187.5900  177.8280  145.3240 C   0  0  0  0  0  2  0  0  0  0  0  0
  186.3020  177.7420  146.1280 C   0  0  0  0  0  2  0  0  0  0  0  0
  185.5370  179.0550  146.0760 C   0  0  0  0  0  2  0  0  0  0  0  0
  184.1450  178.8080  145.7350 N   0  0  0  0  0  2  0  0  0  0  0  0
  183.6300  179.0620  144.4280 C   0  0  0  0  0  0  0  0  0  0  0  0
  182.2550  178.7920  144.1540 N   0  0  0  0  0  2  0  0  0  0  0  0
  184.3820  179.5170  143.5240 O   0  0  0  0  0  0  0  0  0  0  0  0
  181.6700  179.0260  142.8450 C   0  0  0  0  0  2  0  0  0  0  0  0
  180.2960  179.6400  143.0080 C   0  0  0  0  0  1  0  0  0  0  0  0
  1 10  1  1  0  0  0
  1  2  1  0  0  0  0
  1 22  1  0  0  0  0
  2  5  1  0  0  0  0
  3  4  1  0  0  0  0
  4  2  1  0  0  0  0
  5  6  1  0  0  0  0
  6  7  1  0  0  0  0
  7  8  1  0  0  0  0
  8  9  1  0  0  0  0
 11 14  1  0  0  0  0
 11 10  1  0  0  0  0
 12 11  1  0  0  0  0
 13 12  1  0  0  0  0
 15 16  1  0  0  0  0
 15 14  1  0  0  0  0
 17 16  1  0  0  0  0
 18 17  1  0  0  0  0
 19 21  1  0  0  0  0
 19 17  1  0  0  0  0
 21 20  1  0  0  0  0
 22 23  1  0  0  0  0
 23 24  1  0  0  0  0
 24 25  1  0  0  0  0
 26 25  1  0  0  0  0
 27 26  1  0  0  0  0
 28 27  1  0  0  0  0
 29 28  1  0  0  0  0
 30 28  2  0  0  0  0
 31 32  1  0  0  0  0
 31 29  1  0  0  0  0
M  END
>  <MODEL>
3

>  <REMARK>
 VINA RESULT:      -5.4      2.726      5.725
  Name = 
  22 active torsions:
  status: ('A' for Active; 'I' for Inactive)
    1  A    between atoms: C_1  and  N_20
    2  A    between atoms: C_2  and  C_12
    3  A    between atoms: C_2  and  O_23
    4  A    between atoms: N_4  and  C_5
    5  A    between atoms: N_4  and  C_15
    6  A    between atoms: O_6  and  N_31
    7  A    between atoms: C_8  and  O_23
    8  A    between atoms: C_8  and  C_28
    9  A    between atoms: C_9  and  N_10
   10  A    between atoms: C_9  and  C_12
   11  A    between atoms: N_11  and  C_18
   12  A    between atoms: N_11  and  C_32
   13  A    between atoms: C_13  and  C_28
   14  A    between atoms: C_13  and  N_31
   15  A    between atoms: N_14  and  C_21
   16  A    between atoms: N_14  and  C_26
   17  A    between atoms: N_14  and  C_28
   18  A    between atoms: C_15  and  C_26
   19  A    between atoms: C_16  and  O_27
   20  A    between atoms: C_16  and  N_31
   21  A    between atoms: C_18  and  C_22
   22  A    between atoms: O_27  and  C_32
                            x       y       z     vdW  Elec       q    Type
                         _______ _______ _______ _____ _____    ______ ____

>  <TORSDO>
F 22

$$$$
=
 OpenBabel10262421413D

 32 31  0  0  1  0  0  0  0  0999 V2000
  188.3880  177.6640  140.3050 C   0  0  2  0  0  3  0  0  0  0  0  0
  189.5900  177.0200  140.8680 N   0  0  0  0  0  0  0  0  0  0  0  0
  190.7600  175.7940  139.2570 O   0  0  0  0  0  1  0  0  0  0  0  0
  190.6700  177.0380  139.8820 C   0  0  0  0  0  2  0  0  0  0  0  0
  190.0550  177.7220  142.0760 C   0  0  0  0  0  2  0  0  0  0  0  0
  191.4110  177.2220  142.5830 C   0  0  0  0  0  2  0  0  0  0  0  0
  191.6560  177.7400  143.9170 N   0  0  0  0  0  2  0  0  0  0  0  0
  191.4900  176.6290  144.8390 C   0  0  0  0  0  2  0  0  0  0  0  0
  191.8990  175.3410  144.1550 C   0  0  0  0  0  1  0  0  0  0  0  0
  188.6870  178.3530  138.9660 C   0  0  0  0  0  2  0  0  0  0  0  0
  187.4660  178.5640  138.1990 N   0  0  0  0  0  0  0  0  0  0  0  0
  187.8100  179.2870  137.1050 O   0  0  0  0  0  0  0  0  0  0  0  0
  189.1250  178.9110  136.8240 C   0  0  0  0  0  1  0  0  0  0  0  0
  187.0420  177.2560  137.7270 C   0  0  0  0  0  2  0  0  0  0  0  0
  185.7070  177.3120  137.3250 O   0  0  0  0  0  0  0  0  0  0  0  0
  185.0440  177.9160  138.3940 C   0  0  0  0  0  2  0  0  0  0  0  0
  183.7080  178.3240  137.9790 N   0  0  0  0  0  0  0  0  0  0  0  0
  183.2420  179.3540  138.8970 C   0  0  0  0  0  1  0  0  0  0  0  0
  182.7830  177.1800  138.0030 C   0  0  0  0  0  2  0  0  0  0  0  0
  181.4900  176.5670  139.9340 O   0  0  0  0  0  1  0  0  0  0  0  0
  182.7450  176.4310  139.3390 C   0  0  0  0  0  2  0  0  0  0  0  0
  187.7940  178.6800  141.2830 C   0  0  0  0  0  2  0  0  0  0  0  0
  186.4100  178.5150  141.3590 O   0  0  0  0  0  0  0  0  0  0  0  0
  186.1560  178.3000  142.7130 C   0  0  0  0  0  2  0  0  0  0  0  0
  184.7960  178.8740  143.0830 C   0  0  0  0  0  2  0  0  0  0  0  0
  184.5370  178.7440  144.5750 C   0  0  0  0  0  2  0  0  0  0  0  0
  185.6520  178.0670  145.2190 N   0  0  0  0  0  2  0  0  0  0  0  0
  186.1440  178.4670  146.4970 C   0  0  0  0  0  0  0  0  0  0  0  0
  187.2370  177.7580  147.0790 N   0  0  0  0  0  2  0  0  0  0  0  0
  185.6160  179.4370  147.1080 O   0  0  0  0  0  0  0  0  0  0  0  0
  187.7830  178.1140  148.3770 C   0  0  0  0  0  2  0  0  0  0  0  0
  189.2940  178.1270  148.3040 C   0  0  0  0  0  1  0  0  0  0  0  0
  1 10  1  6  0  0  0
  1  2  1  0  0  0  0
  1 22  1  0  0  0  0
  2  5  1  0  0  0  0
  3  4  1  0  0  0  0
  4  2  1  0  0  0  0
  5  6  1  0  0  0  0
  6  7  1  0  0  0  0
  7  8  1  0  0  0  0
  9  8  1  0  0  0  0
 11 10  1  0  0  0  0
 12 11  1  0  0  0  0
 13 12  1  0  0  0  0
 14 11  1  0  0  0  0
 15 14  1  0  0  0  0
 15 16  1  0  0  0  0
 17 19  1  0  0  0  0
 17 16  1  0  0  0  0
 17 18  1  0  0  0  0
 19 21  1  0  0  0  0
 21 20  1  0  0  0  0
 22 23  1  0  0  0  0
 23 24  1  0  0  0  0
 24 25  1  0  0  0  0
 25 26  1  0  0  0  0
 26 27  1  0  0  0  0
 27 28  1  0  0  0  0
 28 29  1  0  0  0  0
 28 30  2  0  0  0  0
 29 31  1  0  0  0  0
 32 31  1  0  0  0  0
M  END
>  <MODEL>
4

>  <REMARK>
 VINA RESULT:      -5.4      2.460      4.566
  Name = 
  22 active torsions:
  status: ('A' for Active; 'I' for Inactive)
    1  A    between atoms: C_1  and  N_20
    2  A    between atoms: C_2  and  C_12
    3  A    between atoms: C_2  and  O_23
    4  A    between atoms: N_4  and  C_5
    5  A    between atoms: N_4  and  C_15
    6  A    between atoms: O_6  and  N_31
    7  A    between atoms: C_8  and  O_23
    8  A    between atoms: C_8  and  C_28
    9  A    between atoms: C_9  and  N_10
   10  A    between atoms: C_9  and  C_12
   11  A    between atoms: N_11  and  C_18
   12  A    between atoms: N_11  and  C_32
   13  A    between atoms: C_13  and  C_28
   14  A    between atoms: C_13  and  N_31
   15  A    between atoms: N_14  and  C_21
   16  A    between atoms: N_14  and  C_26
   17  A    between atoms: N_14  and  C_28
   18  A    between atoms: C_15  and  C_26
   19  A    between atoms: C_16  and  O_27
   20  A    between atoms: C_16  and  N_31
   21  A    between atoms: C_18  and  C_22
   22  A    between atoms: O_27  and  C_32
                            x       y       z     vdW  Elec       q    Type
                         _______ _______ _______ _____ _____    ______ ____

>  <TORSDO>
F 22

$$$$
=
 OpenBabel10262421413D

 32 31  0  0  1  0  0  0  0  0999 V2000
  187.4230  178.0960  140.3380 C   0  0  2  0  0  3  0  0  0  0  0  0
  186.3360  178.9340  140.8780 N   0  0  0  0  0  0  0  0  0  0  0  0
  184.7280  179.9560  139.5230 O   0  0  0  0  0  1  0  0  0  0  0  0
  185.1220  178.7420  140.0860 C   0  0  0  0  0  2  0  0  0  0  0  0
  186.0370  178.5830  142.2760 C   0  0  0  0  0  2  0  0  0  0  0  0
  184.8300  179.3350  142.8450 C   0  0  0  0  0  2  0  0  0  0  0  0
  184.9170  179.3750  144.2930 N   0  0  0  0  0  2  0  0  0  0  0  0
  183.5950  179.0580  144.8050 C   0  0  0  0  0  2  0  0  0  0  0  0
  182.6090  179.0020  143.6570 C   0  0  0  0  0  1  0  0  0  0  0  0
  188.7500  178.3470  141.0680 C   0  0  0  0  0  2  0  0  0  0  0  0
  189.3760  177.0920  141.4670 N   0  0  0  0  0  0  0  0  0  0  0  0
  190.4070  176.8800  140.6130 O   0  0  0  0  0  0  0  0  0  0  0  0
  191.5370  177.3390  141.2920 C   0  0  0  0  0  1  0  0  0  0  0  0
  189.9530  177.3170  142.7820 C   0  0  0  0  0  2  0  0  0  0  0  0
  188.9400  177.3540  143.7390 O   0  0  0  0  0  0  0  0  0  0  0  0
  189.5920  177.6890  144.9270 C   0  0  0  0  0  2  0  0  0  0  0  0
  188.9150  177.0620  146.0550 N   0  0  0  0  0  0  0  0  0  0  0  0
  187.6690  177.7770  146.2920 C   0  0  0  0  0  1  0  0  0  0  0  0
  189.7560  177.1140  147.2610 C   0  0  0  0  0  2  0  0  0  0  0  0
  192.0480  176.9790  147.9740 O   0  0  0  0  0  1  0  0  0  0  0  0
  191.1090  176.4080  147.1140 C   0  0  0  0  0  2  0  0  0  0  0  0
  187.6110  178.3310  138.8380 C   0  0  0  0  0  2  0  0  0  0  0  0
  188.7540  179.1000  138.6150 O   0  0  0  0  0  0  0  0  0  0  0  0
  188.9380  179.0650  137.2330 C   0  0  0  0  0  2  0  0  0  0  0  0
  188.5010  177.7150  136.6850 C   0  0  0  0  0  2  0  0  0  0  0  0
  189.6690  176.9810  136.0470 C   0  0  0  0  0  2  0  0  0  0  0  0
  190.4400  176.2880  137.0670 N   0  0  0  0  0  2  0  0  0  0  0  0
  191.5620  175.4690  136.7400 C   0  0  0  0  0  0  0  0  0  0  0  0
  192.2830  174.8200  137.7870 N   0  0  0  0  0  2  0  0  0  0  0  0
  191.9160  175.3220  135.5380 O   0  0  0  0  0  0  0  0  0  0  0  0
  193.4350  173.9750  137.5220 C   0  0  0  0  0  2  0  0  0  0  0  0
  194.6990  174.8030  137.6100 C   0  0  0  0  0  1  0  0  0  0  0  0
  1 22  1  6  0  0  0
  1  2  1  0  0  0  0
  1 10  1  0  0  0  0
  2  5  1  0  0  0  0
  3  4  1  0  0  0  0
  4  2  1  0  0  0  0
  5  6  1  0  0  0  0
  6  7  1  0  0  0  0
  7  8  1  0  0  0  0
  9  8  1  0  0  0  0
 10 11  1  0  0  0  0
 11 14  1  0  0  0  0
 12 13  1  0  0  0  0
 12 11  1  0  0  0  0
 14 15  1  0  0  0  0
 15 16  1  0  0  0  0
 16 17  1  0  0  0  0
 17 18  1  0  0  0  0
 17 19  1  0  0  0  0
 21 19  1  0  0  0  0
 21 20  1  0  0  0  0
 23 22  1  0  0  0  0
 24 23  1  0  0  0  0
 25 24  1  0  0  0  0
 26 25  1  0  0  0  0
 26 27  1  0  0  0  0
 28 27  1  0  0  0  0
 28 29  1  0  0  0  0
 30 28  2  0  0  0  0
 31 32  1  0  0  0  0
 31 29  1  0  0  0  0
M  END
>  <MODEL>
5

>  <REMARK>
 VINA RESULT:      -5.3      2.036      8.171
  Name = 
  22 active torsions:
  status: ('A' for Active; 'I' for Inactive)
    1  A    between atoms: C_1  and  N_20
    2  A    between atoms: C_2  and  C_12
    3  A    between atoms: C_2  and  O_23
    4  A    between atoms: N_4  and  C_5
    5  A    between atoms: N_4  and  C_15
    6  A    between atoms: O_6  and  N_31
    7  A    between atoms: C_8  and  O_23
    8  A    between atoms: C_8  and  C_28
    9  A    between atoms: C_9  and  N_10
   10  A    between atoms: C_9  and  C_12
   11  A    between atoms: N_11  and  C_18
   12  A    between atoms: N_11  and  C_32
   13  A    between atoms: C_13  and  C_28
   14  A    between atoms: C_13  and  N_31
   15  A    between atoms: N_14  and  C_21
   16  A    between atoms: N_14  and  C_26
   17  A    between atoms: N_14  and  C_28
   18  A    between atoms: C_15  and  C_26
   19  A    between atoms: C_16  and  O_27
   20  A    between atoms: C_16  and  N_31
   21  A    between atoms: C_18  and  C_22
   22  A    between atoms: O_27  and  C_32
                            x       y       z     vdW  Elec       q    Type
                         _______ _______ _______ _____ _____    ______ ____

>  <TORSDO>
F 22

$$$$
=
 OpenBabel10262421413D

 32 31  0  0  1  0  0  0  0  0999 V2000
  186.4660  178.2210  141.9060 C   0  0  2  0  0  3  0  0  0  0  0  0
  187.9320  178.3590  141.9760 N   0  0  0  0  0  0  0  0  0  0  0  0
  187.8050  176.3660  143.1930 O   0  0  0  0  0  1  0  0  0  0  0  0
  188.4470  177.6030  143.1180 C   0  0  0  0  0  2  0  0  0  0  0  0
  188.5750  177.8480  140.7540 C   0  0  0  0  0  2  0  0  0  0  0  0
  190.0460  177.4730  140.9560 C   0  0  0  0  0  2  0  0  0  0  0  0
  190.3690  176.3090  140.1490 N   0  0  0  0  0  2  0  0  0  0  0  0
  190.6500  176.7890  138.8070 C   0  0  0  0  0  2  0  0  0  0  0  0
  192.0970  176.5050  138.4620 C   0  0  0  0  0  1  0  0  0  0  0  0
  185.9330  178.5310  140.4990 C   0  0  0  0  0  2  0  0  0  0  0  0
  184.6640  179.2450  140.5630 N   0  0  0  0  0  0  0  0  0  0  0  0
  184.5020  179.8640  139.3680 O   0  0  0  0  0  0  0  0  0  0  0  0
  184.6210  178.8470  138.4180 C   0  0  0  0  0  1  0  0  0  0  0  0
  183.6240  178.2340  140.6620 C   0  0  0  0  0  2  0  0  0  0  0  0
  182.3900  178.8480  140.8710 O   0  0  0  0  0  0  0  0  0  0  0  0
  182.1890  178.7730  142.2500 C   0  0  0  0  0  2  0  0  0  0  0  0
  180.9180  179.3940  142.5990 N   0  0  0  0  0  0  0  0  0  0  0  0
  180.3980  178.7300  143.7860 C   0  0  0  0  0  1  0  0  0  0  0  0
  179.9550  179.2650  141.4930 C   0  0  0  0  0  2  0  0  0  0  0  0
  179.2950  181.5710  141.6410 O   0  0  0  0  0  1  0  0  0  0  0  0
  179.6800  180.5730  140.7440 C   0  0  0  0  0  2  0  0  0  0  0  0
  185.7740  179.1260  142.9270 C   0  0  0  0  0  2  0  0  0  0  0  0
  185.1760  178.3520  143.9220 O   0  0  0  0  0  0  0  0  0  0  0  0
  184.9370  179.2450  144.9660 C   0  0  0  0  0  2  0  0  0  0  0  0
  184.7840  178.4850  146.2750 C   0  0  0  0  0  2  0  0  0  0  0  0
  186.0290  178.6260  147.1370 C   0  0  0  0  0  2  0  0  0  0  0  0
  187.1040  177.8090  146.5980 N   0  0  0  0  0  2  0  0  0  0  0  0
  188.3780  177.7200  147.2350 C   0  0  0  0  0  0  0  0  0  0  0  0
  189.3910  176.8950  146.6600 N   0  0  0  0  0  2  0  0  0  0  0  0
  188.6060  178.3610  148.2970 O   0  0  0  0  0  0  0  0  0  0  0  0
  190.7070  176.7580  147.2600 C   0  0  0  0  0  2  0  0  0  0  0  0
  191.7430  176.5800  146.1710 C   0  0  0  0  0  1  0  0  0  0  0  0
  1 10  1  6  0  0  0
  1  2  1  0  0  0  0
  1 22  1  0  0  0  0
  2  4  1  0  0  0  0
  4  3  1  0  0  0  0
  5  6  1  0  0  0  0
  5  2  1  0  0  0  0
  7  6  1  0  0  0  0
  8  7  1  0  0  0  0
  9  8  1  0  0  0  0
 10 11  1  0  0  0  0
 11 14  1  0  0  0  0
 12 11  1  0  0  0  0
 13 12  1  0  0  0  0
 14 15  1  0  0  0  0
 15 16  1  0  0  0  0
 16 17  1  0  0  0  0
 17 18  1  0  0  0  0
 19 17  1  0  0  0  0
 21 19  1  0  0  0  0
 21 20  1  0  0  0  0
 22 23  1  0  0  0  0
 23 24  1  0  0  0  0
 24 25  1  0  0  0  0
 25 26  1  0  0  0  0
 27 26  1  0  0  0  0
 27 28  1  0  0  0  0
 28 30  2  0  0  0  0
 29 28  1  0  0  0  0
 29 31  1  0  0  0  0
 32 31  1  0  0  0  0
M  END
>  <MODEL>
6

>  <REMARK>
 VINA RESULT:      -5.2      2.988      6.817
  Name = 
  22 active torsions:
  status: ('A' for Active; 'I' for Inactive)
    1  A    between atoms: C_1  and  N_20
    2  A    between atoms: C_2  and  C_12
    3  A    between atoms: C_2  and  O_23
    4  A    between atoms: N_4  and  C_5
    5  A    between atoms: N_4  and  C_15
    6  A    between atoms: O_6  and  N_31
    7  A    between atoms: C_8  and  O_23
    8  A    between atoms: C_8  and  C_28
    9  A    between atoms: C_9  and  N_10
   10  A    between atoms: C_9  and  C_12
   11  A    between atoms: N_11  and  C_18
   12  A    between atoms: N_11  and  C_32
   13  A    between atoms: C_13  and  C_28
   14  A    between atoms: C_13  and  N_31
   15  A    between atoms: N_14  and  C_21
   16  A    between atoms: N_14  and  C_26
   17  A    between atoms: N_14  and  C_28
   18  A    between atoms: C_15  and  C_26
   19  A    between atoms: C_16  and  O_27
   20  A    between atoms: C_16  and  N_31
   21  A    between atoms: C_18  and  C_22
   22  A    between atoms: O_27  and  C_32
                            x       y       z     vdW  Elec       q    Type
                         _______ _______ _______ _____ _____    ______ ____

>  <TORSDO>
F 22

$$$$
=
 OpenBabel10262421413D

 32 31  0  0  1  0  0  0  0  0999 V2000
  189.5680  176.5280  143.3020 C   0  0  2  0  0  3  0  0  0  0  0  0
  190.6860  176.7680  144.2330 N   0  0  0  0  0  0  0  0  0  0  0  0
  191.8300  178.7920  143.9750 O   0  0  0  0  0  1  0  0  0  0  0  0
  191.7670  177.4680  143.5390 C   0  0  0  0  0  2  0  0  0  0  0  0
  190.2610  177.5920  145.3770 C   0  0  0  0  0  2  0  0  0  0  0  0
  190.4670  176.9030  146.7290 C   0  0  0  0  0  2  0  0  0  0  0  0
  189.1820  176.6940  147.3720 N   0  0  0  0  0  2  0  0  0  0  0  0
  188.7850  177.9670  147.9490 C   0  0  0  0  0  2  0  0  0  0  0  0
  187.2980  178.1710  147.7450 C   0  0  0  0  0  1  0  0  0  0  0  0
  190.0470  176.4520  141.8450 C   0  0  0  0  0  2  0  0  0  0  0  0
  189.7490  177.6850  141.1290 N   0  0  0  0  0  0  0  0  0  0  0  0
  190.8480  177.9860  140.3930 O   0  0  0  0  0  0  0  0  0  0  0  0
  191.1130  176.8330  139.6530 C   0  0  0  0  0  1  0  0  0  0  0  0
  188.6830  177.3720  140.1910 C   0  0  0  0  0  2  0  0  0  0  0  0
  188.1440  178.5530  139.6810 O   0  0  0  0  0  0  0  0  0  0  0  0
  187.9740  178.3020  138.3190 C   0  0  0  0  0  2  0  0  0  0  0  0
  186.7900  177.4780  138.1130 N   0  0  0  0  0  0  0  0  0  0  0  0
  187.0350  176.6080  136.9710 C   0  0  0  0  0  1  0  0  0  0  0  0
  185.6090  178.3180  137.8560 C   0  0  0  0  0  2  0  0  0  0  0  0
  184.8770  179.6870  139.6900 O   0  0  0  0  0  1  0  0  0  0  0  0
  184.6670  178.4620  139.0560 C   0  0  0  0  0  2  0  0  0  0  0  0
  188.4950  177.6100  143.4330 C   0  0  0  0  0  2  0  0  0  0  0  0
  187.2490  177.0220  143.6570 O   0  0  0  0  0  0  0  0  0  0  0  0
  186.3270  177.9890  143.2560 C   0  0  0  0  0  2  0  0  0  0  0  0
  185.4140  178.3490  144.4180 C   0  0  0  0  0  2  0  0  0  0  0  0
  184.2500  179.2080  143.9510 C   0  0  0  0  0  2  0  0  0  0  0  0
  183.6940  178.6690  142.7200 N   0  0  0  0  0  2  0  0  0  0  0  0
  182.3180  178.8300  142.3780 C   0  0  0  0  0  0  0  0  0  0  0  0
  181.8340  178.2830  141.1520 N   0  0  0  0  0  2  0  0  0  0  0  0
  181.5370  179.4520  143.1500 O   0  0  0  0  0  0  0  0  0  0  0  0
  180.4450  178.4140  140.7440 C   0  0  0  0  0  2  0  0  0  0  0  0
  179.6710  177.1920  141.1860 C   0  0  0  0  0  1  0  0  0  0  0  0
  1 10  1  6  0  0  0
  1 22  1  0  0  0  0
  1  2  1  0  0  0  0
  2  5  1  0  0  0  0
  4  3  1  0  0  0  0
  4  2  1  0  0  0  0
  5  6  1  0  0  0  0
  6  7  1  0  0  0  0
  7  8  1  0  0  0  0
  9  8  1  0  0  0  0
 11 10  1  0  0  0  0
 12 11  1  0  0  0  0
 13 12  1  0  0  0  0
 14 11  1  0  0  0  0
 15 14  1  0  0  0  0
 16 15  1  0  0  0  0
 17 16  1  0  0  0  0
 18 17  1  0  0  0  0
 19 17  1  0  0  0  0
 19 21  1  0  0  0  0
 21 20  1  0  0  0  0
 22 23  1  0  0  0  0
 24 23  1  0  0  0  0
 24 25  1  0  0  0  0
 26 25  1  0  0  0  0
 27 26  1  0  0  0  0
 28 27  1  0  0  0  0
 28 30  2  0  0  0  0
 29 28  1  0  0  0  0
 31 29  1  0  0  0  0
 31 32  1  0  0  0  0
M  END
>  <MODEL>
7

>  <REMARK>
 VINA RESULT:      -5.1      2.792      5.362
  Name = 
  22 active torsions:
  status: ('A' for Active; 'I' for Inactive)
    1  A    between atoms: C_1  and  N_20
    2  A    between atoms: C_2  and  C_12
    3  A    between atoms: C_2  and  O_23
    4  A    between atoms: N_4  and  C_5
    5  A    between atoms: N_4  and  C_15
    6  A    between atoms: O_6  and  N_31
    7  A    between atoms: C_8  and  O_23
    8  A    between atoms: C_8  and  C_28
    9  A    between atoms: C_9  and  N_10
   10  A    between atoms: C_9  and  C_12
   11  A    between atoms: N_11  and  C_18
   12  A    between atoms: N_11  and  C_32
   13  A    between atoms: C_13  and  C_28
   14  A    between atoms: C_13  and  N_31
   15  A    between atoms: N_14  and  C_21
   16  A    between atoms: N_14  and  C_26
   17  A    between atoms: N_14  and  C_28
   18  A    between atoms: C_15  and  C_26
   19  A    between atoms: C_16  and  O_27
   20  A    between atoms: C_16  and  N_31
   21  A    between atoms: C_18  and  C_22
   22  A    between atoms: O_27  and  C_32
                            x       y       z     vdW  Elec       q    Type
                         _______ _______ _______ _____ _____    ______ ____

>  <TORSDO>
F 22

$$$$
=
 OpenBabel10262421413D

 32 31  0  0  1  0  0  0  0  0999 V2000
  187.0640  177.6280  145.8870 C   0  0  2  0  0  3  0  0  0  0  0  0
  188.2330  177.8030  146.7690 N   0  0  0  0  0  0  0  0  0  0  0  0
  188.1080  178.2400  149.0630 O   0  0  0  0  0  1  0  0  0  0  0  0
  187.9400  177.2510  148.0930 C   0  0  0  0  0  2  0  0  0  0  0  0
  189.4160  177.1110  146.2310 C   0  0  0  0  0  2  0  0  0  0  0  0
  190.5580  176.9880  147.2430 C   0  0  0  0  0  2  0  0  0  0  0  0
  191.8200  176.8400  146.5410 N   0  0  0  0  0  2  0  0  0  0  0  0
  192.4240  175.6060  147.0100 C   0  0  0  0  0  2  0  0  0  0  0  0
  192.7550  175.7340  148.4830 C   0  0  0  0  0  1  0  0  0  0  0  0
  187.3220  178.1970  144.4840 C   0  0  0  0  0  2  0  0  0  0  0  0
  186.9510  177.2380  143.4510 N   0  0  0  0  0  0  0  0  0  0  0  0
  187.1640  177.8460  142.2580 O   0  0  0  0  0  0  0  0  0  0  0  0
  186.0910  178.7260  142.1060 C   0  0  0  0  0  1  0  0  0  0  0  0
  187.9010  176.1420  143.5440 C   0  0  0  0  0  2  0  0  0  0  0  0
  188.6860  176.1020  142.3920 O   0  0  0  0  0  0  0  0  0  0  0  0
  189.9990  176.1710  142.8600 C   0  0  0  0  0  2  0  0  0  0  0  0
  190.6360  177.3850  142.3650 N   0  0  0  0  0  0  0  0  0  0  0  0
  190.9290  177.2000  140.9510 C   0  0  0  0  0  1  0  0  0  0  0  0
  191.8800  177.6570  143.1020 C   0  0  0  0  0  2  0  0  0  0  0  0
  190.5550  179.4570  143.9840 O   0  0  0  0  0  1  0  0  0  0  0  0
  191.8530  178.9490  143.9240 C   0  0  0  0  0  2  0  0  0  0  0  0
  185.8160  178.2810  146.4830 C   0  0  0  0  0  2  0  0  0  0  0  0
  185.2320  179.1360  145.5480 O   0  0  0  0  0  0  0  0  0  0  0  0
  183.8890  178.7580  145.5170 C   0  0  0  0  0  2  0  0  0  0  0  0
  183.2020  179.3810  144.3110 C   0  0  0  0  0  2  0  0  0  0  0  0
  181.9230  178.6360  143.9670 C   0  0  0  0  0  2  0  0  0  0  0  0
  181.2410  179.2970  142.8650 N   0  0  0  0  0  2  0  0  0  0  0  0
  181.5010  178.9580  141.5040 C   0  0  0  0  0  0  0  0  0  0  0  0
  180.7940  179.6390  140.4670 N   0  0  0  0  0  2  0  0  0  0  0  0
  182.3440  178.0650  141.2190 O   0  0  0  0  0  0  0  0  0  0  0  0
  181.0100  179.3400  139.0620 C   0  0  0  0  0  2  0  0  0  0  0  0
  179.9560  178.3630  138.5860 C   0  0  0  0  0  1  0  0  0  0  0  0
  1 10  1  6  0  0  0
  1 22  1  0  0  0  0
  1  2  1  0  0  0  0
  2  4  1  0  0  0  0
  4  3  1  0  0  0  0
  5  2  1  0  0  0  0
  5  6  1  0  0  0  0
  7  8  1  0  0  0  0
  7  6  1  0  0  0  0
  8  9  1  0  0  0  0
 11 14  1  0  0  0  0
 11 10  1  0  0  0  0
 12 11  1  0  0  0  0
 13 12  1  0  0  0  0
 15 16  1  0  0  0  0
 15 14  1  0  0  0  0
 17 16  1  0  0  0  0
 17 19  1  0  0  0  0
 18 17  1  0  0  0  0
 19 21  1  0  0  0  0
 21 20  1  0  0  0  0
 23 22  1  0  0  0  0
 24 23  1  0  0  0  0
 25 24  1  0  0  0  0
 26 25  1  0  0  0  0
 27 26  1  0  0  0  0
 28 27  1  0  0  0  0
 29 28  1  0  0  0  0
 30 28  2  0  0  0  0
 31 29  1  0  0  0  0
 32 31  1  0  0  0  0
M  END
>  <MODEL>
8

>  <REMARK>
 VINA RESULT:      -5.1      3.117      5.842
  Name = 
  22 active torsions:
  status: ('A' for Active; 'I' for Inactive)
    1  A    between atoms: C_1  and  N_20
    2  A    between atoms: C_2  and  C_12
    3  A    between atoms: C_2  and  O_23
    4  A    between atoms: N_4  and  C_5
    5  A    between atoms: N_4  and  C_15
    6  A    between atoms: O_6  and  N_31
    7  A    between atoms: C_8  and  O_23
    8  A    between atoms: C_8  and  C_28
    9  A    between atoms: C_9  and  N_10
   10  A    between atoms: C_9  and  C_12
   11  A    between atoms: N_11  and  C_18
   12  A    between atoms: N_11  and  C_32
   13  A    between atoms: C_13  and  C_28
   14  A    between atoms: C_13  and  N_31
   15  A    between atoms: N_14  and  C_21
   16  A    between atoms: N_14  and  C_26
   17  A    between atoms: N_14  and  C_28
   18  A    between atoms: C_15  and  C_26
   19  A    between atoms: C_16  and  O_27
   20  A    between atoms: C_16  and  N_31
   21  A    between atoms: C_18  and  C_22
   22  A    between atoms: O_27  and  C_32
                            x       y       z     vdW  Elec       q    Type
                         _______ _______ _______ _____ _____    ______ ____

>  <TORSDO>
F 22

$$$$
=
 OpenBabel10262421413D

 32 31  0  0  1  0  0  0  0  0999 V2000
  190.6250  177.1590  139.2430 C   0  0  2  0  0  3  0  0  0  0  0  0
  189.5210  178.1170  139.0500 N   0  0  0  0  0  0  0  0  0  0  0  0
  188.5170  179.5350  137.4850 O   0  0  0  0  0  1  0  0  0  0  0  0
  189.4300  178.4910  137.6390 C   0  0  0  0  0  2  0  0  0  0  0  0
  188.2320  177.5340  139.4590 C   0  0  0  0  0  2  0  0  0  0  0  0
  187.5410  178.3170  140.5780 C   0  0  0  0  0  2  0  0  0  0  0  0
  186.2360  178.7670  140.1280 N   0  0  0  0  0  2  0  0  0  0  0  0
  185.4320  178.9930  141.3160 C   0  0  0  0  0  2  0  0  0  0  0  0
  186.1270  178.3890  142.5180 C   0  0  0  0  0  1  0  0  0  0  0  0
  190.4690  175.9230  138.3450 C   0  0  0  0  0  2  0  0  0  0  0  0
  191.7580  175.2960  138.0850 N   0  0  0  0  0  0  0  0  0  0  0  0
  191.5000  174.0560  137.6000 O   0  0  0  0  0  0  0  0  0  0  0  0
  190.8080  174.2730  136.4070 C   0  0  0  0  0  1  0  0  0  0  0  0
  192.3770  176.0520  137.0080 C   0  0  0  0  0  2  0  0  0  0  0  0
  193.7380  176.2080  137.2660 O   0  0  0  0  0  0  0  0  0  0  0  0
  194.3190  176.3590  136.0060 C   0  0  0  0  0  2  0  0  0  0  0  0
  195.7470  176.0770  136.0840 N   0  0  0  0  0  0  0  0  0  0  0  0
  196.3470  176.4160  134.8010 C   0  0  0  0  0  1  0  0  0  0  0  0
  195.9810  174.6550  136.3830 C   0  0  0  0  0  2  0  0  0  0  0  0
  196.8370  173.1230  138.0250 O   0  0  0  0  0  1  0  0  0  0  0  0
  196.9940  174.4090  137.5060 C   0  0  0  0  0  2  0  0  0  0  0  0
  190.7310  176.7210  140.7050 C   0  0  0  0  0  2  0  0  0  0  0  0
  191.1550  177.7900  141.4940 O   0  0  0  0  0  0  0  0  0  0  0  0
  190.3950  177.6920  142.6580 C   0  0  0  0  0  2  0  0  0  0  0  0
  191.3070  177.6840  143.8760 C   0  0  0  0  0  2  0  0  0  0  0  0
  190.7880  176.7320  144.9410 C   0  0  0  0  0  2  0  0  0  0  0  0
  189.3350  176.7780  144.9860 N   0  0  0  0  0  2  0  0  0  0  0  0
  188.6330  177.5180  145.9840 C   0  0  0  0  0  0  0  0  0  0  0  0
  187.2050  177.5290  145.9710 N   0  0  0  0  0  2  0  0  0  0  0  0
  189.2670  178.1590  146.8670 O   0  0  0  0  0  0  0  0  0  0  0  0
  186.4310  178.2650  146.9560 C   0  0  0  0  0  2  0  0  0  0  0  0
  184.9990  178.3900  146.4830 C   0  0  0  0  0  1  0  0  0  0  0  0
  1 10  1  6  0  0  0
  1 22  1  0  0  0  0
  2  1  1  0  0  0  0
  2  5  1  0  0  0  0
  3  4  1  0  0  0  0
  4  2  1  0  0  0  0
  5  6  1  0  0  0  0
  7  6  1  0  0  0  0
  7  8  1  0  0  0  0
  8  9  1  0  0  0  0
 11 10  1  0  0  0  0
 12 11  1  0  0  0  0
 13 12  1  0  0  0  0
 14 15  1  0  0  0  0
 14 11  1  0  0  0  0
 16 17  1  0  0  0  0
 16 15  1  0  0  0  0
 17 19  1  0  0  0  0
 18 17  1  0  0  0  0
 19 21  1  0  0  0  0
 21 20  1  0  0  0  0
 22 23  1  0  0  0  0
 23 24  1  0  0  0  0
 24 25  1  0  0  0  0
 25 26  1  0  0  0  0
 26 27  1  0  0  0  0
 27 28  1  0  0  0  0
 28 30  2  0  0  0  0
 29 28  1  0  0  0  0
 29 31  1  0  0  0  0
 32 31  1  0  0  0  0
M  END
>  <MODEL>
9

>  <REMARK>
 VINA RESULT:      -5.1      2.281      5.025
  Name = 
  22 active torsions:
  status: ('A' for Active; 'I' for Inactive)
    1  A    between atoms: C_1  and  N_20
    2  A    between atoms: C_2  and  C_12
    3  A    between atoms: C_2  and  O_23
    4  A    between atoms: N_4  and  C_5
    5  A    between atoms: N_4  and  C_15
    6  A    between atoms: O_6  and  N_31
    7  A    between atoms: C_8  and  O_23
    8  A    between atoms: C_8  and  C_28
    9  A    between atoms: C_9  and  N_10
   10  A    between atoms: C_9  and  C_12
   11  A    between atoms: N_11  and  C_18
   12  A    between atoms: N_11  and  C_32
   13  A    between atoms: C_13  and  C_28
   14  A    between atoms: C_13  and  N_31
   15  A    between atoms: N_14  and  C_21
   16  A    between atoms: N_14  and  C_26
   17  A    between atoms: N_14  and  C_28
   18  A    between atoms: C_15  and  C_26
   19  A    between atoms: C_16  and  O_27
   20  A    between atoms: C_16  and  N_31
   21  A    between atoms: C_18  and  C_22
   22  A    between atoms: O_27  and  C_32
                            x       y       z     vdW  Elec       q    Type
                         _______ _______ _______ _____ _____    ______ ____

>  <TORSDO>
F 22

$$$$
