=
 OpenBabel10262420203D

 55 60  0  0  1  0  0  0  0  0999 V2000
  181.2970  178.0290  140.5320 O   0  0  0  0  0  0  0  0  0  0  0  0
  186.2620  176.6230  137.5270 C   0  0  0  0  0  2  0  0  0  0  0  0
  184.0950  178.1800  135.6600 S   0  0  0  0  0  1  0  0  0  0  0  0
  182.8230  178.3070  138.1530 C   0  0  0  0  0  2  0  0  0  0  0  0
  183.0110  179.4670  143.5090 C   0  0  0  0  0  3  0  0  0  0  0  0
  184.5670  178.2950  142.0370 C   0  0  0  0  0  0  0  0  0  0  0  0
  181.2610  176.7100  140.0600 C   0  0  0  0  0  2  0  0  0  0  0  0
  183.5740  177.8400  141.2690 C   0  0  0  0  0  3  0  0  0  0  0  0
  187.1480  177.7530  138.0550 C   0  0  0  0  0  2  0  0  0  0  0  0
  184.7970  176.7540  137.9490 C   0  0  0  0  0  2  0  0  0  0  0  0
  184.1770  178.0690  137.4830 C   0  0  1  0  0  3  0  0  0  0  0  0
  181.9330  179.3010  142.4670 C   0  0  0  0  0  2  0  0  0  0  0  0
  187.3210  177.6790  139.5660 C   0  0  2  0  0  3  0  0  0  0  0  0
  182.1250  178.0070  141.6660 C   0  0  1  0  0  3  0  0  0  0  0  0
  181.6880  177.4580  137.5700 C   0  0  1  0  0  3  0  0  0  0  0  0
  180.8390  176.6470  138.5890 C   0  0  1  0  0  3  0  0  0  0  0  0
  186.2530  178.5250  140.2480 C   0  0  0  0  0  2  0  0  0  0  0  0
  185.9830  178.0150  141.6560 C   0  0  0  0  0  2  0  0  0  0  0  0
  184.2540  179.0280  143.2800 C   0  0  0  0  0  3  0  0  0  0  0  0
  180.6820  175.1740  138.1880 C   0  0  1  0  0  0  0  0  0  0  0  0
  181.4930  174.6390  137.0620 C   0  0  2  0  0  3  0  0  0  0  0  0
  180.1980  174.2740  139.1460 O   0  0  0  0  0  1  0  0  0  0  0  0
  180.1180  174.9480  136.9180 O   0  0  0  0  0  0  0  0  0  0  0  0
  181.6690  173.1270  137.1170 C   0  0  0  0  0  2  0  0  0  0  0  0
  182.4380  172.6450  135.8990 C   0  0  0  0  0  2  0  0  0  0  0  0
  183.5560  173.6150  135.5550 C   0  0  0  0  0  2  0  0  0  0  0  0
  184.8060  172.8490  135.1460 C   0  0  1  0  0  3  0  0  0  0  0  0
  186.3290  172.5350  136.4720 C   0  0  0  0  0  2  0  0  0  0  0  0
  186.0530  173.6370  135.4790 C   0  0  0  0  0  2  0  0  0  0  0  0
  185.1040  171.8210  136.1330 N   0  0  0  0  0  2  0  0  0  0  0  0
  188.7180  178.1440  139.9650 C   0  0  0  0  0  2  0  0  0  0  0  0
  189.3610  177.1820  140.7520 O   0  0  0  0  0  0  0  0  0  0  0  0
  190.9880  178.9230  144.1440 C   0  0  1  0  0  3  0  0  0  0  0  0
  190.2350  176.1070  144.4180 C   0  0  0  0  0  2  0  0  0  0  0  0
  191.0900  177.0530  142.4290 C   0  0  1  0  0  3  0  0  0  0  0  0
  187.8030  176.6570  144.2770 C   0  0  0  0  0  1  0  0  0  0  0  0
  189.1680  177.1820  144.7230 C   0  0  2  0  0  0  0  0  0  0  0  0
  190.0200  177.9150  141.7420 C   0  0  2  0  0  3  0  0  0  0  0  0
  191.9100  177.9680  143.3670 C   0  0  0  0  0  2  0  0  0  0  0  0
  191.1660  180.2280  143.6780 O   0  0  0  0  0  1  0  0  0  0  0  0
  189.0690  178.4910  142.6300 O   0  0  0  0  0  0  0  0  0  0  0  0
  190.4750  175.9190  143.0360 O   0  0  0  0  0  0  0  0  0  0  0  0
  189.5030  178.5100  143.9870 C   0  0  2  0  0  3  0  0  0  0  0  0
  190.2360  176.6640  147.0030 C   0  0  0  0  0  1  0  0  0  0  0  0
  189.1560  177.4430  146.2490 C   0  0  2  0  0  3  0  0  0  0  0  0
  187.7650  177.2800  146.8890 C   0  0  1  0  0  3  0  0  0  0  0  0
  187.8480  176.8030  148.2040 O   0  0  0  0  0  1  0  0  0  0  0  0
  186.9490  178.5670  146.8260 C   0  0  0  0  0  2  0  0  0  0  0  0
  185.5880  178.2920  146.6860 O   0  0  0  0  0  1  0  0  0  0  0  0
  180.8250  178.3250  136.6450 C   0  0  1  0  0  3  0  0  0  0  0  0
  180.5680  177.6700  135.3180 C   0  0  0  0  0  3  0  0  0  0  0  0
  179.6460  178.0330  134.6020 O   0  0  0  0  0  0  0  0  0  0  0  0
  179.5350  178.8000  137.3190 C   0  0  0  0  0  2  0  0  0  0  0  0
  179.7310  180.1470  137.9950 C   0  0  0  0  0  2  0  0  0  0  0  0
  180.3100  181.1560  137.0210 C   0  0  0  0  0  1  0  0  0  0  0  0
  1 14  1  0  0  0  0
  2 10  1  0  0  0  0
  2  9  1  0  0  0  0
  6 19  1  0  0  0  0
  7  1  1  0  0  0  0
  8  6  2  0  0  0  0
  9 13  1  0  0  0  0
 11  3  1  6  0  0  0
 11 10  1  0  0  0  0
 11  4  1  0  0  0  0
 12  5  1  0  0  0  0
 13 31  1  6  0  0  0
 13 17  1  0  0  0  0
 14  8  1  6  0  0  0
 14 12  1  0  0  0  0
 15 50  1  1  0  0  0
 15  4  1  0  0  0  0
 15 16  1  0  0  0  0
 16  7  1  1  0  0  0
 17 18  1  0  0  0  0
 18  6  1  0  0  0  0
 19  5  2  0  0  0  0
 20 16  1  0  0  0  0
 20 22  1  1  0  0  0
 21 24  1  1  0  0  0
 21 20  1  0  0  0  0
 23 21  1  0  0  0  0
 23 20  1  0  0  0  0
 25 24  1  0  0  0  0
 26 25  1  0  0  0  0
 27 29  1  0  0  0  0
 27 26  1  1  0  0  0
 27 30  1  0  0  0  0
 29 28  1  0  0  0  0
 30 28  1  0  0  0  0
 31 32  1  0  0  0  0
 33 40  1  6  0  0  0
 34 37  1  0  0  0  0
 35 42  1  0  0  0  0
 35 39  1  1  0  0  0
 37 36  1  6  0  0  0
 37 45  1  0  0  0  0
 38 32  1  6  0  0  0
 38 35  1  0  0  0  0
 38 41  1  0  0  0  0
 39 33  1  0  0  0  0
 42 34  1  0  0  0  0
 43 41  1  6  0  0  0
 43 33  1  0  0  0  0
 43 37  1  0  0  0  0
 45 46  1  0  0  0  0
 45 44  1  1  0  0  0
 46 47  1  1  0  0  0
 48 46  1  0  0  0  0
 49 48  1  0  0  0  0
 50 51  1  6  0  0  0
 50 53  1  0  0  0  0
 52 51  2  0  0  0  0
 53 54  1  0  0  0  0
 55 54  1  0  0  0  0
M  END
>  <MODEL>
1

>  <REMARK>
 VINA RESULT:      -5.5      0.000      0.000
  Name = 
  15 active torsions:
  status: ('A' for Active; 'I' for Inactive)
    1  A    between atoms: C_8  and  O_22
    2  A    between atoms: C_8  and  C_43
    3  A    between atoms: C_9  and  C_15
    4  A    between atoms: C_9  and  C_26
    5  A    between atoms: C_10  and  C_32
    6  A    between atoms: C_11  and  C_29
    7  A    between atoms: C_13  and  C_34
    8  A    between atoms: C_13  and  C_48
    9  A    between atoms: C_14  and  C_38
   10  A    between atoms: C_16  and  C_26
   11  A    between atoms: C_20  and  O_22
   12  A    between atoms: C_26  and  C_45
   13  A    between atoms: C_29  and  C_38
   14  A    between atoms: C_32  and  C_48
   15  A    between atoms: C_33  and  C_49
                            x       y       z     vdW  Elec       q    Type
                         _______ _______ _______ _____ _____    ______ ____

>  <TORSDO>
F 15

$$$$
=
 OpenBabel10262420203D

 55 60  0  0  1  0  0  0  0  0999 V2000
  181.0490  178.6720  142.3310 O   0  0  0  0  0  0  0  0  0  0  0  0
  185.1000  177.4570  138.1160 C   0  0  0  0  0  2  0  0  0  0  0  0
  182.7810  179.4800  137.0460 S   0  0  0  0  0  1  0  0  0  0  0  0
  182.0730  179.2550  139.7470 C   0  0  0  0  0  2  0  0  0  0  0  0
  183.4890  179.4240  145.0420 C   0  0  0  0  0  3  0  0  0  0  0  0
  184.5670  178.4210  143.0950 C   0  0  0  0  0  0  0  0  0  0  0  0
  180.7690  177.4640  141.6770 C   0  0  0  0  0  2  0  0  0  0  0  0
  183.3930  178.1850  142.5050 C   0  0  0  0  0  3  0  0  0  0  0  0
  186.1960  178.4050  138.6050 C   0  0  0  0  0  2  0  0  0  0  0  0
  183.7770  177.6200  138.8670 C   0  0  0  0  0  2  0  0  0  0  0  0
  183.2240  179.0390  138.7640 C   0  0  1  0  0  3  0  0  0  0  0  0
  182.2070  179.5280  144.2520 C   0  0  0  0  0  2  0  0  0  0  0  0
  186.6670  178.0510  140.0090 C   0  0  2  0  0  3  0  0  0  0  0  0
  182.0850  178.3860  143.2340 C   0  0  1  0  0  3  0  0  0  0  0  0
  180.7550  178.6100  139.3040 C   0  0  1  0  0  3  0  0  0  0  0  0
  180.0490  177.6960  140.3450 C   0  0  1  0  0  3  0  0  0  0  0  0
  185.8640  178.8390  141.0350 C   0  0  0  0  0  2  0  0  0  0  0  0
  185.8340  178.1080  142.3700 C   0  0  0  0  0  2  0  0  0  0  0  0
  184.6010  178.9420  144.4760 C   0  0  0  0  0  3  0  0  0  0  0  0
  179.6500  176.3340  139.7620 C   0  0  1  0  0  0  0  0  0  0  0  0
  180.2580  175.8890  138.4800 C   0  0  2  0  0  3  0  0  0  0  0  0
  179.1480  175.3610  140.6350 O   0  0  0  0  0  1  0  0  0  0  0  0
  178.9320  176.3800  138.5520 O   0  0  0  0  0  0  0  0  0  0  0  0
  180.2280  174.3770  138.2980 C   0  0  0  0  0  2  0  0  0  0  0  0
  181.1070  173.9730  137.1260 C   0  0  0  0  0  2  0  0  0  0  0  0
  181.7780  172.6370  137.3980 C   0  0  0  0  0  2  0  0  0  0  0  0
  182.9010  172.4020  136.3980 C   0  0  1  0  0  3  0  0  0  0  0  0
  184.8560  172.6700  136.9280 C   0  0  0  0  0  2  0  0  0  0  0  0
  183.8250  173.5980  136.3360 C   0  0  0  0  0  2  0  0  0  0  0  0
  183.9240  171.5500  136.9880 N   0  0  0  0  0  2  0  0  0  0  0  0
  188.1580  178.3320  140.1560 C   0  0  0  0  0  2  0  0  0  0  0  0
  188.8050  177.2770  140.8090 O   0  0  0  0  0  0  0  0  0  0  0  0
  191.1020  178.7220  143.9430 C   0  0  1  0  0  3  0  0  0  0  0  0
  190.0160  176.0300  144.3230 C   0  0  0  0  0  2  0  0  0  0  0  0
  190.7130  176.8860  142.2340 C   0  0  1  0  0  3  0  0  0  0  0  0
  187.6860  176.9070  144.5160 C   0  0  0  0  0  1  0  0  0  0  0  0
  189.1570  177.2340  144.7700 C   0  0  2  0  0  0  0  0  0  0  0  0
  189.6880  177.8960  141.6990 C   0  0  2  0  0  3  0  0  0  0  0  0
  191.7700  177.6640  143.0480 C   0  0  0  0  0  2  0  0  0  0  0  0
  191.3920  179.9980  143.4550 O   0  0  0  0  0  1  0  0  0  0  0  0
  188.9540  178.5810  142.7080 O   0  0  0  0  0  0  0  0  0  0  0  0
  190.0370  175.8350  142.9210 O   0  0  0  0  0  0  0  0  0  0  0  0
  189.5680  178.5170  143.9930 C   0  0  2  0  0  3  0  0  0  0  0  0
  190.6920  176.8500  146.7960 C   0  0  0  0  0  1  0  0  0  0  0  0
  189.3900  177.4680  146.2820 C   0  0  2  0  0  3  0  0  0  0  0  0
  188.1800  177.0870  147.1550 C   0  0  1  0  0  3  0  0  0  0  0  0
  188.4610  175.9980  147.9910 O   0  0  0  0  0  1  0  0  0  0  0  0
  187.6560  178.2720  147.9610 C   0  0  0  0  0  2  0  0  0  0  0  0
  186.5420  178.8430  147.3450 O   0  0  0  0  0  1  0  0  0  0  0  0
  179.8210  179.6900  138.7430 C   0  0  1  0  0  3  0  0  0  0  0  0
  180.1190  181.0530  139.2990 C   0  0  0  0  0  3  0  0  0  0  0  0
  179.6440  181.4190  140.3640 O   0  0  0  0  0  0  0  0  0  0  0  0
  179.7680  179.6840  137.2130 C   0  0  0  0  0  2  0  0  0  0  0  0
  179.3740  181.0480  136.6710 C   0  0  0  0  0  2  0  0  0  0  0  0
  179.3630  181.0380  135.1540 C   0  0  0  0  0  1  0  0  0  0  0  0
  1 14  1  0  0  0  0
  2  9  1  0  0  0  0
  2 10  1  0  0  0  0
  6 19  1  0  0  0  0
  7  1  1  0  0  0  0
  8  6  2  0  0  0  0
  9 13  1  0  0  0  0
 11  3  1  6  0  0  0
 11 10  1  0  0  0  0
 11  4  1  0  0  0  0
 12  5  1  0  0  0  0
 13 31  1  6  0  0  0
 13 17  1  0  0  0  0
 14  8  1  6  0  0  0
 14 12  1  0  0  0  0
 15 50  1  1  0  0  0
 15  4  1  0  0  0  0
 15 16  1  0  0  0  0
 16  7  1  1  0  0  0
 17 18  1  0  0  0  0
 18  6  1  0  0  0  0
 19  5  2  0  0  0  0
 20 16  1  0  0  0  0
 20 22  1  1  0  0  0
 21 24  1  1  0  0  0
 21 23  1  0  0  0  0
 21 20  1  0  0  0  0
 23 20  1  0  0  0  0
 25 26  1  0  0  0  0
 25 24  1  0  0  0  0
 27 30  1  0  0  0  0
 27 26  1  1  0  0  0
 28 30  1  0  0  0  0
 29 27  1  0  0  0  0
 29 28  1  0  0  0  0
 31 32  1  0  0  0  0
 33 40  1  6  0  0  0
 33 43  1  0  0  0  0
 34 37  1  0  0  0  0
 35 42  1  0  0  0  0
 35 39  1  1  0  0  0
 37 36  1  6  0  0  0
 37 45  1  0  0  0  0
 38 32  1  6  0  0  0
 38 35  1  0  0  0  0
 38 41  1  0  0  0  0
 39 33  1  0  0  0  0
 42 34  1  0  0  0  0
 43 41  1  6  0  0  0
 43 37  1  0  0  0  0
 45 44  1  1  0  0  0
 45 46  1  0  0  0  0
 46 48  1  0  0  0  0
 46 47  1  1  0  0  0
 49 48  1  0  0  0  0
 50 53  1  6  0  0  0
 50 51  1  0  0  0  0
 51 52  2  0  0  0  0
 54 53  1  0  0  0  0
 55 54  1  0  0  0  0
M  END
>  <MODEL>
2

>  <REMARK>
 VINA RESULT:      -5.2      1.353      1.907
  Name = 
  15 active torsions:
  status: ('A' for Active; 'I' for Inactive)
    1  A    between atoms: C_8  and  O_22
    2  A    between atoms: C_8  and  C_43
    3  A    between atoms: C_9  and  C_15
    4  A    between atoms: C_9  and  C_26
    5  A    between atoms: C_10  and  C_32
    6  A    between atoms: C_11  and  C_29
    7  A    between atoms: C_13  and  C_34
    8  A    between atoms: C_13  and  C_48
    9  A    between atoms: C_14  and  C_38
   10  A    between atoms: C_16  and  C_26
   11  A    between atoms: C_20  and  O_22
   12  A    between atoms: C_26  and  C_45
   13  A    between atoms: C_29  and  C_38
   14  A    between atoms: C_32  and  C_48
   15  A    between atoms: C_33  and  C_49
                            x       y       z     vdW  Elec       q    Type
                         _______ _______ _______ _____ _____    ______ ____

>  <TORSDO>
F 15

$$$$
=
 OpenBabel10262420203D

 55 60  0  0  1  0  0  0  0  0999 V2000
  183.1520  175.0310  135.5640 O   0  0  0  0  0  0  0  0  0  0  0  0
  184.9040  179.3210  139.3290 C   0  0  0  0  0  2  0  0  0  0  0  0
  182.3980  177.6050  140.5030 S   0  0  0  0  0  1  0  0  0  0  0  0
  182.9460  176.1860  138.1500 C   0  0  0  0  0  2  0  0  0  0  0  0
  186.5530  173.6840  134.8640 C   0  0  0  0  0  3  0  0  0  0  0  0
  186.6410  175.8050  136.0700 C   0  0  0  0  0  0  0  0  0  0  0  0
  182.5860  176.2710  135.2360 C   0  0  0  0  0  2  0  0  0  0  0  0
  185.3220  175.9800  135.9580 C   0  0  0  0  0  3  0  0  0  0  0  0
  186.1250  178.6020  139.9060 C   0  0  0  0  0  2  0  0  0  0  0  0
  184.0520  178.4350  138.4190 C   0  0  0  0  0  2  0  0  0  0  0  0
  183.5420  177.1890  139.1390 C   0  0  1  0  0  3  0  0  0  0  0  0
  185.0570  173.6590  135.0610 C   0  0  0  0  0  2  0  0  0  0  0  0
  187.1580  178.2880  138.8330 C   0  0  2  0  0  3  0  0  0  0  0  0
  184.4740  175.0770  135.0920 C   0  0  1  0  0  3  0  0  0  0  0  0
  181.5540  176.5750  137.6410 C   0  0  1  0  0  3  0  0  0  0  0  0
  181.3590  176.5780  136.0990 C   0  0  1  0  0  3  0  0  0  0  0  0
  186.9070  176.8960  138.2690 C   0  0  0  0  0  2  0  0  0  0  0  0
  187.4520  176.7840  136.8520 C   0  0  0  0  0  2  0  0  0  0  0  0
  187.2910  174.6740  135.3770 C   0  0  0  0  0  3  0  0  0  0  0  0
  180.7130  177.8720  135.5870 C   0  0  1  0  0  0  0  0  0  0  0  0
  179.3610  178.2510  136.0780 C   0  0  2  0  0  3  0  0  0  0  0  0
  181.5510  178.8830  135.0980 O   0  0  0  0  0  1  0  0  0  0  0  0
  179.5670  177.7040  134.7880 O   0  0  0  0  0  0  0  0  0  0  0  0
  179.0770  179.7420  135.9550 C   0  0  0  0  0  2  0  0  0  0  0  0
  179.0400  180.3830  137.3320 C   0  0  0  0  0  2  0  0  0  0  0  0
  180.4460  180.7160  137.8040 C   0  0  0  0  0  2  0  0  0  0  0  0
  180.4840  182.1230  138.3820 C   0  0  1  0  0  3  0  0  0  0  0  0
  179.5030  183.6630  137.4660 C   0  0  0  0  0  2  0  0  0  0  0  0
  180.9050  183.1250  137.3300 C   0  0  0  0  0  2  0  0  0  0  0  0
  179.1350  182.6640  138.4620 N   0  0  0  0  0  2  0  0  0  0  0  0
  188.5680  178.3950  139.4050 C   0  0  0  0  0  2  0  0  0  0  0  0
  188.9560  177.1940  140.0100 O   0  0  0  0  0  0  0  0  0  0  0  0
  190.7390  178.1580  143.6270 C   0  0  1  0  0  3  0  0  0  0  0  0
  188.6750  176.0860  143.7600 C   0  0  0  0  0  2  0  0  0  0  0  0
  190.1490  176.3600  141.9340 C   0  0  1  0  0  3  0  0  0  0  0  0
  186.8690  177.7330  143.2490 C   0  0  0  0  0  1  0  0  0  0  0  0
  188.2390  177.5610  143.9050 C   0  0  2  0  0  0  0  0  0  0  0  0
  189.7440  177.5820  141.0970 C   0  0  2  0  0  3  0  0  0  0  0  0
  191.1730  176.8250  142.9940 C   0  0  0  0  0  2  0  0  0  0  0  0
  191.5940  179.1770  143.2040 O   0  0  0  0  0  1  0  0  0  0  0  0
  189.0840  178.6070  141.8310 O   0  0  0  0  0  0  0  0  0  0  0  0
  188.9810  175.7100  142.4300 O   0  0  0  0  0  0  0  0  0  0  0  0
  189.2800  178.5060  143.2400 C   0  0  2  0  0  3  0  0  0  0  0  0
  189.1440  177.1180  146.2700 C   0  0  0  0  0  1  0  0  0  0  0  0
  188.1460  177.8990  145.4120 C   0  0  2  0  0  3  0  0  0  0  0  0
  186.7130  177.8230  145.9710 C   0  0  1  0  0  3  0  0  0  0  0  0
  186.3980  176.5360  146.4270 O   0  0  0  0  0  1  0  0  0  0  0  0
  186.4640  178.8630  147.0580 C   0  0  0  0  0  2  0  0  0  0  0  0
  185.1800  179.4000  146.9540 O   0  0  0  0  0  1  0  0  0  0  0  0
  180.4930  175.7370  138.3650 C   0  0  1  0  0  3  0  0  0  0  0  0
  179.4090  176.5820  138.9730 C   0  0  0  0  0  3  0  0  0  0  0  0
  179.6130  177.7480  139.2780 O   0  0  0  0  0  0  0  0  0  0  0  0
  179.9330  174.6130  137.4900 C   0  0  0  0  0  2  0  0  0  0  0  0
  179.8700  173.3000  138.2540 C   0  0  0  0  0  2  0  0  0  0  0  0
  179.7420  172.1300  137.2980 C   0  0  0  0  0  1  0  0  0  0  0  0
  2  9  1  0  0  0  0
  4 11  1  0  0  0  0
  5 12  1  0  0  0  0
  5 19  2  0  0  0  0
  6 18  1  0  0  0  0
  7  1  1  0  0  0  0
  8  6  2  0  0  0  0
 10 11  1  0  0  0  0
 10  2  1  0  0  0  0
 11  3  1  1  0  0  0
 13 31  1  1  0  0  0
 13  9  1  0  0  0  0
 14 12  1  1  0  0  0
 14  1  1  0  0  0  0
 14  8  1  0  0  0  0
 15  4  1  0  0  0  0
 15 50  1  1  0  0  0
 16  7  1  6  0  0  0
 16 15  1  0  0  0  0
 17 13  1  0  0  0  0
 18 17  1  0  0  0  0
 19  6  1  0  0  0  0
 20 22  1  6  0  0  0
 20 21  1  0  0  0  0
 20 16  1  0  0  0  0
 21 24  1  6  0  0  0
 23 20  1  0  0  0  0
 23 21  1  0  0  0  0
 24 25  1  0  0  0  0
 25 26  1  0  0  0  0
 27 26  1  6  0  0  0
 27 30  1  0  0  0  0
 28 30  1  0  0  0  0
 29 28  1  0  0  0  0
 29 27  1  0  0  0  0
 31 32  1  0  0  0  0
 33 40  1  6  0  0  0
 34 37  1  0  0  0  0
 35 42  1  0  0  0  0
 35 39  1  1  0  0  0
 37 36  1  6  0  0  0
 37 45  1  0  0  0  0
 38 32  1  6  0  0  0
 38 41  1  0  0  0  0
 38 35  1  0  0  0  0
 39 33  1  0  0  0  0
 42 34  1  0  0  0  0
 43 41  1  6  0  0  0
 43 33  1  0  0  0  0
 43 37  1  0  0  0  0
 45 46  1  0  0  0  0
 45 44  1  1  0  0  0
 46 47  1  1  0  0  0
 46 48  1  0  0  0  0
 49 48  1  0  0  0  0
 50 53  1  6  0  0  0
 50 51  1  0  0  0  0
 51 52  2  0  0  0  0
 53 54  1  0  0  0  0
 55 54  1  0  0  0  0
M  END
>  <MODEL>
3

>  <REMARK>
 VINA RESULT:      -5.2      2.535      5.516
  Name = 
  15 active torsions:
  status: ('A' for Active; 'I' for Inactive)
    1  A    between atoms: C_8  and  O_22
    2  A    between atoms: C_8  and  C_43
    3  A    between atoms: C_9  and  C_15
    4  A    between atoms: C_9  and  C_26
    5  A    between atoms: C_10  and  C_32
    6  A    between atoms: C_11  and  C_29
    7  A    between atoms: C_13  and  C_34
    8  A    between atoms: C_13  and  C_48
    9  A    between atoms: C_14  and  C_38
   10  A    between atoms: C_16  and  C_26
   11  A    between atoms: C_20  and  O_22
   12  A    between atoms: C_26  and  C_45
   13  A    between atoms: C_29  and  C_38
   14  A    between atoms: C_32  and  C_48
   15  A    between atoms: C_33  and  C_49
                            x       y       z     vdW  Elec       q    Type
                         _______ _______ _______ _____ _____    ______ ____

>  <TORSDO>
F 15

$$$$
=
 OpenBabel10262420203D

 55 60  0  0  1  0  0  0  0  0999 V2000
  183.8160  175.9540  135.1910 O   0  0  0  0  0  0  0  0  0  0  0  0
  183.8980  179.1210  140.2520 C   0  0  0  0  0  2  0  0  0  0  0  0
  181.6860  176.7320  140.3330 S   0  0  0  0  0  1  0  0  0  0  0  0
  182.9250  176.2120  137.8750 C   0  0  0  0  0  2  0  0  0  0  0  0
  187.5010  175.4770  134.9440 C   0  0  0  0  0  3  0  0  0  0  0  0
  186.9040  177.1120  136.6560 C   0  0  0  0  0  0  0  0  0  0  0  0
  183.0470  177.1200  135.0840 C   0  0  0  0  0  2  0  0  0  0  0  0
  185.6170  177.0880  136.3000 C   0  0  0  0  0  3  0  0  0  0  0  0
  185.1360  178.4760  140.8780 C   0  0  0  0  0  2  0  0  0  0  0  0
  183.4320  178.4240  138.9720 C   0  0  0  0  0  2  0  0  0  0  0  0
  183.1050  176.9510  139.2020 C   0  0  1  0  0  3  0  0  0  0  0  0
  186.0390  175.1410  134.7850 C   0  0  0  0  0  2  0  0  0  0  0  0
  186.3780  178.6830  140.0210 C   0  0  2  0  0  3  0  0  0  0  0  0
  185.1520  176.3630  135.0580 C   0  0  1  0  0  3  0  0  0  0  0  0
  181.5860  176.4980  137.1870 C   0  0  1  0  0  3  0  0  0  0  0  0
  181.6550  176.9390  135.6980 C   0  0  1  0  0  3  0  0  0  0  0  0
  186.5460  177.5080  139.0670 C   0  0  0  0  0  2  0  0  0  0  0  0
  187.3300  177.9270  137.8320 C   0  0  0  0  0  2  0  0  0  0  0  0
  187.9000  176.3730  135.8540 C   0  0  0  0  0  3  0  0  0  0  0  0
  180.8280  178.2000  135.4150 C   0  0  1  0  0  0  0  0  0  0  0  0
  181.4740  179.5330  135.5370 C   0  0  2  0  0  3  0  0  0  0  0  0
  179.6960  178.0800  134.5990 O   0  0  0  0  0  1  0  0  0  0  0  0
  180.5920  179.0320  136.5250 O   0  0  0  0  0  0  0  0  0  0  0  0
  180.7680  180.6160  134.7310 C   0  0  0  0  0  2  0  0  0  0  0  0
  180.2160  181.6840  135.6590 C   0  0  0  0  0  2  0  0  0  0  0  0
  180.4780  183.0700  135.0940 C   0  0  0  0  0  2  0  0  0  0  0  0
  180.3600  184.1150  136.1950 C   0  0  1  0  0  3  0  0  0  0  0  0
  181.8740  184.4070  137.5340 C   0  0  0  0  0  2  0  0  0  0  0  0
  180.6630  183.5080  137.5460 C   0  0  0  0  0  2  0  0  0  0  0  0
  181.5540  184.9480  136.2190 N   0  0  0  0  0  2  0  0  0  0  0  0
  187.6110  178.8460  140.9030 C   0  0  0  0  0  2  0  0  0  0  0  0
  188.5040  177.7840  140.7180 O   0  0  0  0  0  0  0  0  0  0  0  0
  191.2150  178.2530  143.8180 C   0  0  1  0  0  3  0  0  0  0  0  0
  189.3670  175.9990  144.0990 C   0  0  0  0  0  2  0  0  0  0  0  0
  190.2370  176.7380  142.0310 C   0  0  1  0  0  3  0  0  0  0  0  0
  187.4230  177.5280  144.4460 C   0  0  0  0  0  1  0  0  0  0  0  0
  188.9300  177.3750  144.6500 C   0  0  2  0  0  0  0  0  0  0  0  0
  189.5560  178.0450  141.5990 C   0  0  2  0  0  3  0  0  0  0  0  0
  191.5030  177.1030  142.8380 C   0  0  0  0  0  2  0  0  0  0  0  0
  191.8680  179.4100  143.3890 O   0  0  0  0  0  1  0  0  0  0  0  0
  189.0940  178.8530  142.6760 O   0  0  0  0  0  0  0  0  0  0  0  0
  189.2910  175.9000  142.6890 O   0  0  0  0  0  0  0  0  0  0  0  0
  189.6930  178.5210  143.9260 C   0  0  2  0  0  3  0  0  0  0  0  0
  190.3650  176.4470  146.5710 C   0  0  0  0  0  1  0  0  0  0  0  0
  189.2630  177.4270  146.1610 C   0  0  2  0  0  3  0  0  0  0  0  0
  188.0220  177.3210  147.0660 C   0  0  1  0  0  3  0  0  0  0  0  0
  188.2260  176.4320  148.1300 O   0  0  0  0  0  1  0  0  0  0  0  0
  187.5640  178.6850  147.5750 C   0  0  0  0  0  2  0  0  0  0  0  0
  186.5450  178.5510  148.5190 O   0  0  0  0  0  1  0  0  0  0  0  0
  180.6370  175.3130  137.4050 C   0  0  1  0  0  3  0  0  0  0  0  0
  179.2090  175.7450  137.5800 C   0  0  0  0  0  3  0  0  0  0  0  0
  178.9320  176.8240  138.0830 O   0  0  0  0  0  0  0  0  0  0  0  0
  180.7900  174.2320  136.3330 C   0  0  0  0  0  2  0  0  0  0  0  0
  181.1900  172.9000  136.9480 C   0  0  0  0  0  2  0  0  0  0  0  0
  180.3050  171.7830  136.4290 C   0  0  0  0  0  1  0  0  0  0  0  0
  2  9  1  0  0  0  0
  4 11  1  0  0  0  0
  5 19  2  0  0  0  0
  6 18  1  0  0  0  0
  7  1  1  0  0  0  0
  8  6  2  0  0  0  0
 10 11  1  0  0  0  0
 10  2  1  0  0  0  0
 11  3  1  1  0  0  0
 12  5  1  0  0  0  0
 13  9  1  0  0  0  0
 13 31  1  1  0  0  0
 14 12  1  1  0  0  0
 14  1  1  0  0  0  0
 14  8  1  0  0  0  0
 15 50  1  6  0  0  0
 15  4  1  0  0  0  0
 16  7  1  1  0  0  0
 16 15  1  0  0  0  0
 17 13  1  0  0  0  0
 18 17  1  0  0  0  0
 19  6  1  0  0  0  0
 20 22  1  6  0  0  0
 20 21  1  0  0  0  0
 20 16  1  0  0  0  0
 20 23  1  0  0  0  0
 21 24  1  6  0  0  0
 21 23  1  0  0  0  0
 24 25  1  0  0  0  0
 26 25  1  0  0  0  0
 27 26  1  6  0  0  0
 27 30  1  0  0  0  0
 27 29  1  0  0  0  0
 28 29  1  0  0  0  0
 30 28  1  0  0  0  0
 32 31  1  0  0  0  0
 33 40  1  6  0  0  0
 33 43  1  0  0  0  0
 34 37  1  0  0  0  0
 35 42  1  0  0  0  0
 35 39  1  1  0  0  0
 37 36  1  6  0  0  0
 37 45  1  0  0  0  0
 38 32  1  6  0  0  0
 38 35  1  0  0  0  0
 38 41  1  0  0  0  0
 39 33  1  0  0  0  0
 42 34  1  0  0  0  0
 43 41  1  6  0  0  0
 43 37  1  0  0  0  0
 45 44  1  1  0  0  0
 45 46  1  0  0  0  0
 46 48  1  0  0  0  0
 46 47  1  1  0  0  0
 48 49  1  0  0  0  0
 50 53  1  6  0  0  0
 50 51  1  0  0  0  0
 51 52  2  0  0  0  0
 53 54  1  0  0  0  0
 55 54  1  0  0  0  0
M  END
>  <MODEL>
4

>  <REMARK>
 VINA RESULT:      -4.8      2.583      5.662
  Name = 
  15 active torsions:
  status: ('A' for Active; 'I' for Inactive)
    1  A    between atoms: C_8  and  O_22
    2  A    between atoms: C_8  and  C_43
    3  A    between atoms: C_9  and  C_15
    4  A    between atoms: C_9  and  C_26
    5  A    between atoms: C_10  and  C_32
    6  A    between atoms: C_11  and  C_29
    7  A    between atoms: C_13  and  C_34
    8  A    between atoms: C_13  and  C_48
    9  A    between atoms: C_14  and  C_38
   10  A    between atoms: C_16  and  C_26
   11  A    between atoms: C_20  and  O_22
   12  A    between atoms: C_26  and  C_45
   13  A    between atoms: C_29  and  C_38
   14  A    between atoms: C_32  and  C_48
   15  A    between atoms: C_33  and  C_49
                            x       y       z     vdW  Elec       q    Type
                         _______ _______ _______ _____ _____    ______ ____

>  <TORSDO>
F 15

$$$$
=
 OpenBabel10262420203D

 55 60  0  0  1  0  0  0  0  0999 V2000
  183.8200  176.1640  135.1790 O   0  0  0  0  0  0  0  0  0  0  0  0
  183.3050  178.7460  140.5380 C   0  0  0  0  0  2  0  0  0  0  0  0
  181.5510  176.0110  140.3190 S   0  0  0  0  0  1  0  0  0  0  0  0
  182.8790  175.9780  137.8530 C   0  0  0  0  0  2  0  0  0  0  0  0
  187.5320  176.3710  134.9770 C   0  0  0  0  0  3  0  0  0  0  0  0
  186.6440  177.6860  136.8320 C   0  0  0  0  0  0  0  0  0  0  0  0
  182.8560  177.1810  135.1730 C   0  0  0  0  0  2  0  0  0  0  0  0
  185.3830  177.4730  136.4440 C   0  0  0  0  0  3  0  0  0  0  0  0
  184.6330  178.2670  141.1260 C   0  0  0  0  0  2  0  0  0  0  0  0
  182.9780  178.1170  139.1820 C   0  0  0  0  0  2  0  0  0  0  0  0
  182.9170  176.5930  139.2520 C   0  0  1  0  0  3  0  0  0  0  0  0
  186.1540  175.8020  134.7480 C   0  0  0  0  0  2  0  0  0  0  0  0
  185.8240  178.7770  140.3260 C   0  0  2  0  0  3  0  0  0  0  0  0
  185.0630  176.8130  135.1230 C   0  0  1  0  0  3  0  0  0  0  0  0
  181.5150  176.0940  137.1640 C   0  0  1  0  0  3  0  0  0  0  0  0
  181.5150  176.6940  135.7300 C   0  0  1  0  0  3  0  0  0  0  0  0
  186.2040  177.7570  139.2610 C   0  0  0  0  0  2  0  0  0  0  0  0
  186.9100  178.4350  138.0960 C   0  0  0  0  0  2  0  0  0  0  0  0
  187.7600  177.2220  135.9840 C   0  0  0  0  0  3  0  0  0  0  0  0
  180.4790  177.8120  135.5570 C   0  0  1  0  0  0  0  0  0  0  0  0
  180.8270  179.1950  135.9790 C   0  0  2  0  0  3  0  0  0  0  0  0
  179.4750  177.6430  134.5950 O   0  0  0  0  0  1  0  0  0  0  0  0
  179.9780  178.3650  136.7500 O   0  0  0  0  0  0  0  0  0  0  0  0
  179.9940  180.2610  135.2790 C   0  0  0  0  0  2  0  0  0  0  0  0
  180.3800  181.6420  135.7840 C   0  0  0  0  0  2  0  0  0  0  0  0
  179.2550  182.2400  136.6130 C   0  0  0  0  0  2  0  0  0  0  0  0
  179.7930  182.7200  137.9540 C   0  0  1  0  0  3  0  0  0  0  0  0
  180.5100  181.3960  139.3350 C   0  0  0  0  0  2  0  0  0  0  0  0
  179.1380  181.9750  139.0950 C   0  0  0  0  0  2  0  0  0  0  0  0
  181.0940  182.1190  138.2110 N   0  0  0  0  0  2  0  0  0  0  0  0
  187.0030  179.0610  141.2510 C   0  0  0  0  0  2  0  0  0  0  0  0
  187.6250  177.8730  141.6490 O   0  0  0  0  0  0  0  0  0  0  0  0
  190.7860  178.6060  144.2280 C   0  0  1  0  0  3  0  0  0  0  0  0
  189.6710  175.9010  144.3490 C   0  0  0  0  0  2  0  0  0  0  0  0
  189.8210  177.1760  142.3660 C   0  0  1  0  0  3  0  0  0  0  0  0
  187.5480  176.7320  145.3670 C   0  0  0  0  0  1  0  0  0  0  0  0
  189.0500  176.9880  145.2540 C   0  0  2  0  0  0  0  0  0  0  0  0
  188.7570  178.2830  142.3580 C   0  0  2  0  0  3  0  0  0  0  0  0
  191.1110  177.7570  142.9870 C   0  0  0  0  0  2  0  0  0  0  0  0
  191.0140  179.9540  143.9470 O   0  0  0  0  0  1  0  0  0  0  0  0
  188.3760  178.7430  143.6500 O   0  0  0  0  0  0  0  0  0  0  0  0
  189.2930  176.0080  142.9900 O   0  0  0  0  0  0  0  0  0  0  0  0
  189.3150  178.4040  144.6680 C   0  0  2  0  0  3  0  0  0  0  0  0
  189.1460  177.9120  147.6510 C   0  0  0  0  0  1  0  0  0  0  0  0
  189.7050  176.8940  146.6540 C   0  0  2  0  0  3  0  0  0  0  0  0
  191.2440  176.9020  146.6130 C   0  0  1  0  0  3  0  0  0  0  0  0
  191.7990  177.0960  147.8860 O   0  0  0  0  0  1  0  0  0  0  0  0
  191.8080  175.6450  145.9580 C   0  0  0  0  0  2  0  0  0  0  0  0
  192.7690  175.0440  146.7710 O   0  0  0  0  0  1  0  0  0  0  0  0
  180.7900  174.7450  137.2360 C   0  0  1  0  0  3  0  0  0  0  0  0
  179.3960  174.8110  136.6800 C   0  0  0  0  0  3  0  0  0  0  0  0
  179.0620  174.1210  135.7280 O   0  0  0  0  0  0  0  0  0  0  0  0
  181.6070  173.6050  136.6240 C   0  0  0  0  0  2  0  0  0  0  0  0
  181.2000  172.2610  137.2070 C   0  0  0  0  0  2  0  0  0  0  0  0
  180.8680  171.2770  136.1020 C   0  0  0  0  0  1  0  0  0  0  0  0
  2  9  1  0  0  0  0
  4 11  1  0  0  0  0
  5 19  2  0  0  0  0
  6 18  1  0  0  0  0
  7  1  1  0  0  0  0
  8  6  2  0  0  0  0
 10 11  1  0  0  0  0
 10  2  1  0  0  0  0
 11  3  1  1  0  0  0
 12  5  1  0  0  0  0
 13  9  1  0  0  0  0
 13 31  1  1  0  0  0
 14 12  1  1  0  0  0
 14  1  1  0  0  0  0
 14  8  1  0  0  0  0
 15 50  1  6  0  0  0
 15  4  1  0  0  0  0
 16  7  1  1  0  0  0
 16 15  1  0  0  0  0
 17 13  1  0  0  0  0
 18 17  1  0  0  0  0
 19  6  1  0  0  0  0
 20 22  1  6  0  0  0
 20 16  1  0  0  0  0
 20 21  1  0  0  0  0
 20 23  1  0  0  0  0
 21 24  1  6  0  0  0
 21 23  1  0  0  0  0
 24 25  1  0  0  0  0
 25 26  1  0  0  0  0
 27 26  1  6  0  0  0
 27 30  1  0  0  0  0
 27 29  1  0  0  0  0
 29 28  1  0  0  0  0
 30 28  1  0  0  0  0
 31 32  1  0  0  0  0
 33 40  1  6  0  0  0
 33 43  1  0  0  0  0
 34 37  1  0  0  0  0
 35 39  1  1  0  0  0
 35 42  1  0  0  0  0
 37 36  1  1  0  0  0
 37 45  1  0  0  0  0
 38 32  1  1  0  0  0
 38 35  1  0  0  0  0
 38 41  1  0  0  0  0
 39 33  1  0  0  0  0
 42 34  1  0  0  0  0
 43 41  1  6  0  0  0
 43 37  1  0  0  0  0
 45 44  1  1  0  0  0
 46 45  1  0  0  0  0
 46 47  1  1  0  0  0
 48 46  1  0  0  0  0
 48 49  1  0  0  0  0
 50 53  1  6  0  0  0
 51 50  1  0  0  0  0
 52 51  2  0  0  0  0
 53 54  1  0  0  0  0
 55 54  1  0  0  0  0
M  END
>  <MODEL>
5

>  <REMARK>
 VINA RESULT:      -4.2      2.521      5.668
  Name = 
  15 active torsions:
  status: ('A' for Active; 'I' for Inactive)
    1  A    between atoms: C_8  and  O_22
    2  A    between atoms: C_8  and  C_43
    3  A    between atoms: C_9  and  C_15
    4  A    between atoms: C_9  and  C_26
    5  A    between atoms: C_10  and  C_32
    6  A    between atoms: C_11  and  C_29
    7  A    between atoms: C_13  and  C_34
    8  A    between atoms: C_13  and  C_48
    9  A    between atoms: C_14  and  C_38
   10  A    between atoms: C_16  and  C_26
   11  A    between atoms: C_20  and  O_22
   12  A    between atoms: C_26  and  C_45
   13  A    between atoms: C_29  and  C_38
   14  A    between atoms: C_32  and  C_48
   15  A    between atoms: C_33  and  C_49
                            x       y       z     vdW  Elec       q    Type
                         _______ _______ _______ _____ _____    ______ ____

>  <TORSDO>
F 15

$$$$
=
 OpenBabel10262420203D

 55 60  0  0  1  0  0  0  0  0999 V2000
  181.5310  178.7710  141.9990 O   0  0  0  0  0  0  0  0  0  0  0  0
  185.1510  177.0710  137.5650 C   0  0  0  0  0  2  0  0  0  0  0  0
  182.8210  179.1020  136.5390 S   0  0  0  0  0  1  0  0  0  0  0  0
  182.3440  179.1130  139.2990 C   0  0  0  0  0  2  0  0  0  0  0  0
  184.2250  179.6230  144.4250 C   0  0  0  0  0  3  0  0  0  0  0  0
  185.0920  178.4310  142.4790 C   0  0  0  0  0  0  0  0  0  0  0  0
  181.1530  177.5310  141.4680 C   0  0  0  0  0  2  0  0  0  0  0  0
  183.8630  178.2000  142.0110 C   0  0  0  0  0  3  0  0  0  0  0  0
  186.3190  178.0060  137.8830 C   0  0  0  0  0  2  0  0  0  0  0  0
  183.9060  177.3450  138.4100 C   0  0  0  0  0  2  0  0  0  0  0  0
  183.3970  178.7750  138.2430 C   0  0  1  0  0  3  0  0  0  0  0  0
  182.8840  179.7210  143.7410 C   0  0  0  0  0  2  0  0  0  0  0  0
  186.8980  177.7390  139.2650 C   0  0  2  0  0  3  0  0  0  0  0  0
  182.6320  178.5120  142.8310 C   0  0  1  0  0  3  0  0  0  0  0  0
  180.9710  178.4930  139.0220 C   0  0  1  0  0  3  0  0  0  0  0  0
  180.3270  177.6910  140.1880 C   0  0  1  0  0  3  0  0  0  0  0  0
  186.2170  178.6360  140.2900 C   0  0  0  0  0  2  0  0  0  0  0  0
  186.2780  178.0110  141.6770 C   0  0  0  0  0  2  0  0  0  0  0  0
  185.2660  179.0530  143.8070 C   0  0  0  0  0  3  0  0  0  0  0  0
  179.8300  176.3070  139.7500 C   0  0  1  0  0  0  0  0  0  0  0  0
  180.2380  175.7770  138.4220 C   0  0  2  0  0  3  0  0  0  0  0  0
  179.4500  175.3950  140.7430 O   0  0  0  0  0  1  0  0  0  0  0  0
  178.9420  176.2990  138.6580 O   0  0  0  0  0  0  0  0  0  0  0  0
  180.1640  174.2580  138.3360 C   0  0  0  0  0  2  0  0  0  0  0  0
  181.1300  173.7460  137.2810 C   0  0  0  0  0  2  0  0  0  0  0  0
  182.5360  173.6480  137.8480 C   0  0  0  0  0  2  0  0  0  0  0  0
  183.4920  173.1230  136.7870 C   0  0  1  0  0  3  0  0  0  0  0  0
  185.4790  173.5980  136.8320 C   0  0  0  0  0  2  0  0  0  0  0  0
  184.2890  174.2520  136.1740 C   0  0  0  0  0  2  0  0  0  0  0  0
  184.6670  172.5390  137.4200 N   0  0  0  0  0  2  0  0  0  0  0  0
  188.4060  177.9670  139.2630 C   0  0  0  0  0  2  0  0  0  0  0  0
  189.0970  176.7530  139.1800 O   0  0  0  0  0  0  0  0  0  0  0  0
  189.9150  175.7510  135.2420 C   0  0  1  0  0  3  0  0  0  0  0  0
  191.6570  174.5070  137.2390 C   0  0  0  0  0  2  0  0  0  0  0  0
  189.3650  174.9580  137.5900 C   0  0  1  0  0  3  0  0  0  0  0  0
  192.7290  176.6940  137.7890 C   0  0  0  0  0  1  0  0  0  0  0  0
  192.0620  175.8870  136.6760 C   0  0  2  0  0  0  0  0  0  0  0  0
  189.1420  176.4610  137.8140 C   0  0  2  0  0  3  0  0  0  0  0  0
  189.2070  174.6720  136.0800 C   0  0  0  0  0  2  0  0  0  0  0  0
  188.9630  176.5400  134.5940 O   0  0  0  0  0  1  0  0  0  0  0  0
  190.0960  177.3000  137.1730 O   0  0  0  0  0  0  0  0  0  0  0  0
  190.6010  174.5630  138.1800 O   0  0  0  0  0  0  0  0  0  0  0  0
  190.8150  176.6430  136.1320 C   0  0  2  0  0  3  0  0  0  0  0  0
  193.1000  174.2230  135.0150 C   0  0  0  0  0  1  0  0  0  0  0  0
  193.0610  175.6690  135.5140 C   0  0  2  0  0  3  0  0  0  0  0  0
  194.4680  176.2240  135.8030 C   0  0  1  0  0  3  0  0  0  0  0  0
  195.4490  175.2260  135.7320 O   0  0  0  0  0  1  0  0  0  0  0  0
  194.8190  177.4000  134.8950 C   0  0  0  0  0  2  0  0  0  0  0  0
  195.7540  178.2390  135.5020 O   0  0  0  0  0  1  0  0  0  0  0  0
  180.0300  179.5650  138.4580 C   0  0  1  0  0  3  0  0  0  0  0  0
  179.4810  179.1960  137.1100 C   0  0  0  0  0  3  0  0  0  0  0  0
  179.4410  180.0110  136.1990 O   0  0  0  0  0  0  0  0  0  0  0  0
  178.9310  179.9620  139.4460 C   0  0  0  0  0  2  0  0  0  0  0  0
  179.1380  181.3780  139.9600 C   0  0  0  0  0  2  0  0  0  0  0  0
  179.0720  181.4140  141.4750 C   0  0  0  0  0  1  0  0  0  0  0  0
  1 14  1  0  0  0  0
  2  9  1  0  0  0  0
  2 10  1  0  0  0  0
  6 19  1  0  0  0  0
  7  1  1  0  0  0  0
  8  6  2  0  0  0  0
  9 13  1  0  0  0  0
 11  3  1  6  0  0  0
 11 10  1  0  0  0  0
 11  4  1  0  0  0  0
 12  5  1  0  0  0  0
 13 31  1  6  0  0  0
 13 17  1  0  0  0  0
 14  8  1  6  0  0  0
 14 12  1  0  0  0  0
 15 50  1  1  0  0  0
 15  4  1  0  0  0  0
 15 16  1  0  0  0  0
 16  7  1  1  0  0  0
 17 18  1  0  0  0  0
 18  6  1  0  0  0  0
 19  5  2  0  0  0  0
 20 16  1  0  0  0  0
 20 22  1  1  0  0  0
 21 24  1  1  0  0  0
 21 23  1  0  0  0  0
 21 20  1  0  0  0  0
 23 20  1  0  0  0  0
 25 26  1  0  0  0  0
 25 24  1  0  0  0  0
 27 30  1  0  0  0  0
 27 26  1  1  0  0  0
 28 30  1  0  0  0  0
 29 27  1  0  0  0  0
 29 28  1  0  0  0  0
 32 31  1  0  0  0  0
 33 40  1  1  0  0  0
 33 39  1  0  0  0  0
 33 43  1  0  0  0  0
 34 42  1  0  0  0  0
 35 39  1  6  0  0  0
 35 38  1  0  0  0  0
 35 42  1  0  0  0  0
 37 34  1  0  0  0  0
 37 36  1  1  0  0  0
 38 32  1  1  0  0  0
 41 38  1  0  0  0  0
 43 37  1  0  0  0  0
 43 41  1  1  0  0  0
 45 44  1  1  0  0  0
 45 46  1  0  0  0  0
 45 37  1  0  0  0  0
 46 47  1  6  0  0  0
 48 49  1  0  0  0  0
 48 46  1  0  0  0  0
 50 51  1  6  0  0  0
 50 53  1  0  0  0  0
 52 51  2  0  0  0  0
 53 54  1  0  0  0  0
 54 55  1  0  0  0  0
M  END
>  <MODEL>
6

>  <REMARK>
 VINA RESULT:      -4.1      3.417      5.849
  Name = 
  15 active torsions:
  status: ('A' for Active; 'I' for Inactive)
    1  A    between atoms: C_8  and  O_22
    2  A    between atoms: C_8  and  C_43
    3  A    between atoms: C_9  and  C_15
    4  A    between atoms: C_9  and  C_26
    5  A    between atoms: C_10  and  C_32
    6  A    between atoms: C_11  and  C_29
    7  A    between atoms: C_13  and  C_34
    8  A    between atoms: C_13  and  C_48
    9  A    between atoms: C_14  and  C_38
   10  A    between atoms: C_16  and  C_26
   11  A    between atoms: C_20  and  O_22
   12  A    between atoms: C_26  and  C_45
   13  A    between atoms: C_29  and  C_38
   14  A    between atoms: C_32  and  C_48
   15  A    between atoms: C_33  and  C_49
                            x       y       z     vdW  Elec       q    Type
                         _______ _______ _______ _____ _____    ______ ____

>  <TORSDO>
F 15

$$$$
=
 OpenBabel10262420203D

 55 60  0  0  1  0  0  0  0  0999 V2000
  182.5250  177.9380  139.8400 O   0  0  0  0  0  0  0  0  0  0  0  0
  187.6480  176.1400  137.3550 C   0  0  0  0  0  2  0  0  0  0  0  0
  185.6450  177.5120  135.1850 S   0  0  0  0  0  1  0  0  0  0  0  0
  184.2120  177.9310  137.5550 C   0  0  0  0  0  2  0  0  0  0  0  0
  184.0660  179.6710  142.7530 C   0  0  0  0  0  3  0  0  0  0  0  0
  185.6920  178.3230  141.5280 C   0  0  0  0  0  0  0  0  0  0  0  0
  182.4920  176.5760  139.5130 C   0  0  0  0  0  2  0  0  0  0  0  0
  184.7420  177.7990  140.7480 C   0  0  0  0  0  3  0  0  0  0  0  0
  188.5210  177.3080  137.8170 C   0  0  0  0  0  2  0  0  0  0  0  0
  186.1610  176.3370  137.6580 C   0  0  0  0  0  2  0  0  0  0  0  0
  185.6020  177.6010  137.0100 C   0  0  1  0  0  3  0  0  0  0  0  0
  183.0570  179.4070  141.6640 C   0  0  0  0  0  2  0  0  0  0  0  0
  188.5900  177.4000  139.3350 C   0  0  2  0  0  3  0  0  0  0  0  0
  183.2740  178.0290  141.0230 C   0  0  1  0  0  3  0  0  0  0  0  0
  183.1000  177.0380  136.9920 C   0  0  1  0  0  3  0  0  0  0  0  0
  182.1680  176.3570  138.0330 C   0  0  1  0  0  3  0  0  0  0  0  0
  187.4980  178.3300  139.8450 C   0  0  0  0  0  2  0  0  0  0  0  0
  187.1230  177.9830  141.2790 C   0  0  0  0  0  2  0  0  0  0  0  0
  185.3120  179.1930  142.6600 C   0  0  0  0  0  3  0  0  0  0  0  0
  182.0070  174.8510  137.7840 C   0  0  1  0  0  0  0  0  0  0  0  0
  180.6390  174.2740  137.6960 C   0  0  2  0  0  3  0  0  0  0  0  0
  183.0610  174.1640  137.1690 O   0  0  0  0  0  1  0  0  0  0  0  0
  181.4480  174.1170  138.8480 O   0  0  0  0  0  0  0  0  0  0  0  0
  180.5940  172.9590  136.9270 C   0  0  0  0  0  2  0  0  0  0  0  0
  179.7490  173.1150  135.6740 C   0  0  0  0  0  2  0  0  0  0  0  0
  179.2320  171.7630  135.2080 C   0  0  0  0  0  2  0  0  0  0  0  0
  180.3660  170.9530  134.5950 C   0  0  1  0  0  3  0  0  0  0  0  0
  181.9420  170.3230  135.7310 C   0  0  0  0  0  2  0  0  0  0  0  0
  181.7060  171.5720  134.9200 C   0  0  0  0  0  2  0  0  0  0  0  0
  180.6300  169.7750  135.4090 N   0  0  0  0  0  2  0  0  0  0  0  0
  189.9670  177.8860  139.7760 C   0  0  0  0  0  2  0  0  0  0  0  0
  190.5260  177.0200  140.7220 O   0  0  0  0  0  0  0  0  0  0  0  0
  190.8550  178.8940  144.4060 C   0  0  1  0  0  3  0  0  0  0  0  0
  190.5690  175.9820  144.5020 C   0  0  0  0  0  2  0  0  0  0  0  0
  191.7400  177.1330  142.8040 C   0  0  1  0  0  3  0  0  0  0  0  0
  188.2050  176.1040  143.7070 C   0  0  0  0  0  1  0  0  0  0  0  0
  189.2860  176.8420  144.4960 C   0  0  2  0  0  0  0  0  0  0  0  0
  190.7570  177.8200  141.8450 C   0  0  2  0  0  3  0  0  0  0  0  0
  192.1050  178.1420  143.9160 C   0  0  0  0  0  2  0  0  0  0  0  0
  190.9160  180.2250  143.9890 O   0  0  0  0  0  1  0  0  0  0  0  0
  189.5160  178.1890  142.4380 O   0  0  0  0  0  0  0  0  0  0  0  0
  191.1970  175.8880  143.2370 O   0  0  0  0  0  0  0  0  0  0  0  0
  189.5640  178.2340  143.8620 C   0  0  2  0  0  3  0  0  0  0  0  0
  187.5640  177.9050  146.0820 C   0  0  0  0  0  1  0  0  0  0  0  0
  188.8220  177.0410  145.9600 C   0  0  2  0  0  3  0  0  0  0  0  0
  189.9460  177.5110  146.9010 C   0  0  1  0  0  3  0  0  0  0  0  0
  189.4500  178.2710  147.9690 O   0  0  0  0  0  1  0  0  0  0  0  0
  190.7950  176.3490  147.4070 C   0  0  0  0  0  2  0  0  0  0  0  0
  192.0480  176.3390  146.7930 O   0  0  0  0  0  1  0  0  0  0  0  0
  182.3200  177.8100  135.9210 C   0  0  1  0  0  3  0  0  0  0  0  0
  182.1150  177.0070  134.6680 C   0  0  0  0  0  3  0  0  0  0  0  0
  182.4890  175.8450  134.5940 O   0  0  0  0  0  0  0  0  0  0  0  0
  181.0120  178.3980  136.4550 C   0  0  0  0  0  2  0  0  0  0  0  0
  181.2040  179.8300  136.9270 C   0  0  0  0  0  2  0  0  0  0  0  0
  180.2800  180.1400  138.0890 C   0  0  0  0  0  1  0  0  0  0  0  0
  1 14  1  0  0  0  0
  2 10  1  0  0  0  0
  2  9  1  0  0  0  0
  6 19  1  0  0  0  0
  7  1  1  0  0  0  0
  8  6  2  0  0  0  0
  9 13  1  0  0  0  0
 11  3  1  6  0  0  0
 11  4  1  0  0  0  0
 11 10  1  0  0  0  0
 12  5  1  0  0  0  0
 13 31  1  6  0  0  0
 13 17  1  0  0  0  0
 14  8  1  6  0  0  0
 14 12  1  0  0  0  0
 15 50  1  6  0  0  0
 15  4  1  0  0  0  0
 15 16  1  0  0  0  0
 16  7  1  1  0  0  0
 17 18  1  0  0  0  0
 18  6  1  0  0  0  0
 19  5  2  0  0  0  0
 20 22  1  6  0  0  0
 20 16  1  0  0  0  0
 20 23  1  0  0  0  0
 21 24  1  6  0  0  0
 21 20  1  0  0  0  0
 21 23  1  0  0  0  0
 25 24  1  0  0  0  0
 26 25  1  0  0  0  0
 27 29  1  0  0  0  0
 27 26  1  1  0  0  0
 27 30  1  0  0  0  0
 29 28  1  0  0  0  0
 30 28  1  0  0  0  0
 31 32  1  0  0  0  0
 33 40  1  6  0  0  0
 35 42  1  0  0  0  0
 35 39  1  1  0  0  0
 37 36  1  6  0  0  0
 37 34  1  0  0  0  0
 37 45  1  0  0  0  0
 38 32  1  6  0  0  0
 38 41  1  0  0  0  0
 38 35  1  0  0  0  0
 39 33  1  0  0  0  0
 42 34  1  0  0  0  0
 43 41  1  6  0  0  0
 43 33  1  0  0  0  0
 43 37  1  0  0  0  0
 45 44  1  6  0  0  0
 45 46  1  0  0  0  0
 46 48  1  0  0  0  0
 46 47  1  1  0  0  0
 49 48  1  0  0  0  0
 50 51  1  6  0  0  0
 50 53  1  0  0  0  0
 52 51  2  0  0  0  0
 53 54  1  0  0  0  0
 54 55  1  0  0  0  0
M  END
>  <MODEL>
7

>  <REMARK>
 VINA RESULT:      -3.8      1.727      2.362
  Name = 
  15 active torsions:
  status: ('A' for Active; 'I' for Inactive)
    1  A    between atoms: C_8  and  O_22
    2  A    between atoms: C_8  and  C_43
    3  A    between atoms: C_9  and  C_15
    4  A    between atoms: C_9  and  C_26
    5  A    between atoms: C_10  and  C_32
    6  A    between atoms: C_11  and  C_29
    7  A    between atoms: C_13  and  C_34
    8  A    between atoms: C_13  and  C_48
    9  A    between atoms: C_14  and  C_38
   10  A    between atoms: C_16  and  C_26
   11  A    between atoms: C_20  and  O_22
   12  A    between atoms: C_26  and  C_45
   13  A    between atoms: C_29  and  C_38
   14  A    between atoms: C_32  and  C_48
   15  A    between atoms: C_33  and  C_49
                            x       y       z     vdW  Elec       q    Type
                         _______ _______ _______ _____ _____    ______ ____

>  <TORSDO>
F 15

$$$$
=
 OpenBabel10262420203D

 55 60  0  0  1  0  0  0  0  0999 V2000
  185.3100  178.9400  137.8030 O   0  0  0  0  0  0  0  0  0  0  0  0
  185.2560  172.9690  137.7690 C   0  0  0  0  0  2  0  0  0  0  0  0
  182.5670  174.2300  136.4340 S   0  0  0  0  0  1  0  0  0  0  0  0
  184.0550  176.5560  136.9040 C   0  0  0  0  0  2  0  0  0  0  0  0
  188.7670  179.3280  136.4730 C   0  0  0  0  0  3  0  0  0  0  0  0
  188.2830  177.0180  137.0990 C   0  0  0  0  0  0  0  0  0  0  0  0
  184.8660  178.4190  139.0260 C   0  0  0  0  0  2  0  0  0  0  0  0
  187.1070  177.3580  137.6340 C   0  0  0  0  0  3  0  0  0  0  0  0
  186.1820  172.7620  136.5690 C   0  0  0  0  0  2  0  0  0  0  0  0
  184.8690  174.4320  137.9910 C   0  0  0  0  0  2  0  0  0  0  0  0
  184.1710  175.0370  136.7750 C   0  0  1  0  0  3  0  0  0  0  0  0
  187.3170  179.6720  136.7060 C   0  0  0  0  0  2  0  0  0  0  0  0
  187.5660  173.3480  136.8120 C   0  0  2  0  0  3  0  0  0  0  0  0
  186.7070  178.8040  137.8140 C   0  0  1  0  0  3  0  0  0  0  0  0
  182.9600  177.0110  137.8750 C   0  0  1  0  0  3  0  0  0  0  0  0
  183.3860  178.0280  138.9690 C   0  0  1  0  0  3  0  0  0  0  0  0
  187.6170  174.7800  136.2970 C   0  0  0  0  0  2  0  0  0  0  0  0
  188.6780  175.5800  137.0380 C   0  0  0  0  0  2  0  0  0  0  0  0
  189.2010  178.0710  136.6200 C   0  0  0  0  0  3  0  0  0  0  0  0
  182.9380  177.6060  140.3750 C   0  0  1  0  0  0  0  0  0  0  0  0
  182.9610  178.6080  141.4740 C   0  0  2  0  0  3  0  0  0  0  0  0
  182.0800  176.5060  140.4950 O   0  0  0  0  0  1  0  0  0  0  0  0
  183.9470  177.5980  141.3570 O   0  0  0  0  0  0  0  0  0  0  0  0
  182.0160  178.2620  142.6180 C   0  0  0  0  0  2  0  0  0  0  0  0
  182.0500  179.3530  143.6740 C   0  0  0  0  0  2  0  0  0  0  0  0
  183.4830  179.6520  144.0860 C   0  0  0  0  0  2  0  0  0  0  0  0
  184.0390  178.5020  144.9130 C   0  0  1  0  0  3  0  0  0  0  0  0
  185.8440  178.6620  145.8570 C   0  0  0  0  0  2  0  0  0  0  0  0
  185.4510  178.1670  144.4870 C   0  0  0  0  0  2  0  0  0  0  0  0
  184.4700  178.9890  146.2160 N   0  0  0  0  0  2  0  0  0  0  0  0
  188.6320  172.4910  136.1370 C   0  0  0  0  0  2  0  0  0  0  0  0
  189.7890  172.4200  136.9220 O   0  0  0  0  0  0  0  0  0  0  0  0
  192.5980  175.1870  135.6450 C   0  0  1  0  0  3  0  0  0  0  0  0
  193.0140  172.4490  134.6950 C   0  0  0  0  0  2  0  0  0  0  0  0
  190.8850  173.4200  135.0200 C   0  0  1  0  0  3  0  0  0  0  0  0
  193.6020  171.6540  136.9880 C   0  0  0  0  0  1  0  0  0  0  0  0
  193.6430  172.8570  136.0460 C   0  0  2  0  0  0  0  0  0  0  0  0
  190.5610  173.5120  136.5180 C   0  0  2  0  0  3  0  0  0  0  0  0
  191.5640  174.7420  134.5970 C   0  0  0  0  0  2  0  0  0  0  0  0
  192.1320  176.3220  136.3100 O   0  0  0  0  0  1  0  0  0  0  0  0
  191.7010  173.6350  137.3620 O   0  0  0  0  0  0  0  0  0  0  0  0
  191.6180  172.2250  134.7610 O   0  0  0  0  0  0  0  0  0  0  0  0
  192.8720  174.0560  136.6670 C   0  0  2  0  0  3  0  0  0  0  0  0
  195.9170  172.2320  135.0220 C   0  0  0  0  0  1  0  0  0  0  0  0
  195.1110  173.2780  135.7970 C   0  0  2  0  0  3  0  0  0  0  0  0
  195.8380  173.7500  137.0690 C   0  0  1  0  0  3  0  0  0  0  0  0
  196.6780  172.7550  137.5900 O   0  0  0  0  0  1  0  0  0  0  0  0
  196.6060  175.0490  136.8440 C   0  0  0  0  0  2  0  0  0  0  0  0
  197.6850  175.1520  137.7230 O   0  0  0  0  0  1  0  0  0  0  0  0
  181.7360  177.4830  137.0790 C   0  0  1  0  0  3  0  0  0  0  0  0
  180.4730  176.7870  137.4990 C   0  0  0  0  0  3  0  0  0  0  0  0
  179.7170  177.2890  138.3180 O   0  0  0  0  0  0  0  0  0  0  0  0
  181.5890  179.0060  137.0760 C   0  0  0  0  0  2  0  0  0  0  0  0
  180.9680  179.4970  135.7780 C   0  0  0  0  0  2  0  0  0  0  0  0
  181.5120  178.7190  134.5960 C   0  0  0  0  0  1  0  0  0  0  0  0
  1 14  1  0  0  0  0
  1  7  1  0  0  0  0
  2 10  1  0  0  0  0
  4 15  1  0  0  0  0
  5 19  2  0  0  0  0
  5 12  1  0  0  0  0
  6  8  2  0  0  0  0
  8 14  1  0  0  0  0
  9 13  1  0  0  0  0
  9  2  1  0  0  0  0
 11  3  1  1  0  0  0
 11  4  1  0  0  0  0
 11 10  1  0  0  0  0
 13 31  1  6  0  0  0
 14 12  1  6  0  0  0
 15 50  1  6  0  0  0
 15 16  1  0  0  0  0
 16  7  1  1  0  0  0
 16 20  1  0  0  0  0
 17 13  1  0  0  0  0
 17 18  1  0  0  0  0
 18  6  1  0  0  0  0
 19  6  1  0  0  0  0
 20 22  1  1  0  0  0
 20 23  1  0  0  0  0
 20 21  1  0  0  0  0
 21 24  1  1  0  0  0
 23 21  1  0  0  0  0
 24 25  1  0  0  0  0
 25 26  1  0  0  0  0
 27 26  1  6  0  0  0
 27 30  1  0  0  0  0
 28 30  1  0  0  0  0
 29 27  1  0  0  0  0
 29 28  1  0  0  0  0
 31 32  1  0  0  0  0
 33 40  1  1  0  0  0
 33 43  1  0  0  0  0
 34 42  1  0  0  0  0
 34 37  1  0  0  0  0
 35 39  1  1  0  0  0
 35 38  1  0  0  0  0
 37 43  1  0  0  0  0
 37 36  1  1  0  0  0
 38 32  1  1  0  0  0
 38 41  1  0  0  0  0
 39 33  1  0  0  0  0
 42 35  1  0  0  0  0
 43 41  1  6  0  0  0
 45 44  1  1  0  0  0
 45 37  1  0  0  0  0
 45 46  1  0  0  0  0
 46 47  1  6  0  0  0
 48 46  1  0  0  0  0
 48 49  1  0  0  0  0
 50 53  1  1  0  0  0
 50 51  1  0  0  0  0
 51 52  2  0  0  0  0
 54 53  1  0  0  0  0
 55 54  1  0  0  0  0
M  END
>  <MODEL>
8

>  <REMARK>
 VINA RESULT:      -3.6      4.734      8.168
  Name = 
  15 active torsions:
  status: ('A' for Active; 'I' for Inactive)
    1  A    between atoms: C_8  and  O_22
    2  A    between atoms: C_8  and  C_43
    3  A    between atoms: C_9  and  C_15
    4  A    between atoms: C_9  and  C_26
    5  A    between atoms: C_10  and  C_32
    6  A    between atoms: C_11  and  C_29
    7  A    between atoms: C_13  and  C_34
    8  A    between atoms: C_13  and  C_48
    9  A    between atoms: C_14  and  C_38
   10  A    between atoms: C_16  and  C_26
   11  A    between atoms: C_20  and  O_22
   12  A    between atoms: C_26  and  C_45
   13  A    between atoms: C_29  and  C_38
   14  A    between atoms: C_32  and  C_48
   15  A    between atoms: C_33  and  C_49
                            x       y       z     vdW  Elec       q    Type
                         _______ _______ _______ _____ _____    ______ ____

>  <TORSDO>
F 15

$$$$
=
 OpenBabel10262420203D

 55 60  0  0  1  0  0  0  0  0999 V2000
  183.6370  176.9300  136.3120 O   0  0  0  0  0  0  0  0  0  0  0  0
  181.4880  178.9800  141.4930 C   0  0  0  0  0  2  0  0  0  0  0  0
  179.9810  176.2590  140.5280 S   0  0  0  0  0  1  0  0  0  0  0  0
  181.9680  176.4780  138.5660 C   0  0  0  0  0  2  0  0  0  0  0  0
  187.2370  177.1970  137.2260 C   0  0  0  0  0  3  0  0  0  0  0  0
  185.7980  178.3180  138.8490 C   0  0  0  0  0  0  0  0  0  0  0  0
  182.6780  177.9330  136.1150 C   0  0  0  0  0  2  0  0  0  0  0  0
  184.7140  178.1300  138.0910 C   0  0  0  0  0  3  0  0  0  0  0  0
  182.6060  178.4610  142.3990 C   0  0  0  0  0  2  0  0  0  0  0  0
  181.5940  178.4800  140.0510 C   0  0  0  0  0  2  0  0  0  0  0  0
  181.5740  176.9560  139.9640 C   0  0  1  0  0  3  0  0  0  0  0  0
  186.0080  176.6370  136.5540 C   0  0  0  0  0  2  0  0  0  0  0  0
  183.9570  179.0590  142.0310 C   0  0  2  0  0  3  0  0  0  0  0  0
  184.8160  177.5960  136.6810 C   0  0  1  0  0  3  0  0  0  0  0  0
  180.8600  176.6450  137.5210 C   0  0  1  0  0  3  0  0  0  0  0  0
  181.2530  177.3800  136.2090 C   0  0  1  0  0  3  0  0  0  0  0  0
  184.6690  178.1500  141.0380 C   0  0  0  0  0  2  0  0  0  0  0  0
  185.6570  178.9440  140.1960 C   0  0  0  0  0  2  0  0  0  0  0  0
  187.1290  177.9500  138.3260 C   0  0  0  0  0  3  0  0  0  0  0  0
  180.2690  178.4980  135.8400 C   0  0  1  0  0  0  0  0  0  0  0  0
  180.6920  179.9160  135.9950 C   0  0  2  0  0  3  0  0  0  0  0  0
  179.2410  178.2050  134.9350 O   0  0  0  0  0  1  0  0  0  0  0  0
  179.8170  179.2880  136.9140 O   0  0  0  0  0  0  0  0  0  0  0  0
  179.8990  180.8750  135.1170 C   0  0  0  0  0  2  0  0  0  0  0  0
  179.8500  182.2520  135.7560 C   0  0  0  0  0  2  0  0  0  0  0  0
  180.9520  183.1390  135.1990 C   0  0  0  0  0  2  0  0  0  0  0  0
  180.7330  184.5800  135.6340 C   0  0  1  0  0  3  0  0  0  0  0  0
  180.3160  185.0400  137.5800 C   0  0  0  0  0  2  0  0  0  0  0  0
  179.4350  184.7210  136.3970 C   0  0  0  0  0  2  0  0  0  0  0  0
  181.5420  184.8730  136.8100 N   0  0  0  0  0  2  0  0  0  0  0  0
  184.8050  179.2650  143.2820 C   0  0  0  0  0  2  0  0  0  0  0  0
  185.4350  178.0750  143.6630 O   0  0  0  0  0  0  0  0  0  0  0  0
  189.3800  177.9910  142.3910 C   0  0  1  0  0  3  0  0  0  0  0  0
  188.7590  176.2540  144.6630 C   0  0  0  0  0  2  0  0  0  0  0  0
  187.2570  176.6930  142.8930 C   0  0  1  0  0  3  0  0  0  0  0  0
  188.4050  178.2120  146.1720 C   0  0  0  0  0  1  0  0  0  0  0  0
  189.1790  177.7120  144.9520 C   0  0  2  0  0  0  0  0  0  0  0  0
  186.6770  178.1090  143.0210 C   0  0  2  0  0  3  0  0  0  0  0  0
  188.5210  176.7730  142.0090 C   0  0  0  0  0  2  0  0  0  0  0  0
  189.3210  178.9440  141.3720 O   0  0  0  0  0  1  0  0  0  0  0  0
  187.5320  179.0390  143.6750 O   0  0  0  0  0  0  0  0  0  0  0  0
  187.4310  176.1270  144.1900 O   0  0  0  0  0  0  0  0  0  0  0  0
  188.8930  178.6170  143.7210 C   0  0  2  0  0  3  0  0  0  0  0  0
  191.4950  178.5850  144.2580 C   0  0  0  0  0  1  0  0  0  0  0  0
  190.6980  177.7350  145.2500 C   0  0  2  0  0  3  0  0  0  0  0  0
  191.3080  176.3340  145.4390 C   0  0  1  0  0  3  0  0  0  0  0  0
  192.0760  175.9450  144.3330 O   0  0  0  0  0  1  0  0  0  0  0  0
  192.1160  176.2270  146.7290 C   0  0  0  0  0  2  0  0  0  0  0  0
  191.4530  176.8470  147.7880 O   0  0  0  0  0  1  0  0  0  0  0  0
  180.1970  175.2870  137.2580 C   0  0  1  0  0  3  0  0  0  0  0  0
  179.9530  175.0410  135.7960 C   0  0  0  0  0  3  0  0  0  0  0  0
  178.9310  174.4930  135.4100 O   0  0  0  0  0  0  0  0  0  0  0  0
  180.9430  174.1300  137.9270 C   0  0  0  0  0  2  0  0  0  0  0  0
  181.4440  173.1290  136.8980 C   0  0  0  0  0  2  0  0  0  0  0  0
  182.4400  173.7810  135.9570 C   0  0  0  0  0  1  0  0  0  0  0  0
  1 14  1  0  0  0  0
  2  9  1  0  0  0  0
  4 11  1  0  0  0  0
  5 19  2  0  0  0  0
  6 18  1  0  0  0  0
  7  1  1  0  0  0  0
  8  6  2  0  0  0  0
 10  2  1  0  0  0  0
 11 10  1  0  0  0  0
 11  3  1  6  0  0  0
 12  5  1  0  0  0  0
 13  9  1  0  0  0  0
 13 31  1  1  0  0  0
 14 12  1  1  0  0  0
 14  8  1  0  0  0  0
 15 50  1  6  0  0  0
 15  4  1  0  0  0  0
 16  7  1  1  0  0  0
 16 15  1  0  0  0  0
 17 13  1  0  0  0  0
 18 17  1  0  0  0  0
 19  6  1  0  0  0  0
 20 22  1  6  0  0  0
 20 21  1  0  0  0  0
 20 16  1  0  0  0  0
 20 23  1  0  0  0  0
 21 24  1  6  0  0  0
 21 23  1  0  0  0  0
 24 25  1  0  0  0  0
 26 25  1  0  0  0  0
 27 26  1  1  0  0  0
 27 29  1  0  0  0  0
 27 30  1  0  0  0  0
 29 28  1  0  0  0  0
 30 28  1  0  0  0  0
 31 32  1  0  0  0  0
 33 40  1  6  0  0  0
 33 43  1  0  0  0  0
 34 37  1  0  0  0  0
 35 39  1  1  0  0  0
 35 38  1  0  0  0  0
 35 42  1  0  0  0  0
 37 45  1  0  0  0  0
 37 36  1  1  0  0  0
 38 32  1  1  0  0  0
 38 41  1  0  0  0  0
 39 33  1  0  0  0  0
 42 34  1  0  0  0  0
 43 41  1  6  0  0  0
 43 37  1  0  0  0  0
 45 44  1  6  0  0  0
 45 46  1  0  0  0  0
 46 47  1  6  0  0  0
 46 48  1  0  0  0  0
 48 49  1  0  0  0  0
 50 51  1  6  0  0  0
 50 53  1  0  0  0  0
 52 51  2  0  0  0  0
 54 53  1  0  0  0  0
 55 54  1  0  0  0  0
M  END
>  <MODEL>
9

>  <REMARK>
 VINA RESULT:      -3.4      2.732      5.960
  Name = 
  15 active torsions:
  status: ('A' for Active; 'I' for Inactive)
    1  A    between atoms: C_8  and  O_22
    2  A    between atoms: C_8  and  C_43
    3  A    between atoms: C_9  and  C_15
    4  A    between atoms: C_9  and  C_26
    5  A    between atoms: C_10  and  C_32
    6  A    between atoms: C_11  and  C_29
    7  A    between atoms: C_13  and  C_34
    8  A    between atoms: C_13  and  C_48
    9  A    between atoms: C_14  and  C_38
   10  A    between atoms: C_16  and  C_26
   11  A    between atoms: C_20  and  O_22
   12  A    between atoms: C_26  and  C_45
   13  A    between atoms: C_29  and  C_38
   14  A    between atoms: C_32  and  C_48
   15  A    between atoms: C_33  and  C_49
                            x       y       z     vdW  Elec       q    Type
                         _______ _______ _______ _____ _____    ______ ____

>  <TORSDO>
F 15

$$$$
