=
 OpenBabel10262421003D

 32 39  0  0  1  0  0  0  0  0999 V2000
  186.7600  178.3000  139.9840 C   0  0  0  0  0  0  0  0  0  0  0  0
  187.4000  178.3890  142.3890 C   0  0  1  0  0  3  0  0  0  0  0  0
  185.8280  178.4980  138.9560 C   0  0  0  0  0  3  0  0  0  0  0  0
  186.3710  178.5230  141.3120 C   0  0  0  0  0  0  0  0  0  0  0  0
  186.7930  177.8310  143.6620 C   0  0  1  0  0  3  0  0  0  0  0  0
  191.5130  176.0090  143.9660 C   0  0  0  0  0  2  0  0  0  0  0  0
  188.5430  177.4940  141.9260 C   0  0  1  0  0  3  0  0  0  0  0  0
  190.0160  177.2330  145.5670 C   0  0  0  0  0  2  0  0  0  0  0  0
  189.0630  177.4360  144.4220 C   0  0  0  0  0  0  0  0  0  0  0  0
  185.0540  178.8920  141.6280 C   0  0  0  0  0  0  0  0  0  0  0  0
  187.8160  177.6690  144.6820 N   0  0  0  0  0  0  0  0  0  0  0  0
  184.5740  178.9250  143.0590 C   0  0  0  0  0  2  0  0  0  0  0  0
  184.1340  179.0830  140.5910 C   0  0  0  0  0  3  0  0  0  0  0  0
  189.0420  178.0200  140.7170 O   0  0  0  0  0  0  0  0  0  0  0  0
  188.0930  177.7650  139.7680 N   0  0  0  0  0  0  0  0  0  0  0  0
  189.6240  177.4830  143.0040 C   0  0  1  0  0  3  0  0  0  0  0  0
  185.6860  178.7910  144.1210 C   0  0  1  0  0  3  0  0  0  0  0  0
  184.5240  178.9030  139.2600 C   0  0  0  0  0  3  0  0  0  0  0  0
  191.4510  177.0680  145.0680 C   0  0  0  0  0  2  0  0  0  0  0  0
  190.6220  176.3440  142.7570 C   0  0  0  0  0  2  0  0  0  0  0  0
  188.5660  178.2320  136.3010 C   0  0  2  0  0  0  0  0  0  0  0  0
  190.5950  175.7080  136.6790 C   0  0  0  0  0  2  0  0  0  0  0  0
  187.0610  178.3690  136.1980 C   0  0  0  0  0  1  0  0  0  0  0  0
  190.4130  176.7840  137.7440 C   0  0  0  0  0  0  0  0  0  0  0  0
  188.4750  176.8280  138.6950 C   0  0  2  0  0  3  0  0  0  0  0  0
  189.3170  178.1730  135.1260 O   0  0  0  0  0  1  0  0  0  0  0  0
  189.8240  176.0900  138.9670 C   0  0  0  0  0  2  0  0  0  0  0  0
  189.1310  177.4750  137.4760 C   0  0  2  0  0  0  0  0  0  0  0  0
  189.2340  178.9990  137.4300 C   0  0  0  0  0  2  0  0  0  0  0  0
  191.7270  176.6410  136.9900 C   0  0  0  0  0  2  0  0  0  0  0  0
  185.0740  178.3240  145.4330 C   0  0  0  0  0  2  0  0  0  0  0  0
  183.9210  179.0580  145.7100 O   0  0  0  0  0  1  0  0  0  0  0  0
  1  4  1  0  0  0  0
  2  4  1  6  0  0  0
  2  5  1  0  0  0  0
  3 18  1  0  0  0  0
  3  1  2  0  0  0  0
  4 10  2  0  0  0  0
  5 17  1  0  0  0  0
  5 11  1  1  0  0  0
  6 19  1  0  0  0  0
  7 14  1  6  0  0  0
  7  2  1  0  0  0  0
  7 16  1  0  0  0  0
  9 11  2  0  0  0  0
  9  8  1  0  0  0  0
 10 12  1  0  0  0  0
 12 17  1  0  0  0  0
 13 10  1  0  0  0  0
 15  1  1  0  0  0  0
 15 14  1  0  0  0  0
 16 20  1  6  0  0  0
 16  9  1  0  0  0  0
 17 31  1  1  0  0  0
 18 13  2  0  0  0  0
 19  8  1  0  0  0  0
 20  6  1  0  0  0  0
 21 23  1  6  0  0  0
 21 29  1  0  0  0  0
 21 28  1  0  0  0  0
 22 30  1  0  0  0  0
 22 24  1  0  0  0  0
 24 27  1  0  0  0  0
 25 27  1  1  0  0  0
 25 15  1  0  0  0  0
 26 21  1  0  0  0  0
 28 29  1  1  0  0  0
 28 24  1  0  0  0  0
 28 25  1  0  0  0  0
 30 24  1  0  0  0  0
 31 32  1  0  0  0  0
M  END
>  <MODEL>
1

>  <REMARK>
 VINA RESULT:      -9.6      0.000      0.000
  Name = 
  2 active torsions:
  status: ('A' for Active; 'I' for Inactive)
    1  A    between atoms: C_13  and  C_29
    2  A    between atoms: C_16  and  N_27
                            x       y       z     vdW  Elec       q    Type
                         _______ _______ _______ _____ _____    ______ ____

>  <TORSDO>
F 2

$$$$
=
 OpenBabel10262421003D

 32 39  0  0  1  0  0  0  0  0999 V2000
  189.7220  177.2090  143.0760 C   0  0  0  0  0  0  0  0  0  0  0  0
  187.7970  177.3220  144.6520 C   0  0  1  0  0  3  0  0  0  0  0  0
  191.0770  176.9680  142.8120 C   0  0  0  0  0  3  0  0  0  0  0  0
  189.2610  177.1470  144.3980 C   0  0  0  0  0  0  0  0  0  0  0  0
  187.5500  178.0440  145.9630 C   0  0  1  0  0  3  0  0  0  0  0  0
  183.5530  179.5790  143.2500 C   0  0  0  0  0  2  0  0  0  0  0  0
  187.1460  178.0910  143.5080 C   0  0  1  0  0  3  0  0  0  0  0  0
  183.8260  178.6220  145.5540 C   0  0  0  0  0  2  0  0  0  0  0  0
  185.2660  178.3670  145.2100 C   0  0  0  0  0  0  0  0  0  0  0  0
  190.1430  176.8970  145.4610 C   0  0  0  0  0  0  0  0  0  0  0  0
  186.1250  178.2420  146.1710 N   0  0  0  0  0  0  0  0  0  0  0  0
  189.6960  177.0400  146.8960 C   0  0  0  0  0  2  0  0  0  0  0  0
  191.4930  176.6630  145.1820 C   0  0  0  0  0  3  0  0  0  0  0  0
  187.4430  177.4140  142.3070 O   0  0  0  0  0  0  0  0  0  0  0  0
  188.7690  177.6320  142.0640 N   0  0  0  0  0  0  0  0  0  0  0  0
  185.6390  178.1410  143.7470 C   0  0  1  0  0  3  0  0  0  0  0  0
  188.1740  177.2080  147.0900 C   0  0  1  0  0  3  0  0  0  0  0  0
  191.9550  176.6810  143.8620 C   0  0  0  0  0  3  0  0  0  0  0  0
  182.9530  178.6430  144.3000 C   0  0  0  0  0  2  0  0  0  0  0  0
  184.9810  179.1820  142.8330 C   0  0  0  0  0  2  0  0  0  0  0  0
  190.9370  177.0150  139.3460 C   0  0  2  0  0  0  0  0  0  0  0  0
  188.8310  178.9570  137.7890 C   0  0  0  0  0  2  0  0  0  0  0  0
  192.0800  177.2570  140.3100 C   0  0  0  0  0  1  0  0  0  0  0  0
  188.3980  177.9750  138.8720 C   0  0  0  0  0  0  0  0  0  0  0  0
  189.0920  178.4290  140.8660 C   0  0  2  0  0  3  0  0  0  0  0  0
  191.2230  176.8690  137.9890 O   0  0  0  0  0  1  0  0  0  0  0  0
  187.8370  178.8110  140.0170 C   0  0  0  0  0  2  0  0  0  0  0  0
  189.5960  177.6230  139.6690 C   0  0  2  0  0  0  0  0  0  0  0  0
  189.8140  176.1210  139.8470 C   0  0  0  0  0  2  0  0  0  0  0  0
  187.9840  177.7750  137.4210 C   0  0  0  0  0  2  0  0  0  0  0  0
  187.9080  177.8450  148.4450 C   0  0  0  0  0  2  0  0  0  0  0  0
  189.0570  178.4890  148.9040 O   0  0  0  0  0  1  0  0  0  0  0  0
  1  4  1  0  0  0  0
  2  4  1  6  0  0  0
  2  5  1  0  0  0  0
  3  1  2  0  0  0  0
  3 18  1  0  0  0  0
  4 10  2  0  0  0  0
  5 11  1  1  0  0  0
  5 17  1  0  0  0  0
  6 19  1  0  0  0  0
  7 14  1  6  0  0  0
  7 16  1  0  0  0  0
  7  2  1  0  0  0  0
  9  8  1  0  0  0  0
  9 11  2  0  0  0  0
 10 12  1  0  0  0  0
 12 17  1  0  0  0  0
 13 10  1  0  0  0  0
 15 14  1  0  0  0  0
 15  1  1  0  0  0  0
 16 20  1  6  0  0  0
 16  9  1  0  0  0  0
 17 31  1  1  0  0  0
 18 13  2  0  0  0  0
 19  8  1  0  0  0  0
 20  6  1  0  0  0  0
 21 28  1  0  0  0  0
 21 29  1  0  0  0  0
 21 23  1  1  0  0  0
 22 24  1  0  0  0  0
 24 28  1  0  0  0  0
 24 27  1  0  0  0  0
 25 27  1  6  0  0  0
 25 15  1  0  0  0  0
 26 21  1  0  0  0  0
 28 29  1  1  0  0  0
 28 25  1  0  0  0  0
 30 22  1  0  0  0  0
 30 24  1  0  0  0  0
 31 32  1  0  0  0  0
M  END
>  <MODEL>
2

>  <REMARK>
 VINA RESULT:      -9.6      1.982      5.172
  Name = 
  2 active torsions:
  status: ('A' for Active; 'I' for Inactive)
    1  A    between atoms: C_13  and  C_29
    2  A    between atoms: C_16  and  N_27
                            x       y       z     vdW  Elec       q    Type
                         _______ _______ _______ _____ _____    ______ ____

>  <TORSDO>
F 2

$$$$
=
 OpenBabel10262421003D

 32 39  0  0  1  0  0  0  0  0999 V2000
  186.9010  178.0510  145.1420 C   0  0  0  0  0  0  0  0  0  0  0  0
  189.2900  177.7970  144.4880 C   0  0  1  0  0  3  0  0  0  0  0  0
  185.8990  178.1220  146.1190 C   0  0  0  0  0  3  0  0  0  0  0  0
  188.2200  177.7840  145.5320 C   0  0  0  0  0  0  0  0  0  0  0  0
  190.3590  176.7610  144.7850 C   0  0  1  0  0  3  0  0  0  0  0  0
  190.4850  176.8510  139.7180 C   0  0  0  0  0  2  0  0  0  0  0  0
  188.6920  177.5410  143.1100 C   0  0  1  0  0  3  0  0  0  0  0  0
  192.2440  176.9930  141.5030 C   0  0  0  0  0  2  0  0  0  0  0  0
  191.1290  177.0870  142.5070 C   0  0  0  0  0  0  0  0  0  0  0  0
  188.5410  177.5380  146.8770 C   0  0  0  0  0  0  0  0  0  0  0  0
  191.3670  176.7600  143.7370 N   0  0  0  0  0  0  0  0  0  0  0  0
  189.9100  177.0420  147.2760 C   0  0  0  0  0  2  0  0  0  0  0  0
  187.5290  177.6080  147.8410 C   0  0  0  0  0  3  0  0  0  0  0  0
  187.6720  178.4910  142.8970 O   0  0  0  0  0  0  0  0  0  0  0  0
  186.6390  178.1310  143.7150 N   0  0  0  0  0  0  0  0  0  0  0  0
  189.7950  177.6830  142.0630 C   0  0  1  0  0  3  0  0  0  0  0  0
  190.9700  177.0900  146.1550 C   0  0  1  0  0  3  0  0  0  0  0  0
  186.2170  177.9160  147.4650 C   0  0  0  0  0  3  0  0  0  0  0  0
  191.8010  177.5090  140.1350 C   0  0  0  0  0  2  0  0  0  0  0  0
  189.3410  177.1030  140.7170 C   0  0  0  0  0  2  0  0  0  0  0  0
  183.3300  179.3500  143.8860 C   0  0  2  0  0  0  0  0  0  0  0  0
  183.1800  178.1100  140.8750 C   0  0  0  0  0  2  0  0  0  0  0  0
  183.2700  178.7520  145.2770 C   0  0  0  0  0  1  0  0  0  0  0  0
  184.4400  178.7630  141.4330 C   0  0  0  0  0  0  0  0  0  0  0  0
  185.3970  177.6960  143.0480 C   0  0  2  0  0  3  0  0  0  0  0  0
  182.1610  179.8640  143.3250 O   0  0  0  0  0  1  0  0  0  0  0  0
  185.5050  177.6730  141.4900 C   0  0  0  0  0  2  0  0  0  0  0  0
  184.3250  178.7770  142.9100 C   0  0  2  0  0  0  0  0  0  0  0  0
  184.5830  180.1400  143.5490 C   0  0  0  0  0  2  0  0  0  0  0  0
  183.6600  179.4080  140.2960 C   0  0  0  0  0  2  0  0  0  0  0  0
  192.0970  176.1250  146.4890 C   0  0  0  0  0  2  0  0  0  0  0  0
  192.4630  176.2630  147.8270 O   0  0  0  0  0  1  0  0  0  0  0  0
  1  4  2  0  0  0  0
  1  3  1  0  0  0  0
  2  5  1  0  0  0  0
  2  4  1  1  0  0  0
  3 18  2  0  0  0  0
  4 10  1  0  0  0  0
  5 11  1  6  0  0  0
  5 17  1  0  0  0  0
  6 19  1  0  0  0  0
  6 20  1  0  0  0  0
  7 14  1  6  0  0  0
  7  2  1  0  0  0  0
  8  9  1  0  0  0  0
  9 11  2  0  0  0  0
 10 12  1  0  0  0  0
 10 13  2  0  0  0  0
 14 15  1  0  0  0  0
 15  1  1  0  0  0  0
 16 20  1  6  0  0  0
 16  9  1  0  0  0  0
 16  7  1  0  0  0  0
 17 31  1  1  0  0  0
 17 12  1  0  0  0  0
 18 13  1  0  0  0  0
 19  8  1  0  0  0  0
 21 23  1  1  0  0  0
 22 24  1  0  0  0  0
 24 27  1  0  0  0  0
 24 28  1  0  0  0  0
 25 27  1  6  0  0  0
 25 15  1  0  0  0  0
 26 21  1  0  0  0  0
 28 25  1  0  0  0  0
 28 29  1  1  0  0  0
 28 21  1  0  0  0  0
 29 21  1  0  0  0  0
 30 22  1  0  0  0  0
 30 24  1  0  0  0  0
 31 32  1  0  0  0  0
M  END
>  <MODEL>
3

>  <REMARK>
 VINA RESULT:      -9.5      2.653      6.472
  Name = 
  2 active torsions:
  status: ('A' for Active; 'I' for Inactive)
    1  A    between atoms: C_13  and  C_29
    2  A    between atoms: C_16  and  N_27
                            x       y       z     vdW  Elec       q    Type
                         _______ _______ _______ _____ _____    ______ ____

>  <TORSDO>
F 2

$$$$
=
 OpenBabel10262421003D

 32 39  0  0  1  0  0  0  0  0999 V2000
  188.4570  177.8190  141.5120 C   0  0  0  0  0  0  0  0  0  0  0  0
  186.1670  178.6290  140.9570 C   0  0  1  0  0  3  0  0  0  0  0  0
  189.7340  177.3940  141.1210 C   0  0  0  0  0  3  0  0  0  0  0  0
  187.4970  178.0940  140.5280 C   0  0  0  0  0  0  0  0  0  0  0  0
  185.0540  178.1100  140.0660 C   0  0  1  0  0  3  0  0  0  0  0  0
  182.6020  178.6270  144.4720 C   0  0  0  0  0  2  0  0  0  0  0  0
  185.8860  178.2530  142.4070 C   0  0  1  0  0  3  0  0  0  0  0  0
  182.1170  179.3500  142.1180 C   0  0  0  0  0  2  0  0  0  0  0  0
  183.5040  178.8970  141.7600 C   0  0  0  0  0  0  0  0  0  0  0  0
  187.7810  177.9030  139.1660 C   0  0  0  0  0  0  0  0  0  0  0  0
  183.7670  178.6060  140.5260 N   0  0  0  0  0  0  0  0  0  0  0  0
  186.6940  177.9900  138.1220 C   0  0  0  0  0  2  0  0  0  0  0  0
  189.0590  177.4740  138.7930 C   0  0  0  0  0  3  0  0  0  0  0  0
  186.9670  178.7080  143.1900 O   0  0  0  0  0  0  0  0  0  0  0  0
  188.0220  177.8920  142.8960 N   0  0  0  0  0  0  0  0  0  0  0  0
  184.5820  178.9180  142.8410 C   0  0  1  0  0  3  0  0  0  0  0  0
  185.3510  178.5580  138.6280 C   0  0  1  0  0  3  0  0  0  0  0  0
  190.0360  177.2370  139.7650 C   0  0  0  0  0  3  0  0  0  0  0  0
  182.0250  179.7380  143.5930 C   0  0  0  0  0  2  0  0  0  0  0  0
  184.0730  178.3060  144.1520 C   0  0  0  0  0  2  0  0  0  0  0  0
  191.1560  177.6980  144.5090 C   0  0  2  0  0  0  0  0  0  0  0  0
  189.3260  176.6370  146.9890 C   0  0  0  0  0  2  0  0  0  0  0  0
  191.6790  177.0640  143.2370 C   0  0  0  0  0  1  0  0  0  0  0  0
  188.8480  177.7080  146.0140 C   0  0  0  0  0  0  0  0  0  0  0  0
  188.5100  177.0330  143.9910 C   0  0  2  0  0  3  0  0  0  0  0  0
  191.9850  177.7350  145.6310 O   0  0  0  0  0  1  0  0  0  0  0  0
  187.6420  177.1250  145.2860 C   0  0  0  0  0  2  0  0  0  0  0  0
  189.6780  177.6090  144.7920 C   0  0  2  0  0  0  0  0  0  0  0  0
  190.2880  178.9330  144.3350 C   0  0  0  0  0  2  0  0  0  0  0  0
  189.1310  178.0450  147.4720 C   0  0  0  0  0  2  0  0  0  0  0  0
  184.2370  178.1240  137.6870 C   0  0  0  0  0  2  0  0  0  0  0  0
  184.2130  176.7340  137.5840 O   0  0  0  0  0  1  0  0  0  0  0  0
  1 15  1  0  0  0  0
  2  4  1  6  0  0  0
  2  7  1  0  0  0  0
  3  1  1  0  0  0  0
  4  1  2  0  0  0  0
  5 11  1  1  0  0  0
  5  2  1  0  0  0  0
  7 16  1  0  0  0  0
  7 14  1  1  0  0  0
  8 19  1  0  0  0  0
  9  8  1  0  0  0  0
  9 16  1  0  0  0  0
 10  4  1  0  0  0  0
 11  9  2  0  0  0  0
 12 17  1  0  0  0  0
 12 10  1  0  0  0  0
 13 10  2  0  0  0  0
 13 18  1  0  0  0  0
 15 14  1  0  0  0  0
 16 20  1  1  0  0  0
 17 31  1  6  0  0  0
 17  5  1  0  0  0  0
 18  3  2  0  0  0  0
 19  6  1  0  0  0  0
 20  6  1  0  0  0  0
 21 23  1  6  0  0  0
 21 28  1  0  0  0  0
 21 26  1  0  0  0  0
 22 30  1  0  0  0  0
 24 22  1  0  0  0  0
 24 30  1  0  0  0  0
 25 15  1  6  0  0  0
 25 28  1  0  0  0  0
 25 27  1  0  0  0  0
 27 24  1  0  0  0  0
 28 29  1  6  0  0  0
 28 24  1  0  0  0  0
 29 21  1  0  0  0  0
 32 31  1  0  0  0  0
M  END
>  <MODEL>
4

>  <REMARK>
 VINA RESULT:      -9.0      2.244      6.850
  Name = 
  2 active torsions:
  status: ('A' for Active; 'I' for Inactive)
    1  A    between atoms: C_13  and  C_29
    2  A    between atoms: C_16  and  N_27
                            x       y       z     vdW  Elec       q    Type
                         _______ _______ _______ _____ _____    ______ ____

>  <TORSDO>
F 2

$$$$
=
 OpenBabel10262421003D

 32 39  0  0  1  0  0  0  0  0999 V2000
  189.4850  177.5960  141.2380 C   0  0  0  0  0  0  0  0  0  0  0  0
  187.7230  178.4250  139.6860 C   0  0  1  0  0  3  0  0  0  0  0  0
  190.7850  177.1320  141.4790 C   0  0  0  0  0  3  0  0  0  0  0  0
  189.0830  177.8490  139.9190 C   0  0  0  0  0  0  0  0  0  0  0  0
  187.1140  177.8920  138.4030 C   0  0  1  0  0  3  0  0  0  0  0  0
  182.9570  178.6350  141.2070 C   0  0  0  0  0  2  0  0  0  0  0  0
  186.8040  178.1150  140.8620 C   0  0  1  0  0  3  0  0  0  0  0  0
  183.6120  179.2690  138.8690 C   0  0  0  0  0  2  0  0  0  0  0  0
  184.9950  178.7770  139.1890 C   0  0  0  0  0  0  0  0  0  0  0  0
  189.9440  177.5970  138.8390 C   0  0  0  0  0  0  0  0  0  0  0  0
  185.7760  178.4300  138.2160 N   0  0  0  0  0  0  0  0  0  0  0  0
  189.4490  177.6610  137.4140 C   0  0  0  0  0  2  0  0  0  0  0  0
  191.2370  177.1290  139.0960 C   0  0  0  0  0  3  0  0  0  0  0  0
  187.4310  178.5810  142.0360 O   0  0  0  0  0  0  0  0  0  0  0  0
  188.4760  177.7330  142.2730 N   0  0  0  0  0  0  0  0  0  0  0  0
  185.4690  178.8210  140.6400 C   0  0  1  0  0  3  0  0  0  0  0  0
  188.0430  178.2740  137.2420 C   0  0  1  0  0  3  0  0  0  0  0  0
  191.6620  176.9140  140.4120 C   0  0  0  0  0  3  0  0  0  0  0  0
  182.8790  179.7200  140.1320 C   0  0  0  0  0  2  0  0  0  0  0  0
  184.4020  178.2730  141.5960 C   0  0  0  0  0  2  0  0  0  0  0  0
  190.6270  177.4210  145.0560 C   0  0  2  0  0  0  0  0  0  0  0  0
  187.8450  176.6440  146.5680 C   0  0  0  0  0  2  0  0  0  0  0  0
  191.5710  176.6750  144.1360 C   0  0  0  0  0  1  0  0  0  0  0  0
  187.9130  177.6840  145.4550 C   0  0  0  0  0  0  0  0  0  0  0  0
  188.3870  176.9120  143.4950 C   0  0  2  0  0  3  0  0  0  0  0  0
  190.9150  177.4680  146.4200 O   0  0  0  0  0  1  0  0  0  0  0  0
  187.0710  177.1430  144.3040 C   0  0  0  0  0  2  0  0  0  0  0  0
  189.1630  177.4520  144.6950 C   0  0  2  0  0  0  0  0  0  0  0  0
  190.0220  178.7010  144.5010 C   0  0  0  0  0  2  0  0  0  0  0  0
  187.5940  178.0880  146.8870 C   0  0  0  0  0  2  0  0  0  0  0  0
  187.4590  177.8240  135.9120 C   0  0  0  0  0  2  0  0  0  0  0  0
  187.4490  176.4310  135.8410 O   0  0  0  0  0  1  0  0  0  0  0  0
  1  3  1  0  0  0  0
  1 15  1  0  0  0  0
  2  4  1  1  0  0  0
  2  7  1  0  0  0  0
  4  1  2  0  0  0  0
  5 11  1  6  0  0  0
  5  2  1  0  0  0  0
  6 20  1  0  0  0  0
  7 14  1  1  0  0  0
  8  9  1  0  0  0  0
  8 19  1  0  0  0  0
  9 16  1  0  0  0  0
 10 13  2  0  0  0  0
 10  4  1  0  0  0  0
 11  9  2  0  0  0  0
 12 10  1  0  0  0  0
 13 18  1  0  0  0  0
 14 15  1  0  0  0  0
 16  7  1  0  0  0  0
 16 20  1  1  0  0  0
 17 31  1  6  0  0  0
 17 12  1  0  0  0  0
 17  5  1  0  0  0  0
 18  3  2  0  0  0  0
 19  6  1  0  0  0  0
 21 23  1  6  0  0  0
 21 26  1  0  0  0  0
 22 30  1  0  0  0  0
 24 22  1  0  0  0  0
 24 30  1  0  0  0  0
 25 15  1  6  0  0  0
 25 27  1  0  0  0  0
 25 28  1  0  0  0  0
 27 24  1  0  0  0  0
 28 29  1  6  0  0  0
 28 21  1  0  0  0  0
 28 24  1  0  0  0  0
 29 21  1  0  0  0  0
 32 31  1  0  0  0  0
M  END
>  <MODEL>
5

>  <REMARK>
 VINA RESULT:      -8.9      1.906      7.431
  Name = 
  2 active torsions:
  status: ('A' for Active; 'I' for Inactive)
    1  A    between atoms: C_13  and  C_29
    2  A    between atoms: C_16  and  N_27
                            x       y       z     vdW  Elec       q    Type
                         _______ _______ _______ _____ _____    ______ ____

>  <TORSDO>
F 2

$$$$
=
 OpenBabel10262421003D

 32 39  0  0  1  0  0  0  0  0999 V2000
  187.1860  178.1480  140.4170 C   0  0  0  0  0  0  0  0  0  0  0  0
  189.2120  177.2560  141.5580 C   0  0  1  0  0  3  0  0  0  0  0  0
  186.5050  178.5340  139.2550 C   0  0  0  0  0  3  0  0  0  0  0  0
  188.5260  177.7460  140.3230 C   0  0  0  0  0  0  0  0  0  0  0  0
  190.6770  177.6510  141.5640 C   0  0  1  0  0  3  0  0  0  0  0  0
  189.6560  177.6570  146.5290 C   0  0  0  0  0  2  0  0  0  0  0  0
  188.5250  177.8040  142.8020 C   0  0  1  0  0  3  0  0  0  0  0  0
  191.4790  176.6460  145.1310 C   0  0  0  0  0  2  0  0  0  0  0  0
  190.6950  177.0640  143.9190 C   0  0  0  0  0  0  0  0  0  0  0  0
  189.2040  177.7710  139.0940 C   0  0  0  0  0  0  0  0  0  0  0  0
  191.3160  177.2040  142.7910 N   0  0  0  0  0  0  0  0  0  0  0  0
  190.6950  177.5460  139.0200 C   0  0  0  0  0  2  0  0  0  0  0  0
  188.5110  178.1620  137.9430 C   0  0  0  0  0  3  0  0  0  0  0  0
  187.1590  177.4590  142.7300 O   0  0  0  0  0  0  0  0  0  0  0  0
  186.6180  178.2430  141.7500 N   0  0  0  0  0  0  0  0  0  0  0  0
  189.1780  177.1860  144.0360 C   0  0  1  0  0  3  0  0  0  0  0  0
  191.3400  177.0330  140.3250 C   0  0  1  0  0  3  0  0  0  0  0  0
  187.1630  178.5250  138.0210 C   0  0  0  0  0  3  0  0  0  0  0  0
  190.5640  176.4410  146.3380 C   0  0  0  0  0  2  0  0  0  0  0  0
  188.7730  177.9500  145.3030 C   0  0  0  0  0  2  0  0  0  0  0  0
  183.2620  178.7640  140.7870 C   0  0  2  0  0  0  0  0  0  0  0  0
  183.0410  179.9780  143.8050 C   0  0  0  0  0  2  0  0  0  0  0  0
  183.8080  179.2910  139.4760 C   0  0  0  0  0  1  0  0  0  0  0  0
  183.9310  178.7890  143.4600 C   0  0  0  0  0  0  0  0  0  0  0  0
  185.6160  179.2340  142.1840 C   0  0  2  0  0  3  0  0  0  0  0  0
  181.8960  178.8870  141.0440 O   0  0  0  0  0  1  0  0  0  0  0  0
  185.3660  179.2300  143.7260 C   0  0  0  0  0  2  0  0  0  0  0  0
  184.1610  178.8050  141.9970 C   0  0  2  0  0  0  0  0  0  0  0  0
  183.8800  177.4740  141.3010 C   0  0  0  0  0  2  0  0  0  0  0  0
  182.7060  178.6200  144.3470 C   0  0  0  0  0  2  0  0  0  0  0  0
  192.8310  177.3370  140.3010 C   0  0  0  0  0  2  0  0  0  0  0  0
  193.3700  176.9870  139.0640 O   0  0  0  0  0  1  0  0  0  0  0  0
  1 15  1  0  0  0  0
  2  4  1  6  0  0  0
  2  5  1  0  0  0  0
  2  7  1  0  0  0  0
  3  1  2  0  0  0  0
  4  1  1  0  0  0  0
  5 11  1  1  0  0  0
  7 14  1  6  0  0  0
  7 16  1  0  0  0  0
  8 19  1  0  0  0  0
  9 16  1  0  0  0  0
  9  8  1  0  0  0  0
 10  4  2  0  0  0  0
 11  9  2  0  0  0  0
 12 10  1  0  0  0  0
 12 17  1  0  0  0  0
 13 18  2  0  0  0  0
 13 10  1  0  0  0  0
 15 14  1  0  0  0  0
 16 20  1  1  0  0  0
 17 31  1  6  0  0  0
 17  5  1  0  0  0  0
 18  3  1  0  0  0  0
 19  6  1  0  0  0  0
 20  6  1  0  0  0  0
 21 23  1  6  0  0  0
 21 26  1  0  0  0  0
 21 29  1  0  0  0  0
 21 28  1  0  0  0  0
 22 30  1  0  0  0  0
 24 27  1  0  0  0  0
 24 22  1  0  0  0  0
 24 30  1  0  0  0  0
 25 15  1  1  0  0  0
 25 27  1  0  0  0  0
 28 29  1  6  0  0  0
 28 25  1  0  0  0  0
 28 24  1  0  0  0  0
 32 31  1  0  0  0  0
M  END
>  <MODEL>
6

>  <REMARK>
 VINA RESULT:      -8.8      2.048      6.037
  Name = 
  2 active torsions:
  status: ('A' for Active; 'I' for Inactive)
    1  A    between atoms: C_13  and  C_29
    2  A    between atoms: C_16  and  N_27
                            x       y       z     vdW  Elec       q    Type
                         _______ _______ _______ _____ _____    ______ ____

>  <TORSDO>
F 2

$$$$
=
 OpenBabel10262421003D

 32 39  0  0  1  0  0  0  0  0999 V2000
  183.4470  178.8960  142.1580 C   0  0  0  0  0  0  0  0  0  0  0  0
  185.9210  178.7930  141.8880 C   0  0  1  0  0  3  0  0  0  0  0  0
  182.3030  178.9360  142.9680 C   0  0  0  0  0  3  0  0  0  0  0  0
  184.7050  178.7480  142.7580 C   0  0  0  0  0  0  0  0  0  0  0  0
  186.9980  177.8560  142.4020 C   0  0  1  0  0  3  0  0  0  0  0  0
  187.8990  177.7190  137.4150 C   0  0  0  0  0  2  0  0  0  0  0  0
  185.5610  178.4290  140.4520 C   0  0  1  0  0  3  0  0  0  0  0  0
  189.3470  178.0770  139.4340 C   0  0  0  0  0  2  0  0  0  0  0  0
  188.0870  178.1330  140.2510 C   0  0  0  0  0  0  0  0  0  0  0  0
  184.8300  178.5900  144.1480 C   0  0  0  0  0  0  0  0  0  0  0  0
  188.1530  177.8830  141.5190 N   0  0  0  0  0  0  0  0  0  0  0  0
  186.1510  178.2180  144.7760 C   0  0  0  0  0  2  0  0  0  0  0  0
  183.6790  178.6290  144.9420 C   0  0  0  0  0  3  0  0  0  0  0  0
  184.5240  179.2880  140.0340 O   0  0  0  0  0  0  0  0  0  0  0  0
  183.4040  178.8900  140.7070 N   0  0  0  0  0  0  0  0  0  0  0  0
  186.8000  178.6050  139.5780 C   0  0  1  0  0  3  0  0  0  0  0  0
  187.3660  178.2930  143.8270 C   0  0  1  0  0  3  0  0  0  0  0  0
  182.4230  178.8180  144.3560 C   0  0  0  0  0  3  0  0  0  0  0  0
  189.0870  178.4940  137.9870 C   0  0  0  0  0  2  0  0  0  0  0  0
  186.6000  177.9300  138.2140 C   0  0  0  0  0  2  0  0  0  0  0  0
  180.8290  180.4410  138.8540 C   0  0  2  0  0  0  0  0  0  0  0  0
  181.0480  177.7090  137.0890 C   0  0  0  0  0  2  0  0  0  0  0  0
  180.1950  180.7880  140.1860 C   0  0  0  0  0  1  0  0  0  0  0  0
  182.2620  178.3750  137.7280 C   0  0  0  0  0  0  0  0  0  0  0  0
  182.3120  178.3320  139.8860 C   0  0  2  0  0  3  0  0  0  0  0  0
  180.1130  180.6920  137.6840 O   0  0  0  0  0  1  0  0  0  0  0  0
  182.8130  177.3850  138.7490 C   0  0  0  0  0  2  0  0  0  0  0  0
  181.7740  179.2680  138.8040 C   0  0  2  0  0  0  0  0  0  0  0  0
  182.3230  180.6920  138.7380 C   0  0  0  0  0  2  0  0  0  0  0  0
  182.0950  178.3360  136.2150 C   0  0  0  0  0  2  0  0  0  0  0  0
  188.4910  177.4330  144.3820 C   0  0  0  0  0  2  0  0  0  0  0  0
  189.4890  178.2420  144.9240 O   0  0  0  0  0  1  0  0  0  0  0  0
  1  4  2  0  0  0  0
  1  3  1  0  0  0  0
  2  5  1  0  0  0  0
  2  4  1  1  0  0  0
  3 18  2  0  0  0  0
  4 10  1  0  0  0  0
  5 11  1  6  0  0  0
  5 17  1  0  0  0  0
  6 19  1  0  0  0  0
  6 20  1  0  0  0  0
  7 14  1  6  0  0  0
  7  2  1  0  0  0  0
  8  9  1  0  0  0  0
  9 11  2  0  0  0  0
 10 12  1  0  0  0  0
 10 13  2  0  0  0  0
 14 15  1  0  0  0  0
 15  1  1  0  0  0  0
 16 20  1  6  0  0  0
 16  9  1  0  0  0  0
 16  7  1  0  0  0  0
 17 31  1  1  0  0  0
 17 12  1  0  0  0  0
 18 13  1  0  0  0  0
 19  8  1  0  0  0  0
 21 23  1  1  0  0  0
 22 24  1  0  0  0  0
 24 27  1  0  0  0  0
 24 28  1  0  0  0  0
 25 27  1  6  0  0  0
 25 15  1  0  0  0  0
 26 21  1  0  0  0  0
 28 29  1  6  0  0  0
 28 21  1  0  0  0  0
 28 25  1  0  0  0  0
 29 21  1  0  0  0  0
 30 22  1  0  0  0  0
 30 24  1  0  0  0  0
 31 32  1  0  0  0  0
M  END
>  <MODEL>
7

>  <REMARK>
 VINA RESULT:      -8.8      2.963      6.048
  Name = 
  2 active torsions:
  status: ('A' for Active; 'I' for Inactive)
    1  A    between atoms: C_13  and  C_29
    2  A    between atoms: C_16  and  N_27
                            x       y       z     vdW  Elec       q    Type
                         _______ _______ _______ _____ _____    ______ ____

>  <TORSDO>
F 2

$$$$
=
 OpenBabel10262421003D

 32 39  0  0  1  0  0  0  0  0999 V2000
  186.4930  178.1580  144.1280 C   0  0  0  0  0  0  0  0  0  0  0  0
  186.8180  177.7700  141.6890 C   0  0  1  0  0  3  0  0  0  0  0  0
  185.6880  178.5310  145.2120 C   0  0  0  0  0  3  0  0  0  0  0  0
  185.9770  178.2530  142.8280 C   0  0  0  0  0  0  0  0  0  0  0  0
  186.6020  178.6180  140.4500 C   0  0  1  0  0  3  0  0  0  0  0  0
  191.4410  177.2360  139.8410 C   0  0  0  0  0  2  0  0  0  0  0  0
  188.2930  177.7820  142.0730 C   0  0  1  0  0  3  0  0  0  0  0  0
  189.4240  177.2080  138.3470 C   0  0  0  0  0  2  0  0  0  0  0  0
  188.6060  177.5870  139.5490 C   0  0  0  0  0  0  0  0  0  0  0  0
  184.6890  178.7610  142.5960 C   0  0  0  0  0  0  0  0  0  0  0  0
  187.4590  178.1600  139.3680 N   0  0  0  0  0  0  0  0  0  0  0  0
  184.2090  179.0650  141.1980 C   0  0  0  0  0  2  0  0  0  0  0  0
  183.8990  179.1330  143.6890 C   0  0  0  0  0  3  0  0  0  0  0  0
  188.4390  177.0270  143.2550 O   0  0  0  0  0  0  0  0  0  0  0  0
  187.8880  177.7740  144.2570 N   0  0  0  0  0  0  0  0  0  0  0  0
  189.1010  177.1710  140.9320 C   0  0  1  0  0  3  0  0  0  0  0  0
  185.1170  178.5320  140.0690 C   0  0  1  0  0  3  0  0  0  0  0  0
  184.3900  179.0030  144.9920 C   0  0  0  0  0  3  0  0  0  0  0  0
  190.6930  176.4600  138.7560 C   0  0  0  0  0  2  0  0  0  0  0  0
  190.5960  177.4700  141.1060 C   0  0  0  0  0  2  0  0  0  0  0  0
  187.7790  177.5800  147.7800 C   0  0  2  0  0  0  0  0  0  0  0  0
  191.0200  177.7180  147.4540 C   0  0  0  0  0  2  0  0  0  0  0  0
  186.6690  178.6090  147.7190 C   0  0  0  0  0  1  0  0  0  0  0  0
  190.1230  176.9930  146.4560 C   0  0  0  0  0  0  0  0  0  0  0  0
  188.8160  178.2600  145.2950 C   0  0  2  0  0  3  0  0  0  0  0  0
  188.2980  177.2250  149.0260 O   0  0  0  0  0  1  0  0  0  0  0  0
  190.2730  177.7240  145.1260 C   0  0  0  0  0  2  0  0  0  0  0  0
  188.7460  177.5110  146.6260 C   0  0  2  0  0  0  0  0  0  0  0  0
  187.6820  176.4280  146.7940 C   0  0  0  0  0  2  0  0  0  0  0  0
  191.0910  176.2230  147.3440 C   0  0  0  0  0  2  0  0  0  0  0  0
  184.8410  179.3120  138.7920 C   0  0  0  0  0  2  0  0  0  0  0  0
  184.1800  180.5030  139.0930 O   0  0  0  0  0  1  0  0  0  0  0  0
  1 15  1  0  0  0  0
  1  3  1  0  0  0  0
  2  7  1  0  0  0  0
  2  4  1  1  0  0  0
  4  1  2  0  0  0  0
  5 11  1  6  0  0  0
  5  2  1  0  0  0  0
  6 20  1  0  0  0  0
  7 14  1  1  0  0  0
  8 19  1  0  0  0  0
  8  9  1  0  0  0  0
  9 16  1  0  0  0  0
 10  4  1  0  0  0  0
 10 13  2  0  0  0  0
 11  9  2  0  0  0  0
 12 10  1  0  0  0  0
 13 18  1  0  0  0  0
 14 15  1  0  0  0  0
 16 20  1  1  0  0  0
 16  7  1  0  0  0  0
 17 31  1  6  0  0  0
 17  5  1  0  0  0  0
 17 12  1  0  0  0  0
 18  3  2  0  0  0  0
 19  6  1  0  0  0  0
 21 23  1  6  0  0  0
 21 26  1  0  0  0  0
 24 28  1  0  0  0  0
 24 30  1  0  0  0  0
 24 22  1  0  0  0  0
 25 15  1  6  0  0  0
 25 28  1  0  0  0  0
 27 25  1  0  0  0  0
 27 24  1  0  0  0  0
 28 29  1  6  0  0  0
 28 21  1  0  0  0  0
 29 21  1  0  0  0  0
 30 22  1  0  0  0  0
 31 32  1  0  0  0  0
M  END
>  <MODEL>
8

>  <REMARK>
 VINA RESULT:      -8.7      2.138      6.754
  Name = 
  2 active torsions:
  status: ('A' for Active; 'I' for Inactive)
    1  A    between atoms: C_13  and  C_29
    2  A    between atoms: C_16  and  N_27
                            x       y       z     vdW  Elec       q    Type
                         _______ _______ _______ _____ _____    ______ ____

>  <TORSDO>
F 2

$$$$
=
 OpenBabel10262421003D

 32 39  0  0  1  0  0  0  0  0999 V2000
  188.0310  177.9690  143.3120 C   0  0  0  0  0  0  0  0  0  0  0  0
  189.1950  178.2040  141.1220 C   0  0  1  0  0  3  0  0  0  0  0  0
  188.0560  177.7370  144.6940 C   0  0  0  0  0  3  0  0  0  0  0  0
  189.2230  177.8700  142.5800 C   0  0  0  0  0  0  0  0  0  0  0  0
  190.1550  177.3280  140.3400 C   0  0  1  0  0  3  0  0  0  0  0  0
  186.5490  178.1410  136.8720 C   0  0  0  0  0  2  0  0  0  0  0  0
  187.7840  178.0480  140.5670 C   0  0  1  0  0  3  0  0  0  0  0  0
  189.0530  178.3210  136.8510 C   0  0  0  0  0  2  0  0  0  0  0  0
  189.0190  178.0900  138.3360 C   0  0  0  0  0  0  0  0  0  0  0  0
  190.4250  177.4960  143.2010 C   0  0  0  0  0  0  0  0  0  0  0  0
  190.0820  177.6380  138.9220 N   0  0  0  0  0  0  0  0  0  0  0  0
  191.6590  177.1820  142.3900 C   0  0  0  0  0  2  0  0  0  0  0  0
  190.4330  177.2650  144.5810 C   0  0  0  0  0  3  0  0  0  0  0  0
  186.9200  178.8370  141.3530 O   0  0  0  0  0  0  0  0  0  0  0  0
  186.8120  178.2020  142.5580 N   0  0  0  0  0  0  0  0  0  0  0  0
  187.7750  178.5130  139.1130 C   0  0  1  0  0  3  0  0  0  0  0  0
  191.5680  177.5590  140.8960 C   0  0  1  0  0  3  0  0  0  0  0  0
  189.2570  177.4010  145.3270 C   0  0  0  0  0  3  0  0  0  0  0  0
  187.7460  178.9420  136.3580 C   0  0  0  0  0  2  0  0  0  0  0  0
  186.4910  178.0600  138.4080 C   0  0  0  0  0  2  0  0  0  0  0  0
  184.6240  178.8800  145.2450 C   0  0  2  0  0  0  0  0  0  0  0  0
  182.3700  177.9930  143.0630 C   0  0  0  0  0  2  0  0  0  0  0  0
  185.5990  178.1210  146.1210 C   0  0  0  0  0  1  0  0  0  0  0  0
  183.6310  178.7580  142.6770 C   0  0  0  0  0  0  0  0  0  0  0  0
  185.4810  177.6660  142.8980 C   0  0  2  0  0  3  0  0  0  0  0  0
  183.4000  179.2740  145.7870 O   0  0  0  0  0  1  0  0  0  0  0  0
  184.4300  177.8430  141.7560 C   0  0  0  0  0  2  0  0  0  0  0  0
  184.6180  178.5820  143.7670 C   0  0  2  0  0  0  0  0  0  0  0  0
  185.2310  179.8840  144.2790 C   0  0  0  0  0  2  0  0  0  0  0  0
  182.2580  179.4070  142.5760 C   0  0  0  0  0  2  0  0  0  0  0  0
  192.5940  176.7550  140.1120 C   0  0  0  0  0  2  0  0  0  0  0  0
  193.6750  177.5670  139.7690 O   0  0  0  0  0  1  0  0  0  0  0  0
  1  3  1  0  0  0  0
  2  4  1  1  0  0  0
  3 18  2  0  0  0  0
  4 10  1  0  0  0  0
  4  1  2  0  0  0  0
  5 11  1  6  0  0  0
  5 17  1  0  0  0  0
  5  2  1  0  0  0  0
  6 20  1  0  0  0  0
  7  2  1  0  0  0  0
  7 14  1  1  0  0  0
  8  9  1  0  0  0  0
  9 11  2  0  0  0  0
  9 16  1  0  0  0  0
 10 13  2  0  0  0  0
 12 10  1  0  0  0  0
 13 18  1  0  0  0  0
 14 15  1  0  0  0  0
 15 25  1  0  0  0  0
 15  1  1  0  0  0  0
 16 20  1  6  0  0  0
 16  7  1  0  0  0  0
 17 31  1  6  0  0  0
 17 12  1  0  0  0  0
 19  8  1  0  0  0  0
 19  6  1  0  0  0  0
 21 26  1  0  0  0  0
 21 23  1  1  0  0  0
 24 22  1  0  0  0  0
 24 28  1  0  0  0  0
 25 27  1  6  0  0  0
 25 28  1  0  0  0  0
 27 24  1  0  0  0  0
 28 29  1  6  0  0  0
 28 21  1  0  0  0  0
 29 21  1  0  0  0  0
 30 24  1  0  0  0  0
 30 22  1  0  0  0  0
 32 31  1  0  0  0  0
M  END
>  <MODEL>
9

>  <REMARK>
 VINA RESULT:      -8.7      1.928      7.543
  Name = 
  2 active torsions:
  status: ('A' for Active; 'I' for Inactive)
    1  A    between atoms: C_13  and  C_29
    2  A    between atoms: C_16  and  N_27
                            x       y       z     vdW  Elec       q    Type
                         _______ _______ _______ _____ _____    ______ ____

>  <TORSDO>
F 2

$$$$
