=
 OpenBabel10262423123D

 34 40  0  0  0  0  0  0  0  0999 V2000
  187.6100  177.8920  145.0660 C   0  0  0  0  0  0  0  0  0  0  0  0
  184.0300  178.7880  145.5470 C   0  0  0  0  0  3  0  0  0  0  0  0
  185.7430  178.5580  147.0740 C   0  0  0  0  0  3  0  0  0  0  0  0
  190.0580  177.2480  144.7640 C   0  0  0  0  0  0  0  0  0  0  0  0
  188.7120  177.5150  144.0890 C   0  0  0  0  0  3  0  0  0  0  0  0
  189.1220  177.7310  146.8960 C   0  0  0  0  0  0  0  0  0  0  0  0
  189.0970  177.8930  148.3880 C   0  0  0  0  0  2  0  0  0  0  0  0
  190.2170  177.3480  146.0600 N   0  0  0  0  0  0  0  0  0  0  0  0
  187.0680  178.2810  147.3780 C   0  0  0  0  0  0  0  0  0  0  0  0
  187.9410  177.9670  146.4030 C   0  0  0  0  0  0  0  0  0  0  0  0
  187.6970  178.2630  148.6540 N   0  0  0  0  0  0  0  0  0  0  0  0
  183.1970  178.8440  144.3430 C   0  0  0  0  0  3  0  0  0  0  0  0
  183.5170  178.6300  143.0730 C   0  0  0  0  0  0  0  0  0  0  0  0
  184.8460  178.2700  142.5800 C   0  0  0  0  0  3  0  0  0  0  0  0
  185.3220  178.5060  145.7250 C   0  0  0  0  0  0  0  0  0  0  0  0
  185.9750  178.0820  143.2510 C   0  0  0  0  0  3  0  0  0  0  0  0
  186.2680  178.1690  144.6940 C   0  0  0  0  0  0  0  0  0  0  0  0
  182.4810  178.7560  142.1060 N   0  0  0  0  0  0  0  0  0  0  0  0
  181.0670  179.0140  141.7050 C   0  0  0  0  0  2  0  0  0  0  0  0
  181.9710  178.7310  140.7030 C   0  0  0  0  0  2  0  0  0  0  0  0
  191.2080  176.8070  143.9230 C   0  0  0  0  0  2  0  0  0  0  0  0
  191.6610  177.2790  140.1990 N   0  0  0  0  0  2  0  0  0  0  0  0
  189.5270  177.3290  142.0490 C   0  0  0  0  0  3  0  0  0  0  0  0
  188.6990  178.0800  138.0740 N   0  0  0  0  0  0  0  0  0  0  0  0
  188.4110  178.3450  136.6950 C   0  0  0  0  0  0  0  0  0  0  0  0
  190.0510  177.8000  138.4870 C   0  0  0  0  0  3  0  0  0  0  0  0
  187.1110  178.6260  136.2910 O   0  0  0  0  0  1  0  0  0  0  0  0
  190.3270  177.5550  139.7680 C   0  0  0  0  0  0  0  0  0  0  0  0
  189.3310  178.3230  135.8340 O   0  0  0  0  0  0  0  0  0  0  0  0
  187.8690  177.8580  140.3320 C   0  0  0  0  0  3  0  0  0  0  0  0
  189.2420  177.5720  140.7670 C   0  0  0  0  0  0  0  0  0  0  0  0
  187.6300  178.0990  139.0400 C   0  0  0  0  0  3  0  0  0  0  0  0
  190.9160  177.0430  142.4800 C   0  0  0  0  0  0  0  0  0  0  0  0
  191.9170  177.0280  141.5880 C   0  0  0  0  0  3  0  0  0  0  0  0
  1 10  1  0  0  0  0
  2 15  1  0  0  0  0
  3  9  1  0  0  0  0
  4  8  2  0  0  0  0
  5  4  1  0  0  0  0
  5  1  2  0  0  0  0
  6  7  1  0  0  0  0
  7 11  1  0  0  0  0
  8  6  1  0  0  0  0
  9 11  2  0  0  0  0
 10  6  2  0  0  0  0
 10  9  1  0  0  0  0
 12  2  2  0  0  0  0
 13 12  1  0  0  0  0
 14 13  2  0  0  0  0
 14 16  1  0  0  0  0
 15  3  2  0  0  0  0
 16 17  2  0  0  0  0
 17  1  1  0  0  0  0
 17 15  1  0  0  0  0
 18 13  1  0  0  0  0
 19 18  1  0  0  0  0
 20 19  1  0  0  0  0
 20 18  1  0  0  0  0
 21  4  1  0  0  0  0
 22 34  1  0  0  0  0
 23 33  1  0  0  0  0
 24 26  1  0  0  0  0
 24 32  1  0  0  0  0
 25 24  1  0  0  0  0
 26 28  2  0  0  0  0
 27 25  1  0  0  0  0
 28 22  1  0  0  0  0
 28 31  1  0  0  0  0
 29 25  2  0  0  0  0
 30 31  1  0  0  0  0
 31 23  2  0  0  0  0
 32 30  2  0  0  0  0
 33 21  1  0  0  0  0
 34 33  2  0  0  0  0
M  END
>  <MODEL>
1

>  <REMARK>
 VINA RESULT:     -12.1      0.000      0.000
  Name = 
  3 active torsions:
  status: ('A' for Active; 'I' for Inactive)
    1  A    between atoms: N_3  and  C_25
    2  A    between atoms: C_8  and  C_18
    3  A    between atoms: C_18  and  C_30
                            x       y       z     vdW  Elec       q    Type
                         _______ _______ _______ _____ _____    ______ ____

>  <TORSDO>
F 3

$$$$
=
 OpenBabel10262423123D

 34 40  0  0  1  0  0  0  0  0999 V2000
  189.1480  177.5320  144.3240 C   0  0  0  0  0  0  0  0  0  0  0  0
  191.4430  177.1160  141.4240 C   0  0  0  0  0  3  0  0  0  0  0  0
  191.7830  176.7560  143.6760 C   0  0  0  0  0  3  0  0  0  0  0  0
  187.6040  177.8410  146.3290 C   0  0  0  0  0  0  0  0  0  0  0  0
  187.7650  177.9310  144.8100 C   0  0  0  0  0  3  0  0  0  0  0  0
  189.8440  177.0720  146.5530 C   0  0  0  0  0  0  0  0  0  0  0  0
  191.0790  176.6090  147.2680 C   0  0  0  0  0  2  0  0  0  0  0  0
  188.5810  177.4490  147.1080 N   0  0  0  0  0  0  0  0  0  0  0  0
  191.3270  176.7560  144.9870 C   0  0  0  0  0  0  0  0  0  0  0  0
  190.0670  177.1300  145.2720 C   0  0  0  0  0  0  0  0  0  0  0  0
  192.0400  176.4100  146.1690 N   0  0  0  0  0  0  0  0  0  0  0  0
  190.9010  177.4410  140.1020 C   0  0  0  0  0  3  0  0  0  0  0  0
  189.6910  177.8650  139.7560 C   0  0  0  0  0  0  0  0  0  0  0  0
  188.5820  178.1110  140.6760 C   0  0  0  0  0  3  0  0  0  0  0  0
  190.9020  177.1530  142.6420 C   0  0  0  0  0  0  0  0  0  0  0  0
  188.5310  177.9790  141.9960 C   0  0  0  0  0  3  0  0  0  0  0  0
  189.5560  177.5480  142.9640 C   0  0  0  0  0  0  0  0  0  0  0  0
  189.4510  178.1040  138.3740 N   0  0  0  0  0  0  0  0  0  0  0  0
  189.3920  177.6750  136.9460 C   0  0  0  0  0  2  0  0  0  0  0  0
  189.0620  178.9830  137.2330 C   0  0  0  0  0  2  0  0  0  0  0  0
  186.3120  178.2660  146.9410 C   0  0  0  0  0  2  0  0  0  0  0  0
  183.0320  179.0460  145.2300 N   0  0  0  0  0  0  0  0  0  0  0  0
  185.6260  178.2290  144.4630 C   0  0  0  0  0  3  0  0  0  0  0  0
  182.7700  178.7180  141.5210 N   0  0  0  0  0  0  0  0  0  0  0  0
  181.7790  178.8850  140.4990 C   0  0  0  0  0  0  0  0  0  0  0  0
  182.4320  178.9650  142.9000 C   0  0  0  0  0  3  0  0  0  0  0  0
  182.0950  178.6380  139.1680 O   0  0  0  0  0  0  0  0  0  0  0  0
  183.3480  178.8110  143.8560 C   0  0  0  0  0  0  0  0  0  0  0  0
  180.6120  179.2580  140.7950 O   0  0  0  0  0  1  0  0  0  0  0  0
  185.0460  178.1370  142.0910 C   0  0  0  0  0  3  0  0  0  0  0  0
  184.7140  178.3850  143.5000 C   0  0  2  0  0  3  0  0  0  0  0  0
  184.1020  178.3020  141.1590 C   0  0  0  0  0  3  0  0  0  0  0  0
  185.2830  178.4790  145.8830 C   0  0  0  0  0  0  0  0  0  0  0  0
  184.0460  178.8620  146.2290 C   0  0  0  0  0  3  0  0  0  0  0  0
  1  5  2  0  0  0  0
  1 10  1  0  0  0  0
  2 15  1  0  0  0  0
  3  9  1  0  0  0  0
  4 21  1  0  0  0  0
  4  8  2  0  0  0  0
  5  4  1  0  0  0  0
  6  8  1  0  0  0  0
  6  7  1  0  0  0  0
  9 10  1  0  0  0  0
  9 11  2  0  0  0  0
 10  6  2  0  0  0  0
 11  7  1  0  0  0  0
 12  2  2  0  0  0  0
 13 12  1  0  0  0  0
 13 14  2  0  0  0  0
 14 16  1  0  0  0  0
 15 17  1  0  0  0  0
 15  3  2  0  0  0  0
 16 17  2  0  0  0  0
 17  1  1  0  0  0  0
 18 13  1  0  0  0  0
 19 20  1  0  0  0  0
 19 18  1  0  0  0  0
 20 18  1  0  0  0  0
 22 34  2  0  0  0  0
 23 33  2  0  0  0  0
 24 26  1  0  0  0  0
 25 29  1  0  0  0  0
 25 24  1  0  0  0  0
 26 28  2  0  0  0  0
 27 25  2  0  0  0  0
 28 22  1  0  0  0  0
 31 30  1  1  0  0  0
 31 28  1  0  0  0  0
 31 23  1  0  0  0  0
 32 24  1  0  0  0  0
 32 30  2  0  0  0  0
 33 34  1  0  0  0  0
 33 21  1  0  0  0  0
M  END
>  <MODEL>
2

>  <REMARK>
 VINA RESULT:     -12.1      2.015      6.368
  Name = 
  3 active torsions:
  status: ('A' for Active; 'I' for Inactive)
    1  A    between atoms: N_3  and  C_25
    2  A    between atoms: C_8  and  C_18
    3  A    between atoms: C_18  and  C_30
                            x       y       z     vdW  Elec       q    Type
                         _______ _______ _______ _____ _____    ______ ____

>  <TORSDO>
F 3

$$$$
=
 OpenBabel10262423123D

 34 40  0  0  0  0  0  0  0  0999 V2000
  186.2570  178.1380  143.7430 C   0  0  0  0  0  0  0  0  0  0  0  0
  187.5030  177.5760  147.2040 C   0  0  0  0  0  3  0  0  0  0  0  0
  185.4560  178.3160  146.4430 C   0  0  0  0  0  3  0  0  0  0  0  0
  185.3920  178.5610  141.3820 C   0  0  0  0  0  0  0  0  0  0  0  0
  186.5590  178.0950  142.2540 C   0  0  0  0  0  2  0  0  0  0  0  0
  184.0550  178.9310  143.3130 C   0  0  0  0  0  0  0  0  0  0  0  0
  182.8390  179.3390  144.0930 C   0  0  0  0  0  3  0  0  0  0  0  0
  184.2520  178.9480  141.8970 N   0  0  0  0  0  0  0  0  0  0  0  0
  184.5970  178.6520  145.4070 C   0  0  0  0  0  0  0  0  0  0  0  0
  185.0000  178.5590  144.1270 C   0  0  0  0  0  0  0  0  0  0  0  0
  183.2580  179.1300  145.4890 N   0  0  0  0  0  0  0  0  0  0  0  0
  188.8810  177.0950  147.3390 C   0  0  0  0  0  3  0  0  0  0  0  0
  189.7820  176.8120  146.4060 C   0  0  0  0  0  0  0  0  0  0  0  0
  189.5750  176.9290  144.9630 C   0  0  0  0  0  3  0  0  0  0  0  0
  186.7630  177.8710  146.1340 C   0  0  0  0  0  0  0  0  0  0  0  0
  188.5020  177.3250  144.2900 C   0  0  0  0  0  3  0  0  0  0  0  0
  187.1790  177.7750  144.7600 C   0  0  0  0  0  0  0  0  0  0  0  0
  191.0580  176.3600  146.8420 N   0  0  0  0  0  0  0  0  0  0  0  0
  192.1630  176.2770  147.8410 C   0  0  0  0  0  2  0  0  0  0  0  0
  192.3280  175.6000  146.6510 C   0  0  0  0  0  2  0  0  0  0  0  0
  185.5820  178.6270  139.9040 C   0  0  0  0  0  2  0  0  0  0  0  0
  188.5910  177.4700  137.9290 N   0  0  0  0  0  2  0  0  0  0  0  0
  188.0380  178.2770  140.5800 C   0  0  0  0  0  3  0  0  0  0  0  0
  191.8970  177.1530  139.6340 N   0  0  0  0  0  0  0  0  0  0  0  0
  193.2360  176.7590  139.3070 C   0  0  0  0  0  0  0  0  0  0  0  0
  190.8710  177.1280  138.6210 C   0  0  0  0  0  3  0  0  0  0  0  0
  194.2270  176.7700  140.2820 O   0  0  0  0  0  1  0  0  0  0  0  0
  189.6230  177.4910  138.9180 C   0  0  0  0  0  0  0  0  0  0  0  0
  193.5290  176.4020  138.1350 O   0  0  0  0  0  0  0  0  0  0  0  0
  190.3450  177.9390  141.3110 C   0  0  0  0  0  3  0  0  0  0  0  0
  189.2910  177.9190  140.2890 C   0  0  0  0  0  0  0  0  0  0  0  0
  191.5850  177.5690  140.9780 C   0  0  0  0  0  3  0  0  0  0  0  0
  186.9790  178.2510  139.5430 C   0  0  0  0  0  0  0  0  0  0  0  0
  187.2590  177.8610  138.2910 C   0  0  0  0  0  3  0  0  0  0  0  0
  1 10  1  0  0  0  0
  1 17  2  0  0  0  0
  2 12  1  0  0  0  0
  4  8  2  0  0  0  0
  4  5  1  0  0  0  0
  5  1  1  0  0  0  0
  6  7  1  0  0  0  0
  6 10  2  0  0  0  0
  7 11  2  0  0  0  0
  8  6  1  0  0  0  0
  9 11  1  0  0  0  0
  9  3  2  0  0  0  0
 10  9  1  0  0  0  0
 13 18  1  0  0  0  0
 13 12  2  0  0  0  0
 14 13  1  0  0  0  0
 15  3  1  0  0  0  0
 15  2  2  0  0  0  0
 16 17  1  0  0  0  0
 16 14  2  0  0  0  0
 17 15  1  0  0  0  0
 18 19  1  0  0  0  0
 20 18  1  0  0  0  0
 20 19  1  0  0  0  0
 21  4  1  0  0  0  0
 22 34  1  0  0  0  0
 22 28  1  0  0  0  0
 24 32  1  0  0  0  0
 25 24  1  0  0  0  0
 25 27  1  0  0  0  0
 26 28  2  0  0  0  0
 26 24  1  0  0  0  0
 28 31  1  0  0  0  0
 29 25  2  0  0  0  0
 31 23  2  0  0  0  0
 31 30  1  0  0  0  0
 32 30  2  0  0  0  0
 33 21  1  0  0  0  0
 33 23  1  0  0  0  0
 34 33  2  0  0  0  0
M  END
>  <MODEL>
3

>  <REMARK>
 VINA RESULT:     -12.0      2.077      5.785
  Name = 
  3 active torsions:
  status: ('A' for Active; 'I' for Inactive)
    1  A    between atoms: N_3  and  C_25
    2  A    between atoms: C_8  and  C_18
    3  A    between atoms: C_18  and  C_30
                            x       y       z     vdW  Elec       q    Type
                         _______ _______ _______ _____ _____    ______ ____

>  <TORSDO>
F 3

$$$$
=
 OpenBabel10262423123D

 34 40  0  0  0  0  0  0  0  0999 V2000
  188.9020  177.6910  143.8480 C   0  0  0  0  0  0  0  0  0  0  0  0
  185.8600  177.9080  145.9820 C   0  0  0  0  0  3  0  0  0  0  0  0
  188.0530  177.4450  146.5280 C   0  0  0  0  0  3  0  0  0  0  0  0
  190.9920  177.5050  142.4010 C   0  0  0  0  0  0  0  0  0  0  0  0
  189.4900  177.7870  142.4500 C   0  0  0  0  0  3  0  0  0  0  0  0
  191.0400  177.1730  144.7550 C   0  0  0  0  0  0  0  0  0  0  0  0
  191.6430  176.8580  146.0930 C   0  0  0  0  0  2  0  0  0  0  0  0
  191.6800  177.2180  143.4770 N   0  0  0  0  0  0  0  0  0  0  0  0
  189.3810  177.2670  146.1670 C   0  0  0  0  0  0  0  0  0  0  0  0
  189.7630  177.3900  144.8830 C   0  0  0  0  0  0  0  0  0  0  0  0
  190.4860  176.9370  147.0010 N   0  0  0  0  0  0  0  0  0  0  0  0
  184.6010  178.2240  145.3050 C   0  0  0  0  0  3  0  0  0  0  0  0
  184.3570  178.4590  144.0210 C   0  0  0  0  0  0  0  0  0  0  0  0
  185.3550  178.4510  142.9520 C   0  0  0  0  0  3  0  0  0  0  0  0
  187.1050  177.7600  145.5260 C   0  0  0  0  0  0  0  0  0  0  0  0
  186.6590  178.2160  143.0120 C   0  0  0  0  0  3  0  0  0  0  0  0
  187.5290  177.8890  144.1570 C   0  0  0  0  0  0  0  0  0  0  0  0
  183.0130  178.7410  143.6490 N   0  0  0  0  0  0  0  0  0  0  0  0
  181.9450  179.0030  142.6410 C   0  0  0  0  0  2  0  0  0  0  0  0
  181.5790  179.0030  143.9710 C   0  0  0  0  0  2  0  0  0  0  0  0
  191.6800  177.5050  141.0780 C   0  0  0  0  0  2  0  0  0  0  0  0
  190.1670  175.6730  138.1360 N   0  0  0  0  0  2  0  0  0  0  0  0
  189.4700  177.8420  139.8080 C   0  0  0  0  0  3  0  0  0  0  0  0
  186.8740  176.7850  136.7750 N   0  0  0  0  0  0  0  0  0  0  0  0
  185.9740  176.4210  135.7210 C   0  0  0  0  0  0  0  0  0  0  0  0
  188.1010  176.0510  136.9610 C   0  0  0  0  0  3  0  0  0  0  0  0
  184.7940  177.1310  135.5300 O   0  0  0  0  0  1  0  0  0  0  0  0
  188.9440  176.3850  137.9380 C   0  0  0  0  0  0  0  0  0  0  0  0
  186.2400  175.4530  134.9580 O   0  0  0  0  0  0  0  0  0  0  0  0
  187.3650  178.2500  138.6330 C   0  0  0  0  0  3  0  0  0  0  0  0
  188.6190  177.5110  138.8330 C   0  0  0  0  0  0  0  0  0  0  0  0
  186.5450  177.8870  137.6440 C   0  0  0  0  0  3  0  0  0  0  0  0
  190.7340  177.0930  140.0010 C   0  0  0  0  0  0  0  0  0  0  0  0
  191.0510  176.0690  139.1960 C   0  0  0  0  0  3  0  0  0  0  0  0
  1 17  1  0  0  0  0
  1 10  1  0  0  0  0
  4  5  1  0  0  0  0
  4  8  2  0  0  0  0
  5  1  2  0  0  0  0
  6 10  2  0  0  0  0
  6  7  1  0  0  0  0
  7 11  1  0  0  0  0
  8  6  1  0  0  0  0
  9  3  1  0  0  0  0
  9 11  2  0  0  0  0
 10  9  1  0  0  0  0
 12  2  2  0  0  0  0
 13 12  1  0  0  0  0
 14 16  1  0  0  0  0
 14 13  2  0  0  0  0
 15  2  1  0  0  0  0
 15  3  2  0  0  0  0
 16 17  2  0  0  0  0
 17 15  1  0  0  0  0
 18 20  1  0  0  0  0
 18 13  1  0  0  0  0
 19 18  1  0  0  0  0
 19 20  1  0  0  0  0
 21  4  1  0  0  0  0
 22 34  1  0  0  0  0
 23 33  1  0  0  0  0
 24 26  1  0  0  0  0
 24 32  1  0  0  0  0
 25 24  1  0  0  0  0
 26 28  2  0  0  0  0
 27 25  1  0  0  0  0
 28 22  1  0  0  0  0
 28 31  1  0  0  0  0
 29 25  2  0  0  0  0
 30 31  1  0  0  0  0
 31 23  2  0  0  0  0
 32 30  2  0  0  0  0
 33 21  1  0  0  0  0
 34 33  2  0  0  0  0
M  END
>  <MODEL>
4

>  <REMARK>
 VINA RESULT:     -11.9      1.672      2.512
  Name = 
  3 active torsions:
  status: ('A' for Active; 'I' for Inactive)
    1  A    between atoms: N_3  and  C_25
    2  A    between atoms: C_8  and  C_18
    3  A    between atoms: C_18  and  C_30
                            x       y       z     vdW  Elec       q    Type
                         _______ _______ _______ _____ _____    ______ ____

>  <TORSDO>
F 3

$$$$
=
 OpenBabel10262423123D

 34 40  0  0  1  0  0  0  0  0999 V2000
  186.4710  178.1410  143.8890 C   0  0  0  0  0  0  0  0  0  0  0  0
  187.5430  177.5920  147.4110 C   0  0  0  0  0  3  0  0  0  0  0  0
  185.5300  178.3090  146.5450 C   0  0  0  0  0  3  0  0  0  0  0  0
  185.7260  178.5560  141.4870 C   0  0  0  0  0  0  0  0  0  0  0  0
  186.8510  178.1030  142.4190 C   0  0  0  0  0  2  0  0  0  0  0  0
  184.2860  178.9110  143.3470 C   0  0  0  0  0  0  0  0  0  0  0  0
  183.0270  179.3040  144.0620 C   0  0  0  0  0  3  0  0  0  0  0  0
  184.5560  178.9300  141.9420 N   0  0  0  0  0  0  0  0  0  0  0  0
  184.7220  178.6360  145.4650 C   0  0  0  0  0  0  0  0  0  0  0  0
  185.1920  178.5480  144.2080 C   0  0  0  0  0  0  0  0  0  0  0  0
  183.3760  179.0990  145.4780 N   0  0  0  0  0  0  0  0  0  0  0  0
  188.9170  177.1260  147.6170 C   0  0  0  0  0  3  0  0  0  0  0  0
  189.8680  176.8540  146.7320 C   0  0  0  0  0  0  0  0  0  0  0  0
  189.7350  176.9690  145.2800 C   0  0  0  0  0  3  0  0  0  0  0  0
  186.8560  177.8790  146.3040 C   0  0  0  0  0  0  0  0  0  0  0  0
  188.6940  177.3530  144.5520 C   0  0  0  0  0  3  0  0  0  0  0  0
  187.3440  177.7890  144.9530 C   0  0  0  0  0  0  0  0  0  0  0  0
  191.1250  176.4160  147.2340 N   0  0  0  0  0  0  0  0  0  0  0  0
  192.2620  176.4810  148.1990 C   0  0  0  0  0  2  0  0  0  0  0  0
  192.3280  175.5330  147.1990 C   0  0  0  0  0  2  0  0  0  0  0  0
  185.9910  178.6250  140.0210 C   0  0  0  0  0  2  0  0  0  0  0  0
  189.6980  177.9730  140.3770 N   0  0  0  0  0  0  0  0  0  0  0  0
  187.7120  177.6180  138.3990 C   0  0  0  0  0  3  0  0  0  0  0  0
  191.5870  176.4980  137.5150 N   0  0  0  0  0  0  0  0  0  0  0  0
  192.9330  176.1120  137.2060 C   0  0  0  0  0  0  0  0  0  0  0  0
  191.2760  177.0540  138.8080 C   0  0  0  0  0  3  0  0  0  0  0  0
  193.2420  175.5860  135.9570 O   0  0  0  0  0  0  0  0  0  0  0  0
  190.0270  177.4170  139.1020 C   0  0  0  0  0  0  0  0  0  0  0  0
  193.8480  176.2440  138.0620 O   0  0  0  0  0  1  0  0  0  0  0  0
  189.2910  176.6810  136.7850 C   0  0  0  0  0  3  0  0  0  0  0  0
  188.9600  177.2490  138.0990 C   0  0  2  0  0  3  0  0  0  0  0  0
  190.5530  176.3280  136.5260 C   0  0  0  0  0  3  0  0  0  0  0  0
  187.3870  178.1920  139.7260 C   0  0  0  0  0  0  0  0  0  0  0  0
  188.3430  178.3580  140.6500 C   0  0  0  0  0  3  0  0  0  0  0  0
  1 10  1  0  0  0  0
  1 17  2  0  0  0  0
  2 12  1  0  0  0  0
  4  8  2  0  0  0  0
  4  5  1  0  0  0  0
  5  1  1  0  0  0  0
  6  7  1  0  0  0  0
  6 10  2  0  0  0  0
  7 11  2  0  0  0  0
  8  6  1  0  0  0  0
  9 11  1  0  0  0  0
  9  3  2  0  0  0  0
 10  9  1  0  0  0  0
 13 18  1  0  0  0  0
 13 12  2  0  0  0  0
 14 13  1  0  0  0  0
 15  3  1  0  0  0  0
 15  2  2  0  0  0  0
 16 17  1  0  0  0  0
 16 14  2  0  0  0  0
 17 15  1  0  0  0  0
 18 19  1  0  0  0  0
 20 18  1  0  0  0  0
 20 19  1  0  0  0  0
 21  4  1  0  0  0  0
 22 34  2  0  0  0  0
 23 33  2  0  0  0  0
 24 26  1  0  0  0  0
 25 24  1  0  0  0  0
 25 29  1  0  0  0  0
 26 28  2  0  0  0  0
 27 25  2  0  0  0  0
 28 22  1  0  0  0  0
 31 30  1  6  0  0  0
 31 23  1  0  0  0  0
 31 28  1  0  0  0  0
 32 30  2  0  0  0  0
 32 24  1  0  0  0  0
 33 21  1  0  0  0  0
 33 34  1  0  0  0  0
M  END
>  <MODEL>
5

>  <REMARK>
 VINA RESULT:     -11.9      2.234      5.707
  Name = 
  3 active torsions:
  status: ('A' for Active; 'I' for Inactive)
    1  A    between atoms: N_3  and  C_25
    2  A    between atoms: C_8  and  C_18
    3  A    between atoms: C_18  and  C_30
                            x       y       z     vdW  Elec       q    Type
                         _______ _______ _______ _____ _____    ______ ____

>  <TORSDO>
F 3

$$$$
=
 OpenBabel10262423123D

 34 40  0  0  0  0  0  0  0  0999 V2000
  185.4520  178.3860  142.6950 C   0  0  0  0  0  0  0  0  0  0  0  0
  186.5330  177.8140  146.2100 C   0  0  0  0  0  3  0  0  0  0  0  0
  184.4640  178.3410  145.3380 C   0  0  0  0  0  3  0  0  0  0  0  0
  184.6960  178.8140  140.2980 C   0  0  0  0  0  0  0  0  0  0  0  0
  185.8530  178.4490  141.2310 C   0  0  0  0  0  2  0  0  0  0  0  0
  183.2020  178.9320  142.1450 C   0  0  0  0  0  0  0  0  0  0  0  0
  181.8980  179.1560  142.8540 C   0  0  0  0  0  3  0  0  0  0  0  0
  183.4870  179.0380  140.7470 N   0  0  0  0  0  0  0  0  0  0  0  0
  183.6390  178.6220  144.2580 C   0  0  0  0  0  0  0  0  0  0  0  0
  184.1320  178.6370  143.0070 C   0  0  0  0  0  0  0  0  0  0  0  0
  182.2500  178.9320  144.2660 N   0  0  0  0  0  0  0  0  0  0  0  0
  187.9470  177.4940  146.4220 C   0  0  0  0  0  3  0  0  0  0  0  0
  188.9340  177.3640  145.5430 C   0  0  0  0  0  0  0  0  0  0  0  0
  188.8080  177.5230  144.0950 C   0  0  0  0  0  3  0  0  0  0  0  0
  185.8320  178.0690  145.1040 C   0  0  0  0  0  0  0  0  0  0  0  0
  187.7400  177.8200  143.3650 C   0  0  0  0  0  3  0  0  0  0  0  0
  186.3450  178.0880  143.7590 C   0  0  0  0  0  0  0  0  0  0  0  0
  190.2250  177.0470  146.0490 N   0  0  0  0  0  0  0  0  0  0  0  0
  191.1760  176.7520  147.1600 C   0  0  0  0  0  2  0  0  0  0  0  0
  191.6770  176.7520  145.8750 C   0  0  0  0  0  2  0  0  0  0  0  0
  184.9710  178.9710  138.8410 C   0  0  0  0  0  2  0  0  0  0  0  0
  186.8070  176.1000  137.2050 N   0  0  0  0  0  2  0  0  0  0  0  0
  187.4380  178.2520  138.9220 C   0  0  0  0  0  3  0  0  0  0  0  0
  190.4590  175.6540  137.8380 N   0  0  0  0  0  0  0  0  0  0  0  0
  191.5070  174.7500  137.4650 C   0  0  0  0  0  0  0  0  0  0  0  0
  189.1210  175.4510  137.3400 C   0  0  0  0  0  3  0  0  0  0  0  0
  192.7970  174.9340  137.9510 O   0  0  0  0  0  1  0  0  0  0  0  0
  188.1410  176.2860  137.6850 C   0  0  0  0  0  0  0  0  0  0  0  0
  191.2720  173.7820  136.6930 O   0  0  0  0  0  0  0  0  0  0  0  0
  189.7930  177.6180  139.0790 C   0  0  0  0  0  3  0  0  0  0  0  0
  188.4260  177.4220  138.5790 C   0  0  0  0  0  0  0  0  0  0  0  0
  190.7510  176.7610  138.7130 C   0  0  0  0  0  3  0  0  0  0  0  0
  186.0610  178.0470  138.4160 C   0  0  0  0  0  0  0  0  0  0  0  0
  185.7790  177.0170  137.6050 C   0  0  0  0  0  3  0  0  0  0  0  0
  1 10  1  0  0  0  0
  1 17  2  0  0  0  0
  2 12  1  0  0  0  0
  4  8  2  0  0  0  0
  4  5  1  0  0  0  0
  5  1  1  0  0  0  0
  6  7  1  0  0  0  0
  6 10  2  0  0  0  0
  7 11  2  0  0  0  0
  8  6  1  0  0  0  0
  9 11  1  0  0  0  0
  9  3  2  0  0  0  0
 10  9  1  0  0  0  0
 13 18  1  0  0  0  0
 13 12  2  0  0  0  0
 14 13  1  0  0  0  0
 15  3  1  0  0  0  0
 15  2  2  0  0  0  0
 16 17  1  0  0  0  0
 16 14  2  0  0  0  0
 17 15  1  0  0  0  0
 18 19  1  0  0  0  0
 20 18  1  0  0  0  0
 20 19  1  0  0  0  0
 21  4  1  0  0  0  0
 22 34  1  0  0  0  0
 22 28  1  0  0  0  0
 24 32  1  0  0  0  0
 25 24  1  0  0  0  0
 25 27  1  0  0  0  0
 26 28  2  0  0  0  0
 26 24  1  0  0  0  0
 28 31  1  0  0  0  0
 29 25  2  0  0  0  0
 31 23  2  0  0  0  0
 31 30  1  0  0  0  0
 32 30  2  0  0  0  0
 33 21  1  0  0  0  0
 33 23  1  0  0  0  0
 34 33  2  0  0  0  0
M  END
>  <MODEL>
6

>  <REMARK>
 VINA RESULT:     -11.7      2.185      5.935
  Name = 
  3 active torsions:
  status: ('A' for Active; 'I' for Inactive)
    1  A    between atoms: N_3  and  C_25
    2  A    between atoms: C_8  and  C_18
    3  A    between atoms: C_18  and  C_30
                            x       y       z     vdW  Elec       q    Type
                         _______ _______ _______ _____ _____    ______ ____

>  <TORSDO>
F 3

$$$$
=
 OpenBabel10262423123D

 34 40  0  0  1  0  0  0  0  0999 V2000
  187.5410  177.8140  144.9440 C   0  0  0  0  0  0  0  0  0  0  0  0
  190.8660  176.7550  143.6480 C   0  0  0  0  0  3  0  0  0  0  0  0
  190.1350  177.1100  145.8060 C   0  0  0  0  0  3  0  0  0  0  0  0
  185.2830  178.5710  145.8530 C   0  0  0  0  0  0  0  0  0  0  0  0
  186.1140  178.2190  144.6170 C   0  0  0  0  0  3  0  0  0  0  0  0
  187.1320  178.0980  147.2710 C   0  0  0  0  0  0  0  0  0  0  0  0
  187.8840  177.9750  148.5640 C   0  0  0  0  0  2  0  0  0  0  0  0
  185.7790  178.5130  147.0630 N   0  0  0  0  0  0  0  0  0  0  0  0
  189.1390  177.4590  146.7080 C   0  0  0  0  0  0  0  0  0  0  0  0
  187.9100  177.7910  146.2740 C   0  0  0  0  0  0  0  0  0  0  0  0
  189.2220  177.5420  148.1260 N   0  0  0  0  0  0  0  0  0  0  0  0
  190.9960  176.6260  142.1940 C   0  0  0  0  0  3  0  0  0  0  0  0
  190.0980  176.8220  141.2360 C   0  0  0  0  0  0  0  0  0  0  0  0
  188.7100  177.2340  141.4430 C   0  0  0  0  0  3  0  0  0  0  0  0
  189.8380  177.1050  144.4230 C   0  0  0  0  0  0  0  0  0  0  0  0
  188.0640  177.4950  142.5720 C   0  0  0  0  0  3  0  0  0  0  0  0
  188.5180  177.4610  143.9740 C   0  0  0  0  0  0  0  0  0  0  0  0
  190.5190  176.6200  139.8920 N   0  0  0  0  0  0  0  0  0  0  0  0
  191.5590  176.5670  138.8230 C   0  0  0  0  0  2  0  0  0  0  0  0
  190.2580  176.2950  138.4590 C   0  0  0  0  0  2  0  0  0  0  0  0
  183.8820  179.0450  145.6640 C   0  0  0  0  0  2  0  0  0  0  0  0
  181.7540  178.5570  142.5770 N   0  0  0  0  0  0  0  0  0  0  0  0
  184.4980  178.8720  143.1740 C   0  0  0  0  0  3  0  0  0  0  0  0
  183.3940  178.3490  139.2300 N   0  0  0  0  0  0  0  0  0  0  0  0
  183.0120  178.1640  137.8610 C   0  0  0  0  0  0  0  0  0  0  0  0
  182.3880  178.3690  140.2620 C   0  0  0  0  0  3  0  0  0  0  0  0
  183.9770  178.1340  136.8610 O   0  0  0  0  0  0  0  0  0  0  0  0
  182.7360  178.5380  141.5380 C   0  0  0  0  0  0  0  0  0  0  0  0
  181.7980  178.0300  137.5480 O   0  0  0  0  0  1  0  0  0  0  0  0
  185.1710  178.6850  140.8320 C   0  0  0  0  0  3  0  0  0  0  0  0
  184.1570  178.7060  141.8940 C   0  0  2  0  0  3  0  0  0  0  0  0
  184.7860  178.5130  139.5640 C   0  0  0  0  0  3  0  0  0  0  0  0
  183.4680  178.8900  144.2400 C   0  0  0  0  0  0  0  0  0  0  0  0
  182.1710  178.7340  143.9390 C   0  0  0  0  0  3  0  0  0  0  0  0
  1 10  1  0  0  0  0
  2 15  1  0  0  0  0
  3  9  1  0  0  0  0
  4  8  2  0  0  0  0
  5  1  2  0  0  0  0
  5  4  1  0  0  0  0
  6  7  1  0  0  0  0
  8  6  1  0  0  0  0
  9 11  2  0  0  0  0
 10  9  1  0  0  0  0
 10  6  2  0  0  0  0
 11  7  1  0  0  0  0
 12  2  2  0  0  0  0
 13 14  2  0  0  0  0
 13 12  1  0  0  0  0
 14 16  1  0  0  0  0
 15  3  2  0  0  0  0
 16 17  2  0  0  0  0
 17 15  1  0  0  0  0
 17  1  1  0  0  0  0
 18 13  1  0  0  0  0
 19 18  1  0  0  0  0
 20 19  1  0  0  0  0
 20 18  1  0  0  0  0
 21  4  1  0  0  0  0
 22 34  2  0  0  0  0
 23 33  2  0  0  0  0
 24 32  1  0  0  0  0
 24 26  1  0  0  0  0
 25 24  1  0  0  0  0
 26 28  2  0  0  0  0
 27 25  2  0  0  0  0
 28 31  1  0  0  0  0
 28 22  1  0  0  0  0
 29 25  1  0  0  0  0
 31 30  1  1  0  0  0
 31 23  1  0  0  0  0
 32 30  2  0  0  0  0
 33 21  1  0  0  0  0
 34 33  1  0  0  0  0
M  END
>  <MODEL>
7

>  <REMARK>
 VINA RESULT:     -11.6      1.734      6.085
  Name = 
  3 active torsions:
  status: ('A' for Active; 'I' for Inactive)
    1  A    between atoms: N_3  and  C_25
    2  A    between atoms: C_8  and  C_18
    3  A    between atoms: C_18  and  C_30
                            x       y       z     vdW  Elec       q    Type
                         _______ _______ _______ _____ _____    ______ ____

>  <TORSDO>
F 3

$$$$
=
 OpenBabel10262423123D

 34 40  0  0  1  0  0  0  0  0999 V2000
  184.0370  178.7340  141.9300 C   0  0  0  0  0  0  0  0  0  0  0  0
  184.7240  178.3730  138.2900 C   0  0  0  0  0  3  0  0  0  0  0  0
  182.7330  178.5960  139.4310 C   0  0  0  0  0  3  0  0  0  0  0  0
  183.5410  178.9480  144.4210 C   0  0  0  0  0  0  0  0  0  0  0  0
  184.6100  178.8140  143.3350 C   0  0  0  0  0  2  0  0  0  0  0  0
  181.8220  178.9320  142.7770 C   0  0  0  0  0  0  0  0  0  0  0  0
  180.4180  178.9600  142.2470 C   0  0  0  0  0  3  0  0  0  0  0  0
  182.2640  178.9930  144.1360 N   0  0  0  0  0  0  0  0  0  0  0  0
  182.0230  178.7440  140.6140 C   0  0  0  0  0  0  0  0  0  0  0  0
  182.6660  178.8070  141.7940 C   0  0  0  0  0  0  0  0  0  0  0  0
  180.6130  178.8320  140.7930 N   0  0  0  0  0  0  0  0  0  0  0  0
  186.1290  178.2490  137.8930 C   0  0  0  0  0  3  0  0  0  0  0  0
  187.2300  178.2500  138.6360 C   0  0  0  0  0  0  0  0  0  0  0  0
  187.2710  178.3830  140.0920 C   0  0  0  0  0  3  0  0  0  0  0  0
  184.1440  178.5150  139.4820 C   0  0  0  0  0  0  0  0  0  0  0  0
  186.2760  178.5220  140.9590 C   0  0  0  0  0  3  0  0  0  0  0  0
  184.8180  178.5860  140.7520 C   0  0  0  0  0  0  0  0  0  0  0  0
  188.4750  178.1070  137.9630 N   0  0  0  0  0  0  0  0  0  0  0  0
  189.4310  178.4280  136.8630 C   0  0  0  0  0  2  0  0  0  0  0  0
  189.8370  177.5160  137.8140 C   0  0  0  0  0  2  0  0  0  0  0  0
  183.9680  178.9730  145.8500 C   0  0  0  0  0  2  0  0  0  0  0  0
  187.4400  178.4160  147.2360 N   0  0  0  0  0  0  0  0  0  0  0  0
  186.0590  177.8780  144.8310 C   0  0  0  0  0  3  0  0  0  0  0  0
  190.0250  176.7630  145.1090 N   0  0  0  0  0  0  0  0  0  0  0  0
  191.4030  176.3780  145.2040 C   0  0  0  0  0  0  0  0  0  0  0  0
  189.3790  177.4080  146.2240 C   0  0  0  0  0  3  0  0  0  0  0  0
  192.0350  175.7650  144.1280 O   0  0  0  0  0  0  0  0  0  0  0  0
  188.0980  177.7710  146.1430 C   0  0  0  0  0  0  0  0  0  0  0  0
  192.0540  176.5900  146.2620 O   0  0  0  0  0  1  0  0  0  0  0  0
  188.0100  176.8500  143.7780 C   0  0  0  0  0  3  0  0  0  0  0  0
  187.3400  177.5090  144.9070 C   0  0  2  0  0  3  0  0  0  0  0  0
  189.2950  176.5010  143.8950 C   0  0  0  0  0  3  0  0  0  0  0  0
  185.3900  178.5450  145.9740 C   0  0  0  0  0  0  0  0  0  0  0  0
  186.0630  178.7960  147.1060 C   0  0  0  0  0  3  0  0  0  0  0  0
  1  5  1  0  0  0  0
  2 15  1  0  0  0  0
  3 15  2  0  0  0  0
  3  9  1  0  0  0  0
  4 21  1  0  0  0  0
  5  4  1  0  0  0  0
  6  8  1  0  0  0  0
  7  6  2  0  0  0  0
  8  4  2  0  0  0  0
  9 11  2  0  0  0  0
  9 10  1  0  0  0  0
 10  1  2  0  0  0  0
 10  6  1  0  0  0  0
 11  7  1  0  0  0  0
 12  2  2  0  0  0  0
 12 13  1  0  0  0  0
 13 14  2  0  0  0  0
 14 16  1  0  0  0  0
 15 17  1  0  0  0  0
 17 16  2  0  0  0  0
 17  1  1  0  0  0  0
 18 13  1  0  0  0  0
 19 20  1  0  0  0  0
 19 18  1  0  0  0  0
 20 18  1  0  0  0  0
 21 33  1  0  0  0  0
 23 31  1  0  0  0  0
 23 33  2  0  0  0  0
 24 25  1  0  0  0  0
 24 26  1  0  0  0  0
 25 29  1  0  0  0  0
 27 25  2  0  0  0  0
 28 26  2  0  0  0  0
 28 22  1  0  0  0  0
 30 32  2  0  0  0  0
 31 30  1  6  0  0  0
 31 28  1  0  0  0  0
 32 24  1  0  0  0  0
 33 34  1  0  0  0  0
 34 22  2  0  0  0  0
M  END
>  <MODEL>
8

>  <REMARK>
 VINA RESULT:     -11.3      2.753      7.394
  Name = 
  3 active torsions:
  status: ('A' for Active; 'I' for Inactive)
    1  A    between atoms: N_3  and  C_25
    2  A    between atoms: C_8  and  C_18
    3  A    between atoms: C_18  and  C_30
                            x       y       z     vdW  Elec       q    Type
                         _______ _______ _______ _____ _____    ______ ____

>  <TORSDO>
F 3

$$$$
=
 OpenBabel10262423123D

 34 40  0  0  0  0  0  0  0  0999 V2000
  185.3000  178.4210  142.5650 C   0  0  0  0  0  0  0  0  0  0  0  0
  186.5290  177.8330  146.0290 C   0  0  0  0  0  3  0  0  0  0  0  0
  184.4220  178.3500  145.2470 C   0  0  0  0  0  3  0  0  0  0  0  0
  184.4430  178.8600  140.2050 C   0  0  0  0  0  0  0  0  0  0  0  0
  185.6400  178.4970  141.0860 C   0  0  0  0  0  2  0  0  0  0  0  0
  183.0260  178.9540  142.1120 C   0  0  0  0  0  0  0  0  0  0  0  0
  181.7500  179.1620  142.8750 C   0  0  0  0  0  3  0  0  0  0  0  0
  183.2520  179.0710  140.7050 N   0  0  0  0  0  0  0  0  0  0  0  0
  183.5510  178.6320  144.2040 C   0  0  0  0  0  0  0  0  0  0  0  0
  183.9920  178.6590  142.9330 C   0  0  0  0  0  0  0  0  0  0  0  0
  182.1610  178.9320  144.2710 N   0  0  0  0  0  0  0  0  0  0  0  0
  187.9530  177.5230  146.1800 C   0  0  0  0  0  3  0  0  0  0  0  0
  188.9030  177.4060  145.2600 C   0  0  0  0  0  0  0  0  0  0  0  0
  188.7170  177.5740  143.8200 C   0  0  0  0  0  3  0  0  0  0  0  0
  185.7820  178.0900  144.9550 C   0  0  0  0  0  0  0  0  0  0  0  0
  187.6180  177.8680  143.1370 C   0  0  0  0  0  3  0  0  0  0  0  0
  186.2380  178.1230  143.5900 C   0  0  0  0  0  0  0  0  0  0  0  0
  190.2170  177.0960  145.7110 N   0  0  0  0  0  0  0  0  0  0  0  0
  191.6740  176.8680  145.4870 C   0  0  0  0  0  2  0  0  0  0  0  0
  191.2000  176.7430  146.7760 C   0  0  0  0  0  2  0  0  0  0  0  0
  184.6570  179.0290  138.7390 C   0  0  0  0  0  2  0  0  0  0  0  0
  186.4560  176.2530  136.9080 N   0  0  0  0  0  2  0  0  0  0  0  0
  183.9070  176.6670  138.0550 C   0  0  0  0  0  3  0  0  0  0  0  0
  184.6700  173.0490  136.2160 N   0  0  0  0  0  0  0  0  0  0  0  0
  184.9330  171.7940  135.5750 C   0  0  0  0  0  0  0  0  0  0  0  0
  185.6940  174.0620  136.2620 C   0  0  0  0  0  3  0  0  0  0  0  0
  183.9460  170.8150  135.5180 O   0  0  0  0  0  1  0  0  0  0  0  0
  185.4560  175.2330  136.8550 C   0  0  0  0  0  0  0  0  0  0  0  0
  186.0600  171.5630  135.0600 O   0  0  0  0  0  0  0  0  0  0  0  0
  183.1050  174.4490  137.4120 C   0  0  0  0  0  3  0  0  0  0  0  0
  184.1390  175.4910  137.4660 C   0  0  0  0  0  0  0  0  0  0  0  0
  183.3790  173.2880  136.8100 C   0  0  0  0  0  3  0  0  0  0  0  0
  184.9550  177.7140  138.1030 C   0  0  0  0  0  0  0  0  0  0  0  0
  186.1570  177.5010  137.5490 C   0  0  0  0  0  3  0  0  0  0  0  0
  1 10  1  0  0  0  0
  1 17  2  0  0  0  0
  2 12  1  0  0  0  0
  4  8  2  0  0  0  0
  4  5  1  0  0  0  0
  5  1  1  0  0  0  0
  6  7  1  0  0  0  0
  6 10  2  0  0  0  0
  7 11  2  0  0  0  0
  8  6  1  0  0  0  0
  9 11  1  0  0  0  0
  9  3  2  0  0  0  0
 10  9  1  0  0  0  0
 13 18  1  0  0  0  0
 13 12  2  0  0  0  0
 14 13  1  0  0  0  0
 15  3  1  0  0  0  0
 15  2  2  0  0  0  0
 16 17  1  0  0  0  0
 16 14  2  0  0  0  0
 17 15  1  0  0  0  0
 18 20  1  0  0  0  0
 19 18  1  0  0  0  0
 19 20  1  0  0  0  0
 21  4  1  0  0  0  0
 22 34  1  0  0  0  0
 23 33  1  0  0  0  0
 24 26  1  0  0  0  0
 24 32  1  0  0  0  0
 25 24  1  0  0  0  0
 26 28  2  0  0  0  0
 27 25  1  0  0  0  0
 28 22  1  0  0  0  0
 28 31  1  0  0  0  0
 29 25  2  0  0  0  0
 30 31  1  0  0  0  0
 31 23  2  0  0  0  0
 32 30  2  0  0  0  0
 33 21  1  0  0  0  0
 34 33  2  0  0  0  0
M  END
>  <MODEL>
9

>  <REMARK>
 VINA RESULT:     -11.1      3.638      6.747
  Name = 
  3 active torsions:
  status: ('A' for Active; 'I' for Inactive)
    1  A    between atoms: N_3  and  C_25
    2  A    between atoms: C_8  and  C_18
    3  A    between atoms: C_18  and  C_30
                            x       y       z     vdW  Elec       q    Type
                         _______ _______ _______ _____ _____    ______ ____

>  <TORSDO>
F 3

$$$$
