=
 OpenBabel10262421463D

 30 33  0  0  1  0  0  0  0  0999 V2000
  181.2350  178.8110  141.9640 C   0  0  0  0  0  0  0  0  0  0  0  0
  180.4650  180.8870  140.8920 O   0  0  0  0  0  0  0  0  0  0  0  0
  180.9930  178.9240  139.4060 C   0  0  1  0  0  0  0  0  0  0  0  0
  182.7300  178.9290  142.0760 C   0  0  2  0  0  3  0  0  0  0  0  0
  180.5280  178.0390  142.7960 C   0  0  0  0  0  2  0  0  0  0  0  0
  181.9040  177.6690  139.3030 C   0  0  2  0  0  3  0  0  0  0  0  0
  179.8300  181.9820  138.8540 C   0  0  0  0  0  2  0  0  0  0  0  0
  179.3610  181.3630  140.1650 C   0  0  0  0  0  2  0  0  0  0  0  0
  179.8890  179.4100  137.1180 C   0  0  0  0  0  1  0  0  0  0  0  0
  181.0960  181.3120  138.3140 C   0  0  0  0  0  2  0  0  0  0  0  0
  180.5730  179.4720  140.7950 C   0  0  1  0  0  0  0  0  0  0  0  0
  183.4070  177.7440  141.4030 C   0  0  0  0  0  2  0  0  0  0  0  0
  181.2680  176.3340  139.6830 C   0  0  0  0  0  1  0  0  0  0  0  0
  183.3250  177.8180  139.8700 C   0  0  2  0  0  3  0  0  0  0  0  0
  180.9600  179.8000  138.1310 C   0  0  1  0  0  3  0  0  0  0  0  0
  179.5890  178.6440  139.9660 C   0  0  0  0  0  2  0  0  0  0  0  0
  184.0480  179.0350  139.2990 C   0  0  0  0  0  2  0  0  0  0  0  0
  185.2790  178.6200  138.4940 C   0  0  2  0  0  3  0  0  0  0  0  0
  185.0200  177.3690  137.6640 C   0  0  0  0  0  1  0  0  0  0  0  0
  186.4600  178.5370  139.2670 O   0  0  0  0  0  0  0  0  0  0  0  0
  187.4770  177.9480  138.4960 C   0  0  0  0  0  1  0  0  0  0  0  0
  183.2140  179.0840  143.5120 C   0  0  0  0  0  2  0  0  0  0  0  0
  184.7330  178.9940  143.5880 C   0  0  0  0  0  2  0  0  0  0  0  0
  185.2170  178.6250  144.9900 C   0  0  0  0  0  2  0  0  0  0  0  0
  187.4580  177.7350  146.3420 S   0  0  0  0  0  0  0  0  0  0  0  0
  186.2720  177.5200  144.9910 C   0  0  2  0  0  3  0  0  0  0  0  0
  188.0350  176.6730  143.9980 N   0  0  0  0  0  2  0  0  0  0  0  0
  186.9660  177.4820  143.7750 O   0  0  0  0  0  0  0  0  0  0  0  0
  189.5910  178.2640  144.8340 N   0  0  0  0  0  1  0  0  0  0  0  0
  188.7150  177.1610  145.1880 C   0  0  1  0  0  3  0  0  0  0  0  0
  1  4  1  0  0  0  0
  1  5  2  0  0  0  0
  3 16  1  6  0  0  0
  3 11  1  0  0  0  0
  4 22  1  1  0  0  0
  6  3  1  0  0  0  0
  6 13  1  1  0  0  0
  6 14  1  0  0  0  0
  7  8  1  0  0  0  0
  8  2  1  0  0  0  0
 10  7  1  0  0  0  0
 11 16  1  1  0  0  0
 11  2  1  0  0  0  0
 11  1  1  0  0  0  0
 12  4  1  0  0  0  0
 14 17  1  1  0  0  0
 14 12  1  0  0  0  0
 15  9  1  1  0  0  0
 15 10  1  0  0  0  0
 15  3  1  0  0  0  0
 18 19  1  1  0  0  0
 18 20  1  0  0  0  0
 18 17  1  0  0  0  0
 21 20  1  0  0  0  0
 22 23  1  0  0  0  0
 23 24  1  0  0  0  0
 26 24  1  6  0  0  0
 26 25  1  0  0  0  0
 27 30  1  0  0  0  0
 28 27  1  0  0  0  0
 28 26  1  0  0  0  0
 30 29  1  6  0  0  0
 30 25  1  0  0  0  0
M  END
>  <MODEL>
1

>  <REMARK>
 VINA RESULT:      -6.7      0.000      0.000
  Name = 
  7 active torsions:
  status: ('A' for Active; 'I' for Inactive)
    1  A    between atoms: C_4  and  C_27
    2  A    between atoms: C_7  and  C_10
    3  A    between atoms: C_7  and  O_15
    4  A    between atoms: C_8  and  C_13
    5  A    between atoms: C_10  and  C_25
    6  A    between atoms: C_13  and  C_30
    7  A    between atoms: C_27  and  C_30
                            x       y       z     vdW  Elec       q    Type
                         _______ _______ _______ _____ _____    ______ ____

>  <TORSDO>
F 7

$$$$
=
 OpenBabel10262421463D

 30 33  0  0  1  0  0  0  0  0999 V2000
  188.2360  175.8630  137.0680 C   0  0  0  0  0  0  0  0  0  0  0  0
  186.8300  173.9220  137.6250 O   0  0  0  0  0  0  0  0  0  0  0  0
  185.7730  175.8070  136.3320 C   0  0  1  0  0  0  0  0  0  0  0  0
  188.1250  176.8070  138.2340 C   0  0  2  0  0  3  0  0  0  0  0  0
  189.3060  175.8620  136.2660 C   0  0  0  0  0  2  0  0  0  0  0  0
  185.8400  177.3460  136.1240 C   0  0  2  0  0  3  0  0  0  0  0  0
  184.6960  172.8520  137.3880 C   0  0  0  0  0  2  0  0  0  0  0  0
  186.1620  172.8700  136.9750 C   0  0  0  0  0  2  0  0  0  0  0  0
  183.5970  174.8660  135.2990 C   0  0  0  0  0  1  0  0  0  0  0  0
  184.1640  174.2500  137.7080 C   0  0  0  0  0  2  0  0  0  0  0  0
  187.0440  175.0180  136.7440 C   0  0  1  0  0  0  0  0  0  0  0  0
  187.6570  178.1760  137.7630 C   0  0  0  0  0  2  0  0  0  0  0  0
  186.5920  177.8320  134.8880 C   0  0  0  0  0  1  0  0  0  0  0  0
  186.1710  178.1820  137.3710 C   0  0  2  0  0  3  0  0  0  0  0  0
  184.3470  175.2530  136.5680 C   0  0  1  0  0  3  0  0  0  0  0  0
  186.5580  174.9920  135.2930 C   0  0  0  0  0  2  0  0  0  0  0  0
  185.2500  177.8550  138.5440 C   0  0  0  0  0  2  0  0  0  0  0  0
  185.1920  179.0120  139.5420 C   0  0  2  0  0  3  0  0  0  0  0  0
  184.7190  178.5550  140.9160 C   0  0  0  0  0  1  0  0  0  0  0  0
  184.4870  180.1390  139.0600 O   0  0  0  0  0  0  0  0  0  0  0  0
  183.1200  179.8240  138.9640 C   0  0  0  0  0  1  0  0  0  0  0  0
  189.4140  176.9230  139.0380 C   0  0  0  0  0  2  0  0  0  0  0  0
  189.2750  177.9620  140.1430 C   0  0  0  0  0  2  0  0  0  0  0  0
  188.6990  177.3620  141.4250 C   0  0  0  0  0  2  0  0  0  0  0  0
  191.2970  177.5730  142.3430 S   0  0  0  0  0  0  0  0  0  0  0  0
  189.5210  177.6970  142.6680 C   0  0  2  0  0  3  0  0  0  0  0  0
  190.1610  177.0560  144.6660 N   0  0  0  0  0  2  0  0  0  0  0  0
  189.1910  176.8530  143.7360 O   0  0  0  0  0  0  0  0  0  0  0  0
  191.7820  175.4830  143.9250 N   0  0  0  0  0  1  0  0  0  0  0  0
  191.4470  176.8940  144.0040 C   0  0  1  0  0  3  0  0  0  0  0  0
  1  4  1  0  0  0  0
  3 16  1  6  0  0  0
  3 15  1  0  0  0  0
  3 11  1  0  0  0  0
  4 22  1  6  0  0  0
  5  1  2  0  0  0  0
  6 13  1  6  0  0  0
  6  3  1  0  0  0  0
  6 14  1  0  0  0  0
  7 10  1  0  0  0  0
  8  7  1  0  0  0  0
  8  2  1  0  0  0  0
 11 16  1  6  0  0  0
 11  1  1  0  0  0  0
 11  2  1  0  0  0  0
 12  4  1  0  0  0  0
 14 12  1  0  0  0  0
 14 17  1  1  0  0  0
 15  9  1  6  0  0  0
 15 10  1  0  0  0  0
 17 18  1  0  0  0  0
 18 19  1  1  0  0  0
 20 18  1  0  0  0  0
 21 20  1  0  0  0  0
 22 23  1  0  0  0  0
 23 24  1  0  0  0  0
 25 26  1  0  0  0  0
 25 30  1  0  0  0  0
 26 24  1  6  0  0  0
 26 28  1  0  0  0  0
 28 27  1  0  0  0  0
 30 29  1  6  0  0  0
 30 27  1  0  0  0  0
M  END
>  <MODEL>
2

>  <REMARK>
 VINA RESULT:      -6.2      3.102      6.587
  Name = 
  7 active torsions:
  status: ('A' for Active; 'I' for Inactive)
    1  A    between atoms: C_4  and  C_27
    2  A    between atoms: C_7  and  C_10
    3  A    between atoms: C_7  and  O_15
    4  A    between atoms: C_8  and  C_13
    5  A    between atoms: C_10  and  C_25
    6  A    between atoms: C_13  and  C_30
    7  A    between atoms: C_27  and  C_30
                            x       y       z     vdW  Elec       q    Type
                         _______ _______ _______ _____ _____    ______ ____

>  <TORSDO>
F 7

$$$$
=
 OpenBabel10262421463D

 30 33  0  0  1  0  0  0  0  0999 V2000
  183.8390  177.9580  139.3310 C   0  0  0  0  0  0  0  0  0  0  0  0
  183.2790  175.6800  138.5880 O   0  0  0  0  0  0  0  0  0  0  0  0
  181.5410  177.4770  138.2820 C   0  0  1  0  0  0  0  0  0  0  0  0
  183.4380  178.0340  140.7790 C   0  0  2  0  0  3  0  0  0  0  0  0
  184.7950  178.7440  138.8260 C   0  0  0  0  0  2  0  0  0  0  0  0
  181.0240  178.8060  138.9000 C   0  0  2  0  0  3  0  0  0  0  0  0
  181.6850  174.2560  137.4980 C   0  0  0  0  0  2  0  0  0  0  0  0
  183.0200  174.9830  137.3950 C   0  0  0  0  0  2  0  0  0  0  0  0
  179.8230  176.5620  136.5780 C   0  0  0  0  0  1  0  0  0  0  0  0
  180.6870  174.9930  138.3940 C   0  0  0  0  0  2  0  0  0  0  0  0
  183.0310  177.0720  138.4350 C   0  0  1  0  0  0  0  0  0  0  0  0
  182.4750  179.1910  141.0020 C   0  0  0  0  0  2  0  0  0  0  0  0
  181.4840  180.0940  138.2230 C   0  0  0  0  0  1  0  0  0  0  0  0
  181.0770  178.9040  140.4330 C   0  0  2  0  0  3  0  0  0  0  0  0
  180.4340  176.4410  137.9690 C   0  0  1  0  0  3  0  0  0  0  0  0
  182.5240  177.6590  137.1160 C   0  0  0  0  0  2  0  0  0  0  0  0
  180.3980  177.7160  141.1100 C   0  0  0  0  0  2  0  0  0  0  0  0
  179.3150  178.1800  142.0850 C   0  0  2  0  0  3  0  0  0  0  0  0
  179.0020  179.6620  141.9240 C   0  0  0  0  0  1  0  0  0  0  0  0
  179.5660  177.8090  143.4260 O   0  0  0  0  0  0  0  0  0  0  0  0
  179.3840  178.9280  144.2570 C   0  0  0  0  0  1  0  0  0  0  0  0
  184.6280  178.1310  141.7270 C   0  0  0  0  0  2  0  0  0  0  0  0
  184.1690  178.4270  143.1490 C   0  0  0  0  0  2  0  0  0  0  0  0
  185.3310  178.8340  144.0540 C   0  0  0  0  0  2  0  0  0  0  0  0
  186.9960  177.8850  146.0460 S   0  0  0  0  0  0  0  0  0  0  0  0
  186.2520  177.6680  144.4100 C   0  0  2  0  0  3  0  0  0  0  0  0
  188.1620  176.6600  144.0230 N   0  0  0  0  0  2  0  0  0  0  0  0
  187.2710  177.5190  143.4610 O   0  0  0  0  0  0  0  0  0  0  0  0
  189.5140  178.1960  145.2310 N   0  0  0  0  0  1  0  0  0  0  0  0
  188.4920  177.1700  145.3440 C   0  0  1  0  0  3  0  0  0  0  0  0
  1  4  1  0  0  0  0
  3 16  1  6  0  0  0
  3 11  1  0  0  0  0
  3  6  1  0  0  0  0
  4 12  1  0  0  0  0
  4 22  1  1  0  0  0
  5  1  2  0  0  0  0
  6 13  1  6  0  0  0
  6 14  1  0  0  0  0
  7 10  1  0  0  0  0
  8  7  1  0  0  0  0
  8  2  1  0  0  0  0
 11 16  1  6  0  0  0
 11  2  1  0  0  0  0
 11  1  1  0  0  0  0
 14 12  1  0  0  0  0
 14 17  1  1  0  0  0
 15  9  1  6  0  0  0
 15  3  1  0  0  0  0
 15 10  1  0  0  0  0
 17 18  1  0  0  0  0
 18 19  1  1  0  0  0
 18 20  1  0  0  0  0
 20 21  1  0  0  0  0
 22 23  1  0  0  0  0
 23 24  1  0  0  0  0
 26 24  1  6  0  0  0
 26 25  1  0  0  0  0
 27 30  1  0  0  0  0
 28 27  1  0  0  0  0
 28 26  1  0  0  0  0
 30 29  1  6  0  0  0
 30 25  1  0  0  0  0
M  END
>  <MODEL>
3

>  <REMARK>
 VINA RESULT:      -5.9      1.826      4.643
  Name = 
  7 active torsions:
  status: ('A' for Active; 'I' for Inactive)
    1  A    between atoms: C_4  and  C_27
    2  A    between atoms: C_7  and  C_10
    3  A    between atoms: C_7  and  O_15
    4  A    between atoms: C_8  and  C_13
    5  A    between atoms: C_10  and  C_25
    6  A    between atoms: C_13  and  C_30
    7  A    between atoms: C_27  and  C_30
                            x       y       z     vdW  Elec       q    Type
                         _______ _______ _______ _____ _____    ______ ____

>  <TORSDO>
F 7

$$$$
=
 OpenBabel10262421463D

 30 33  0  0  1  0  0  0  0  0999 V2000
  188.7500  176.6230  136.5740 C   0  0  0  0  0  0  0  0  0  0  0  0
  188.1640  174.2960  137.1180 O   0  0  0  0  0  0  0  0  0  0  0  0
  186.4180  175.7130  135.9850 C   0  0  1  0  0  0  0  0  0  0  0  0
  188.3980  177.4370  137.7890 C   0  0  2  0  0  3  0  0  0  0  0  0
  189.6900  177.0220  135.7100 C   0  0  0  0  0  2  0  0  0  0  0  0
  185.9230  177.1790  135.8480 C   0  0  2  0  0  3  0  0  0  0  0  0
  186.5340  172.5420  136.9570 C   0  0  0  0  0  2  0  0  0  0  0  0
  187.8650  173.0910  136.4590 C   0  0  0  0  0  2  0  0  0  0  0  0
  184.6450  174.0850  135.0390 C   0  0  0  0  0  1  0  0  0  0  0  0
  185.5670  173.6520  137.3770 C   0  0  0  0  0  2  0  0  0  0  0  0
  187.9120  175.4170  136.2810 C   0  0  1  0  0  0  0  0  0  0  0  0
  187.4440  178.5610  137.4140 C   0  0  0  0  0  2  0  0  0  0  0  0
  186.3610  177.9310  134.5940 C   0  0  0  0  0  1  0  0  0  0  0  0
  186.0270  178.0470  137.1130 C   0  0  2  0  0  3  0  0  0  0  0  0
  185.3010  174.6820  136.2780 C   0  0  1  0  0  3  0  0  0  0  0  0
  187.3620  175.2550  134.8620 C   0  0  0  0  0  2  0  0  0  0  0  0
  185.3700  177.3860  138.3210 C   0  0  0  0  0  2  0  0  0  0  0  0
  184.4180  178.3500  139.0300 C   0  0  2  0  0  3  0  0  0  0  0  0
  183.2700  178.7830  138.1270 C   0  0  0  0  0  1  0  0  0  0  0  0
  185.0730  179.4370  139.6520 O   0  0  0  0  0  0  0  0  0  0  0  0
  185.3110  179.1230  141.0020 C   0  0  0  0  0  1  0  0  0  0  0  0
  189.6180  177.9840  138.5190 C   0  0  0  0  0  2  0  0  0  0  0  0
  189.8710  177.2150  139.8090 C   0  0  0  0  0  2  0  0  0  0  0  0
  188.9820  177.7040  140.9530 C   0  0  0  0  0  2  0  0  0  0  0  0
  188.4380  176.2410  143.2330 S   0  0  0  0  0  0  0  0  0  0  0  0
  189.5370  177.3630  142.3340 C   0  0  2  0  0  3  0  0  0  0  0  0
  189.9550  178.0770  144.3660 N   0  0  0  0  0  2  0  0  0  0  0  0
  189.7370  178.5180  143.1000 O   0  0  0  0  0  0  0  0  0  0  0  0
  187.7150  177.9460  145.1500 N   0  0  0  0  0  1  0  0  0  0  0  0
  188.8660  177.1760  144.7120 C   0  0  1  0  0  3  0  0  0  0  0  0
  1  4  1  0  0  0  0
  3 16  1  6  0  0  0
  3 15  1  0  0  0  0
  3 11  1  0  0  0  0
  4 22  1  6  0  0  0
  5  1  2  0  0  0  0
  6 13  1  6  0  0  0
  6  3  1  0  0  0  0
  6 14  1  0  0  0  0
  7 10  1  0  0  0  0
  8  7  1  0  0  0  0
  8  2  1  0  0  0  0
 11 16  1  6  0  0  0
 11  1  1  0  0  0  0
 11  2  1  0  0  0  0
 12  4  1  0  0  0  0
 14 12  1  0  0  0  0
 14 17  1  1  0  0  0
 15  9  1  6  0  0  0
 15 10  1  0  0  0  0
 17 18  1  0  0  0  0
 18 19  1  6  0  0  0
 18 20  1  0  0  0  0
 20 21  1  0  0  0  0
 22 23  1  0  0  0  0
 23 24  1  0  0  0  0
 25 30  1  0  0  0  0
 26 24  1  6  0  0  0
 26 28  1  0  0  0  0
 26 25  1  0  0  0  0
 27 30  1  0  0  0  0
 28 27  1  0  0  0  0
 30 29  1  6  0  0  0
M  END
>  <MODEL>
4

>  <REMARK>
 VINA RESULT:      -5.9      3.124      6.977
  Name = 
  7 active torsions:
  status: ('A' for Active; 'I' for Inactive)
    1  A    between atoms: C_4  and  C_27
    2  A    between atoms: C_7  and  C_10
    3  A    between atoms: C_7  and  O_15
    4  A    between atoms: C_8  and  C_13
    5  A    between atoms: C_10  and  C_25
    6  A    between atoms: C_13  and  C_30
    7  A    between atoms: C_27  and  C_30
                            x       y       z     vdW  Elec       q    Type
                         _______ _______ _______ _____ _____    ______ ____

>  <TORSDO>
F 7

$$$$
=
 OpenBabel10262421463D

 30 33  0  0  1  0  0  0  0  0999 V2000
  182.3770  177.4650  137.3660 C   0  0  0  0  0  0  0  0  0  0  0  0
  180.7230  176.0200  138.4750 O   0  0  0  0  0  0  0  0  0  0  0  0
  181.0120  178.3620  139.3520 C   0  0  1  0  0  0  0  0  0  0  0  0
  183.6860  177.2090  138.0610 C   0  0  2  0  0  3  0  0  0  0  0  0
  182.3270  177.9020  136.1030 C   0  0  0  0  0  2  0  0  0  0  0  0
  182.0650  179.4940  139.5140 C   0  0  2  0  0  3  0  0  0  0  0  0
  179.0040  175.8410  140.1390 C   0  0  0  0  0  2  0  0  0  0  0  0
  179.3320  175.9380  138.6540 C   0  0  0  0  0  2  0  0  0  0  0  0
  178.9310  178.8730  140.7990 C   0  0  0  0  0  1  0  0  0  0  0  0
  180.0240  176.5790  141.0100 C   0  0  0  0  0  2  0  0  0  0  0  0
  181.1260  177.3510  138.1810 C   0  0  1  0  0  0  0  0  0  0  0  0
  184.2680  178.5130  138.5880 C   0  0  0  0  0  2  0  0  0  0  0  0
  182.0170  180.6200  138.4840 C   0  0  0  0  0  1  0  0  0  0  0  0
  183.5030  179.0400  139.8120 C   0  0  2  0  0  3  0  0  0  0  0  0
  180.2030  178.0500  140.6340 C   0  0  1  0  0  3  0  0  0  0  0  0
  180.1190  178.5010  138.1100 C   0  0  0  0  0  2  0  0  0  0  0  0
  183.5720  178.0910  141.0050 C   0  0  0  0  0  2  0  0  0  0  0  0
  184.0030  178.8260  142.2740 C   0  0  2  0  0  3  0  0  0  0  0  0
  185.2280  178.1860  142.9140 C   0  0  0  0  0  1  0  0  0  0  0  0
  182.9480  179.0390  143.1910 O   0  0  0  0  0  0  0  0  0  0  0  0
  183.4350  178.8870  144.5000 C   0  0  0  0  0  1  0  0  0  0  0  0
  184.6990  176.4800  137.1860 C   0  0  0  0  0  2  0  0  0  0  0  0
  185.6700  177.4620  136.5430 C   0  0  0  0  0  2  0  0  0  0  0  0
  187.0090  176.8060  136.2060 C   0  0  0  0  0  2  0  0  0  0  0  0
  188.8970  176.7830  138.2250 S   0  0  0  0  0  0  0  0  0  0  0  0
  188.2100  177.5770  136.7510 C   0  0  2  0  0  3  0  0  0  0  0  0
  188.9110  179.3830  137.7810 N   0  0  0  0  0  2  0  0  0  0  0  0
  187.8650  178.8980  137.0620 O   0  0  0  0  0  0  0  0  0  0  0  0
  188.2640  178.7010  139.9640 N   0  0  0  0  0  1  0  0  0  0  0  0
  189.1740  178.4440  138.8620 C   0  0  1  0  0  3  0  0  0  0  0  0
  1  4  1  0  0  0  0
  1 11  1  0  0  0  0
  2  8  1  0  0  0  0
  3 16  1  6  0  0  0
  3  6  1  0  0  0  0
  3 15  1  0  0  0  0
  4 22  1  6  0  0  0
  4 12  1  0  0  0  0
  5  1  2  0  0  0  0
  6 13  1  6  0  0  0
  6 14  1  0  0  0  0
  7 10  1  0  0  0  0
  8  7  1  0  0  0  0
 11 16  1  6  0  0  0
 11  2  1  0  0  0  0
 11  3  1  0  0  0  0
 12 14  1  0  0  0  0
 14 17  1  1  0  0  0
 15  9  1  6  0  0  0
 15 10  1  0  0  0  0
 17 18  1  0  0  0  0
 18 19  1  1  0  0  0
 18 20  1  0  0  0  0
 20 21  1  0  0  0  0
 23 22  1  0  0  0  0
 24 23  1  0  0  0  0
 25 30  1  0  0  0  0
 26 24  1  1  0  0  0
 26 28  1  0  0  0  0
 26 25  1  0  0  0  0
 27 30  1  0  0  0  0
 28 27  1  0  0  0  0
 30 29  1  1  0  0  0
M  END
>  <MODEL>
5

>  <REMARK>
 VINA RESULT:      -5.8      2.875      5.529
  Name = 
  7 active torsions:
  status: ('A' for Active; 'I' for Inactive)
    1  A    between atoms: C_4  and  C_27
    2  A    between atoms: C_7  and  C_10
    3  A    between atoms: C_7  and  O_15
    4  A    between atoms: C_8  and  C_13
    5  A    between atoms: C_10  and  C_25
    6  A    between atoms: C_13  and  C_30
    7  A    between atoms: C_27  and  C_30
                            x       y       z     vdW  Elec       q    Type
                         _______ _______ _______ _____ _____    ______ ____

>  <TORSDO>
F 7

$$$$
=
 OpenBabel10262421463D

 30 33  0  0  1  0  0  0  0  0999 V2000
  190.2280  176.8480  139.1540 C   0  0  0  0  0  0  0  0  0  0  0  0
  189.8120  174.7200  137.9920 O   0  0  0  0  0  0  0  0  0  0  0  0
  188.7810  176.8060  137.0290 C   0  0  1  0  0  0  0  0  0  0  0  0
  189.1440  176.9770  140.1890 C   0  0  2  0  0  3  0  0  0  0  0  0
  191.4110  177.4540  139.2990 C   0  0  0  0  0  2  0  0  0  0  0  0
  188.2200  178.1990  137.4300 C   0  0  2  0  0  3  0  0  0  0  0  0
  188.8370  173.6230  136.0940 C   0  0  0  0  0  2  0  0  0  0  0  0
  190.1170  174.0970  136.7700 C   0  0  0  0  0  2  0  0  0  0  0  0
  188.1000  176.2410  134.5990 C   0  0  0  0  0  1  0  0  0  0  0  0
  187.6390  174.5180  136.4220 C   0  0  0  0  0  2  0  0  0  0  0  0
  189.8900  176.1360  137.8820 C   0  0  1  0  0  0  0  0  0  0  0  0
  188.3910  178.2870  140.0060 C   0  0  0  0  0  2  0  0  0  0  0  0
  189.1520  179.3910  137.2270 C   0  0  0  0  0  1  0  0  0  0  0  0
  187.4750  178.2660  138.7720 C   0  0  2  0  0  3  0  0  0  0  0  0
  187.8640  175.9920  136.0840 C   0  0  1  0  0  3  0  0  0  0  0  0
  190.2440  176.8220  136.5610 C   0  0  0  0  0  2  0  0  0  0  0  0
  186.3740  177.2130  138.8730 C   0  0  0  0  0  2  0  0  0  0  0  0
  185.0130  177.7980  138.4970 C   0  0  2  0  0  3  0  0  0  0  0  0
  184.6100  177.4280  137.0750 C   0  0  0  0  0  1  0  0  0  0  0  0
  184.8970  179.1810  138.7640 O   0  0  0  0  0  0  0  0  0  0  0  0
  184.1970  179.3630  139.9690 C   0  0  0  0  0  1  0  0  0  0  0  0
  189.6580  176.8450  141.6170 C   0  0  0  0  0  2  0  0  0  0  0  0
  188.6850  177.4710  142.6070 C   0  0  0  0  0  2  0  0  0  0  0  0
  189.3960  178.0130  143.8470 C   0  0  0  0  0  2  0  0  0  0  0  0
  187.7490  177.4960  146.0050 S   0  0  0  0  0  0  0  0  0  0  0  0
  189.2480  177.1080  145.0690 C   0  0  2  0  0  3  0  0  0  0  0  0
  189.9880  176.6010  147.0700 N   0  0  0  0  0  2  0  0  0  0  0  0
  190.3570  177.2170  145.9170 O   0  0  0  0  0  0  0  0  0  0  0  0
  188.9510  178.4190  148.1970 N   0  0  0  0  0  1  0  0  0  0  0  0
  188.7170  177.1730  147.4880 C   0  0  1  0  0  3  0  0  0  0  0  0
  1  5  2  0  0  0  0
  1  4  1  0  0  0  0
  3 16  1  6  0  0  0
  3  6  1  0  0  0  0
  3 11  1  0  0  0  0
  4 22  1  1  0  0  0
  6 13  1  1  0  0  0
  6 14  1  0  0  0  0
  7 10  1  0  0  0  0
  7  8  1  0  0  0  0
  8  2  1  0  0  0  0
 11 16  1  6  0  0  0
 11  2  1  0  0  0  0
 11  1  1  0  0  0  0
 12  4  1  0  0  0  0
 14 17  1  1  0  0  0
 14 12  1  0  0  0  0
 15  9  1  6  0  0  0
 15 10  1  0  0  0  0
 15  3  1  0  0  0  0
 18 19  1  6  0  0  0
 18 20  1  0  0  0  0
 18 17  1  0  0  0  0
 20 21  1  0  0  0  0
 22 23  1  0  0  0  0
 23 24  1  0  0  0  0
 25 30  1  0  0  0  0
 26 24  1  6  0  0  0
 26 28  1  0  0  0  0
 26 25  1  0  0  0  0
 27 30  1  0  0  0  0
 28 27  1  0  0  0  0
 30 29  1  6  0  0  0
M  END
>  <MODEL>
6

>  <REMARK>
 VINA RESULT:      -5.7      3.463      7.376
  Name = 
  7 active torsions:
  status: ('A' for Active; 'I' for Inactive)
    1  A    between atoms: C_4  and  C_27
    2  A    between atoms: C_7  and  C_10
    3  A    between atoms: C_7  and  O_15
    4  A    between atoms: C_8  and  C_13
    5  A    between atoms: C_10  and  C_25
    6  A    between atoms: C_13  and  C_30
    7  A    between atoms: C_27  and  C_30
                            x       y       z     vdW  Elec       q    Type
                         _______ _______ _______ _____ _____    ______ ____

>  <TORSDO>
F 7

$$$$
=
 OpenBabel10262421463D

 30 33  0  0  1  0  0  0  0  0999 V2000
  181.8950  178.8880  139.3400 C   0  0  0  0  0  0  0  0  0  0  0  0
  183.9060  177.6630  138.6280 O   0  0  0  0  0  0  0  0  0  0  0  0
  181.6960  176.9650  137.6450 C   0  0  1  0  0  0  0  0  0  0  0  0
  181.3930  178.1850  140.5710 C   0  0  2  0  0  3  0  0  0  0  0  0
  181.6320  180.1790  139.1130 C   0  0  0  0  0  2  0  0  0  0  0  0
  180.1760  176.8940  137.9610 C   0  0  2  0  0  3  0  0  0  0  0  0
  184.8310  175.9780  137.1920 C   0  0  0  0  0  2  0  0  0  0  0  0
  184.6800  177.4680  137.4710 C   0  0  0  0  0  2  0  0  0  0  0  0
  182.2330  175.5450  135.5510 C   0  0  0  0  0  1  0  0  0  0  0  0
  183.6180  175.1720  137.6600 C   0  0  0  0  0  2  0  0  0  0  0  0
  182.5800  178.0580  138.2990 C   0  0  1  0  0  0  0  0  0  0  0  0
  179.9440  177.7600  140.3840 C   0  0  0  0  0  2  0  0  0  0  0  0
  179.3070  178.0040  137.3750 C   0  0  0  0  0  1  0  0  0  0  0  0
  179.8040  176.5740  139.4180 C   0  0  2  0  0  3  0  0  0  0  0  0
  182.2930  175.6580  137.0700 C   0  0  1  0  0  3  0  0  0  0  0  0
  182.1210  178.2070  136.8470 C   0  0  0  0  0  2  0  0  0  0  0  0
  180.5000  175.3140  139.9260 C   0  0  0  0  0  2  0  0  0  0  0  0
  179.5140  174.1540  140.0670 C   0  0  2  0  0  3  0  0  0  0  0  0
  179.3540  173.7160  141.5170 C   0  0  0  0  0  1  0  0  0  0  0  0
  179.7770  173.0780  139.1890 O   0  0  0  0  0  0  0  0  0  0  0  0
  179.1680  173.3320  137.9480 C   0  0  0  0  0  1  0  0  0  0  0  0
  181.5540  179.0100  141.8420 C   0  0  0  0  0  2  0  0  0  0  0  0
  182.8420  178.6460  142.5690 C   0  0  0  0  0  2  0  0  0  0  0  0
  182.6880  178.7300  144.0870 C   0  0  0  0  0  2  0  0  0  0  0  0
  185.4500  178.7400  143.9770 S   0  0  0  0  0  0  0  0  0  0  0  0
  183.9260  179.2850  144.7880 C   0  0  2  0  0  3  0  0  0  0  0  0
  185.2150  179.2080  146.5620 N   0  0  0  0  0  2  0  0  0  0  0  0
  183.9620  178.9010  146.1340 O   0  0  0  0  0  0  0  0  0  0  0  0
  186.3570  177.2120  145.9630 N   0  0  0  0  0  1  0  0  0  0  0  0
  186.1570  178.6100  145.6280 C   0  0  1  0  0  3  0  0  0  0  0  0
  1  4  1  0  0  0  0
  3 16  1  6  0  0  0
  3  6  1  0  0  0  0
  3 11  1  0  0  0  0
  4 22  1  1  0  0  0
  5  1  2  0  0  0  0
  6 13  1  1  0  0  0
  6 14  1  0  0  0  0
  7  8  1  0  0  0  0
  7 10  1  0  0  0  0
  8  2  1  0  0  0  0
 11 16  1  6  0  0  0
 11  2  1  0  0  0  0
 11  1  1  0  0  0  0
 12  4  1  0  0  0  0
 14 17  1  1  0  0  0
 14 12  1  0  0  0  0
 15  9  1  6  0  0  0
 15  3  1  0  0  0  0
 15 10  1  0  0  0  0
 17 18  1  0  0  0  0
 18 19  1  1  0  0  0
 20 18  1  0  0  0  0
 21 20  1  0  0  0  0
 22 23  1  0  0  0  0
 23 24  1  0  0  0  0
 25 26  1  0  0  0  0
 25 30  1  0  0  0  0
 26 24  1  6  0  0  0
 26 28  1  0  0  0  0
 28 27  1  0  0  0  0
 30 29  1  1  0  0  0
 30 27  1  0  0  0  0
M  END
>  <MODEL>
7

>  <REMARK>
 VINA RESULT:      -5.6      2.769      4.984
  Name = 
  7 active torsions:
  status: ('A' for Active; 'I' for Inactive)
    1  A    between atoms: C_4  and  C_27
    2  A    between atoms: C_7  and  C_10
    3  A    between atoms: C_7  and  O_15
    4  A    between atoms: C_8  and  C_13
    5  A    between atoms: C_10  and  C_25
    6  A    between atoms: C_13  and  C_30
    7  A    between atoms: C_27  and  C_30
                            x       y       z     vdW  Elec       q    Type
                         _______ _______ _______ _____ _____    ______ ____

>  <TORSDO>
F 7

$$$$
=
 OpenBabel10262421463D

 30 33  0  0  1  0  0  0  0  0999 V2000
  190.2080  176.1750  137.0950 C   0  0  0  0  0  0  0  0  0  0  0  0
  189.0820  174.0220  137.4800 O   0  0  0  0  0  0  0  0  0  0  0  0
  187.9030  175.7240  136.0480 C   0  0  1  0  0  0  0  0  0  0  0  0
  189.7930  177.0720  138.2290 C   0  0  2  0  0  3  0  0  0  0  0  0
  191.3570  176.3620  136.4370 C   0  0  0  0  0  2  0  0  0  0  0  0
  187.7410  177.2550  135.8380 C   0  0  2  0  0  3  0  0  0  0  0  0
  187.2030  172.6170  136.9780 C   0  0  0  0  0  2  0  0  0  0  0  0
  188.6870  172.8830  136.7580 C   0  0  0  0  0  2  0  0  0  0  0  0
  186.0630  174.4520  134.7500 C   0  0  0  0  0  1  0  0  0  0  0  0
  186.4100  173.9050  137.2170 C   0  0  0  0  0  2  0  0  0  0  0  0
  189.2230  175.1500  136.6260 C   0  0  1  0  0  0  0  0  0  0  0  0
  189.1700  178.3510  137.6910 C   0  0  0  0  0  2  0  0  0  0  0  0
  188.5540  177.8760  134.7050 C   0  0  0  0  0  1  0  0  0  0  0  0
  187.7660  178.1170  137.1110 C   0  0  2  0  0  3  0  0  0  0  0  0
  186.5700  174.9400  136.1020 C   0  0  1  0  0  3  0  0  0  0  0  0
  188.9390  175.0630  135.1250 C   0  0  0  0  0  2  0  0  0  0  0  0
  186.7690  177.6270  138.1580 C   0  0  0  0  0  2  0  0  0  0  0  0
  185.3910  178.2540  137.9460 C   0  0  2  0  0  3  0  0  0  0  0  0
  184.7970  178.7740  139.2490 C   0  0  0  0  0  1  0  0  0  0  0  0
  184.5000  177.4300  137.2220 O   0  0  0  0  0  0  0  0  0  0  0  0
  183.6560  176.7570  138.1220 C   0  0  0  0  0  1  0  0  0  0  0  0
  190.9310  177.3880  139.1910 C   0  0  0  0  0  2  0  0  0  0  0  0
  190.5720  176.9780  140.6140 C   0  0  0  0  0  2  0  0  0  0  0  0
  191.5810  177.5020  141.6350 C   0  0  0  0  0  2  0  0  0  0  0  0
  189.9170  176.0190  143.2680 S   0  0  0  0  0  0  0  0  0  0  0  0
  191.0970  177.3770  143.0780 C   0  0  2  0  0  3  0  0  0  0  0  0
  189.8750  178.2450  144.6800 N   0  0  0  0  0  2  0  0  0  0  0  0
  190.5010  178.5660  143.5170 O   0  0  0  0  0  0  0  0  0  0  0  0
  187.7800  177.5070  143.8340 N   0  0  0  0  0  1  0  0  0  0  0  0
  189.0380  177.0830  144.4230 C   0  0  1  0  0  3  0  0  0  0  0  0
  1  4  1  0  0  0  0
  3 16  1  6  0  0  0
  3 15  1  0  0  0  0
  3 11  1  0  0  0  0
  4 22  1  6  0  0  0
  5  1  2  0  0  0  0
  6 13  1  6  0  0  0
  6  3  1  0  0  0  0
  6 14  1  0  0  0  0
  7 10  1  0  0  0  0
  8  7  1  0  0  0  0
  8  2  1  0  0  0  0
 11 16  1  6  0  0  0
 11  1  1  0  0  0  0
 11  2  1  0  0  0  0
 12  4  1  0  0  0  0
 14 12  1  0  0  0  0
 14 17  1  1  0  0  0
 15  9  1  6  0  0  0
 15 10  1  0  0  0  0
 18 17  1  0  0  0  0
 18 19  1  1  0  0  0
 20 18  1  0  0  0  0
 20 21  1  0  0  0  0
 22 23  1  0  0  0  0
 23 24  1  0  0  0  0
 25 30  1  0  0  0  0
 26 24  1  6  0  0  0
 26 25  1  0  0  0  0
 26 28  1  0  0  0  0
 28 27  1  0  0  0  0
 30 29  1  6  0  0  0
 30 27  1  0  0  0  0
M  END
>  <MODEL>
8

>  <REMARK>
 VINA RESULT:      -5.5      3.789      7.744
  Name = 
  7 active torsions:
  status: ('A' for Active; 'I' for Inactive)
    1  A    between atoms: C_4  and  C_27
    2  A    between atoms: C_7  and  C_10
    3  A    between atoms: C_7  and  O_15
    4  A    between atoms: C_8  and  C_13
    5  A    between atoms: C_10  and  C_25
    6  A    between atoms: C_13  and  C_30
    7  A    between atoms: C_27  and  C_30
                            x       y       z     vdW  Elec       q    Type
                         _______ _______ _______ _____ _____    ______ ____

>  <TORSDO>
F 7

$$$$
=
 OpenBabel10262421463D

 30 33  0  0  1  0  0  0  0  0999 V2000
  190.1560  176.4800  138.5460 C   0  0  0  0  0  0  0  0  0  0  0  0
  188.8060  174.5190  137.9260 O   0  0  0  0  0  0  0  0  0  0  0  0
  188.0380  176.7770  137.1180 C   0  0  1  0  0  0  0  0  0  0  0  0
  189.6260  176.9490  139.8730 C   0  0  2  0  0  3  0  0  0  0  0  0
  191.4130  176.7290  138.1650 C   0  0  0  0  0  2  0  0  0  0  0  0
  188.0430  178.2840  137.4930 C   0  0  2  0  0  3  0  0  0  0  0  0
  186.9320  173.6780  136.6860 C   0  0  0  0  0  2  0  0  0  0  0  0
  188.4480  173.7920  136.7780 C   0  0  0  0  0  2  0  0  0  0  0  0
  186.3520  176.3430  135.2050 C   0  0  0  0  0  1  0  0  0  0  0  0
  186.2190  174.8880  137.2950 C   0  0  0  0  0  2  0  0  0  0  0  0
  189.1850  175.8490  137.5960 C   0  0  1  0  0  0  0  0  0  0  0  0
  189.2140  178.4110  139.7920 C   0  0  0  0  0  2  0  0  0  0  0  0
  189.0890  179.1540  136.8000 C   0  0  0  0  0  1  0  0  0  0  0  0
  187.9180  178.6080  138.9910 C   0  0  2  0  0  3  0  0  0  0  0  0
  186.6550  176.2250  136.6940 C   0  0  1  0  0  3  0  0  0  0  0  0
  189.1600  176.3590  136.1540 C   0  0  0  0  0  2  0  0  0  0  0  0
  186.7170  177.9160  139.6310 C   0  0  0  0  0  2  0  0  0  0  0  0
  185.9400  178.8760  140.5320 C   0  0  2  0  0  3  0  0  0  0  0  0
  185.4590  178.1940  141.8070 C   0  0  0  0  0  1  0  0  0  0  0  0
  184.9150  179.5790  139.8600 O   0  0  0  0  0  0  0  0  0  0  0  0
  184.2660  178.7090  138.9660 C   0  0  0  0  0  1  0  0  0  0  0  0
  190.6020  176.7250  141.0220 C   0  0  0  0  0  2  0  0  0  0  0  0
  189.8770  176.2240  142.2640 C   0  0  0  0  0  2  0  0  0  0  0  0
  189.0610  177.3280  142.9370 C   0  0  0  0  0  2  0  0  0  0  0  0
  191.4180  177.8600  144.2790 S   0  0  0  0  0  0  0  0  0  0  0  0
  189.6120  177.7360  144.3020 C   0  0  2  0  0  3  0  0  0  0  0  0
  189.9940  177.1320  146.3760 N   0  0  0  0  0  2  0  0  0  0  0  0
  189.2290  176.8260  145.2950 O   0  0  0  0  0  0  0  0  0  0  0  0
  191.9150  175.8120  145.9110 N   0  0  0  0  0  1  0  0  0  0  0  0
  191.3810  177.1620  145.9390 C   0  0  1  0  0  3  0  0  0  0  0  0
  1  4  1  0  0  0  0
  3 16  1  6  0  0  0
  3  6  1  0  0  0  0
  3 11  1  0  0  0  0
  4 22  1  1  0  0  0
  5  1  2  0  0  0  0
  6 13  1  1  0  0  0
  6 14  1  0  0  0  0
  7  8  1  0  0  0  0
  7 10  1  0  0  0  0
  8  2  1  0  0  0  0
 11 16  1  6  0  0  0
 11  2  1  0  0  0  0
 11  1  1  0  0  0  0
 12  4  1  0  0  0  0
 14 17  1  1  0  0  0
 14 12  1  0  0  0  0
 15  9  1  6  0  0  0
 15  3  1  0  0  0  0
 15 10  1  0  0  0  0
 17 18  1  0  0  0  0
 18 19  1  1  0  0  0
 20 18  1  0  0  0  0
 21 20  1  0  0  0  0
 22 23  1  0  0  0  0
 23 24  1  0  0  0  0
 25 26  1  0  0  0  0
 25 30  1  0  0  0  0
 26 24  1  6  0  0  0
 26 28  1  0  0  0  0
 28 27  1  0  0  0  0
 30 29  1  6  0  0  0
 30 27  1  0  0  0  0
M  END
>  <MODEL>
9

>  <REMARK>
 VINA RESULT:      -5.5      3.459      7.175
  Name = 
  7 active torsions:
  status: ('A' for Active; 'I' for Inactive)
    1  A    between atoms: C_4  and  C_27
    2  A    between atoms: C_7  and  C_10
    3  A    between atoms: C_7  and  O_15
    4  A    between atoms: C_8  and  C_13
    5  A    between atoms: C_10  and  C_25
    6  A    between atoms: C_13  and  C_30
    7  A    between atoms: C_27  and  C_30
                            x       y       z     vdW  Elec       q    Type
                         _______ _______ _______ _____ _____    ______ ____

>  <TORSDO>
F 7

$$$$
