=
 OpenBabel10262419173D

 34 37  0  0  1  0  0  0  0  0999 V2000
  192.0130  174.5660  137.8560 C   0  0  1  0  0  3  0  0  0  0  0  0
  192.8460  176.8900  138.0390 C   0  0  1  0  0  3  0  0  0  0  0  0
  190.3240  176.3820  138.4470 C   0  0  1  0  0  3  0  0  0  0  0  0
  193.4900  174.6630  137.8330 C   0  0  0  0  0  0  0  0  0  0  0  0
  193.9750  175.9910  137.8820 N   0  0  0  0  0  2  0  0  0  0  0  0
  191.8090  177.2840  140.2770 C   0  0  0  0  0  3  0  0  0  0  0  0
  191.6070  176.0300  137.6900 C   0  0  2  0  0  3  0  0  0  0  0  0
  194.2590  173.6660  137.8060 O   0  0  0  0  0  0  0  0  0  0  0  0
  192.8490  177.4020  139.4550 C   0  0  0  0  0  3  0  0  0  0  0  0
  190.5860  176.6720  139.8550 N   0  0  0  0  0  0  0  0  0  0  0  0
  188.4790  177.1390  136.9380 C   0  0  1  0  0  0  0  0  0  0  0  0
  189.6180  177.5670  137.7950 C   0  0  2  0  0  3  0  0  0  0  0  0
  189.7270  177.4880  136.3910 O   0  0  0  0  0  0  0  0  0  0  0  0
  188.2320  175.7740  136.7710 O   0  0  0  0  0  1  0  0  0  0  0  0
  187.7470  179.4350  136.6810 F   0  0  0  0  0  0  0  0  0  0  0  0
  187.3680  178.1100  136.5380 C   0  0  2  0  0  3  0  0  0  0  0  0
  186.0130  177.7760  137.1790 C   0  0  0  0  0  2  0  0  0  0  0  0
  186.3840  178.4810  139.4540 O   0  0  0  0  0  1  0  0  0  0  0  0
  184.1160  178.5100  138.6910 C   0  0  0  0  0  1  0  0  0  0  0  0
  185.5800  178.6870  138.3320 C   0  0  2  0  0  3  0  0  0  0  0  0
  191.5170  173.7460  136.6750 C   0  0  0  0  0  2  0  0  0  0  0  0
  191.5640  174.5680  135.4020 C   0  0  0  0  0  1  0  0  0  0  0  0
  189.5340  176.4070  140.8260 C   0  0  0  0  0  2  0  0  0  0  0  0
  190.0710  176.5400  142.2450 C   0  0  2  0  0  3  0  0  0  0  0  0
  190.4450  175.2850  142.7230 O   0  0  0  0  0  1  0  0  0  0  0  0
  189.0060  177.1280  143.1500 C   0  0  0  0  0  2  0  0  0  0  0  0
  189.2180  176.6950  144.4610 O   0  0  0  0  0  0  0  0  0  0  0  0
  189.2500  177.8630  145.2310 C   0  0  2  0  0  3  0  0  0  0  0  0
  189.8820  177.6000  146.5900 C   0  0  1  0  0  3  0  0  0  0  0  0
  188.6470  176.7900  147.6460 S   0  0  0  0  0  0  0  0  0  0  0  0
  187.2770  177.3910  146.6060 C   0  0  0  0  0  2  0  0  0  0  0  0
  187.8340  178.3060  145.5290 C   0  0  0  0  0  2  0  0  0  0  0  0
  191.9190  176.9610  147.6670 O   0  0  0  0  0  1  0  0  0  0  0  0
  191.1570  176.7710  146.5130 C   0  0  0  0  0  2  0  0  0  0  0  0
  1 21  1  6  0  0  0
  2  9  1  1  0  0  0
  3 10  1  1  0  0  0
  4  1  1  0  0  0  0
  4  5  1  0  0  0  0
  5  2  1  0  0  0  0
  7  1  1  0  0  0  0
  7  2  1  0  0  0  0
  7  3  1  0  0  0  0
  8  4  2  0  0  0  0
  9  6  2  0  0  0  0
 10  6  1  0  0  0  0
 10 23  1  0  0  0  0
 11 12  1  0  0  0  0
 12  3  1  0  0  0  0
 13 11  1  0  0  0  0
 13 12  1  0  0  0  0
 14 11  1  0  0  0  0
 16 15  1  0  0  0  0
 16 11  1  0  0  0  0
 16 17  1  0  0  0  0
 17 20  1  0  0  0  0
 20 19  1  0  0  0  0
 20 18  1  0  0  0  0
 22 21  1  0  0  0  0
 23 24  1  0  0  0  0
 24 25  1  0  0  0  0
 24 26  1  0  0  0  0
 26 27  1  0  0  0  0
 27 28  1  0  0  0  0
 28 32  1  0  0  0  0
 28 29  1  0  0  0  0
 29 30  1  0  0  0  0
 31 30  1  0  0  0  0
 32 31  1  0  0  0  0
 34 29  1  0  0  0  0
 34 33  1  0  0  0  0
M  END
>  <MODEL>
1

>  <REMARK>
 VINA RESULT:      -6.3      0.000      0.000
  Name = 
  11 active torsions:
  status: ('A' for Active; 'I' for Inactive)
    1  A    between atoms: C_1  and  C_24
    2  A    between atoms: O_3  and  C_13
    3  A    between atoms: O_3  and  C_17
    4  A    between atoms: C_4  and  C_21
    5  A    between atoms: C_5  and  C_18
    6  A    between atoms: C_5  and  N_31
    7  A    between atoms: C_7  and  C_23
    8  A    between atoms: C_12  and  C_23
    9  A    between atoms: C_12  and  C_27
   10  A    between atoms: C_14  and  C_34
   11  A    between atoms: C_17  and  C_18
                            x       y       z     vdW  Elec       q    Type
                         _______ _______ _______ _____ _____    ______ ____

>  <TORSDO>
F 11

$$$$
=
 OpenBabel10262419173D

 34 37  0  0  1  0  0  0  0  0999 V2000
  191.9040  174.4900  137.8570 C   0  0  1  0  0  3  0  0  0  0  0  0
  192.8220  176.7880  137.8480 C   0  0  1  0  0  3  0  0  0  0  0  0
  190.3850  176.3700  138.6680 C   0  0  1  0  0  3  0  0  0  0  0  0
  193.3600  174.5380  137.5950 C   0  0  0  0  0  0  0  0  0  0  0  0
  193.8840  175.8500  137.5330 N   0  0  0  0  0  2  0  0  0  0  0  0
  192.1710  177.2580  140.2140 C   0  0  0  0  0  3  0  0  0  0  0  0
  191.5190  175.9620  137.7230 C   0  0  2  0  0  3  0  0  0  0  0  0
  194.0850  173.5170  137.4680 O   0  0  0  0  0  0  0  0  0  0  0  0
  193.0680  177.3260  139.2320 C   0  0  0  0  0  3  0  0  0  0  0  0
  190.8790  176.6780  140.0080 N   0  0  0  0  0  0  0  0  0  0  0  0
  188.2860  177.1730  137.5700 C   0  0  1  0  0  0  0  0  0  0  0  0
  189.6180  177.5640  138.1100 C   0  0  2  0  0  3  0  0  0  0  0  0
  189.3910  177.3960  136.7270 O   0  0  0  0  0  0  0  0  0  0  0  0
  187.9270  175.8230  137.5650 O   0  0  0  0  0  1  0  0  0  0  0  0
  187.6430  179.3930  136.8400 F   0  0  0  0  0  0  0  0  0  0  0  0
  187.1730  178.1990  137.3650 C   0  0  2  0  0  3  0  0  0  0  0  0
  186.2740  178.3710  138.5980 C   0  0  0  0  0  2  0  0  0  0  0  0
  184.5030  179.9200  139.1200 O   0  0  0  0  0  1  0  0  0  0  0  0
  183.8280  177.7120  138.4950 C   0  0  0  0  0  1  0  0  0  0  0  0
  184.8390  178.8300  138.3180 C   0  0  2  0  0  3  0  0  0  0  0  0
  191.2000  173.6630  136.7910 C   0  0  0  0  0  2  0  0  0  0  0  0
  190.9440  174.5020  135.5550 C   0  0  0  0  0  1  0  0  0  0  0  0
  189.9910  176.4660  141.1420 C   0  0  0  0  0  2  0  0  0  0  0  0
  189.5160  177.7980  141.7050 C   0  0  2  0  0  3  0  0  0  0  0  0
  190.0530  177.9860  142.9780 O   0  0  0  0  0  1  0  0  0  0  0  0
  188.0020  177.8160  141.7890 C   0  0  0  0  0  2  0  0  0  0  0  0
  187.6090  178.3680  143.0110 O   0  0  0  0  0  0  0  0  0  0  0  0
  186.7290  177.4340  143.5670 C   0  0  2  0  0  3  0  0  0  0  0  0
  185.4200  178.0980  143.9750 C   0  0  1  0  0  3  0  0  0  0  0  0
  185.6890  178.9660  145.5470 S   0  0  0  0  0  0  0  0  0  0  0  0
  187.1580  177.9560  145.9220 C   0  0  0  0  0  2  0  0  0  0  0  0
  187.3170  176.8920  144.8510 C   0  0  0  0  0  2  0  0  0  0  0  0
  184.2050  178.3200  141.9290 O   0  0  0  0  0  1  0  0  0  0  0  0
  184.8690  179.0460  142.9190 C   0  0  0  0  0  2  0  0  0  0  0  0
  1 21  1  6  0  0  0
  2  9  1  1  0  0  0
  3 10  1  1  0  0  0
  4  1  1  0  0  0  0
  5  4  1  0  0  0  0
  5  2  1  0  0  0  0
  7  2  1  0  0  0  0
  7  1  1  0  0  0  0
  7  3  1  0  0  0  0
  8  4  2  0  0  0  0
  9  6  2  0  0  0  0
 10  6  1  0  0  0  0
 10 23  1  0  0  0  0
 11 12  1  0  0  0  0
 12  3  1  0  0  0  0
 13 11  1  0  0  0  0
 13 12  1  0  0  0  0
 14 11  1  0  0  0  0
 15 16  1  0  0  0  0
 16 11  1  0  0  0  0
 16 17  1  0  0  0  0
 20 19  1  0  0  0  0
 20 17  1  0  0  0  0
 20 18  1  0  0  0  0
 22 21  1  0  0  0  0
 23 24  1  0  0  0  0
 24 26  1  0  0  0  0
 24 25  1  0  0  0  0
 26 27  1  0  0  0  0
 27 28  1  0  0  0  0
 28 29  1  0  0  0  0
 28 32  1  0  0  0  0
 29 30  1  0  0  0  0
 30 31  1  0  0  0  0
 32 31  1  0  0  0  0
 33 34  1  0  0  0  0
 34 29  1  0  0  0  0
M  END
>  <MODEL>
2

>  <REMARK>
 VINA RESULT:      -6.2      1.757      2.677
  Name = 
  11 active torsions:
  status: ('A' for Active; 'I' for Inactive)
    1  A    between atoms: C_1  and  C_24
    2  A    between atoms: O_3  and  C_13
    3  A    between atoms: O_3  and  C_17
    4  A    between atoms: C_4  and  C_21
    5  A    between atoms: C_5  and  C_18
    6  A    between atoms: C_5  and  N_31
    7  A    between atoms: C_7  and  C_23
    8  A    between atoms: C_12  and  C_23
    9  A    between atoms: C_12  and  C_27
   10  A    between atoms: C_14  and  C_34
   11  A    between atoms: C_17  and  C_18
                            x       y       z     vdW  Elec       q    Type
                         _______ _______ _______ _____ _____    ______ ____

>  <TORSDO>
F 11

$$$$
=
 OpenBabel10262419173D

 34 37  0  0  1  0  0  0  0  0999 V2000
  192.4930  177.2520  138.7720 C   0  0  1  0  0  3  0  0  0  0  0  0
  191.0430  175.2660  138.4890 C   0  0  1  0  0  3  0  0  0  0  0  0
  190.3490  177.1510  140.1470 C   0  0  1  0  0  3  0  0  0  0  0  0
  192.8920  176.3920  137.6350 C   0  0  0  0  0  0  0  0  0  0  0  0
  192.1030  175.2260  137.4990 N   0  0  0  0  0  2  0  0  0  0  0  0
  188.9680  176.6030  138.1070 C   0  0  0  0  0  3  0  0  0  0  0  0
  191.4840  176.3590  139.4920 C   0  0  2  0  0  3  0  0  0  0  0  0
  193.8230  176.6730  136.8340 O   0  0  0  0  0  0  0  0  0  0  0  0
  189.7520  175.5790  137.7800 C   0  0  0  0  0  3  0  0  0  0  0  0
  189.2930  177.4790  139.1920 N   0  0  0  0  0  0  0  0  0  0  0  0
  190.1330  176.9900  142.6340 C   0  0  1  0  0  0  0  0  0  0  0  0
  189.7620  176.3820  141.3260 C   0  0  2  0  0  3  0  0  0  0  0  0
  190.7960  175.8550  142.1290 O   0  0  0  0  0  0  0  0  0  0  0  0
  190.9890  178.0950  142.6480 O   0  0  0  0  0  1  0  0  0  0  0  0
  188.1850  175.9750  143.6580 F   0  0  0  0  0  0  0  0  0  0  0  0
  189.3440  176.6930  143.9080 C   0  0  2  0  0  3  0  0  0  0  0  0
  189.1320  177.9320  144.7910 C   0  0  0  0  0  2  0  0  0  0  0  0
  190.0890  176.6430  146.5880 O   0  0  0  0  0  1  0  0  0  0  0  0
  187.8620  177.4470  146.9300 C   0  0  0  0  0  1  0  0  0  0  0  0
  189.2200  177.6960  146.3020 C   0  0  2  0  0  3  0  0  0  0  0  0
  193.6880  177.5290  139.6720 C   0  0  0  0  0  2  0  0  0  0  0  0
  194.3370  176.2290  140.1030 C   0  0  0  0  0  1  0  0  0  0  0  0
  188.5060  178.6840  139.4120 C   0  0  0  0  0  2  0  0  0  0  0  0
  187.1640  178.3370  140.0410 C   0  0  2  0  0  3  0  0  0  0  0  0
  186.1340  178.8960  139.2840 O   0  0  0  0  0  1  0  0  0  0  0  0
  187.0980  178.8770  141.4560 C   0  0  0  0  0  2  0  0  0  0  0  0
  185.7830  179.2350  141.7590 O   0  0  0  0  0  0  0  0  0  0  0  0
  185.2500  178.1320  142.4360 C   0  0  2  0  0  3  0  0  0  0  0  0
  183.7320  178.2190  142.5040 C   0  0  1  0  0  3  0  0  0  0  0  0
  183.2860  179.3940  143.8140 S   0  0  0  0  0  0  0  0  0  0  0  0
  184.9180  179.2220  144.6050 C   0  0  0  0  0  2  0  0  0  0  0  0
  185.7150  178.1550  143.8760 C   0  0  0  0  0  2  0  0  0  0  0  0
  181.7280  178.8600  141.3680 O   0  0  0  0  0  1  0  0  0  0  0  0
  183.0890  178.6120  141.1810 C   0  0  0  0  0  2  0  0  0  0  0  0
  1  7  1  0  0  0  0
  1 21  1  1  0  0  0
  2  9  1  6  0  0  0
  2  7  1  0  0  0  0
  3 10  1  6  0  0  0
  3 12  1  0  0  0  0
  4  1  1  0  0  0  0
  5  4  1  0  0  0  0
  5  2  1  0  0  0  0
  6 10  1  0  0  0  0
  7  3  1  0  0  0  0
  8  4  2  0  0  0  0
  9  6  2  0  0  0  0
 10 23  1  0  0  0  0
 11 14  1  0  0  0  0
 11 16  1  0  0  0  0
 12 13  1  0  0  0  0
 12 11  1  0  0  0  0
 13 11  1  0  0  0  0
 15 16  1  0  0  0  0
 16 17  1  0  0  0  0
 17 20  1  0  0  0  0
 20 18  1  0  0  0  0
 20 19  1  0  0  0  0
 21 22  1  0  0  0  0
 23 24  1  0  0  0  0
 24 26  1  0  0  0  0
 25 24  1  0  0  0  0
 26 27  1  0  0  0  0
 27 28  1  0  0  0  0
 28 29  1  0  0  0  0
 28 32  1  0  0  0  0
 29 30  1  0  0  0  0
 30 31  1  0  0  0  0
 32 31  1  0  0  0  0
 34 33  1  0  0  0  0
 34 29  1  0  0  0  0
M  END
>  <MODEL>
3

>  <REMARK>
 VINA RESULT:      -5.9      2.793      5.888
  Name = 
  11 active torsions:
  status: ('A' for Active; 'I' for Inactive)
    1  A    between atoms: C_1  and  C_24
    2  A    between atoms: O_3  and  C_13
    3  A    between atoms: O_3  and  C_17
    4  A    between atoms: C_4  and  C_21
    5  A    between atoms: C_5  and  C_18
    6  A    between atoms: C_5  and  N_31
    7  A    between atoms: C_7  and  C_23
    8  A    between atoms: C_12  and  C_23
    9  A    between atoms: C_12  and  C_27
   10  A    between atoms: C_14  and  C_34
   11  A    between atoms: C_17  and  C_18
                            x       y       z     vdW  Elec       q    Type
                         _______ _______ _______ _____ _____    ______ ____

>  <TORSDO>
F 11

$$$$
=
 OpenBabel10262419173D

 34 37  0  0  1  0  0  0  0  0999 V2000
  180.3040  177.2270  140.6540 C   0  0  1  0  0  3  0  0  0  0  0  0
  181.2020  176.6520  138.4210 C   0  0  1  0  0  3  0  0  0  0  0  0
  181.8680  178.9060  139.5440 C   0  0  1  0  0  3  0  0  0  0  0  0
  180.0310  175.8280  140.2550 C   0  0  0  0  0  0  0  0  0  0  0  0
  180.4920  175.5060  138.9570 N   0  0  0  0  0  2  0  0  0  0  0  0
  183.5750  177.1140  139.0490 C   0  0  0  0  0  3  0  0  0  0  0  0
  180.7980  177.8300  139.3400 C   0  0  2  0  0  3  0  0  0  0  0  0
  179.4710  174.9810  141.0000 O   0  0  0  0  0  0  0  0  0  0  0  0
  182.6750  176.3440  138.4420 C   0  0  0  0  0  3  0  0  0  0  0  0
  183.1980  178.3250  139.7140 N   0  0  0  0  0  0  0  0  0  0  0  0
  181.1130  181.1310  138.6870 C   0  0  1  0  0  0  0  0  0  0  0  0
  181.8760  179.8900  138.3780 C   0  0  2  0  0  3  0  0  0  0  0  0
  180.5620  180.0980  137.9060 O   0  0  0  0  0  0  0  0  0  0  0  0
  180.4490  181.2310  139.9120 O   0  0  0  0  0  1  0  0  0  0  0  0
  182.4320  183.1330  138.3270 F   0  0  0  0  0  0  0  0  0  0  0  0
  181.3260  182.4200  137.8930 C   0  0  2  0  0  3  0  0  0  0  0  0
  180.0500  183.2660  137.7620 C   0  0  0  0  0  2  0  0  0  0  0  0
  181.1260  184.1150  135.7800 O   0  0  0  0  0  1  0  0  0  0  0  0
  179.3680  185.4590  136.6900 C   0  0  0  0  0  1  0  0  0  0  0  0
  179.9090  184.0600  136.4600 C   0  0  2  0  0  3  0  0  0  0  0  0
  179.0200  177.9110  141.0980 C   0  0  0  0  0  2  0  0  0  0  0  0
  179.2470  178.6790  142.3850 C   0  0  0  0  0  1  0  0  0  0  0  0
  184.1770  179.0510  140.5090 C   0  0  0  0  0  2  0  0  0  0  0  0
  184.3880  178.3670  141.8530 C   0  0  2  0  0  3  0  0  0  0  0  0
  183.6710  179.0440  142.8390 O   0  0  0  0  0  1  0  0  0  0  0  0
  185.8610  178.3680  142.2110 C   0  0  0  0  0  2  0  0  0  0  0  0
  186.0100  178.6370  143.5740 O   0  0  0  0  0  0  0  0  0  0  0  0
  186.1720  177.3850  144.1770 C   0  0  2  0  0  3  0  0  0  0  0  0
  186.1860  177.5130  145.6940 C   0  0  1  0  0  3  0  0  0  0  0  0
  187.8260  178.1070  146.2000 S   0  0  0  0  0  0  0  0  0  0  0  0
  188.5730  177.5610  144.6310 C   0  0  0  0  0  2  0  0  0  0  0  0
  187.5280  176.8240  143.8120 C   0  0  0  0  0  2  0  0  0  0  0  0
  185.6510  179.4270  147.0220 O   0  0  0  0  0  1  0  0  0  0  0  0
  185.0900  178.4200  146.2350 C   0  0  0  0  0  2  0  0  0  0  0  0
  1 21  1  6  0  0  0
  2  9  1  1  0  0  0
  2  5  1  0  0  0  0
  2  7  1  0  0  0  0
  3 10  1  6  0  0  0
  4  1  1  0  0  0  0
  4  8  2  0  0  0  0
  5  4  1  0  0  0  0
  6 10  1  0  0  0  0
  7  3  1  0  0  0  0
  7  1  1  0  0  0  0
  9  6  2  0  0  0  0
 10 23  1  0  0  0  0
 11 14  1  0  0  0  0
 12 11  1  0  0  0  0
 12  3  1  0  0  0  0
 13 12  1  0  0  0  0
 13 11  1  0  0  0  0
 16 15  1  0  0  0  0
 16 11  1  0  0  0  0
 17 16  1  0  0  0  0
 18 20  1  0  0  0  0
 20 19  1  0  0  0  0
 20 17  1  0  0  0  0
 21 22  1  0  0  0  0
 23 24  1  0  0  0  0
 24 26  1  0  0  0  0
 24 25  1  0  0  0  0
 26 27  1  0  0  0  0
 27 28  1  0  0  0  0
 28 29  1  0  0  0  0
 29 30  1  0  0  0  0
 29 34  1  0  0  0  0
 31 30  1  0  0  0  0
 32 28  1  0  0  0  0
 32 31  1  0  0  0  0
 34 33  1  0  0  0  0
M  END
>  <MODEL>
4

>  <REMARK>
 VINA RESULT:      -5.8      6.104      8.963
  Name = 
  11 active torsions:
  status: ('A' for Active; 'I' for Inactive)
    1  A    between atoms: C_1  and  C_24
    2  A    between atoms: O_3  and  C_13
    3  A    between atoms: O_3  and  C_17
    4  A    between atoms: C_4  and  C_21
    5  A    between atoms: C_5  and  C_18
    6  A    between atoms: C_5  and  N_31
    7  A    between atoms: C_7  and  C_23
    8  A    between atoms: C_12  and  C_23
    9  A    between atoms: C_12  and  C_27
   10  A    between atoms: C_14  and  C_34
   11  A    between atoms: C_17  and  C_18
                            x       y       z     vdW  Elec       q    Type
                         _______ _______ _______ _____ _____    ______ ____

>  <TORSDO>
F 11

$$$$
=
 OpenBabel10262419173D

 34 37  0  0  1  0  0  0  0  0999 V2000
  191.3980  175.7420  136.2280 C   0  0  1  0  0  3  0  0  0  0  0  0
  190.0300  173.9350  137.2200 C   0  0  1  0  0  3  0  0  0  0  0  0
  189.4950  176.4210  137.7830 C   0  0  1  0  0  3  0  0  0  0  0  0
  191.6660  174.4130  135.6360 C   0  0  0  0  0  0  0  0  0  0  0  0
  190.9290  173.3640  136.2340 N   0  0  0  0  0  2  0  0  0  0  0  0
  187.8520  174.9570  136.5470 C   0  0  0  0  0  3  0  0  0  0  0  0
  190.5590  175.3710  137.4500 C   0  0  2  0  0  3  0  0  0  0  0  0
  192.4480  174.2190  134.6690 O   0  0  0  0  0  0  0  0  0  0  0  0
  188.6320  173.8850  136.6640 C   0  0  0  0  0  3  0  0  0  0  0  0
  188.2910  176.2520  136.9730 N   0  0  0  0  0  0  0  0  0  0  0  0
  189.0360  177.7370  139.8600 C   0  0  1  0  0  0  0  0  0  0  0  0
  189.1350  176.3750  139.2650 C   0  0  2  0  0  3  0  0  0  0  0  0
  190.1760  176.9310  140.0380 O   0  0  0  0  0  0  0  0  0  0  0  0
  189.3350  178.8470  139.0660 O   0  0  0  0  0  1  0  0  0  0  0  0
  187.3730  179.0280  141.0620 F   0  0  0  0  0  0  0  0  0  0  0  0
  188.2830  177.9860  141.1660 C   0  0  2  0  0  3  0  0  0  0  0  0
  189.2080  178.0860  142.3880 C   0  0  0  0  0  2  0  0  0  0  0  0
  189.2350  175.7770  143.0770 O   0  0  0  0  0  1  0  0  0  0  0  0
  187.5270  177.1490  144.0370 C   0  0  0  0  0  1  0  0  0  0  0  0
  188.9470  177.0720  143.5060 C   0  0  2  0  0  3  0  0  0  0  0  0
  192.6990  176.4000  136.6640 C   0  0  0  0  0  2  0  0  0  0  0  0
  193.1760  175.8110  137.9760 C   0  0  0  0  0  1  0  0  0  0  0  0
  187.4840  177.4250  136.6740 C   0  0  0  0  0  2  0  0  0  0  0  0
  186.0470  177.2170  137.1350 C   0  0  2  0  0  3  0  0  0  0  0  0
  185.1790  177.4140  136.0620 O   0  0  0  0  0  1  0  0  0  0  0  0
  185.7100  178.1960  138.2420 C   0  0  0  0  0  2  0  0  0  0  0  0
  184.5150  177.8120  138.8560 O   0  0  0  0  0  0  0  0  0  0  0  0
  183.8930  179.0100  139.2240 C   0  0  2  0  0  3  0  0  0  0  0  0
  183.3040  178.9080  140.6250 C   0  0  1  0  0  3  0  0  0  0  0  0
  181.7440  177.9850  140.5210 S   0  0  0  0  0  0  0  0  0  0  0  0
  181.5890  178.3330  138.7390 C   0  0  0  0  0  2  0  0  0  0  0  0
  182.7120  179.2630  138.3130 C   0  0  0  0  0  2  0  0  0  0  0  0
  183.7570  178.4440  142.9260 O   0  0  0  0  0  1  0  0  0  0  0  0
  184.2480  178.2650  141.6320 C   0  0  0  0  0  2  0  0  0  0  0  0
  1 21  1  1  0  0  0
  1  7  1  0  0  0  0
  2  9  1  6  0  0  0
  2  7  1  0  0  0  0
  3 10  1  6  0  0  0
  3 12  1  0  0  0  0
  4  1  1  0  0  0  0
  4  5  1  0  0  0  0
  5  2  1  0  0  0  0
  6  9  2  0  0  0  0
  6 10  1  0  0  0  0
  7  3  1  0  0  0  0
  8  4  2  0  0  0  0
 11 13  1  0  0  0  0
 11 16  1  0  0  0  0
 12 11  1  0  0  0  0
 12 13  1  0  0  0  0
 14 11  1  0  0  0  0
 15 16  1  0  0  0  0
 16 17  1  0  0  0  0
 17 20  1  0  0  0  0
 18 20  1  0  0  0  0
 20 19  1  0  0  0  0
 21 22  1  0  0  0  0
 23 10  1  0  0  0  0
 23 24  1  0  0  0  0
 24 26  1  0  0  0  0
 25 24  1  0  0  0  0
 26 27  1  0  0  0  0
 27 28  1  0  0  0  0
 28 29  1  0  0  0  0
 29 34  1  0  0  0  0
 30 29  1  0  0  0  0
 31 30  1  0  0  0  0
 32 31  1  0  0  0  0
 32 28  1  0  0  0  0
 34 33  1  0  0  0  0
M  END
>  <MODEL>
5

>  <REMARK>
 VINA RESULT:      -5.7      2.957      5.997
  Name = 
  11 active torsions:
  status: ('A' for Active; 'I' for Inactive)
    1  A    between atoms: C_1  and  C_24
    2  A    between atoms: O_3  and  C_13
    3  A    between atoms: O_3  and  C_17
    4  A    between atoms: C_4  and  C_21
    5  A    between atoms: C_5  and  C_18
    6  A    between atoms: C_5  and  N_31
    7  A    between atoms: C_7  and  C_23
    8  A    between atoms: C_12  and  C_23
    9  A    between atoms: C_12  and  C_27
   10  A    between atoms: C_14  and  C_34
   11  A    between atoms: C_17  and  C_18
                            x       y       z     vdW  Elec       q    Type
                         _______ _______ _______ _____ _____    ______ ____

>  <TORSDO>
F 11

$$$$
=
 OpenBabel10262419173D

 34 37  0  0  1  0  0  0  0  0999 V2000
  190.6580  173.3940  136.0010 C   0  0  1  0  0  3  0  0  0  0  0  0
  191.7840  175.4500  135.2080 C   0  0  1  0  0  3  0  0  0  0  0  0
  189.9130  175.6120  137.0130 C   0  0  1  0  0  3  0  0  0  0  0  0
  191.8480  173.1240  135.1630 C   0  0  0  0  0  0  0  0  0  0  0  0
  192.4660  174.2920  134.6590 N   0  0  0  0  0  2  0  0  0  0  0  0
  192.2950  176.2820  137.5080 C   0  0  0  0  0  3  0  0  0  0  0  0
  190.4570  174.8920  135.7760 C   0  0  2  0  0  3  0  0  0  0  0  0
  192.3000  171.9710  134.9350 O   0  0  0  0  0  0  0  0  0  0  0  0
  192.6770  176.0680  136.2510 C   0  0  0  0  0  3  0  0  0  0  0  0
  190.9750  175.9520  137.9560 N   0  0  0  0  0  0  0  0  0  0  0  0
  187.7070  176.7910  136.9740 C   0  0  1  0  0  0  0  0  0  0  0  0
  189.1500  176.8720  136.6130 C   0  0  2  0  0  3  0  0  0  0  0  0
  188.1570  176.5600  135.6610 O   0  0  0  0  0  0  0  0  0  0  0  0
  187.2150  175.6130  137.5420 O   0  0  0  0  0  1  0  0  0  0  0  0
  187.4780  179.1760  136.6050 F   0  0  0  0  0  0  0  0  0  0  0  0
  186.8390  178.0440  137.0870 C   0  0  2  0  0  3  0  0  0  0  0  0
  186.2160  178.2250  138.4790 C   0  0  0  0  0  2  0  0  0  0  0  0
  184.6930  179.7410  139.5700 O   0  0  0  0  0  1  0  0  0  0  0  0
  183.7190  177.7990  138.5670 C   0  0  0  0  0  1  0  0  0  0  0  0
  184.8160  178.8460  138.5070 C   0  0  2  0  0  3  0  0  0  0  0  0
  189.4560  172.6180  135.4820 C   0  0  0  0  0  2  0  0  0  0  0  0
  188.3850  172.5250  136.5500 C   0  0  0  0  0  1  0  0  0  0  0  0
  190.6470  176.0390  139.3710 C   0  0  0  0  0  2  0  0  0  0  0  0
  190.6130  177.4930  139.8230 C   0  0  2  0  0  3  0  0  0  0  0  0
  191.5520  177.6910  140.8340 O   0  0  0  0  0  1  0  0  0  0  0  0
  189.2320  177.8420  140.3430 C   0  0  0  0  0  2  0  0  0  0  0  0
  189.2720  177.9570  141.7350 O   0  0  0  0  0  0  0  0  0  0  0  0
  188.5850  176.8350  142.2130 C   0  0  2  0  0  3  0  0  0  0  0  0
  187.3970  177.2530  143.0700 C   0  0  1  0  0  3  0  0  0  0  0  0
  188.0160  177.7280  144.7090 S   0  0  0  0  0  0  0  0  0  0  0  0
  189.5640  176.8000  144.4600 C   0  0  0  0  0  2  0  0  0  0  0  0
  189.4890  176.0510  143.1400 C   0  0  0  0  0  2  0  0  0  0  0  0
  185.2350  177.9890  142.3650 O   0  0  0  0  0  1  0  0  0  0  0  0
  186.5730  178.3750  142.4550 C   0  0  0  0  0  2  0  0  0  0  0  0
  1 21  1  6  0  0  0
  2  7  1  0  0  0  0
  2  9  1  1  0  0  0
  3 10  1  1  0  0  0
  4  1  1  0  0  0  0
  5  4  1  0  0  0  0
  5  2  1  0  0  0  0
  6 10  1  0  0  0  0
  7  1  1  0  0  0  0
  7  3  1  0  0  0  0
  8  4  2  0  0  0  0
  9  6  2  0  0  0  0
 10 23  1  0  0  0  0
 11 16  1  0  0  0  0
 11 14  1  0  0  0  0
 12 11  1  0  0  0  0
 12  3  1  0  0  0  0
 13 12  1  0  0  0  0
 13 11  1  0  0  0  0
 15 16  1  0  0  0  0
 16 17  1  0  0  0  0
 17 20  1  0  0  0  0
 20 19  1  0  0  0  0
 20 18  1  0  0  0  0
 21 22  1  0  0  0  0
 23 24  1  0  0  0  0
 24 26  1  0  0  0  0
 24 25  1  0  0  0  0
 26 27  1  0  0  0  0
 27 28  1  0  0  0  0
 28 29  1  0  0  0  0
 28 32  1  0  0  0  0
 29 30  1  0  0  0  0
 31 30  1  0  0  0  0
 32 31  1  0  0  0  0
 33 34  1  0  0  0  0
 34 29  1  0  0  0  0
M  END
>  <MODEL>
6

>  <REMARK>
 VINA RESULT:      -5.6      2.233      3.207
  Name = 
  11 active torsions:
  status: ('A' for Active; 'I' for Inactive)
    1  A    between atoms: C_1  and  C_24
    2  A    between atoms: O_3  and  C_13
    3  A    between atoms: O_3  and  C_17
    4  A    between atoms: C_4  and  C_21
    5  A    between atoms: C_5  and  C_18
    6  A    between atoms: C_5  and  N_31
    7  A    between atoms: C_7  and  C_23
    8  A    between atoms: C_12  and  C_23
    9  A    between atoms: C_12  and  C_27
   10  A    between atoms: C_14  and  C_34
   11  A    between atoms: C_17  and  C_18
                            x       y       z     vdW  Elec       q    Type
                         _______ _______ _______ _____ _____    ______ ____

>  <TORSDO>
F 11

$$$$
=
 OpenBabel10262419173D

 34 37  0  0  1  0  0  0  0  0999 V2000
  188.9380  175.3890  136.2960 C   0  0  1  0  0  3  0  0  0  0  0  0
  188.8390  177.8040  135.7630 C   0  0  1  0  0  3  0  0  0  0  0  0
  187.3240  176.8300  137.6450 C   0  0  1  0  0  3  0  0  0  0  0  0
  190.0140  175.8320  135.3810 C   0  0  0  0  0  0  0  0  0  0  0  0
  189.9340  177.1990  135.0270 N   0  0  0  0  0  2  0  0  0  0  0  0
  189.1230  178.5300  138.1360 C   0  0  0  0  0  3  0  0  0  0  0  0
  188.0150  176.6070  136.2970 C   0  0  2  0  0  3  0  0  0  0  0  0
  190.9410  175.0830  134.9720 O   0  0  0  0  0  0  0  0  0  0  0  0
  189.4250  178.6680  136.8470 C   0  0  0  0  0  3  0  0  0  0  0  0
  188.1820  177.5480  138.5840 N   0  0  0  0  0  0  0  0  0  0  0  0
  184.8470  176.6600  137.3420 C   0  0  1  0  0  0  0  0  0  0  0  0
  186.0100  177.5830  137.4610 C   0  0  2  0  0  3  0  0  0  0  0  0
  185.4340  177.2630  136.2140 O   0  0  0  0  0  0  0  0  0  0  0  0
  185.0730  175.2820  137.3380 O   0  0  0  0  0  1  0  0  0  0  0  0
  182.8650  177.7530  136.4740 F   0  0  0  0  0  0  0  0  0  0  0  0
  183.4170  177.1390  137.5880 C   0  0  2  0  0  3  0  0  0  0  0  0
  183.2650  177.9480  138.8850 C   0  0  0  0  0  2  0  0  0  0  0  0
  184.2460  180.1360  139.1280 O   0  0  0  0  0  1  0  0  0  0  0  0
  181.8770  179.9970  139.4330 C   0  0  0  0  0  1  0  0  0  0  0  0
  183.0990  179.4610  138.7100 C   0  0  2  0  0  3  0  0  0  0  0  0
  188.2150  174.1820  135.7190 C   0  0  0  0  0  2  0  0  0  0  0  0
  187.8870  173.1870  136.8150 C   0  0  0  0  0  1  0  0  0  0  0  0
  188.0040  177.3110  140.0090 C   0  0  0  0  0  2  0  0  0  0  0  0
  187.6570  178.6090  140.7270 C   0  0  2  0  0  3  0  0  0  0  0  0
  188.7650  179.0590  141.4420 O   0  0  0  0  0  1  0  0  0  0  0  0
  186.5000  178.3810  141.6800 C   0  0  0  0  0  2  0  0  0  0  0  0
  186.9210  178.6220  142.9900 O   0  0  0  0  0  0  0  0  0  0  0  0
  186.6150  177.4510  143.6930 C   0  0  2  0  0  3  0  0  0  0  0  0
  186.4560  177.7380  145.1800 C   0  0  1  0  0  3  0  0  0  0  0  0
  188.1110  177.8910  145.9110 S   0  0  0  0  0  0  0  0  0  0  0  0
  188.8710  176.9830  144.5260 C   0  0  0  0  0  2  0  0  0  0  0  0
  187.7780  176.4890  143.5950 C   0  0  0  0  0  2  0  0  0  0  0  0
  184.8750  178.7820  146.6370 O   0  0  0  0  0  1  0  0  0  0  0  0
  185.6180  178.9740  145.4710 C   0  0  0  0  0  2  0  0  0  0  0  0
  1 21  1  6  0  0  0
  1  7  1  0  0  0  0
  2  7  1  0  0  0  0
  2  9  1  1  0  0  0
  3 10  1  1  0  0  0
  4  1  1  0  0  0  0
  5  4  1  0  0  0  0
  5  2  1  0  0  0  0
  6 10  1  0  0  0  0
  7  3  1  0  0  0  0
  8  4  2  0  0  0  0
  9  6  2  0  0  0  0
 10 23  1  0  0  0  0
 11 12  1  0  0  0  0
 11 16  1  0  0  0  0
 12  3  1  0  0  0  0
 13 11  1  0  0  0  0
 13 12  1  0  0  0  0
 14 11  1  0  0  0  0
 15 16  1  0  0  0  0
 16 17  1  0  0  0  0
 20 17  1  0  0  0  0
 20 18  1  0  0  0  0
 20 19  1  0  0  0  0
 21 22  1  0  0  0  0
 23 24  1  0  0  0  0
 24 25  1  0  0  0  0
 24 26  1  0  0  0  0
 26 27  1  0  0  0  0
 27 28  1  0  0  0  0
 28 29  1  0  0  0  0
 29 34  1  0  0  0  0
 29 30  1  0  0  0  0
 31 30  1  0  0  0  0
 32 28  1  0  0  0  0
 32 31  1  0  0  0  0
 34 33  1  0  0  0  0
M  END
>  <MODEL>
7

>  <REMARK>
 VINA RESULT:      -5.4      3.159      3.905
  Name = 
  11 active torsions:
  status: ('A' for Active; 'I' for Inactive)
    1  A    between atoms: C_1  and  C_24
    2  A    between atoms: O_3  and  C_13
    3  A    between atoms: O_3  and  C_17
    4  A    between atoms: C_4  and  C_21
    5  A    between atoms: C_5  and  C_18
    6  A    between atoms: C_5  and  N_31
    7  A    between atoms: C_7  and  C_23
    8  A    between atoms: C_12  and  C_23
    9  A    between atoms: C_12  and  C_27
   10  A    between atoms: C_14  and  C_34
   11  A    between atoms: C_17  and  C_18
                            x       y       z     vdW  Elec       q    Type
                         _______ _______ _______ _____ _____    ______ ____

>  <TORSDO>
F 11

$$$$
=
 OpenBabel10262419173D

 34 37  0  0  1  0  0  0  0  0999 V2000
  185.6700  179.4550  144.4960 C   0  0  1  0  0  3  0  0  0  0  0  0
  186.0900  177.0210  144.3410 C   0  0  1  0  0  3  0  0  0  0  0  0
  186.0880  178.4750  142.1800 C   0  0  1  0  0  3  0  0  0  0  0  0
  185.8740  178.8110  145.8130 C   0  0  0  0  0  0  0  0  0  0  0  0
  186.0600  177.4110  145.7390 N   0  0  0  0  0  2  0  0  0  0  0  0
  188.1630  177.2760  142.9710 C   0  0  0  0  0  3  0  0  0  0  0  0
  185.5160  178.2410  143.5810 C   0  0  2  0  0  3  0  0  0  0  0  0
  185.9140  179.4390  146.9030 O   0  0  0  0  0  0  0  0  0  0  0  0
  187.5130  176.6940  143.9760 C   0  0  0  0  0  3  0  0  0  0  0  0
  187.5320  178.2540  142.1380 N   0  0  0  0  0  0  0  0  0  0  0  0
  184.8350  178.3590  140.0180 C   0  0  1  0  0  0  0  0  0  0  0  0
  185.3960  177.5800  141.1560 C   0  0  2  0  0  3  0  0  0  0  0  0
  184.0250  177.9020  141.0740 O   0  0  0  0  0  0  0  0  0  0  0  0
  184.9320  179.7530  140.0380 O   0  0  0  0  0  1  0  0  0  0  0  0
  185.1880  178.2540  137.6220 F   0  0  0  0  0  0  0  0  0  0  0  0
  184.4940  177.6960  138.6840 C   0  0  2  0  0  3  0  0  0  0  0  0
  182.9830  177.5670  138.4430 C   0  0  0  0  0  2  0  0  0  0  0  0
  182.0540  175.7230  139.6860 O   0  0  0  0  0  1  0  0  0  0  0  0
  183.4170  175.1530  137.8040 C   0  0  0  0  0  1  0  0  0  0  0  0
  182.4330  176.1380  138.4090 C   0  0  2  0  0  3  0  0  0  0  0  0
  184.3890  180.2760  144.5000 C   0  0  0  0  0  2  0  0  0  0  0  0
  183.1860  179.3800  144.2800 C   0  0  0  0  0  1  0  0  0  0  0  0
  188.3190  178.9920  141.1610 C   0  0  0  0  0  2  0  0  0  0  0  0
  188.8890  178.0470  140.1120 C   0  0  2  0  0  3  0  0  0  0  0  0
  190.2560  177.8760  140.3290 O   0  0  0  0  0  1  0  0  0  0  0  0
  188.6670  178.6180  138.7250 C   0  0  0  0  0  2  0  0  0  0  0  0
  189.4670  177.9350  137.8060 O   0  0  0  0  0  0  0  0  0  0  0  0
  188.6190  176.9940  137.2110 C   0  0  2  0  0  3  0  0  0  0  0  0
  189.4110  175.8030  136.6890 C   0  0  1  0  0  3  0  0  0  0  0  0
  190.1870  176.2790  135.1180 S   0  0  0  0  0  0  0  0  0  0  0  0
  189.0060  177.6460  134.8810 C   0  0  0  0  0  2  0  0  0  0  0  0
  187.9680  177.6060  135.9900 C   0  0  0  0  0  2  0  0  0  0  0  0
  190.5410  173.9000  137.5930 O   0  0  0  0  0  1  0  0  0  0  0  0
  190.4520  175.2910  137.6750 C   0  0  0  0  0  2  0  0  0  0  0  0
  1 21  1  1  0  0  0
  1  4  1  0  0  0  0
  2  9  1  6  0  0  0
  2  5  1  0  0  0  0
  3 10  1  1  0  0  0
  3  7  1  0  0  0  0
  4  8  2  0  0  0  0
  5  4  1  0  0  0  0
  6  9  2  0  0  0  0
  7  2  1  0  0  0  0
  7  1  1  0  0  0  0
 10  6  1  0  0  0  0
 11 14  1  0  0  0  0
 11 13  1  0  0  0  0
 11 12  1  0  0  0  0
 12  3  1  0  0  0  0
 13 12  1  0  0  0  0
 15 16  1  0  0  0  0
 16 11  1  0  0  0  0
 17 16  1  0  0  0  0
 19 20  1  0  0  0  0
 20 17  1  0  0  0  0
 20 18  1  0  0  0  0
 22 21  1  0  0  0  0
 23 10  1  0  0  0  0
 24 25  1  0  0  0  0
 24 23  1  0  0  0  0
 26 24  1  0  0  0  0
 27 26  1  0  0  0  0
 28 27  1  0  0  0  0
 29 28  1  0  0  0  0
 29 34  1  0  0  0  0
 30 29  1  0  0  0  0
 31 30  1  0  0  0  0
 31 32  1  0  0  0  0
 32 28  1  0  0  0  0
 33 34  1  0  0  0  0
M  END
>  <MODEL>
8

>  <REMARK>
 VINA RESULT:      -5.4      3.751      8.142
  Name = 
  11 active torsions:
  status: ('A' for Active; 'I' for Inactive)
    1  A    between atoms: C_1  and  C_24
    2  A    between atoms: O_3  and  C_13
    3  A    between atoms: O_3  and  C_17
    4  A    between atoms: C_4  and  C_21
    5  A    between atoms: C_5  and  C_18
    6  A    between atoms: C_5  and  N_31
    7  A    between atoms: C_7  and  C_23
    8  A    between atoms: C_12  and  C_23
    9  A    between atoms: C_12  and  C_27
   10  A    between atoms: C_14  and  C_34
   11  A    between atoms: C_17  and  C_18
                            x       y       z     vdW  Elec       q    Type
                         _______ _______ _______ _____ _____    ______ ____

>  <TORSDO>
F 11

$$$$
=
 OpenBabel10262419173D

 34 37  0  0  1  0  0  0  0  0999 V2000
  181.1540  176.7660  139.1010 C   0  0  1  0  0  3  0  0  0  0  0  0
  179.9540  178.8910  139.5130 C   0  0  1  0  0  3  0  0  0  0  0  0
  182.3890  178.5890  140.3870 C   0  0  1  0  0  3  0  0  0  0  0  0
  179.8840  176.8780  138.3480 C   0  0  0  0  0  0  0  0  0  0  0  0
  179.1640  178.0650  138.6190 N   0  0  0  0  0  2  0  0  0  0  0  0
  181.8100  180.3240  138.6480 C   0  0  0  0  0  3  0  0  0  0  0  0
  181.0380  177.9400  140.0730 C   0  0  2  0  0  3  0  0  0  0  0  0
  179.4830  176.0220  137.5160 O   0  0  0  0  0  0  0  0  0  0  0  0
  180.5100  180.0420  138.7180 C   0  0  0  0  0  3  0  0  0  0  0  0
  182.7820  179.5500  139.3590 N   0  0  0  0  0  0  0  0  0  0  0  0
  183.4140  178.7470  142.6630 C   0  0  1  0  0  0  0  0  0  0  0  0
  182.3590  179.2700  141.7510 C   0  0  2  0  0  3  0  0  0  0  0  0
  182.0740  178.3270  142.7620 O   0  0  0  0  0  0  0  0  0  0  0  0
  184.2280  177.6990  142.2260 O   0  0  0  0  0  1  0  0  0  0  0  0
  184.8940  180.4270  143.5910 F   0  0  0  0  0  0  0  0  0  0  0  0
  183.8760  179.5340  143.8880 C   0  0  2  0  0  3  0  0  0  0  0  0
  184.1630  178.6430  145.1060 C   0  0  0  0  0  2  0  0  0  0  0  0
  186.1470  177.2990  145.3650 O   0  0  0  0  0  1  0  0  0  0  0  0
  185.8110  179.0170  146.9960 C   0  0  0  0  0  1  0  0  0  0  0  0
  185.6260  178.5800  145.5540 C   0  0  2  0  0  3  0  0  0  0  0  0
  181.2030  175.4520  139.8660 C   0  0  0  0  0  2  0  0  0  0  0  0
  179.9710  175.3010  140.7370 C   0  0  0  0  0  1  0  0  0  0  0  0
  184.2010  179.7780  139.1270 C   0  0  0  0  0  2  0  0  0  0  0  0
  184.9690  178.4650  139.1800 C   0  0  2  0  0  3  0  0  0  0  0  0
  186.2530  178.6940  139.6720 O   0  0  0  0  0  1  0  0  0  0  0  0
  185.0620  177.8610  137.7920 C   0  0  0  0  0  2  0  0  0  0  0  0
  186.3210  177.2810  137.6190 O   0  0  0  0  0  0  0  0  0  0  0  0
  186.7380  177.6880  136.3470 C   0  0  2  0  0  3  0  0  0  0  0  0
  187.6640  176.6520  135.7230 C   0  0  1  0  0  3  0  0  0  0  0  0
  189.3120  176.8450  136.4610 S   0  0  0  0  0  0  0  0  0  0  0  0
  188.9390  178.5460  136.9950 C   0  0  0  0  0  2  0  0  0  0  0  0
  187.5710  178.9450  136.4700 C   0  0  0  0  0  2  0  0  0  0  0  0
  185.9720  175.0570  135.1710 O   0  0  0  0  0  1  0  0  0  0  0  0
  187.1640  175.2230  135.8780 C   0  0  0  0  0  2  0  0  0  0  0  0
  1 21  1  1  0  0  0
  1  7  1  0  0  0  0
  2  9  1  6  0  0  0
  2  7  1  0  0  0  0
  3 10  1  6  0  0  0
  3 12  1  0  0  0  0
  4  5  1  0  0  0  0
  4  1  1  0  0  0  0
  5  2  1  0  0  0  0
  6  9  2  0  0  0  0
  6 10  1  0  0  0  0
  7  3  1  0  0  0  0
  8  4  2  0  0  0  0
 11 13  1  0  0  0  0
 11 16  1  0  0  0  0
 12 11  1  0  0  0  0
 12 13  1  0  0  0  0
 14 11  1  0  0  0  0
 15 16  1  0  0  0  0
 16 17  1  0  0  0  0
 17 20  1  0  0  0  0
 18 20  1  0  0  0  0
 20 19  1  0  0  0  0
 21 22  1  0  0  0  0
 23 24  1  0  0  0  0
 23 10  1  0  0  0  0
 24 25  1  0  0  0  0
 26 24  1  0  0  0  0
 27 26  1  0  0  0  0
 28 32  1  0  0  0  0
 28 27  1  0  0  0  0
 29 34  1  0  0  0  0
 29 28  1  0  0  0  0
 29 30  1  0  0  0  0
 30 31  1  0  0  0  0
 32 31  1  0  0  0  0
 33 34  1  0  0  0  0
M  END
>  <MODEL>
9

>  <REMARK>
 VINA RESULT:      -5.4      5.179     10.069
  Name = 
  11 active torsions:
  status: ('A' for Active; 'I' for Inactive)
    1  A    between atoms: C_1  and  C_24
    2  A    between atoms: O_3  and  C_13
    3  A    between atoms: O_3  and  C_17
    4  A    between atoms: C_4  and  C_21
    5  A    between atoms: C_5  and  C_18
    6  A    between atoms: C_5  and  N_31
    7  A    between atoms: C_7  and  C_23
    8  A    between atoms: C_12  and  C_23
    9  A    between atoms: C_12  and  C_27
   10  A    between atoms: C_14  and  C_34
   11  A    between atoms: C_17  and  C_18
                            x       y       z     vdW  Elec       q    Type
                         _______ _______ _______ _____ _____    ______ ____

>  <TORSDO>
F 11

$$$$
