=
 OpenBabel10262419343D

 31 35  0  0  1  0  0  0  0  0999 V2000
  189.2910  177.4190  143.8550 C   0  0  0  0  0  0  0  0  0  0  0  0
  190.0470  177.5950  145.1540 C   0  0  2  0  0  3  0  0  0  0  0  0
  191.7190  176.3880  146.5320 C   0  0  0  0  0  0  0  0  0  0  0  0
  189.9010  177.3120  142.6690 C   0  0  0  0  0  0  0  0  0  0  0  0
  191.3700  177.3620  141.1040 C   0  0  0  0  0  0  0  0  0  0  0  0
  191.2350  176.6790  145.3180 C   0  0  0  0  0  3  0  0  0  0  0  0
  187.0730  177.6390  142.5320 C   0  0  0  0  0  0  0  0  0  0  0  0
  187.8260  177.6570  146.2910 C   0  0  0  0  0  3  0  0  0  0  0  0
  192.8310  175.6240  146.6430 F   0  0  0  0  0  0  0  0  0  0  0  0
  187.7660  177.5050  141.3890 C   0  0  0  0  0  3  0  0  0  0  0  0
  187.8060  177.5890  143.8350 C   0  0  0  0  0  0  0  0  0  0  0  0
  191.2990  177.3450  142.4060 N   0  0  0  0  0  0  0  0  0  0  0  0
  191.0120  176.8270  147.7560 C   0  0  0  0  0  3  0  0  0  0  0  0
  189.1750  177.2960  141.4660 N   0  0  0  0  0  0  0  0  0  0  0  0
  190.1020  177.3550  140.4300 N   0  0  0  0  0  2  0  0  0  0  0  0
  187.1400  177.7210  144.9890 C   0  0  0  0  0  3  0  0  0  0  0  0
  189.1530  177.5460  146.3770 C   0  0  0  0  0  0  0  0  0  0  0  0
  189.7890  177.3620  147.6900 C   0  0  0  0  0  3  0  0  0  0  0  0
  185.5240  179.6810  141.0880 O   0  0  0  0  0  0  0  0  0  0  0  0
  184.9160  178.8510  141.8130 C   0  0  0  0  0  0  0  0  0  0  0  0
  185.6490  177.8420  142.5260 N   0  0  0  0  0  2  0  0  0  0  0  0
  180.6790  178.9550  142.0510 C   0  0  0  0  0  0  0  0  0  0  0  0
  182.6960  178.8410  140.8090 N   0  0  0  0  0  0  0  0  0  0  0  0
  183.5820  179.0470  144.7430 Cl  0  0  0  0  0  0  0  0  0  0  0  0
  178.9310  178.9960  142.1090 Cl  0  0  0  0  0  0  0  0  0  0  0  0
  181.3400  178.8710  140.8290 C   0  0  0  0  0  3  0  0  0  0  0  0
  182.7610  178.9760  143.1890 C   0  0  0  0  0  0  0  0  0  0  0  0
  183.4410  178.8900  141.9490 C   0  0  0  0  0  0  0  0  0  0  0  0
  181.4030  179.0060  143.1980 N   0  0  0  0  0  0  0  0  0  0  0  0
  192.6220  177.4040  140.4020 C   0  0  0  0  0  0  0  0  0  0  0  0
  193.6300  177.4380  139.8370 N   0  0  0  0  0  0  0  0  0  0  0  0
  1  2  1  0  0  0  0
  2  6  1  1  0  0  0
  2 17  1  0  0  0  0
  3  9  1  0  0  0  0
  3 13  1  0  0  0  0
  4  1  2  0  0  0  0
  5 12  2  0  0  0  0
  6  3  2  0  0  0  0
  7 11  1  0  0  0  0
  8 17  2  0  0  0  0
 10 14  1  0  0  0  0
 10  7  2  0  0  0  0
 11  1  1  0  0  0  0
 11 16  2  0  0  0  0
 12  4  1  0  0  0  0
 14  4  1  0  0  0  0
 15  5  1  0  0  0  0
 15 14  1  0  0  0  0
 16  8  1  0  0  0  0
 17 18  1  0  0  0  0
 18 13  2  0  0  0  0
 19 20  2  0  0  0  0
 20 28  1  0  0  0  0
 20 21  1  0  0  0  0
 21  7  1  0  0  0  0
 22 25  1  0  0  0  0
 22 29  1  0  0  0  0
 23 26  1  0  0  0  0
 23 28  2  0  0  0  0
 26 22  2  0  0  0  0
 27 29  2  0  0  0  0
 27 24  1  0  0  0  0
 28 27  1  0  0  0  0
 30  5  1  0  0  0  0
 31 30  3  0  0  0  0
M  END
>  <MODEL>
1

>  <REMARK>
 VINA RESULT:     -11.0      0.000      0.000
  Name = 
  3 active torsions:
  status: ('A' for Active; 'I' for Inactive)
    1  A    between atoms: C_2  and  C_13
    2  A    between atoms: C_9  and  C_22
    3  A    between atoms: C_15  and  N_23
                            x       y       z     vdW  Elec       q    Type
                         _______ _______ _______ _____ _____    ______ ____

>  <TORSDO>
F 3

$$$$
=
 OpenBabel10262419343D

 31 35  0  0  1  0  0  0  0  0999 V2000
  188.8480  177.5520  143.3380 C   0  0  0  0  0  0  0  0  0  0  0  0
  189.1050  177.0270  144.7350 C   0  0  2  0  0  3  0  0  0  0  0  0
  189.0240  177.8210  147.0820 C   0  0  0  0  0  0  0  0  0  0  0  0
  187.6530  178.0010  142.9390 C   0  0  0  0  0  0  0  0  0  0  0  0
  185.5510  178.4200  142.8270 C   0  0  0  0  0  0  0  0  0  0  0  0
  188.5300  177.8780  145.8400 C   0  0  0  0  0  3  0  0  0  0  0  0
  189.5670  177.6790  140.8510 C   0  0  0  0  0  0  0  0  0  0  0  0
  191.4560  176.6090  144.0100 C   0  0  0  0  0  3  0  0  0  0  0  0
  188.4390  178.5410  148.0690 F   0  0  0  0  0  0  0  0  0  0  0  0
  188.3440  178.1430  140.5440 C   0  0  0  0  0  3  0  0  0  0  0  0
  189.8880  177.3700  142.2790 C   0  0  0  0  0  0  0  0  0  0  0  0
  186.4520  178.0660  143.6990 N   0  0  0  0  0  0  0  0  0  0  0  0
  190.2470  177.0410  147.3780 C   0  0  0  0  0  3  0  0  0  0  0  0
  187.4050  178.3450  141.6000 N   0  0  0  0  0  0  0  0  0  0  0  0
  186.0410  178.5970  141.4890 N   0  0  0  0  0  2  0  0  0  0  0  0
  191.0980  176.9060  142.6120 C   0  0  0  0  0  3  0  0  0  0  0  0
  190.5640  176.7120  144.9970 C   0  0  0  0  0  0  0  0  0  0  0  0
  190.9900  176.5270  146.3920 C   0  0  0  0  0  3  0  0  0  0  0  0
  189.6470  175.5860  138.7850 O   0  0  0  0  0  0  0  0  0  0  0  0
  190.5810  176.4290  138.8390 C   0  0  0  0  0  0  0  0  0  0  0  0
  190.5630  177.4630  139.8360 N   0  0  0  0  0  2  0  0  0  0  0  0
  193.7230  176.2450  135.9920 C   0  0  0  0  0  0  0  0  0  0  0  0
  191.4400  176.0280  136.5950 N   0  0  0  0  0  0  0  0  0  0  0  0
  193.5600  177.1440  139.8460 Cl  0  0  0  0  0  0  0  0  0  0  0  0
  194.9930  176.1590  134.7910 Cl  0  0  0  0  0  0  0  0  0  0  0  0
  192.4080  175.9540  135.6460 C   0  0  0  0  0  3  0  0  0  0  0  0
  193.0530  176.6750  138.2280 C   0  0  0  0  0  0  0  0  0  0  0  0
  191.7110  176.3800  137.8840 C   0  0  0  0  0  0  0  0  0  0  0  0
  194.0140  176.5970  137.2700 N   0  0  0  0  0  0  0  0  0  0  0  0
  184.1700  178.5990  143.1770 C   0  0  0  0  0  0  0  0  0  0  0  0
  183.0580  178.7440  143.4600 N   0  0  0  0  0  0  0  0  0  0  0  0
  1  2  1  0  0  0  0
  2 17  1  0  0  0  0
  2  6  1  1  0  0  0
  3 13  1  0  0  0  0
  3  9  1  0  0  0  0
  4  1  2  0  0  0  0
  4 12  1  0  0  0  0
  5 30  1  0  0  0  0
  5 12  2  0  0  0  0
  6  3  2  0  0  0  0
  7 11  1  0  0  0  0
  8 17  2  0  0  0  0
 10  7  2  0  0  0  0
 10 14  1  0  0  0  0
 11 16  2  0  0  0  0
 11  1  1  0  0  0  0
 14  4  1  0  0  0  0
 15 14  1  0  0  0  0
 15  5  1  0  0  0  0
 16  8  1  0  0  0  0
 17 18  1  0  0  0  0
 18 13  2  0  0  0  0
 19 20  2  0  0  0  0
 20 21  1  0  0  0  0
 21  7  1  0  0  0  0
 22 29  1  0  0  0  0
 23 28  2  0  0  0  0
 25 22  1  0  0  0  0
 26 22  2  0  0  0  0
 26 23  1  0  0  0  0
 27 24  1  0  0  0  0
 28 27  1  0  0  0  0
 28 20  1  0  0  0  0
 29 27  2  0  0  0  0
 30 31  3  0  0  0  0
M  END
>  <MODEL>
2

>  <REMARK>
 VINA RESULT:      -9.9      4.228      7.795
  Name = 
  3 active torsions:
  status: ('A' for Active; 'I' for Inactive)
    1  A    between atoms: C_2  and  C_13
    2  A    between atoms: C_9  and  C_22
    3  A    between atoms: C_15  and  N_23
                            x       y       z     vdW  Elec       q    Type
                         _______ _______ _______ _____ _____    ______ ____

>  <TORSDO>
F 3

$$$$
=
 OpenBabel10262419343D

 31 35  0  0  1  0  0  0  0  0999 V2000
  187.3060  177.8580  143.1720 C   0  0  0  0  0  0  0  0  0  0  0  0
  187.2920  177.4250  144.6230 C   0  0  2  0  0  3  0  0  0  0  0  0
  186.7750  178.3660  146.8580 C   0  0  0  0  0  0  0  0  0  0  0  0
  186.2090  178.2720  142.5280 C   0  0  0  0  0  0  0  0  0  0  0  0
  184.1680  178.6690  141.9950 C   0  0  0  0  0  0  0  0  0  0  0  0
  186.5240  178.3410  145.5440 C   0  0  0  0  0  3  0  0  0  0  0  0
  188.4800  177.8320  140.8620 C   0  0  0  0  0  0  0  0  0  0  0  0
  189.7360  176.9790  144.3820 C   0  0  0  0  0  3  0  0  0  0  0  0
  186.0180  179.1430  147.6690 F   0  0  0  0  0  0  0  0  0  0  0  0
  187.3390  178.2660  140.3010 C   0  0  0  0  0  3  0  0  0  0  0  0
  188.5250  177.6170  142.3420 C   0  0  0  0  0  0  0  0  0  0  0  0
  184.8870  178.3770  143.0430 N   0  0  0  0  0  0  0  0  0  0  0  0
  187.9170  177.6160  147.4270 C   0  0  0  0  0  3  0  0  0  0  0  0
  186.2200  178.5290  141.1470 N   0  0  0  0  0  0  0  0  0  0  0  0
  184.9020  178.7640  140.7660 N   0  0  0  0  0  2  0  0  0  0  0  0
  189.6480  177.1830  142.9260 C   0  0  0  0  0  3  0  0  0  0  0  0
  188.6740  177.1380  145.1750 C   0  0  0  0  0  0  0  0  0  0  0  0
  188.8290  177.0450  146.6340 C   0  0  0  0  0  3  0  0  0  0  0  0
  188.6730  176.2920  138.3630 O   0  0  0  0  0  0  0  0  0  0  0  0
  189.7170  176.8000  138.8510 C   0  0  0  0  0  0  0  0  0  0  0  0
  189.6490  177.5590  140.0690 N   0  0  0  0  0  2  0  0  0  0  0  0
  193.4110  176.2710  136.8290 C   0  0  0  0  0  0  0  0  0  0  0  0
  191.0420  176.2020  136.8960 N   0  0  0  0  0  0  0  0  0  0  0  0
  192.4250  177.4460  140.4800 Cl  0  0  0  0  0  0  0  0  0  0  0  0
  194.9140  176.0420  135.9630 Cl  0  0  0  0  0  0  0  0  0  0  0  0
  192.1940  176.0170  136.2040 C   0  0  0  0  0  3  0  0  0  0  0  0
  192.2740  176.8880  138.8190 C   0  0  0  0  0  0  0  0  0  0  0  0
  191.0310  176.6310  138.1890 C   0  0  0  0  0  0  0  0  0  0  0  0
  193.4230  176.6990  138.1170 N   0  0  0  0  0  0  0  0  0  0  0  0
  182.7470  178.8600  142.0680 C   0  0  0  0  0  0  0  0  0  0  0  0
  181.6020  179.0140  142.1250 N   0  0  0  0  0  0  0  0  0  0  0  0
  1  2  1  0  0  0  0
  2 17  1  0  0  0  0
  2  6  1  1  0  0  0
  3 13  1  0  0  0  0
  3  9  1  0  0  0  0
  4 12  1  0  0  0  0
  4  1  2  0  0  0  0
  5 30  1  0  0  0  0
  5 12  2  0  0  0  0
  6  3  2  0  0  0  0
  7 11  1  0  0  0  0
  8 17  2  0  0  0  0
 10  7  2  0  0  0  0
 10 14  1  0  0  0  0
 11 16  2  0  0  0  0
 11  1  1  0  0  0  0
 14  4  1  0  0  0  0
 15 14  1  0  0  0  0
 15  5  1  0  0  0  0
 16  8  1  0  0  0  0
 17 18  1  0  0  0  0
 18 13  2  0  0  0  0
 19 20  2  0  0  0  0
 20 21  1  0  0  0  0
 21  7  1  0  0  0  0
 22 29  1  0  0  0  0
 23 28  2  0  0  0  0
 25 22  1  0  0  0  0
 26 22  2  0  0  0  0
 26 23  1  0  0  0  0
 27 24  1  0  0  0  0
 28 27  1  0  0  0  0
 28 20  1  0  0  0  0
 29 27  2  0  0  0  0
 30 31  3  0  0  0  0
M  END
>  <MODEL>
3

>  <REMARK>
 VINA RESULT:      -9.7      4.010      7.755
  Name = 
  3 active torsions:
  status: ('A' for Active; 'I' for Inactive)
    1  A    between atoms: C_2  and  C_13
    2  A    between atoms: C_9  and  C_22
    3  A    between atoms: C_15  and  N_23
                            x       y       z     vdW  Elec       q    Type
                         _______ _______ _______ _____ _____    ______ ____

>  <TORSDO>
F 3

$$$$
=
 OpenBabel10262419343D

 31 35  0  0  1  0  0  0  0  0999 V2000
  185.5830  178.4940  140.3820 C   0  0  0  0  0  0  0  0  0  0  0  0
  184.0740  178.3800  140.4060 C   0  0  2  0  0  3  0  0  0  0  0  0
  182.0840  179.6360  139.6240 C   0  0  0  0  0  0  0  0  0  0  0  0
  186.2910  178.5230  139.2470 C   0  0  0  0  0  0  0  0  0  0  0  0
  186.8770  178.3600  137.1880 C   0  0  0  0  0  0  0  0  0  0  0  0
  183.3610  179.2840  139.4310 C   0  0  0  0  0  3  0  0  0  0  0  0
  187.8460  178.2350  141.6180 C   0  0  0  0  0  0  0  0  0  0  0  0
  184.2370  178.4190  142.8960 C   0  0  0  0  0  3  0  0  0  0  0  0
  181.4490  180.3870  138.6930 F   0  0  0  0  0  0  0  0  0  0  0  0
  188.4760  178.2920  140.4330 C   0  0  0  0  0  3  0  0  0  0  0  0
  186.3550  178.3470  141.6540 C   0  0  0  0  0  0  0  0  0  0  0  0
  185.7980  178.4520  137.9140 N   0  0  0  0  0  0  0  0  0  0  0  0
  181.3790  179.2790  140.8750 C   0  0  0  0  0  3  0  0  0  0  0  0
  187.6950  178.4820  139.2540 N   0  0  0  0  0  0  0  0  0  0  0  0
  188.1050  178.3490  137.9310 N   0  0  0  0  0  2  0  0  0  0  0  0
  185.7020  178.2920  142.8200 C   0  0  0  0  0  3  0  0  0  0  0  0
  183.4860  178.5130  141.7960 C   0  0  0  0  0  0  0  0  0  0  0  0
  182.0420  178.7610  141.9150 C   0  0  0  0  0  3  0  0  0  0  0  0
  188.3470  175.7420  143.0970 O   0  0  0  0  0  0  0  0  0  0  0  0
  188.8020  176.8250  143.5510 C   0  0  0  0  0  0  0  0  0  0  0  0
  188.5740  178.0550  142.8460 N   0  0  0  0  0  2  0  0  0  0  0  0
  191.1520  176.8820  147.0850 C   0  0  0  0  0  0  0  0  0  0  0  0
  190.9050  176.5490  144.7500 N   0  0  0  0  0  0  0  0  0  0  0  0
  187.3370  177.6170  146.3130 Cl  0  0  0  0  0  0  0  0  0  0  0  0
  192.1520  176.8940  148.5210 Cl  0  0  0  0  0  0  0  0  0  0  0  0
  191.7000  176.5520  145.8500 C   0  0  0  0  0  3  0  0  0  0  0  0
  189.0280  177.1940  146.0730 C   0  0  0  0  0  0  0  0  0  0  0  0
  189.5790  176.8590  144.8110 C   0  0  0  0  0  0  0  0  0  0  0  0
  189.8340  177.1930  147.1680 N   0  0  0  0  0  0  0  0  0  0  0  0
  186.8340  178.2570  135.7570 C   0  0  0  0  0  0  0  0  0  0  0  0
  186.7990  178.1750  134.6030 N   0  0  0  0  0  0  0  0  0  0  0  0
  1  2  1  0  0  0  0
  1 11  1  0  0  0  0
  2  6  1  6  0  0  0
  2 17  1  0  0  0  0
  3 13  1  0  0  0  0
  4 14  1  0  0  0  0
  4  1  2  0  0  0  0
  5 12  2  0  0  0  0
  5 15  1  0  0  0  0
  6  3  2  0  0  0  0
  7 11  1  0  0  0  0
  7 21  1  0  0  0  0
  9  3  1  0  0  0  0
 10  7  2  0  0  0  0
 11 16  2  0  0  0  0
 12  4  1  0  0  0  0
 13 18  2  0  0  0  0
 14 10  1  0  0  0  0
 15 14  1  0  0  0  0
 16  8  1  0  0  0  0
 17 18  1  0  0  0  0
 17  8  2  0  0  0  0
 19 20  2  0  0  0  0
 20 28  1  0  0  0  0
 21 20  1  0  0  0  0
 22 29  1  0  0  0  0
 22 25  1  0  0  0  0
 23 28  2  0  0  0  0
 23 26  1  0  0  0  0
 26 22  2  0  0  0  0
 27 24  1  0  0  0  0
 27 29  2  0  0  0  0
 28 27  1  0  0  0  0
 30  5  1  0  0  0  0
 31 30  3  0  0  0  0
M  END
>  <MODEL>
4

>  <REMARK>
 VINA RESULT:      -9.1      4.245      8.058
  Name = 
  3 active torsions:
  status: ('A' for Active; 'I' for Inactive)
    1  A    between atoms: C_2  and  C_13
    2  A    between atoms: C_9  and  C_22
    3  A    between atoms: C_15  and  N_23
                            x       y       z     vdW  Elec       q    Type
                         _______ _______ _______ _____ _____    ______ ____

>  <TORSDO>
F 3

$$$$
=
 OpenBabel10262419343D

 31 35  0  0  0  0  0  0  0  0999 V2000
  188.5280  177.4060  144.5870 C   0  0  0  0  0  0  0  0  0  0  0  0
  187.3640  178.2440  145.0720 C   0  0  0  0  0  0  0  0  0  0  0  0
  185.6130  178.1860  146.8260 C   0  0  0  0  0  0  0  0  0  0  0  0
  189.5830  177.1140  145.3550 C   0  0  0  0  0  0  0  0  0  0  0  0
  191.0320  177.1150  146.9380 C   0  0  0  0  0  0  0  0  0  0  0  0
  186.8590  177.8780  146.4460 C   0  0  0  0  0  3  0  0  0  0  0  0
  189.8830  176.4310  142.6030 C   0  0  0  0  0  0  0  0  0  0  0  0
  186.3700  177.9520  142.8020 C   0  0  0  0  0  3  0  0  0  0  0  0
  185.2120  177.9120  148.0910 F   0  0  0  0  0  0  0  0  0  0  0  0
  190.8870  176.1580  143.4520 C   0  0  0  0  0  3  0  0  0  0  0  0
  188.6350  177.0630  143.1350 C   0  0  0  0  0  0  0  0  0  0  0  0
  189.8140  177.5130  146.7010 N   0  0  0  0  0  0  0  0  0  0  0  0
  184.6430  178.7530  145.8630 C   0  0  0  0  0  3  0  0  0  0  0  0
  190.7130  176.4600  144.8360 N   0  0  0  0  0  0  0  0  0  0  0  0
  191.6830  176.4680  145.8340 N   0  0  0  0  0  2  0  0  0  0  0  0
  187.6200  177.3480  142.3110 C   0  0  0  0  0  3  0  0  0  0  0  0
  186.2230  178.3180  144.0780 C   0  0  0  0  0  0  0  0  0  0  0  0
  184.9200  178.8030  144.5560 C   0  0  0  0  0  2  0  0  0  0  0  0
  191.4180  177.8770  140.5520 O   0  0  0  0  0  0  0  0  0  0  0  0
  190.7440  176.8670  140.2150 C   0  0  0  0  0  0  0  0  0  0  0  0
  189.9890  176.1430  141.1980 N   0  0  0  0  0  2  0  0  0  0  0  0
  190.7390  175.4160  136.2260 C   0  0  0  0  0  0  0  0  0  0  0  0
  191.3490  175.2340  138.5100 N   0  0  0  0  0  0  0  0  0  0  0  0
  189.2060  178.6170  137.9850 Cl  0  0  0  0  0  0  0  0  0  0  0  0
  190.7580  174.7870  134.5940 Cl  0  0  0  0  0  0  0  0  0  0  0  0
  191.3770  174.7270  137.2520 C   0  0  0  0  0  3  0  0  0  0  0  0
  190.0670  177.0990  137.7580 C   0  0  0  0  0  0  0  0  0  0  0  0
  190.7140  176.4030  138.8090 C   0  0  0  0  0  0  0  0  0  0  0  0
  190.1010  176.5820  136.5020 N   0  0  0  0  0  0  0  0  0  0  0  0
  191.6780  177.3280  148.2030 C   0  0  0  0  0  0  0  0  0  0  0  0
  192.1980  177.4990  149.2220 N   0  0  0  0  0  0  0  0  0  0  0  0
  1  2  1  0  0  0  0
  1  4  2  0  0  0  0
  2  6  2  0  0  0  0
  3  9  1  0  0  0  0
  4 12  1  0  0  0  0
  5 30  1  0  0  0  0
  6  3  1  0  0  0  0
  7 11  1  0  0  0  0
  7 10  2  0  0  0  0
  8 17  2  0  0  0  0
 10 14  1  0  0  0  0
 11  1  1  0  0  0  0
 12  5  2  0  0  0  0
 13  3  2  0  0  0  0
 14  4  1  0  0  0  0
 14 15  1  0  0  0  0
 15  5  1  0  0  0  0
 16  8  1  0  0  0  0
 16 11  2  0  0  0  0
 17 18  1  0  0  0  0
 17  2  1  0  0  0  0
 18 13  1  0  0  0  0
 20 19  2  0  0  0  0
 20 21  1  0  0  0  0
 21  7  1  0  0  0  0
 22 29  2  0  0  0  0
 22 26  1  0  0  0  0
 23 28  1  0  0  0  0
 25 22  1  0  0  0  0
 26 23  2  0  0  0  0
 27 24  1  0  0  0  0
 27 28  2  0  0  0  0
 28 20  1  0  0  0  0
 29 27  1  0  0  0  0
 30 31  3  0  0  0  0
M  END
>  <MODEL>
5

>  <REMARK>
 VINA RESULT:      -9.0      4.340      7.164
  Name = 
  3 active torsions:
  status: ('A' for Active; 'I' for Inactive)
    1  A    between atoms: C_2  and  C_13
    2  A    between atoms: C_9  and  C_22
    3  A    between atoms: C_15  and  N_23
                            x       y       z     vdW  Elec       q    Type
                         _______ _______ _______ _____ _____    ______ ____

>  <TORSDO>
F 3

$$$$
=
 OpenBabel10262419343D

 31 35  0  0  1  0  0  0  0  0999 V2000
  188.8350  177.7690  142.8120 C   0  0  0  0  0  0  0  0  0  0  0  0
  189.2820  177.8700  144.2550 C   0  0  2  0  0  3  0  0  0  0  0  0
  190.4580  176.5000  145.9560 C   0  0  0  0  0  0  0  0  0  0  0  0
  189.6900  177.5970  141.7970 C   0  0  0  0  0  0  0  0  0  0  0  0
  191.4790  177.4910  140.6160 C   0  0  0  0  0  0  0  0  0  0  0  0
  190.3010  176.8360  144.6690 C   0  0  0  0  0  3  0  0  0  0  0  0
  187.0180  178.2140  141.0180 C   0  0  0  0  0  0  0  0  0  0  0  0
  186.8760  178.1630  144.8480 C   0  0  0  0  0  3  0  0  0  0  0  0
  191.4310  175.6250  146.3040 F   0  0  0  0  0  0  0  0  0  0  0  0
  187.9410  178.0070  140.0640 C   0  0  0  0  0  3  0  0  0  0  0  0
  187.4200  178.0920  142.4540 C   0  0  0  0  0  0  0  0  0  0  0  0
  191.1060  177.4860  141.8650 N   0  0  0  0  0  0  0  0  0  0  0  0
  189.5350  177.0130  146.9930 C   0  0  0  0  0  3  0  0  0  0  0  0
  189.2650  177.6530  140.4600 N   0  0  0  0  0  0  0  0  0  0  0  0
  190.4080  177.6130  139.6670 N   0  0  0  0  0  2  0  0  0  0  0  0
  186.5220  178.2950  143.4250 C   0  0  0  0  0  3  0  0  0  0  0  0
  188.1290  177.9160  145.2370 C   0  0  0  0  0  0  0  0  0  0  0  0
  188.4200  177.6710  146.6570 C   0  0  0  0  0  3  0  0  0  0  0  0
  185.8480  178.6830  138.3600 O   0  0  0  0  0  0  0  0  0  0  0  0
  185.1160  178.7900  139.3790 C   0  0  0  0  0  0  0  0  0  0  0  0
  185.6630  178.5630  140.6880 N   0  0  0  0  0  2  0  0  0  0  0  0
  181.0540  179.9580  138.9930 C   0  0  0  0  0  0  0  0  0  0  0  0
  183.3760  180.4330  138.9240 N   0  0  0  0  0  0  0  0  0  0  0  0
  182.8560  176.5480  139.8950 Cl  0  0  0  0  0  0  0  0  0  0  0  0
  179.3910  180.4760  138.8260 Cl  0  0  0  0  0  0  0  0  0  0  0  0
  182.0940  180.8580  138.7880 C   0  0  0  0  0  3  0  0  0  0  0  0
  182.6190  178.2370  139.4630 C   0  0  0  0  0  0  0  0  0  0  0  0
  183.6840  179.1480  139.2570 C   0  0  0  0  0  0  0  0  0  0  0  0
  181.3390  178.6730  139.3250 N   0  0  0  0  0  0  0  0  0  0  0  0
  192.8570  177.4020  140.2240 C   0  0  0  0  0  0  0  0  0  0  0  0
  193.9670  177.3300  139.9080 N   0  0  0  0  0  0  0  0  0  0  0  0
  1  2  1  0  0  0  0
  2  6  1  1  0  0  0
  2 17  1  0  0  0  0
  3  9  1  0  0  0  0
  3 13  1  0  0  0  0
  4 12  1  0  0  0  0
  4  1  2  0  0  0  0
  5 12  2  0  0  0  0
  6  3  2  0  0  0  0
  7 11  1  0  0  0  0
  8 17  2  0  0  0  0
 10 14  1  0  0  0  0
 10  7  2  0  0  0  0
 11  1  1  0  0  0  0
 11 16  2  0  0  0  0
 14  4  1  0  0  0  0
 15 14  1  0  0  0  0
 15  5  1  0  0  0  0
 16  8  1  0  0  0  0
 17 18  1  0  0  0  0
 18 13  2  0  0  0  0
 19 20  2  0  0  0  0
 20 21  1  0  0  0  0
 21  7  1  0  0  0  0
 22 29  1  0  0  0  0
 23 28  2  0  0  0  0
 25 22  1  0  0  0  0
 26 23  1  0  0  0  0
 26 22  2  0  0  0  0
 27 24  1  0  0  0  0
 28 20  1  0  0  0  0
 28 27  1  0  0  0  0
 29 27  2  0  0  0  0
 30  5  1  0  0  0  0
 31 30  3  0  0  0  0
M  END
>  <MODEL>
6

>  <REMARK>
 VINA RESULT:      -8.9      2.088      2.258
  Name = 
  3 active torsions:
  status: ('A' for Active; 'I' for Inactive)
    1  A    between atoms: C_2  and  C_13
    2  A    between atoms: C_9  and  C_22
    3  A    between atoms: C_15  and  N_23
                            x       y       z     vdW  Elec       q    Type
                         _______ _______ _______ _____ _____    ______ ____

>  <TORSDO>
F 3

$$$$
=
 OpenBabel10262419343D

 31 35  0  0  0  0  0  0  0  0999 V2000
  187.2140  178.2710  139.3270 C   0  0  0  0  0  0  0  0  0  0  0  0
  187.8580  178.2880  137.9580 C   0  0  0  0  0  0  0  0  0  0  0  0
  187.5390  177.2690  135.7200 C   0  0  0  0  0  0  0  0  0  0  0  0
  185.9550  178.6680  139.5430 C   0  0  0  0  0  0  0  0  0  0  0  0
  184.0140  179.5550  139.3090 C   0  0  0  0  0  0  0  0  0  0  0  0
  186.9950  177.7330  136.8510 C   0  0  0  0  0  3  0  0  0  0  0  0
  187.4850  178.2140  141.9040 C   0  0  0  0  0  0  0  0  0  0  0  0
  189.9210  177.4110  139.0560 C   0  0  0  0  0  3  0  0  0  0  0  0
  186.7350  176.8460  134.7150 F   0  0  0  0  0  0  0  0  0  0  0  0
  186.2040  178.5990  142.0260 C   0  0  0  0  0  3  0  0  0  0  0  0
  188.0570  178.0160  140.5360 C   0  0  0  0  0  0  0  0  0  0  0  0
  185.0260  179.1630  138.5860 N   0  0  0  0  0  0  0  0  0  0  0  0
  189.0070  177.1390  135.5800 C   0  0  0  0  0  3  0  0  0  0  0  0
  185.4300  178.7800  140.8410 N   0  0  0  0  0  0  0  0  0  0  0  0
  184.1790  179.3780  140.7240 N   0  0  0  0  0  2  0  0  0  0  0  0
  189.3300  177.6350  140.3860 C   0  0  0  0  0  3  0  0  0  0  0  0
  189.2370  177.6580  137.9360 C   0  0  0  0  0  0  0  0  0  0  0  0
  189.8160  177.3060  136.6310 C   0  0  0  0  0  2  0  0  0  0  0  0
  188.2140  175.6720  143.1930 O   0  0  0  0  0  0  0  0  0  0  0  0
  188.6570  176.7500  143.6710 C   0  0  0  0  0  0  0  0  0  0  0  0
  188.3180  178.0040  143.0580 N   0  0  0  0  0  2  0  0  0  0  0  0
  191.2790  176.7180  147.0080 C   0  0  0  0  0  0  0  0  0  0  0  0
  190.8430  176.4230  144.6960 N   0  0  0  0  0  0  0  0  0  0  0  0
  187.4290  177.5250  146.5510 Cl  0  0  0  0  0  0  0  0  0  0  0  0
  192.3900  176.6940  148.3600 Cl  0  0  0  0  0  0  0  0  0  0  0  0
  191.7230  176.3980  145.7290 C   0  0  0  0  0  3  0  0  0  0  0  0
  189.0880  177.0780  146.1720 C   0  0  0  0  0  0  0  0  0  0  0  0
  189.5310  176.7530  144.8660 C   0  0  0  0  0  0  0  0  0  0  0  0
  189.9770  177.0500  147.1990 N   0  0  0  0  0  0  0  0  0  0  0  0
  182.8350  180.1370  138.7320 C   0  0  0  0  0  0  0  0  0  0  0  0
  181.8860  180.6060  138.2670 N   0  0  0  0  0  0  0  0  0  0  0  0
  1  4  2  0  0  0  0
  1 11  1  0  0  0  0
  2  1  1  0  0  0  0
  3  6  1  0  0  0  0
  4 14  1  0  0  0  0
  5 15  1  0  0  0  0
  6  2  2  0  0  0  0
  7 10  2  0  0  0  0
  7 21  1  0  0  0  0
  8 16  1  0  0  0  0
  9  3  1  0  0  0  0
 11  7  1  0  0  0  0
 12  5  2  0  0  0  0
 12  4  1  0  0  0  0
 13  3  2  0  0  0  0
 13 18  1  0  0  0  0
 14 10  1  0  0  0  0
 15 14  1  0  0  0  0
 16 11  2  0  0  0  0
 17  2  1  0  0  0  0
 17  8  2  0  0  0  0
 18 17  1  0  0  0  0
 19 20  2  0  0  0  0
 20 28  1  0  0  0  0
 21 20  1  0  0  0  0
 22 29  1  0  0  0  0
 22 25  1  0  0  0  0
 23 28  2  0  0  0  0
 23 26  1  0  0  0  0
 26 22  2  0  0  0  0
 27 24  1  0  0  0  0
 27 29  2  0  0  0  0
 28 27  1  0  0  0  0
 30  5  1  0  0  0  0
 31 30  3  0  0  0  0
M  END
>  <MODEL>
7

>  <REMARK>
 VINA RESULT:      -8.9      4.282      8.537
  Name = 
  3 active torsions:
  status: ('A' for Active; 'I' for Inactive)
    1  A    between atoms: C_2  and  C_13
    2  A    between atoms: C_9  and  C_22
    3  A    between atoms: C_15  and  N_23
                            x       y       z     vdW  Elec       q    Type
                         _______ _______ _______ _____ _____    ______ ____

>  <TORSDO>
F 3

$$$$
=
 OpenBabel10262419343D

 31 35  0  0  0  0  0  0  0  0999 V2000
  187.8580  177.7250  142.7450 C   0  0  0  0  0  0  0  0  0  0  0  0
  186.6120  178.5830  142.6980 C   0  0  0  0  0  0  0  0  0  0  0  0
  184.2950  178.5790  143.5810 C   0  0  0  0  0  0  0  0  0  0  0  0
  188.5010  177.4400  143.8830 C   0  0  0  0  0  0  0  0  0  0  0  0
  189.1750  177.4620  145.9210 C   0  0  0  0  0  0  0  0  0  0  0  0
  185.5820  178.2520  143.7500 C   0  0  0  0  0  3  0  0  0  0  0  0
  189.8900  176.6960  141.5070 C   0  0  0  0  0  0  0  0  0  0  0  0
  186.6290  178.2510  140.2250 C   0  0  0  0  0  3  0  0  0  0  0  0
  183.4070  178.3350  144.5750 F   0  0  0  0  0  0  0  0  0  0  0  0
  190.4540  176.4320  142.6970 C   0  0  0  0  0  3  0  0  0  0  0  0
  188.5450  177.3500  141.4710 C   0  0  0  0  0  0  0  0  0  0  0  0
  188.1680  177.8660  145.1990 N   0  0  0  0  0  0  0  0  0  0  0  0
  183.8140  179.1330  142.2960 C   0  0  0  0  0  3  0  0  0  0  0  0
  189.7330  176.7650  143.8830 N   0  0  0  0  0  0  0  0  0  0  0  0
  190.2090  176.7860  145.1910 N   0  0  0  0  0  2  0  0  0  0  0  0
  187.9610  177.6260  140.2990 C   0  0  0  0  0  3  0  0  0  0  0  0
  185.9800  178.6460  141.3220 C   0  0  0  0  0  0  0  0  0  0  0  0
  184.6030  179.1520  141.2170 C   0  0  0  0  0  2  0  0  0  0  0  0
  192.3460  177.8770  140.3990 O   0  0  0  0  0  0  0  0  0  0  0  0
  191.7560  176.9710  139.7530 C   0  0  0  0  0  0  0  0  0  0  0  0
  190.5570  176.3770  140.2740 N   0  0  0  0  0  2  0  0  0  0  0  0
  193.3880  175.5880  136.0870 C   0  0  0  0  0  0  0  0  0  0  0  0
  193.5740  176.0770  138.3990 N   0  0  0  0  0  0  0  0  0  0  0  0
  189.8330  176.9640  137.1640 Cl  0  0  0  0  0  0  0  0  0  0  0  0
  194.0950  175.0110  134.5940 Cl  0  0  0  0  0  0  0  0  0  0  0  0
  194.1440  175.6250  137.2540 C   0  0  0  0  0  3  0  0  0  0  0  0
  191.5150  176.4560  137.2580 C   0  0  0  0  0  0  0  0  0  0  0  0
  192.2790  176.4980  138.4500 C   0  0  0  0  0  0  0  0  0  0  0  0
  192.0960  176.0030  136.1160 N   0  0  0  0  0  0  0  0  0  0  0  0
  189.2490  177.6960  147.3360 C   0  0  0  0  0  0  0  0  0  0  0  0
  189.3100  177.8840  148.4760 N   0  0  0  0  0  0  0  0  0  0  0  0
  1  4  2  0  0  0  0
  2  1  1  0  0  0  0
  2  6  2  0  0  0  0
  3  6  1  0  0  0  0
  3  9  1  0  0  0  0
  4 12  1  0  0  0  0
  5 30  1  0  0  0  0
  7 10  2  0  0  0  0
  8 16  1  0  0  0  0
  8 17  2  0  0  0  0
 10 14  1  0  0  0  0
 11  7  1  0  0  0  0
 11  1  1  0  0  0  0
 12  5  2  0  0  0  0
 13  3  2  0  0  0  0
 14  4  1  0  0  0  0
 14 15  1  0  0  0  0
 15  5  1  0  0  0  0
 16 11  2  0  0  0  0
 17  2  1  0  0  0  0
 18 17  1  0  0  0  0
 18 13  1  0  0  0  0
 20 21  1  0  0  0  0
 20 19  2  0  0  0  0
 21  7  1  0  0  0  0
 22 29  2  0  0  0  0
 22 26  1  0  0  0  0
 23 28  1  0  0  0  0
 24 27  1  0  0  0  0
 25 22  1  0  0  0  0
 26 23  2  0  0  0  0
 27 28  2  0  0  0  0
 28 20  1  0  0  0  0
 29 27  1  0  0  0  0
 30 31  3  0  0  0  0
M  END
>  <MODEL>
8

>  <REMARK>
 VINA RESULT:      -8.7      4.577      8.420
  Name = 
  3 active torsions:
  status: ('A' for Active; 'I' for Inactive)
    1  A    between atoms: C_2  and  C_13
    2  A    between atoms: C_9  and  C_22
    3  A    between atoms: C_15  and  N_23
                            x       y       z     vdW  Elec       q    Type
                         _______ _______ _______ _____ _____    ______ ____

>  <TORSDO>
F 3

$$$$
=
 OpenBabel10262419343D

 31 35  0  0  0  0  0  0  0  0999 V2000
  189.2700  177.0510  145.0960 C   0  0  0  0  0  0  0  0  0  0  0  0
  188.2690  177.9430  145.7970 C   0  0  0  0  0  0  0  0  0  0  0  0
  186.7380  177.8760  147.7470 C   0  0  0  0  0  0  0  0  0  0  0  0
  190.3710  176.5830  145.6950 C   0  0  0  0  0  0  0  0  0  0  0  0
  191.9870  176.2850  147.0760 C   0  0  0  0  0  0  0  0  0  0  0  0
  187.8910  177.4900  147.1860 C   0  0  0  0  0  3  0  0  0  0  0  0
  190.2710  176.1570  142.8780 C   0  0  0  0  0  0  0  0  0  0  0  0
  186.9900  177.9790  143.6550 C   0  0  0  0  0  3  0  0  0  0  0  0
  186.4610  177.5150  149.0230 F   0  0  0  0  0  0  0  0  0  0  0  0
  191.3330  175.7040  143.5650 C   0  0  0  0  0  3  0  0  0  0  0  0
  189.1700  176.8480  143.6170 C   0  0  0  0  0  0  0  0  0  0  0  0
  190.7990  176.8200  147.0310 N   0  0  0  0  0  0  0  0  0  0  0  0
  185.7290  178.6280  146.9680 C   0  0  0  0  0  3  0  0  0  0  0  0
  191.3550  175.8790  144.9810 N   0  0  0  0  0  0  0  0  0  0  0  0
  192.4310  175.6940  145.8450 N   0  0  0  0  0  2  0  0  0  0  0  0
  188.1020  177.3110  142.9580 C   0  0  0  0  0  3  0  0  0  0  0  0
  187.0340  178.2260  144.9660 C   0  0  0  0  0  0  0  0  0  0  0  0
  185.8550  178.7830  145.6470 C   0  0  0  0  0  2  0  0  0  0  0  0
  191.4820  177.8260  140.7800 O   0  0  0  0  0  0  0  0  0  0  0  0
  190.7800  176.8350  140.4450 C   0  0  0  0  0  0  0  0  0  0  0  0
  190.1800  176.0030  141.4510 N   0  0  0  0  0  2  0  0  0  0  0  0
  189.9900  175.8900  136.3840 C   0  0  0  0  0  0  0  0  0  0  0  0
  189.2690  176.4030  138.5840 N   0  0  0  0  0  0  0  0  0  0  0  0
  193.3060  176.3780  138.4930 Cl  0  0  0  0  0  0  0  0  0  0  0  0
  189.6260  175.5020  134.7170 Cl  0  0  0  0  0  0  0  0  0  0  0  0
  188.9620  176.1040  137.2960 C   0  0  0  0  0  3  0  0  0  0  0  0
  191.5980  176.2840  138.0840 C   0  0  0  0  0  0  0  0  0  0  0  0
  190.5570  176.5030  139.0190 C   0  0  0  0  0  0  0  0  0  0  0  0
  191.2790  175.9850  136.7970 N   0  0  0  0  0  0  0  0  0  0  0  0
  192.7950  176.3050  148.2620 C   0  0  0  0  0  0  0  0  0  0  0  0
  193.4460  176.3220  149.2190 N   0  0  0  0  0  0  0  0  0  0  0  0
  1  4  2  0  0  0  0
  1  2  1  0  0  0  0
  2  6  2  0  0  0  0
  3  9  1  0  0  0  0
  4 12  1  0  0  0  0
  5 30  1  0  0  0  0
  6  3  1  0  0  0  0
  7 10  2  0  0  0  0
  7 11  1  0  0  0  0
  8 17  2  0  0  0  0
 10 14  1  0  0  0  0
 11  1  1  0  0  0  0
 12  5  2  0  0  0  0
 13  3  2  0  0  0  0
 14  4  1  0  0  0  0
 14 15  1  0  0  0  0
 15  5  1  0  0  0  0
 16 11  2  0  0  0  0
 16  8  1  0  0  0  0
 17 18  1  0  0  0  0
 17  2  1  0  0  0  0
 18 13  1  0  0  0  0
 20 19  2  0  0  0  0
 20 21  1  0  0  0  0
 21  7  1  0  0  0  0
 22 29  2  0  0  0  0
 22 26  1  0  0  0  0
 23 28  1  0  0  0  0
 25 22  1  0  0  0  0
 26 23  2  0  0  0  0
 27 24  1  0  0  0  0
 27 28  2  0  0  0  0
 28 20  1  0  0  0  0
 29 27  1  0  0  0  0
 30 31  3  0  0  0  0
M  END
>  <MODEL>
9

>  <REMARK>
 VINA RESULT:      -8.4      4.910      6.949
  Name = 
  3 active torsions:
  status: ('A' for Active; 'I' for Inactive)
    1  A    between atoms: C_2  and  C_13
    2  A    between atoms: C_9  and  C_22
    3  A    between atoms: C_15  and  N_23
                            x       y       z     vdW  Elec       q    Type
                         _______ _______ _______ _____ _____    ______ ____

>  <TORSDO>
F 3

$$$$
