=
 OpenBabel10262421173D

 32 34  0  0  1  0  0  0  0  0999 V2000
  189.2320  177.3860  138.7530 C   0  0  1  0  0  3  0  0  0  0  0  0
  188.7930  176.3210  141.4520 O   0  0  0  0  0  1  0  0  0  0  0  0
  188.6270  178.1190  139.8780 C   0  0  1  0  0  3  0  0  0  0  0  0
  188.8280  178.1170  137.4750 C   0  0  2  0  0  3  0  0  0  0  0  0
  190.6780  177.3980  139.1800 C   0  0  1  0  0  3  0  0  0  0  0  0
  187.2730  178.1980  137.3940 C   0  0  0  0  0  0  0  0  0  0  0  0
  187.1040  178.0320  139.7320 C   0  0  2  0  0  3  0  0  0  0  0  0
  186.7270  178.7720  138.5790 O   0  0  0  0  0  0  0  0  0  0  0  0
  190.6990  177.2820  140.5930 O   0  0  0  0  0  0  0  0  0  0  0  0
  186.9300  179.0110  136.3140 O   0  0  0  0  0  1  0  0  0  0  0  0
  189.3790  177.5270  141.0510 C   0  0  2  0  0  0  0  0  0  0  0  0
  186.7120  176.9320  137.1920 O   0  0  0  0  0  1  0  0  0  0  0  0
  191.0300  175.1250  138.6940 O   0  0  0  0  0  0  0  0  0  0  0  0
  191.4400  176.2660  138.5630 C   0  0  0  0  0  0  0  0  0  0  0  0
  192.7100  176.5200  137.8090 C   0  0  0  0  0  2  0  0  0  0  0  0
  193.8570  176.1190  138.6070 N   0  0  0  0  0  2  0  0  0  0  0  0
  193.9800  177.0250  139.6070 O   0  0  0  0  0  1  0  0  0  0  0  0
  189.1090  176.3370  136.0310 C   0  0  0  0  0  1  0  0  0  0  0  0
  189.4660  177.6690  136.2920 O   0  0  0  0  0  0  0  0  0  0  0  0
  186.3950  178.6330  140.9360 C   0  0  0  0  0  2  0  0  0  0  0  0
  185.3780  179.4880  140.5150 O   0  0  0  0  0  1  0  0  0  0  0  0
  189.4010  178.5280  142.2070 C   0  0  0  0  0  2  0  0  0  0  0  0
  189.3870  176.4490  147.5090 F   0  0  0  0  0  0  0  0  0  0  0  0
  188.2740  177.1240  145.5810 C   0  0  0  0  0  3  0  0  0  0  0  0
  189.4390  177.8780  143.5620 C   0  0  0  0  0  0  0  0  0  0  0  0
  190.6990  177.5250  145.7080 C   0  0  0  0  0  2  0  0  0  0  0  0
  188.2880  177.6970  144.2260 C   0  0  0  0  0  3  0  0  0  0  0  0
  190.7640  177.4270  144.1620 C   0  0  1  0  0  0  0  0  0  0  0  0
  190.9810  175.9670  143.7510 C   0  0  0  0  0  1  0  0  0  0  0  0
  189.4100  176.9860  146.2660 C   0  0  0  0  0  0  0  0  0  0  0  0
  191.7990  179.5010  144.3140 C   0  0  0  0  0  1  0  0  0  0  0  0
  191.7930  178.2600  143.6490 O   0  0  0  0  0  0  0  0  0  0  0  0
  1  5  1  0  0  0  0
  1  3  1  0  0  0  0
  3 11  1  0  0  0  0
  4  1  1  0  0  0  0
  5  9  1  0  0  0  0
  6  4  1  0  0  0  0
  6  8  1  0  0  0  0
  7  3  1  0  0  0  0
  7 20  1  0  0  0  0
  8  7  1  0  0  0  0
  9 11  1  0  0  0  0
 10  6  1  0  0  0  0
 11  2  1  0  0  0  0
 11 22  1  0  0  0  0
 12  6  1  0  0  0  0
 14 13  2  0  0  0  0
 14  5  1  0  0  0  0
 15 14  1  0  0  0  0
 15 16  1  0  0  0  0
 16 17  1  0  0  0  0
 18 19  1  0  0  0  0
 19  4  1  0  0  0  0
 21 20  1  0  0  0  0
 22 25  1  0  0  0  0
 24 30  2  0  0  0  0
 25 28  1  0  0  0  0
 25 27  2  0  0  0  0
 26 30  1  0  0  0  0
 27 24  1  0  0  0  0
 28 26  1  0  0  0  0
 29 28  1  0  0  0  0
 30 23  1  0  0  0  0
 32 28  1  0  0  0  0
 32 31  1  0  0  0  0
M  END
>  <MODEL>
1

>  <REMARK>
 VINA RESULT:      -7.7      0.000      0.000
  Name = 
  8 active torsions:
  status: ('A' for Active; 'I' for Inactive)
    1  A    between atoms: C_1  and  C_16
    2  A    between atoms: C_1  and  C_27
    3  A    between atoms: C_6  and  O_17
    4  A    between atoms: O_8  and  C_22
    5  A    between atoms: N_9  and  C_32
    6  A    between atoms: C_10  and  C_28
    7  A    between atoms: C_14  and  C_21
    8  A    between atoms: C_28  and  C_32
                            x       y       z     vdW  Elec       q    Type
                         _______ _______ _______ _____ _____    ______ ____

>  <TORSDO>
F 8

$$$$
=
 OpenBabel10262421173D

 32 34  0  0  1  0  0  0  0  0999 V2000
  187.6700  178.3370  139.8900 C   0  0  1  0  0  3  0  0  0  0  0  0
  189.2340  178.9570  142.2950 O   0  0  0  0  0  1  0  0  0  0  0  0
  188.8010  177.5480  140.4070 C   0  0  1  0  0  3  0  0  0  0  0  0
  187.4870  177.9490  138.4260 C   0  0  2  0  0  3  0  0  0  0  0  0
  186.6060  177.9580  140.8900 C   0  0  1  0  0  3  0  0  0  0  0  0
  188.8170  178.1980  137.6530 C   0  0  0  0  0  0  0  0  0  0  0  0
  190.0570  177.9640  139.6350 C   0  0  2  0  0  3  0  0  0  0  0  0
  189.9100  177.5380  138.2870 O   0  0  0  0  0  0  0  0  0  0  0  0
  187.2470  177.8070  142.1460 O   0  0  0  0  0  0  0  0  0  0  0  0
  188.6810  177.6820  136.3640 O   0  0  0  0  0  1  0  0  0  0  0  0
  188.6420  177.7530  141.8990 C   0  0  2  0  0  0  0  0  0  0  0  0
  189.0960  179.5660  137.5560 O   0  0  0  0  0  1  0  0  0  0  0  0
  185.6700  179.9240  141.7770 O   0  0  0  0  0  0  0  0  0  0  0  0
  185.5420  179.0070  140.9810 C   0  0  0  0  0  0  0  0  0  0  0  0
  184.3160  178.9300  140.1260 C   0  0  0  0  0  2  0  0  0  0  0  0
  184.1890  180.1310  139.3180 N   0  0  0  0  0  2  0  0  0  0  0  0
  182.9510  180.1110  138.7680 O   0  0  0  0  0  1  0  0  0  0  0  0
  185.5690  177.4200  137.2530 C   0  0  0  0  0  1  0  0  0  0  0  0
  186.3260  178.4680  137.8010 O   0  0  0  0  0  0  0  0  0  0  0  0
  191.3030  177.3070  140.2080 C   0  0  0  0  0  2  0  0  0  0  0  0
  192.1790  176.9630  139.1790 O   0  0  0  0  0  1  0  0  0  0  0  0
  189.2630  176.5730  142.6490 C   0  0  0  0  0  2  0  0  0  0  0  0
  189.7230  177.9130  148.1650 F   0  0  0  0  0  0  0  0  0  0  0  0
  188.4860  177.1510  146.3490 C   0  0  0  0  0  3  0  0  0  0  0  0
  189.4480  176.8280  144.1190 C   0  0  0  0  0  0  0  0  0  0  0  0
  190.7550  177.9990  145.9170 C   0  0  0  0  0  2  0  0  0  0  0  0
  188.3680  176.8430  144.9150 C   0  0  0  0  0  3  0  0  0  0  0  0
  190.8400  177.0560  144.6910 C   0  0  1  0  0  0  0  0  0  0  0  0
  191.3850  175.6920  145.1320 C   0  0  0  0  0  1  0  0  0  0  0  0
  189.6230  177.6420  146.8420 C   0  0  0  0  0  0  0  0  0  0  0  0
  191.9340  178.9730  143.9680 C   0  0  0  0  0  1  0  0  0  0  0  0
  191.6530  177.6250  143.6750 O   0  0  0  0  0  0  0  0  0  0  0  0
  1  3  1  0  0  0  0
  1  5  1  0  0  0  0
  3 11  1  0  0  0  0
  4  1  1  0  0  0  0
  5 14  1  0  0  0  0
  5  9  1  0  0  0  0
  6  8  1  0  0  0  0
  6  4  1  0  0  0  0
  7 20  1  0  0  0  0
  7  3  1  0  0  0  0
  8  7  1  0  0  0  0
 10  6  1  0  0  0  0
 11  9  1  0  0  0  0
 11  2  1  0  0  0  0
 11 22  1  0  0  0  0
 12  6  1  0  0  0  0
 14 13  2  0  0  0  0
 15 14  1  0  0  0  0
 16 15  1  0  0  0  0
 17 16  1  0  0  0  0
 18 19  1  0  0  0  0
 19  4  1  0  0  0  0
 21 20  1  0  0  0  0
 22 25  1  0  0  0  0
 24 30  2  0  0  0  0
 25 28  1  0  0  0  0
 25 27  2  0  0  0  0
 26 30  1  0  0  0  0
 27 24  1  0  0  0  0
 28 29  1  0  0  0  0
 28 26  1  0  0  0  0
 30 23  1  0  0  0  0
 32 31  1  0  0  0  0
 32 28  1  0  0  0  0
M  END
>  <MODEL>
2

>  <REMARK>
 VINA RESULT:      -7.5      2.351      4.501
  Name = 
  8 active torsions:
  status: ('A' for Active; 'I' for Inactive)
    1  A    between atoms: C_1  and  C_16
    2  A    between atoms: C_1  and  C_27
    3  A    between atoms: C_6  and  O_17
    4  A    between atoms: O_8  and  C_22
    5  A    between atoms: N_9  and  C_32
    6  A    between atoms: C_10  and  C_28
    7  A    between atoms: C_14  and  C_21
    8  A    between atoms: C_28  and  C_32
                            x       y       z     vdW  Elec       q    Type
                         _______ _______ _______ _____ _____    ______ ____

>  <TORSDO>
F 8

$$$$
=
 OpenBabel10262421173D

 32 34  0  0  1  0  0  0  0  0999 V2000
  184.9090  178.6940  141.5490 C   0  0  1  0  0  3  0  0  0  0  0  0
  187.5830  179.2560  142.6210 O   0  0  0  0  0  1  0  0  0  0  0  0
  186.1560  178.0170  141.1490 C   0  0  1  0  0  3  0  0  0  0  0  0
  183.8920  178.4480  140.4380 C   0  0  2  0  0  3  0  0  0  0  0  0
  184.6890  178.0630  142.9000 C   0  0  1  0  0  3  0  0  0  0  0  0
  184.4670  178.9620  139.0840 C   0  0  0  0  0  0  0  0  0  0  0  0
  186.6650  178.6860  139.8690 C   0  0  2  0  0  3  0  0  0  0  0  0
  185.7480  178.3950  138.8220 O   0  0  0  0  0  0  0  0  0  0  0  0
  185.9670  177.8650  143.4830 O   0  0  0  0  0  0  0  0  0  0  0  0
  183.6000  178.5780  138.0620 O   0  0  0  0  0  1  0  0  0  0  0  0
  186.9260  178.0330  142.4520 C   0  0  2  0  0  0  0  0  0  0  0  0
  184.5690  180.3580  139.0770 O   0  0  0  0  0  1  0  0  0  0  0  0
  182.6630  179.0640  143.5510 O   0  0  0  0  0  0  0  0  0  0  0  0
  183.8540  178.9380  143.7830 C   0  0  0  0  0  0  0  0  0  0  0  0
  184.4710  179.6750  144.9320 C   0  0  0  0  0  2  0  0  0  0  0  0
  184.2140  178.9710  146.1770 N   0  0  0  0  0  2  0  0  0  0  0  0
  185.3430  179.0590  146.9220 O   0  0  0  0  0  1  0  0  0  0  0  0
  181.6770  177.7990  140.5260 C   0  0  0  0  0  1  0  0  0  0  0  0
  182.5690  178.8660  140.7230 O   0  0  0  0  0  0  0  0  0  0  0  0
  188.0300  178.1500  139.4680 C   0  0  0  0  0  2  0  0  0  0  0  0
  188.7010  179.0870  138.6820 O   0  0  0  0  0  1  0  0  0  0  0  0
  187.9260  176.8750  142.4720 C   0  0  0  0  0  2  0  0  0  0  0  0
  191.3930  177.4990  146.9470 F   0  0  0  0  0  0  0  0  0  0  0  0
  189.3110  177.0080  146.0350 C   0  0  0  0  0  3  0  0  0  0  0  0
  188.8930  176.9380  143.6220 C   0  0  0  0  0  0  0  0  0  0  0  0
  191.0630  177.8360  144.5180 C   0  0  0  0  0  2  0  0  0  0  0  0
  188.4160  176.8860  144.8740 C   0  0  0  0  0  3  0  0  0  0  0  0
  190.3890  177.0510  143.3630 C   0  0  1  0  0  0  0  0  0  0  0  0
  190.9560  175.6270  143.3140 C   0  0  0  0  0  1  0  0  0  0  0  0
  190.5750  177.3990  145.8720 C   0  0  0  0  0  0  0  0  0  0  0  0
  191.8520  177.4250  141.5980 C   0  0  0  0  0  1  0  0  0  0  0  0
  190.5790  177.7180  142.1240 O   0  0  0  0  0  0  0  0  0  0  0  0
  1  5  1  0  0  0  0
  3  1  1  0  0  0  0
  3 11  1  0  0  0  0
  4 19  1  0  0  0  0
  4  1  1  0  0  0  0
  5  9  1  0  0  0  0
  5 14  1  0  0  0  0
  6  4  1  0  0  0  0
  7  3  1  0  0  0  0
  8  6  1  0  0  0  0
  8  7  1  0  0  0  0
 10  6  1  0  0  0  0
 11 22  1  0  0  0  0
 11  2  1  0  0  0  0
 11  9  1  0  0  0  0
 12  6  1  0  0  0  0
 13 14  2  0  0  0  0
 14 15  1  0  0  0  0
 15 16  1  0  0  0  0
 16 17  1  0  0  0  0
 18 19  1  0  0  0  0
 20  7  1  0  0  0  0
 21 20  1  0  0  0  0
 22 25  1  0  0  0  0
 25 27  2  0  0  0  0
 26 30  1  0  0  0  0
 27 24  1  0  0  0  0
 28 25  1  0  0  0  0
 28 26  1  0  0  0  0
 29 28  1  0  0  0  0
 30 24  2  0  0  0  0
 30 23  1  0  0  0  0
 31 32  1  0  0  0  0
 32 28  1  0  0  0  0
M  END
>  <MODEL>
3

>  <REMARK>
 VINA RESULT:      -7.4      3.406      5.695
  Name = 
  8 active torsions:
  status: ('A' for Active; 'I' for Inactive)
    1  A    between atoms: C_1  and  C_16
    2  A    between atoms: C_1  and  C_27
    3  A    between atoms: C_6  and  O_17
    4  A    between atoms: O_8  and  C_22
    5  A    between atoms: N_9  and  C_32
    6  A    between atoms: C_10  and  C_28
    7  A    between atoms: C_14  and  C_21
    8  A    between atoms: C_28  and  C_32
                            x       y       z     vdW  Elec       q    Type
                         _______ _______ _______ _____ _____    ______ ____

>  <TORSDO>
F 8

$$$$
=
 OpenBabel10262421173D

 32 34  0  0  1  0  0  0  0  0999 V2000
  187.6100  178.3190  140.3880 C   0  0  1  0  0  3  0  0  0  0  0  0
  189.3170  178.7080  142.7430 O   0  0  0  0  0  1  0  0  0  0  0  0
  188.6810  177.4110  140.8320 C   0  0  1  0  0  3  0  0  0  0  0  0
  187.3340  178.0010  138.9210 C   0  0  2  0  0  3  0  0  0  0  0  0
  186.5550  178.0050  141.4180 C   0  0  1  0  0  3  0  0  0  0  0  0
  188.6510  178.1520  138.1010 C   0  0  0  0  0  0  0  0  0  0  0  0
  189.9400  177.7360  140.0210 C   0  0  2  0  0  3  0  0  0  0  0  0
  189.7010  177.3730  138.6680 O   0  0  0  0  0  0  0  0  0  0  0  0
  187.2270  177.7520  142.6410 O   0  0  0  0  0  0  0  0  0  0  0  0
  188.4170  177.6960  136.8030 O   0  0  0  0  0  1  0  0  0  0  0  0
  188.6010  177.5780  142.3340 C   0  0  2  0  0  0  0  0  0  0  0  0
  189.0530  179.4920  138.0350 O   0  0  0  0  0  1  0  0  0  0  0  0
  185.2690  179.8010  140.6130 O   0  0  0  0  0  0  0  0  0  0  0  0
  185.5980  179.1440  141.5870 C   0  0  0  0  0  0  0  0  0  0  0  0
  185.0620  179.4980  142.9400 C   0  0  0  0  0  2  0  0  0  0  0  0
  184.0660  178.5240  143.3570 N   0  0  0  0  0  2  0  0  0  0  0  0
  182.8790  178.9270  142.8430 O   0  0  0  0  0  1  0  0  0  0  0  0
  185.3030  177.6890  137.8670 C   0  0  0  0  0  1  0  0  0  0  0  0
  186.2040  178.6460  138.3610 O   0  0  0  0  0  0  0  0  0  0  0  0
  191.1410  176.9480  140.5200 C   0  0  0  0  0  2  0  0  0  0  0  0
  192.2610  177.7750  140.5890 O   0  0  0  0  0  1  0  0  0  0  0  0
  189.1370  176.3200  143.0210 C   0  0  0  0  0  2  0  0  0  0  0  0
  191.8050  176.9340  148.0140 F   0  0  0  0  0  0  0  0  0  0  0  0
  191.8380  176.5810  145.7160 C   0  0  0  0  0  3  0  0  0  0  0  0
  189.8150  176.5970  144.3340 C   0  0  0  0  0  0  0  0  0  0  0  0
  189.6500  176.6170  146.8410 C   0  0  0  0  0  2  0  0  0  0  0  0
  191.1350  176.3870  144.4380 C   0  0  0  0  0  3  0  0  0  0  0  0
  189.0130  177.1170  145.5200 C   0  0  1  0  0  0  0  0  0  0  0  0
  189.0660  178.6480  145.4740 C   0  0  0  0  0  1  0  0  0  0  0  0
  191.1480  176.7470  146.8450 C   0  0  0  0  0  0  0  0  0  0  0  0
  186.7960  177.4890  146.1010 C   0  0  0  0  0  1  0  0  0  0  0  0
  187.6790  176.6490  145.3960 O   0  0  0  0  0  0  0  0  0  0  0  0
  1  3  1  0  0  0  0
  1  5  1  0  0  0  0
  3 11  1  0  0  0  0
  4  1  1  0  0  0  0
  5 14  1  0  0  0  0
  5  9  1  0  0  0  0
  6  8  1  0  0  0  0
  6  4  1  0  0  0  0
  7 20  1  0  0  0  0
  7  3  1  0  0  0  0
  8  7  1  0  0  0  0
 10  6  1  0  0  0  0
 11  9  1  0  0  0  0
 11  2  1  0  0  0  0
 11 22  1  0  0  0  0
 12  6  1  0  0  0  0
 13 14  2  0  0  0  0
 14 15  1  0  0  0  0
 15 16  1  0  0  0  0
 17 16  1  0  0  0  0
 18 19  1  0  0  0  0
 19  4  1  0  0  0  0
 20 21  1  0  0  0  0
 22 25  1  0  0  0  0
 24 30  2  0  0  0  0
 25 27  2  0  0  0  0
 25 28  1  0  0  0  0
 26 30  1  0  0  0  0
 27 24  1  0  0  0  0
 28 26  1  0  0  0  0
 29 28  1  0  0  0  0
 30 23  1  0  0  0  0
 32 28  1  0  0  0  0
 32 31  1  0  0  0  0
M  END
>  <MODEL>
4

>  <REMARK>
 VINA RESULT:      -7.2      2.648      4.980
  Name = 
  8 active torsions:
  status: ('A' for Active; 'I' for Inactive)
    1  A    between atoms: C_1  and  C_16
    2  A    between atoms: C_1  and  C_27
    3  A    between atoms: C_6  and  O_17
    4  A    between atoms: O_8  and  C_22
    5  A    between atoms: N_9  and  C_32
    6  A    between atoms: C_10  and  C_28
    7  A    between atoms: C_14  and  C_21
    8  A    between atoms: C_28  and  C_32
                            x       y       z     vdW  Elec       q    Type
                         _______ _______ _______ _____ _____    ______ ____

>  <TORSDO>
F 8

$$$$
=
 OpenBabel10262421173D

 32 34  0  0  1  0  0  0  0  0999 V2000
  188.8620  177.1550  145.5690 C   0  0  1  0  0  3  0  0  0  0  0  0
  188.3390  176.1930  142.8450 O   0  0  0  0  0  1  0  0  0  0  0  0
  189.6680  177.4690  144.3760 C   0  0  1  0  0  3  0  0  0  0  0  0
  189.7360  177.4420  146.7870 C   0  0  2  0  0  3  0  0  0  0  0  0
  187.6580  178.0240  145.3070 C   0  0  1  0  0  3  0  0  0  0  0  0
  191.0480  176.6060  146.6920 C   0  0  0  0  0  0  0  0  0  0  0  0
  190.8640  176.5120  144.3510 C   0  0  2  0  0  3  0  0  0  0  0  0
  191.7090  176.8290  145.4480 O   0  0  0  0  0  0  0  0  0  0  0  0
  187.4370  178.0250  143.9070 O   0  0  0  0  0  0  0  0  0  0  0  0
  191.9010  177.0070  147.7200 O   0  0  0  0  0  1  0  0  0  0  0  0
  188.6030  177.4900  143.3010 C   0  0  2  0  0  0  0  0  0  0  0  0
  190.7880  175.2390  146.8390 O   0  0  0  0  0  1  0  0  0  0  0  0
  186.0680  176.3640  145.8040 O   0  0  0  0  0  0  0  0  0  0  0  0
  186.4440  177.5050  146.0150 C   0  0  0  0  0  0  0  0  0  0  0  0
  185.6770  178.3790  146.9590 C   0  0  0  0  0  2  0  0  0  0  0  0
  185.0300  179.4580  146.2310 N   0  0  0  0  0  2  0  0  0  0  0  0
  183.8160  179.0010  145.8410 O   0  0  0  0  0  1  0  0  0  0  0  0
  189.0530  178.6460  148.6350 C   0  0  0  0  0  1  0  0  0  0  0  0
  189.0740  177.3750  148.0380 O   0  0  0  0  0  0  0  0  0  0  0  0
  191.6690  176.6630  143.0700 C   0  0  0  0  0  2  0  0  0  0  0  0
  192.1070  177.9800  142.9330 O   0  0  0  0  0  1  0  0  0  0  0  0
  189.0540  178.3870  142.1470 C   0  0  0  0  0  2  0  0  0  0  0  0
  185.3830  177.8370  137.8280 F   0  0  0  0  0  0  0  0  0  0  0  0
  185.9370  178.6280  139.9430 C   0  0  0  0  0  3  0  0  0  0  0  0
  188.1510  178.3190  140.9470 C   0  0  0  0  0  0  0  0  0  0  0  0
  187.5290  177.1170  138.8290 C   0  0  0  0  0  2  0  0  0  0  0  0
  186.8810  178.7320  141.0680 C   0  0  0  0  0  3  0  0  0  0  0  0
  188.6770  177.7980  139.6160 C   0  0  1  0  0  0  0  0  0  0  0  0
  189.1960  179.0030  138.8240 C   0  0  0  0  0  1  0  0  0  0  0  0
  186.2550  177.9170  138.8610 C   0  0  0  0  0  0  0  0  0  0  0  0
  190.6980  176.9320  138.8670 C   0  0  0  0  0  1  0  0  0  0  0  0
  189.7220  176.8730  139.8800 O   0  0  0  0  0  0  0  0  0  0  0  0
  1  4  1  0  0  0  0
  2 11  1  0  0  0  0
  3  1  1  0  0  0  0
  4 19  1  0  0  0  0
  5  1  1  0  0  0  0
  5 14  1  0  0  0  0
  6  4  1  0  0  0  0
  6 12  1  0  0  0  0
  6 10  1  0  0  0  0
  7  3  1  0  0  0  0
  7  8  1  0  0  0  0
  8  6  1  0  0  0  0
  9  5  1  0  0  0  0
 11  9  1  0  0  0  0
 11  3  1  0  0  0  0
 13 14  2  0  0  0  0
 14 15  1  0  0  0  0
 16 15  1  0  0  0  0
 17 16  1  0  0  0  0
 19 18  1  0  0  0  0
 20  7  1  0  0  0  0
 21 20  1  0  0  0  0
 22 11  1  0  0  0  0
 23 30  1  0  0  0  0
 24 27  1  0  0  0  0
 25 27  2  0  0  0  0
 25 22  1  0  0  0  0
 26 30  1  0  0  0  0
 26 28  1  0  0  0  0
 28 32  1  0  0  0  0
 28 25  1  0  0  0  0
 29 28  1  0  0  0  0
 30 24  2  0  0  0  0
 31 32  1  0  0  0  0
M  END
>  <MODEL>
5

>  <REMARK>
 VINA RESULT:      -7.0      3.717      8.136
  Name = 
  8 active torsions:
  status: ('A' for Active; 'I' for Inactive)
    1  A    between atoms: C_1  and  C_16
    2  A    between atoms: C_1  and  C_27
    3  A    between atoms: C_6  and  O_17
    4  A    between atoms: O_8  and  C_22
    5  A    between atoms: N_9  and  C_32
    6  A    between atoms: C_10  and  C_28
    7  A    between atoms: C_14  and  C_21
    8  A    between atoms: C_28  and  C_32
                            x       y       z     vdW  Elec       q    Type
                         _______ _______ _______ _____ _____    ______ ____

>  <TORSDO>
F 8

$$$$
=
 OpenBabel10262421173D

 32 34  0  0  1  0  0  0  0  0999 V2000
  184.4670  178.8000  141.6720 C   0  0  1  0  0  3  0  0  0  0  0  0
  186.8840  179.5020  143.1820 O   0  0  0  0  0  1  0  0  0  0  0  0
  185.7800  178.1440  141.5460 C   0  0  1  0  0  3  0  0  0  0  0  0
  183.6770  178.4650  140.4100 C   0  0  2  0  0  3  0  0  0  0  0  0
  184.0150  178.2310  142.9930 C   0  0  1  0  0  3  0  0  0  0  0  0
  184.4810  178.9290  139.1570 C   0  0  0  0  0  0  0  0  0  0  0  0
  186.5020  178.7640  140.3450 C   0  0  2  0  0  3  0  0  0  0  0  0
  185.8000  178.3910  139.1660 O   0  0  0  0  0  0  0  0  0  0  0  0
  185.1670  178.1040  143.8100 O   0  0  0  0  0  0  0  0  0  0  0  0
  183.8250  178.4650  138.0160 O   0  0  0  0  0  1  0  0  0  0  0  0
  186.2960  178.2500  142.9650 C   0  0  2  0  0  0  0  0  0  0  0  0
  184.5510  180.3250  139.0920 O   0  0  0  0  0  1  0  0  0  0  0  0
  183.3310  180.2580  143.9680 O   0  0  0  0  0  0  0  0  0  0  0  0
  183.0120  179.1210  143.6590 C   0  0  0  0  0  0  0  0  0  0  0  0
  181.6340  178.6240  143.9690 C   0  0  0  0  0  2  0  0  0  0  0  0
  180.6440  179.4060  143.2470 N   0  0  0  0  0  2  0  0  0  0  0  0
  179.5640  178.6080  143.0660 O   0  0  0  0  0  1  0  0  0  0  0  0
  181.4950  177.7330  140.2190 C   0  0  0  0  0  1  0  0  0  0  0  0
  182.3150  178.8540  140.4240 O   0  0  0  0  0  0  0  0  0  0  0  0
  187.9290  178.2530  140.2310 C   0  0  0  0  0  2  0  0  0  0  0  0
  188.6050  178.9410  139.2240 O   0  0  0  0  0  1  0  0  0  0  0  0
  187.3010  177.1280  143.2320 C   0  0  0  0  0  2  0  0  0  0  0  0
  189.7400  177.9910  148.3050 F   0  0  0  0  0  0  0  0  0  0  0  0
  187.9390  177.3150  146.9980 C   0  0  0  0  0  3  0  0  0  0  0  0
  188.0120  177.2610  144.5500 C   0  0  0  0  0  0  0  0  0  0  0  0
  189.8590  178.3510  145.8600 C   0  0  0  0  0  2  0  0  0  0  0  0
  187.3060  177.1310  145.6830 C   0  0  0  0  0  3  0  0  0  0  0  0
  189.5100  177.5300  144.5920 C   0  0  1  0  0  0  0  0  0  0  0  0
  190.2200  176.1730  144.6510 C   0  0  0  0  0  1  0  0  0  0  0  0
  189.1630  177.8360  147.0900 C   0  0  0  0  0  0  0  0  0  0  0  0
  190.9320  179.1280  143.6850 C   0  0  0  0  0  1  0  0  0  0  0  0
  189.8700  178.2430  143.4180 O   0  0  0  0  0  0  0  0  0  0  0  0
  1  5  1  0  0  0  0
  3  1  1  0  0  0  0
  3 11  1  0  0  0  0
  4 19  1  0  0  0  0
  4  1  1  0  0  0  0
  5 14  1  0  0  0  0
  5  9  1  0  0  0  0
  6  8  1  0  0  0  0
  6  4  1  0  0  0  0
  7  3  1  0  0  0  0
  8  7  1  0  0  0  0
 10  6  1  0  0  0  0
 11  2  1  0  0  0  0
 11 22  1  0  0  0  0
 11  9  1  0  0  0  0
 12  6  1  0  0  0  0
 14 13  2  0  0  0  0
 14 15  1  0  0  0  0
 16 15  1  0  0  0  0
 17 16  1  0  0  0  0
 18 19  1  0  0  0  0
 20  7  1  0  0  0  0
 21 20  1  0  0  0  0
 22 25  1  0  0  0  0
 24 30  2  0  0  0  0
 25 28  1  0  0  0  0
 25 27  2  0  0  0  0
 26 30  1  0  0  0  0
 27 24  1  0  0  0  0
 28 29  1  0  0  0  0
 28 26  1  0  0  0  0
 30 23  1  0  0  0  0
 32 31  1  0  0  0  0
 32 28  1  0  0  0  0
M  END
>  <MODEL>
6

>  <REMARK>
 VINA RESULT:      -7.0      3.730      6.284
  Name = 
  8 active torsions:
  status: ('A' for Active; 'I' for Inactive)
    1  A    between atoms: C_1  and  C_16
    2  A    between atoms: C_1  and  C_27
    3  A    between atoms: C_6  and  O_17
    4  A    between atoms: O_8  and  C_22
    5  A    between atoms: N_9  and  C_32
    6  A    between atoms: C_10  and  C_28
    7  A    between atoms: C_14  and  C_21
    8  A    between atoms: C_28  and  C_32
                            x       y       z     vdW  Elec       q    Type
                         _______ _______ _______ _____ _____    ______ ____

>  <TORSDO>
F 8

$$$$
=
 OpenBabel10262421173D

 32 34  0  0  1  0  0  0  0  0999 V2000
  187.1800  177.9780  139.7580 C   0  0  1  0  0  3  0  0  0  0  0  0
  187.8910  176.6790  142.2920 O   0  0  0  0  0  1  0  0  0  0  0  0
  187.1980  178.6260  141.0800 C   0  0  1  0  0  3  0  0  0  0  0  0
  186.3170  178.8450  138.8470 C   0  0  2  0  0  3  0  0  0  0  0  0
  188.6620  177.8820  139.4920 C   0  0  1  0  0  3  0  0  0  0  0  0
  184.8990  179.0050  139.4740 C   0  0  0  0  0  0  0  0  0  0  0  0
  185.7660  178.6230  141.6250 C   0  0  2  0  0  3  0  0  0  0  0  0
  184.9820  179.4880  140.8130 O   0  0  0  0  0  0  0  0  0  0  0  0
  189.2940  177.6290  140.7360 O   0  0  0  0  0  0  0  0  0  0  0  0
  184.1840  179.9330  138.7170 O   0  0  0  0  0  1  0  0  0  0  0  0
  188.3380  177.8890  141.7510 C   0  0  2  0  0  0  0  0  0  0  0  0
  184.2020  177.7920  139.4620 O   0  0  0  0  0  1  0  0  0  0  0  0
  188.0980  175.9950  138.2080 O   0  0  0  0  0  0  0  0  0  0  0  0
  188.9750  176.7810  138.5270 C   0  0  0  0  0  0  0  0  0  0  0  0
  190.3560  176.6220  137.9700 C   0  0  0  0  0  2  0  0  0  0  0  0
  191.0910  175.6220  138.7270 N   0  0  0  0  0  2  0  0  0  0  0  0
  191.1500  174.5070  137.9590 O   0  0  0  0  0  1  0  0  0  0  0  0
  187.2730  179.2590  136.7860 C   0  0  0  0  0  1  0  0  0  0  0  0
  186.3270  178.4850  137.4770 O   0  0  0  0  0  0  0  0  0  0  0  0
  185.7150  179.1370  143.0550 C   0  0  0  0  0  2  0  0  0  0  0  0
  185.0010  178.2490  143.8580 O   0  0  0  0  0  1  0  0  0  0  0  0
  188.9530  178.7730  142.8380 C   0  0  0  0  0  2  0  0  0  0  0  0
  190.7800  176.2210  147.5900 F   0  0  0  0  0  0  0  0  0  0  0  0
  189.0800  177.1320  146.2910 C   0  0  0  0  0  3  0  0  0  0  0  0
  189.4470  178.0000  144.0290 C   0  0  0  0  0  0  0  0  0  0  0  0
  191.3940  177.3820  145.4930 C   0  0  0  0  0  2  0  0  0  0  0  0
  188.6260  177.8250  145.0740 C   0  0  0  0  0  3  0  0  0  0  0  0
  190.8560  177.4220  144.0400 C   0  0  1  0  0  0  0  0  0  0  0  0
  190.7710  175.9950  143.4870 C   0  0  0  0  0  1  0  0  0  0  0  0
  190.3740  176.8680  146.4710 C   0  0  0  0  0  0  0  0  0  0  0  0
  192.1660  177.5020  142.1240 C   0  0  0  0  0  1  0  0  0  0  0  0
  191.6810  178.2380  143.2210 O   0  0  0  0  0  0  0  0  0  0  0  0
  1  3  1  0  0  0  0
  3  7  1  0  0  0  0
  3 11  1  0  0  0  0
  4  6  1  0  0  0  0
  4  1  1  0  0  0  0
  5  1  1  0  0  0  0
  5  9  1  0  0  0  0
  6  8  1  0  0  0  0
  7 20  1  0  0  0  0
  8  7  1  0  0  0  0
  9 11  1  0  0  0  0
 10  6  1  0  0  0  0
 11  2  1  0  0  0  0
 11 22  1  0  0  0  0
 12  6  1  0  0  0  0
 13 14  2  0  0  0  0
 14  5  1  0  0  0  0
 15 14  1  0  0  0  0
 15 16  1  0  0  0  0
 17 16  1  0  0  0  0
 18 19  1  0  0  0  0
 19  4  1  0  0  0  0
 20 21  1  0  0  0  0
 22 25  1  0  0  0  0
 24 30  2  0  0  0  0
 25 28  1  0  0  0  0
 25 27  2  0  0  0  0
 26 30  1  0  0  0  0
 27 24  1  0  0  0  0
 28 26  1  0  0  0  0
 29 28  1  0  0  0  0
 30 23  1  0  0  0  0
 31 32  1  0  0  0  0
 32 28  1  0  0  0  0
M  END
>  <MODEL>
7

>  <REMARK>
 VINA RESULT:      -7.0      1.557      2.397
  Name = 
  8 active torsions:
  status: ('A' for Active; 'I' for Inactive)
    1  A    between atoms: C_1  and  C_16
    2  A    between atoms: C_1  and  C_27
    3  A    between atoms: C_6  and  O_17
    4  A    between atoms: O_8  and  C_22
    5  A    between atoms: N_9  and  C_32
    6  A    between atoms: C_10  and  C_28
    7  A    between atoms: C_14  and  C_21
    8  A    between atoms: C_28  and  C_32
                            x       y       z     vdW  Elec       q    Type
                         _______ _______ _______ _____ _____    ______ ____

>  <TORSDO>
F 8

$$$$
=
 OpenBabel10262421173D

 32 34  0  0  1  0  0  0  0  0999 V2000
  186.6610  178.2190  141.7780 C   0  0  1  0  0  3  0  0  0  0  0  0
  187.7080  176.3960  143.8260 O   0  0  0  0  0  1  0  0  0  0  0  0
  186.5440  178.4040  143.2350 C   0  0  1  0  0  3  0  0  0  0  0  0
  185.5980  179.1000  141.1290 C   0  0  2  0  0  3  0  0  0  0  0  0
  188.1170  178.5630  141.5870 C   0  0  1  0  0  3  0  0  0  0  0  0
  184.1940  178.7170  141.6880 C   0  0  0  0  0  0  0  0  0  0  0  0
  185.1640  177.8940  143.6640 C   0  0  2  0  0  3  0  0  0  0  0  0
  184.1810  178.7590  143.1130 O   0  0  0  0  0  0  0  0  0  0  0  0
  188.8130  178.0890  142.7280 O   0  0  0  0  0  0  0  0  0  0  0  0
  183.2630  179.6400  141.2130 O   0  0  0  0  0  1  0  0  0  0  0  0
  187.8390  177.7840  143.7130 C   0  0  2  0  0  0  0  0  0  0  0  0
  183.8120  177.4400  141.2600 O   0  0  0  0  0  1  0  0  0  0  0  0
  188.7830  176.7130  140.2970 O   0  0  0  0  0  0  0  0  0  0  0  0
  188.6720  177.9270  140.3500 C   0  0  0  0  0  0  0  0  0  0  0  0
  189.1110  178.7660  139.1900 C   0  0  0  0  0  2  0  0  0  0  0  0
  188.4990  178.2870  137.9620 N   0  0  0  0  0  2  0  0  0  0  0  0
  188.2860  179.3700  137.1760 O   0  0  0  0  0  1  0  0  0  0  0  0
  185.2370  178.0030  139.1290 C   0  0  0  0  0  1  0  0  0  0  0  0
  185.6720  179.2020  139.7180 O   0  0  0  0  0  0  0  0  0  0  0  0
  185.0140  177.9060  145.1770 C   0  0  0  0  0  2  0  0  0  0  0  0
  184.1820  178.9540  145.5680 O   0  0  0  0  0  1  0  0  0  0  0  0
  188.2400  178.4000  145.0550 C   0  0  0  0  0  2  0  0  0  0  0  0
  192.7470  175.5970  147.1180 F   0  0  0  0  0  0  0  0  0  0  0  0
  191.7400  176.9220  145.4940 C   0  0  0  0  0  3  0  0  0  0  0  0
  189.4400  177.7450  145.6810 C   0  0  0  0  0  0  0  0  0  0  0  0
  190.3160  176.0250  147.2900 C   0  0  0  0  0  2  0  0  0  0  0  0
  190.5580  177.6120  144.9530 C   0  0  0  0  0  3  0  0  0  0  0  0
  189.3840  177.2520  147.1200 C   0  0  1  0  0  0  0  0  0  0  0  0
  189.8740  178.3940  148.0170 C   0  0  0  0  0  1  0  0  0  0  0  0
  191.6510  176.2200  146.6230 C   0  0  0  0  0  0  0  0  0  0  0  0
  187.5930  177.6170  148.5530 C   0  0  0  0  0  1  0  0  0  0  0  0
  188.0400  176.9070  147.4220 O   0  0  0  0  0  0  0  0  0  0  0  0
  1  3  1  0  0  0  0
  3  7  1  0  0  0  0
  3 11  1  0  0  0  0
  4  6  1  0  0  0  0
  4  1  1  0  0  0  0
  5  1  1  0  0  0  0
  5  9  1  0  0  0  0
  6  8  1  0  0  0  0
  7 20  1  0  0  0  0
  8  7  1  0  0  0  0
  9 11  1  0  0  0  0
 10  6  1  0  0  0  0
 11  2  1  0  0  0  0
 11 22  1  0  0  0  0
 12  6  1  0  0  0  0
 13 14  2  0  0  0  0
 14  5  1  0  0  0  0
 15 14  1  0  0  0  0
 16 15  1  0  0  0  0
 17 16  1  0  0  0  0
 18 19  1  0  0  0  0
 19  4  1  0  0  0  0
 20 21  1  0  0  0  0
 22 25  1  0  0  0  0
 24 30  2  0  0  0  0
 25 28  1  0  0  0  0
 27 24  1  0  0  0  0
 27 25  2  0  0  0  0
 28 26  1  0  0  0  0
 28 32  1  0  0  0  0
 28 29  1  0  0  0  0
 30 23  1  0  0  0  0
 30 26  1  0  0  0  0
 32 31  1  0  0  0  0
M  END
>  <MODEL>
8

>  <REMARK>
 VINA RESULT:      -6.6      2.545      4.395
  Name = 
  8 active torsions:
  status: ('A' for Active; 'I' for Inactive)
    1  A    between atoms: C_1  and  C_16
    2  A    between atoms: C_1  and  C_27
    3  A    between atoms: C_6  and  O_17
    4  A    between atoms: O_8  and  C_22
    5  A    between atoms: N_9  and  C_32
    6  A    between atoms: C_10  and  C_28
    7  A    between atoms: C_14  and  C_21
    8  A    between atoms: C_28  and  C_32
                            x       y       z     vdW  Elec       q    Type
                         _______ _______ _______ _____ _____    ______ ____

>  <TORSDO>
F 8

$$$$
=
 OpenBabel10262421173D

 32 34  0  0  1  0  0  0  0  0999 V2000
  186.7320  178.0860  138.7400 C   0  0  1  0  0  3  0  0  0  0  0  0
  188.9050  179.3980  140.2120 O   0  0  0  0  0  1  0  0  0  0  0  0
  188.0530  177.5000  139.0250 C   0  0  1  0  0  3  0  0  0  0  0  0
  186.1310  177.2920  137.5830 C   0  0  2  0  0  3  0  0  0  0  0  0
  186.1000  177.9840  140.1060 C   0  0  1  0  0  3  0  0  0  0  0  0
  187.1020  177.3380  136.3640 C   0  0  0  0  0  0  0  0  0  0  0  0
  188.9350  177.7050  137.7890 C   0  0  2  0  0  3  0  0  0  0  0  0
  188.4100  176.9100  136.7340 O   0  0  0  0  0  0  0  0  0  0  0  0
  187.1260  178.2120  141.0590 O   0  0  0  0  0  0  0  0  0  0  0  0
  186.6180  176.4740  135.3830 O   0  0  0  0  0  1  0  0  0  0  0  0
  188.3620  178.1180  140.3720 C   0  0  2  0  0  0  0  0  0  0  0  0
  187.1730  178.6280  135.8240 O   0  0  0  0  0  1  0  0  0  0  0  0
  184.9290  179.9320  139.5050 O   0  0  0  0  0  0  0  0  0  0  0  0
  185.0080  178.9930  140.2810 C   0  0  0  0  0  0  0  0  0  0  0  0
  184.0290  178.8740  141.4080 C   0  0  0  0  0  2  0  0  0  0  0  0
  184.6530  179.2720  142.6590 N   0  0  0  0  0  2  0  0  0  0  0  0
  184.2020  178.4240  143.6140 O   0  0  0  0  0  1  0  0  0  0  0  0
  183.9690  176.4820  137.5910 C   0  0  0  0  0  1  0  0  0  0  0  0
  184.7790  177.5870  137.2820 O   0  0  0  0  0  0  0  0  0  0  0  0
  190.3670  177.2660  138.0490 C   0  0  0  0  0  2  0  0  0  0  0  0
  190.8900  176.6420  136.9170 O   0  0  0  0  0  1  0  0  0  0  0  0
  189.3260  177.2150  141.1440 C   0  0  0  0  0  2  0  0  0  0  0  0
  187.9080  177.2690  146.6590 F   0  0  0  0  0  0  0  0  0  0  0  0
  187.4380  176.7620  144.4390 C   0  0  0  0  0  3  0  0  0  0  0  0
  189.0300  177.1420  142.6160 C   0  0  0  0  0  0  0  0  0  0  0  0
  189.4750  178.0580  144.9130 C   0  0  0  0  0  2  0  0  0  0  0  0
  187.7990  176.7870  143.0120 C   0  0  0  0  0  3  0  0  0  0  0  0
  190.1150  177.4600  143.6350 C   0  0  1  0  0  0  0  0  0  0  0  0
  190.8180  176.1420  143.9840 C   0  0  0  0  0  1  0  0  0  0  0  0
  188.2460  177.3070  145.3480 C   0  0  0  0  0  0  0  0  0  0  0  0
  191.3560  179.3950  143.9690 C   0  0  0  0  0  1  0  0  0  0  0  0
  191.0230  178.3810  143.0500 O   0  0  0  0  0  0  0  0  0  0  0  0
  1  3  1  0  0  0  0
  1  5  1  0  0  0  0
  2 11  1  0  0  0  0
  3 11  1  0  0  0  0
  4  1  1  0  0  0  0
  5 14  1  0  0  0  0
  5  9  1  0  0  0  0
  6  8  1  0  0  0  0
  6  4  1  0  0  0  0
  7 20  1  0  0  0  0
  7  3  1  0  0  0  0
  8  7  1  0  0  0  0
 10  6  1  0  0  0  0
 11  9  1  0  0  0  0
 11 22  1  0  0  0  0
 12  6  1  0  0  0  0
 13 14  2  0  0  0  0
 14 15  1  0  0  0  0
 15 16  1  0  0  0  0
 16 17  1  0  0  0  0
 19  4  1  0  0  0  0
 19 18  1  0  0  0  0
 21 20  1  0  0  0  0
 22 25  1  0  0  0  0
 24 30  2  0  0  0  0
 25 27  2  0  0  0  0
 25 28  1  0  0  0  0
 26 30  1  0  0  0  0
 27 24  1  0  0  0  0
 28 29  1  0  0  0  0
 28 26  1  0  0  0  0
 30 23  1  0  0  0  0
 32 28  1  0  0  0  0
 32 31  1  0  0  0  0
M  END
>  <MODEL>
9

>  <REMARK>
 VINA RESULT:      -6.5      2.477      4.597
  Name = 
  8 active torsions:
  status: ('A' for Active; 'I' for Inactive)
    1  A    between atoms: C_1  and  C_16
    2  A    between atoms: C_1  and  C_27
    3  A    between atoms: C_6  and  O_17
    4  A    between atoms: O_8  and  C_22
    5  A    between atoms: N_9  and  C_32
    6  A    between atoms: C_10  and  C_28
    7  A    between atoms: C_14  and  C_21
    8  A    between atoms: C_28  and  C_32
                            x       y       z     vdW  Elec       q    Type
                         _______ _______ _______ _____ _____    ______ ____

>  <TORSDO>
F 8

$$$$
