=
 OpenBabel10262423053D

 37 39  0  0  1  0  0  0  0  0999 V2000
  184.3220  180.1840  139.1000 O   0  0  0  0  0  1  0  0  0  0  0  0
  183.8250  178.8740  139.1190 C   0  0  1  0  0  0  0  0  0  0  0  0
  179.1670  178.6350  140.6230 O   0  0  0  0  0  1  0  0  0  0  0  0
  181.6500  179.5240  137.6770 C   0  0  0  0  0  2  0  0  0  0  0  0
  181.7710  180.4080  138.9100 C   0  0  2  0  0  3  0  0  0  0  0  0
  180.4580  179.1530  140.5380 C   0  0  0  0  0  0  0  0  0  0  0  0
  182.2860  178.9770  138.9410 C   0  0  2  0  0  0  0  0  0  0  0  0
  180.9380  179.4400  141.8150 O   0  0  0  0  0  1  0  0  0  0  0  0
  180.4680  180.4070  139.6890 C   0  0  0  0  0  2  0  0  0  0  0  0
  181.3770  178.1640  139.8530 C   0  0  0  0  0  2  0  0  0  0  0  0
  184.5270  178.0650  137.9880 C   0  0  2  0  0  3  0  0  0  0  0  0
  183.4440  175.9600  137.0740 C   0  0  0  0  0  0  0  0  0  0  0  0
  184.2190  176.5830  137.9620 C   0  0  0  0  0  3  0  0  0  0  0  0
  182.7920  176.6550  136.0660 O   0  0  0  0  0  1  0  0  0  0  0  0
  183.2600  174.4890  137.1780 C   0  0  0  0  0  1  0  0  0  0  0  0
  186.0200  178.3660  137.8510 C   0  0  0  0  0  2  0  0  0  0  0  0
  186.7430  177.2000  137.1990 C   0  0  0  0  0  2  0  0  0  0  0  0
  187.9620  177.7540  139.1250 C   0  0  0  0  0  2  0  0  0  0  0  0
  187.9400  176.8780  137.9550 N   0  0  0  0  0  0  0  0  0  0  0  0
  189.0780  177.2190  137.1000 C   0  0  0  0  0  2  0  0  0  0  0  0
  190.6160  175.4490  138.0060 C   0  0  0  0  0  1  0  0  0  0  0  0
  190.4560  177.6800  139.1550 C   0  0  0  0  0  2  0  0  0  0  0  0
  190.4040  176.9400  137.8160 C   0  0  2  0  0  3  0  0  0  0  0  0
  189.1890  177.4450  139.9770 C   0  0  0  0  0  2  0  0  0  0  0  0
  184.0980  178.2510  140.5000 C   0  0  0  0  0  2  0  0  0  0  0  0
  184.8150  179.2010  141.4530 C   0  0  0  0  0  2  0  0  0  0  0  0
  186.0020  178.5140  142.1030 C   0  0  0  0  0  2  0  0  0  0  0  0
  185.6700  178.0520  143.5190 C   0  0  2  0  0  3  0  0  0  0  0  0
  184.8300  179.1370  144.1730 C   0  0  0  0  0  1  0  0  0  0  0  0
  186.5860  177.2780  145.7320 C   0  0  0  0  0  1  0  0  0  0  0  0
  186.9410  177.7860  144.3410 C   0  0  1  0  0  3  0  0  0  0  0  0
  189.1620  176.7870  143.7310 C   0  0  0  0  0  0  0  0  0  0  0  0
  187.8230  176.7680  143.6720 C   0  0  0  0  0  3  0  0  0  0  0  0
  189.9230  175.7040  143.0490 C   0  0  0  0  0  1  0  0  0  0  0  0
  189.9230  177.8350  144.4860 C   0  0  0  0  0  2  0  0  0  0  0  0
  190.3890  177.2960  145.8260 C   0  0  0  0  0  2  0  0  0  0  0  0
  191.7820  177.2690  145.8570 O   0  0  0  0  0  1  0  0  0  0  0  0
  2  1  1  6  0  0  0
  2 25  1  0  0  0  0
  4  7  1  0  0  0  0
  5  4  1  6  0  0  0
  5  7  1  0  0  0  0
  5  9  1  0  0  0  0
  6  3  1  0  0  0  0
  6  8  1  0  0  0  0
  7  2  1  1  0  0  0
  7 10  1  0  0  0  0
  9  6  1  0  0  0  0
 10  6  1  0  0  0  0
 11 16  1  1  0  0  0
 11  2  1  0  0  0  0
 12 15  1  0  0  0  0
 12 13  2  0  0  0  0
 13 11  1  0  0  0  0
 14 12  1  0  0  0  0
 17 16  1  0  0  0  0
 17 19  1  0  0  0  0
 18 24  1  0  0  0  0
 19 18  1  0  0  0  0
 20 23  1  0  0  0  0
 20 19  1  0  0  0  0
 22 24  1  0  0  0  0
 23 21  1  1  0  0  0
 23 22  1  0  0  0  0
 25 26  1  0  0  0  0
 26 27  1  0  0  0  0
 27 28  1  0  0  0  0
 28 29  1  1  0  0  0
 28 31  1  0  0  0  0
 31 30  1  1  0  0  0
 32 35  1  0  0  0  0
 33 32  2  0  0  0  0
 33 31  1  0  0  0  0
 34 32  1  0  0  0  0
 35 36  1  0  0  0  0
 36 37  1  0  0  0  0
M  END
>  <MODEL>
1

>  <REMARK>
 VINA RESULT:      -7.1      0.000      0.000
  Name = 
  14 active torsions:
  status: ('A' for Active; 'I' for Inactive)
    1  A    between atoms: C_1  and  C_5
    2  A    between atoms: C_1  and  C_36
    3  A    between atoms: C_5  and  C_17
    4  A    between atoms: N_6  and  C_31
    5  A    between atoms: C_7  and  C_33
    6  A    between atoms: C_10  and  C_14
    7  A    between atoms: C_10  and  C_20
    8  A    between atoms: C_10  and  C_22
    9  A    between atoms: C_11  and  C_33
   10  A    between atoms: C_14  and  C_31
   11  A    between atoms: C_17  and  C_26
   12  A    between atoms: C_20  and  C_24
   13  A    between atoms: C_20  and  C_29
   14  A    between atoms: C_29  and  C_36
                            x       y       z     vdW  Elec       q    Type
                         _______ _______ _______ _____ _____    ______ ____

>  <TORSDO>
F 14

$$$$
=
 OpenBabel10262423053D

 37 39  0  0  1  0  0  0  0  0999 V2000
  184.4380  180.1070  139.1940 O   0  0  0  0  0  1  0  0  0  0  0  0
  183.9520  178.7930  139.1700 C   0  0  1  0  0  0  0  0  0  0  0  0
  179.3380  178.5250  140.7980 O   0  0  0  0  0  1  0  0  0  0  0  0
  181.7360  179.4380  137.7900 C   0  0  0  0  0  2  0  0  0  0  0  0
  181.8860  180.3170  139.0230 C   0  0  2  0  0  3  0  0  0  0  0  0
  180.6240  179.0490  140.6800 C   0  0  0  0  0  0  0  0  0  0  0  0
  182.4080  178.8890  139.0340 C   0  0  2  0  0  0  0  0  0  0  0  0
  181.1360  179.3340  141.9460 O   0  0  0  0  0  1  0  0  0  0  0  0
  180.6040  180.3070  139.8370 C   0  0  0  0  0  2  0  0  0  0  0  0
  181.5280  178.0680  139.9670 C   0  0  0  0  0  2  0  0  0  0  0  0
  184.6320  178.0380  137.9900 C   0  0  2  0  0  3  0  0  0  0  0  0
  183.5230  175.9820  137.0000 C   0  0  0  0  0  0  0  0  0  0  0  0
  184.3200  176.5600  137.8980 C   0  0  0  0  0  3  0  0  0  0  0  0
  182.8490  176.7270  136.0420 O   0  0  0  0  0  1  0  0  0  0  0  0
  183.3380  174.5080  137.0360 C   0  0  0  0  0  1  0  0  0  0  0  0
  186.1240  178.3420  137.8420 C   0  0  0  0  0  2  0  0  0  0  0  0
  186.8530  177.1600  137.2280 C   0  0  0  0  0  2  0  0  0  0  0  0
  187.9860  177.6780  139.2160 C   0  0  0  0  0  2  0  0  0  0  0  0
  188.0320  176.8450  138.0160 N   0  0  0  0  0  0  0  0  0  0  0  0
  189.1890  177.2500  137.2150 C   0  0  0  0  0  2  0  0  0  0  0  0
  190.7470  175.4930  138.1130 C   0  0  0  0  0  1  0  0  0  0  0  0
  190.4780  177.6750  139.3340 C   0  0  0  0  0  2  0  0  0  0  0  0
  190.4960  176.9840  137.9680 C   0  0  2  0  0  3  0  0  0  0  0  0
  189.1910  177.3730  140.1010 C   0  0  0  0  0  2  0  0  0  0  0  0
  184.2640  178.1160  140.5180 C   0  0  0  0  0  2  0  0  0  0  0  0
  184.8410  179.0780  141.5500 C   0  0  0  0  0  2  0  0  0  0  0  0
  186.0390  178.4600  142.2490 C   0  0  0  0  0  2  0  0  0  0  0  0
  185.6550  177.8970  143.6140 C   0  0  2  0  0  3  0  0  0  0  0  0
  184.9090  178.9830  144.3690 C   0  0  0  0  0  1  0  0  0  0  0  0
  188.1700  177.8970  143.7160 C   0  0  0  0  0  1  0  0  0  0  0  0
  186.8920  177.4410  144.4060 C   0  0  1  0  0  3  0  0  0  0  0  0
  187.8200  177.7230  146.7210 C   0  0  0  0  0  0  0  0  0  0  0  0
  186.8810  177.9940  145.8050 C   0  0  0  0  0  3  0  0  0  0  0  0
  187.7120  178.3570  148.0640 C   0  0  0  0  0  1  0  0  0  0  0  0
  188.9950  176.8360  146.4370 C   0  0  0  0  0  2  0  0  0  0  0  0
  190.1640  177.1930  147.3380 C   0  0  0  0  0  2  0  0  0  0  0  0
  191.0770  176.1410  147.3530 O   0  0  0  0  0  1  0  0  0  0  0  0
  2  1  1  1  0  0  0
  2 25  1  0  0  0  0
  4  7  1  0  0  0  0
  5  4  1  6  0  0  0
  5  7  1  0  0  0  0
  5  9  1  0  0  0  0
  6  3  1  0  0  0  0
  6  8  1  0  0  0  0
  7  2  1  6  0  0  0
  7 10  1  0  0  0  0
  9  6  1  0  0  0  0
 10  6  1  0  0  0  0
 11 16  1  1  0  0  0
 11  2  1  0  0  0  0
 12 15  1  0  0  0  0
 12 13  2  0  0  0  0
 13 11  1  0  0  0  0
 14 12  1  0  0  0  0
 17 16  1  0  0  0  0
 17 19  1  0  0  0  0
 18 24  1  0  0  0  0
 19 18  1  0  0  0  0
 20 23  1  0  0  0  0
 20 19  1  0  0  0  0
 22 24  1  0  0  0  0
 23 21  1  1  0  0  0
 23 22  1  0  0  0  0
 25 26  1  0  0  0  0
 26 27  1  0  0  0  0
 27 28  1  0  0  0  0
 28 29  1  1  0  0  0
 28 31  1  0  0  0  0
 31 30  1  6  0  0  0
 31 33  1  0  0  0  0
 32 34  1  0  0  0  0
 33 32  2  0  0  0  0
 35 32  1  0  0  0  0
 35 36  1  0  0  0  0
 36 37  1  0  0  0  0
M  END
>  <MODEL>
2

>  <REMARK>
 VINA RESULT:      -6.6      0.799      1.430
  Name = 
  14 active torsions:
  status: ('A' for Active; 'I' for Inactive)
    1  A    between atoms: C_1  and  C_5
    2  A    between atoms: C_1  and  C_36
    3  A    between atoms: C_5  and  C_17
    4  A    between atoms: N_6  and  C_31
    5  A    between atoms: C_7  and  C_33
    6  A    between atoms: C_10  and  C_14
    7  A    between atoms: C_10  and  C_20
    8  A    between atoms: C_10  and  C_22
    9  A    between atoms: C_11  and  C_33
   10  A    between atoms: C_14  and  C_31
   11  A    between atoms: C_17  and  C_26
   12  A    between atoms: C_20  and  C_24
   13  A    between atoms: C_20  and  C_29
   14  A    between atoms: C_29  and  C_36
                            x       y       z     vdW  Elec       q    Type
                         _______ _______ _______ _____ _____    ______ ____

>  <TORSDO>
F 14

$$$$
=
 OpenBabel10262423053D

 37 39  0  0  1  0  0  0  0  0999 V2000
  184.5660  180.0340  139.5570 O   0  0  0  0  0  1  0  0  0  0  0  0
  183.7310  178.9130  139.4580 C   0  0  1  0  0  0  0  0  0  0  0  0
  179.8520  181.0280  137.3390 O   0  0  0  0  0  1  0  0  0  0  0  0
  181.2860  179.2020  140.5400 C   0  0  0  0  0  2  0  0  0  0  0  0
  181.2280  178.3470  139.2830 C   0  0  2  0  0  3  0  0  0  0  0  0
  180.7960  180.0290  137.5700 C   0  0  0  0  0  0  0  0  0  0  0  0
  182.2730  179.4440  139.4130 C   0  0  2  0  0  0  0  0  0  0  0  0
  181.3080  179.5720  136.3560 O   0  0  0  0  0  1  0  0  0  0  0  0
  180.1700  178.8790  138.3320 C   0  0  0  0  0  2  0  0  0  0  0  0
  181.9180  180.5580  138.4370 C   0  0  0  0  0  2  0  0  0  0  0  0
  184.1360  178.1070  138.1880 C   0  0  2  0  0  3  0  0  0  0  0  0
  183.0990  175.9310  137.3970 C   0  0  0  0  0  0  0  0  0  0  0  0
  183.8610  176.6200  138.2470 C   0  0  0  0  0  3  0  0  0  0  0  0
  182.4300  176.5530  136.3530 O   0  0  0  0  0  1  0  0  0  0  0  0
  182.9480  174.4650  137.5850 C   0  0  0  0  0  1  0  0  0  0  0  0
  185.5400  178.4340  137.6730 C   0  0  0  0  0  2  0  0  0  0  0  0
  186.2250  177.1810  137.1560 C   0  0  0  0  0  2  0  0  0  0  0  0
  187.5080  177.9390  138.9680 C   0  0  0  0  0  2  0  0  0  0  0  0
  187.4650  176.9640  137.8800 N   0  0  0  0  0  0  0  0  0  0  0  0
  188.5510  177.2670  136.9450 C   0  0  0  0  0  2  0  0  0  0  0  0
  190.1910  175.6320  137.9240 C   0  0  0  0  0  1  0  0  0  0  0  0
  190.0010  177.9480  138.8850 C   0  0  0  0  0  2  0  0  0  0  0  0
  189.9160  177.0940  137.6180 C   0  0  2  0  0  3  0  0  0  0  0  0
  188.7820  177.7440  139.7840 C   0  0  0  0  0  2  0  0  0  0  0  0
  183.8820  178.0580  140.7300 C   0  0  0  0  0  2  0  0  0  0  0  0
  184.5180  178.8190  141.8880 C   0  0  0  0  0  2  0  0  0  0  0  0
  185.8030  178.1420  142.3320 C   0  0  0  0  0  2  0  0  0  0  0  0
  185.7480  177.7580  143.8070 C   0  0  2  0  0  3  0  0  0  0  0  0
  184.8260  178.7430  144.5060 C   0  0  0  0  0  1  0  0  0  0  0  0
  187.0440  177.6040  145.9590 C   0  0  0  0  0  1  0  0  0  0  0  0
  187.1450  177.7780  144.4500 C   0  0  1  0  0  3  0  0  0  0  0  0
  189.2330  176.8890  143.3780 C   0  0  0  0  0  0  0  0  0  0  0  0
  188.0160  176.6830  143.9000 C   0  0  0  0  0  3  0  0  0  0  0  0
  190.0110  175.7160  142.8930 C   0  0  0  0  0  1  0  0  0  0  0  0
  189.8580  178.2500  143.2970 C   0  0  0  0  0  2  0  0  0  0  0  0
  190.5180  178.6150  144.6140 C   0  0  0  0  0  2  0  0  0  0  0  0
  191.6660  177.8450  144.7880 O   0  0  0  0  0  1  0  0  0  0  0  0
  2  1  1  1  0  0  0
  2 25  1  0  0  0  0
  3  6  1  0  0  0  0
  5  9  1  6  0  0  0
  5  7  1  0  0  0  0
  5  4  1  0  0  0  0
  6  9  1  0  0  0  0
  6 10  1  0  0  0  0
  7  2  1  1  0  0  0
  7  4  1  0  0  0  0
  8  6  1  0  0  0  0
 10  7  1  0  0  0  0
 11 16  1  1  0  0  0
 11 13  1  0  0  0  0
 11  2  1  0  0  0  0
 12 15  1  0  0  0  0
 12 13  2  0  0  0  0
 14 12  1  0  0  0  0
 17 16  1  0  0  0  0
 17 19  1  0  0  0  0
 18 24  1  0  0  0  0
 19 18  1  0  0  0  0
 20 23  1  0  0  0  0
 20 19  1  0  0  0  0
 22 24  1  0  0  0  0
 23 21  1  1  0  0  0
 23 22  1  0  0  0  0
 25 26  1  0  0  0  0
 26 27  1  0  0  0  0
 27 28  1  0  0  0  0
 28 31  1  0  0  0  0
 28 29  1  1  0  0  0
 31 30  1  1  0  0  0
 32 33  2  0  0  0  0
 33 31  1  0  0  0  0
 34 32  1  0  0  0  0
 35 32  1  0  0  0  0
 35 36  1  0  0  0  0
 36 37  1  0  0  0  0
M  END
>  <MODEL>
3

>  <REMARK>
 VINA RESULT:      -6.6      1.195      1.600
  Name = 
  14 active torsions:
  status: ('A' for Active; 'I' for Inactive)
    1  A    between atoms: C_1  and  C_5
    2  A    between atoms: C_1  and  C_36
    3  A    between atoms: C_5  and  C_17
    4  A    between atoms: N_6  and  C_31
    5  A    between atoms: C_7  and  C_33
    6  A    between atoms: C_10  and  C_14
    7  A    between atoms: C_10  and  C_20
    8  A    between atoms: C_10  and  C_22
    9  A    between atoms: C_11  and  C_33
   10  A    between atoms: C_14  and  C_31
   11  A    between atoms: C_17  and  C_26
   12  A    between atoms: C_20  and  C_24
   13  A    between atoms: C_20  and  C_29
   14  A    between atoms: C_29  and  C_36
                            x       y       z     vdW  Elec       q    Type
                         _______ _______ _______ _____ _____    ______ ____

>  <TORSDO>
F 14

$$$$
=
 OpenBabel10262423053D

 37 39  0  0  1  0  0  0  0  0999 V2000
  189.1300  179.3250  139.1820 O   0  0  0  0  0  1  0  0  0  0  0  0
  189.0720  177.9250  139.1420 C   0  0  1  0  0  0  0  0  0  0  0  0
  186.4710  175.6510  135.6670 O   0  0  0  0  0  1  0  0  0  0  0  0
  189.4080  178.1690  136.4850 C   0  0  0  0  0  2  0  0  0  0  0  0
  188.0230  178.6370  136.9050 C   0  0  2  0  0  3  0  0  0  0  0  0
  186.7240  176.5870  136.6690 C   0  0  0  0  0  0  0  0  0  0  0  0
  188.7240  177.5330  137.6800 C   0  0  2  0  0  0  0  0  0  0  0  0
  185.6460  176.6370  137.5530 O   0  0  0  0  0  1  0  0  0  0  0  0
  186.9580  177.9550  136.0640 C   0  0  0  0  0  2  0  0  0  0  0  0
  187.9880  176.2260  137.4170 C   0  0  0  0  0  2  0  0  0  0  0  0
  190.4420  177.3620  139.6240 C   0  0  2  0  0  3  0  0  0  0  0  0
  192.5610  176.5890  138.4630 C   0  0  0  0  0  0  0  0  0  0  0  0
  191.2340  176.5990  138.5840 C   0  0  0  0  0  3  0  0  0  0  0  0
  193.3730  177.3430  139.2990 O   0  0  0  0  0  1  0  0  0  0  0  0
  193.1850  175.7670  137.3940 C   0  0  0  0  0  1  0  0  0  0  0  0
  190.3710  176.6370  140.9700 C   0  0  0  0  0  2  0  0  0  0  0  0
  191.3210  177.2720  141.9700 C   0  0  0  0  0  2  0  0  0  0  0  0
  189.4800  177.2420  143.4240 C   0  0  0  0  0  2  0  0  0  0  0  0
  190.9070  176.9400  143.3220 N   0  0  0  0  0  0  0  0  0  0  0  0
  191.6360  177.8430  144.2150 C   0  0  0  0  0  2  0  0  0  0  0  0
  191.7570  176.2420  146.1500 C   0  0  0  0  0  1  0  0  0  0  0  0
  189.7370  177.7120  145.8610 C   0  0  0  0  0  2  0  0  0  0  0  0
  191.2520  177.5940  145.6770 C   0  0  2  0  0  3  0  0  0  0  0  0
  188.9780  176.8880  144.8210 C   0  0  0  0  0  2  0  0  0  0  0  0
  187.9230  177.4420  140.0460 C   0  0  0  0  0  2  0  0  0  0  0  0
  187.2250  178.5800  140.7830 C   0  0  0  0  0  2  0  0  0  0  0  0
  186.4370  178.0470  141.9670 C   0  0  0  0  0  2  0  0  0  0  0  0
  185.2810  178.9750  142.3280 C   0  0  2  0  0  3  0  0  0  0  0  0
  185.2890  179.1570  143.8360 C   0  0  0  0  0  1  0  0  0  0  0  0
  182.8110  178.8450  142.7940 C   0  0  0  0  0  1  0  0  0  0  0  0
  183.9320  178.4060  141.8610 C   0  0  1  0  0  3  0  0  0  0  0  0
  183.0900  178.0580  139.5220 C   0  0  0  0  0  0  0  0  0  0  0  0
  183.5980  178.8610  140.4670 C   0  0  0  0  0  3  0  0  0  0  0  0
  182.7750  178.6360  138.1860 C   0  0  0  0  0  1  0  0  0  0  0  0
  182.7920  176.6090  139.7660 C   0  0  0  0  0  2  0  0  0  0  0  0
  181.3160  176.3240  139.5550 C   0  0  0  0  0  2  0  0  0  0  0  0
  180.5710  176.9840  140.5300 O   0  0  0  0  0  1  0  0  0  0  0  0
  2  1  1  1  0  0  0
  2 11  1  0  0  0  0
  2 25  1  0  0  0  0
  3  6  1  0  0  0  0
  4  5  1  0  0  0  0
  4  7  1  0  0  0  0
  5  9  1  6  0  0  0
  5  7  1  0  0  0  0
  6 10  1  0  0  0  0
  6  8  1  0  0  0  0
  7  2  1  1  0  0  0
  9  6  1  0  0  0  0
 10  7  1  0  0  0  0
 11 13  1  6  0  0  0
 11 16  1  0  0  0  0
 12 13  2  0  0  0  0
 12 14  1  0  0  0  0
 15 12  1  0  0  0  0
 16 17  1  0  0  0  0
 17 19  1  0  0  0  0
 18 24  1  0  0  0  0
 19 18  1  0  0  0  0
 19 20  1  0  0  0  0
 20 23  1  0  0  0  0
 23 22  1  0  0  0  0
 23 21  1  6  0  0  0
 24 22  1  0  0  0  0
 25 26  1  0  0  0  0
 26 27  1  0  0  0  0
 27 28  1  0  0  0  0
 28 29  1  1  0  0  0
 31 28  1  0  0  0  0
 31 30  1  1  0  0  0
 32 35  1  0  0  0  0
 32 33  2  0  0  0  0
 33 31  1  0  0  0  0
 34 32  1  0  0  0  0
 36 35  1  0  0  0  0
 36 37  1  0  0  0  0
M  END
>  <MODEL>
4

>  <REMARK>
 VINA RESULT:      -6.4      2.426      7.158
  Name = 
  14 active torsions:
  status: ('A' for Active; 'I' for Inactive)
    1  A    between atoms: C_1  and  C_5
    2  A    between atoms: C_1  and  C_36
    3  A    between atoms: C_5  and  C_17
    4  A    between atoms: N_6  and  C_31
    5  A    between atoms: C_7  and  C_33
    6  A    between atoms: C_10  and  C_14
    7  A    between atoms: C_10  and  C_20
    8  A    between atoms: C_10  and  C_22
    9  A    between atoms: C_11  and  C_33
   10  A    between atoms: C_14  and  C_31
   11  A    between atoms: C_17  and  C_26
   12  A    between atoms: C_20  and  C_24
   13  A    between atoms: C_20  and  C_29
   14  A    between atoms: C_29  and  C_36
                            x       y       z     vdW  Elec       q    Type
                         _______ _______ _______ _____ _____    ______ ____

>  <TORSDO>
F 14

$$$$
=
 OpenBabel10262423053D

 37 39  0  0  1  0  0  0  0  0999 V2000
  187.7230  179.1110  137.1070 O   0  0  0  0  0  1  0  0  0  0  0  0
  187.6690  177.7890  137.5690 C   0  0  1  0  0  0  0  0  0  0  0  0
  184.9840  174.3980  135.2650 O   0  0  0  0  0  1  0  0  0  0  0  0
  187.8500  177.1060  134.9740 C   0  0  0  0  0  2  0  0  0  0  0  0
  186.4710  177.6610  135.2970 C   0  0  2  0  0  3  0  0  0  0  0  0
  185.2500  175.6270  135.8650 C   0  0  0  0  0  0  0  0  0  0  0  0
  187.2590  176.9090  136.3570 C   0  0  2  0  0  0  0  0  0  0  0  0
  184.2200  175.9570  136.7470 O   0  0  0  0  0  1  0  0  0  0  0  0
  185.3930  176.7070  134.8130 C   0  0  0  0  0  2  0  0  0  0  0  0
  186.5670  175.5750  136.6080 C   0  0  0  0  0  2  0  0  0  0  0  0
  189.0600  177.4180  138.1620 C   0  0  2  0  0  3  0  0  0  0  0  0
  190.4270  175.5480  137.1260 C   0  0  0  0  0  0  0  0  0  0  0  0
  189.4870  175.9790  137.9670 C   0  0  0  0  0  3  0  0  0  0  0  0
  191.1070  176.4210  136.2890 O   0  0  0  0  0  1  0  0  0  0  0  0
  190.7410  174.0970  137.0710 C   0  0  0  0  0  1  0  0  0  0  0  0
  189.2710  177.9130  139.5940 C   0  0  0  0  0  2  0  0  0  0  0  0
  190.5910  177.4050  140.1470 C   0  0  0  0  0  2  0  0  0  0  0  0
  188.9650  176.9640  141.7790 C   0  0  0  0  0  2  0  0  0  0  0  0
  190.3790  176.7960  141.4480 N   0  0  0  0  0  0  0  0  0  0  0  0
  191.1730  177.5700  142.4050 C   0  0  0  0  0  2  0  0  0  0  0  0
  191.6340  175.6510  143.9620 C   0  0  0  0  0  1  0  0  0  0  0  0
  189.5200  176.9890  144.2110 C   0  0  0  0  0  2  0  0  0  0  0  0
  191.0010  177.0250  143.8260 C   0  0  2  0  0  3  0  0  0  0  0  0
  188.6730  176.3190  143.1300 C   0  0  0  0  0  2  0  0  0  0  0  0
  186.5610  177.6710  138.6320 C   0  0  0  0  0  2  0  0  0  0  0  0
  185.3460  178.5400  138.3270 C   0  0  0  0  0  2  0  0  0  0  0  0
  184.8250  179.1970  139.5930 C   0  0  0  0  0  2  0  0  0  0  0  0
  184.3810  178.1560  140.6160 C   0  0  2  0  0  3  0  0  0  0  0  0
  182.8920  178.3450  140.8510 C   0  0  0  0  0  1  0  0  0  0  0  0
  186.2470  179.3480  141.8120 C   0  0  0  0  0  1  0  0  0  0  0  0
  185.1560  178.2930  141.9370 C   0  0  1  0  0  3  0  0  0  0  0  0
  184.5520  178.5120  144.3630 C   0  0  0  0  0  0  0  0  0  0  0  0
  184.2460  178.6790  143.0690 C   0  0  0  0  0  3  0  0  0  0  0  0
  183.5760  178.9620  145.3930 C   0  0  0  0  0  1  0  0  0  0  0  0
  185.8540  177.9210  144.8160 C   0  0  0  0  0  2  0  0  0  0  0  0
  185.9610  177.9620  146.3290 C   0  0  0  0  0  2  0  0  0  0  0  0
  187.2820  178.2160  146.6950 O   0  0  0  0  0  1  0  0  0  0  0  0
  2  1  1  6  0  0  0
  2 11  1  0  0  0  0
  2 25  1  0  0  0  0
  3  6  1  0  0  0  0
  4  5  1  0  0  0  0
  4  7  1  0  0  0  0
  5  9  1  6  0  0  0
  5  7  1  0  0  0  0
  6 10  1  0  0  0  0
  6  8  1  0  0  0  0
  7 10  1  0  0  0  0
  7  2  1  1  0  0  0
  9  6  1  0  0  0  0
 11 13  1  1  0  0  0
 11 16  1  0  0  0  0
 12 13  2  0  0  0  0
 14 12  1  0  0  0  0
 15 12  1  0  0  0  0
 16 17  1  0  0  0  0
 17 19  1  0  0  0  0
 18 24  1  0  0  0  0
 19 18  1  0  0  0  0
 19 20  1  0  0  0  0
 20 23  1  0  0  0  0
 23 21  1  6  0  0  0
 23 22  1  0  0  0  0
 24 22  1  0  0  0  0
 26 25  1  0  0  0  0
 26 27  1  0  0  0  0
 27 28  1  0  0  0  0
 28 29  1  1  0  0  0
 28 31  1  0  0  0  0
 31 30  1  6  0  0  0
 31 33  1  0  0  0  0
 32 35  1  0  0  0  0
 32 34  1  0  0  0  0
 33 32  2  0  0  0  0
 35 36  1  0  0  0  0
 36 37  1  0  0  0  0
M  END
>  <MODEL>
5

>  <REMARK>
 VINA RESULT:      -6.4      2.586      5.523
  Name = 
  14 active torsions:
  status: ('A' for Active; 'I' for Inactive)
    1  A    between atoms: C_1  and  C_5
    2  A    between atoms: C_1  and  C_36
    3  A    between atoms: C_5  and  C_17
    4  A    between atoms: N_6  and  C_31
    5  A    between atoms: C_7  and  C_33
    6  A    between atoms: C_10  and  C_14
    7  A    between atoms: C_10  and  C_20
    8  A    between atoms: C_10  and  C_22
    9  A    between atoms: C_11  and  C_33
   10  A    between atoms: C_14  and  C_31
   11  A    between atoms: C_17  and  C_26
   12  A    between atoms: C_20  and  C_24
   13  A    between atoms: C_20  and  C_29
   14  A    between atoms: C_29  and  C_36
                            x       y       z     vdW  Elec       q    Type
                         _______ _______ _______ _____ _____    ______ ____

>  <TORSDO>
F 14

$$$$
=
 OpenBabel10262423053D

 37 39  0  0  1  0  0  0  0  0999 V2000
  189.0550  179.3330  139.0440 O   0  0  0  0  0  1  0  0  0  0  0  0
  188.9850  177.9330  139.0230 C   0  0  1  0  0  0  0  0  0  0  0  0
  186.2210  175.6440  135.6880 O   0  0  0  0  0  1  0  0  0  0  0  0
  189.2140  178.1400  136.3520 C   0  0  0  0  0  2  0  0  0  0  0  0
  187.8520  178.6290  136.8220 C   0  0  2  0  0  3  0  0  0  0  0  0
  186.5240  176.5890  136.6660 C   0  0  0  0  0  0  0  0  0  0  0  0
  188.5730  177.5270  137.5830 C   0  0  2  0  0  0  0  0  0  0  0  0
  185.4840  176.6620  137.5930 O   0  0  0  0  0  1  0  0  0  0  0  0
  186.7470  177.9480  136.0340 C   0  0  0  0  0  2  0  0  0  0  0  0
  187.8140  176.2250  137.3670 C   0  0  0  0  0  2  0  0  0  0  0  0
  190.3700  177.3660  139.4550 C   0  0  2  0  0  3  0  0  0  0  0  0
  192.3760  176.3810  138.2540 C   0  0  0  0  0  0  0  0  0  0  0  0
  191.0600  176.4870  138.4340 C   0  0  0  0  0  3  0  0  0  0  0  0
  193.2740  177.1290  139.0030 O   0  0  0  0  0  1  0  0  0  0  0  0
  192.8930  175.4530  137.2150 C   0  0  0  0  0  1  0  0  0  0  0  0
  190.3780  176.7630  140.8610 C   0  0  0  0  0  2  0  0  0  0  0  0
  191.2910  177.5560  141.7790 C   0  0  0  0  0  2  0  0  0  0  0  0
  191.6810  177.5840  144.0920 C   0  0  0  0  0  2  0  0  0  0  0  0
  190.6500  177.7470  143.0680 N   0  0  0  0  0  0  0  0  0  0  0  0
  189.6780  176.6620  143.2140 C   0  0  0  0  0  2  0  0  0  0  0  0
  188.0490  177.9680  144.6130 C   0  0  0  0  0  1  0  0  0  0  0  0
  189.9670  176.7700  145.7110 C   0  0  0  0  0  2  0  0  0  0  0  0
  188.9560  176.7520  144.5620 C   0  0  2  0  0  3  0  0  0  0  0  0
  191.0710  177.7990  145.4740 C   0  0  0  0  0  2  0  0  0  0  0  0
  187.8710  177.4700  139.9800 C   0  0  0  0  0  2  0  0  0  0  0  0
  187.1510  178.6280  140.6620 C   0  0  0  0  0  2  0  0  0  0  0  0
  185.6790  178.6370  140.2880 C   0  0  0  0  0  2  0  0  0  0  0  0
  184.8060  179.0260  141.4780 C   0  0  2  0  0  3  0  0  0  0  0  0
  185.2850  178.2310  142.6810 C   0  0  0  0  0  1  0  0  0  0  0  0
  183.1550  177.4940  140.3560 C   0  0  0  0  0  1  0  0  0  0  0  0
  183.3190  178.7470  141.2040 C   0  0  1  0  0  3  0  0  0  0  0  0
  181.2860  178.9640  142.6600 C   0  0  0  0  0  0  0  0  0  0  0  0
  182.5520  178.5610  142.4840 C   0  0  0  0  0  3  0  0  0  0  0  0
  180.6260  178.6960  143.9670 C   0  0  0  0  0  1  0  0  0  0  0  0
  180.4960  179.6440  141.5820 C   0  0  0  0  0  2  0  0  0  0  0  0
  179.3140  178.7880  141.1660 C   0  0  0  0  0  2  0  0  0  0  0  0
  179.7470  177.7870  140.2980 O   0  0  0  0  0  1  0  0  0  0  0  0
  2  1  1  1  0  0  0
  2 11  1  0  0  0  0
  2 25  1  0  0  0  0
  3  6  1  0  0  0  0
  4  5  1  0  0  0  0
  4  7  1  0  0  0  0
  5  9  1  6  0  0  0
  5  7  1  0  0  0  0
  6 10  1  0  0  0  0
  6  8  1  0  0  0  0
  7  2  1  1  0  0  0
  9  6  1  0  0  0  0
 10  7  1  0  0  0  0
 11 13  1  6  0  0  0
 11 16  1  0  0  0  0
 12 13  2  0  0  0  0
 12 14  1  0  0  0  0
 15 12  1  0  0  0  0
 16 17  1  0  0  0  0
 17 19  1  0  0  0  0
 18 24  1  0  0  0  0
 19 20  1  0  0  0  0
 19 18  1  0  0  0  0
 20 23  1  0  0  0  0
 23 21  1  6  0  0  0
 23 22  1  0  0  0  0
 24 22  1  0  0  0  0
 25 26  1  0  0  0  0
 27 26  1  0  0  0  0
 27 28  1  0  0  0  0
 28 29  1  1  0  0  0
 31 30  1  6  0  0  0
 31 28  1  0  0  0  0
 31 33  1  0  0  0  0
 32 34  1  0  0  0  0
 33 32  2  0  0  0  0
 35 32  1  0  0  0  0
 36 35  1  0  0  0  0
 37 36  1  0  0  0  0
M  END
>  <MODEL>
6

>  <REMARK>
 VINA RESULT:      -6.2      2.466      7.276
  Name = 
  14 active torsions:
  status: ('A' for Active; 'I' for Inactive)
    1  A    between atoms: C_1  and  C_5
    2  A    between atoms: C_1  and  C_36
    3  A    between atoms: C_5  and  C_17
    4  A    between atoms: N_6  and  C_31
    5  A    between atoms: C_7  and  C_33
    6  A    between atoms: C_10  and  C_14
    7  A    between atoms: C_10  and  C_20
    8  A    between atoms: C_10  and  C_22
    9  A    between atoms: C_11  and  C_33
   10  A    between atoms: C_14  and  C_31
   11  A    between atoms: C_17  and  C_26
   12  A    between atoms: C_20  and  C_24
   13  A    between atoms: C_20  and  C_29
   14  A    between atoms: C_29  and  C_36
                            x       y       z     vdW  Elec       q    Type
                         _______ _______ _______ _____ _____    ______ ____

>  <TORSDO>
F 14

$$$$
=
 OpenBabel10262423053D

 37 39  0  0  1  0  0  0  0  0999 V2000
  189.0400  179.3130  138.4610 O   0  0  0  0  0  1  0  0  0  0  0  0
  188.8650  177.9360  138.6520 C   0  0  1  0  0  0  0  0  0  0  0  0
  186.2220  175.0780  135.6760 O   0  0  0  0  0  1  0  0  0  0  0  0
  189.0080  177.8680  135.9670 C   0  0  0  0  0  2  0  0  0  0  0  0
  187.6220  178.2920  136.4290 C   0  0  2  0  0  3  0  0  0  0  0  0
  186.4680  176.1460  136.5370 C   0  0  0  0  0  0  0  0  0  0  0  0
  188.4520  177.3420  137.2780 C   0  0  2  0  0  0  0  0  0  0  0  0
  185.4490  176.2340  137.4850 O   0  0  0  0  0  1  0  0  0  0  0  0
  186.5590  177.4410  135.7560 C   0  0  0  0  0  2  0  0  0  0  0  0
  187.8020  175.9670  137.2280 C   0  0  0  0  0  2  0  0  0  0  0  0
  190.1930  177.3440  139.2100 C   0  0  2  0  0  3  0  0  0  0  0  0
  192.3070  176.3800  138.1910 C   0  0  0  0  0  0  0  0  0  0  0  0
  190.9790  176.4870  138.2410 C   0  0  0  0  0  3  0  0  0  0  0  0
  193.1270  177.1070  139.0430 O   0  0  0  0  0  1  0  0  0  0  0  0
  192.9240  175.4750  137.1880 C   0  0  0  0  0  1  0  0  0  0  0  0
  190.0490  176.7030  140.5920 C   0  0  0  0  0  2  0  0  0  0  0  0
  190.7990  177.5110  141.6370 C   0  0  0  0  0  2  0  0  0  0  0  0
  190.7790  177.9370  143.9440 C   0  0  0  0  0  2  0  0  0  0  0  0
  189.9270  177.7850  142.7650 N   0  0  0  0  0  0  0  0  0  0  0  0
  189.0940  176.5950  142.9470 C   0  0  0  0  0  2  0  0  0  0  0  0
  187.0930  177.8220  143.8480 C   0  0  0  0  0  1  0  0  0  0  0  0
  188.9340  177.1110  145.4050 C   0  0  0  0  0  2  0  0  0  0  0  0
  188.1460  176.7680  144.1380 C   0  0  2  0  0  3  0  0  0  0  0  0
  189.9190  178.2540  145.1630 C   0  0  0  0  0  2  0  0  0  0  0  0
  187.6990  177.7080  139.6320 C   0  0  0  0  0  2  0  0  0  0  0  0
  187.0290  179.0040  140.0750 C   0  0  0  0  0  2  0  0  0  0  0  0
  185.7990  178.7120  140.9160 C   0  0  0  0  0  2  0  0  0  0  0  0
  184.5700  178.4840  140.0410 C   0  0  2  0  0  3  0  0  0  0  0  0
  184.4580  179.6600  139.0870 C   0  0  0  0  0  1  0  0  0  0  0  0
  182.5600  177.0570  140.5500 C   0  0  0  0  0  1  0  0  0  0  0  0
  183.2920  178.3500  140.8850 C   0  0  1  0  0  3  0  0  0  0  0  0
  182.7330  178.7370  143.3010 C   0  0  0  0  0  0  0  0  0  0  0  0
  183.6030  178.3550  142.3560 C   0  0  0  0  0  3  0  0  0  0  0  0
  183.1520  178.6690  144.7280 C   0  0  0  0  0  1  0  0  0  0  0  0
  181.3420  179.1950  142.9810 C   0  0  0  0  0  2  0  0  0  0  0  0
  180.3170  178.3210  143.6810 C   0  0  0  0  0  2  0  0  0  0  0  0
  179.5430  179.1040  144.5350 O   0  0  0  0  0  1  0  0  0  0  0  0
  2  1  1  6  0  0  0
  2 11  1  0  0  0  0
  2 25  1  0  0  0  0
  3  6  1  0  0  0  0
  4  5  1  0  0  0  0
  4  7  1  0  0  0  0
  5  9  1  6  0  0  0
  5  7  1  0  0  0  0
  6 10  1  0  0  0  0
  6  8  1  0  0  0  0
  7  2  1  1  0  0  0
  9  6  1  0  0  0  0
 10  7  1  0  0  0  0
 11 13  1  6  0  0  0
 11 16  1  0  0  0  0
 12 13  2  0  0  0  0
 12 14  1  0  0  0  0
 15 12  1  0  0  0  0
 16 17  1  0  0  0  0
 17 19  1  0  0  0  0
 18 24  1  0  0  0  0
 19 20  1  0  0  0  0
 19 18  1  0  0  0  0
 20 23  1  0  0  0  0
 23 21  1  6  0  0  0
 23 22  1  0  0  0  0
 24 22  1  0  0  0  0
 25 26  1  0  0  0  0
 26 27  1  0  0  0  0
 28 29  1  6  0  0  0
 28 31  1  0  0  0  0
 28 27  1  0  0  0  0
 31 30  1  6  0  0  0
 31 33  1  0  0  0  0
 32 34  1  0  0  0  0
 33 32  2  0  0  0  0
 35 32  1  0  0  0  0
 35 36  1  0  0  0  0
 36 37  1  0  0  0  0
M  END
>  <MODEL>
7

>  <REMARK>
 VINA RESULT:      -6.1      2.545      6.973
  Name = 
  14 active torsions:
  status: ('A' for Active; 'I' for Inactive)
    1  A    between atoms: C_1  and  C_5
    2  A    between atoms: C_1  and  C_36
    3  A    between atoms: C_5  and  C_17
    4  A    between atoms: N_6  and  C_31
    5  A    between atoms: C_7  and  C_33
    6  A    between atoms: C_10  and  C_14
    7  A    between atoms: C_10  and  C_20
    8  A    between atoms: C_10  and  C_22
    9  A    between atoms: C_11  and  C_33
   10  A    between atoms: C_14  and  C_31
   11  A    between atoms: C_17  and  C_26
   12  A    between atoms: C_20  and  C_24
   13  A    between atoms: C_20  and  C_29
   14  A    between atoms: C_29  and  C_36
                            x       y       z     vdW  Elec       q    Type
                         _______ _______ _______ _____ _____    ______ ____

>  <TORSDO>
F 14

$$$$
=
 OpenBabel10262423053D

 37 39  0  0  1  0  0  0  0  0999 V2000
  182.1560  176.7860  139.7550 O   0  0  0  0  0  1  0  0  0  0  0  0
  182.9070  177.9690  139.8170 C   0  0  1  0  0  0  0  0  0  0  0  0
  186.8650  178.9440  137.0990 O   0  0  0  0  0  1  0  0  0  0  0  0
  183.1870  177.4960  137.1840 C   0  0  0  0  0  2  0  0  0  0  0  0
  184.2080  176.7080  137.9910 C   0  0  2  0  0  3  0  0  0  0  0  0
  186.0940  178.2540  138.0320 C   0  0  0  0  0  0  0  0  0  0  0  0
  183.7130  178.0560  138.4930 C   0  0  2  0  0  0  0  0  0  0  0  0
  186.8460  178.0100  139.1820 O   0  0  0  0  0  1  0  0  0  0  0  0
  185.6060  176.9450  137.4480 C   0  0  0  0  0  2  0  0  0  0  0  0
  184.8590  179.0530  138.3850 C   0  0  0  0  0  2  0  0  0  0  0  0
  181.9280  179.1620  140.0260 C   0  0  2  0  0  3  0  0  0  0  0  0
  180.3470  179.1130  142.0100 C   0  0  0  0  0  0  0  0  0  0  0  0
  180.6370  178.8250  140.7410 C   0  0  0  0  0  3  0  0  0  0  0  0
  181.2620  179.7470  142.8380 O   0  0  0  0  0  1  0  0  0  0  0  0
  179.0190  178.7280  142.5550 C   0  0  0  0  0  1  0  0  0  0  0  0
  181.7100  180.0090  138.7710 C   0  0  0  0  0  2  0  0  0  0  0  0
  180.8250  181.2040  139.0780 C   0  0  0  0  0  2  0  0  0  0  0  0
  180.5960  180.8240  136.7750 C   0  0  0  0  0  2  0  0  0  0  0  0
  180.3450  181.7920  137.8410 N   0  0  0  0  0  0  0  0  0  0  0  0
  181.1710  182.9750  137.5940 C   0  0  0  0  0  2  0  0  0  0  0  0
  179.3850  184.2890  136.4090 C   0  0  0  0  0  1  0  0  0  0  0  0
  180.8200  182.6770  135.1200 C   0  0  0  0  0  2  0  0  0  0  0  0
  180.7640  183.6640  136.2880 C   0  0  2  0  0  3  0  0  0  0  0  0
  180.0870  181.3760  135.4470 C   0  0  0  0  0  2  0  0  0  0  0  0
  183.9150  177.8660  140.9760 C   0  0  0  0  0  2  0  0  0  0  0  0
  184.3380  179.2250  141.5220 C   0  0  0  0  0  2  0  0  0  0  0  0
  185.5760  179.0910  142.3920 C   0  0  0  0  0  2  0  0  0  0  0  0
  185.2630  178.3660  143.6970 C   0  0  2  0  0  3  0  0  0  0  0  0
  184.3300  179.2530  144.5050 C   0  0  0  0  0  1  0  0  0  0  0  0
  186.1950  177.4650  145.8540 C   0  0  0  0  0  1  0  0  0  0  0  0
  186.5400  178.0590  144.4940 C   0  0  1  0  0  3  0  0  0  0  0  0
  188.7390  176.9580  143.9870 C   0  0  0  0  0  0  0  0  0  0  0  0
  187.4240  177.0890  143.7600 C   0  0  0  0  0  3  0  0  0  0  0  0
  189.5000  175.9390  143.2130 C   0  0  0  0  0  1  0  0  0  0  0  0
  189.4670  177.7730  145.0140 C   0  0  0  0  0  2  0  0  0  0  0  0
  190.9500  177.8300  144.6980 C   0  0  0  0  0  2  0  0  0  0  0  0
  191.6810  177.5040  145.8380 O   0  0  0  0  0  1  0  0  0  0  0  0
  2  1  1  6  0  0  0
  2 11  1  0  0  0  0
  2 25  1  0  0  0  0
  3  6  1  0  0  0  0
  4  7  1  0  0  0  0
  5  4  1  6  0  0  0
  5  7  1  0  0  0  0
  6 10  1  0  0  0  0
  6  8  1  0  0  0  0
  7  2  1  1  0  0  0
  9  5  1  0  0  0  0
  9  6  1  0  0  0  0
 10  7  1  0  0  0  0
 11 16  1  6  0  0  0
 11 13  1  0  0  0  0
 12 15  1  0  0  0  0
 12 14  1  0  0  0  0
 13 12  2  0  0  0  0
 16 17  1  0  0  0  0
 18 19  1  0  0  0  0
 19 17  1  0  0  0  0
 20 19  1  0  0  0  0
 22 24  1  0  0  0  0
 22 23  1  0  0  0  0
 23 21  1  1  0  0  0
 23 20  1  0  0  0  0
 24 18  1  0  0  0  0
 25 26  1  0  0  0  0
 26 27  1  0  0  0  0
 27 28  1  0  0  0  0
 28 31  1  0  0  0  0
 28 29  1  1  0  0  0
 31 30  1  1  0  0  0
 32 35  1  0  0  0  0
 33 32  2  0  0  0  0
 33 31  1  0  0  0  0
 34 32  1  0  0  0  0
 36 35  1  0  0  0  0
 36 37  1  0  0  0  0
M  END
>  <MODEL>
8

>  <REMARK>
 VINA RESULT:      -6.0      2.541      6.142
  Name = 
  14 active torsions:
  status: ('A' for Active; 'I' for Inactive)
    1  A    between atoms: C_1  and  C_5
    2  A    between atoms: C_1  and  C_36
    3  A    between atoms: C_5  and  C_17
    4  A    between atoms: N_6  and  C_31
    5  A    between atoms: C_7  and  C_33
    6  A    between atoms: C_10  and  C_14
    7  A    between atoms: C_10  and  C_20
    8  A    between atoms: C_10  and  C_22
    9  A    between atoms: C_11  and  C_33
   10  A    between atoms: C_14  and  C_31
   11  A    between atoms: C_17  and  C_26
   12  A    between atoms: C_20  and  C_24
   13  A    between atoms: C_20  and  C_29
   14  A    between atoms: C_29  and  C_36
                            x       y       z     vdW  Elec       q    Type
                         _______ _______ _______ _____ _____    ______ ____

>  <TORSDO>
F 14

$$$$
=
 OpenBabel10262423053D

 37 39  0  0  1  0  0  0  0  0999 V2000
  184.3600  180.0450  139.2440 O   0  0  0  0  0  1  0  0  0  0  0  0
  183.5450  178.9230  139.4470 C   0  0  1  0  0  0  0  0  0  0  0  0
  179.3220  181.0900  138.2310 O   0  0  0  0  0  1  0  0  0  0  0  0
  181.3770  179.1820  141.0170 C   0  0  0  0  0  2  0  0  0  0  0  0
  181.0570  178.3600  139.7780 C   0  0  2  0  0  3  0  0  0  0  0  0
  180.2890  180.0870  138.2360 C   0  0  0  0  0  0  0  0  0  0  0  0
  182.1110  179.4540  139.7180 C   0  0  2  0  0  0  0  0  0  0  0  0
  180.5370  179.6620  136.9300 O   0  0  0  0  0  1  0  0  0  0  0  0
  179.8280  178.9160  139.0800 C   0  0  0  0  0  2  0  0  0  0  0  0
  181.5680  180.5930  138.8650 C   0  0  0  0  0  2  0  0  0  0  0  0
  183.6400  178.0120  138.1870 C   0  0  2  0  0  3  0  0  0  0  0  0
  182.2790  175.9430  137.6330 C   0  0  0  0  0  0  0  0  0  0  0  0
  183.1770  176.5840  138.3820 C   0  0  0  0  0  3  0  0  0  0  0  0
  181.6330  176.5710  136.5780 O   0  0  0  0  0  1  0  0  0  0  0  0
  181.9500  174.5290  137.9480 C   0  0  0  0  0  1  0  0  0  0  0  0
  184.9800  178.1090  137.4560 C   0  0  0  0  0  2  0  0  0  0  0  0
  185.5620  176.7260  137.2180 C   0  0  0  0  0  2  0  0  0  0  0  0
  187.5450  175.4730  137.2220 C   0  0  0  0  0  2  0  0  0  0  0  0
  187.0010  176.8200  137.0510 N   0  0  0  0  0  0  0  0  0  0  0  0
  187.4940  177.6590  138.1440 C   0  0  0  0  0  2  0  0  0  0  0  0
  189.4360  178.6220  136.8690 C   0  0  0  0  0  1  0  0  0  0  0  0
  189.6880  176.4280  138.0710 C   0  0  0  0  0  2  0  0  0  0  0  0
  189.0180  177.8040  138.0790 C   0  0  2  0  0  3  0  0  0  0  0  0
  189.0580  175.5010  137.0310 C   0  0  0  0  0  2  0  0  0  0  0  0
  184.0170  178.1780  140.7090 C   0  0  0  0  0  2  0  0  0  0  0  0
  185.4180  178.5850  141.1530 C   0  0  0  0  0  2  0  0  0  0  0  0
  185.6080  178.3210  142.6370 C   0  0  0  0  0  2  0  0  0  0  0  0
  187.0830  178.3630  143.0240 C   0  0  2  0  0  3  0  0  0  0  0  0
  187.8900  178.5410  141.7490 C   0  0  0  0  0  1  0  0  0  0  0  0
  188.3650  176.2040  142.8560 C   0  0  0  0  0  1  0  0  0  0  0  0
  187.5110  177.0830  143.7600 C   0  0  1  0  0  3  0  0  0  0  0  0
  187.7480  177.6070  146.2040 C   0  0  0  0  0  0  0  0  0  0  0  0
  188.3000  177.4020  145.0000 C   0  0  0  0  0  3  0  0  0  0  0  0
  188.6410  177.8860  147.3620 C   0  0  0  0  0  1  0  0  0  0  0  0
  186.2690  177.5300  146.4380 C   0  0  0  0  0  2  0  0  0  0  0  0
  185.6740  178.9210  146.5600 C   0  0  0  0  0  2  0  0  0  0  0  0
  184.3840  178.9230  146.0330 O   0  0  0  0  0  1  0  0  0  0  0  0
  2  1  1  6  0  0  0
  2 25  1  0  0  0  0
  3  6  1  0  0  0  0
  5  9  1  6  0  0  0
  5  4  1  0  0  0  0
  6 10  1  0  0  0  0
  6  9  1  0  0  0  0
  7  2  1  6  0  0  0
  7  5  1  0  0  0  0
  7  4  1  0  0  0  0
  8  6  1  0  0  0  0
 10  7  1  0  0  0  0
 11 16  1  1  0  0  0
 11 13  1  0  0  0  0
 11  2  1  0  0  0  0
 12 15  1  0  0  0  0
 12 13  2  0  0  0  0
 14 12  1  0  0  0  0
 17 16  1  0  0  0  0
 19 17  1  0  0  0  0
 19 18  1  0  0  0  0
 19 20  1  0  0  0  0
 22 23  1  0  0  0  0
 23 21  1  6  0  0  0
 23 20  1  0  0  0  0
 24 18  1  0  0  0  0
 24 22  1  0  0  0  0
 25 26  1  0  0  0  0
 26 27  1  0  0  0  0
 27 28  1  0  0  0  0
 28 29  1  6  0  0  0
 28 31  1  0  0  0  0
 31 30  1  6  0  0  0
 31 33  1  0  0  0  0
 32 35  1  0  0  0  0
 32 34  1  0  0  0  0
 33 32  2  0  0  0  0
 35 36  1  0  0  0  0
 37 36  1  0  0  0  0
M  END
>  <MODEL>
9

>  <REMARK>
 VINA RESULT:      -6.0      1.937      2.827
  Name = 
  14 active torsions:
  status: ('A' for Active; 'I' for Inactive)
    1  A    between atoms: C_1  and  C_5
    2  A    between atoms: C_1  and  C_36
    3  A    between atoms: C_5  and  C_17
    4  A    between atoms: N_6  and  C_31
    5  A    between atoms: C_7  and  C_33
    6  A    between atoms: C_10  and  C_14
    7  A    between atoms: C_10  and  C_20
    8  A    between atoms: C_10  and  C_22
    9  A    between atoms: C_11  and  C_33
   10  A    between atoms: C_14  and  C_31
   11  A    between atoms: C_17  and  C_26
   12  A    between atoms: C_20  and  C_24
   13  A    between atoms: C_20  and  C_29
   14  A    between atoms: C_29  and  C_36
                            x       y       z     vdW  Elec       q    Type
                         _______ _______ _______ _____ _____    ______ ____

>  <TORSDO>
F 14

$$$$
