=
 OpenBabel10262420243D

 55 61  0  0  1  0  0  0  0  0999 V2000
  188.6410  177.6940  137.9370 N   0  0  0  0  0  0  0  0  0  0  0  0
  188.5850  176.3320  137.4270 C   0  0  0  0  0  2  0  0  0  0  0  0
  189.6240  176.1400  136.3260 C   0  0  0  0  0  2  0  0  0  0  0  0
  190.4150  174.4410  137.8230 O   0  0  0  0  0  1  0  0  0  0  0  0
  190.4430  174.8550  136.4870 C   0  0  0  0  0  0  0  0  0  0  0  0
  189.8380  173.8600  135.7130 O   0  0  0  0  0  1  0  0  0  0  0  0
  195.1470  174.6350  135.9130 O   0  0  0  0  0  1  0  0  0  0  0  0
  191.9210  175.0740  136.0490 C   0  0  1  0  0  0  0  0  0  0  0  0
  192.2380  172.7440  136.4600 O   0  0  0  0  0  1  0  0  0  0  0  0
  192.8760  173.9080  136.0150 C   0  0  1  0  0  0  0  0  0  0  0  0
  194.1660  174.0940  136.7580 C   0  0  2  0  0  0  0  0  0  0  0  0
  192.1630  175.9470  134.8120 C   0  0  0  0  0  1  0  0  0  0  0  0
  192.9880  174.9970  137.1630 C   0  0  2  0  0  0  0  0  0  0  0  0
  193.5750  176.4070  137.2780 C   0  0  0  0  0  0  0  0  0  0  0  0
  193.4950  177.0450  138.3630 O   0  0  0  0  0  1  0  0  0  0  0  0
  194.3780  176.9310  136.2670 O   0  0  0  0  0  0  0  0  0  0  0  0
  194.6630  173.0590  137.7850 C   0  0  1  0  0  3  0  0  0  0  0  0
  194.9000  171.8080  137.2020 O   0  0  0  0  0  1  0  0  0  0  0  0
  195.9150  173.5530  138.4960 C   0  0  0  0  0  2  0  0  0  0  0  0
  195.6430  174.7450  139.1660 O   0  0  0  0  0  1  0  0  0  0  0  0
  187.3160  178.2810  137.7790 C   0  0  0  0  0  2  0  0  0  0  0  0
  186.2620  177.2610  138.1720 C   0  0  0  0  0  2  0  0  0  0  0  0
  184.8760  177.8240  137.9380 C   0  0  0  0  0  2  0  0  0  0  0  0
  184.6340  179.9730  138.9400 O   0  0  0  0  0  0  0  0  0  0  0  0
  184.1500  178.1460  140.3240 N   0  0  0  0  0  2  0  0  0  0  0  0
  184.5270  178.7220  139.0710 C   0  0  0  0  0  0  0  0  0  0  0  0
  187.3210  178.0570  143.0380 C   0  0  0  0  0  3  0  0  0  0  0  0
  181.4560  178.5970  141.1690 C   0  0  0  0  0  3  0  0  0  0  0  0
  185.4480  178.3510  146.3510 C   0  0  0  0  0  2  0  0  0  0  0  0
  180.1490  178.4570  141.6440 C   0  0  0  0  0  3  0  0  0  0  0  0
  182.2730  178.7780  143.4440 C   0  0  0  0  0  0  0  0  0  0  0  0
  180.9610  178.6500  143.9140 C   0  0  0  0  0  3  0  0  0  0  0  0
  179.9020  178.4810  143.0180 C   0  0  0  0  0  3  0  0  0  0  0  0
  182.5330  178.7440  142.0600 C   0  0  0  0  0  0  0  0  0  0  0  0
  186.3140  178.3480  142.1240 C   0  0  0  0  0  3  0  0  0  0  0  0
  187.8770  178.0520  146.7820 C   0  0  1  0  0  3  0  0  0  0  0  0
  184.7210  178.6090  143.9400 C   0  0  0  0  0  0  0  0  0  0  0  0
  187.0480  178.0330  144.4050 C   0  0  0  0  0  0  0  0  0  0  0  0
  183.3630  179.0420  144.4320 C   0  0  0  0  0  2  0  0  0  0  0  0
  188.1600  177.6400  145.3380 C   0  0  0  0  0  2  0  0  0  0  0  0
  183.9400  178.9420  141.5320 C   0  0  1  0  0  3  0  0  0  0  0  0
  186.4800  177.5950  147.1830 C   0  0  0  0  0  2  0  0  0  0  0  0
  185.0040  178.6050  142.5560 C   0  0  0  0  0  0  0  0  0  0  0  0
  185.7360  178.2950  144.8680 C   0  0  0  0  0  0  0  0  0  0  0  0
  188.9040  177.4820  147.7050 C   0  0  0  0  0  0  0  0  0  0  0  0
  189.4920  176.4020  147.4280 O   0  0  0  0  0  0  0  0  0  0  0  0
  189.2050  178.1450  148.8870 O   0  0  0  0  0  1  0  0  0  0  0  0
  188.8970  177.5860  139.3640 C   0  0  0  0  0  2  0  0  0  0  0  0
  190.3950  177.6210  139.6230 C   0  0  0  0  0  2  0  0  0  0  0  0
  190.9950  176.3370  143.6700 C   0  0  0  0  0  3  0  0  0  0  0  0
  190.7030  177.0910  140.9810 C   0  0  0  0  0  0  0  0  0  0  0  0
  189.9500  176.1690  141.5100 N   0  0  0  0  0  0  0  0  0  0  0  0
  191.6090  177.6360  143.2320 C   0  0  0  0  0  2  0  0  0  0  0  0
  190.1770  175.6810  142.8420 C   0  0  0  0  0  3  0  0  0  0  0  0
  191.8960  177.6170  141.7300 C   0  0  0  0  0  2  0  0  0  0  0  0
  1 48  1  0  0  0  0
  2  1  1  0  0  0  0
  3  5  1  0  0  0  0
  3  2  1  0  0  0  0
  5  4  1  0  0  0  0
  6  5  1  0  0  0  0
  8 12  1  6  0  0  0
  8  5  1  0  0  0  0
  8 13  1  0  0  0  0
 10  8  1  0  0  0  0
 10  9  1  1  0  0  0
 10 11  1  0  0  0  0
 10 13  1  0  0  0  0
 11  7  1  6  0  0  0
 11 13  1  0  0  0  0
 11 17  1  0  0  0  0
 13 14  1  6  0  0  0
 14 15  1  0  0  0  0
 16 14  2  0  0  0  0
 17 18  1  6  0  0  0
 17 19  1  0  0  0  0
 19 20  1  0  0  0  0
 21  1  1  0  0  0  0
 21 22  1  0  0  0  0
 23 22  1  0  0  0  0
 23 26  1  0  0  0  0
 24 26  2  0  0  0  0
 26 25  1  0  0  0  0
 27 38  1  0  0  0  0
 28 30  2  0  0  0  0
 28 34  1  0  0  0  0
 29 42  1  0  0  0  0
 30 33  1  0  0  0  0
 31 32  1  0  0  0  0
 31 39  1  0  0  0  0
 33 32  2  0  0  0  0
 34 31  2  0  0  0  0
 35 43  1  0  0  0  0
 35 27  2  0  0  0  0
 36 42  1  0  0  0  0
 36 45  1  1  0  0  0
 37 39  1  0  0  0  0
 37 44  1  0  0  0  0
 38 44  2  0  0  0  0
 38 40  1  0  0  0  0
 40 36  1  0  0  0  0
 41 25  1  6  0  0  0
 41 34  1  0  0  0  0
 41 43  1  0  0  0  0
 43 37  2  0  0  0  0
 44 29  1  0  0  0  0
 45 47  1  0  0  0  0
 46 45  2  0  0  0  0
 48 49  1  0  0  0  0
 49 51  1  0  0  0  0
 51 52  2  0  0  0  0
 51 55  1  0  0  0  0
 52 54  1  0  0  0  0
 53 50  1  0  0  0  0
 54 50  2  0  0  0  0
 55 53  1  0  0  0  0
M  END
>  <MODEL>
1

>  <REMARK>
 VINA RESULT:     -10.0      0.000      0.000
  Name = 
  16 active torsions:
  status: ('A' for Active; 'I' for Inactive)
    1  A    between atoms: C_1  and  C_53
    2  A    between atoms: C_4  and  C_35
    3  A    between atoms: C_4  and  C_37
    4  A    between atoms: C_6  and  C_20
    5  A    between atoms: C_8  and  C_22
    6  A    between atoms: C_8  and  N_43
    7  A    between atoms: C_10  and  C_32
    8  A    between atoms: C_11  and  C_29
    9  A    between atoms: N_19  and  C_45
   10  A    between atoms: C_20  and  C_22
   11  A    between atoms: C_27  and  C_54
   12  A    between atoms: C_29  and  C_38
   13  A    between atoms: C_35  and  N_43
   14  A    between atoms: C_37  and  C_40
   15  A    between atoms: N_43  and  C_51
   16  A    between atoms: C_51  and  C_54
                            x       y       z     vdW  Elec       q    Type
                         _______ _______ _______ _____ _____    ______ ____

>  <TORSDO>
F 16

$$$$
=
 OpenBabel10262420243D

 55 61  0  0  1  0  0  0  0  0999 V2000
  191.3910  177.4620  138.9140 N   0  0  0  0  0  0  0  0  0  0  0  0
  190.5940  176.8960  137.8350 C   0  0  0  0  0  2  0  0  0  0  0  0
  189.1390  176.7580  138.2740 C   0  0  0  0  0  2  0  0  0  0  0  0
  187.7680  178.5830  139.0080 O   0  0  0  0  0  1  0  0  0  0  0  0
  188.2690  177.9510  137.8650 C   0  0  0  0  0  0  0  0  0  0  0  0
  189.0830  178.8640  137.1870 O   0  0  0  0  0  1  0  0  0  0  0  0
  184.0150  176.8220  136.0970 O   0  0  0  0  0  1  0  0  0  0  0  0
  187.0820  177.4960  136.9680 C   0  0  1  0  0  0  0  0  0  0  0  0
  185.7440  179.0390  138.2030 O   0  0  0  0  0  1  0  0  0  0  0  0
  185.7210  178.1190  137.1490 C   0  0  1  0  0  0  0  0  0  0  0  0
  184.5800  177.1620  137.3350 C   0  0  2  0  0  0  0  0  0  0  0  0
  187.3570  177.3380  135.4670 C   0  0  0  0  0  1  0  0  0  0  0  0
  185.9930  176.6380  137.6480 C   0  0  2  0  0  0  0  0  0  0  0  0
  186.0730  175.2590  136.9870 C   0  0  0  0  0  0  0  0  0  0  0  0
  187.1920  174.7590  136.6870 O   0  0  0  0  0  0  0  0  0  0  0  0
  184.9450  174.4460  136.8900 O   0  0  0  0  0  1  0  0  0  0  0  0
  183.5910  177.3030  138.5080 C   0  0  1  0  0  3  0  0  0  0  0  0
  182.5900  178.2450  138.2430 O   0  0  0  0  0  1  0  0  0  0  0  0
  182.9700  175.9600  138.8630 C   0  0  0  0  0  2  0  0  0  0  0  0
  181.6810  176.1470  139.3600 O   0  0  0  0  0  1  0  0  0  0  0  0
  190.7390  177.1220  140.1730 C   0  0  0  0  0  2  0  0  0  0  0  0
  191.7920  176.9340  141.2510 C   0  0  0  0  0  2  0  0  0  0  0  0
  191.4840  177.8150  142.4430 C   0  0  0  0  0  2  0  0  0  0  0  0
  190.4960  175.8950  143.4550 O   0  0  0  0  0  0  0  0  0  0  0  0
  189.3730  177.9210  143.8050 N   0  0  0  0  0  2  0  0  0  0  0  0
  190.4520  177.1450  143.2780 C   0  0  0  0  0  0  0  0  0  0  0  0
  185.7300  178.2550  141.7920 C   0  0  0  0  0  3  0  0  0  0  0  0
  189.5090  177.7390  146.6550 C   0  0  0  0  0  3  0  0  0  0  0  0
  183.3070  178.5560  144.7270 C   0  0  0  0  0  2  0  0  0  0  0  0
  189.5580  178.0150  148.0240 C   0  0  0  0  0  3  0  0  0  0  0  0
  187.0880  177.8600  146.7090 C   0  0  0  0  0  0  0  0  0  0  0  0
  187.1420  178.1240  148.0830 C   0  0  0  0  0  3  0  0  0  0  0  0
  188.3740  178.2100  148.7380 C   0  0  0  0  0  3  0  0  0  0  0  0
  188.2790  177.6720  145.9790 C   0  0  0  0  0  0  0  0  0  0  0  0
  186.9040  177.8820  142.4410 C   0  0  0  0  0  3  0  0  0  0  0  0
  182.0690  178.7930  142.5850 C   0  0  1  0  0  3  0  0  0  0  0  0
  185.7670  177.9770  144.5860 C   0  0  0  0  0  0  0  0  0  0  0  0
  184.5680  178.4970  142.5230 C   0  0  0  0  0  0  0  0  0  0  0  0
  185.7490  177.6920  146.0660 C   0  0  0  0  0  2  0  0  0  0  0  0
  183.3520  178.9690  141.7750 C   0  0  0  0  0  2  0  0  0  0  0  0
  188.2350  177.3270  144.5040 C   0  0  1  0  0  3  0  0  0  0  0  0
  182.2580  179.3750  143.9800 C   0  0  0  0  0  2  0  0  0  0  0  0
  186.9450  177.7590  143.8380 C   0  0  0  0  0  0  0  0  0  0  0  0
  184.5800  178.3740  143.9340 C   0  0  0  0  0  0  0  0  0  0  0  0
  180.9140  179.4420  141.8940 C   0  0  0  0  0  0  0  0  0  0  0  0
  180.5170  179.0270  140.7730 O   0  0  0  0  0  0  0  0  0  0  0  0
  180.2800  180.5240  142.4910 O   0  0  0  0  0  1  0  0  0  0  0  0
  192.6680  176.7660  138.8880 C   0  0  0  0  0  2  0  0  0  0  0  0
  192.8800  176.1310  137.5230 C   0  0  0  0  0  2  0  0  0  0  0  0
  195.4910  172.7310  137.6070 C   0  0  0  0  0  3  0  0  0  0  0  0
  193.7000  174.8930  137.6450 C   0  0  0  0  0  0  0  0  0  0  0  0
  194.7660  174.8850  138.3940 N   0  0  0  0  0  0  0  0  0  0  0  0
  194.5140  172.8560  136.4730 C   0  0  0  0  0  2  0  0  0  0  0  0
  195.6170  173.7310  138.4840 C   0  0  0  0  0  3  0  0  0  0  0  0
  193.2820  173.6500  136.9080 C   0  0  0  0  0  2  0  0  0  0  0  0
  1 21  1  0  0  0  0
  2  3  1  0  0  0  0
  2  1  1  0  0  0  0
  5  3  1  0  0  0  0
  5  4  1  0  0  0  0
  6  5  1  0  0  0  0
  8 12  1  6  0  0  0
  8 10  1  0  0  0  0
  8 13  1  0  0  0  0
  8  5  1  0  0  0  0
 10 11  1  0  0  0  0
 10 13  1  0  0  0  0
 10  9  1  1  0  0  0
 11  7  1  6  0  0  0
 11 13  1  0  0  0  0
 11 17  1  0  0  0  0
 13 14  1  6  0  0  0
 15 14  2  0  0  0  0
 16 14  1  0  0  0  0
 17 18  1  6  0  0  0
 17 19  1  0  0  0  0
 19 20  1  0  0  0  0
 21 22  1  0  0  0  0
 22 23  1  0  0  0  0
 23 26  1  0  0  0  0
 26 24  2  0  0  0  0
 26 25  1  0  0  0  0
 27 35  2  0  0  0  0
 27 38  1  0  0  0  0
 28 30  1  0  0  0  0
 30 33  2  0  0  0  0
 31 32  2  0  0  0  0
 32 33  1  0  0  0  0
 34 28  2  0  0  0  0
 34 31  1  0  0  0  0
 35 43  1  0  0  0  0
 36 45  1  6  0  0  0
 36 42  1  0  0  0  0
 37 39  1  0  0  0  0
 38 44  2  0  0  0  0
 39 31  1  0  0  0  0
 40 38  1  0  0  0  0
 40 36  1  0  0  0  0
 41 25  1  6  0  0  0
 41 34  1  0  0  0  0
 42 29  1  0  0  0  0
 43 41  1  0  0  0  0
 43 37  2  0  0  0  0
 44 37  1  0  0  0  0
 44 29  1  0  0  0  0
 45 47  1  0  0  0  0
 46 45  2  0  0  0  0
 48  1  1  0  0  0  0
 49 51  1  0  0  0  0
 49 48  1  0  0  0  0
 50 54  2  0  0  0  0
 51 52  2  0  0  0  0
 52 54  1  0  0  0  0
 53 55  1  0  0  0  0
 53 50  1  0  0  0  0
 55 51  1  0  0  0  0
M  END
>  <MODEL>
2

>  <REMARK>
 VINA RESULT:      -9.0      2.852      7.538
  Name = 
  16 active torsions:
  status: ('A' for Active; 'I' for Inactive)
    1  A    between atoms: C_1  and  C_53
    2  A    between atoms: C_4  and  C_35
    3  A    between atoms: C_4  and  C_37
    4  A    between atoms: C_6  and  C_20
    5  A    between atoms: C_8  and  C_22
    6  A    between atoms: C_8  and  N_43
    7  A    between atoms: C_10  and  C_32
    8  A    between atoms: C_11  and  C_29
    9  A    between atoms: N_19  and  C_45
   10  A    between atoms: C_20  and  C_22
   11  A    between atoms: C_27  and  C_54
   12  A    between atoms: C_29  and  C_38
   13  A    between atoms: C_35  and  N_43
   14  A    between atoms: C_37  and  C_40
   15  A    between atoms: N_43  and  C_51
   16  A    between atoms: C_51  and  C_54
                            x       y       z     vdW  Elec       q    Type
                         _______ _______ _______ _____ _____    ______ ____

>  <TORSDO>
F 16

$$$$
=
 OpenBabel10262420243D

 55 61  0  0  1  0  0  0  0  0999 V2000
  185.7690  175.8380  136.6420 N   0  0  0  0  0  0  0  0  0  0  0  0
  186.7960  174.8090  136.5860 C   0  0  0  0  0  2  0  0  0  0  0  0
  188.0520  175.2790  137.3140 C   0  0  0  0  0  2  0  0  0  0  0  0
  189.6870  173.5260  137.2460 O   0  0  0  0  0  1  0  0  0  0  0  0
  189.3460  174.7600  136.6810 C   0  0  0  0  0  0  0  0  0  0  0  0
  189.1080  174.5600  135.3170 O   0  0  0  0  0  1  0  0  0  0  0  0
  193.5680  176.8280  137.3160 O   0  0  0  0  0  1  0  0  0  0  0  0
  190.5170  175.7630  136.8960 C   0  0  1  0  0  0  0  0  0  0  0  0
  191.8750  174.2160  135.6880 O   0  0  0  0  0  1  0  0  0  0  0  0
  191.8800  175.4620  136.3260 C   0  0  1  0  0  0  0  0  0  0  0  0
  193.0260  175.5350  137.2910 C   0  0  2  0  0  0  0  0  0  0  0  0
  190.2120  177.2510  136.6880 C   0  0  0  0  0  1  0  0  0  0  0  0
  191.6210  175.3310  137.8860 C   0  0  2  0  0  0  0  0  0  0  0  0
  191.5320  176.3040  139.0640 C   0  0  0  0  0  0  0  0  0  0  0  0
  190.5660  176.2380  139.8740 O   0  0  0  0  0  1  0  0  0  0  0  0
  192.6010  177.1380  139.3850 O   0  0  0  0  0  0  0  0  0  0  0  0
  194.0390  174.3810  137.4300 C   0  0  1  0  0  3  0  0  0  0  0  0
  194.8260  174.2300  136.2820 O   0  0  0  0  0  1  0  0  0  0  0  0
  194.9230  174.5750  138.6530 C   0  0  0  0  0  2  0  0  0  0  0  0
  196.1900  175.0040  138.2630 O   0  0  0  0  0  1  0  0  0  0  0  0
  186.4260  177.1300  136.4830 C   0  0  0  0  0  2  0  0  0  0  0  0
  186.0760  178.0220  137.6610 C   0  0  0  0  0  2  0  0  0  0  0  0
  184.6150  177.8610  138.0230 C   0  0  0  0  0  2  0  0  0  0  0  0
  184.4390  180.0070  139.0470 O   0  0  0  0  0  0  0  0  0  0  0  0
  183.9380  178.1790  140.4240 N   0  0  0  0  0  2  0  0  0  0  0  0
  184.3060  178.7570  139.1700 C   0  0  0  0  0  0  0  0  0  0  0  0
  187.1980  178.0830  143.0310 C   0  0  0  0  0  3  0  0  0  0  0  0
  181.2730  178.6210  141.3600 C   0  0  0  0  0  3  0  0  0  0  0  0
  185.4350  178.3580  146.4060 C   0  0  0  0  0  2  0  0  0  0  0  0
  179.9830  178.4760  141.8780 C   0  0  0  0  0  3  0  0  0  0  0  0
  182.1640  178.7920  143.6080 C   0  0  0  0  0  0  0  0  0  0  0  0
  180.8690  178.6590  144.1200 C   0  0  0  0  0  3  0  0  0  0  0  0
  179.7810  178.4930  143.2590 C   0  0  0  0  0  3  0  0  0  0  0  0
  182.3780  178.7660  142.2150 C   0  0  0  0  0  0  0  0  0  0  0  0
  186.1600  178.3760  142.1520 C   0  0  0  0  0  3  0  0  0  0  0  0
  187.8770  178.0600  146.7540 C   0  0  1  0  0  3  0  0  0  0  0  0
  184.6280  178.6260  144.0220 C   0  0  0  0  0  0  0  0  0  0  0  0
  186.9700  178.0510  144.4060 C   0  0  0  0  0  0  0  0  0  0  0  0
  183.2870  179.0540  144.5600 C   0  0  0  0  0  2  0  0  0  0  0  0
  188.1130  177.6560  145.3000 C   0  0  0  0  0  2  0  0  0  0  0  0
  183.7670  178.9680  141.6420 C   0  0  1  0  0  3  0  0  0  0  0  0
  186.4950  177.5990  147.1990 C   0  0  0  0  0  2  0  0  0  0  0  0
  184.8650  178.6290  142.6290 C   0  0  0  0  0  0  0  0  0  0  0  0
  185.6740  178.3090  144.9140 C   0  0  0  0  0  0  0  0  0  0  0  0
  188.9350  177.4880  147.6400 C   0  0  0  0  0  0  0  0  0  0  0  0
  189.0380  177.8530  148.8420 O   0  0  0  0  0  1  0  0  0  0  0  0
  189.8220  176.5500  147.1280 O   0  0  0  0  0  0  0  0  0  0  0  0
  184.9250  175.6380  135.4740 C   0  0  0  0  0  2  0  0  0  0  0  0
  183.8430  174.6170  135.7890 C   0  0  0  0  0  2  0  0  0  0  0  0
  180.8510  176.7260  138.0230 C   0  0  0  0  0  3  0  0  0  0  0  0
  182.7100  175.2640  136.5090 C   0  0  0  0  0  0  0  0  0  0  0  0
  182.1990  176.3750  136.0620 N   0  0  0  0  0  0  0  0  0  0  0  0
  181.6750  175.6870  138.7300 C   0  0  0  0  0  2  0  0  0  0  0  0
  181.1500  177.0610  136.7650 C   0  0  0  0  0  3  0  0  0  0  0  0
  182.1530  174.6170  137.7480 C   0  0  0  0  0  2  0  0  0  0  0  0
  2  1  1  0  0  0  0
  2  3  1  0  0  0  0
  5  8  1  0  0  0  0
  5  4  1  0  0  0  0
  5  3  1  0  0  0  0
  6  5  1  0  0  0  0
  8 12  1  1  0  0  0
  8 13  1  0  0  0  0
 10  9  1  6  0  0  0
 10  8  1  0  0  0  0
 10 11  1  0  0  0  0
 10 13  1  0  0  0  0
 11  7  1  1  0  0  0
 11 17  1  0  0  0  0
 11 13  1  0  0  0  0
 13 14  1  6  0  0  0
 14 16  2  0  0  0  0
 14 15  1  0  0  0  0
 17 18  1  6  0  0  0
 17 19  1  0  0  0  0
 20 19  1  0  0  0  0
 21  1  1  0  0  0  0
 21 22  1  0  0  0  0
 22 23  1  0  0  0  0
 23 26  1  0  0  0  0
 24 26  2  0  0  0  0
 26 25  1  0  0  0  0
 27 38  1  0  0  0  0
 28 30  2  0  0  0  0
 28 34  1  0  0  0  0
 29 42  1  0  0  0  0
 30 33  1  0  0  0  0
 31 32  1  0  0  0  0
 31 39  1  0  0  0  0
 33 32  2  0  0  0  0
 34 31  2  0  0  0  0
 35 43  1  0  0  0  0
 35 27  2  0  0  0  0
 36 42  1  0  0  0  0
 36 45  1  1  0  0  0
 37 39  1  0  0  0  0
 37 44  1  0  0  0  0
 38 44  2  0  0  0  0
 38 40  1  0  0  0  0
 40 36  1  0  0  0  0
 41 25  1  6  0  0  0
 41 34  1  0  0  0  0
 41 43  1  0  0  0  0
 43 37  2  0  0  0  0
 44 29  1  0  0  0  0
 45 46  1  0  0  0  0
 47 45  2  0  0  0  0
 48 49  1  0  0  0  0
 48  1  1  0  0  0  0
 49 51  1  0  0  0  0
 50 53  1  0  0  0  0
 51 55  1  0  0  0  0
 52 51  2  0  0  0  0
 52 54  1  0  0  0  0
 54 50  2  0  0  0  0
 55 53  1  0  0  0  0
M  END
>  <MODEL>
3

>  <REMARK>
 VINA RESULT:      -8.8      1.827      4.040
  Name = 
  16 active torsions:
  status: ('A' for Active; 'I' for Inactive)
    1  A    between atoms: C_1  and  C_53
    2  A    between atoms: C_4  and  C_35
    3  A    between atoms: C_4  and  C_37
    4  A    between atoms: C_6  and  C_20
    5  A    between atoms: C_8  and  C_22
    6  A    between atoms: C_8  and  N_43
    7  A    between atoms: C_10  and  C_32
    8  A    between atoms: C_11  and  C_29
    9  A    between atoms: N_19  and  C_45
   10  A    between atoms: C_20  and  C_22
   11  A    between atoms: C_27  and  C_54
   12  A    between atoms: C_29  and  C_38
   13  A    between atoms: C_35  and  N_43
   14  A    between atoms: C_37  and  C_40
   15  A    between atoms: N_43  and  C_51
   16  A    between atoms: C_51  and  C_54
                            x       y       z     vdW  Elec       q    Type
                         _______ _______ _______ _____ _____    ______ ____

>  <TORSDO>
F 16

$$$$
=
 OpenBabel10262420243D

 55 61  0  0  1  0  0  0  0  0999 V2000
  189.3560  177.6860  138.3580 N   0  0  0  0  0  0  0  0  0  0  0  0
  187.9830  178.0190  138.0090 C   0  0  0  0  0  2  0  0  0  0  0  0
  187.1310  176.7540  137.9650 C   0  0  0  0  0  2  0  0  0  0  0  0
  186.2560  177.8980  136.0470 O   0  0  0  0  0  1  0  0  0  0  0  0
  186.2310  176.6760  136.7270 C   0  0  0  0  0  0  0  0  0  0  0  0
  186.7530  175.6960  135.8780 O   0  0  0  0  0  1  0  0  0  0  0  0
  182.0480  174.5810  137.5110 O   0  0  0  0  0  1  0  0  0  0  0  0
  184.7630  176.3400  137.1230 C   0  0  1  0  0  0  0  0  0  0  0  0
  185.5280  174.1120  137.5070 O   0  0  0  0  0  1  0  0  0  0  0  0
  184.4060  174.9450  137.5700 C   0  0  1  0  0  0  0  0  0  0  0  0
  183.2550  174.3010  136.8540 C   0  0  2  0  0  0  0  0  0  0  0  0
  184.0290  177.3480  138.0150 C   0  0  0  0  0  1  0  0  0  0  0  0
  183.9680  175.4590  136.1340 C   0  0  2  0  0  0  0  0  0  0  0  0
  182.8490  176.3500  135.5870 C   0  0  0  0  0  0  0  0  0  0  0  0
  183.0700  177.1290  134.6200 O   0  0  0  0  0  0  0  0  0  0  0  0
  181.5300  176.1760  136.0010 O   0  0  0  0  0  1  0  0  0  0  0  0
  183.3730  172.8930  136.2390 C   0  0  1  0  0  3  0  0  0  0  0  0
  182.8600  171.9030  137.0860 O   0  0  0  0  0  1  0  0  0  0  0  0
  182.6870  172.8310  134.8820 C   0  0  0  0  0  2  0  0  0  0  0  0
  181.3350  172.5330  135.0440 O   0  0  0  0  0  1  0  0  0  0  0  0
  189.4460  177.6370  139.8120 C   0  0  0  0  0  2  0  0  0  0  0  0
  190.7830  177.0420  140.2150 C   0  0  0  0  0  2  0  0  0  0  0  0
  191.1300  177.4470  141.6320 C   0  0  0  0  0  2  0  0  0  0  0  0
  190.0190  175.5690  142.5920 O   0  0  0  0  0  0  0  0  0  0  0  0
  189.3090  177.6670  143.3520 N   0  0  0  0  0  2  0  0  0  0  0  0
  190.1500  176.8240  142.5620 C   0  0  0  0  0  0  0  0  0  0  0  0
  185.5040  178.1940  141.7160 C   0  0  0  0  0  3  0  0  0  0  0  0
  189.7270  177.5150  146.1770 C   0  0  0  0  0  3  0  0  0  0  0  0
  183.4180  178.6780  144.8760 C   0  0  0  0  0  2  0  0  0  0  0  0
  189.9330  177.8050  147.5280 C   0  0  0  0  0  3  0  0  0  0  0  0
  187.3360  177.7820  146.4750 C   0  0  0  0  0  0  0  0  0  0  0  0
  187.5470  178.0590  147.8310 C   0  0  0  0  0  3  0  0  0  0  0  0
  188.8430  178.0800  148.3550 C   0  0  0  0  0  3  0  0  0  0  0  0
  188.4320  177.5130  145.6310 C   0  0  0  0  0  0  0  0  0  0  0  0
  186.7150  177.7590  142.2480 C   0  0  0  0  0  3  0  0  0  0  0  0
  181.9820  178.9620  142.8680 C   0  0  1  0  0  3  0  0  0  0  0  0
  185.8120  177.9500  144.4960 C   0  0  0  0  0  0  0  0  0  0  0  0
  184.4400  178.5150  142.5570 C   0  0  0  0  0  0  0  0  0  0  0  0
  185.9300  177.6860  145.9750 C   0  0  0  0  0  2  0  0  0  0  0  0
  183.1820  179.0500  141.9280 C   0  0  0  0  0  2  0  0  0  0  0  0
  188.2160  177.1520  144.1750 C   0  0  1  0  0  3  0  0  0  0  0  0
  182.3470  179.5500  144.2250 C   0  0  0  0  0  2  0  0  0  0  0  0
  186.8920  177.6520  143.6360 C   0  0  0  0  0  0  0  0  0  0  0  0
  184.5900  178.4100  143.9610 C   0  0  0  0  0  0  0  0  0  0  0  0
  180.8020  179.6700  142.2860 C   0  0  0  0  0  0  0  0  0  0  0  0
  180.5590  179.6110  141.0510 O   0  0  0  0  0  0  0  0  0  0  0  0
  179.9720  180.4120  143.1160 O   0  0  0  0  0  1  0  0  0  0  0  0
  189.5870  176.3360  137.8670 C   0  0  0  0  0  2  0  0  0  0  0  0
  190.4160  176.3860  136.5930 C   0  0  0  0  0  2  0  0  0  0  0  0
  193.9540  174.1220  137.4550 C   0  0  0  0  0  3  0  0  0  0  0  0
  191.6990  175.6520  136.7750 C   0  0  0  0  0  0  0  0  0  0  0  0
  191.7870  174.3950  136.4480 N   0  0  0  0  0  0  0  0  0  0  0  0
  193.7430  175.4240  138.1740 C   0  0  0  0  0  2  0  0  0  0  0  0
  192.9880  173.6380  136.6700 C   0  0  0  0  0  3  0  0  0  0  0  0
  192.8960  176.3760  137.3290 C   0  0  0  0  0  2  0  0  0  0  0  0
  1 21  1  0  0  0  0
  2  1  1  0  0  0  0
  3  2  1  0  0  0  0
  4  5  1  0  0  0  0
  5  8  1  0  0  0  0
  5  3  1  0  0  0  0
  6  5  1  0  0  0  0
  8 10  1  0  0  0  0
  8 12  1  1  0  0  0
 10  9  1  6  0  0  0
 11  7  1  1  0  0  0
 11 10  1  0  0  0  0
 13 14  1  1  0  0  0
 13 11  1  0  0  0  0
 13  8  1  0  0  0  0
 13 10  1  0  0  0  0
 14 16  1  0  0  0  0
 15 14  2  0  0  0  0
 17 11  1  0  0  0  0
 17 18  1  1  0  0  0
 19 20  1  0  0  0  0
 19 17  1  0  0  0  0
 21 22  1  0  0  0  0
 22 23  1  0  0  0  0
 23 26  1  0  0  0  0
 26 24  2  0  0  0  0
 26 25  1  0  0  0  0
 27 35  2  0  0  0  0
 27 38  1  0  0  0  0
 28 30  1  0  0  0  0
 30 33  2  0  0  0  0
 31 32  2  0  0  0  0
 32 33  1  0  0  0  0
 34 28  2  0  0  0  0
 34 31  1  0  0  0  0
 35 43  1  0  0  0  0
 36 45  1  6  0  0  0
 36 42  1  0  0  0  0
 37 39  1  0  0  0  0
 38 44  2  0  0  0  0
 39 31  1  0  0  0  0
 40 38  1  0  0  0  0
 40 36  1  0  0  0  0
 41 25  1  6  0  0  0
 41 34  1  0  0  0  0
 42 29  1  0  0  0  0
 43 41  1  0  0  0  0
 43 37  2  0  0  0  0
 44 37  1  0  0  0  0
 44 29  1  0  0  0  0
 45 47  1  0  0  0  0
 46 45  2  0  0  0  0
 48  1  1  0  0  0  0
 49 51  1  0  0  0  0
 49 48  1  0  0  0  0
 50 53  1  0  0  0  0
 51 55  1  0  0  0  0
 52 54  1  0  0  0  0
 52 51  2  0  0  0  0
 54 50  2  0  0  0  0
 55 53  1  0  0  0  0
M  END
>  <MODEL>
4

>  <REMARK>
 VINA RESULT:      -8.6      3.139      7.734
  Name = 
  16 active torsions:
  status: ('A' for Active; 'I' for Inactive)
    1  A    between atoms: C_1  and  C_53
    2  A    between atoms: C_4  and  C_35
    3  A    between atoms: C_4  and  C_37
    4  A    between atoms: C_6  and  C_20
    5  A    between atoms: C_8  and  C_22
    6  A    between atoms: C_8  and  N_43
    7  A    between atoms: C_10  and  C_32
    8  A    between atoms: C_11  and  C_29
    9  A    between atoms: N_19  and  C_45
   10  A    between atoms: C_20  and  C_22
   11  A    between atoms: C_27  and  C_54
   12  A    between atoms: C_29  and  C_38
   13  A    between atoms: C_35  and  N_43
   14  A    between atoms: C_37  and  C_40
   15  A    between atoms: N_43  and  C_51
   16  A    between atoms: C_51  and  C_54
                            x       y       z     vdW  Elec       q    Type
                         _______ _______ _______ _____ _____    ______ ____

>  <TORSDO>
F 16

$$$$
=
 OpenBabel10262420243D

 55 61  0  0  1  0  0  0  0  0999 V2000
  182.7400  175.6010  136.7270 N   0  0  0  0  0  0  0  0  0  0  0  0
  183.7200  174.6620  136.2000 C   0  0  0  0  0  2  0  0  0  0  0  0
  185.0000  174.7190  137.0270 C   0  0  0  0  0  2  0  0  0  0  0  0
  186.9060  173.2640  137.0850 O   0  0  0  0  0  1  0  0  0  0  0  0
  186.2260  174.1830  136.2790 C   0  0  0  0  0  0  0  0  0  0  0  0
  185.7730  173.5100  135.1400 O   0  0  0  0  0  1  0  0  0  0  0  0
  190.0050  176.8920  135.3410 O   0  0  0  0  0  1  0  0  0  0  0  0
  187.1940  175.3380  135.8900 C   0  0  1  0  0  0  0  0  0  0  0  0
  188.6970  173.6380  135.1510 O   0  0  0  0  0  1  0  0  0  0  0  0
  188.5230  175.0230  135.2530 C   0  0  1  0  0  0  0  0  0  0  0  0
  189.7260  175.6390  135.9050 C   0  0  2  0  0  0  0  0  0  0  0  0
  186.5850  176.5560  135.1850 C   0  0  0  0  0  1  0  0  0  0  0  0
  188.4570  175.5020  136.7640 C   0  0  2  0  0  0  0  0  0  0  0  0
  188.3000  176.8480  137.4780 C   0  0  0  0  0  0  0  0  0  0  0  0
  188.8370  177.0400  138.6030 O   0  0  0  0  0  1  0  0  0  0  0  0
  187.7430  177.9440  136.8210 O   0  0  0  0  0  0  0  0  0  0  0  0
  190.9530  174.7930  136.2980 C   0  0  1  0  0  3  0  0  0  0  0  0
  191.7180  174.4250  135.1850 O   0  0  0  0  0  1  0  0  0  0  0  0
  191.8190  175.5260  137.3130 C   0  0  0  0  0  2  0  0  0  0  0  0
  191.4290  175.1840  138.6070 O   0  0  0  0  0  1  0  0  0  0  0  0
  183.0910  176.9300  136.2400 C   0  0  0  0  0  2  0  0  0  0  0  0
  183.1240  177.9020  137.4050 C   0  0  0  0  0  2  0  0  0  0  0  0
  184.5420  178.0680  137.9090 C   0  0  0  0  0  2  0  0  0  0  0  0
  184.5160  180.1530  139.0640 O   0  0  0  0  0  0  0  0  0  0  0  0
  184.5730  178.2410  140.4170 N   0  0  0  0  0  2  0  0  0  0  0  0
  184.5160  178.8930  139.1460 C   0  0  0  0  0  0  0  0  0  0  0  0
  188.2750  177.7960  142.2960 C   0  0  0  0  0  3  0  0  0  0  0  0
  182.1890  178.7940  141.8960 C   0  0  0  0  0  3  0  0  0  0  0  0
  187.2510  177.9880  145.9690 C   0  0  0  0  0  2  0  0  0  0  0  0
  181.0230  178.7000  142.6600 C   0  0  0  0  0  3  0  0  0  0  0  0
  183.5250  178.7820  143.9200 C   0  0  0  0  0  0  0  0  0  0  0  0
  182.3530  178.7010  144.6800 C   0  0  0  0  0  3  0  0  0  0  0  0
  181.1050  178.6510  144.0530 C   0  0  0  0  0  3  0  0  0  0  0  0
  183.4520  178.8220  142.5130 C   0  0  0  0  0  0  0  0  0  0  0  0
  187.1050  178.2030  141.6610 C   0  0  0  0  0  3  0  0  0  0  0  0
  189.6860  177.5210  145.7980 C   0  0  1  0  0  3  0  0  0  0  0  0
  186.0030  178.4400  143.8140 C   0  0  0  0  0  0  0  0  0  0  0  0
  188.3270  177.7010  143.6860 C   0  0  0  0  0  0  0  0  0  0  0  0
  184.8320  178.9190  144.6330 C   0  0  0  0  0  2  0  0  0  0  0  0
  189.5940  177.1860  144.3100 C   0  0  0  0  0  2  0  0  0  0  0  0
  184.7080  178.9700  141.6780 C   0  0  1  0  0  3  0  0  0  0  0  0
  188.3920  177.1220  146.4950 C   0  0  0  0  0  2  0  0  0  0  0  0
  185.9540  178.5080  142.4030 C   0  0  0  0  0  0  0  0  0  0  0  0
  187.1810  178.0100  144.4590 C   0  0  0  0  0  0  0  0  0  0  0  0
  190.8560  176.8350  146.4230 C   0  0  0  0  0  0  0  0  0  0  0  0
  191.0340  176.8700  147.6700 O   0  0  0  0  0  1  0  0  0  0  0  0
  191.7640  176.1610  145.6170 O   0  0  0  0  0  0  0  0  0  0  0  0
  181.4660  175.2440  136.1250 C   0  0  0  0  0  2  0  0  0  0  0  0
  180.3350  175.9530  136.8530 C   0  0  0  0  0  2  0  0  0  0  0  0
  179.5530  174.5060  140.8140 C   0  0  0  0  0  3  0  0  0  0  0  0
  180.2000  175.4310  138.2420 C   0  0  0  0  0  0  0  0  0  0  0  0
  179.8410  174.1960  138.4460 N   0  0  0  0  0  0  0  0  0  0  0  0
  179.5860  175.9910  140.5860 C   0  0  0  0  0  2  0  0  0  0  0  0
  179.6370  173.6770  139.7700 C   0  0  0  0  0  3  0  0  0  0  0  0
  180.4950  176.3360  139.4070 C   0  0  0  0  0  2  0  0  0  0  0  0
  2  1  1  0  0  0  0
  2  3  1  0  0  0  0
  5  3  1  0  0  0  0
  5  4  1  0  0  0  0
  6  5  1  0  0  0  0
  8 12  1  6  0  0  0
  8  5  1  0  0  0  0
  8 13  1  0  0  0  0
 10  9  1  6  0  0  0
 10  8  1  0  0  0  0
 10 11  1  0  0  0  0
 10 13  1  0  0  0  0
 11  7  1  6  0  0  0
 11 17  1  0  0  0  0
 11 13  1  0  0  0  0
 13 14  1  6  0  0  0
 14 15  1  0  0  0  0
 16 14  2  0  0  0  0
 17 18  1  6  0  0  0
 17 19  1  0  0  0  0
 19 20  1  0  0  0  0
 21  1  1  0  0  0  0
 21 22  1  0  0  0  0
 22 23  1  0  0  0  0
 23 26  1  0  0  0  0
 24 26  2  0  0  0  0
 26 25  1  0  0  0  0
 27 38  1  0  0  0  0
 28 34  2  0  0  0  0
 28 30  1  0  0  0  0
 29 42  1  0  0  0  0
 30 33  2  0  0  0  0
 31 39  1  0  0  0  0
 31 32  2  0  0  0  0
 33 32  1  0  0  0  0
 34 31  1  0  0  0  0
 35 27  2  0  0  0  0
 35 43  1  0  0  0  0
 36 45  1  1  0  0  0
 36 42  1  0  0  0  0
 37 44  1  0  0  0  0
 37 39  1  0  0  0  0
 38 40  1  0  0  0  0
 38 44  2  0  0  0  0
 40 36  1  0  0  0  0
 41 25  1  6  0  0  0
 41 43  1  0  0  0  0
 41 34  1  0  0  0  0
 43 37  2  0  0  0  0
 44 29  1  0  0  0  0
 45 46  1  0  0  0  0
 47 45  2  0  0  0  0
 48  1  1  0  0  0  0
 48 49  1  0  0  0  0
 49 51  1  0  0  0  0
 51 52  2  0  0  0  0
 51 55  1  0  0  0  0
 52 54  1  0  0  0  0
 53 50  1  0  0  0  0
 54 50  2  0  0  0  0
 55 53  1  0  0  0  0
M  END
>  <MODEL>
5

>  <REMARK>
 VINA RESULT:      -8.5      2.569      5.330
  Name = 
  16 active torsions:
  status: ('A' for Active; 'I' for Inactive)
    1  A    between atoms: C_1  and  C_53
    2  A    between atoms: C_4  and  C_35
    3  A    between atoms: C_4  and  C_37
    4  A    between atoms: C_6  and  C_20
    5  A    between atoms: C_8  and  C_22
    6  A    between atoms: C_8  and  N_43
    7  A    between atoms: C_10  and  C_32
    8  A    between atoms: C_11  and  C_29
    9  A    between atoms: N_19  and  C_45
   10  A    between atoms: C_20  and  C_22
   11  A    between atoms: C_27  and  C_54
   12  A    between atoms: C_29  and  C_38
   13  A    between atoms: C_35  and  N_43
   14  A    between atoms: C_37  and  C_40
   15  A    between atoms: N_43  and  C_51
   16  A    between atoms: C_51  and  C_54
                            x       y       z     vdW  Elec       q    Type
                         _______ _______ _______ _____ _____    ______ ____

>  <TORSDO>
F 16

$$$$
=
 OpenBabel10262420243D

 55 61  0  0  1  0  0  0  0  0999 V2000
  187.9250  174.5410  136.0520 N   0  0  0  0  0  0  0  0  0  0  0  0
  187.3120  173.2250  136.1440 C   0  0  0  0  0  2  0  0  0  0  0  0
  185.9810  173.2120  135.3990 C   0  0  0  0  0  2  0  0  0  0  0  0
  184.7300  171.2010  135.7790 O   0  0  0  0  0  1  0  0  0  0  0  0
  184.8550  172.5330  136.1870 C   0  0  0  0  0  0  0  0  0  0  0  0
  185.2120  172.5410  137.5390 O   0  0  0  0  0  1  0  0  0  0  0  0
  181.0330  175.3220  136.5250 O   0  0  0  0  0  1  0  0  0  0  0  0
  183.4990  173.2660  135.9700 C   0  0  1  0  0  0  0  0  0  0  0  0
  184.4990  175.1380  137.0620 O   0  0  0  0  0  1  0  0  0  0  0  0
  183.3330  174.6920  136.4290 C   0  0  1  0  0  0  0  0  0  0  0  0
  182.1440  174.9660  137.3030 C   0  0  2  0  0  0  0  0  0  0  0  0
  182.8280  173.1060  134.6000 C   0  0  0  0  0  1  0  0  0  0  0  0
  182.6390  173.5110  137.2290 C   0  0  2  0  0  0  0  0  0  0  0  0
  181.3780  172.6600  137.0460 C   0  0  0  0  0  0  0  0  0  0  0  0
  181.4200  171.5960  136.3710 O   0  0  0  0  0  0  0  0  0  0  0  0
  180.2240  172.9270  137.7800 O   0  0  0  0  0  1  0  0  0  0  0  0
  182.2850  175.7040  138.6480 C   0  0  1  0  0  3  0  0  0  0  0  0
  182.6480  177.0450  138.4790 O   0  0  0  0  0  1  0  0  0  0  0  0
  181.0020  175.6050  139.4620 C   0  0  0  0  0  2  0  0  0  0  0  0
  180.7940  176.7870  140.1700 O   0  0  0  0  0  1  0  0  0  0  0  0
  188.0580  175.0660  137.4060 C   0  0  0  0  0  2  0  0  0  0  0  0
  187.8110  176.5640  137.3930 C   0  0  0  0  0  2  0  0  0  0  0  0
  189.0680  177.3050  137.7980 C   0  0  0  0  0  2  0  0  0  0  0  0
  189.0230  179.4320  138.8740 O   0  0  0  0  0  0  0  0  0  0  0  0
  188.2010  177.6370  140.1350 N   0  0  0  0  0  2  0  0  0  0  0  0
  188.7470  178.2010  138.9410 C   0  0  0  0  0  0  0  0  0  0  0  0
  191.0850  177.0090  143.0870 C   0  0  0  0  0  3  0  0  0  0  0  0
  185.5300  178.4290  140.7810 C   0  0  0  0  0  3  0  0  0  0  0  0
  188.9910  177.4440  146.2500 C   0  0  0  0  0  2  0  0  0  0  0  0
  184.1810  178.4560  141.1430 C   0  0  0  0  0  3  0  0  0  0  0  0
  186.1660  178.4130  143.1210 C   0  0  0  0  0  0  0  0  0  0  0  0
  184.8130  178.4530  143.4770 C   0  0  0  0  0  3  0  0  0  0  0  0
  183.8220  178.4660  142.4920 C   0  0  0  0  0  3  0  0  0  0  0  0
  186.5370  178.3930  141.7610 C   0  0  0  0  0  0  0  0  0  0  0  0
  190.2080  177.4700  142.1100 C   0  0  0  0  0  3  0  0  0  0  0  0
  191.3110  176.7930  146.8590 C   0  0  1  0  0  3  0  0  0  0  0  0
  188.5160  177.8860  143.8030 C   0  0  0  0  0  0  0  0  0  0  0  0
  190.6940  176.9740  144.4250 C   0  0  0  0  0  0  0  0  0  0  0  0
  187.1930  178.4870  144.2040 C   0  0  0  0  0  2  0  0  0  0  0  0
  191.6580  176.3960  145.4250 C   0  0  0  0  0  2  0  0  0  0  0  0
  187.9970  178.4100  141.3580 C   0  0  1  0  0  3  0  0  0  0  0  0
  189.8350  176.5210  147.1250 C   0  0  0  0  0  2  0  0  0  0  0  0
  188.9130  177.8920  142.4470 C   0  0  0  0  0  0  0  0  0  0  0  0
  189.3950  177.4010  144.7940 C   0  0  0  0  0  0  0  0  0  0  0  0
  192.1670  176.0520  147.8340 C   0  0  0  0  0  0  0  0  0  0  0  0
  193.0220  176.6590  148.5330 O   0  0  0  0  0  1  0  0  0  0  0  0
  192.0260  174.6770  147.9610 O   0  0  0  0  0  0  0  0  0  0  0  0
  189.2700  174.3310  135.5380 C   0  0  0  0  0  2  0  0  0  0  0  0
  190.1670  173.8010  136.6440 C   0  0  0  0  0  2  0  0  0  0  0  0
  194.1700  174.9070  135.5750 C   0  0  0  0  0  3  0  0  0  0  0  0
  191.5810  174.2060  136.4090 C   0  0  0  0  0  0  0  0  0  0  0  0
  191.8590  175.4140  136.0090 N   0  0  0  0  0  0  0  0  0  0  0  0
  193.8270  173.4470  135.6560 C   0  0  0  0  0  2  0  0  0  0  0  0
  193.2040  175.8200  135.7080 C   0  0  0  0  0  3  0  0  0  0  0  0
  192.6870  173.2140  136.6470 C   0  0  0  0  0  2  0  0  0  0  0  0
  1  2  1  0  0  0  0
  1 21  1  0  0  0  0
  3  2  1  0  0  0  0
  3  5  1  0  0  0  0
  4  5  1  0  0  0  0
  5  6  1  0  0  0  0
  8 12  1  6  0  0  0
  8  5  1  0  0  0  0
  8 10  1  0  0  0  0
  8 13  1  0  0  0  0
 10  9  1  1  0  0  0
 10 13  1  0  0  0  0
 10 11  1  0  0  0  0
 11  7  1  6  0  0  0
 11 17  1  0  0  0  0
 13 14  1  6  0  0  0
 13 11  1  0  0  0  0
 14 16  1  0  0  0  0
 15 14  2  0  0  0  0
 17 18  1  6  0  0  0
 17 19  1  0  0  0  0
 19 20  1  0  0  0  0
 22 21  1  0  0  0  0
 22 23  1  0  0  0  0
 23 26  1  0  0  0  0
 24 26  2  0  0  0  0
 26 25  1  0  0  0  0
 27 38  1  0  0  0  0
 28 30  2  0  0  0  0
 28 34  1  0  0  0  0
 29 42  1  0  0  0  0
 30 33  1  0  0  0  0
 31 32  1  0  0  0  0
 31 39  1  0  0  0  0
 33 32  2  0  0  0  0
 34 31  2  0  0  0  0
 35 43  1  0  0  0  0
 35 27  2  0  0  0  0
 36 42  1  0  0  0  0
 36 45  1  1  0  0  0
 37 39  1  0  0  0  0
 37 44  1  0  0  0  0
 38 44  2  0  0  0  0
 38 40  1  0  0  0  0
 40 36  1  0  0  0  0
 41 25  1  6  0  0  0
 41 34  1  0  0  0  0
 41 43  1  0  0  0  0
 43 37  2  0  0  0  0
 44 29  1  0  0  0  0
 45 47  2  0  0  0  0
 45 46  1  0  0  0  0
 48  1  1  0  0  0  0
 48 49  1  0  0  0  0
 50 53  1  0  0  0  0
 50 54  2  0  0  0  0
 51 49  1  0  0  0  0
 51 55  1  0  0  0  0
 52 51  2  0  0  0  0
 53 55  1  0  0  0  0
 54 52  1  0  0  0  0
M  END
>  <MODEL>
6

>  <REMARK>
 VINA RESULT:      -7.2      3.566      7.481
  Name = 
  16 active torsions:
  status: ('A' for Active; 'I' for Inactive)
    1  A    between atoms: C_1  and  C_53
    2  A    between atoms: C_4  and  C_35
    3  A    between atoms: C_4  and  C_37
    4  A    between atoms: C_6  and  C_20
    5  A    between atoms: C_8  and  C_22
    6  A    between atoms: C_8  and  N_43
    7  A    between atoms: C_10  and  C_32
    8  A    between atoms: C_11  and  C_29
    9  A    between atoms: N_19  and  C_45
   10  A    between atoms: C_20  and  C_22
   11  A    between atoms: C_27  and  C_54
   12  A    between atoms: C_29  and  C_38
   13  A    between atoms: C_35  and  N_43
   14  A    between atoms: C_37  and  C_40
   15  A    between atoms: N_43  and  C_51
   16  A    between atoms: C_51  and  C_54
                            x       y       z     vdW  Elec       q    Type
                         _______ _______ _______ _____ _____    ______ ____

>  <TORSDO>
F 16

$$$$
=
 OpenBabel10262420243D

 55 61  0  0  1  0  0  0  0  0999 V2000
  188.2060  177.3880  137.6330 N   0  0  0  0  0  0  0  0  0  0  0  0
  188.6200  176.0370  137.2850 C   0  0  0  0  0  2  0  0  0  0  0  0
  189.8490  176.0800  136.3820 C   0  0  0  0  0  2  0  0  0  0  0  0
  190.5200  174.0380  137.4450 O   0  0  0  0  0  1  0  0  0  0  0  0
  190.5280  174.7160  136.2220 C   0  0  0  0  0  0  0  0  0  0  0  0
  189.7790  173.9680  135.3080 O   0  0  0  0  0  1  0  0  0  0  0  0
  195.1050  174.0940  135.1420 O   0  0  0  0  0  1  0  0  0  0  0  0
  191.9970  174.8760  135.7340 C   0  0  1  0  0  0  0  0  0  0  0  0
  191.9690  172.5230  135.3340 O   0  0  0  0  0  1  0  0  0  0  0  0
  192.7570  173.6750  135.2290 C   0  0  1  0  0  0  0  0  0  0  0  0
  194.0970  173.4340  135.8590 C   0  0  2  0  0  0  0  0  0  0  0  0
  192.3090  176.0740  134.8290 C   0  0  0  0  0  1  0  0  0  0  0  0
  193.0950  174.2930  136.6510 C   0  0  2  0  0  0  0  0  0  0  0  0
  193.8990  175.4950  137.1570 C   0  0  0  0  0  0  0  0  0  0  0  0
  193.5610  176.0850  138.2200 O   0  0  0  0  0  1  0  0  0  0  0  0
  195.1210  175.8310  136.5780 O   0  0  0  0  0  0  0  0  0  0  0  0
  194.4790  172.0580  136.4410 C   0  0  1  0  0  3  0  0  0  0  0  0
  194.6900  171.1030  135.4400 O   0  0  0  0  0  1  0  0  0  0  0  0
  195.7060  172.1660  137.3350 C   0  0  0  0  0  2  0  0  0  0  0  0
  195.3170  172.3770  138.6560 O   0  0  0  0  0  1  0  0  0  0  0  0
  186.7960  177.5250  137.2860 C   0  0  0  0  0  2  0  0  0  0  0  0
  186.2230  176.1570  136.9590 C   0  0  0  0  0  2  0  0  0  0  0  0
  184.7410  176.2660  136.6690 C   0  0  0  0  0  2  0  0  0  0  0  0
  183.6790  176.1570  138.7990 O   0  0  0  0  0  0  0  0  0  0  0  0
  183.8000  178.2870  137.8330 N   0  0  0  0  0  2  0  0  0  0  0  0
  184.0680  176.8830  137.8430 C   0  0  0  0  0  0  0  0  0  0  0  0
  185.8410  178.9580  141.4120 C   0  0  0  0  0  3  0  0  0  0  0  0
  180.9600  177.9640  137.7540 C   0  0  0  0  0  3  0  0  0  0  0  0
  183.0000  178.6180  143.9400 C   0  0  0  0  0  2  0  0  0  0  0  0
  179.6580  177.4600  137.7980 C   0  0  0  0  0  3  0  0  0  0  0  0
  180.9280  178.2770  140.1580 C   0  0  0  0  0  0  0  0  0  0  0  0
  179.6190  177.7830  140.1940 C   0  0  0  0  0  3  0  0  0  0  0  0
  178.9870  177.3670  139.0190 C   0  0  0  0  0  3  0  0  0  0  0  0
  181.6160  178.3650  138.9310 C   0  0  0  0  0  0  0  0  0  0  0  0
  185.1390  178.9990  140.2120 C   0  0  0  0  0  3  0  0  0  0  0  0
  185.1510  178.9680  145.1340 C   0  0  1  0  0  3  0  0  0  0  0  0
  183.0410  178.7560  141.4130 C   0  0  0  0  0  0  0  0  0  0  0  0
  185.1620  178.8120  142.6210 C   0  0  0  0  0  0  0  0  0  0  0  0
  181.5340  178.7900  141.4250 C   0  0  0  0  0  2  0  0  0  0  0  0
  185.9800  178.7000  143.8790 C   0  0  0  0  0  2  0  0  0  0  0  0
  183.0110  178.9520  138.8670 C   0  0  1  0  0  3  0  0  0  0  0  0
  183.8750  178.1380  145.0950 C   0  0  0  0  0  2  0  0  0  0  0  0
  183.7410  178.8780  140.1920 C   0  0  0  0  0  0  0  0  0  0  0  0
  183.7510  178.6950  142.6310 C   0  0  0  0  0  0  0  0  0  0  0  0
  185.9420  178.6630  146.3640 C   0  0  0  0  0  0  0  0  0  0  0  0
  185.9280  179.4460  147.3510 O   0  0  0  0  0  1  0  0  0  0  0  0
  186.7110  177.5080  146.4140 O   0  0  0  0  0  0  0  0  0  0  0  0
  188.3040  177.4860  139.0810 C   0  0  0  0  0  2  0  0  0  0  0  0
  189.7540  177.7020  139.4860 C   0  0  0  0  0  2  0  0  0  0  0  0
  190.2270  176.5410  143.5870 C   0  0  0  0  0  3  0  0  0  0  0  0
  189.9350  177.4330  140.9400 C   0  0  0  0  0  0  0  0  0  0  0  0
  191.0850  177.0230  141.3920 N   0  0  0  0  0  0  0  0  0  0  0  0
  188.8370  176.6340  143.0240 C   0  0  0  0  0  2  0  0  0  0  0  0
  191.2780  176.6910  142.7770 C   0  0  0  0  0  3  0  0  0  0  0  0
  188.7840  177.6510  141.8840 C   0  0  0  0  0  2  0  0  0  0  0  0
  1 48  1  0  0  0  0
  2  1  1  0  0  0  0
  3  2  1  0  0  0  0
  5  3  1  0  0  0  0
  5  4  1  0  0  0  0
  6  5  1  0  0  0  0
  8 12  1  6  0  0  0
  8  5  1  0  0  0  0
  8 13  1  0  0  0  0
 10  9  1  1  0  0  0
 10  8  1  0  0  0  0
 10 11  1  0  0  0  0
 10 13  1  0  0  0  0
 11  7  1  6  0  0  0
 11 17  1  0  0  0  0
 11 13  1  0  0  0  0
 13 14  1  6  0  0  0
 14 15  1  0  0  0  0
 16 14  2  0  0  0  0
 17 18  1  6  0  0  0
 17 19  1  0  0  0  0
 19 20  1  0  0  0  0
 21  1  1  0  0  0  0
 22 21  1  0  0  0  0
 23 22  1  0  0  0  0
 23 26  1  0  0  0  0
 25 26  1  0  0  0  0
 26 24  2  0  0  0  0
 27 38  1  0  0  0  0
 28 30  2  0  0  0  0
 28 34  1  0  0  0  0
 29 42  1  0  0  0  0
 30 33  1  0  0  0  0
 31 32  1  0  0  0  0
 31 39  1  0  0  0  0
 33 32  2  0  0  0  0
 34 31  2  0  0  0  0
 35 27  2  0  0  0  0
 36 45  1  1  0  0  0
 37 39  1  0  0  0  0
 37 44  1  0  0  0  0
 38 44  2  0  0  0  0
 38 40  1  0  0  0  0
 40 36  1  0  0  0  0
 41 25  1  6  0  0  0
 41 34  1  0  0  0  0
 41 43  1  0  0  0  0
 42 36  1  0  0  0  0
 43 35  1  0  0  0  0
 43 37  2  0  0  0  0
 44 29  1  0  0  0  0
 45 47  2  0  0  0  0
 45 46  1  0  0  0  0
 48 49  1  0  0  0  0
 49 51  1  0  0  0  0
 51 52  2  0  0  0  0
 51 55  1  0  0  0  0
 52 54  1  0  0  0  0
 53 50  1  0  0  0  0
 54 50  2  0  0  0  0
 55 53  1  0  0  0  0
M  END
>  <MODEL>
7

>  <REMARK>
 VINA RESULT:      -7.1      1.648      2.432
  Name = 
  16 active torsions:
  status: ('A' for Active; 'I' for Inactive)
    1  A    between atoms: C_1  and  C_53
    2  A    between atoms: C_4  and  C_35
    3  A    between atoms: C_4  and  C_37
    4  A    between atoms: C_6  and  C_20
    5  A    between atoms: C_8  and  C_22
    6  A    between atoms: C_8  and  N_43
    7  A    between atoms: C_10  and  C_32
    8  A    between atoms: C_11  and  C_29
    9  A    between atoms: N_19  and  C_45
   10  A    between atoms: C_20  and  C_22
   11  A    between atoms: C_27  and  C_54
   12  A    between atoms: C_29  and  C_38
   13  A    between atoms: C_35  and  N_43
   14  A    between atoms: C_37  and  C_40
   15  A    between atoms: N_43  and  C_51
   16  A    between atoms: C_51  and  C_54
                            x       y       z     vdW  Elec       q    Type
                         _______ _______ _______ _____ _____    ______ ____

>  <TORSDO>
F 16

$$$$
