=
 OpenBabel10262421503D

 30 35  0  0  1  0  0  0  0  0999 V2000
  186.7250  178.3740  140.2620 C   0  0  0  0  0  0  0  0  0  0  0  0
  184.3380  178.4360  141.0490 C   0  0  0  0  0  0  0  0  0  0  0  0
  184.3190  177.8080  136.4940 C   0  0  0  0  0  2  0  0  0  0  0  0
  187.5630  178.1540  139.1630 O   0  0  0  0  0  0  0  0  0  0  0  0
  187.2600  178.4810  141.4420 N   0  0  0  0  0  0  0  0  0  0  0  0
  190.8370  177.3120  140.8600 C   0  0  0  0  0  2  0  0  0  0  0  0
  188.4740  176.6290  136.2200 C   0  0  2  0  0  3  0  0  0  0  0  0
  189.3130  177.3400  140.7280 C   0  0  1  0  0  3  0  0  0  0  0  0
  189.0970  178.2580  143.0500 C   0  0  0  0  0  2  0  0  0  0  0  0
  187.5080  176.0850  137.1650 N   0  0  2  0  0  0  0  0  0  0  0  0
  185.6990  177.4870  135.9660 C   0  0  1  0  0  3  0  0  0  0  0  0
  188.7120  178.4560  141.5890 C   0  0  2  0  0  3  0  0  0  0  0  0
  188.7730  177.3930  139.2810 C   0  0  2  0  0  3  0  0  0  0  0  0
  182.9220  178.7620  140.7730 C   0  0  0  0  0  3  0  0  0  0  0  0
  187.7530  174.6440  137.1990 C   0  0  0  0  0  2  0  0  0  0  0  0
  189.4770  175.5430  135.9490 C   0  0  0  0  0  2  0  0  0  0  0  0
  191.2240  177.1310  142.3270 C   0  0  0  0  0  2  0  0  0  0  0  0
  184.6790  178.0390  142.4470 C   0  0  0  0  0  1  0  0  0  0  0  0
  184.3180  177.5220  137.9290 N   0  0  1  0  0  0  0  0  0  0  0  0
  182.5700  179.3630  139.6340 C   0  0  0  0  0  3  0  0  0  0  0  0
  190.6200  178.2440  143.1850 C   0  0  0  0  0  2  0  0  0  0  0  0
  185.2560  178.5070  140.0520 C   0  0  0  0  0  0  0  0  0  0  0  0
  185.2790  176.4270  138.0960 C   0  0  0  0  0  2  0  0  0  0  0  0
  186.5100  178.5980  136.2040 O   0  0  0  0  0  1  0  0  0  0  0  0
  186.0900  176.2790  136.8170 C   0  0  2  0  0  3  0  0  0  0  0  0
  188.8090  174.2960  136.2560 N   0  0  0  0  0  2  0  0  0  0  0  0
  189.7890  177.7400  138.1840 C   0  0  0  0  0  2  0  0  0  0  0  0
  183.6250  179.7770  138.6460 C   0  0  0  0  0  2  0  0  0  0  0  0
  184.7670  178.7490  138.6250 C   0  0  2  0  0  3  0  0  0  0  0  0
  189.1600  177.8840  136.7880 C   0  0  0  0  0  2  0  0  0  0  0  0
  1  5  2  0  0  0  0
  2 18  1  0  0  0  0
  4 13  1  0  0  0  0
  4  1  1  0  0  0  0
  5 12  1  0  0  0  0
  6 17  1  0  0  0  0
  7 16  1  1  0  0  0
  7 30  1  0  0  0  0
  7 10  1  0  0  0  0
  8  6  1  6  0  0  0
  8 12  1  0  0  0  0
  9 21  1  0  0  0  0
 10 15  1  6  0  0  0
 11 24  1  1  0  0  0
 11  3  1  0  0  0  0
 11 25  1  0  0  0  0
 12  9  1  1  0  0  0
 13 27  1  6  0  0  0
 13  8  1  0  0  0  0
 14  2  1  0  0  0  0
 16 26  1  0  0  0  0
 17 21  1  0  0  0  0
 19  3  1  6  0  0  0
 19 23  1  0  0  0  0
 19 29  1  0  0  0  0
 20 14  2  0  0  0  0
 22  1  1  0  0  0  0
 22  2  2  0  0  0  0
 25 10  1  0  0  0  0
 25 23  1  1  0  0  0
 26 15  1  0  0  0  0
 28 20  1  0  0  0  0
 29 28  1  1  0  0  0
 29 22  1  0  0  0  0
 30 27  1  0  0  0  0
M  END
>  <MODEL>
1

>  <REMARK>
 VINA RESULT:      -6.7      0.000      0.000
  Name = 
  0 active torsions:
  status: ('A' for Active; 'I' for Inactive)
                            x       y       z     vdW  Elec       q    Type
                         _______ _______ _______ _____ _____    ______ ____

>  <TORSDO>
F 0

$$$$
=
 OpenBabel10262421503D

 30 35  0  0  1  0  0  0  0  0999 V2000
  184.8170  178.1560  139.3010 C   0  0  0  0  0  0  0  0  0  0  0  0
  184.0520  178.3700  141.6870 C   0  0  0  0  0  0  0  0  0  0  0  0
  180.5010  176.8640  139.1830 C   0  0  0  0  0  2  0  0  0  0  0  0
  184.4590  177.7250  138.0190 O   0  0  0  0  0  0  0  0  0  0  0  0
  186.0520  178.4900  139.5240 N   0  0  0  0  0  0  0  0  0  0  0  0
  187.8470  177.2300  136.4110 C   0  0  0  0  0  2  0  0  0  0  0  0
  182.8770  175.6540  135.7750 C   0  0  2  0  0  3  0  0  0  0  0  0
  186.8530  177.2320  137.5740 C   0  0  1  0  0  3  0  0  0  0  0  0
  188.4380  178.5860  138.9670 C   0  0  0  0  0  2  0  0  0  0  0  0
  183.1590  175.3060  137.1610 N   0  0  2  0  0  0  0  0  0  0  0  0
  180.9300  176.4460  137.7940 C   0  0  1  0  0  3  0  0  0  0  0  0
  187.0160  178.4950  138.4270 C   0  0  2  0  0  3  0  0  0  0  0  0
  185.3760  177.0020  137.1850 C   0  0  2  0  0  3  0  0  0  0  0  0
  182.9590  178.6350  142.6460 C   0  0  0  0  0  3  0  0  0  0  0  0
  183.5580  173.8990  137.1440 C   0  0  0  0  0  2  0  0  0  0  0  0
  183.4150  174.5370  134.9270 C   0  0  0  0  0  2  0  0  0  0  0  0
  189.2720  177.3390  136.9500 C   0  0  0  0  0  2  0  0  0  0  0  0
  185.4300  178.2530  142.2490 C   0  0  0  0  0  1  0  0  0  0  0  0
  181.6930  176.8640  140.0320 N   0  0  1  0  0  0  0  0  0  0  0  0
  181.7490  179.0030  142.2170 C   0  0  0  0  0  3  0  0  0  0  0  0
  189.4300  178.5980  137.8040 C   0  0  0  0  0  2  0  0  0  0  0  0
  183.7760  178.2450  140.3640 C   0  0  0  0  0  0  0  0  0  0  0  0
  182.5570  175.8230  139.4680 C   0  0  0  0  0  2  0  0  0  0  0  0
  181.4130  177.5830  137.1440 O   0  0  0  0  0  1  0  0  0  0  0  0
  182.0290  175.4280  138.0970 C   0  0  2  0  0  3  0  0  0  0  0  0
  183.4720  173.3740  135.7870 N   0  0  0  0  0  2  0  0  0  0  0  0
  185.0320  177.1280  135.6950 C   0  0  0  0  0  2  0  0  0  0  0  0
  181.5050  179.2150  140.7500 C   0  0  0  0  0  2  0  0  0  0  0  0
  182.3140  178.2030  139.9230 C   0  0  2  0  0  3  0  0  0  0  0  0
  183.5300  176.9970  135.3970 C   0  0  0  0  0  2  0  0  0  0  0  0
  1  5  2  0  0  0  0
  1 22  1  0  0  0  0
  2 18  1  0  0  0  0
  2 14  1  0  0  0  0
  4  1  1  0  0  0  0
  6 17  1  0  0  0  0
  7 16  1  6  0  0  0
  7 10  1  0  0  0  0
  8  6  1  6  0  0  0
  8 12  1  0  0  0  0
 10 15  1  6  0  0  0
 10 25  1  0  0  0  0
 11 24  1  6  0  0  0
 11 25  1  0  0  0  0
 11  3  1  0  0  0  0
 12  9  1  1  0  0  0
 12  5  1  0  0  0  0
 13 27  1  6  0  0  0
 13  8  1  0  0  0  0
 13  4  1  0  0  0  0
 16 26  1  0  0  0  0
 17 21  1  0  0  0  0
 19  3  1  6  0  0  0
 20 14  2  0  0  0  0
 21  9  1  0  0  0  0
 22  2  2  0  0  0  0
 23 19  1  0  0  0  0
 25 23  1  1  0  0  0
 26 15  1  0  0  0  0
 28 20  1  0  0  0  0
 29 19  1  0  0  0  0
 29 22  1  0  0  0  0
 29 28  1  1  0  0  0
 30 27  1  0  0  0  0
 30  7  1  0  0  0  0
M  END
>  <MODEL>
2

>  <REMARK>
 VINA RESULT:      -6.6      2.508      4.191
  Name = 
  0 active torsions:
  status: ('A' for Active; 'I' for Inactive)
                            x       y       z     vdW  Elec       q    Type
                         _______ _______ _______ _____ _____    ______ ____

>  <TORSDO>
F 0

$$$$
=
 OpenBabel10262421503D

 30 35  0  0  1  0  0  0  0  0999 V2000
  183.3260  178.2970  139.6180 C   0  0  0  0  0  0  0  0  0  0  0  0
  183.0560  178.5610  142.1040 C   0  0  0  0  0  0  0  0  0  0  0  0
  178.9310  177.5880  140.3190 C   0  0  0  0  0  2  0  0  0  0  0  0
  182.6800  177.9430  138.4280 O   0  0  0  0  0  0  0  0  0  0  0  0
  184.6150  178.4610  139.6030 N   0  0  0  0  0  0  0  0  0  0  0  0
  185.6120  177.0390  136.2150 C   0  0  0  0  0  2  0  0  0  0  0  0
  180.4460  176.1450  136.5320 C   0  0  2  0  0  3  0  0  0  0  0  0
  184.8620  177.1480  137.5430 C   0  0  1  0  0  3  0  0  0  0  0  0
  186.8450  178.2530  138.6070 C   0  0  0  0  0  2  0  0  0  0  0  0
  180.9330  175.7340  137.8420 N   0  0  2  0  0  0  0  0  0  0  0  0
  179.0330  177.1450  138.8770 C   0  0  1  0  0  3  0  0  0  0  0  0
  185.3480  178.3610  138.3440 C   0  0  2  0  0  3  0  0  0  0  0  0
  183.3210  177.1220  137.4400 C   0  0  2  0  0  3  0  0  0  0  0  0
  182.2060  178.9490  143.2500 C   0  0  0  0  0  3  0  0  0  0  0  0
  181.1310  174.2880  137.7560 C   0  0  0  0  0  2  0  0  0  0  0  0
  180.6620  174.9840  135.6030 C   0  0  0  0  0  2  0  0  0  0  0  0
  187.1140  176.9490  136.4760 C   0  0  0  0  0  2  0  0  0  0  0  0
  184.4870  178.2530  142.3970 C   0  0  0  0  0  1  0  0  0  0  0  0
  180.2500  177.4130  140.9290 N   0  0  1  0  0  0  0  0  0  0  0  0
  180.9980  179.4810  143.0550 C   0  0  0  0  0  3  0  0  0  0  0  0
  187.5960  178.1580  137.2780 C   0  0  0  0  0  2  0  0  0  0  0  0
  182.5230  178.5010  140.8570 C   0  0  0  0  0  0  0  0  0  0  0  0
  180.8470  176.2790  140.2180 C   0  0  0  0  0  2  0  0  0  0  0  0
  179.5330  178.2210  138.1420 O   0  0  0  0  0  1  0  0  0  0  0  0
  180.0240  175.9860  138.9720 C   0  0  2  0  0  3  0  0  0  0  0  0
  180.7230  173.8070  136.4420 N   0  0  0  0  0  2  0  0  0  0  0  0
  182.7250  177.3240  136.0400 C   0  0  0  0  0  2  0  0  0  0  0  0
  180.5140  179.7540  141.6590 C   0  0  0  0  0  2  0  0  0  0  0  0
  181.0120  178.6610  140.6990 C   0  0  2  0  0  3  0  0  0  0  0  0
  181.1890  177.3970  136.0310 C   0  0  0  0  0  2  0  0  0  0  0  0
  1 22  1  0  0  0  0
  2 18  1  0  0  0  0
  2 14  1  0  0  0  0
  3 19  1  0  0  0  0
  4  1  1  0  0  0  0
  5  1  2  0  0  0  0
  6 17  1  0  0  0  0
  7 16  1  6  0  0  0
  7 10  1  0  0  0  0
  8  6  1  6  0  0  0
  8 12  1  0  0  0  0
 10 15  1  6  0  0  0
 10 25  1  0  0  0  0
 11 24  1  6  0  0  0
 11 25  1  0  0  0  0
 11  3  1  0  0  0  0
 12  9  1  1  0  0  0
 12  5  1  0  0  0  0
 13 27  1  6  0  0  0
 13  8  1  0  0  0  0
 13  4  1  0  0  0  0
 16 26  1  0  0  0  0
 17 21  1  0  0  0  0
 19 23  1  6  0  0  0
 20 14  2  0  0  0  0
 21  9  1  0  0  0  0
 22  2  2  0  0  0  0
 25 23  1  1  0  0  0
 26 15  1  0  0  0  0
 28 20  1  0  0  0  0
 29 22  1  0  0  0  0
 29 19  1  0  0  0  0
 29 28  1  1  0  0  0
 30 27  1  0  0  0  0
 30  7  1  0  0  0  0
M  END
>  <MODEL>
3

>  <REMARK>
 VINA RESULT:      -6.3      3.302      5.848
  Name = 
  0 active torsions:
  status: ('A' for Active; 'I' for Inactive)
                            x       y       z     vdW  Elec       q    Type
                         _______ _______ _______ _____ _____    ______ ____

>  <TORSDO>
F 0

$$$$
=
 OpenBabel10262421503D

 30 35  0  0  1  0  0  0  0  0999 V2000
  185.4090  177.7680  138.1470 C   0  0  0  0  0  0  0  0  0  0  0  0
  183.7730  178.8230  139.7400 C   0  0  0  0  0  0  0  0  0  0  0  0
  181.3970  176.2810  136.7330 C   0  0  0  0  0  2  0  0  0  0  0  0
  185.5560  176.8650  137.0890 O   0  0  0  0  0  0  0  0  0  0  0  0
  186.4770  178.2330  138.7230 N   0  0  0  0  0  0  0  0  0  0  0  0
  189.2290  175.9960  137.3360 C   0  0  0  0  0  2  0  0  0  0  0  0
  184.8020  174.0130  135.3230 C   0  0  2  0  0  3  0  0  0  0  0  0
  187.8570  176.3800  137.8920 C   0  0  1  0  0  3  0  0  0  0  0  0
  188.8800  178.2480  139.2130 C   0  0  0  0  0  2  0  0  0  0  0  0
  184.4600  174.2310  136.7220 N   0  0  2  0  0  0  0  0  0  0  0  0
  182.3030  175.3950  135.9070 C   0  0  1  0  0  3  0  0  0  0  0  0
  187.7960  177.8780  138.2070 C   0  0  2  0  0  3  0  0  0  0  0  0
  186.6470  175.9350  137.0400 C   0  0  2  0  0  3  0  0  0  0  0  0
  182.4210  179.3680  139.9880 C   0  0  0  0  0  3  0  0  0  0  0  0
  184.6760  172.9470  137.3890 C   0  0  0  0  0  2  0  0  0  0  0  0
  185.5120  172.6910  135.2490 C   0  0  0  0  0  2  0  0  0  0  0  0
  190.3170  176.3830  138.3360 C   0  0  0  0  0  2  0  0  0  0  0  0
  184.7850  179.0070  140.8210 C   0  0  0  0  0  1  0  0  0  0  0  0
  182.1360  176.6700  137.9350 N   0  0  1  0  0  0  0  0  0  0  0  0
  181.5360  179.4760  138.9940 C   0  0  0  0  0  3  0  0  0  0  0  0
  190.2520  177.8780  138.6510 C   0  0  0  0  0  2  0  0  0  0  0  0
  184.0440  178.1920  138.5690 C   0  0  0  0  0  0  0  0  0  0  0  0
  183.0360  175.5450  138.2050 C   0  0  0  0  0  2  0  0  0  0  0  0
  183.1280  176.2270  135.1490 O   0  0  0  0  0  1  0  0  0  0  0  0
  183.0680  174.6320  136.9880 C   0  0  2  0  0  3  0  0  0  0  0  0
  185.0900  171.9440  136.4140 N   0  0  0  0  0  2  0  0  0  0  0  0
  186.9510  175.4690  135.6100 C   0  0  0  0  0  2  0  0  0  0  0  0
  181.9310  179.1040  137.5930 C   0  0  0  0  0  2  0  0  0  0  0  0
  182.8900  177.9030  137.6110 C   0  0  2  0  0  3  0  0  0  0  0  0
  185.6930  175.1480  134.7870 C   0  0  0  0  0  2  0  0  0  0  0  0
  1 22  1  0  0  0  0
  1  5  2  0  0  0  0
  2 14  1  0  0  0  0
  2 18  1  0  0  0  0
  4  1  1  0  0  0  0
  6 17  1  0  0  0  0
  7 30  1  1  0  0  0
  7 10  1  0  0  0  0
  8  6  1  6  0  0  0
  8 12  1  0  0  0  0
 10 25  1  0  0  0  0
 10 15  1  1  0  0  0
 11 24  1  1  0  0  0
 11  3  1  0  0  0  0
 11 25  1  0  0  0  0
 12  5  1  0  0  0  0
 12  9  1  1  0  0  0
 13 27  1  6  0  0  0
 13  4  1  0  0  0  0
 13  8  1  0  0  0  0
 16  7  1  0  0  0  0
 16 26  1  0  0  0  0
 17 21  1  0  0  0  0
 19  3  1  6  0  0  0
 19 23  1  0  0  0  0
 20 14  2  0  0  0  0
 21  9  1  0  0  0  0
 22  2  2  0  0  0  0
 25 23  1  1  0  0  0
 26 15  1  0  0  0  0
 28 20  1  0  0  0  0
 29 28  1  1  0  0  0
 29 19  1  0  0  0  0
 29 22  1  0  0  0  0
 30 27  1  0  0  0  0
M  END
>  <MODEL>
4

>  <REMARK>
 VINA RESULT:      -6.1      2.383      3.432
  Name = 
  0 active torsions:
  status: ('A' for Active; 'I' for Inactive)
                            x       y       z     vdW  Elec       q    Type
                         _______ _______ _______ _____ _____    ______ ____

>  <TORSDO>
F 0

$$$$
=
 OpenBabel10262421503D

 30 35  0  0  1  0  0  0  0  0999 V2000
  184.0060  177.7810  139.9470 C   0  0  0  0  0  0  0  0  0  0  0  0
  185.3520  177.6720  137.8250 C   0  0  0  0  0  0  0  0  0  0  0  0
  180.9000  177.8370  136.6830 C   0  0  0  0  0  2  0  0  0  0  0  0
  182.7220  177.9340  140.4820 O   0  0  0  0  0  0  0  0  0  0  0  0
  185.0260  177.8220  140.7520 N   0  0  0  0  0  0  0  0  0  0  0  0
  183.4970  179.1150  143.9910 C   0  0  0  0  0  2  0  0  0  0  0  0
  179.5270  179.2020  140.5520 C   0  0  2  0  0  3  0  0  0  0  0  0
  183.7410  178.9930  142.4860 C   0  0  1  0  0  3  0  0  0  0  0  0
  186.1150  178.3030  142.8960 C   0  0  0  0  0  2  0  0  0  0  0  0
  180.6290  179.7860  139.7990 N   0  0  2  0  0  0  0  0  0  0  0  0
  180.0280  178.1760  137.8700 C   0  0  1  0  0  3  0  0  0  0  0  0
  184.8130  177.9390  142.1920 C   0  0  2  0  0  3  0  0  0  0  0  0
  182.4780  178.7660  141.6250 C   0  0  2  0  0  3  0  0  0  0  0  0
  185.4550  177.2450  136.4140 C   0  0  0  0  0  3  0  0  0  0  0  0
  180.4810  181.2340  139.9360 C   0  0  0  0  0  2  0  0  0  0  0  0
  178.9310  180.3060  141.3780 C   0  0  0  0  0  2  0  0  0  0  0  0
  184.8050  179.4630  144.6990 C   0  0  0  0  0  2  0  0  0  0  0  0
  186.5860  178.2250  138.4570 C   0  0  0  0  0  1  0  0  0  0  0  0
  182.2640  178.2650  136.9990 N   0  0  1  0  0  0  0  0  0  0  0  0
  184.4910  176.5140  135.8490 C   0  0  0  0  0  3  0  0  0  0  0  0
  185.8750  178.4120  144.4010 C   0  0  0  0  0  2  0  0  0  0  0  0
  184.1710  177.5490  138.4840 C   0  0  0  0  0  0  0  0  0  0  0  0
  182.0990  179.4210  137.8860 C   0  0  0  0  0  2  0  0  0  0  0  0
  180.1560  177.1390  138.7960 O   0  0  0  0  0  1  0  0  0  0  0  0
  180.6540  179.4820  138.3590 C   0  0  2  0  0  3  0  0  0  0  0  0
  179.2830  181.5400  140.7090 N   0  0  0  0  0  2  0  0  0  0  0  0
  181.2010  178.3640  142.3750 C   0  0  0  0  0  2  0  0  0  0  0  0
  183.3160  176.0600  136.6680 C   0  0  0  0  0  2  0  0  0  0  0  0
  182.9310  177.1400  137.6920 C   0  0  2  0  0  3  0  0  0  0  0  0
  180.0170  178.0480  141.4470 C   0  0  0  0  0  2  0  0  0  0  0  0
  1  4  1  0  0  0  0
  1  5  2  0  0  0  0
  2 18  1  0  0  0  0
  2 22  2  0  0  0  0
  3 11  1  0  0  0  0
  4 13  1  0  0  0  0
  5 12  1  0  0  0  0
  6 17  1  0  0  0  0
  7 16  1  1  0  0  0
  7 30  1  0  0  0  0
  8  6  1  1  0  0  0
  9 21  1  0  0  0  0
 10 15  1  6  0  0  0
 10  7  1  0  0  0  0
 11 25  1  0  0  0  0
 11 24  1  1  0  0  0
 12  8  1  0  0  0  0
 12  9  1  1  0  0  0
 13 27  1  1  0  0  0
 13  8  1  0  0  0  0
 14  2  1  0  0  0  0
 15 26  1  0  0  0  0
 19  3  1  1  0  0  0
 19 29  1  0  0  0  0
 19 23  1  0  0  0  0
 20 14  2  0  0  0  0
 20 28  1  0  0  0  0
 21 17  1  0  0  0  0
 22  1  1  0  0  0  0
 25 23  1  1  0  0  0
 25 10  1  0  0  0  0
 26 16  1  0  0  0  0
 29 28  1  6  0  0  0
 29 22  1  0  0  0  0
 30 27  1  0  0  0  0
M  END
>  <MODEL>
5

>  <REMARK>
 VINA RESULT:      -6.1      3.324      6.758
  Name = 
  0 active torsions:
  status: ('A' for Active; 'I' for Inactive)
                            x       y       z     vdW  Elec       q    Type
                         _______ _______ _______ _____ _____    ______ ____

>  <TORSDO>
F 0

$$$$
=
 OpenBabel10262421503D

 30 35  0  0  1  0  0  0  0  0999 V2000
  183.0500  178.9940  142.2500 C   0  0  0  0  0  0  0  0  0  0  0  0
  180.6950  179.0090  143.1310 C   0  0  0  0  0  0  0  0  0  0  0  0
  180.5000  179.2370  138.5420 C   0  0  0  0  0  2  0  0  0  0  0  0
  183.8400  178.9460  141.0960 O   0  0  0  0  0  0  0  0  0  0  0  0
  183.6270  178.8580  143.4060 N   0  0  0  0  0  0  0  0  0  0  0  0
  187.1210  177.6670  142.4760 C   0  0  0  0  0  2  0  0  0  0  0  0
  184.5810  177.9560  137.8880 C   0  0  2  0  0  3  0  0  0  0  0  0
  185.5970  177.7830  142.4130 C   0  0  1  0  0  3  0  0  0  0  0  0
  185.5010  178.2630  144.8710 C   0  0  0  0  0  2  0  0  0  0  0  0
  183.6200  177.2870  138.7560 N   0  0  2  0  0  0  0  0  0  0  0  0
  181.8450  178.9620  137.9080 C   0  0  1  0  0  3  0  0  0  0  0  0
  185.0800  178.7450  143.4870 C   0  0  2  0  0  3  0  0  0  0  0  0
  185.0150  178.1260  141.0230 C   0  0  2  0  0  3  0  0  0  0  0  0
  179.2890  179.4400  142.9760 C   0  0  0  0  0  3  0  0  0  0  0  0
  183.7960  175.8560  138.5150 C   0  0  0  0  0  2  0  0  0  0  0  0
  185.5210  176.8980  137.3830 C   0  0  0  0  0  2  0  0  0  0  0  0
  187.5460  177.2010  143.8680 C   0  0  0  0  0  2  0  0  0  0  0  0
  181.0600  178.3460  144.4170 C   0  0  0  0  0  1  0  0  0  0  0  0
  180.5310  178.6910  139.8990 N   0  0  1  0  0  0  0  0  0  0  0  0
  178.9310  180.2570  141.9820 C   0  0  0  0  0  3  0  0  0  0  0  0
  187.0250  178.1600  144.9390 C   0  0  0  0  0  2  0  0  0  0  0  0
  181.5830  179.2260  142.1270 C   0  0  0  0  0  0  0  0  0  0  0  0
  181.4410  177.5450  139.8230 C   0  0  0  0  0  2  0  0  0  0  0  0
  182.7160  179.9750  138.3140 O   0  0  0  0  0  1  0  0  0  0  0  0
  182.2030  177.6020  138.5070 C   0  0  2  0  0  3  0  0  0  0  0  0
  184.8030  175.6450  137.4820 N   0  0  0  0  0  2  0  0  0  0  0  0
  186.0110  178.6280  139.9680 C   0  0  0  0  0  2  0  0  0  0  0  0
  179.9720  180.8010  141.0460 C   0  0  0  0  0  2  0  0  0  0  0  0
  181.0610  179.7480  140.7900 C   0  0  2  0  0  3  0  0  0  0  0  0
  185.3460  179.0540  138.6490 C   0  0  0  0  0  2  0  0  0  0  0  0
  1  5  2  0  0  0  0
  2 18  1  0  0  0  0
  4  1  1  0  0  0  0
  5 12  1  0  0  0  0
  6 17  1  0  0  0  0
  7 16  1  1  0  0  0
  7 30  1  0  0  0  0
  7 10  1  0  0  0  0
  8  6  1  6  0  0  0
  8 12  1  0  0  0  0
  9 21  1  0  0  0  0
 10 15  1  6  0  0  0
 11 24  1  1  0  0  0
 11 25  1  0  0  0  0
 11  3  1  0  0  0  0
 12  9  1  1  0  0  0
 13 27  1  6  0  0  0
 13  4  1  0  0  0  0
 13  8  1  0  0  0  0
 14  2  1  0  0  0  0
 16 26  1  0  0  0  0
 17 21  1  0  0  0  0
 19  3  1  6  0  0  0
 19 29  1  0  0  0  0
 20 14  2  0  0  0  0
 22  1  1  0  0  0  0
 22  2  2  0  0  0  0
 23 19  1  0  0  0  0
 25 10  1  0  0  0  0
 25 23  1  1  0  0  0
 26 15  1  0  0  0  0
 28 20  1  0  0  0  0
 29 28  1  1  0  0  0
 29 22  1  0  0  0  0
 30 27  1  0  0  0  0
M  END
>  <MODEL>
6

>  <REMARK>
 VINA RESULT:      -6.1      2.857      4.302
  Name = 
  0 active torsions:
  status: ('A' for Active; 'I' for Inactive)
                            x       y       z     vdW  Elec       q    Type
                         _______ _______ _______ _____ _____    ______ ____

>  <TORSDO>
F 0

$$$$
=
 OpenBabel10262421503D

 30 35  0  0  1  0  0  0  0  0999 V2000
  187.3560  178.2530  141.2570 C   0  0  0  0  0  0  0  0  0  0  0  0
  186.3610  177.8970  143.5390 C   0  0  0  0  0  0  0  0  0  0  0  0
  182.9760  179.1420  140.6870 C   0  0  0  0  0  2  0  0  0  0  0  0
  187.0720  178.5240  139.9140 O   0  0  0  0  0  0  0  0  0  0  0  0
  188.5650  177.9000  141.5800 N   0  0  0  0  0  0  0  0  0  0  0  0
  190.1770  177.2080  138.2010 C   0  0  0  0  0  2  0  0  0  0  0  0
  185.1790  178.3420  137.0500 C   0  0  2  0  0  3  0  0  0  0  0  0
  189.0930  177.2250  139.2800 C   0  0  1  0  0  3  0  0  0  0  0  0
  190.8370  177.1280  141.0770 C   0  0  0  0  0  2  0  0  0  0  0  0
  185.0590  177.4260  138.1770 N   0  0  2  0  0  0  0  0  0  0  0  0
  183.4200  179.1160  139.2410 C   0  0  1  0  0  3  0  0  0  0  0  0
  189.6130  177.8780  140.5640 C   0  0  2  0  0  3  0  0  0  0  0  0
  187.7380  177.8300  138.8500 C   0  0  2  0  0  3  0  0  0  0  0  0
  185.3290  178.2480  144.5380 C   0  0  0  0  0  3  0  0  0  0  0  0
  184.8440  176.1030  137.5930 C   0  0  0  0  0  2  0  0  0  0  0  0
  185.3460  177.4970  135.8190 C   0  0  0  0  0  2  0  0  0  0  0  0
  191.4110  176.4720  138.7200 C   0  0  0  0  0  2  0  0  0  0  0  0
  187.4560  176.9890  143.9900 C   0  0  0  0  0  1  0  0  0  0  0  0
  183.9040  178.3070  141.4500 N   0  0  1  0  0  0  0  0  0  0  0  0
  184.4660  179.2410  144.3070 C   0  0  0  0  0  3  0  0  0  0  0  0
  191.9260  177.1230  140.0040 C   0  0  0  0  0  2  0  0  0  0  0  0
  186.2820  178.3990  142.2800 C   0  0  0  0  0  0  0  0  0  0  0  0
  184.3460  177.2770  140.5060 C   0  0  0  0  0  2  0  0  0  0  0  0
  184.4270  180.0710  139.0940 O   0  0  0  0  0  1  0  0  0  0  0  0
  183.9390  177.6860  139.0980 C   0  0  2  0  0  3  0  0  0  0  0  0
  184.7780  176.2050  136.1400 N   0  0  0  0  0  2  0  0  0  0  0  0
  187.7290  178.6280  137.5390 C   0  0  0  0  0  2  0  0  0  0  0  0
  184.5780  180.0570  143.0510 C   0  0  0  0  0  2  0  0  0  0  0  0
  185.0270  179.1700  141.8780 C   0  0  2  0  0  3  0  0  0  0  0  0
  186.3770  179.2920  137.2320 C   0  0  0  0  0  2  0  0  0  0  0  0
  1  5  2  0  0  0  0
  1 22  1  0  0  0  0
  2 18  1  0  0  0  0
  2 14  1  0  0  0  0
  3 19  1  0  0  0  0
  4  1  1  0  0  0  0
  6 17  1  0  0  0  0
  7 16  1  6  0  0  0
  7 30  1  0  0  0  0
  7 10  1  0  0  0  0
  8  6  1  6  0  0  0
  8 12  1  0  0  0  0
 10 15  1  6  0  0  0
 10 25  1  0  0  0  0
 11 24  1  1  0  0  0
 11  3  1  0  0  0  0
 12  9  1  1  0  0  0
 12  5  1  0  0  0  0
 13 27  1  6  0  0  0
 13  8  1  0  0  0  0
 13  4  1  0  0  0  0
 16 26  1  0  0  0  0
 17 21  1  0  0  0  0
 19 23  1  6  0  0  0
 19 29  1  0  0  0  0
 20 14  2  0  0  0  0
 21  9  1  0  0  0  0
 22  2  2  0  0  0  0
 25 11  1  0  0  0  0
 25 23  1  1  0  0  0
 26 15  1  0  0  0  0
 28 20  1  0  0  0  0
 29 22  1  0  0  0  0
 29 28  1  1  0  0  0
 30 27  1  0  0  0  0
M  END
>  <MODEL>
7

>  <REMARK>
 VINA RESULT:      -6.0      1.878      3.339
  Name = 
  0 active torsions:
  status: ('A' for Active; 'I' for Inactive)
                            x       y       z     vdW  Elec       q    Type
                         _______ _______ _______ _____ _____    ______ ____

>  <TORSDO>
F 0

$$$$
=
 OpenBabel10262421503D

 30 35  0  0  1  0  0  0  0  0999 V2000
  187.3820  178.4360  141.3000 C   0  0  0  0  0  0  0  0  0  0  0  0
  186.6710  177.9810  138.9310 C   0  0  0  0  0  0  0  0  0  0  0  0
  191.2400  177.5160  139.1600 C   0  0  0  0  0  2  0  0  0  0  0  0
  188.4590  178.4280  142.1930 O   0  0  0  0  0  0  0  0  0  0  0  0
  186.1830  178.6090  141.7700 N   0  0  0  0  0  0  0  0  0  0  0  0
  186.6810  178.2170  145.5250 C   0  0  0  0  0  2  0  0  0  0  0  0
  191.4120  177.2230  143.4740 C   0  0  2  0  0  3  0  0  0  0  0  0
  186.8610  177.9370  144.0320 C   0  0  1  0  0  3  0  0  0  0  0  0
  184.5230  178.7130  143.5720 C   0  0  0  0  0  2  0  0  0  0  0  0
  190.5140  176.4610  142.6160 N   0  0  2  0  0  0  0  0  0  0  0  0
  191.7320  177.5030  140.5900 C   0  0  1  0  0  3  0  0  0  0  0  0
  185.9900  178.8770  143.1920 C   0  0  2  0  0  3  0  0  0  0  0  0
  188.3230  177.9280  143.5300 C   0  0  2  0  0  3  0  0  0  0  0  0
  186.9840  178.0190  137.4860 C   0  0  0  0  0  3  0  0  0  0  0  0
  190.5120  175.1000  143.1510 C   0  0  0  0  0  2  0  0  0  0  0  0
  191.6800  176.3750  144.6850 C   0  0  0  0  0  2  0  0  0  0  0  0
  185.2080  178.0700  145.9020 C   0  0  0  0  0  2  0  0  0  0  0  0
  185.2740  177.6150  139.3100 C   0  0  0  0  0  1  0  0  0  0  0  0
  189.8140  177.1880  139.1810 N   0  0  1  0  0  0  0  0  0  0  0  0
  188.1160  178.5740  137.0480 C   0  0  0  0  0  3  0  0  0  0  0  0
  184.3390  179.0060  145.0600 C   0  0  0  0  0  2  0  0  0  0  0  0
  187.6350  178.2720  139.8400 C   0  0  0  0  0  0  0  0  0  0  0  0
  189.6470  176.3080  140.3410 C   0  0  0  0  0  2  0  0  0  0  0  0
  191.4370  178.7480  141.1480 O   0  0  0  0  0  1  0  0  0  0  0  0
  190.9020  176.3730  141.1980 C   0  0  2  0  0  3  0  0  0  0  0  0
  191.4300  175.0080  144.2810 N   0  0  0  0  0  2  0  0  0  0  0  0
  189.3760  178.5130  144.4810 C   0  0  0  0  0  2  0  0  0  0  0  0
  189.0570  179.2280  138.0200 C   0  0  0  0  0  2  0  0  0  0  0  0
  189.0700  178.4570  139.3500 C   0  0  2  0  0  3  0  0  0  0  0  0
  190.7870  178.5720  143.8730 C   0  0  0  0  0  2  0  0  0  0  0  0
  1  5  2  0  0  0  0
  1  4  1  0  0  0  0
  2 18  1  0  0  0  0
  2 22  2  0  0  0  0
  3 11  1  0  0  0  0
  4 13  1  0  0  0  0
  5 12  1  0  0  0  0
  6 17  1  0  0  0  0
  7 30  1  1  0  0  0
  7 16  1  0  0  0  0
  8  6  1  1  0  0  0
  9 21  1  0  0  0  0
 10 15  1  1  0  0  0
 10  7  1  0  0  0  0
 11 24  1  1  0  0  0
 11 25  1  0  0  0  0
 12  9  1  1  0  0  0
 12  8  1  0  0  0  0
 13  8  1  0  0  0  0
 13 27  1  1  0  0  0
 14  2  1  0  0  0  0
 15 26  1  0  0  0  0
 19  3  1  1  0  0  0
 19 29  1  0  0  0  0
 19 23  1  0  0  0  0
 20 14  2  0  0  0  0
 20 28  1  0  0  0  0
 21 17  1  0  0  0  0
 22  1  1  0  0  0  0
 25 23  1  6  0  0  0
 25 10  1  0  0  0  0
 26 16  1  0  0  0  0
 29 28  1  6  0  0  0
 29 22  1  0  0  0  0
 30 27  1  0  0  0  0
M  END
>  <MODEL>
8

>  <REMARK>
 VINA RESULT:      -6.0      2.567      5.791
  Name = 
  0 active torsions:
  status: ('A' for Active; 'I' for Inactive)
                            x       y       z     vdW  Elec       q    Type
                         _______ _______ _______ _____ _____    ______ ____

>  <TORSDO>
F 0

$$$$
=
 OpenBabel10262421503D

 30 35  0  0  1  0  0  0  0  0999 V2000
  185.7470  178.0790  139.0280 C   0  0  0  0  0  0  0  0  0  0  0  0
  183.8980  178.5160  140.6760 C   0  0  0  0  0  0  0  0  0  0  0  0
  181.9880  177.1630  136.7180 C   0  0  0  0  0  2  0  0  0  0  0  0
  186.0510  177.5980  137.7500 O   0  0  0  0  0  0  0  0  0  0  0  0
  186.7220  178.3190  139.8530 N   0  0  0  0  0  0  0  0  0  0  0  0
  189.7080  176.7060  138.1260 C   0  0  0  0  0  2  0  0  0  0  0  0
  185.6250  175.5300  135.0370 C   0  0  2  0  0  3  0  0  0  0  0  0
  188.2660  176.8700  138.6100 C   0  0  1  0  0  3  0  0  0  0  0  0
  189.0520  178.1700  140.6040 C   0  0  0  0  0  2  0  0  0  0  0  0
  185.1190  175.2500  136.3740 N   0  0  2  0  0  0  0  0  0  0  0  0
  183.0180  176.6190  135.7540 C   0  0  1  0  0  3  0  0  0  0  0  0
  188.1050  178.1670  139.4090 C   0  0  2  0  0  3  0  0  0  0  0  0
  187.1800  176.7440  137.5180 C   0  0  2  0  0  3  0  0  0  0  0  0
  182.5040  178.9380  140.9320 C   0  0  0  0  0  3  0  0  0  0  0  0
  185.3150  173.8160  136.5810 C   0  0  0  0  0  2  0  0  0  0  0  0
  186.3970  174.3170  134.6010 C   0  0  0  0  0  2  0  0  0  0  0  0
  190.6590  176.7260  139.3210 C   0  0  0  0  0  2  0  0  0  0  0  0
  184.7720  178.3170  141.8690 C   0  0  0  0  0  1  0  0  0  0  0  0
  182.5700  177.1150  138.0600 N   0  0  1  0  0  0  0  0  0  0  0  0
  181.7320  179.3800  139.9360 C   0  0  0  0  0  3  0  0  0  0  0  0
  190.4930  178.0190  140.1200 C   0  0  0  0  0  2  0  0  0  0  0  0
  184.3260  178.3290  139.4020 C   0  0  0  0  0  0  0  0  0  0  0  0
  183.4820  175.9680  138.0340 C   0  0  0  0  0  2  0  0  0  0  0  0
  183.8860  177.6640  135.4320 O   0  0  0  0  0  1  0  0  0  0  0  0
  183.6900  175.5320  136.5910 C   0  0  2  0  0  3  0  0  0  0  0  0
  185.8790  173.2120  135.3790 N   0  0  0  0  0  2  0  0  0  0  0  0
  187.6640  176.8020  136.0620 C   0  0  0  0  0  2  0  0  0  0  0  0
  182.2970  179.5160  138.5510 C   0  0  0  0  0  2  0  0  0  0  0  0
  183.3000  178.3850  138.2710 C   0  0  2  0  0  3  0  0  0  0  0  0
  186.5210  176.7830  135.0340 C   0  0  0  0  0  2  0  0  0  0  0  0
  1 22  1  0  0  0  0
  1  5  2  0  0  0  0
  2 14  1  0  0  0  0
  2 18  1  0  0  0  0
  4  1  1  0  0  0  0
  6 17  1  0  0  0  0
  7 16  1  1  0  0  0
  7 10  1  0  0  0  0
  8  6  1  6  0  0  0
  8 12  1  0  0  0  0
 10 15  1  6  0  0  0
 10 25  1  0  0  0  0
 11 24  1  1  0  0  0
 11 25  1  0  0  0  0
 11  3  1  0  0  0  0
 12  5  1  0  0  0  0
 12  9  1  1  0  0  0
 13 27  1  6  0  0  0
 13  4  1  0  0  0  0
 13  8  1  0  0  0  0
 16 26  1  0  0  0  0
 17 21  1  0  0  0  0
 19  3  1  6  0  0  0
 19 29  1  0  0  0  0
 20 14  2  0  0  0  0
 21  9  1  0  0  0  0
 22  2  2  0  0  0  0
 23 19  1  0  0  0  0
 25 23  1  1  0  0  0
 26 15  1  0  0  0  0
 28 20  1  0  0  0  0
 29 28  1  1  0  0  0
 29 22  1  0  0  0  0
 30  7  1  0  0  0  0
 30 27  1  0  0  0  0
M  END
>  <MODEL>
9

>  <REMARK>
 VINA RESULT:      -5.6      1.767      2.402
  Name = 
  0 active torsions:
  status: ('A' for Active; 'I' for Inactive)
                            x       y       z     vdW  Elec       q    Type
                         _______ _______ _______ _____ _____    ______ ____

>  <TORSDO>
F 0

$$$$
