=
 OpenBabel10262421113D

 32 36  0  0  1  0  0  0  0  0999 V2000
  184.5950  178.4840  143.2130 C   0  0  0  0  0  0  0  0  0  0  0  0
  187.0000  177.7660  143.3670 C   0  0  0  0  0  0  0  0  0  0  0  0
  183.2360  178.2830  143.8520 C   0  0  0  0  0  2  0  0  0  0  0  0
  185.7420  178.0410  144.0190 N   0  0  0  0  0  0  0  0  0  0  0  0
  188.0460  177.1780  144.0920 C   0  0  0  0  0  3  0  0  0  0  0  0
  189.8590  177.7240  139.4170 C   0  0  0  0  0  3  0  0  0  0  0  0
  187.1790  178.0460  141.9890 C   0  0  0  0  0  0  0  0  0  0  0  0
  190.6780  176.8610  141.5250 C   0  0  0  0  0  3  0  0  0  0  0  0
  189.4530  177.1600  142.1280 C   0  0  0  0  0  0  0  0  0  0  0  0
  189.2630  176.8790  143.4800 C   0  0  0  0  0  3  0  0  0  0  0  0
  186.0810  178.7200  141.2070 C   0  0  0  0  0  2  0  0  0  0  0  0
  184.7000  178.2840  141.6930 C   0  0  2  0  0  3  0  0  0  0  0  0
  188.4120  177.7500  141.3710 C   0  0  0  0  0  0  0  0  0  0  0  0
  183.8500  179.6820  143.7640 C   0  0  0  0  0  2  0  0  0  0  0  0
  190.8800  177.1420  140.1720 C   0  0  0  0  0  3  0  0  0  0  0  0
  188.6320  178.0270  140.0120 C   0  0  0  0  0  3  0  0  0  0  0  0
  181.2110  178.3420  139.9740 C   0  0  1  0  0  3  0  0  0  0  0  0
  181.2390  180.9180  137.6170 C   0  0  0  0  0  1  0  0  0  0  0  0
  180.3460  178.1180  141.0310 F   0  0  0  0  0  0  0  0  0  0  0  0
  183.3370  180.2690  138.7390 C   0  0  0  0  0  3  0  0  0  0  0  0
  183.5510  178.8810  140.8560 C   0  0  1  0  0  3  0  0  0  0  0  0
  181.2160  179.7190  139.6770 O   0  0  0  0  0  0  0  0  0  0  0  0
  184.0660  179.8030  139.7660 C   0  0  0  0  0  3  0  0  0  0  0  0
  182.6160  177.7920  140.3050 C   0  0  1  0  0  3  0  0  0  0  0  0
  182.5120  176.7150  141.1730 F   0  0  0  0  0  0  0  0  0  0  0  0
  181.9140  179.8660  138.4730 C   0  0  1  0  0  3  0  0  0  0  0  0
  185.5710  177.6980  145.3260 O   0  0  0  0  0  0  0  0  0  0  0  0
  186.3470  178.6030  146.0670 C   0  0  1  0  0  3  0  0  0  0  0  0
  185.5870  179.7330  146.3760 O   0  0  0  0  0  1  0  0  0  0  0  0
  186.8640  177.9510  147.3450 C   0  0  0  0  0  2  0  0  0  0  0  0
  189.0010  178.2920  148.4840 C   0  0  0  0  0  2  0  0  0  0  0  0
  188.3570  177.9150  147.3850 C   0  0  0  0  0  3  0  0  0  0  0  0
  1 14  1  0  0  0  0
  1  3  1  0  0  0  0
  1  4  1  0  0  0  0
  2  4  1  0  0  0  0
  2  5  1  0  0  0  0
  4 27  1  0  0  0  0
  6 16  2  0  0  0  0
  6 15  1  0  0  0  0
  7  2  2  0  0  0  0
  8  9  1  0  0  0  0
  9 10  1  0  0  0  0
 10  5  2  0  0  0  0
 11  7  1  0  0  0  0
 12 11  1  6  0  0  0
 12  1  1  0  0  0  0
 13  7  1  0  0  0  0
 13  9  2  0  0  0  0
 14  3  1  0  0  0  0
 15  8  2  0  0  0  0
 16 13  1  0  0  0  0
 17 24  1  0  0  0  0
 17 19  1  1  0  0  0
 20 23  2  0  0  0  0
 21 23  1  6  0  0  0
 21 12  1  0  0  0  0
 22 17  1  0  0  0  0
 24 21  1  0  0  0  0
 24 25  1  1  0  0  0
 26 18  1  6  0  0  0
 26 20  1  0  0  0  0
 26 22  1  0  0  0  0
 27 28  1  0  0  0  0
 28 29  1  1  0  0  0
 28 30  1  0  0  0  0
 30 32  1  0  0  0  0
 32 31  2  0  0  0  0
M  END
>  <MODEL>
1

>  <REMARK>
 VINA RESULT:      -8.5      0.000      0.000
  Name = 
  5 active torsions:
  status: ('A' for Active; 'I' for Inactive)
    1  A    between atoms: N_5  and  O_14
    2  A    between atoms: C_13  and  C_18
    3  A    between atoms: C_13  and  C_29
    4  A    between atoms: O_14  and  C_18
    5  A    between atoms: C_16  and  C_27
                            x       y       z     vdW  Elec       q    Type
                         _______ _______ _______ _____ _____    ______ ____

>  <TORSDO>
F 5

$$$$
=
 OpenBabel10262421113D

 32 36  0  0  1  0  0  0  0  0999 V2000
  189.6510  177.7840  143.0320 C   0  0  0  0  0  0  0  0  0  0  0  0
  187.5940  178.1390  144.4350 C   0  0  0  0  0  0  0  0  0  0  0  0
  191.1420  178.0490  142.9940 C   0  0  0  0  0  2  0  0  0  0  0  0
  189.0190  177.9230  144.3520 N   0  0  0  0  0  0  0  0  0  0  0  0
  187.0080  178.4460  145.6710 C   0  0  0  0  0  3  0  0  0  0  0  0
  183.1880  178.4890  142.3770 C   0  0  0  0  0  3  0  0  0  0  0  0
  186.7840  178.0820  143.2740 C   0  0  0  0  0  0  0  0  0  0  0  0
  183.4560  178.8540  144.7550 C   0  0  0  0  0  3  0  0  0  0  0  0
  184.8300  178.6200  144.6400 C   0  0  0  0  0  0  0  0  0  0  0  0
  185.6380  178.6830  145.7740 C   0  0  0  0  0  3  0  0  0  0  0  0
  187.3920  177.7070  141.9470 C   0  0  0  0  0  2  0  0  0  0  0  0
  188.8210  178.2310  141.8180 C   0  0  2  0  0  3  0  0  0  0  0  0
  185.3970  178.3150  143.3790 C   0  0  0  0  0  0  0  0  0  0  0  0
  190.6090  176.6190  142.9000 C   0  0  0  0  0  2  0  0  0  0  0  0
  182.6370  178.7890  143.6250 C   0  0  0  0  0  3  0  0  0  0  0  0
  184.5590  178.2530  142.2540 C   0  0  0  0  0  3  0  0  0  0  0  0
  189.0580  178.3320  137.9370 C   0  0  1  0  0  3  0  0  0  0  0  0
  191.3660  175.9020  136.9570 C   0  0  0  0  0  1  0  0  0  0  0  0
  189.0320  179.6890  137.6650 F   0  0  0  0  0  0  0  0  0  0  0  0
  190.6260  176.0030  139.3070 C   0  0  0  0  0  3  0  0  0  0  0  0
  189.4440  177.9480  140.4370 C   0  0  1  0  0  3  0  0  0  0  0  0
  190.3910  177.8810  137.8590 O   0  0  0  0  0  0  0  0  0  0  0  0
  190.1930  176.6280  140.4150 C   0  0  0  0  0  3  0  0  0  0  0  0
  188.4050  178.0470  139.3080 C   0  0  1  0  0  3  0  0  0  0  0  0
  187.4380  179.0030  139.5810 F   0  0  0  0  0  0  0  0  0  0  0  0
  190.3440  176.4840  137.9120 C   0  0  1  0  0  3  0  0  0  0  0  0
  189.7870  178.0530  145.4710 O   0  0  0  0  0  0  0  0  0  0  0  0
  189.9630  176.7530  145.9700 C   0  0  1  0  0  3  0  0  0  0  0  0
  191.3250  176.4630  146.0590 O   0  0  0  0  0  1  0  0  0  0  0  0
  189.3020  176.6060  147.3360 C   0  0  0  0  0  2  0  0  0  0  0  0
  188.3060  178.2530  148.8450 C   0  0  0  0  0  2  0  0  0  0  0  0
  189.3520  177.8780  148.1170 C   0  0  0  0  0  3  0  0  0  0  0  0
  1  4  1  0  0  0  0
  2  5  1  0  0  0  0
  3  1  1  0  0  0  0
  4  2  1  0  0  0  0
  4 27  1  0  0  0  0
  5 10  2  0  0  0  0
  6 15  1  0  0  0  0
  7 13  1  0  0  0  0
  7  2  2  0  0  0  0
  9  8  1  0  0  0  0
  9 10  1  0  0  0  0
 11  7  1  0  0  0  0
 12 11  1  6  0  0  0
 12  1  1  0  0  0  0
 13  9  2  0  0  0  0
 14  3  1  0  0  0  0
 14  1  1  0  0  0  0
 15  8  2  0  0  0  0
 16  6  2  0  0  0  0
 16 13  1  0  0  0  0
 17 19  1  1  0  0  0
 17 24  1  0  0  0  0
 20 23  2  0  0  0  0
 21 23  1  1  0  0  0
 21 12  1  0  0  0  0
 22 26  1  0  0  0  0
 22 17  1  0  0  0  0
 24 25  1  1  0  0  0
 24 21  1  0  0  0  0
 26 18  1  6  0  0  0
 26 20  1  0  0  0  0
 27 28  1  0  0  0  0
 28 29  1  1  0  0  0
 28 30  1  0  0  0  0
 30 32  1  0  0  0  0
 32 31  2  0  0  0  0
M  END
>  <MODEL>
2

>  <REMARK>
 VINA RESULT:      -8.2      3.265      6.229
  Name = 
  5 active torsions:
  status: ('A' for Active; 'I' for Inactive)
    1  A    between atoms: N_5  and  O_14
    2  A    between atoms: C_13  and  C_18
    3  A    between atoms: C_13  and  C_29
    4  A    between atoms: O_14  and  C_18
    5  A    between atoms: C_16  and  C_27
                            x       y       z     vdW  Elec       q    Type
                         _______ _______ _______ _____ _____    ______ ____

>  <TORSDO>
F 5

$$$$
=
 OpenBabel10262421113D

 32 36  0  0  1  0  0  0  0  0999 V2000
  189.7090  176.4730  143.7240 C   0  0  0  0  0  0  0  0  0  0  0  0
  187.6160  177.2100  144.9080 C   0  0  0  0  0  0  0  0  0  0  0  0
  191.2030  176.3120  143.9110 C   0  0  0  0  0  2  0  0  0  0  0  0
  188.9300  176.6150  144.9640 N   0  0  0  0  0  0  0  0  0  0  0  0
  186.9380  177.5110  146.0980 C   0  0  0  0  0  3  0  0  0  0  0  0
  183.8430  179.0380  142.4200 C   0  0  0  0  0  3  0  0  0  0  0  0
  187.0170  177.5300  143.6650 C   0  0  0  0  0  0  0  0  0  0  0  0
  183.8090  179.0100  144.8400 C   0  0  0  0  0  3  0  0  0  0  0  0
  185.0750  178.4170  144.8540 C   0  0  0  0  0  0  0  0  0  0  0  0
  185.6780  178.1070  146.0720 C   0  0  0  0  0  3  0  0  0  0  0  0
  187.7130  177.1700  142.3770 C   0  0  0  0  0  2  0  0  0  0  0  0
  189.2300  177.2840  142.5110 C   0  0  2  0  0  3  0  0  0  0  0  0
  185.7390  178.1260  143.6380 C   0  0  0  0  0  0  0  0  0  0  0  0
  190.3400  175.1120  143.5180 C   0  0  0  0  0  2  0  0  0  0  0  0
  183.1950  179.3200  143.6250 C   0  0  0  0  0  3  0  0  0  0  0  0
  185.1070  178.4440  142.4250 C   0  0  0  0  0  3  0  0  0  0  0  0
  192.1730  177.5030  139.9760 C   0  0  1  0  0  3  0  0  0  0  0  0
  190.9370  176.5790  136.8430 C   0  0  0  0  0  1  0  0  0  0  0  0
  193.2360  176.9850  140.6960 F   0  0  0  0  0  0  0  0  0  0  0  0
  189.3730  176.9140  138.7200 C   0  0  0  0  0  3  0  0  0  0  0  0
  189.9730  177.0140  141.1870 C   0  0  1  0  0  3  0  0  0  0  0  0
  191.6900  176.5070  139.1040 O   0  0  0  0  0  0  0  0  0  0  0  0
  189.0150  176.9020  140.0140 C   0  0  0  0  0  3  0  0  0  0  0  0
  191.0870  178.0420  140.9330 C   0  0  1  0  0  3  0  0  0  0  0  0
  191.6690  178.4730  142.1160 F   0  0  0  0  0  0  0  0  0  0  0  0
  190.7820  177.1340  138.2440 C   0  0  1  0  0  3  0  0  0  0  0  0
  189.5140  176.3830  146.1720 O   0  0  0  0  0  0  0  0  0  0  0  0
  190.1760  177.5710  146.5160 C   0  0  1  0  0  3  0  0  0  0  0  0
  189.5090  178.1950  147.5710 O   0  0  0  0  0  1  0  0  0  0  0  0
  191.6250  177.2900  146.9020 C   0  0  0  0  0  2  0  0  0  0  0  0
  192.8090  175.6270  148.2490 C   0  0  0  0  0  2  0  0  0  0  0  0
  191.7990  175.9040  147.4310 C   0  0  0  0  0  3  0  0  0  0  0  0
  1  3  1  0  0  0  0
  1  4  1  0  0  0  0
  2  4  1  0  0  0  0
  2  5  1  0  0  0  0
  4 27  1  0  0  0  0
  6 16  2  0  0  0  0
  6 15  1  0  0  0  0
  7  2  2  0  0  0  0
  8  9  1  0  0  0  0
  9 10  1  0  0  0  0
 10  5  2  0  0  0  0
 11  7  1  0  0  0  0
 12 11  1  6  0  0  0
 12  1  1  0  0  0  0
 13  7  1  0  0  0  0
 13  9  2  0  0  0  0
 14  1  1  0  0  0  0
 14  3  1  0  0  0  0
 15  8  2  0  0  0  0
 16 13  1  0  0  0  0
 17 19  1  1  0  0  0
 17 24  1  0  0  0  0
 20 23  2  0  0  0  0
 21 23  1  6  0  0  0
 21 12  1  0  0  0  0
 22 17  1  0  0  0  0
 24 21  1  0  0  0  0
 24 25  1  1  0  0  0
 26 18  1  6  0  0  0
 26 20  1  0  0  0  0
 26 22  1  0  0  0  0
 27 28  1  0  0  0  0
 28 30  1  0  0  0  0
 28 29  1  1  0  0  0
 30 32  1  0  0  0  0
 32 31  2  0  0  0  0
M  END
>  <MODEL>
3

>  <REMARK>
 VINA RESULT:      -8.1      4.012      6.818
  Name = 
  5 active torsions:
  status: ('A' for Active; 'I' for Inactive)
    1  A    between atoms: N_5  and  O_14
    2  A    between atoms: C_13  and  C_18
    3  A    between atoms: C_13  and  C_29
    4  A    between atoms: O_14  and  C_18
    5  A    between atoms: C_16  and  C_27
                            x       y       z     vdW  Elec       q    Type
                         _______ _______ _______ _____ _____    ______ ____

>  <TORSDO>
F 5

$$$$
=
 OpenBabel10262421113D

 32 36  0  0  1  0  0  0  0  0999 V2000
  182.3440  178.7430  139.8130 C   0  0  0  0  0  0  0  0  0  0  0  0
  182.7510  178.8720  142.2920 C   0  0  0  0  0  0  0  0  0  0  0  0
  181.2660  178.4790  138.7830 C   0  0  0  0  0  2  0  0  0  0  0  0
  181.8610  179.0470  141.1680 N   0  0  0  0  0  0  0  0  0  0  0  0
  182.2540  178.9880  143.5980 C   0  0  0  0  0  3  0  0  0  0  0  0
  187.1410  177.8720  144.1640 C   0  0  0  0  0  3  0  0  0  0  0  0
  184.1150  178.5450  142.0910 C   0  0  0  0  0  0  0  0  0  0  0  0
  185.2610  178.3070  145.6260 C   0  0  0  0  0  3  0  0  0  0  0  0
  184.4330  178.4880  144.5140 C   0  0  0  0  0  0  0  0  0  0  0  0
  183.0870  178.8000  144.7000 C   0  0  0  0  0  3  0  0  0  0  0  0
  184.6750  178.4640  140.6940 C   0  0  0  0  0  2  0  0  0  0  0  0
  183.6400  177.9240  139.7090 C   0  0  2  0  0  3  0  0  0  0  0  0
  184.9600  178.3620  143.2060 C   0  0  0  0  0  0  0  0  0  0  0  0
  182.0360  179.8000  138.7730 C   0  0  0  0  0  2  0  0  0  0  0  0
  186.6120  177.9990  145.4510 C   0  0  0  0  0  3  0  0  0  0  0  0
  186.3210  178.0530  143.0480 C   0  0  0  0  0  3  0  0  0  0  0  0
  184.1150  176.1590  136.2750 C   0  0  1  0  0  3  0  0  0  0  0  0
  186.9830  177.4900  134.7920 C   0  0  0  0  0  1  0  0  0  0  0  0
  182.8210  176.0830  135.7890 F   0  0  0  0  0  0  0  0  0  0  0  0
  186.4450  178.0560  137.1310 C   0  0  0  0  0  3  0  0  0  0  0  0
  184.2040  177.7380  138.2860 C   0  0  1  0  0  3  0  0  0  0  0  0
  184.7720  177.2350  135.6460 O   0  0  0  0  0  0  0  0  0  0  0  0
  185.6130  178.2880  138.1600 C   0  0  0  0  0  3  0  0  0  0  0  0
  184.1040  176.2780  137.8150 C   0  0  1  0  0  3  0  0  0  0  0  0
  182.9830  175.6460  138.3320 F   0  0  0  0  0  0  0  0  0  0  0  0
  186.1250  177.1340  135.9890 C   0  0  1  0  0  3  0  0  0  0  0  0
  180.5390  179.2900  141.3880 O   0  0  0  0  0  0  0  0  0  0  0  0
  180.0060  178.0950  141.8950 C   0  0  1  0  0  3  0  0  0  0  0  0
  179.2090  178.3690  143.0080 O   0  0  0  0  0  1  0  0  0  0  0  0
  179.1900  177.3720  140.8290 C   0  0  0  0  0  2  0  0  0  0  0  0
  180.2100  175.2800  140.0770 C   0  0  0  0  0  2  0  0  0  0  0  0
  179.3680  175.8900  140.9040 C   0  0  0  0  0  3  0  0  0  0  0  0
  1  4  1  0  0  0  0
  2  5  1  0  0  0  0
  3  1  1  0  0  0  0
  4 27  1  0  0  0  0
  4  2  1  0  0  0  0
  5 10  2  0  0  0  0
  6 15  1  0  0  0  0
  7  2  2  0  0  0  0
  7 13  1  0  0  0  0
  9 10  1  0  0  0  0
  9  8  1  0  0  0  0
 11  7  1  0  0  0  0
 12  1  1  0  0  0  0
 12 11  1  1  0  0  0
 13  9  2  0  0  0  0
 14  3  1  0  0  0  0
 14  1  1  0  0  0  0
 15  8  2  0  0  0  0
 16 13  1  0  0  0  0
 16  6  2  0  0  0  0
 17 19  1  6  0  0  0
 17 24  1  0  0  0  0
 20 23  2  0  0  0  0
 21 23  1  1  0  0  0
 21 12  1  0  0  0  0
 22 26  1  0  0  0  0
 22 17  1  0  0  0  0
 24 21  1  0  0  0  0
 24 25  1  6  0  0  0
 26 18  1  6  0  0  0
 26 20  1  0  0  0  0
 27 28  1  0  0  0  0
 28 29  1  1  0  0  0
 30 32  1  0  0  0  0
 30 28  1  0  0  0  0
 31 32  2  0  0  0  0
M  END
>  <MODEL>
4

>  <REMARK>
 VINA RESULT:      -8.0      3.079      6.078
  Name = 
  5 active torsions:
  status: ('A' for Active; 'I' for Inactive)
    1  A    between atoms: N_5  and  O_14
    2  A    between atoms: C_13  and  C_18
    3  A    between atoms: C_13  and  C_29
    4  A    between atoms: O_14  and  C_18
    5  A    between atoms: C_16  and  C_27
                            x       y       z     vdW  Elec       q    Type
                         _______ _______ _______ _____ _____    ______ ____

>  <TORSDO>
F 5

$$$$
=
 OpenBabel10262421113D

 32 36  0  0  1  0  0  0  0  0999 V2000
  186.5720  178.7500  141.6660 C   0  0  0  0  0  0  0  0  0  0  0  0
  184.1970  178.9100  140.8550 C   0  0  0  0  0  0  0  0  0  0  0  0
  187.9640  178.3360  141.2370 C   0  0  0  0  0  2  0  0  0  0  0  0
  185.6120  178.9610  140.5730 N   0  0  0  0  0  0  0  0  0  0  0  0
  183.2750  178.9340  139.7990 C   0  0  0  0  0  3  0  0  0  0  0  0
  180.4590  178.5640  143.9670 C   0  0  0  0  0  3  0  0  0  0  0  0
  183.7270  178.7960  142.1870 C   0  0  0  0  0  0  0  0  0  0  0  0
  180.0540  178.6940  141.5830 C   0  0  0  0  0  3  0  0  0  0  0  0
  181.4310  178.7600  141.3500 C   0  0  0  0  0  0  0  0  0  0  0  0
  181.9040  178.8630  140.0420 C   0  0  0  0  0  3  0  0  0  0  0  0
  184.7030  178.8160  143.3360 C   0  0  0  0  0  2  0  0  0  0  0  0
  186.0190  178.1370  142.9620 C   0  0  2  0  0  3  0  0  0  0  0  0
  182.3400  178.7300  142.4340 C   0  0  0  0  0  0  0  0  0  0  0  0
  187.6990  179.7590  141.7320 C   0  0  0  0  0  2  0  0  0  0  0  0
  179.5700  178.5950  142.8900 C   0  0  0  0  0  3  0  0  0  0  0  0
  181.8360  178.6320  143.7420 C   0  0  0  0  0  3  0  0  0  0  0  0
  189.0490  176.7520  144.9710 C   0  0  1  0  0  3  0  0  0  0  0  0
  188.7400  177.8840  148.2600 C   0  0  0  0  0  1  0  0  0  0  0  0
  190.0980  176.8970  144.0800 F   0  0  0  0  0  0  0  0  0  0  0  0
  186.8840  178.2270  146.6730 C   0  0  0  0  0  3  0  0  0  0  0  0
  187.0090  178.0540  144.1420 C   0  0  1  0  0  3  0  0  0  0  0  0
  189.1000  177.8060  145.9050 O   0  0  0  0  0  0  0  0  0  0  0  0
  186.3540  178.4350  145.4570 C   0  0  0  0  0  3  0  0  0  0  0  0
  187.7050  176.6850  144.2120 C   0  0  1  0  0  3  0  0  0  0  0  0
  187.8990  176.1410  142.9510 F   0  0  0  0  0  0  0  0  0  0  0  0
  188.1760  177.4960  146.9090 C   0  0  1  0  0  3  0  0  0  0  0  0
  186.0400  178.9990  139.2800 O   0  0  0  0  0  0  0  0  0  0  0  0
  186.1270  177.6610  138.8640 C   0  0  1  0  0  3  0  0  0  0  0  0
  185.1000  177.3810  137.9610 O   0  0  0  0  0  1  0  0  0  0  0  0
  187.4820  177.3830  138.2210 C   0  0  0  0  0  2  0  0  0  0  0  0
  189.0550  179.0050  137.2840 C   0  0  0  0  0  2  0  0  0  0  0  0
  187.8540  178.4380  137.2310 C   0  0  0  0  0  3  0  0  0  0  0  0
  1 14  1  0  0  0  0
  1 12  1  0  0  0  0
  2  7  1  0  0  0  0
  3  1  1  0  0  0  0
  3 14  1  0  0  0  0
  4  2  1  0  0  0  0
  4  1  1  0  0  0  0
  5 10  1  0  0  0  0
  5  2  2  0  0  0  0
  7 13  2  0  0  0  0
  7 11  1  0  0  0  0
  8 15  2  0  0  0  0
  9  8  1  0  0  0  0
  9 13  1  0  0  0  0
 10  9  2  0  0  0  0
 12 11  1  1  0  0  0
 12 21  1  0  0  0  0
 13 16  1  0  0  0  0
 15  6  1  0  0  0  0
 16  6  2  0  0  0  0
 17 19  1  6  0  0  0
 17 22  1  0  0  0  0
 20 26  1  0  0  0  0
 21 24  1  0  0  0  0
 21 23  1  1  0  0  0
 22 26  1  0  0  0  0
 23 20  2  0  0  0  0
 24 25  1  6  0  0  0
 24 17  1  0  0  0  0
 26 18  1  1  0  0  0
 27  4  1  0  0  0  0
 28 29  1  6  0  0  0
 28 27  1  0  0  0  0
 30 28  1  0  0  0  0
 32 31  2  0  0  0  0
 32 30  1  0  0  0  0
M  END
>  <MODEL>
5

>  <REMARK>
 VINA RESULT:      -7.8      2.755      7.990
  Name = 
  5 active torsions:
  status: ('A' for Active; 'I' for Inactive)
    1  A    between atoms: N_5  and  O_14
    2  A    between atoms: C_13  and  C_18
    3  A    between atoms: C_13  and  C_29
    4  A    between atoms: O_14  and  C_18
    5  A    between atoms: C_16  and  C_27
                            x       y       z     vdW  Elec       q    Type
                         _______ _______ _______ _____ _____    ______ ____

>  <TORSDO>
F 5

$$$$
=
 OpenBabel10262421113D

 32 36  0  0  1  0  0  0  0  0999 V2000
  188.4450  177.8950  137.9850 C   0  0  0  0  0  0  0  0  0  0  0  0
  187.3090  178.2630  140.1990 C   0  0  0  0  0  0  0  0  0  0  0  0
  188.1680  177.6960  136.5090 C   0  0  0  0  0  2  0  0  0  0  0  0
  187.3290  178.4470  138.7670 N   0  0  0  0  0  0  0  0  0  0  0  0
  186.1710  178.6280  140.9320 C   0  0  0  0  0  3  0  0  0  0  0  0
  189.3700  176.7530  144.3520 C   0  0  0  0  0  3  0  0  0  0  0  0
  188.4120  177.6790  140.8690 C   0  0  0  0  0  0  0  0  0  0  0  0
  187.1390  177.6920  144.3680 C   0  0  0  0  0  3  0  0  0  0  0  0
  187.2010  177.8740  142.9830 C   0  0  0  0  0  0  0  0  0  0  0  0
  186.1170  178.4380  142.3120 C   0  0  0  0  0  3  0  0  0  0  0  0
  189.6610  177.3250  140.1020 C   0  0  0  0  0  2  0  0  0  0  0  0
  189.3320  176.8550  138.6860 C   0  0  2  0  0  3  0  0  0  0  0  0
  188.3610  177.4930  142.2670 C   0  0  0  0  0  0  0  0  0  0  0  0
  189.0550  178.8490  136.9800 C   0  0  0  0  0  2  0  0  0  0  0  0
  188.2210  177.1320  145.0510 C   0  0  0  0  0  3  0  0  0  0  0  0
  189.4400  176.9320  142.9690 C   0  0  0  0  0  3  0  0  0  0  0  0
  191.3810  174.5810  136.2860 C   0  0  1  0  0  3  0  0  0  0  0  0
  194.7640  175.2690  136.8120 C   0  0  0  0  0  1  0  0  0  0  0  0
  190.6400  174.6240  135.1180 F   0  0  0  0  0  0  0  0  0  0  0  0
  193.0740  176.2250  138.3330 C   0  0  0  0  0  3  0  0  0  0  0  0
  190.5760  176.3940  137.9020 C   0  0  1  0  0  3  0  0  0  0  0  0
  192.4790  175.4540  136.1580 O   0  0  0  0  0  0  0  0  0  0  0  0
  191.8620  176.7140  138.6420 C   0  0  0  0  0  3  0  0  0  0  0  0
  190.4870  174.9130  137.5020 C   0  0  1  0  0  3  0  0  0  0  0  0
  189.1790  174.5260  137.2480 F   0  0  0  0  0  0  0  0  0  0  0  0
  193.3160  175.2090  137.2520 C   0  0  1  0  0  3  0  0  0  0  0  0
  186.2280  178.9450  138.1360 O   0  0  0  0  0  0  0  0  0  0  0  0
  185.2310  177.9660  138.2730 C   0  0  1  0  0  3  0  0  0  0  0  0
  184.0260  178.5690  138.6400 O   0  0  0  0  0  1  0  0  0  0  0  0
  185.0570  177.1890  136.9720 C   0  0  0  0  0  2  0  0  0  0  0  0
  185.8640  174.8840  136.8440 C   0  0  0  0  0  2  0  0  0  0  0  0
  184.9040  175.7230  137.2180 C   0  0  0  0  0  3  0  0  0  0  0  0
  1 12  1  0  0  0  0
  1  4  1  0  0  0  0
  2  7  2  0  0  0  0
  2  5  1  0  0  0  0
  3 14  1  0  0  0  0
  3  1  1  0  0  0  0
  4  2  1  0  0  0  0
  5 10  2  0  0  0  0
  6 15  1  0  0  0  0
  7 13  1  0  0  0  0
  8 15  2  0  0  0  0
  9  8  1  0  0  0  0
 10  9  1  0  0  0  0
 11  7  1  0  0  0  0
 12 11  1  1  0  0  0
 13 16  1  0  0  0  0
 13  9  2  0  0  0  0
 14  1  1  0  0  0  0
 16  6  2  0  0  0  0
 17 19  1  6  0  0  0
 17 24  1  0  0  0  0
 20 23  2  0  0  0  0
 21 23  1  1  0  0  0
 21 12  1  0  0  0  0
 22 17  1  0  0  0  0
 22 26  1  0  0  0  0
 24 25  1  6  0  0  0
 24 21  1  0  0  0  0
 26 18  1  6  0  0  0
 26 20  1  0  0  0  0
 27 28  1  0  0  0  0
 27  4  1  0  0  0  0
 28 29  1  6  0  0  0
 30 32  1  0  0  0  0
 30 28  1  0  0  0  0
 31 32  2  0  0  0  0
M  END
>  <MODEL>
6

>  <REMARK>
 VINA RESULT:      -7.6      4.252      8.254
  Name = 
  5 active torsions:
  status: ('A' for Active; 'I' for Inactive)
    1  A    between atoms: N_5  and  O_14
    2  A    between atoms: C_13  and  C_18
    3  A    between atoms: C_13  and  C_29
    4  A    between atoms: O_14  and  C_18
    5  A    between atoms: C_16  and  C_27
                            x       y       z     vdW  Elec       q    Type
                         _______ _______ _______ _____ _____    ______ ____

>  <TORSDO>
F 5

$$$$
=
 OpenBabel10262421113D

 32 36  0  0  1  0  0  0  0  0999 V2000
  188.3860  177.6960  140.5780 C   0  0  0  0  0  0  0  0  0  0  0  0
  188.0940  177.6140  143.0740 C   0  0  0  0  0  0  0  0  0  0  0  0
  187.6510  177.4740  139.2730 C   0  0  0  0  0  2  0  0  0  0  0  0
  187.5320  177.8470  141.7650 N   0  0  0  0  0  0  0  0  0  0  0  0
  187.2550  177.5820  144.1970 C   0  0  0  0  0  3  0  0  0  0  0  0
  191.8720  176.6670  146.0080 C   0  0  0  0  0  3  0  0  0  0  0  0
  189.4820  177.3760  143.2350 C   0  0  0  0  0  0  0  0  0  0  0  0
  189.6390  176.8690  146.9210 C   0  0  0  0  0  3  0  0  0  0  0  0
  189.1330  177.1100  145.6400 C   0  0  0  0  0  0  0  0  0  0  0  0
  187.7680  177.3350  145.4690 C   0  0  0  0  0  3  0  0  0  0  0  0
  190.4040  177.4530  142.0460 C   0  0  0  0  0  2  0  0  0  0  0  0
  189.7190  176.9560  140.7740 C   0  0  2  0  0  3  0  0  0  0  0  0
  190.0030  177.1330  144.5240 C   0  0  0  0  0  0  0  0  0  0  0  0
  188.2950  178.8280  139.5760 C   0  0  0  0  0  2  0  0  0  0  0  0
  191.0060  176.6460  147.1040 C   0  0  0  0  0  3  0  0  0  0  0  0
  191.3750  176.9090  144.7250 C   0  0  0  0  0  3  0  0  0  0  0  0
  190.9390  175.8630  137.2460 C   0  0  1  0  0  3  0  0  0  0  0  0
  194.3090  176.7350  136.9780 C   0  0  0  0  0  1  0  0  0  0  0  0
  189.8690  176.2020  136.4350 F   0  0  0  0  0  0  0  0  0  0  0  0
  193.1700  176.9270  139.1560 C   0  0  0  0  0  3  0  0  0  0  0  0
  190.6600  176.9320  139.5540 C   0  0  1  0  0  3  0  0  0  0  0  0
  191.9330  176.8530  137.1210 O   0  0  0  0  0  0  0  0  0  0  0  0
  192.1100  177.1390  139.9540 C   0  0  0  0  0  3  0  0  0  0  0  0
  190.4650  175.6660  138.7040 C   0  0  1  0  0  3  0  0  0  0  0  0
  189.1480  175.2320  138.7200 F   0  0  0  0  0  0  0  0  0  0  0  0
  193.0720  176.3620  137.7680 C   0  0  1  0  0  3  0  0  0  0  0  0
  186.1860  178.0010  141.6270 O   0  0  0  0  0  0  0  0  0  0  0  0
  185.9480  179.3830  141.6950 C   0  0  1  0  0  3  0  0  0  0  0  0
  185.1740  179.7820  140.6040 O   0  0  0  0  0  1  0  0  0  0  0  0
  185.2460  179.7460  143.0000 C   0  0  0  0  0  2  0  0  0  0  0  0
  183.6270  178.6640  144.4790 C   0  0  0  0  0  2  0  0  0  0  0  0
  184.0420  178.8950  143.2380 C   0  0  0  0  0  3  0  0  0  0  0  0
  1 12  1  0  0  0  0
  1  4  1  0  0  0  0
  2  7  2  0  0  0  0
  2  5  1  0  0  0  0
  3 14  1  0  0  0  0
  3  1  1  0  0  0  0
  4  2  1  0  0  0  0
  5 10  2  0  0  0  0
  6 15  1  0  0  0  0
  7 13  1  0  0  0  0
  8 15  2  0  0  0  0
  9  8  1  0  0  0  0
 10  9  1  0  0  0  0
 11  7  1  0  0  0  0
 12 11  1  1  0  0  0
 13 16  1  0  0  0  0
 13  9  2  0  0  0  0
 14  1  1  0  0  0  0
 16  6  2  0  0  0  0
 17 19  1  6  0  0  0
 17 24  1  0  0  0  0
 20 23  2  0  0  0  0
 21 23  1  1  0  0  0
 21 12  1  0  0  0  0
 22 17  1  0  0  0  0
 22 26  1  0  0  0  0
 24 25  1  6  0  0  0
 24 21  1  0  0  0  0
 26 18  1  6  0  0  0
 26 20  1  0  0  0  0
 27 28  1  0  0  0  0
 27  4  1  0  0  0  0
 28 29  1  6  0  0  0
 28 30  1  0  0  0  0
 30 32  1  0  0  0  0
 32 31  2  0  0  0  0
M  END
>  <MODEL>
7

>  <REMARK>
 VINA RESULT:      -7.5      3.455      6.999
  Name = 
  5 active torsions:
  status: ('A' for Active; 'I' for Inactive)
    1  A    between atoms: N_5  and  O_14
    2  A    between atoms: C_13  and  C_18
    3  A    between atoms: C_13  and  C_29
    4  A    between atoms: O_14  and  C_18
    5  A    between atoms: C_16  and  C_27
                            x       y       z     vdW  Elec       q    Type
                         _______ _______ _______ _____ _____    ______ ____

>  <TORSDO>
F 5

$$$$
=
 OpenBabel10262421113D

 32 36  0  0  1  0  0  0  0  0999 V2000
  185.4300  178.6270  140.3690 C   0  0  0  0  0  0  0  0  0  0  0  0
  187.4650  178.2950  141.8090 C   0  0  0  0  0  0  0  0  0  0  0  0
  184.9380  179.3420  139.1280 C   0  0  0  0  0  2  0  0  0  0  0  0
  186.8910  178.5340  140.5060 N   0  0  0  0  0  0  0  0  0  0  0  0
  188.8540  178.3780  141.9830 C   0  0  0  0  0  3  0  0  0  0  0  0
  187.0360  177.3070  146.5640 C   0  0  0  0  0  3  0  0  0  0  0  0
  186.6390  178.0160  142.9250 C   0  0  0  0  0  0  0  0  0  0  0  0
  189.2200  177.6840  145.5890 C   0  0  0  0  0  3  0  0  0  0  0  0
  188.6290  177.8900  144.3380 C   0  0  0  0  0  0  0  0  0  0  0  0
  189.4320  178.1760  143.2350 C   0  0  0  0  0  3  0  0  0  0  0  0
  185.1490  177.8770  142.7450 C   0  0  0  0  0  2  0  0  0  0  0  0
  184.6260  178.8210  141.6640 C   0  0  2  0  0  3  0  0  0  0  0  0
  187.2240  177.8040  144.1910 C   0  0  0  0  0  0  0  0  0  0  0  0
  184.8410  177.8190  139.2320 C   0  0  0  0  0  2  0  0  0  0  0  0
  188.4240  177.3940  146.6990 C   0  0  0  0  0  3  0  0  0  0  0  0
  186.4390  177.5100  145.3180 C   0  0  0  0  0  3  0  0  0  0  0  0
  180.9300  179.2110  142.8130 C   0  0  1  0  0  3  0  0  0  0  0  0
  178.9320  177.4500  140.5550 C   0  0  0  0  0  1  0  0  0  0  0  0
  180.8690  180.5390  143.2010 F   0  0  0  0  0  0  0  0  0  0  0  0
  181.3850  177.2320  140.4390 C   0  0  0  0  0  3  0  0  0  0  0  0
  183.0920  178.7750  141.5160 C   0  0  1  0  0  3  0  0  0  0  0  0
  180.3630  179.0880  141.5290 O   0  0  0  0  0  0  0  0  0  0  0  0
  182.6480  177.6710  140.5750 C   0  0  0  0  0  3  0  0  0  0  0  0
  182.3860  178.6980  142.8800 C   0  0  1  0  0  3  0  0  0  0  0  0
  183.0860  179.3840  143.8610 F   0  0  0  0  0  0  0  0  0  0  0  0
  180.2370  177.7180  141.2770 C   0  0  1  0  0  3  0  0  0  0  0  0
  187.7010  178.8700  139.4640 O   0  0  0  0  0  0  0  0  0  0  0  0
  188.2880  177.6720  139.0300 C   0  0  1  0  0  3  0  0  0  0  0  0
  187.5720  177.1610  137.9460 O   0  0  0  0  0  1  0  0  0  0  0  0
  189.7450  177.8950  138.6390 C   0  0  0  0  0  2  0  0  0  0  0  0
  191.6420  177.1280  139.9790 C   0  0  0  0  0  2  0  0  0  0  0  0
  190.6340  176.8180  139.1710 C   0  0  0  0  0  3  0  0  0  0  0  0
  1  4  1  0  0  0  0
  1 12  1  0  0  0  0
  2  5  2  0  0  0  0
  2  7  1  0  0  0  0
  3 14  1  0  0  0  0
  3  1  1  0  0  0  0
  4  2  1  0  0  0  0
  5 10  1  0  0  0  0
  6 15  1  0  0  0  0
  7 13  2  0  0  0  0
  8 15  2  0  0  0  0
  9  8  1  0  0  0  0
 10  9  2  0  0  0  0
 11  7  1  0  0  0  0
 12 11  1  1  0  0  0
 13  9  1  0  0  0  0
 13 16  1  0  0  0  0
 14  1  1  0  0  0  0
 16  6  2  0  0  0  0
 17 24  1  0  0  0  0
 17 19  1  6  0  0  0
 20 23  2  0  0  0  0
 20 26  1  0  0  0  0
 21 23  1  6  0  0  0
 21 12  1  0  0  0  0
 21 24  1  0  0  0  0
 22 17  1  0  0  0  0
 24 25  1  1  0  0  0
 26 18  1  6  0  0  0
 26 22  1  0  0  0  0
 27  4  1  0  0  0  0
 28 29  1  6  0  0  0
 28 27  1  0  0  0  0
 30 28  1  0  0  0  0
 30 32  1  0  0  0  0
 32 31  2  0  0  0  0
M  END
>  <MODEL>
8

>  <REMARK>
 VINA RESULT:      -7.2      2.492      4.978
  Name = 
  5 active torsions:
  status: ('A' for Active; 'I' for Inactive)
    1  A    between atoms: N_5  and  O_14
    2  A    between atoms: C_13  and  C_18
    3  A    between atoms: C_13  and  C_29
    4  A    between atoms: O_14  and  C_18
    5  A    between atoms: C_16  and  C_27
                            x       y       z     vdW  Elec       q    Type
                         _______ _______ _______ _____ _____    ______ ____

>  <TORSDO>
F 5

$$$$
=
 OpenBabel10262421113D

 32 36  0  0  1  0  0  0  0  0999 V2000
  189.0810  177.8890  142.7420 C   0  0  0  0  0  0  0  0  0  0  0  0
  186.8870  178.5550  141.7080 C   0  0  0  0  0  0  0  0  0  0  0  0
  190.4280  177.2780  142.4160 C   0  0  0  0  0  2  0  0  0  0  0  0
  188.3150  178.3790  141.5860 N   0  0  0  0  0  0  0  0  0  0  0  0
  186.1230  178.8510  140.5710 C   0  0  0  0  0  3  0  0  0  0  0  0
  182.7830  178.5740  144.3400 C   0  0  0  0  0  3  0  0  0  0  0  0
  186.2420  178.3930  142.9590 C   0  0  0  0  0  0  0  0  0  0  0  0
  182.7080  179.0140  141.9610 C   0  0  0  0  0  3  0  0  0  0  0  0
  184.0960  178.8560  141.8840 C   0  0  0  0  0  0  0  0  0  0  0  0
  184.7400  179.0030  140.6570 C   0  0  0  0  0  3  0  0  0  0  0  0
  187.0540  178.1210  144.1990 C   0  0  0  0  0  2  0  0  0  0  0  0
  188.2760  177.2580  143.8880 C   0  0  2  0  0  3  0  0  0  0  0  0
  184.8430  178.5530  143.0480 C   0  0  0  0  0  0  0  0  0  0  0  0
  190.3430  178.6680  143.0490 C   0  0  0  0  0  2  0  0  0  0  0  0
  182.0540  178.8730  143.1860 C   0  0  0  0  0  3  0  0  0  0  0  0
  184.1690  178.4150  144.2720 C   0  0  0  0  0  3  0  0  0  0  0  0
  189.2640  177.3880  147.6480 C   0  0  1  0  0  3  0  0  0  0  0  0
  192.4380  175.9640  147.9540 C   0  0  0  0  0  1  0  0  0  0  0  0
  188.0810  177.0590  148.2860 F   0  0  0  0  0  0  0  0  0  0  0  0
  191.5130  176.4100  145.7120 C   0  0  0  0  0  3  0  0  0  0  0  0
  189.0810  176.8800  145.1470 C   0  0  1  0  0  3  0  0  0  0  0  0
  190.0950  176.2500  147.6210 O   0  0  0  0  0  0  0  0  0  0  0  0
  190.5220  176.5370  144.8150 C   0  0  0  0  0  3  0  0  0  0  0  0
  188.9750  177.9550  146.2400 C   0  0  1  0  0  3  0  0  0  0  0  0
  187.7390  178.5830  146.2270 F   0  0  0  0  0  0  0  0  0  0  0  0
  191.3510  176.6820  147.1810 C   0  0  1  0  0  3  0  0  0  0  0  0
  188.9030  178.4700  140.3610 O   0  0  0  0  0  0  0  0  0  0  0  0
  188.8770  177.1730  139.8240 C   0  0  1  0  0  3  0  0  0  0  0  0
  188.0030  177.1300  138.7370 O   0  0  0  0  0  1  0  0  0  0  0  0
  190.2750  176.7400  139.3930 C   0  0  0  0  0  2  0  0  0  0  0  0
  190.9830  176.3830  137.0800 C   0  0  0  0  0  2  0  0  0  0  0  0
  190.2480  175.9770  138.1090 C   0  0  0  0  0  3  0  0  0  0  0  0
  1 14  1  0  0  0  0
  1 12  1  0  0  0  0
  2  7  1  0  0  0  0
  3  1  1  0  0  0  0
  3 14  1  0  0  0  0
  4  2  1  0  0  0  0
  4  1  1  0  0  0  0
  5 10  1  0  0  0  0
  5  2  2  0  0  0  0
  7 13  2  0  0  0  0
  7 11  1  0  0  0  0
  8 15  2  0  0  0  0
  9  8  1  0  0  0  0
  9 13  1  0  0  0  0
 10  9  2  0  0  0  0
 12 11  1  1  0  0  0
 12 21  1  0  0  0  0
 13 16  1  0  0  0  0
 15  6  1  0  0  0  0
 16  6  2  0  0  0  0
 17 19  1  6  0  0  0
 20 26  1  0  0  0  0
 21 23  1  6  0  0  0
 21 24  1  0  0  0  0
 22 17  1  0  0  0  0
 23 20  2  0  0  0  0
 24 25  1  1  0  0  0
 24 17  1  0  0  0  0
 26 22  1  0  0  0  0
 26 18  1  1  0  0  0
 27  4  1  0  0  0  0
 28 29  1  6  0  0  0
 28 27  1  0  0  0  0
 30 28  1  0  0  0  0
 31 32  2  0  0  0  0
 32 30  1  0  0  0  0
M  END
>  <MODEL>
9

>  <REMARK>
 VINA RESULT:      -7.0      3.319      8.323
  Name = 
  5 active torsions:
  status: ('A' for Active; 'I' for Inactive)
    1  A    between atoms: N_5  and  O_14
    2  A    between atoms: C_13  and  C_18
    3  A    between atoms: C_13  and  C_29
    4  A    between atoms: O_14  and  C_18
    5  A    between atoms: C_16  and  C_27
                            x       y       z     vdW  Elec       q    Type
                         _______ _______ _______ _____ _____    ______ ____

>  <TORSDO>
F 5

$$$$
