=
 OpenBabel10262421243D

 32 37  0  0  1  0  0  0  0  0999 V2000
  185.2230  177.1460  137.6930 C   0  0  0  0  0  2  0  0  0  0  0  0
  188.6650  178.6200  141.4450 C   0  0  2  0  0  3  0  0  0  0  0  0
  185.5330  177.9940  145.2150 C   0  0  0  0  0  3  0  0  0  0  0  0
  186.5980  178.0240  146.1130 C   0  0  0  0  0  3  0  0  0  0  0  0
  190.4110  176.8190  142.1110 C   0  0  0  0  0  0  0  0  0  0  0  0
  190.9180  176.3230  143.3600 C   0  0  0  0  0  0  0  0  0  0  0  0
  187.7490  178.7130  139.1660 N   0  0  2  0  0  0  0  0  0  0  0  0
  186.1790  178.4830  141.0230 C   0  0  0  0  0  2  0  0  0  0  0  0
  191.6790  175.8750  145.9810 C   0  0  0  0  0  0  0  0  0  0  0  0
  185.3450  178.2870  138.6920 C   0  0  0  0  0  2  0  0  0  0  0  0
  185.7750  178.0660  143.8420 C   0  0  0  0  0  3  0  0  0  0  0  0
  187.3180  178.2820  141.9240 N   0  0  0  0  0  0  0  0  0  0  0  0
  187.0860  178.1620  143.3460 C   0  0  0  0  0  0  0  0  0  0  0  0
  189.6020  178.2640  143.7790 C   0  0  2  0  0  3  0  0  0  0  0  0
  192.1240  175.0130  144.9610 C   0  0  0  0  0  3  0  0  0  0  0  0
  187.6920  177.1140  137.2080 C   0  0  0  0  0  2  0  0  0  0  0  0
  186.5270  178.0220  139.6150 C   0  0  1  0  0  3  0  0  0  0  0  0
  191.7460  175.2350  143.6260 C   0  0  0  0  0  3  0  0  0  0  0  0
  188.1070  178.4820  137.7560 C   0  0  0  0  0  2  0  0  0  0  0  0
  186.2920  177.2140  136.6000 C   0  0  1  0  0  3  0  0  0  0  0  0
  187.9080  178.1100  145.6380 C   0  0  0  0  0  3  0  0  0  0  0  0
  188.1710  178.1540  144.2610 C   0  0  0  0  0  0  0  0  0  0  0  0
  190.8490  176.9670  145.6790 C   0  0  0  0  0  3  0  0  0  0  0  0
  188.8580  178.2230  139.9770 C   0  0  0  0  0  2  0  0  0  0  0  0
  190.5930  176.2780  140.9880 O   0  0  0  0  0  0  0  0  0  0  0  0
  192.1670  175.5880  147.6370 Cl  0  0  0  0  0  0  0  0  0  0  0  0
  189.6660  178.0230  142.3300 N   0  0  0  0  0  0  0  0  0  0  0  0
  190.4680  177.1670  144.3490 C   0  0  0  0  0  0  0  0  0  0  0  0
  187.3060  175.6140  135.1270 O   0  0  0  0  0  1  0  0  0  0  0  0
  186.0750  176.0970  135.5810 C   0  0  1  0  0  3  0  0  0  0  0  0
  185.2910  174.9490  136.2030 C   0  0  0  0  0  2  0  0  0  0  0  0
  186.2070  173.7690  136.4650 C   0  0  0  0  0  1  0  0  0  0  0  0
  1 10  1  0  0  0  0
  2 24  1  6  0  0  0
  2 12  1  0  0  0  0
  2 27  1  0  0  0  0
  3  4  1  0  0  0  0
  5 27  1  0  0  0  0
  5  6  1  0  0  0  0
  6 18  2  0  0  0  0
  6 28  1  0  0  0  0
  7 19  1  6  0  0  0
  7 17  1  0  0  0  0
  7 24  1  0  0  0  0
  8 12  1  0  0  0  0
  9 26  1  0  0  0  0
 11  3  2  0  0  0  0
 12 13  1  0  0  0  0
 13 11  1  0  0  0  0
 13 22  2  0  0  0  0
 14 22  1  1  0  0  0
 14 28  1  0  0  0  0
 15  9  2  0  0  0  0
 16 19  1  0  0  0  0
 17 10  1  6  0  0  0
 17  8  1  0  0  0  0
 18 15  1  0  0  0  0
 20 30  1  6  0  0  0
 20 16  1  0  0  0  0
 20  1  1  0  0  0  0
 21  4  2  0  0  0  0
 22 21  1  0  0  0  0
 23  9  1  0  0  0  0
 25  5  2  0  0  0  0
 27 14  1  0  0  0  0
 28 23  2  0  0  0  0
 30 29  1  1  0  0  0
 30 31  1  0  0  0  0
 31 32  1  0  0  0  0
M  END
>  <MODEL>
1

>  <REMARK>
 VINA RESULT:      -9.0      0.000      0.000
  Name = 
  2 active torsions:
  status: ('A' for Active; 'I' for Inactive)
    1  A    between atoms: C_1  and  C_20
    2  A    between atoms: C_20  and  C_24
                            x       y       z     vdW  Elec       q    Type
                         _______ _______ _______ _____ _____    ______ ____

>  <TORSDO>
F 2

$$$$
=
 OpenBabel10262421243D

 32 37  0  0  1  0  0  0  0  0999 V2000
  191.6240  174.0250  135.7660 C   0  0  0  0  0  2  0  0  0  0  0  0
  189.8340  177.7640  139.0680 C   0  0  2  0  0  3  0  0  0  0  0  0
  185.1700  177.6210  137.4420 C   0  0  0  0  0  3  0  0  0  0  0  0
  184.7470  178.3080  138.5780 C   0  0  0  0  0  3  0  0  0  0  0  0
  189.4020  176.9730  141.5020 C   0  0  0  0  0  0  0  0  0  0  0  0
  188.3330  177.1550  142.4430 C   0  0  0  0  0  0  0  0  0  0  0  0
  191.5850  176.7250  137.6910 N   0  0  2  0  0  0  0  0  0  0  0  0
  189.2980  176.7150  136.8340 C   0  0  0  0  0  2  0  0  0  0  0  0
  186.1290  177.9600  143.9090 C   0  0  0  0  0  0  0  0  0  0  0  0
  191.0530  175.4290  135.6370 C   0  0  0  0  0  2  0  0  0  0  0  0
  186.5110  177.2560  137.3060 C   0  0  0  0  0  3  0  0  0  0  0  0
  188.8410  177.2240  138.1310 N   0  0  0  0  0  0  0  0  0  0  0  0
  187.4470  177.5670  138.3070 C   0  0  0  0  0  0  0  0  0  0  0  0
  187.9750  178.6000  140.5830 C   0  0  2  0  0  3  0  0  0  0  0  0
  186.9900  176.9680  144.4180 C   0  0  0  0  0  3  0  0  0  0  0  0
  192.9290  174.5880  137.8420 C   0  0  0  0  0  2  0  0  0  0  0  0
  190.5750  175.9030  137.0030 C   0  0  1  0  0  3  0  0  0  0  0  0
  188.1140  176.5570  143.6820 C   0  0  0  0  0  3  0  0  0  0  0  0
  192.9240  176.1170  137.7740 C   0  0  0  0  0  2  0  0  0  0  0  0
  193.0050  174.0170  136.4250 C   0  0  1  0  0  3  0  0  0  0  0  0
  185.6610  178.6180  139.5860 C   0  0  0  0  0  3  0  0  0  0  0  0
  187.0050  178.2340  139.4790 C   0  0  0  0  0  0  0  0  0  0  0  0
  186.3800  178.5470  142.6580 C   0  0  0  0  0  3  0  0  0  0  0  0
  191.1250  176.9390  139.0590 C   0  0  0  0  0  2  0  0  0  0  0  0
  190.3430  176.1440  141.6240 O   0  0  0  0  0  0  0  0  0  0  0  0
  184.7380  178.4670  144.8430 Cl  0  0  0  0  0  0  0  0  0  0  0  0
  189.2420  177.8770  140.4010 N   0  0  0  0  0  0  0  0  0  0  0  0
  187.4930  178.1160  141.9300 C   0  0  0  0  0  0  0  0  0  0  0  0
  193.3420  171.9640  135.2280 O   0  0  0  0  0  1  0  0  0  0  0  0
  193.5660  172.5960  136.4560 C   0  0  1  0  0  3  0  0  0  0  0  0
  195.0620  172.6170  136.7370 C   0  0  0  0  0  2  0  0  0  0  0  0
  195.3960  171.6770  137.8790 C   0  0  0  0  0  1  0  0  0  0  0  0
  1 20  1  0  0  0  0
  2 24  1  1  0  0  0
  2 27  1  0  0  0  0
  3  4  1  0  0  0  0
  4 21  2  0  0  0  0
  5 25  2  0  0  0  0
  5  6  1  0  0  0  0
  6 18  1  0  0  0  0
  7 19  1  1  0  0  0
  7 24  1  0  0  0  0
  8 17  1  0  0  0  0
  8 12  1  0  0  0  0
  9 15  1  0  0  0  0
  9 26  1  0  0  0  0
 10  1  1  0  0  0  0
 11  3  2  0  0  0  0
 11 13  1  0  0  0  0
 12 13  1  0  0  0  0
 12  2  1  0  0  0  0
 13 22  2  0  0  0  0
 14 22  1  6  0  0  0
 14 28  1  0  0  0  0
 17 10  1  6  0  0  0
 17  7  1  0  0  0  0
 18 15  2  0  0  0  0
 19 16  1  0  0  0  0
 20 30  1  1  0  0  0
 20 16  1  0  0  0  0
 22 21  1  0  0  0  0
 23  9  2  0  0  0  0
 27 14  1  0  0  0  0
 27  5  1  0  0  0  0
 28  6  2  0  0  0  0
 28 23  1  0  0  0  0
 30 29  1  6  0  0  0
 30 31  1  0  0  0  0
 31 32  1  0  0  0  0
M  END
>  <MODEL>
2

>  <REMARK>
 VINA RESULT:      -8.5      3.987      5.951
  Name = 
  2 active torsions:
  status: ('A' for Active; 'I' for Inactive)
    1  A    between atoms: C_1  and  C_20
    2  A    between atoms: C_20  and  C_24
                            x       y       z     vdW  Elec       q    Type
                         _______ _______ _______ _____ _____    ______ ____

>  <TORSDO>
F 2

$$$$
=
 OpenBabel10262421243D

 32 37  0  0  1  0  0  0  0  0999 V2000
  182.4860  177.4510  139.6000 C   0  0  0  0  0  2  0  0  0  0  0  0
  186.8920  178.9470  142.1390 C   0  0  2  0  0  3  0  0  0  0  0  0
  185.1840  177.9320  146.6630 C   0  0  0  0  0  3  0  0  0  0  0  0
  186.4800  177.9840  147.1710 C   0  0  0  0  0  3  0  0  0  0  0  0
  188.8360  177.2290  142.0830 C   0  0  0  0  0  0  0  0  0  0  0  0
  189.7430  176.7040  143.0650 C   0  0  0  0  0  0  0  0  0  0  0  0
  185.2820  179.0980  140.2870 N   0  0  2  0  0  0  0  0  0  0  0  0
  184.4120  178.6740  142.5300 C   0  0  0  0  0  2  0  0  0  0  0  0
  191.3320  176.1720  145.2660 C   0  0  0  0  0  0  0  0  0  0  0  0
  182.8760  178.5450  140.5830 C   0  0  0  0  0  2  0  0  0  0  0  0
  184.9640  178.0890  145.2940 C   0  0  0  0  0  3  0  0  0  0  0  0
  185.7890  178.5000  143.0010 N   0  0  0  0  0  0  0  0  0  0  0  0
  186.0370  178.2930  144.4100 C   0  0  0  0  0  0  0  0  0  0  0  0
  188.5500  178.5330  144.0180 C   0  0  2  0  0  3  0  0  0  0  0  0
  191.4590  175.3920  144.1000 C   0  0  0  0  0  3  0  0  0  0  0  0
  184.6620  177.6010  138.3460 C   0  0  0  0  0  2  0  0  0  0  0  0
  184.3040  178.3090  141.0560 C   0  0  1  0  0  3  0  0  0  0  0  0
  190.6590  175.6580  142.9760 C   0  0  0  0  0  3  0  0  0  0  0  0
  185.1730  178.9620  138.8250 C   0  0  0  0  0  2  0  0  0  0  0  0
  183.1380  177.6420  138.2290 C   0  0  1  0  0  3  0  0  0  0  0  0
  187.5600  178.1770  146.3070 C   0  0  0  0  0  3  0  0  0  0  0  0
  187.3590  178.3080  144.9250 C   0  0  0  0  0  0  0  0  0  0  0  0
  190.4020  177.2230  145.3220 C   0  0  0  0  0  3  0  0  0  0  0  0
  186.6150  178.6390  140.6640 C   0  0  0  0  0  2  0  0  0  0  0  0
  188.6680  176.7590  140.9260 O   0  0  0  0  0  0  0  0  0  0  0  0
  192.3440  175.8320  146.6530 Cl  0  0  0  0  0  0  0  0  0  0  0  0
  188.1510  178.3710  142.6120 N   0  0  0  0  0  0  0  0  0  0  0  0
  189.6020  177.4650  144.2020 C   0  0  0  0  0  0  0  0  0  0  0  0
  183.5710  176.4040  136.2200 O   0  0  0  0  0  1  0  0  0  0  0  0
  182.6510  176.5660  137.2590 C   0  0  1  0  0  3  0  0  0  0  0  0
  182.4750  175.2360  137.9790 C   0  0  0  0  0  2  0  0  0  0  0  0
  183.3210  174.1650  137.3170 C   0  0  0  0  0  1  0  0  0  0  0  0
  1 10  1  0  0  0  0
  2 24  1  6  0  0  0
  2 27  1  0  0  0  0
  2 12  1  0  0  0  0
  3  4  1  0  0  0  0
  5 27  1  0  0  0  0
  5  6  1  0  0  0  0
  6 28  1  0  0  0  0
  7 19  1  6  0  0  0
  7 24  1  0  0  0  0
  7 17  1  0  0  0  0
  8 12  1  0  0  0  0
  9 23  1  0  0  0  0
  9 26  1  0  0  0  0
 11  3  2  0  0  0  0
 12 13  1  0  0  0  0
 13 22  2  0  0  0  0
 13 11  1  0  0  0  0
 14 28  1  1  0  0  0
 14 22  1  0  0  0  0
 15  9  2  0  0  0  0
 16 19  1  0  0  0  0
 17 10  1  6  0  0  0
 17  8  1  0  0  0  0
 18  6  2  0  0  0  0
 18 15  1  0  0  0  0
 20 30  1  6  0  0  0
 20 16  1  0  0  0  0
 20  1  1  0  0  0  0
 21  4  2  0  0  0  0
 22 21  1  0  0  0  0
 25  5  2  0  0  0  0
 27 14  1  0  0  0  0
 28 23  2  0  0  0  0
 30 29  1  6  0  0  0
 30 31  1  0  0  0  0
 32 31  1  0  0  0  0
M  END
>  <MODEL>
3

>  <REMARK>
 VINA RESULT:      -8.1      1.834      2.281
  Name = 
  2 active torsions:
  status: ('A' for Active; 'I' for Inactive)
    1  A    between atoms: C_1  and  C_20
    2  A    between atoms: C_20  and  C_24
                            x       y       z     vdW  Elec       q    Type
                         _______ _______ _______ _____ _____    ______ ____

>  <TORSDO>
F 2

$$$$
=
 OpenBabel10262421243D

 32 37  0  0  1  0  0  0  0  0999 V2000
  182.9610  178.2100  141.9340 C   0  0  0  0  0  2  0  0  0  0  0  0
  187.6470  178.6280  139.4920 C   0  0  2  0  0  3  0  0  0  0  0  0
  190.3320  177.2790  143.4150 C   0  0  0  0  0  3  0  0  0  0  0  0
  191.4330  177.0550  142.5920 C   0  0  0  0  0  3  0  0  0  0  0  0
  188.2570  176.6490  137.9280 C   0  0  0  0  0  0  0  0  0  0  0  0
  189.4370  175.8570  137.7220 C   0  0  0  0  0  0  0  0  0  0  0  0
  185.3050  179.2850  139.8480 N   0  0  2  0  0  0  0  0  0  0  0  0
  186.6400  178.6980  141.8070 C   0  0  0  0  0  2  0  0  0  0  0  0
  191.9830  174.7810  137.5930 C   0  0  0  0  0  0  0  0  0  0  0  0
  184.2010  179.0830  142.0660 C   0  0  0  0  0  2  0  0  0  0  0  0
  189.1090  177.6570  142.8570 C   0  0  0  0  0  3  0  0  0  0  0  0
  187.7070  178.2460  140.9090 N   0  0  0  0  0  0  0  0  0  0  0  0
  188.9670  177.8090  141.4680 C   0  0  0  0  0  0  0  0  0  0  0  0
  189.9840  177.7020  139.1270 C   0  0  2  0  0  3  0  0  0  0  0  0
  190.9200  174.1610  136.9090 C   0  0  0  0  0  3  0  0  0  0  0  0
  183.0680  178.1870  139.4200 C   0  0  0  0  0  2  0  0  0  0  0  0
  185.2830  178.5610  141.1310 C   0  0  1  0  0  3  0  0  0  0  0  0
  189.6250  174.7020  136.9650 C   0  0  0  0  0  3  0  0  0  0  0  0
  184.0030  179.3710  139.1650 C   0  0  0  0  0  2  0  0  0  0  0  0
  182.1930  178.4840  140.6390 C   0  0  1  0  0  3  0  0  0  0  0  0
  191.3090  177.1930  141.2080 C   0  0  0  0  0  3  0  0  0  0  0  0
  190.0810  177.5440  140.6290 C   0  0  0  0  0  0  0  0  0  0  0  0
  191.7610  175.9480  138.3440 C   0  0  0  0  0  3  0  0  0  0  0  0
  186.2130  178.5740  138.9540 C   0  0  0  0  0  2  0  0  0  0  0  0
  187.1120  176.3750  137.4790 O   0  0  0  0  0  0  0  0  0  0  0  0
  193.5920  174.0980  137.5050 Cl  0  0  0  0  0  0  0  0  0  0  0  0
  188.5740  177.8000  138.7200 N   0  0  0  0  0  0  0  0  0  0  0  0
  190.4650  176.4660  138.4040 C   0  0  0  0  0  0  0  0  0  0  0  0
  179.8000  178.4730  140.4650 O   0  0  0  0  0  1  0  0  0  0  0  0
  180.9180  177.6430  140.5950 C   0  0  1  0  0  3  0  0  0  0  0  0
  180.9550  176.6750  139.4210 C   0  0  0  0  0  2  0  0  0  0  0  0
  180.4320  175.3160  139.8440 C   0  0  0  0  0  1  0  0  0  0  0  0
  1 10  1  0  0  0  0
  2 24  1  6  0  0  0
  2 12  1  0  0  0  0
  4  3  2  0  0  0  0
  5 27  1  0  0  0  0
  6  5  1  0  0  0  0
  6 28  1  0  0  0  0
  7 24  1  6  0  0  0
  7 17  1  0  0  0  0
  9 23  1  0  0  0  0
 11  3  1  0  0  0  0
 12 13  1  0  0  0  0
 12  8  1  0  0  0  0
 13 11  2  0  0  0  0
 14 28  1  6  0  0  0
 14 22  1  0  0  0  0
 15 18  1  0  0  0  0
 15  9  2  0  0  0  0
 16 20  1  0  0  0  0
 17  8  1  1  0  0  0
 17 10  1  0  0  0  0
 18  6  2  0  0  0  0
 19 16  1  0  0  0  0
 19  7  1  0  0  0  0
 20 30  1  6  0  0  0
 20  1  1  0  0  0  0
 21  4  1  0  0  0  0
 22 21  2  0  0  0  0
 22 13  1  0  0  0  0
 23 28  2  0  0  0  0
 25  5  2  0  0  0  0
 26  9  1  0  0  0  0
 27 14  1  0  0  0  0
 27  2  1  0  0  0  0
 30 29  1  6  0  0  0
 31 32  1  0  0  0  0
 31 30  1  0  0  0  0
M  END
>  <MODEL>
4

>  <REMARK>
 VINA RESULT:      -8.1      3.663      5.610
  Name = 
  2 active torsions:
  status: ('A' for Active; 'I' for Inactive)
    1  A    between atoms: C_1  and  C_20
    2  A    between atoms: C_20  and  C_24
                            x       y       z     vdW  Elec       q    Type
                         _______ _______ _______ _____ _____    ______ ____

>  <TORSDO>
F 2

$$$$
=
 OpenBabel10262421243D

 32 37  0  0  1  0  0  0  0  0999 V2000
  185.7440  175.6720  135.8140 C   0  0  0  0  0  2  0  0  0  0  0  0
  185.9490  178.8960  140.0160 C   0  0  2  0  0  3  0  0  0  0  0  0
  181.2870  178.0890  141.4440 C   0  0  0  0  0  3  0  0  0  0  0  0
  181.5690  178.6390  142.6930 C   0  0  0  0  0  3  0  0  0  0  0  0
  187.1490  177.9200  142.1000 C   0  0  0  0  0  0  0  0  0  0  0  0
  186.8510  177.8780  143.5040 C   0  0  0  0  0  0  0  0  0  0  0  0
  186.6090  178.2260  137.7450 N   0  0  2  0  0  0  0  0  0  0  0  0
  184.2820  177.8920  138.4070 C   0  0  0  0  0  2  0  0  0  0  0  0
  185.9070  178.2390  146.0800 C   0  0  0  0  0  0  0  0  0  0  0  0
  185.0770  176.9710  136.2420 C   0  0  0  0  0  2  0  0  0  0  0  0
  182.3040  177.9530  140.4970 C   0  0  0  0  0  3  0  0  0  0  0  0
  184.6500  178.2530  139.7790 N   0  0  0  0  0  0  0  0  0  0  0  0
  183.6180  178.3570  140.7870 C   0  0  0  0  0  0  0  0  0  0  0  0
  185.3060  179.3410  142.4330 C   0  0  2  0  0  3  0  0  0  0  0  0
  186.9930  177.3740  145.8420 C   0  0  0  0  0  3  0  0  0  0  0  0
  187.9730  176.3290  136.7800 C   0  0  0  0  0  2  0  0  0  0  0  0
  185.4740  177.2900  137.6780 C   0  0  1  0  0  3  0  0  0  0  0  0
  187.4810  177.1880  144.5380 C   0  0  0  0  0  3  0  0  0  0  0  0
  187.7790  177.8390  136.9400 C   0  0  0  0  0  2  0  0  0  0  0  0
  187.2370  175.8520  135.5270 C   0  0  1  0  0  3  0  0  0  0  0  0
  182.8700  179.0380  143.0020 C   0  0  0  0  0  3  0  0  0  0  0  0
  183.9080  178.8820  142.0730 C   0  0  0  0  0  0  0  0  0  0  0  0
  185.2960  178.9240  145.0160 C   0  0  0  0  0  3  0  0  0  0  0  0
  187.0470  178.2910  139.1360 C   0  0  0  0  0  2  0  0  0  0  0  0
  188.0490  177.2490  141.5290 O   0  0  0  0  0  0  0  0  0  0  0  0
  185.3180  178.4660  147.7120 Cl  0  0  0  0  0  0  0  0  0  0  0  0
  186.2710  178.8420  141.4420 N   0  0  0  0  0  0  0  0  0  0  0  0
  185.7820  178.7170  143.7230 C   0  0  0  0  0  0  0  0  0  0  0  0
  189.1610  174.4200  135.4600 O   0  0  0  0  0  1  0  0  0  0  0  0
  187.8390  174.5400  135.0240 C   0  0  1  0  0  3  0  0  0  0  0  0
  187.0370  173.3520  135.5380 C   0  0  0  0  0  2  0  0  0  0  0  0
  187.8330  172.5940  136.5840 C   0  0  0  0  0  1  0  0  0  0  0  0
  1 10  1  0  0  0  0
  2 24  1  6  0  0  0
  2 27  1  0  0  0  0
  3  4  1  0  0  0  0
  4 21  2  0  0  0  0
  5  6  1  0  0  0  0
  6 28  2  0  0  0  0
  6 18  1  0  0  0  0
  7 19  1  6  0  0  0
  7 24  1  0  0  0  0
  8 12  1  0  0  0  0
  9 26  1  0  0  0  0
 11 13  1  0  0  0  0
 11  3  2  0  0  0  0
 12  2  1  0  0  0  0
 12 13  1  0  0  0  0
 13 22  2  0  0  0  0
 14 22  1  6  0  0  0
 14 28  1  0  0  0  0
 15  9  1  0  0  0  0
 16 19  1  0  0  0  0
 17 10  1  6  0  0  0
 17  7  1  0  0  0  0
 17  8  1  0  0  0  0
 18 15  2  0  0  0  0
 20 30  1  1  0  0  0
 20  1  1  0  0  0  0
 20 16  1  0  0  0  0
 22 21  1  0  0  0  0
 23  9  2  0  0  0  0
 25  5  2  0  0  0  0
 27  5  1  0  0  0  0
 27 14  1  0  0  0  0
 28 23  1  0  0  0  0
 30 29  1  1  0  0  0
 30 31  1  0  0  0  0
 31 32  1  0  0  0  0
M  END
>  <MODEL>
5

>  <REMARK>
 VINA RESULT:      -7.9      2.695      4.094
  Name = 
  2 active torsions:
  status: ('A' for Active; 'I' for Inactive)
    1  A    between atoms: C_1  and  C_20
    2  A    between atoms: C_20  and  C_24
                            x       y       z     vdW  Elec       q    Type
                         _______ _______ _______ _____ _____    ______ ____

>  <TORSDO>
F 2

$$$$
=
 OpenBabel10262421243D

 32 37  0  0  1  0  0  0  0  0999 V2000
  187.4170  175.3960  135.3440 C   0  0  0  0  0  2  0  0  0  0  0  0
  186.7830  178.6570  139.4740 C   0  0  2  0  0  3  0  0  0  0  0  0
  181.9930  177.6390  140.1330 C   0  0  0  0  0  3  0  0  0  0  0  0
  182.0400  178.2110  141.4030 C   0  0  0  0  0  3  0  0  0  0  0  0
  187.6690  177.7540  141.7400 C   0  0  0  0  0  0  0  0  0  0  0  0
  187.1470  177.7080  143.0770 C   0  0  0  0  0  0  0  0  0  0  0  0
  187.8360  178.0030  137.3510 N   0  0  2  0  0  0  0  0  0  0  0  0
  185.4500  177.5630  137.6290 C   0  0  0  0  0  2  0  0  0  0  0  0
  185.7800  178.0430  145.4580 C   0  0  0  0  0  0  0  0  0  0  0  0
  186.6300  176.6650  135.6370 C   0  0  0  0  0  2  0  0  0  0  0  0
  183.1560  177.5450  139.3670 C   0  0  0  0  0  3  0  0  0  0  0  0
  185.5710  177.9510  139.0380 N   0  0  0  0  0  0  0  0  0  0  0  0
  184.3850  178.0140  139.8620 C   0  0  0  0  0  0  0  0  0  0  0  0
  185.7330  179.0880  141.7460 C   0  0  2  0  0  3  0  0  0  0  0  0
  186.9280  177.2290  145.4130 C   0  0  0  0  0  3  0  0  0  0  0  0
  189.4250  176.1660  136.6490 C   0  0  0  0  0  2  0  0  0  0  0  0
  186.7720  177.0130  137.1130 C   0  0  1  0  0  3  0  0  0  0  0  0
  187.6310  177.0570  144.2090 C   0  0  0  0  0  3  0  0  0  0  0  0
  189.1390  177.6660  136.7530 C   0  0  0  0  0  2  0  0  0  0  0  0
  188.9260  175.6450  135.3010 C   0  0  1  0  0  3  0  0  0  0  0  0
  183.2540  178.6750  141.9150 C   0  0  0  0  0  3  0  0  0  0  0  0
  184.4370  178.5610  141.1700 C   0  0  0  0  0  0  0  0  0  0  0  0
  185.3200  178.6900  144.2990 C   0  0  0  0  0  3  0  0  0  0  0  0
  188.0370  178.0990  138.7930 C   0  0  0  0  0  2  0  0  0  0  0  0
  188.6800  177.1220  141.3330 O   0  0  0  0  0  0  0  0  0  0  0  0
  184.9210  178.2540  146.9690 Cl  0  0  0  0  0  0  0  0  0  0  0  0
  186.8700  178.6290  140.9340 N   0  0  0  0  0  0  0  0  0  0  0  0
  186.0210  178.4970  143.1050 C   0  0  0  0  0  0  0  0  0  0  0  0
  191.0400  174.5300  135.0810 O   0  0  0  0  0  1  0  0  0  0  0  0
  189.6610  174.3600  134.9230 C   0  0  1  0  0  3  0  0  0  0  0  0
  189.2010  173.2020  135.7980 C   0  0  0  0  0  2  0  0  0  0  0  0
  189.0190  171.9510  134.9610 C   0  0  0  0  0  1  0  0  0  0  0  0
  1 10  1  0  0  0  0
  2 24  1  6  0  0  0
  2 27  1  0  0  0  0
  3  4  1  0  0  0  0
  4 21  2  0  0  0  0
  5  6  1  0  0  0  0
  6 28  2  0  0  0  0
  6 18  1  0  0  0  0
  7 19  1  6  0  0  0
  7 24  1  0  0  0  0
  8 12  1  0  0  0  0
  9 26  1  0  0  0  0
 11 13  1  0  0  0  0
 11  3  2  0  0  0  0
 12  2  1  0  0  0  0
 12 13  1  0  0  0  0
 13 22  2  0  0  0  0
 14 22  1  6  0  0  0
 14 28  1  0  0  0  0
 15  9  1  0  0  0  0
 16 19  1  0  0  0  0
 17 10  1  6  0  0  0
 17  7  1  0  0  0  0
 17  8  1  0  0  0  0
 18 15  2  0  0  0  0
 20 30  1  1  0  0  0
 20  1  1  0  0  0  0
 20 16  1  0  0  0  0
 22 21  1  0  0  0  0
 23  9  2  0  0  0  0
 25  5  2  0  0  0  0
 27  5  1  0  0  0  0
 27 14  1  0  0  0  0
 28 23  1  0  0  0  0
 30 29  1  1  0  0  0
 30 31  1  0  0  0  0
 32 31  1  0  0  0  0
M  END
>  <MODEL>
6

>  <REMARK>
 VINA RESULT:      -7.9      2.708      4.371
  Name = 
  2 active torsions:
  status: ('A' for Active; 'I' for Inactive)
    1  A    between atoms: C_1  and  C_20
    2  A    between atoms: C_20  and  C_24
                            x       y       z     vdW  Elec       q    Type
                         _______ _______ _______ _____ _____    ______ ____

>  <TORSDO>
F 2

$$$$
=
 OpenBabel10262421243D

 32 37  0  0  1  0  0  0  0  0999 V2000
  189.1970  175.4720  137.1300 C   0  0  0  0  0  2  0  0  0  0  0  0
  185.1580  178.5400  138.6700 C   0  0  2  0  0  3  0  0  0  0  0  0
  181.6830  175.0870  138.0190 C   0  0  0  0  0  3  0  0  0  0  0  0
  180.7890  175.8340  138.7840 C   0  0  0  0  0  3  0  0  0  0  0  0
  184.9110  178.8340  141.2360 C   0  0  0  0  0  0  0  0  0  0  0  0
  183.8070  178.7800  142.1530 C   0  0  0  0  0  0  0  0  0  0  0  0
  187.3630  178.1880  137.6420 N   0  0  2  0  0  0  0  0  0  0  0  0
  185.6330  176.5100  137.2440 C   0  0  0  0  0  2  0  0  0  0  0  0
  181.3540  178.7530  143.4330 C   0  0  0  0  0  0  0  0  0  0  0  0
  187.9550  176.0690  136.4830 C   0  0  0  0  0  2  0  0  0  0  0  0
  182.9970  175.5280  137.8530 C   0  0  0  0  0  3  0  0  0  0  0  0
  184.7900  177.1860  138.2350 N   0  0  0  0  0  0  0  0  0  0  0  0
  183.4390  176.7180  138.4550 C   0  0  0  0  0  0  0  0  0  0  0  0
  182.9600  178.7510  139.9270 C   0  0  2  0  0  3  0  0  0  0  0  0
  182.5430  178.7760  144.1880 C   0  0  0  0  0  3  0  0  0  0  0  0
  189.6430  177.5270  138.5120 C   0  0  0  0  0  2  0  0  0  0  0  0
  187.1050  176.7400  137.5540 C   0  0  1  0  0  3  0  0  0  0  0  0
  183.7930  178.7940  143.5460 C   0  0  0  0  0  3  0  0  0  0  0  0
  188.7820  178.5570  137.7760 C   0  0  0  0  0  2  0  0  0  0  0  0
  190.2280  176.5390  137.5020 C   0  0  1  0  0  3  0  0  0  0  0  0
  181.2130  177.0150  139.3960 C   0  0  0  0  0  3  0  0  0  0  0  0
  182.5370  177.4570  139.2630 C   0  0  0  0  0  0  0  0  0  0  0  0
  181.4030  178.7440  142.0290 C   0  0  0  0  0  3  0  0  0  0  0  0
  186.6740  178.6890  138.8270 C   0  0  0  0  0  2  0  0  0  0  0  0
  186.1270  178.8430  141.5650 O   0  0  0  0  0  0  0  0  0  0  0  0
  179.8060  178.7400  144.2490 Cl  0  0  0  0  0  0  0  0  0  0  0  0
  184.4250  178.8810  139.8890 N   0  0  0  0  0  0  0  0  0  0  0  0
  182.6530  178.7460  141.4050 C   0  0  0  0  0  0  0  0  0  0  0  0
  191.3780  174.4890  137.9870 O   0  0  0  0  0  1  0  0  0  0  0  0
  191.4850  175.8810  138.0710 C   0  0  1  0  0  3  0  0  0  0  0  0
  192.7200  176.3310  137.3020 C   0  0  0  0  0  2  0  0  0  0  0  0
  192.8300  175.5710  135.9940 C   0  0  0  0  0  1  0  0  0  0  0  0
  1 20  1  0  0  0  0
  2 24  1  1  0  0  0
  2 27  1  0  0  0  0
  3  4  1  0  0  0  0
  4 21  2  0  0  0  0
  5 25  2  0  0  0  0
  5  6  1  0  0  0  0
  6 18  1  0  0  0  0
  7 19  1  1  0  0  0
  7 24  1  0  0  0  0
  8 17  1  0  0  0  0
  8 12  1  0  0  0  0
  9 15  1  0  0  0  0
  9 26  1  0  0  0  0
 10  1  1  0  0  0  0
 11  3  2  0  0  0  0
 11 13  1  0  0  0  0
 12 13  1  0  0  0  0
 12  2  1  0  0  0  0
 13 22  2  0  0  0  0
 14 22  1  1  0  0  0
 14 28  1  0  0  0  0
 17 10  1  6  0  0  0
 17  7  1  0  0  0  0
 18 15  2  0  0  0  0
 19 16  1  0  0  0  0
 20 30  1  1  0  0  0
 20 16  1  0  0  0  0
 22 21  1  0  0  0  0
 23  9  2  0  0  0  0
 27 14  1  0  0  0  0
 27  5  1  0  0  0  0
 28 23  1  0  0  0  0
 28  6  2  0  0  0  0
 30 29  1  6  0  0  0
 31 30  1  0  0  0  0
 32 31  1  0  0  0  0
M  END
>  <MODEL>
7

>  <REMARK>
 VINA RESULT:      -7.8      4.570      7.002
  Name = 
  2 active torsions:
  status: ('A' for Active; 'I' for Inactive)
    1  A    between atoms: C_1  and  C_20
    2  A    between atoms: C_20  and  C_24
                            x       y       z     vdW  Elec       q    Type
                         _______ _______ _______ _____ _____    ______ ____

>  <TORSDO>
F 2

$$$$
=
 OpenBabel10262421243D

 32 37  0  0  1  0  0  0  0  0999 V2000
  182.4440  181.1000  138.3390 C   0  0  0  0  0  2  0  0  0  0  0  0
  184.2920  177.8210  142.0710 C   0  0  2  0  0  3  0  0  0  0  0  0
  189.0550  178.4420  140.9110 C   0  0  0  0  0  3  0  0  0  0  0  0
  189.4310  177.8830  142.1310 C   0  0  0  0  0  3  0  0  0  0  0  0
  184.3640  178.8080  144.4710 C   0  0  0  0  0  0  0  0  0  0  0  0
  185.3390  178.8190  145.5250 C   0  0  0  0  0  0  0  0  0  0  0  0
  182.5900  178.5490  140.4540 N   0  0  2  0  0  0  0  0  0  0  0  0
  184.9400  178.7900  139.8310 C   0  0  0  0  0  2  0  0  0  0  0  0
  187.4520  178.3850  147.2580 C   0  0  0  0  0  0  0  0  0  0  0  0
  183.1860  179.7720  138.3730 C   0  0  0  0  0  2  0  0  0  0  0  0
  187.7040  178.6280  140.6160 C   0  0  0  0  0  3  0  0  0  0  0  0
  185.3110  178.4220  141.2000 N   0  0  0  0  0  0  0  0  0  0  0  0
  186.7080  178.2660  141.5390 C   0  0  0  0  0  0  0  0  0  0  0  0
  186.0630  177.3180  143.8220 C   0  0  2  0  0  3  0  0  0  0  0  0
  186.4310  179.2910  147.6040 C   0  0  0  0  0  3  0  0  0  0  0  0
  180.9980  180.5080  140.3110 C   0  0  0  0  0  2  0  0  0  0  0  0
  183.5660  179.4460  139.8110 C   0  0  1  0  0  3  0  0  0  0  0  0
  185.3520  179.5150  146.7320 C   0  0  0  0  0  3  0  0  0  0  0  0
  181.1890  178.9900  140.3570 C   0  0  0  0  0  2  0  0  0  0  0  0
  181.0090  180.9770  138.8560 C   0  0  1  0  0  3  0  0  0  0  0  0
  188.4570  177.5250  143.0640 C   0  0  0  0  0  3  0  0  0  0  0  0
  187.0960  177.7320  142.7960 C   0  0  0  0  0  0  0  0  0  0  0  0
  187.4070  177.6950  146.0350 C   0  0  0  0  0  3  0  0  0  0  0  0
  182.9220  178.4790  141.8730 C   0  0  0  0  0  2  0  0  0  0  0  0
  183.3250  179.5200  144.4360 O   0  0  0  0  0  0  0  0  0  0  0  0
  188.7830  178.1130  148.3610 Cl  0  0  0  0  0  0  0  0  0  0  0  0
  184.7460  177.8650  143.4620 N   0  0  0  0  0  0  0  0  0  0  0  0
  186.3360  177.9390  145.1710 C   0  0  0  0  0  0  0  0  0  0  0  0
  181.0560  183.2070  137.9710 O   0  0  0  0  0  1  0  0  0  0  0  0
  180.2860  182.3170  138.7250 C   0  0  1  0  0  3  0  0  0  0  0  0
  178.9350  182.1320  138.0460 C   0  0  0  0  0  2  0  0  0  0  0  0
  179.1190  181.9550  136.5500 C   0  0  0  0  0  1  0  0  0  0  0  0
  1 10  1  0  0  0  0
  1 20  1  0  0  0  0
  2 24  1  1  0  0  0
  2 27  1  0  0  0  0
  3  4  1  0  0  0  0
  4 21  2  0  0  0  0
  5  6  1  0  0  0  0
  6 18  1  0  0  0  0
  7 19  1  1  0  0  0
  7 24  1  0  0  0  0
  8 12  1  0  0  0  0
  9 15  1  0  0  0  0
  9 26  1  0  0  0  0
 11  3  2  0  0  0  0
 11 13  1  0  0  0  0
 12 13  1  0  0  0  0
 12  2  1  0  0  0  0
 13 22  2  0  0  0  0
 14 22  1  6  0  0  0
 14 28  1  0  0  0  0
 16 19  1  0  0  0  0
 17 10  1  6  0  0  0
 17  8  1  0  0  0  0
 17  7  1  0  0  0  0
 18 15  2  0  0  0  0
 20 30  1  1  0  0  0
 20 16  1  0  0  0  0
 22 21  1  0  0  0  0
 23  9  2  0  0  0  0
 25  5  2  0  0  0  0
 27 14  1  0  0  0  0
 27  5  1  0  0  0  0
 28  6  2  0  0  0  0
 28 23  1  0  0  0  0
 30 29  1  6  0  0  0
 31 30  1  0  0  0  0
 32 31  1  0  0  0  0
M  END
>  <MODEL>
8

>  <REMARK>
 VINA RESULT:      -7.6      4.085      6.102
  Name = 
  2 active torsions:
  status: ('A' for Active; 'I' for Inactive)
    1  A    between atoms: C_1  and  C_20
    2  A    between atoms: C_20  and  C_24
                            x       y       z     vdW  Elec       q    Type
                         _______ _______ _______ _____ _____    ______ ____

>  <TORSDO>
F 2

$$$$
=
 OpenBabel10262421243D

 32 37  0  0  1  0  0  0  0  0999 V2000
  191.6330  175.8880  143.9200 C   0  0  0  0  0  2  0  0  0  0  0  0
  188.2000  178.8180  141.1400 C   0  0  2  0  0  3  0  0  0  0  0  0
  188.4150  176.0340  137.0630 C   0  0  0  0  0  3  0  0  0  0  0  0
  187.2510  176.6340  136.5850 C   0  0  0  0  0  3  0  0  0  0  0  0
  185.6990  178.4340  141.7190 C   0  0  0  0  0  0  0  0  0  0  0  0
  184.5050  178.2460  140.9430 C   0  0  0  0  0  0  0  0  0  0  0  0
  189.9510  178.5360  142.8420 N   0  0  2  0  0  0  0  0  0  0  0  0
  190.1170  177.2090  140.7980 C   0  0  0  0  0  2  0  0  0  0  0  0
  182.5250  178.1230  139.0150 C   0  0  0  0  0  0  0  0  0  0  0  0
  191.6810  176.7590  142.6730 C   0  0  0  0  0  2  0  0  0  0  0  0
  188.9040  176.3700  138.3270 C   0  0  0  0  0  3  0  0  0  0  0  0
  188.7780  177.6750  140.4220 N   0  0  0  0  0  0  0  0  0  0  0  0
  188.2340  177.3030  139.1340 C   0  0  0  0  0  0  0  0  0  0  0  0
  186.2730  178.9020  139.4870 C   0  0  2  0  0  3  0  0  0  0  0  0
  182.2220  177.8220  140.3570 C   0  0  0  0  0  3  0  0  0  0  0  0
  190.0550  177.4400  145.1180 C   0  0  0  0  0  2  0  0  0  0  0  0
  190.2690  177.1990  142.3130 C   0  0  1  0  0  3  0  0  0  0  0  0
  183.2200  177.8870  141.3440 C   0  0  0  0  0  3  0  0  0  0  0  0
  190.2160  178.7100  144.2800 C   0  0  0  0  0  2  0  0  0  0  0  0
  191.3950  176.7070  145.1910 C   0  0  1  0  0  3  0  0  0  0  0  0
  186.5670  177.5580  137.3770 C   0  0  0  0  0  3  0  0  0  0  0  0
  187.0290  177.8840  138.6600 C   0  0  0  0  0  0  0  0  0  0  0  0
  183.8310  178.4870  138.6450 C   0  0  0  0  0  3  0  0  0  0  0  0
  188.5250  178.7660  142.6370 C   0  0  0  0  0  2  0  0  0  0  0  0
  185.7990  178.2320  142.9580 O   0  0  0  0  0  0  0  0  0  0  0  0
  181.2680  178.0460  137.8000 Cl  0  0  0  0  0  0  0  0  0  0  0  0
  186.7630  178.8900  140.8740 N   0  0  0  0  0  0  0  0  0  0  0  0
  184.8170  178.5310  139.6340 C   0  0  0  0  0  0  0  0  0  0  0  0
  192.4590  174.8530  146.2830 O   0  0  0  0  0  1  0  0  0  0  0  0
  191.4370  175.7970  146.4180 C   0  0  1  0  0  3  0  0  0  0  0  0
  191.6790  176.6120  147.6810 C   0  0  0  0  0  2  0  0  0  0  0  0
  192.8060  176.0020  148.4930 C   0  0  0  0  0  1  0  0  0  0  0  0
  1 20  1  0  0  0  0
  2 24  1  1  0  0  0
  3 11  1  0  0  0  0
  4  3  2  0  0  0  0
  4 21  1  0  0  0  0
  5 25  2  0  0  0  0
  6 18  1  0  0  0  0
  6  5  1  0  0  0  0
  7 24  1  1  0  0  0
  7 19  1  0  0  0  0
  9 15  1  0  0  0  0
 10  1  1  0  0  0  0
 11 13  2  0  0  0  0
 12  8  1  0  0  0  0
 12  2  1  0  0  0  0
 13 12  1  0  0  0  0
 14 22  1  6  0  0  0
 14 28  1  0  0  0  0
 14 27  1  0  0  0  0
 15 18  2  0  0  0  0
 16 20  1  0  0  0  0
 17  8  1  6  0  0  0
 17 10  1  0  0  0  0
 17  7  1  0  0  0  0
 19 16  1  0  0  0  0
 20 30  1  1  0  0  0
 21 22  2  0  0  0  0
 22 13  1  0  0  0  0
 23  9  2  0  0  0  0
 23 28  1  0  0  0  0
 26  9  1  0  0  0  0
 27  2  1  0  0  0  0
 27  5  1  0  0  0  0
 28  6  2  0  0  0  0
 30 29  1  6  0  0  0
 30 31  1  0  0  0  0
 31 32  1  0  0  0  0
M  END
>  <MODEL>
9

>  <REMARK>
 VINA RESULT:      -7.5      3.566      8.487
  Name = 
  2 active torsions:
  status: ('A' for Active; 'I' for Inactive)
    1  A    between atoms: C_1  and  C_20
    2  A    between atoms: C_20  and  C_24
                            x       y       z     vdW  Elec       q    Type
                         _______ _______ _______ _____ _____    ______ ____

>  <TORSDO>
F 2

$$$$
