=
 OpenBabel10262420123D

 27 32  0  0  1  0  0  0  0  0999 V2000
  187.6740  177.7180  143.9020 C   0  0  2  0  0  3  0  0  0  0  0  0
  187.4660  177.4470  142.4080 C   0  0  1  0  0  3  0  0  0  0  0  0
  189.6860  176.7170  143.0190 C   0  0  2  0  0  0  0  0  0  0  0  0
  188.7450  178.5810  138.6810 N   0  0  0  0  0  0  0  0  0  0  0  0
  189.7980  176.9350  137.2290 C   0  0  0  0  0  1  0  0  0  0  0  0
  186.7960  178.5770  141.6560 C   0  0  0  0  0  3  0  0  0  0  0  0
  190.7270  177.1360  139.8080 S   0  0  0  0  0  0  0  0  0  0  0  0
  191.2550  177.9540  145.1020 C   0  0  2  0  0  3  0  0  0  0  0  0
  190.3470  175.3670  142.9010 C   0  0  0  0  0  2  0  0  0  0  0  0
  191.5070  179.1680  144.4620 O   0  0  0  0  0  1  0  0  0  0  0  0
  189.1730  177.4170  140.6260 C   0  0  2  0  0  3  0  0  0  0  0  0
  190.0200  177.9630  138.3210 C   0  0  2  0  0  3  0  0  0  0  0  0
  188.3010  178.2550  139.8430 C   0  0  0  0  0  0  0  0  0  0  0  0
  188.9510  176.9660  144.3300 C   0  0  1  0  0  3  0  0  0  0  0  0
  188.8270  177.1190  141.8840 C   0  0  2  0  0  3  0  0  0  0  0  0
  191.8530  176.7940  144.3050 C   0  0  0  0  0  2  0  0  0  0  0  0
  187.1690  178.8950  140.4470 N   0  0  0  0  0  0  0  0  0  0  0  0
  189.2480  178.2620  146.2870 O   0  0  0  0  0  0  0  0  0  0  0  0
  189.7770  177.7730  145.3020 C   0  0  0  0  0  0  0  0  0  0  0  0
  191.2040  176.6380  142.9300 C   0  0  2  0  0  3  0  0  0  0  0  0
  186.4540  177.3270  144.7430 C   0  0  0  0  0  2  0  0  0  0  0  0
  182.8520  179.3820  143.6230 C   0  0  0  0  0  3  0  0  0  0  0  0
  185.2050  178.0520  144.3480 C   0  0  0  0  0  0  0  0  0  0  0  0
  184.7040  177.9320  143.0470 C   0  0  0  0  0  3  0  0  0  0  0  0
  183.5280  178.5960  142.6850 C   0  0  0  0  0  3  0  0  0  0  0  0
  183.3510  179.5030  144.9230 C   0  0  0  0  0  3  0  0  0  0  0  0
  184.5260  178.8390  145.2860 C   0  0  0  0  0  3  0  0  0  0  0  0
  1 14  1  0  0  0  0
  1 21  1  1  0  0  0
  2  6  1  6  0  0  0
  2  1  1  0  0  0  0
  3  9  1  6  0  0  0
  3 14  1  0  0  0  0
  4 13  2  0  0  0  0
  8 10  1  6  0  0  0
  8 19  1  0  0  0  0
  9 20  1  0  0  0  0
 11  7  1  1  0  0  0
 11 15  1  0  0  0  0
 12  5  1  6  0  0  0
 12  4  1  0  0  0  0
 12  7  1  0  0  0  0
 13 17  1  0  0  0  0
 13 11  1  0  0  0  0
 14 19  1  1  0  0  0
 15  2  1  0  0  0  0
 15  3  1  0  0  0  0
 16  8  1  0  0  0  0
 17  6  2  0  0  0  0
 19 18  2  0  0  0  0
 20  3  1  0  0  0  0
 20 16  1  0  0  0  0
 22 26  1  0  0  0  0
 23 21  1  0  0  0  0
 23 27  1  0  0  0  0
 24 23  2  0  0  0  0
 25 24  1  0  0  0  0
 25 22  2  0  0  0  0
 26 27  2  0  0  0  0
M  END
>  <MODEL>
1

>  <REMARK>
 VINA RESULT:      -9.6      0.000      0.000
  Name = 
  2 active torsions:
  status: ('A' for Active; 'I' for Inactive)
    1  A    between atoms: C_1  and  C_15
    2  A    between atoms: C_9  and  C_15
                            x       y       z     vdW  Elec       q    Type
                         _______ _______ _______ _____ _____    ______ ____

>  <TORSDO>
F 2

$$$$
=
 OpenBabel10262420123D

 27 32  0  0  1  0  0  0  0  0999 V2000
  187.7740  177.6530  143.7720 C   0  0  2  0  0  3  0  0  0  0  0  0
  187.3550  177.3720  142.3250 C   0  0  1  0  0  3  0  0  0  0  0  0
  189.7360  177.0170  142.5170 C   0  0  2  0  0  0  0  0  0  0  0  0
  187.7610  178.7590  138.4880 N   0  0  0  0  0  0  0  0  0  0  0  0
  188.7970  177.3350  136.8070 C   0  0  0  0  0  1  0  0  0  0  0  0
  186.3890  178.3840  141.7480 C   0  0  0  0  0  3  0  0  0  0  0  0
  190.1170  177.6510  139.1980 S   0  0  0  0  0  0  0  0  0  0  0  0
  191.4230  178.4690  144.3550 C   0  0  2  0  0  3  0  0  0  0  0  0
  190.5780  175.7990  142.2300 C   0  0  0  0  0  2  0  0  0  0  0  0
  191.3580  179.7180  143.7360 O   0  0  0  0  0  1  0  0  0  0  0  0
  188.7050  177.6550  140.2790 C   0  0  2  0  0  3  0  0  0  0  0  0
  189.0360  178.3690  137.8890 C   0  0  2  0  0  3  0  0  0  0  0  0
  187.5860  178.3460  139.6930 C   0  0  0  0  0  0  0  0  0  0  0  0
  189.2110  177.1190  143.9440 C   0  0  1  0  0  3  0  0  0  0  0  0
  188.6380  177.2850  141.5630 C   0  0  2  0  0  3  0  0  0  0  0  0
  192.0520  177.4370  143.4180 C   0  0  0  0  0  2  0  0  0  0  0  0
  186.4880  178.7780  140.5080 N   0  0  0  0  0  0  0  0  0  0  0  0
  189.6300  178.4180  145.8770 O   0  0  0  0  0  0  0  0  0  0  0  0
  190.0510  178.0400  144.7950 C   0  0  0  0  0  0  0  0  0  0  0  0
  191.2070  177.1950  142.1690 C   0  0  2  0  0  3  0  0  0  0  0  0
  186.8000  177.0500  144.7900 C   0  0  0  0  0  2  0  0  0  0  0  0
  186.7910  179.1470  148.5390 C   0  0  0  0  0  3  0  0  0  0  0  0
  186.7880  177.7740  146.1000 C   0  0  0  0  0  0  0  0  0  0  0  0
  187.5230  177.2790  147.1830 C   0  0  0  0  0  3  0  0  0  0  0  0
  187.5250  177.9650  148.4020 C   0  0  0  0  0  3  0  0  0  0  0  0
  186.0560  179.6430  147.4580 C   0  0  0  0  0  3  0  0  0  0  0  0
  186.0540  178.9580  146.2400 C   0  0  0  0  0  3  0  0  0  0  0  0
  1 14  1  0  0  0  0
  1 21  1  1  0  0  0
  2  6  1  6  0  0  0
  2  1  1  0  0  0  0
  3  9  1  6  0  0  0
  3 14  1  0  0  0  0
  4 13  2  0  0  0  0
  8 10  1  6  0  0  0
  8 19  1  0  0  0  0
 11  7  1  1  0  0  0
 11 15  1  0  0  0  0
 12  5  1  6  0  0  0
 12  4  1  0  0  0  0
 12  7  1  0  0  0  0
 13 11  1  0  0  0  0
 13 17  1  0  0  0  0
 14 19  1  1  0  0  0
 15  2  1  0  0  0  0
 15  3  1  0  0  0  0
 16  8  1  0  0  0  0
 17  6  2  0  0  0  0
 19 18  2  0  0  0  0
 20  9  1  0  0  0  0
 20  3  1  0  0  0  0
 20 16  1  0  0  0  0
 21 23  1  0  0  0  0
 23 27  2  0  0  0  0
 23 24  1  0  0  0  0
 24 25  2  0  0  0  0
 25 22  1  0  0  0  0
 26 22  2  0  0  0  0
 27 26  1  0  0  0  0
M  END
>  <MODEL>
2

>  <REMARK>
 VINA RESULT:      -9.3      1.532      2.354
  Name = 
  2 active torsions:
  status: ('A' for Active; 'I' for Inactive)
    1  A    between atoms: C_1  and  C_15
    2  A    between atoms: C_9  and  C_15
                            x       y       z     vdW  Elec       q    Type
                         _______ _______ _______ _____ _____    ______ ____

>  <TORSDO>
F 2

$$$$
=
 OpenBabel10262420123D

 27 32  0  0  1  0  0  0  0  0999 V2000
  188.6090  177.9030  141.1440 C   0  0  2  0  0  3  0  0  0  0  0  0
  187.6130  178.5750  142.0960 C   0  0  1  0  0  3  0  0  0  0  0  0
  189.6260  178.0630  143.3290 C   0  0  2  0  0  0  0  0  0  0  0  0
  185.2830  177.8780  145.3960 N   0  0  0  0  0  0  0  0  0  0  0  0
  185.6800  179.1580  147.4290 C   0  0  0  0  0  1  0  0  0  0  0  0
  186.1900  178.0760  141.9630 C   0  0  0  0  0  3  0  0  0  0  0  0
  187.8490  177.9710  146.2270 S   0  0  0  0  0  0  0  0  0  0  0  0
  191.3290  175.8080  142.7360 C   0  0  2  0  0  3  0  0  0  0  0  0
  190.5620  178.9550  144.1030 C   0  0  0  0  0  2  0  0  0  0  0  0
  190.4620  174.7950  143.1470 O   0  0  0  0  0  1  0  0  0  0  0  0
  187.3900  178.2420  144.5300 C   0  0  2  0  0  3  0  0  0  0  0  0
  186.0530  177.9190  146.6380 C   0  0  2  0  0  3  0  0  0  0  0  0
  185.9710  178.0930  144.3310 C   0  0  0  0  0  0  0  0  0  0  0  0
  189.9760  177.8780  141.8570 C   0  0  1  0  0  3  0  0  0  0  0  0
  188.1840  178.3650  143.4610 C   0  0  2  0  0  3  0  0  0  0  0  0
  191.6810  176.7230  143.9100 C   0  0  0  0  0  2  0  0  0  0  0  0
  185.4340  177.9120  143.0140 N   0  0  0  0  0  0  0  0  0  0  0  0
  190.8480  176.1760  140.4630 O   0  0  0  0  0  0  0  0  0  0  0  0
  190.7140  176.5850  141.6050 C   0  0  0  0  0  0  0  0  0  0  0  0
  190.4610  177.4670  144.4530 C   0  0  2  0  0  3  0  0  0  0  0  0
  188.6730  178.5980  139.7790 C   0  0  0  0  0  2  0  0  0  0  0  0
  186.5660  176.4510  136.7110 C   0  0  0  0  0  3  0  0  0  0  0  0
  187.9440  177.8560  138.7020 C   0  0  0  0  0  0  0  0  0  0  0  0
  188.5420  176.7540  138.0790 C   0  0  0  0  0  3  0  0  0  0  0  0
  187.8540  176.0520  137.0850 C   0  0  0  0  0  3  0  0  0  0  0  0
  185.9680  177.5510  137.3330 C   0  0  0  0  0  3  0  0  0  0  0  0
  186.6540  178.2530  138.3270 C   0  0  0  0  0  3  0  0  0  0  0  0
  1 21  1  6  0  0  0
  1 14  1  0  0  0  0
  1  2  1  0  0  0  0
  2  6  1  1  0  0  0
  2 15  1  0  0  0  0
  3 15  1  0  0  0  0
  3  9  1  1  0  0  0
  3 20  1  0  0  0  0
  4 12  1  0  0  0  0
  6 17  2  0  0  0  0
  7 12  1  0  0  0  0
  8 10  1  1  0  0  0
  8 16  1  0  0  0  0
  9 20  1  0  0  0  0
 11 13  1  6  0  0  0
 11  7  1  0  0  0  0
 12  5  1  6  0  0  0
 13  4  2  0  0  0  0
 14 19  1  1  0  0  0
 14  3  1  0  0  0  0
 15 11  1  0  0  0  0
 16 20  1  0  0  0  0
 17 13  1  0  0  0  0
 18 19  2  0  0  0  0
 19  8  1  0  0  0  0
 22 25  2  0  0  0  0
 22 26  1  0  0  0  0
 23 21  1  0  0  0  0
 24 23  2  0  0  0  0
 25 24  1  0  0  0  0
 26 27  2  0  0  0  0
 27 23  1  0  0  0  0
M  END
>  <MODEL>
3

>  <REMARK>
 VINA RESULT:      -8.9      2.717      5.662
  Name = 
  2 active torsions:
  status: ('A' for Active; 'I' for Inactive)
    1  A    between atoms: C_1  and  C_15
    2  A    between atoms: C_9  and  C_15
                            x       y       z     vdW  Elec       q    Type
                         _______ _______ _______ _____ _____    ______ ____

>  <TORSDO>
F 2

$$$$
=
 OpenBabel10262420123D

 27 32  0  0  1  0  0  0  0  0999 V2000
  185.6280  178.3850  139.4380 C   0  0  2  0  0  3  0  0  0  0  0  0
  186.5730  178.6930  140.6050 C   0  0  1  0  0  3  0  0  0  0  0  0
  187.8990  178.0310  138.6980 C   0  0  2  0  0  0  0  0  0  0  0  0
  189.2270  176.9460  143.1960 N   0  0  0  0  0  0  0  0  0  0  0  0
  191.5550  177.6580  143.1790 C   0  0  0  0  0  1  0  0  0  0  0  0
  186.1200  178.1350  141.9370 C   0  0  0  0  0  3  0  0  0  0  0  0
  190.4010  177.0190  140.7670 S   0  0  0  0  0  0  0  0  0  0  0  0
  186.9890  176.1650  136.6920 C   0  0  2  0  0  3  0  0  0  0  0  0
  188.9990  178.7550  137.9630 C   0  0  0  0  0  2  0  0  0  0  0  0
  187.0020  175.0120  137.4780 O   0  0  0  0  0  1  0  0  0  0  0  0
  188.7840  177.6990  141.0610 C   0  0  2  0  0  3  0  0  0  0  0  0
  190.5310  176.7130  142.5800 C   0  0  2  0  0  3  0  0  0  0  0  0
  188.3590  177.4950  142.4220 C   0  0  0  0  0  0  0  0  0  0  0  0
  186.4930  178.2790  138.1650 C   0  0  1  0  0  3  0  0  0  0  0  0
  187.9030  178.1690  140.1710 C   0  0  2  0  0  3  0  0  0  0  0  0
  188.3960  176.7550  136.5820 C   0  0  0  0  0  2  0  0  0  0  0  0
  186.9780  177.6330  142.7830 N   0  0  0  0  0  0  0  0  0  0  0  0
  184.8440  177.0920  136.9540 O   0  0  0  0  0  0  0  0  0  0  0  0
  186.0230  177.1650  137.2610 C   0  0  0  0  0  0  0  0  0  0  0  0
  188.9370  177.2230  137.9320 C   0  0  2  0  0  3  0  0  0  0  0  0
  184.5100  179.4250  139.3010 C   0  0  0  0  0  2  0  0  0  0  0  0
  180.5790  177.7560  139.7710 C   0  0  0  0  0  3  0  0  0  0  0  0
  183.1390  178.8480  139.4760 C   0  0  0  0  0  0  0  0  0  0  0  0
  182.0090  179.6280  139.2080 C   0  0  0  0  0  3  0  0  0  0  0  0
  180.7300  179.0830  139.3550 C   0  0  0  0  0  3  0  0  0  0  0  0
  181.7070  176.9750  140.0380 C   0  0  0  0  0  3  0  0  0  0  0  0
  182.9860  177.5190  139.8900 C   0  0  0  0  0  3  0  0  0  0  0  0
  1 21  1  6  0  0  0
  1  2  1  0  0  0  0
  2  6  1  1  0  0  0
  3  9  1  6  0  0  0
  3 15  1  0  0  0  0
  6 17  2  0  0  0  0
  7 12  1  0  0  0  0
  8 19  1  0  0  0  0
  8 10  1  1  0  0  0
 11  7  1  6  0  0  0
 11 13  1  0  0  0  0
 12  5  1  1  0  0  0
 12  4  1  0  0  0  0
 13 17  1  0  0  0  0
 13  4  2  0  0  0  0
 14 19  1  6  0  0  0
 14  3  1  0  0  0  0
 14  1  1  0  0  0  0
 15  2  1  0  0  0  0
 15 11  1  0  0  0  0
 16  8  1  0  0  0  0
 16 20  1  0  0  0  0
 18 19  2  0  0  0  0
 20  9  1  0  0  0  0
 20  3  1  0  0  0  0
 21 23  1  0  0  0  0
 22 26  1  0  0  0  0
 23 27  1  0  0  0  0
 24 25  1  0  0  0  0
 24 23  2  0  0  0  0
 25 22  2  0  0  0  0
 27 26  2  0  0  0  0
M  END
>  <MODEL>
4

>  <REMARK>
 VINA RESULT:      -8.9      3.642      5.798
  Name = 
  2 active torsions:
  status: ('A' for Active; 'I' for Inactive)
    1  A    between atoms: C_1  and  C_15
    2  A    between atoms: C_9  and  C_15
                            x       y       z     vdW  Elec       q    Type
                         _______ _______ _______ _____ _____    ______ ____

>  <TORSDO>
F 2

$$$$
=
 OpenBabel10262420123D

 27 32  0  0  1  0  0  0  0  0999 V2000
  183.0560  178.5360  142.0140 C   0  0  2  0  0  3  0  0  0  0  0  0
  182.8200  178.2510  140.5270 C   0  0  1  0  0  3  0  0  0  0  0  0
  180.7380  178.9860  141.5060 C   0  0  2  0  0  0  0  0  0  0  0  0
  180.8490  175.7250  137.9670 N   0  0  0  0  0  0  0  0  0  0  0  0
  179.1800  176.6330  136.4450 C   0  0  0  0  0  1  0  0  0  0  0  0
  183.4650  176.9760  140.0260 C   0  0  0  0  0  3  0  0  0  0  0  0
  178.9990  177.3330  139.0970 S   0  0  0  0  0  0  0  0  0  0  0  0
  180.0080  178.4950  144.2550 C   0  0  2  0  0  3  0  0  0  0  0  0
  179.8380  180.1440  141.1550 C   0  0  0  0  0  2  0  0  0  0  0  0
  179.8220  177.1150  144.1650 O   0  0  0  0  0  1  0  0  0  0  0  0
  180.7350  177.4920  139.4470 C   0  0  2  0  0  3  0  0  0  0  0  0
  179.4350  176.0690  137.8290 C   0  0  2  0  0  3  0  0  0  0  0  0
  181.5120  176.4910  138.7600 C   0  0  0  0  0  0  0  0  0  0  0  0
  181.8190  179.2960  142.5350 C   0  0  1  0  0  3  0  0  0  0  0  0
  181.3340  178.2590  140.3650 C   0  0  2  0  0  3  0  0  0  0  0  0
  179.0270  179.2300  143.3410 C   0  0  0  0  0  2  0  0  0  0  0  0
  182.8570  176.2060  139.1670 N   0  0  0  0  0  0  0  0  0  0  0  0
  182.2740  178.7990  144.8030 O   0  0  0  0  0  0  0  0  0  0  0  0
  181.4300  178.8460  143.9230 C   0  0  0  0  0  0  0  0  0  0  0  0
  179.2610  178.9130  141.8640 C   0  0  2  0  0  3  0  0  0  0  0  0
  184.3610  179.3010  142.2620 C   0  0  0  0  0  2  0  0  0  0  0  0
  187.2230  177.1240  144.6130 C   0  0  0  0  0  3  0  0  0  0  0  0
  185.3520  178.5330  143.0790 C   0  0  0  0  0  0  0  0  0  0  0  0
  186.4050  177.8560  142.4530 C   0  0  0  0  0  3  0  0  0  0  0  0
  187.3400  177.1530  143.2200 C   0  0  0  0  0  3  0  0  0  0  0  0
  186.1720  177.8000  145.2390 C   0  0  0  0  0  3  0  0  0  0  0  0
  185.2370  178.5040  144.4750 C   0  0  0  0  0  3  0  0  0  0  0  0
  1 21  1  6  0  0  0
  1 14  1  0  0  0  0
  2  6  1  1  0  0  0
  2  1  1  0  0  0  0
  3  9  1  6  0  0  0
  3 20  1  0  0  0  0
  3 14  1  0  0  0  0
  4 13  2  0  0  0  0
  7 11  1  0  0  0  0
  8 10  1  6  0  0  0
  9 20  1  0  0  0  0
 11 13  1  1  0  0  0
 11 15  1  0  0  0  0
 12  5  1  6  0  0  0
 12  4  1  0  0  0  0
 12  7  1  0  0  0  0
 13 17  1  0  0  0  0
 14 19  1  1  0  0  0
 15  2  1  0  0  0  0
 15  3  1  0  0  0  0
 16  8  1  0  0  0  0
 17  6  2  0  0  0  0
 19  8  1  0  0  0  0
 19 18  2  0  0  0  0
 20 16  1  0  0  0  0
 21 23  1  0  0  0  0
 22 26  1  0  0  0  0
 23 27  1  0  0  0  0
 24 23  2  0  0  0  0
 24 25  1  0  0  0  0
 25 22  2  0  0  0  0
 27 26  2  0  0  0  0
M  END
>  <MODEL>
5

>  <REMARK>
 VINA RESULT:      -8.9      4.794      8.133
  Name = 
  2 active torsions:
  status: ('A' for Active; 'I' for Inactive)
    1  A    between atoms: C_1  and  C_15
    2  A    between atoms: C_9  and  C_15
                            x       y       z     vdW  Elec       q    Type
                         _______ _______ _______ _____ _____    ______ ____

>  <TORSDO>
F 2

$$$$
=
 OpenBabel10262420123D

 27 32  0  0  1  0  0  0  0  0999 V2000
  185.2310  178.7380  141.8230 C   0  0  2  0  0  3  0  0  0  0  0  0
  186.4860  178.8950  140.9580 C   0  0  1  0  0  3  0  0  0  0  0  0
  184.5580  178.8060  139.5050 C   0  0  2  0  0  0  0  0  0  0  0  0
  188.7980  176.9450  138.1900 N   0  0  0  0  0  0  0  0  0  0  0  0
  189.0560  177.9000  135.9650 C   0  0  0  0  0  1  0  0  0  0  0  0
  187.6470  178.0190  141.3790 C   0  0  0  0  0  3  0  0  0  0  0  0
  186.5040  177.6640  136.9610 S   0  0  0  0  0  0  0  0  0  0  0  0
  182.1620  177.3200  140.1230 C   0  0  2  0  0  3  0  0  0  0  0  0
  184.0510  179.7880  138.4800 C   0  0  0  0  0  2  0  0  0  0  0  0
  182.6900  176.0350  139.9950 O   0  0  0  0  0  1  0  0  0  0  0  0
  186.8450  178.0800  138.6570 C   0  0  2  0  0  3  0  0  0  0  0  0
  188.2190  176.9960  136.8490 C   0  0  2  0  0  3  0  0  0  0  0  0
  188.1090  177.5450  139.0940 C   0  0  0  0  0  0  0  0  0  0  0  0
  184.0130  179.0030  140.9150 C   0  0  1  0  0  3  0  0  0  0  0  0
  186.0260  178.6280  139.5610 C   0  0  2  0  0  3  0  0  0  0  0  0
  182.2530  178.0730  138.7950 C   0  0  0  0  0  2  0  0  0  0  0  0
  188.4150  177.4480  140.4920 N   0  0  0  0  0  0  0  0  0  0  0  0
  182.4930  177.9230  142.3720 O   0  0  0  0  0  0  0  0  0  0  0  0
  182.8720  178.0620  141.2200 C   0  0  0  0  0  0  0  0  0  0  0  0
  183.6990  178.3010  138.3550 C   0  0  2  0  0  3  0  0  0  0  0  0
  185.2520  179.6510  143.0540 C   0  0  0  0  0  2  0  0  0  0  0  0
  186.0980  177.5850  146.7240 C   0  0  0  0  0  3  0  0  0  0  0  0
  185.5420  178.9210  144.3290 C   0  0  0  0  0  0  0  0  0  0  0  0
  186.7160  178.1700  144.4570 C   0  0  0  0  0  3  0  0  0  0  0  0
  186.9940  177.5030  145.6540 C   0  0  0  0  0  3  0  0  0  0  0  0
  184.9250  178.3350  146.5980 C   0  0  0  0  0  3  0  0  0  0  0  0
  184.6470  179.0030  145.4020 C   0  0  0  0  0  3  0  0  0  0  0  0
  1 21  1  1  0  0  0
  2  6  1  1  0  0  0
  2  1  1  0  0  0  0
  3  9  1  6  0  0  0
  3 15  1  0  0  0  0
  3 14  1  0  0  0  0
  4 13  2  0  0  0  0
  8 10  1  6  0  0  0
  8 19  1  0  0  0  0
 11  7  1  1  0  0  0
 11 13  1  0  0  0  0
 11 15  1  0  0  0  0
 12  5  1  6  0  0  0
 12  7  1  0  0  0  0
 12  4  1  0  0  0  0
 13 17  1  0  0  0  0
 14 19  1  1  0  0  0
 14  1  1  0  0  0  0
 15  2  1  0  0  0  0
 16  8  1  0  0  0  0
 17  6  2  0  0  0  0
 19 18  2  0  0  0  0
 20  9  1  0  0  0  0
 20 16  1  0  0  0  0
 20  3  1  0  0  0  0
 21 23  1  0  0  0  0
 23 24  2  0  0  0  0
 23 27  1  0  0  0  0
 24 25  1  0  0  0  0
 25 22  2  0  0  0  0
 26 22  1  0  0  0  0
 27 26  2  0  0  0  0
M  END
>  <MODEL>
6

>  <REMARK>
 VINA RESULT:      -8.7      3.412      5.650
  Name = 
  2 active torsions:
  status: ('A' for Active; 'I' for Inactive)
    1  A    between atoms: C_1  and  C_15
    2  A    between atoms: C_9  and  C_15
                            x       y       z     vdW  Elec       q    Type
                         _______ _______ _______ _____ _____    ______ ____

>  <TORSDO>
F 2

$$$$
=
 OpenBabel10262420123D

 27 32  0  0  1  0  0  0  0  0999 V2000
  189.8880  176.9540  146.4680 C   0  0  2  0  0  3  0  0  0  0  0  0
  188.3680  176.9470  146.6620 C   0  0  1  0  0  3  0  0  0  0  0  0
  188.8380  177.1440  144.3020 C   0  0  2  0  0  0  0  0  0  0  0  0
  185.0270  179.2960  146.3060 N   0  0  0  0  0  0  0  0  0  0  0  0
  183.2560  178.6280  144.7740 C   0  0  0  0  0  1  0  0  0  0  0  0
  187.8830  177.8050  147.8120 C   0  0  0  0  0  3  0  0  0  0  0  0
  185.8310  178.6540  143.8100 S   0  0  0  0  0  0  0  0  0  0  0  0
  191.1810  178.4610  143.2460 C   0  0  2  0  0  3  0  0  0  0  0  0
  188.4280  176.2770  143.1390 C   0  0  0  0  0  2  0  0  0  0  0  0
  190.8420  179.7700  143.5920 O   0  0  0  0  0  1  0  0  0  0  0  0
  186.6610  178.0460  145.2610 C   0  0  2  0  0  3  0  0  0  0  0  0
  184.5590  179.3890  144.9240 C   0  0  2  0  0  3  0  0  0  0  0  0
  186.0740  178.5680  146.4690 C   0  0  0  0  0  0  0  0  0  0  0  0
  190.1570  176.7600  144.9610 C   0  0  1  0  0  3  0  0  0  0  0  0
  187.8090  177.3650  145.3410 C   0  0  2  0  0  3  0  0  0  0  0  0
  190.1500  177.8780  142.2780 C   0  0  0  0  0  2  0  0  0  0  0  0
  186.7870  178.5050  147.7120 N   0  0  0  0  0  0  0  0  0  0  0  0
  192.3650  177.6010  145.0870 O   0  0  0  0  0  0  0  0  0  0  0  0
  191.3050  177.6170  144.4830 C   0  0  0  0  0  0  0  0  0  0  0  0
  188.7640  177.7550  142.9100 C   0  0  2  0  0  3  0  0  0  0  0  0
  190.5930  175.8990  147.3290 C   0  0  0  0  0  2  0  0  0  0  0  0
  193.5610  177.5360  149.9690 C   0  0  0  0  0  3  0  0  0  0  0  0
  191.6320  176.4760  148.2400 C   0  0  0  0  0  0  0  0  0  0  0  0
  191.4250  177.7220  148.8420 C   0  0  0  0  0  3  0  0  0  0  0  0
  192.3890  178.2520  149.7060 C   0  0  0  0  0  3  0  0  0  0  0  0
  193.7680  176.2900  149.3690 C   0  0  0  0  0  3  0  0  0  0  0  0
  192.8050  175.7600  148.5060 C   0  0  0  0  0  3  0  0  0  0  0  0
  1  2  1  0  0  0  0
  1 21  1  1  0  0  0
  2  6  1  1  0  0  0
  3  9  1  6  0  0  0
  3 14  1  0  0  0  0
  3 15  1  0  0  0  0
  4 13  2  0  0  0  0
  7 12  1  0  0  0  0
  8 10  1  1  0  0  0
  8 19  1  0  0  0  0
 11  7  1  6  0  0  0
 11 15  1  0  0  0  0
 11 13  1  0  0  0  0
 12  5  1  1  0  0  0
 12  4  1  0  0  0  0
 13 17  1  0  0  0  0
 14 19  1  6  0  0  0
 14  1  1  0  0  0  0
 15  2  1  0  0  0  0
 16 20  1  0  0  0  0
 16  8  1  0  0  0  0
 17  6  2  0  0  0  0
 19 18  2  0  0  0  0
 20  9  1  0  0  0  0
 20  3  1  0  0  0  0
 21 23  1  0  0  0  0
 23 27  2  0  0  0  0
 23 24  1  0  0  0  0
 24 25  2  0  0  0  0
 25 22  1  0  0  0  0
 26 22  2  0  0  0  0
 27 26  1  0  0  0  0
M  END
>  <MODEL>
7

>  <REMARK>
 VINA RESULT:      -8.6      3.373      6.744
  Name = 
  2 active torsions:
  status: ('A' for Active; 'I' for Inactive)
    1  A    between atoms: C_1  and  C_15
    2  A    between atoms: C_9  and  C_15
                            x       y       z     vdW  Elec       q    Type
                         _______ _______ _______ _____ _____    ______ ____

>  <TORSDO>
F 2

$$$$
=
 OpenBabel10262420123D

 27 32  0  0  1  0  0  0  0  0999 V2000
  186.4100  178.2430  140.0350 C   0  0  2  0  0  3  0  0  0  0  0  0
  187.9390  178.2480  139.9240 C   0  0  1  0  0  3  0  0  0  0  0  0
  187.0110  177.8880  137.7230 C   0  0  2  0  0  0  0  0  0  0  0  0
  191.1520  175.8450  139.0820 N   0  0  0  0  0  0  0  0  0  0  0  0
  192.5820  176.3860  137.1860 C   0  0  0  0  0  1  0  0  0  0  0  0
  188.6460  177.4690  141.0130 C   0  0  0  0  0  3  0  0  0  0  0  0
  189.8670  176.3180  136.7560 S   0  0  0  0  0  0  0  0  0  0  0  0
  184.5110  176.5240  137.2490 C   0  0  2  0  0  3  0  0  0  0  0  0
  187.1800  178.6670  136.4430 C   0  0  0  0  0  2  0  0  0  0  0  0
  184.9170  175.2400  137.6140 O   0  0  0  0  0  1  0  0  0  0  0  0
  189.3390  177.0350  138.2950 C   0  0  2  0  0  3  0  0  0  0  0  0
  191.3380  175.6510  137.6450 C   0  0  2  0  0  3  0  0  0  0  0  0
  190.1560  176.5940  139.3970 C   0  0  0  0  0  0  0  0  0  0  0  0
  185.8470  178.3320  138.6020 C   0  0  1  0  0  3  0  0  0  0  0  0
  188.2260  177.7310  138.5520 C   0  0  2  0  0  3  0  0  0  0  0  0
  185.3270  177.0260  136.0570 C   0  0  0  0  0  2  0  0  0  0  0  0
  189.7030  176.7530  140.7490 N   0  0  0  0  0  0  0  0  0  0  0  0
  183.7120  177.5240  139.2220 O   0  0  0  0  0  0  0  0  0  0  0  0
  184.6320  177.4550  138.4230 C   0  0  0  0  0  0  0  0  0  0  0  0
  186.8100  177.1800  136.3920 C   0  0  2  0  0  3  0  0  0  0  0  0
  185.8860  179.3630  140.9410 C   0  0  0  0  0  2  0  0  0  0  0  0
  184.8050  178.0360  144.8820 C   0  0  0  0  0  3  0  0  0  0  0  0
  185.5080  178.8890  142.3100 C   0  0  0  0  0  0  0  0  0  0  0  0
  186.4690  178.3030  143.1420 C   0  0  0  0  0  3  0  0  0  0  0  0
  186.1180  177.8760  144.4260 C   0  0  0  0  0  3  0  0  0  0  0  0
  183.8440  178.6220  144.0530 C   0  0  0  0  0  3  0  0  0  0  0  0
  184.1940  179.0490  142.7690 C   0  0  0  0  0  3  0  0  0  0  0  0
  1 21  1  1  0  0  0
  2  1  1  0  0  0  0
  2  6  1  1  0  0  0
  3  9  1  6  0  0  0
  3 15  1  0  0  0  0
  3 14  1  0  0  0  0
  4 13  2  0  0  0  0
  7 12  1  0  0  0  0
  8 10  1  1  0  0  0
  8 19  1  0  0  0  0
 11  7  1  1  0  0  0
 11 15  1  0  0  0  0
 11 13  1  0  0  0  0
 12  5  1  6  0  0  0
 12  4  1  0  0  0  0
 13 17  1  0  0  0  0
 14 19  1  1  0  0  0
 14  1  1  0  0  0  0
 15  2  1  0  0  0  0
 16 20  1  0  0  0  0
 16  8  1  0  0  0  0
 17  6  2  0  0  0  0
 19 18  2  0  0  0  0
 20  9  1  0  0  0  0
 20  3  1  0  0  0  0
 21 23  1  0  0  0  0
 23 27  2  0  0  0  0
 23 24  1  0  0  0  0
 24 25  2  0  0  0  0
 25 22  1  0  0  0  0
 26 22  2  0  0  0  0
 27 26  1  0  0  0  0
M  END
>  <MODEL>
8

>  <REMARK>
 VINA RESULT:      -8.5      3.571      5.588
  Name = 
  2 active torsions:
  status: ('A' for Active; 'I' for Inactive)
    1  A    between atoms: C_1  and  C_15
    2  A    between atoms: C_9  and  C_15
                            x       y       z     vdW  Elec       q    Type
                         _______ _______ _______ _____ _____    ______ ____

>  <TORSDO>
F 2

$$$$
=
 OpenBabel10262420123D

 27 32  0  0  1  0  0  0  0  0999 V2000
  187.4060  178.3210  142.2360 C   0  0  2  0  0  3  0  0  0  0  0  0
  187.0610  178.6640  143.6890 C   0  0  1  0  0  3  0  0  0  0  0  0
  189.4400  178.2760  143.5370 C   0  0  2  0  0  0  0  0  0  0  0  0
  186.9350  177.0800  147.4690 N   0  0  0  0  0  0  0  0  0  0  0  0
  188.3210  178.0540  149.2180 C   0  0  0  0  0  1  0  0  0  0  0  0
  185.8180  177.9780  144.2140 C   0  0  0  0  0  3  0  0  0  0  0  0
  189.5330  177.4340  146.8300 S   0  0  0  0  0  0  0  0  0  0  0  0
  190.6390  176.4430  141.6560 C   0  0  2  0  0  3  0  0  0  0  0  0
  190.6080  179.1640  143.8820 C   0  0  0  0  0  2  0  0  0  0  0  0
  190.1800  175.2530  142.2230 O   0  0  0  0  0  1  0  0  0  0  0  0
  188.2130  177.9040  145.7350 C   0  0  2  0  0  3  0  0  0  0  0  0
  188.2540  177.0360  148.0960 C   0  0  2  0  0  3  0  0  0  0  0  0
  186.9220  177.5710  146.2810 C   0  0  0  0  0  0  0  0  0  0  0  0
  188.9410  178.3920  142.1010 C   0  0  1  0  0  3  0  0  0  0  0  0
  188.2910  178.3240  144.4670 C   0  0  2  0  0  3  0  0  0  0  0  0
  191.5340  177.1950  142.6420 C   0  0  0  0  0  2  0  0  0  0  0  0
  185.7630  177.5280  145.4370 N   0  0  0  0  0  0  0  0  0  0  0  0
  188.9840  177.0990  140.1200 O   0  0  0  0  0  0  0  0  0  0  0  0
  189.4760  177.2890  141.2210 C   0  0  0  0  0  0  0  0  0  0  0  0
  190.7760  177.6400  143.8920 C   0  0  2  0  0  3  0  0  0  0  0  0
  186.6870  179.2320  141.2350 C   0  0  0  0  0  2  0  0  0  0  0  0
  183.3910  177.3400  139.2320 C   0  0  0  0  0  3  0  0  0  0  0  0
  185.5420  178.5620  140.5400 C   0  0  0  0  0  0  0  0  0  0  0  0
  184.3750  178.2530  141.2480 C   0  0  0  0  0  3  0  0  0  0  0  0
  183.3000  177.6420  140.5940 C   0  0  0  0  0  3  0  0  0  0  0  0
  184.5560  177.6480  138.5230 C   0  0  0  0  0  3  0  0  0  0  0  0
  185.6300  178.2590  139.1760 C   0  0  0  0  0  3  0  0  0  0  0  0
  1 21  1  6  0  0  0
  1  2  1  0  0  0  0
  2  6  1  1  0  0  0
  2 15  1  0  0  0  0
  3  9  1  1  0  0  0
  3 20  1  0  0  0  0
  3 15  1  0  0  0  0
  4 12  1  0  0  0  0
  6 17  2  0  0  0  0
  7 12  1  0  0  0  0
  8 10  1  1  0  0  0
  8 16  1  0  0  0  0
  9 20  1  0  0  0  0
 11 13  1  6  0  0  0
 11  7  1  0  0  0  0
 12  5  1  1  0  0  0
 13  4  2  0  0  0  0
 14 19  1  6  0  0  0
 14  1  1  0  0  0  0
 14  3  1  0  0  0  0
 15 11  1  0  0  0  0
 16 20  1  0  0  0  0
 17 13  1  0  0  0  0
 18 19  2  0  0  0  0
 19  8  1  0  0  0  0
 22 25  1  0  0  0  0
 23 21  1  0  0  0  0
 23 24  1  0  0  0  0
 25 24  2  0  0  0  0
 26 27  1  0  0  0  0
 26 22  2  0  0  0  0
 27 23  2  0  0  0  0
M  END
>  <MODEL>
9

>  <REMARK>
 VINA RESULT:      -8.4      3.230      5.356
  Name = 
  2 active torsions:
  status: ('A' for Active; 'I' for Inactive)
    1  A    between atoms: C_1  and  C_15
    2  A    between atoms: C_9  and  C_15
                            x       y       z     vdW  Elec       q    Type
                         _______ _______ _______ _____ _____    ______ ____

>  <TORSDO>
F 2

$$$$
