=
 OpenBabel10262419333D

 31 36  0  0  1  0  0  0  0  0999 V2000
  191.1860  177.3760  143.4160 C   0  0  2  0  0  3  0  0  0  0  0  0
  188.5470  177.6600  140.6570 N   0  0  0  0  0  0  0  0  0  0  0  0
  189.2950  177.8710  139.4090 C   0  0  1  0  0  3  0  0  0  0  0  0
  190.6500  176.4860  137.9530 C   0  0  0  0  0  0  0  0  0  0  0  0
  189.2280  177.1370  141.8510 C   0  0  1  0  0  3  0  0  0  0  0  0
  190.3930  176.3810  144.1570 N   0  0  0  0  0  2  0  0  0  0  0  0
  190.2590  176.7950  139.1580 N   0  0  0  0  0  0  0  0  0  0  0  0
  186.5220  178.1300  142.1130 C   0  0  2  0  0  3  0  0  0  0  0  0
  191.6900  178.4630  144.3470 C   0  0  0  0  0  1  0  0  0  0  0  0
  187.1400  178.4060  138.3720 N   0  0  0  0  0  0  0  0  0  0  0  0
  191.6930  175.4440  137.7650 C   0  0  0  0  0  1  0  0  0  0  0  0
  187.4780  178.1950  143.1430 O   0  0  0  0  0  0  0  0  0  0  0  0
  187.2060  178.1760  140.7700 C   0  0  0  0  0  0  0  0  0  0  0  0
  190.4330  177.9960  142.2290 C   0  0  0  0  0  2  0  0  0  0  0  0
  190.0240  177.0800  136.7990 N   0  0  0  0  0  0  0  0  0  0  0  0
  188.2650  177.0320  143.0570 C   0  0  2  0  0  3  0  0  0  0  0  0
  189.0270  176.8630  144.3790 C   0  0  0  0  0  2  0  0  0  0  0  0
  186.5320  178.5180  139.6660 C   0  0  0  0  0  3  0  0  0  0  0  0
  188.3820  178.0560  138.2270 C   0  0  0  0  0  0  0  0  0  0  0  0
  188.9480  177.8030  136.9010 C   0  0  0  0  0  3  0  0  0  0  0  0
  185.5880  179.2390  142.2550 N   0  0  0  0  0  2  0  0  0  0  0  0
  180.5010  178.2890  142.6260 C   0  0  0  0  0  0  0  0  0  0  0  0
  182.7010  178.6220  141.4450 C   0  0  0  0  0  2  0  0  0  0  0  0
  183.1650  179.1050  145.0630 N   0  0  0  0  0  0  0  0  0  0  0  0
  184.5510  179.3250  144.6480 C   0  0  0  0  0  2  0  0  0  0  0  0
  179.5160  177.5840  142.4860 O   0  0  0  0  0  0  0  0  0  0  0  0
  184.4820  179.1880  143.1570 C   0  0  0  0  0  0  0  0  0  0  0  0
  181.1850  178.8650  141.4090 C   0  0  0  0  0  2  0  0  0  0  0  0
  182.4530  178.8890  144.0080 C   0  0  0  0  0  0  0  0  0  0  0  0
  183.2380  178.9550  142.8000 C   0  0  0  0  0  0  0  0  0  0  0  0
  180.9770  178.6400  144.0140 C   0  0  0  0  0  2  0  0  0  0  0  0
  1  6  1  0  0  0  0
  1  9  1  1  0  0  0
  2 13  1  0  0  0  0
  2  5  1  0  0  0  0
  3 19  1  6  0  0  0
  3  2  1  0  0  0  0
  4  7  2  0  0  0  0
  5 14  1  1  0  0  0
  5 16  1  0  0  0  0
  6 17  1  0  0  0  0
  7  3  1  0  0  0  0
  8 21  1  6  0  0  0
  8 12  1  0  0  0  0
 10 18  1  0  0  0  0
 11  4  1  0  0  0  0
 13  8  1  0  0  0  0
 14  1  1  0  0  0  0
 15 20  2  0  0  0  0
 15  4  1  0  0  0  0
 16 12  1  0  0  0  0
 16 17  1  1  0  0  0
 18 13  2  0  0  0  0
 19 10  2  0  0  0  0
 20 19  1  0  0  0  0
 21 27  1  0  0  0  0
 22 31  1  0  0  0  0
 23 30  1  0  0  0  0
 25 24  1  0  0  0  0
 26 22  2  0  0  0  0
 27 25  1  0  0  0  0
 28 23  1  0  0  0  0
 28 22  1  0  0  0  0
 29 31  1  0  0  0  0
 29 24  2  0  0  0  0
 30 27  2  0  0  0  0
 30 29  1  0  0  0  0
M  END
>  <MODEL>
1

>  <REMARK>
 VINA RESULT:      -9.2      0.000      0.000
  Name = 
  2 active torsions:
  status: ('A' for Active; 'I' for Inactive)
    1  A    between atoms: C_9  and  N_23
    2  A    between atoms: C_15  and  N_23
                            x       y       z     vdW  Elec       q    Type
                         _______ _______ _______ _____ _____    ______ ____

>  <TORSDO>
F 2

$$$$
=
 OpenBabel10262419333D

 31 36  0  0  1  0  0  0  0  0999 V2000
  190.0950  176.3020  143.8140 C   0  0  2  0  0  3  0  0  0  0  0  0
  186.9890  178.2430  142.7000 N   0  0  0  0  0  0  0  0  0  0  0  0
  185.9610  177.9680  143.7140 C   0  0  1  0  0  3  0  0  0  0  0  0
  185.5630  178.6680  146.0010 C   0  0  0  0  0  0  0  0  0  0  0  0
  188.4070  177.9770  142.9880 C   0  0  1  0  0  3  0  0  0  0  0  0
  191.0030  177.3470  143.3140 N   0  0  0  0  0  2  0  0  0  0  0  0
  186.4060  178.3420  145.0610 N   0  0  0  0  0  0  0  0  0  0  0  0
  187.6370  178.6420  140.2780 C   0  0  2  0  0  3  0  0  0  0  0  0
  190.5550  174.9280  143.3610 C   0  0  0  0  0  1  0  0  0  0  0  0
  184.3640  179.0110  142.1760 N   0  0  0  0  0  0  0  0  0  0  0  0
  186.0650  178.9540  147.3700 C   0  0  0  0  0  1  0  0  0  0  0  0
  188.7170  177.7980  140.5960 O   0  0  0  0  0  0  0  0  0  0  0  0
  186.5830  178.5580  141.3530 C   0  0  0  0  0  0  0  0  0  0  0  0
  188.6270  176.5290  143.4220 C   0  0  0  0  0  2  0  0  0  0  0  0
  184.1620  178.8370  145.7080 N   0  0  0  0  0  0  0  0  0  0  0  0
  189.3070  178.2980  141.7720 C   0  0  2  0  0  3  0  0  0  0  0  0
  190.7020  177.6760  141.9180 C   0  0  0  0  0  2  0  0  0  0  0  0
  185.3230  178.9400  141.1130 C   0  0  0  0  0  3  0  0  0  0  0  0
  184.6490  178.6280  143.3830 C   0  0  0  0  0  0  0  0  0  0  0  0
  183.7130  178.8420  144.4880 C   0  0  0  0  0  3  0  0  0  0  0  0
  187.0890  178.2530  138.9860 N   0  0  0  0  0  2  0  0  0  0  0  0
  187.9980  174.5160  135.5030 C   0  0  0  0  0  0  0  0  0  0  0  0
  186.8970  175.5810  137.5020 C   0  0  0  0  0  2  0  0  0  0  0  0
  189.4330  177.8690  136.1340 N   0  0  0  0  0  0  0  0  0  0  0  0
  188.9570  178.7210  137.2250 C   0  0  0  0  0  2  0  0  0  0  0  0
  187.6630  173.7740  134.5950 O   0  0  0  0  0  0  0  0  0  0  0  0
  187.9240  177.8660  137.8940 C   0  0  0  0  0  0  0  0  0  0  0  0
  187.4530  174.2870  136.8930 C   0  0  0  0  0  2  0  0  0  0  0  0
  188.7930  176.7490  136.1830 C   0  0  0  0  0  0  0  0  0  0  0  0
  187.8600  176.7040  137.2800 C   0  0  0  0  0  0  0  0  0  0  0  0
  189.0110  175.6030  135.2440 C   0  0  0  0  0  2  0  0  0  0  0  0
  1  9  1  6  0  0  0
  2  5  1  0  0  0  0
  2  3  1  0  0  0  0
  3 19  1  6  0  0  0
  3  7  1  0  0  0  0
  4 11  1  0  0  0  0
  5 14  1  6  0  0  0
  6  1  1  0  0  0  0
  7  4  2  0  0  0  0
  8 21  1  6  0  0  0
  8 12  1  0  0  0  0
  8 13  1  0  0  0  0
 10 19  2  0  0  0  0
 12 16  1  0  0  0  0
 13  2  1  0  0  0  0
 14  1  1  0  0  0  0
 15  4  1  0  0  0  0
 16 17  1  1  0  0  0
 16  5  1  0  0  0  0
 17  6  1  0  0  0  0
 18 13  2  0  0  0  0
 18 10  1  0  0  0  0
 19 20  1  0  0  0  0
 20 15  2  0  0  0  0
 22 28  1  0  0  0  0
 24 29  2  0  0  0  0
 24 25  1  0  0  0  0
 25 27  1  0  0  0  0
 26 22  2  0  0  0  0
 27 21  1  0  0  0  0
 28 23  1  0  0  0  0
 29 30  1  0  0  0  0
 30 23  1  0  0  0  0
 30 27  2  0  0  0  0
 31 22  1  0  0  0  0
 31 29  1  0  0  0  0
M  END
>  <MODEL>
2

>  <REMARK>
 VINA RESULT:      -8.5      2.609      7.181
  Name = 
  2 active torsions:
  status: ('A' for Active; 'I' for Inactive)
    1  A    between atoms: C_9  and  N_23
    2  A    between atoms: C_15  and  N_23
                            x       y       z     vdW  Elec       q    Type
                         _______ _______ _______ _____ _____    ______ ____

>  <TORSDO>
F 2

$$$$
=
 OpenBabel10262419333D

 31 36  0  0  1  0  0  0  0  0999 V2000
  186.5780  175.7760  136.1300 C   0  0  2  0  0  3  0  0  0  0  0  0
  189.4720  177.0210  138.3060 N   0  0  0  0  0  0  0  0  0  0  0  0
  190.6260  176.1810  137.9540 C   0  0  1  0  0  3  0  0  0  0  0  0
  192.1340  176.0240  136.0620 C   0  0  0  0  0  0  0  0  0  0  0  0
  188.3020  177.0840  137.4170 C   0  0  1  0  0  3  0  0  0  0  0  0
  186.0240  177.1320  135.9840 N   0  0  0  0  0  2  0  0  0  0  0  0
  190.9330  176.2410  136.5210 N   0  0  0  0  0  0  0  0  0  0  0  0
  188.1250  178.2900  140.0430 C   0  0  2  0  0  3  0  0  0  0  0  0
  185.4890  174.7850  136.4960 C   0  0  0  0  0  1  0  0  0  0  0  0
  191.7490  177.1510  139.9050 N   0  0  0  0  0  0  0  0  0  0  0  0
  192.3670  176.0140  134.5950 C   0  0  0  0  0  1  0  0  0  0  0  0
  187.0260  177.7240  139.3700 O   0  0  0  0  0  0  0  0  0  0  0  0
  189.3980  177.5990  139.6250 C   0  0  0  0  0  0  0  0  0  0  0  0
  187.7350  175.6930  137.1380 C   0  0  0  0  0  2  0  0  0  0  0  0
  193.2510  175.8780  136.9600 N   0  0  0  0  0  0  0  0  0  0  0  0
  187.1920  177.9910  137.9990 C   0  0  2  0  0  3  0  0  0  0  0  0
  185.8470  177.7670  137.2940 C   0  0  0  0  0  2  0  0  0  0  0  0
  190.5000  177.6710  140.3800 C   0  0  0  0  0  3  0  0  0  0  0  0
  191.8430  176.5190  138.7750 C   0  0  0  0  0  0  0  0  0  0  0  0
  193.1440  176.1240  138.2320 C   0  0  0  0  0  3  0  0  0  0  0  0
  187.9200  178.1710  141.4800 N   0  0  0  0  0  2  0  0  0  0  0  0
  185.3830  178.3310  146.0030 C   0  0  0  0  0  0  0  0  0  0  0  0
  187.3060  177.8190  144.4590 C   0  0  0  0  0  2  0  0  0  0  0  0
  184.5400  179.2880  142.5290 N   0  0  0  0  0  0  0  0  0  0  0  0
  185.4900  179.1210  141.4280 C   0  0  0  0  0  3  0  0  0  0  0  0
  185.2460  178.7010  147.1570 O   0  0  0  0  0  0  0  0  0  0  0  0
  186.6700  178.4830  142.0960 C   0  0  0  0  0  0  0  0  0  0  0  0
  186.4760  177.3460  145.6600 C   0  0  0  0  0  2  0  0  0  0  0  0
  185.0800  178.8290  143.6070 C   0  0  2  0  0  3  0  0  0  0  0  0
  186.4000  178.2990  143.3710 C   0  0  0  0  0  0  0  0  0  0  0  0
  184.4140  178.8030  144.9480 C   0  0  0  0  0  2  0  0  0  0  0  0
  1  9  1  1  0  0  0
  1 14  1  0  0  0  0
  2 13  1  0  0  0  0
  3  7  1  6  0  0  0
  3  2  1  0  0  0  0
  3 19  1  0  0  0  0
  4  7  2  0  0  0  0
  4 15  1  0  0  0  0
  5 14  1  1  0  0  0
  5 16  1  0  0  0  0
  5  2  1  0  0  0  0
  6  1  1  0  0  0  0
  6 17  1  0  0  0  0
  8 21  1  1  0  0  0
 10 18  1  0  0  0  0
 11  4  1  0  0  0  0
 12  8  1  0  0  0  0
 13  8  1  0  0  0  0
 13 18  2  0  0  0  0
 15 20  2  0  0  0  0
 16 17  1  6  0  0  0
 16 12  1  0  0  0  0
 19 10  2  0  0  0  0
 20 19  1  0  0  0  0
 21 27  1  0  0  0  0
 22 26  2  0  0  0  0
 23 28  1  0  0  0  0
 24 29  1  0  0  0  0
 25 27  1  0  0  0  0
 25 24  2  0  0  0  0
 27 30  2  0  0  0  0
 28 22  1  0  0  0  0
 29 31  1  6  0  0  0
 30 29  1  0  0  0  0
 30 23  1  0  0  0  0
 31 22  1  0  0  0  0
M  END
>  <MODEL>
3

>  <REMARK>
 VINA RESULT:      -8.5      2.723      5.130
  Name = 
  2 active torsions:
  status: ('A' for Active; 'I' for Inactive)
    1  A    between atoms: C_9  and  N_23
    2  A    between atoms: C_15  and  N_23
                            x       y       z     vdW  Elec       q    Type
                         _______ _______ _______ _____ _____    ______ ____

>  <TORSDO>
F 2

$$$$
=
 OpenBabel10262419333D

 31 36  0  0  1  0  0  0  0  0999 V2000
  182.6000  177.8760  139.0030 C   0  0  2  0  0  3  0  0  0  0  0  0
  186.2880  178.3020  139.9390 N   0  0  0  0  0  0  0  0  0  0  0  0
  187.0510  177.8860  138.7540 C   0  0  1  0  0  3  0  0  0  0  0  0
  187.5080  178.8390  136.5720 C   0  0  0  0  0  0  0  0  0  0  0  0
  184.8580  178.6280  139.8240 C   0  0  1  0  0  3  0  0  0  0  0  0
  182.2010  179.0550  139.7890 N   0  0  0  0  0  2  0  0  0  0  0  0
  186.6800  178.6570  137.5620 N   0  0  0  0  0  0  0  0  0  0  0  0
  186.0310  178.4120  142.4620 C   0  0  2  0  0  3  0  0  0  0  0  0
  181.6880  176.6990  139.2960 C   0  0  0  0  0  1  0  0  0  0  0  0
  189.0400  177.9510  140.1850 N   0  0  0  0  0  0  0  0  0  0  0  0
  187.0490  179.5560  135.3540 C   0  0  0  0  0  1  0  0  0  0  0  0
  184.6890  178.0960  142.1770 O   0  0  0  0  0  0  0  0  0  0  0  0
  186.8870  178.1720  141.2440 C   0  0  0  0  0  0  0  0  0  0  0  0
  184.0690  177.4760  139.2040 C   0  0  0  0  0  2  0  0  0  0  0  0
  188.8860  178.4300  136.6780 N   0  0  0  0  0  0  0  0  0  0  0  0
  184.2460  179.0000  141.1950 C   0  0  2  0  0  3  0  0  0  0  0  0
  182.7110  178.9650  141.1600 C   0  0  0  0  0  2  0  0  0  0  0  0
  188.2110  178.0180  141.3530 C   0  0  0  0  0  3  0  0  0  0  0  0
  188.5370  177.9480  138.9880 C   0  0  0  0  0  0  0  0  0  0  0  0
  189.3960  178.0280  137.8040 C   0  0  0  0  0  3  0  0  0  0  0  0
  186.4870  177.6010  143.5820 N   0  0  0  0  0  2  0  0  0  0  0  0
  188.8790  178.0030  148.1680 C   0  0  0  0  0  0  0  0  0  0  0  0
  188.6230  177.3200  145.7580 C   0  0  0  0  0  2  0  0  0  0  0  0
  185.5550  179.0080  146.8870 N   0  0  0  0  0  0  0  0  0  0  0  0
  185.1500  178.7550  145.5030 C   0  0  0  0  0  3  0  0  0  0  0  0
  189.7820  178.3900  148.8910 O   0  0  0  0  0  0  0  0  0  0  0  0
  186.3290  178.0220  144.9370 C   0  0  0  0  0  0  0  0  0  0  0  0
  189.1500  176.9270  147.1440 C   0  0  0  0  0  2  0  0  0  0  0  0
  186.7330  178.5110  147.0650 C   0  0  2  0  0  3  0  0  0  0  0  0
  187.2370  177.8690  145.8770 C   0  0  0  0  0  0  0  0  0  0  0  0
  187.4850  178.5500  148.3590 C   0  0  0  0  0  2  0  0  0  0  0  0
  1 14  1  0  0  0  0
  1  9  1  1  0  0  0
  1  6  1  0  0  0  0
  2 13  1  0  0  0  0
  3  7  1  6  0  0  0
  3 19  1  0  0  0  0
  3  2  1  0  0  0  0
  4 15  1  0  0  0  0
  4  7  2  0  0  0  0
  5 14  1  1  0  0  0
  5  2  1  0  0  0  0
  5 16  1  0  0  0  0
  6 17  1  0  0  0  0
  8 21  1  1  0  0  0
 10 18  1  0  0  0  0
 11  4  1  0  0  0  0
 12  8  1  0  0  0  0
 13 18  2  0  0  0  0
 13  8  1  0  0  0  0
 15 20  2  0  0  0  0
 16 17  1  6  0  0  0
 16 12  1  0  0  0  0
 19 10  2  0  0  0  0
 20 19  1  0  0  0  0
 21 27  1  0  0  0  0
 22 31  1  0  0  0  0
 22 26  2  0  0  0  0
 23 30  1  0  0  0  0
 23 28  1  0  0  0  0
 24 29  1  0  0  0  0
 25 24  2  0  0  0  0
 27 25  1  0  0  0  0
 27 30  2  0  0  0  0
 28 22  1  0  0  0  0
 29 31  1  1  0  0  0
 30 29  1  0  0  0  0
M  END
>  <MODEL>
4

>  <REMARK>
 VINA RESULT:      -8.2      2.566      6.040
  Name = 
  2 active torsions:
  status: ('A' for Active; 'I' for Inactive)
    1  A    between atoms: C_9  and  N_23
    2  A    between atoms: C_15  and  N_23
                            x       y       z     vdW  Elec       q    Type
                         _______ _______ _______ _____ _____    ______ ____

>  <TORSDO>
F 2

$$$$
=
 OpenBabel10262419333D

 31 36  0  0  1  0  0  0  0  0999 V2000
  191.0080  176.9440  145.6020 C   0  0  2  0  0  3  0  0  0  0  0  0
  187.9160  178.0100  143.6110 N   0  0  0  0  0  0  0  0  0  0  0  0
  186.7710  177.7950  144.5070 C   0  0  1  0  0  3  0  0  0  0  0  0
  185.8780  178.9100  146.4660 C   0  0  0  0  0  0  0  0  0  0  0  0
  189.2820  178.0680  144.1540 C   0  0  1  0  0  3  0  0  0  0  0  0
  191.8400  177.9930  144.9890 N   0  0  0  0  0  2  0  0  0  0  0  0
  186.9120  178.5330  145.7670 N   0  0  0  0  0  0  0  0  0  0  0  0
  188.9260  177.9620  141.2830 C   0  0  2  0  0  3  0  0  0  0  0  0
  191.7240  175.6060  145.5770 C   0  0  0  0  0  1  0  0  0  0  0  0
  185.3470  178.1690  142.5480 N   0  0  0  0  0  0  0  0  0  0  0  0
  186.0840  179.5800  147.7770 C   0  0  0  0  0  1  0  0  0  0  0  0
  190.0360  177.4140  141.9510 O   0  0  0  0  0  0  0  0  0  0  0  0
  187.7180  177.9380  142.1850 C   0  0  0  0  0  0  0  0  0  0  0  0
  189.6160  176.8160  144.9630 C   0  0  0  0  0  2  0  0  0  0  0  0
  184.5420  178.7610  145.9470 N   0  0  0  0  0  0  0  0  0  0  0  0
  190.3320  178.2600  143.0350 C   0  0  2  0  0  3  0  0  0  0  0  0
  191.7510  177.9410  143.5270 C   0  0  0  0  0  2  0  0  0  0  0  0
  186.4810  178.0300  141.6820 C   0  0  0  0  0  3  0  0  0  0  0  0
  185.4610  178.1230  143.8400 C   0  0  0  0  0  0  0  0  0  0  0  0
  184.3230  178.4130  144.7140 C   0  0  0  0  0  3  0  0  0  0  0  0
  188.6760  177.2020  140.0660 N   0  0  0  0  0  2  0  0  0  0  0  0
  186.5130  176.8530  135.3620 C   0  0  0  0  0  0  0  0  0  0  0  0
  187.0940  176.0900  137.6920 C   0  0  0  0  0  2  0  0  0  0  0  0
  188.6680  179.3520  137.0400 N   0  0  0  0  0  0  0  0  0  0  0  0
  189.1340  179.1710  138.4150 C   0  0  0  0  0  2  0  0  0  0  0  0
  185.5550  176.7650  134.6120 O   0  0  0  0  0  0  0  0  0  0  0  0
  188.5770  177.8300  138.7870 C   0  0  0  0  0  0  0  0  0  0  0  0
  186.8940  175.6740  136.2280 C   0  0  0  0  0  2  0  0  0  0  0  0
  187.9820  178.3110  136.7020 C   0  0  0  0  0  0  0  0  0  0  0  0
  187.9230  177.3330  137.7590 C   0  0  0  0  0  0  0  0  0  0  0  0
  187.3510  178.1080  135.3600 C   0  0  0  0  0  2  0  0  0  0  0  0
  1  9  1  6  0  0  0
  2  5  1  0  0  0  0
  2  3  1  0  0  0  0
  3 19  1  6  0  0  0
  3  7  1  0  0  0  0
  4 11  1  0  0  0  0
  5 14  1  6  0  0  0
  6  1  1  0  0  0  0
  7  4  2  0  0  0  0
  8 21  1  6  0  0  0
  8 12  1  0  0  0  0
  8 13  1  0  0  0  0
 10 19  2  0  0  0  0
 12 16  1  0  0  0  0
 13  2  1  0  0  0  0
 14  1  1  0  0  0  0
 15  4  1  0  0  0  0
 16 17  1  1  0  0  0
 16  5  1  0  0  0  0
 17  6  1  0  0  0  0
 18 13  2  0  0  0  0
 18 10  1  0  0  0  0
 19 20  1  0  0  0  0
 20 15  2  0  0  0  0
 22 28  1  0  0  0  0
 23 30  1  0  0  0  0
 24 25  1  0  0  0  0
 25 27  1  0  0  0  0
 26 22  2  0  0  0  0
 27 21  1  0  0  0  0
 28 23  1  0  0  0  0
 29 24  2  0  0  0  0
 29 30  1  0  0  0  0
 30 27  2  0  0  0  0
 31 22  1  0  0  0  0
 31 29  1  0  0  0  0
M  END
>  <MODEL>
5

>  <REMARK>
 VINA RESULT:      -8.1      2.833      6.821
  Name = 
  2 active torsions:
  status: ('A' for Active; 'I' for Inactive)
    1  A    between atoms: C_9  and  N_23
    2  A    between atoms: C_15  and  N_23
                            x       y       z     vdW  Elec       q    Type
                         _______ _______ _______ _____ _____    ______ ____

>  <TORSDO>
F 2

$$$$
=
 OpenBabel10262419333D

 31 36  0  0  1  0  0  0  0  0999 V2000
  191.4220  177.4120  143.2320 C   0  0  2  0  0  3  0  0  0  0  0  0
  189.2270  177.4050  140.0950 N   0  0  0  0  0  0  0  0  0  0  0  0
  190.1560  177.4670  138.9570 C   0  0  1  0  0  3  0  0  0  0  0  0
  191.6740  175.9130  137.8820 C   0  0  0  0  0  0  0  0  0  0  0  0
  189.7110  177.0150  141.4280 C   0  0  1  0  0  3  0  0  0  0  0  0
  190.5030  176.5140  143.9510 N   0  0  0  0  0  2  0  0  0  0  0  0
  191.1180  176.3600  138.9730 N   0  0  0  0  0  0  0  0  0  0  0  0
  187.0220  178.0560  141.1710 C   0  0  2  0  0  3  0  0  0  0  0  0
  191.8120  178.5930  144.1010 C   0  0  0  0  0  1  0  0  0  0  0  0
  188.1920  177.9000  137.5570 N   0  0  0  0  0  0  0  0  0  0  0  0
  192.7060  174.8470  137.9690 C   0  0  0  0  0  1  0  0  0  0  0  0
  187.8180  178.2290  142.3180 O   0  0  0  0  0  0  0  0  0  0  0  0
  187.8970  177.9430  139.9480 C   0  0  0  0  0  0  0  0  0  0  0  0
  190.8690  177.9010  141.8840 C   0  0  0  0  0  2  0  0  0  0  0  0
  191.2400  176.3780  136.5890 N   0  0  0  0  0  0  0  0  0  0  0  0
  188.5790  177.0560  142.4810 C   0  0  2  0  0  3  0  0  0  0  0  0
  189.1320  177.0310  143.9120 C   0  0  0  0  0  2  0  0  0  0  0  0
  187.4030  178.1640  138.7250 C   0  0  0  0  0  3  0  0  0  0  0  0
  189.4320  177.5250  137.6380 C   0  0  0  0  0  0  0  0  0  0  0  0
  190.1810  177.1180  136.4480 C   0  0  0  0  0  3  0  0  0  0  0  0
  186.1070  179.1820  141.0490 N   0  0  0  0  0  2  0  0  0  0  0  0
  181.4350  179.0030  143.2990 C   0  0  0  0  0  0  0  0  0  0  0  0
  183.9490  179.1430  143.2210 C   0  0  0  0  0  2  0  0  0  0  0  0
  182.6300  178.8220  139.8000 N   0  0  0  0  0  0  0  0  0  0  0  0
  184.0530  178.9050  139.4640 C   0  0  0  0  0  3  0  0  0  0  0  0
  180.5400  179.4740  143.9810 O   0  0  0  0  0  0  0  0  0  0  0  0
  184.7110  179.0030  140.8070 C   0  0  0  0  0  0  0  0  0  0  0  0
  182.7270  178.5740  143.9550 C   0  0  0  0  0  2  0  0  0  0  0  0
  182.5120  178.8630  141.0850 C   0  0  2  0  0  3  0  0  0  0  0  0
  183.7910  178.9530  141.7450 C   0  0  0  0  0  0  0  0  0  0  0  0
  181.2120  178.7840  141.8230 C   0  0  0  0  0  2  0  0  0  0  0  0
  1  6  1  0  0  0  0
  1  9  1  1  0  0  0
  2  5  1  0  0  0  0
  3 19  1  6  0  0  0
  3  7  1  0  0  0  0
  3  2  1  0  0  0  0
  4 11  1  0  0  0  0
  4  7  2  0  0  0  0
  5 14  1  1  0  0  0
  5 16  1  0  0  0  0
  8 21  1  6  0  0  0
  8 12  1  0  0  0  0
 10 19  2  0  0  0  0
 10 18  1  0  0  0  0
 12 16  1  0  0  0  0
 13  2  1  0  0  0  0
 13  8  1  0  0  0  0
 14  1  1  0  0  0  0
 15  4  1  0  0  0  0
 16 17  1  1  0  0  0
 17  6  1  0  0  0  0
 18 13  2  0  0  0  0
 20 15  2  0  0  0  0
 20 19  1  0  0  0  0
 22 28  1  0  0  0  0
 22 26  2  0  0  0  0
 23 28  1  0  0  0  0
 24 29  1  0  0  0  0
 25 24  2  0  0  0  0
 25 27  1  0  0  0  0
 27 21  1  0  0  0  0
 27 30  2  0  0  0  0
 29 30  1  0  0  0  0
 29 31  1  1  0  0  0
 30 23  1  0  0  0  0
 31 22  1  0  0  0  0
M  END
>  <MODEL>
6

>  <REMARK>
 VINA RESULT:      -8.0      1.343      1.971
  Name = 
  2 active torsions:
  status: ('A' for Active; 'I' for Inactive)
    1  A    between atoms: C_9  and  N_23
    2  A    between atoms: C_15  and  N_23
                            x       y       z     vdW  Elec       q    Type
                         _______ _______ _______ _____ _____    ______ ____

>  <TORSDO>
F 2

$$$$
=
 OpenBabel10262419333D

 31 36  0  0  1  0  0  0  0  0999 V2000
  188.6600  177.0800  136.0350 C   0  0  2  0  0  3  0  0  0  0  0  0
  186.6380  177.9770  139.1600 N   0  0  0  0  0  0  0  0  0  0  0  0
  185.4230  178.6450  138.6720 C   0  0  1  0  0  3  0  0  0  0  0  0
  183.3840  177.9320  137.5720 C   0  0  0  0  0  0  0  0  0  0  0  0
  187.4580  177.1680  138.2460 C   0  0  1  0  0  3  0  0  0  0  0  0
  189.1520  175.8300  136.6370 N   0  0  0  0  0  2  0  0  0  0  0  0
  184.6710  177.8020  137.7360 N   0  0  0  0  0  0  0  0  0  0  0  0
  188.4870  177.7630  140.8850 C   0  0  2  0  0  3  0  0  0  0  0  0
  189.7990  177.8570  135.4010 C   0  0  0  0  0  1  0  0  0  0  0  0
  185.0010  179.2750  141.0020 N   0  0  0  0  0  0  0  0  0  0  0  0
  182.6880  177.1090  136.5490 C   0  0  0  0  0  1  0  0  0  0  0  0
  189.3040  177.5870  139.7530 O   0  0  0  0  0  0  0  0  0  0  0  0
  187.1400  178.3000  140.4720 C   0  0  0  0  0  0  0  0  0  0  0  0
  187.8910  177.9720  137.0210 C   0  0  0  0  0  2  0  0  0  0  0  0
  182.6150  178.8000  138.4270 N   0  0  0  0  0  0  0  0  0  0  0  0
  188.7060  176.5930  138.9570 C   0  0  2  0  0  3  0  0  0  0  0  0
  189.7490  176.0840  137.9520 C   0  0  0  0  0  2  0  0  0  0  0  0
  186.3420  178.9100  141.3560 C   0  0  0  0  0  3  0  0  0  0  0  0
  184.5410  179.1100  139.8000 C   0  0  0  0  0  0  0  0  0  0  0  0
  183.1300  179.3470  139.4880 C   0  0  0  0  0  3  0  0  0  0  0  0
  189.1440  178.6740  141.8120 N   0  0  0  0  0  2  0  0  0  0  0  0
  189.0970  177.0200  146.7300 C   0  0  0  0  0  0  0  0  0  0  0  0
  188.1230  177.9790  144.6140 C   0  0  0  0  0  2  0  0  0  0  0  0
  191.7210  177.3670  144.1420 N   0  0  0  0  0  0  0  0  0  0  0  0
  191.4230  177.8790  142.8040 C   0  0  0  0  0  3  0  0  0  0  0  0
  188.7240  176.2740  147.6200 O   0  0  0  0  0  0  0  0  0  0  0  0
  189.9630  178.2060  142.8850 C   0  0  0  0  0  0  0  0  0  0  0  0
  188.1330  178.0280  146.1480 C   0  0  0  0  0  2  0  0  0  0  0  0
  190.6360  177.4020  144.8420 C   0  0  2  0  0  3  0  0  0  0  0  0
  189.5260  177.9400  144.0970 C   0  0  0  0  0  0  0  0  0  0  0  0
  190.5340  176.9780  146.2740 C   0  0  0  0  0  2  0  0  0  0  0  0
  1  9  1  1  0  0  0
  1  6  1  0  0  0  0
  1 14  1  0  0  0  0
  2 13  1  0  0  0  0
  3  7  1  6  0  0  0
  3  2  1  0  0  0  0
  3 19  1  0  0  0  0
  4  7  2  0  0  0  0
  4 15  1  0  0  0  0
  5 14  1  6  0  0  0
  5 16  1  0  0  0  0
  5  2  1  0  0  0  0
  6 17  1  0  0  0  0
  8 21  1  1  0  0  0
 10 18  1  0  0  0  0
 11  4  1  0  0  0  0
 12  8  1  0  0  0  0
 13  8  1  0  0  0  0
 13 18  2  0  0  0  0
 15 20  2  0  0  0  0
 16 17  1  6  0  0  0
 16 12  1  0  0  0  0
 19 10  2  0  0  0  0
 20 19  1  0  0  0  0
 21 27  1  0  0  0  0
 22 26  2  0  0  0  0
 23 28  1  0  0  0  0
 24 29  1  0  0  0  0
 25 27  1  0  0  0  0
 25 24  2  0  0  0  0
 27 30  2  0  0  0  0
 28 22  1  0  0  0  0
 29 31  1  1  0  0  0
 30 23  1  0  0  0  0
 30 29  1  0  0  0  0
 31 22  1  0  0  0  0
M  END
>  <MODEL>
7

>  <REMARK>
 VINA RESULT:      -8.0      3.055      6.646
  Name = 
  2 active torsions:
  status: ('A' for Active; 'I' for Inactive)
    1  A    between atoms: C_9  and  N_23
    2  A    between atoms: C_15  and  N_23
                            x       y       z     vdW  Elec       q    Type
                         _______ _______ _______ _____ _____    ______ ____

>  <TORSDO>
F 2

$$$$
=
 OpenBabel10262419333D

 31 36  0  0  1  0  0  0  0  0999 V2000
  191.6360  177.3530  143.1830 C   0  0  2  0  0  3  0  0  0  0  0  0
  189.3210  177.3650  140.1330 N   0  0  0  0  0  0  0  0  0  0  0  0
  190.2050  177.4410  138.9610 C   0  0  1  0  0  3  0  0  0  0  0  0
  191.6870  175.9020  137.8140 C   0  0  0  0  0  0  0  0  0  0  0  0
  189.8580  176.9650  141.4430 C   0  0  1  0  0  3  0  0  0  0  0  0
  190.7490  176.4450  143.9290 N   0  0  0  0  0  2  0  0  0  0  0  0
  191.1720  176.3380  138.9300 N   0  0  0  0  0  0  0  0  0  0  0  0
  187.1570  177.9970  141.2990 C   0  0  2  0  0  3  0  0  0  0  0  0
  192.0540  178.5280  144.0470 C   0  0  0  0  0  1  0  0  0  0  0  0
  188.1870  177.8780  137.6420 N   0  0  0  0  0  0  0  0  0  0  0  0
  192.7250  174.8400  137.8510 C   0  0  0  0  0  1  0  0  0  0  0  0
  187.9960  178.1630  142.4170 O   0  0  0  0  0  0  0  0  0  0  0  0
  187.9850  177.8990  140.0430 C   0  0  0  0  0  0  0  0  0  0  0  0
  191.0300  177.8510  141.8620 C   0  0  0  0  0  2  0  0  0  0  0  0
  191.2010  176.3770  136.5430 N   0  0  0  0  0  0  0  0  0  0  0  0
  188.7670  176.9920  142.5390 C   0  0  2  0  0  3  0  0  0  0  0  0
  189.3750  176.9560  143.9480 C   0  0  0  0  0  2  0  0  0  0  0  0
  187.4430  178.1280  138.8420 C   0  0  0  0  0  3  0  0  0  0  0  0
  189.4300  177.5070  137.6720 C   0  0  0  0  0  0  0  0  0  0  0  0
  190.1340  177.1130  136.4500 C   0  0  0  0  0  3  0  0  0  0  0  0
  186.2340  179.1210  141.2230 N   0  0  0  0  0  2  0  0  0  0  0  0
  181.3920  178.8180  139.3840 C   0  0  0  0  0  0  0  0  0  0  0  0
  183.8880  179.1280  139.2550 C   0  0  0  0  0  2  0  0  0  0  0  0
  182.8930  178.6270  142.7610 N   0  0  0  0  0  0  0  0  0  0  0  0
  184.3360  178.7510  142.9750 C   0  0  0  0  0  2  0  0  0  0  0  0
  180.5230  178.3110  138.6930 O   0  0  0  0  0  0  0  0  0  0  0  0
  184.8600  179.0000  141.5930 C   0  0  0  0  0  0  0  0  0  0  0  0
  182.5190  179.5780  138.7260 C   0  0  0  0  0  2  0  0  0  0  0  0
  182.6520  178.7810  141.5020 C   0  0  0  0  0  0  0  0  0  0  0  0
  183.8530  179.0370  140.7470 C   0  0  0  0  0  0  0  0  0  0  0  0
  181.2880  178.7430  140.8870 C   0  0  0  0  0  2  0  0  0  0  0  0
  1  6  1  0  0  0  0
  1  9  1  1  0  0  0
  2  5  1  0  0  0  0
  3 19  1  6  0  0  0
  3  2  1  0  0  0  0
  4 11  1  0  0  0  0
  4  7  2  0  0  0  0
  5 14  1  1  0  0  0
  5 16  1  0  0  0  0
  6 17  1  0  0  0  0
  7  3  1  0  0  0  0
  8 21  1  6  0  0  0
  8 12  1  0  0  0  0
 10 19  2  0  0  0  0
 10 18  1  0  0  0  0
 12 16  1  0  0  0  0
 13  2  1  0  0  0  0
 13  8  1  0  0  0  0
 14  1  1  0  0  0  0
 15  4  1  0  0  0  0
 16 17  1  1  0  0  0
 18 13  2  0  0  0  0
 20 15  2  0  0  0  0
 20 19  1  0  0  0  0
 21 27  1  0  0  0  0
 22 31  1  0  0  0  0
 23 30  1  0  0  0  0
 24 25  1  0  0  0  0
 26 22  2  0  0  0  0
 27 25  1  0  0  0  0
 28 23  1  0  0  0  0
 28 22  1  0  0  0  0
 29 24  2  0  0  0  0
 30 29  1  0  0  0  0
 30 27  2  0  0  0  0
 31 29  1  0  0  0  0
M  END
>  <MODEL>
8

>  <REMARK>
 VINA RESULT:      -7.9      1.449      1.781
  Name = 
  2 active torsions:
  status: ('A' for Active; 'I' for Inactive)
    1  A    between atoms: C_9  and  N_23
    2  A    between atoms: C_15  and  N_23
                            x       y       z     vdW  Elec       q    Type
                         _______ _______ _______ _____ _____    ______ ____

>  <TORSDO>
F 2

$$$$
=
 OpenBabel10262419333D

 31 36  0  0  1  0  0  0  0  0999 V2000
  184.5630  178.5540  139.7890 C   0  0  2  0  0  3  0  0  0  0  0  0
  188.2140  177.4730  139.3930 N   0  0  0  0  0  0  0  0  0  0  0  0
  188.3100  176.8720  138.0550 C   0  0  1  0  0  3  0  0  0  0  0  0
  188.3260  177.7140  135.7820 C   0  0  0  0  0  0  0  0  0  0  0  0
  187.0700  178.3290  139.7420 C   0  0  1  0  0  3  0  0  0  0  0  0
  184.9360  179.7430  140.5720 N   0  0  0  0  0  2  0  0  0  0  0  0
  187.8800  177.8000  137.0040 N   0  0  0  0  0  0  0  0  0  0  0  0
  188.8910  177.5130  141.8390 C   0  0  2  0  0  3  0  0  0  0  0  0
  183.4300  177.8010  140.4600 C   0  0  0  0  0  1  0  0  0  0  0  0
  190.5300  176.0790  138.7230 N   0  0  0  0  0  0  0  0  0  0  0  0
  187.7910  178.6280  134.7390 C   0  0  0  0  0  1  0  0  0  0  0  0
  187.5210  177.7540  142.0480 O   0  0  0  0  0  0  0  0  0  0  0  0
  189.1220  177.0410  140.4260 C   0  0  0  0  0  0  0  0  0  0  0  0
  185.7420  177.6090  139.5130 C   0  0  0  0  0  2  0  0  0  0  0  0
  189.3900  176.8020  135.4480 N   0  0  0  0  0  0  0  0  0  0  0  0
  187.1500  178.8190  141.2070 C   0  0  2  0  0  3  0  0  0  0  0  0
  185.8060  179.3780  141.6940 C   0  0  0  0  0  2  0  0  0  0  0  0
  190.2400  176.3840  140.0930 C   0  0  0  0  0  3  0  0  0  0  0  0
  189.6910  176.3450  137.7690 C   0  0  0  0  0  0  0  0  0  0  0  0
  190.0580  176.1650  136.3630 C   0  0  0  0  0  3  0  0  0  0  0  0
  189.3540  176.5190  142.7980 N   0  0  0  0  0  2  0  0  0  0  0  0
  188.3090  177.6640  147.7490 C   0  0  0  0  0  0  0  0  0  0  0  0
  187.7720  177.1280  145.3480 C   0  0  0  0  0  2  0  0  0  0  0  0
  191.4220  177.2770  145.7850 N   0  0  0  0  0  0  0  0  0  0  0  0
  191.4010  176.9390  144.3610 C   0  0  0  0  0  3  0  0  0  0  0  0
  187.8310  177.4140  148.8430 O   0  0  0  0  0  0  0  0  0  0  0  0
  189.9360  176.8860  144.0490 C   0  0  0  0  0  0  0  0  0  0  0  0
  187.3940  177.9550  146.5840 C   0  0  0  0  0  2  0  0  0  0  0  0
  190.2030  177.3950  146.1940 C   0  0  2  0  0  3  0  0  0  0  0  0
  189.2510  177.1790  145.1340 C   0  0  0  0  0  0  0  0  0  0  0  0
  189.8070  177.7540  147.5920 C   0  0  0  0  0  2  0  0  0  0  0  0
  1  9  1  1  0  0  0
  1  6  1  0  0  0  0
  2  5  1  0  0  0  0
  2 13  1  0  0  0  0
  3  7  1  6  0  0  0
  3  2  1  0  0  0  0
  4  7  2  0  0  0  0
  5 14  1  1  0  0  0
  5 16  1  0  0  0  0
  6 17  1  0  0  0  0
  8 12  1  0  0  0  0
  8 21  1  1  0  0  0
 10 18  1  0  0  0  0
 11  4  1  0  0  0  0
 13  8  1  0  0  0  0
 14  1  1  0  0  0  0
 15  4  1  0  0  0  0
 15 20  2  0  0  0  0
 16 17  1  1  0  0  0
 16 12  1  0  0  0  0
 18 13  2  0  0  0  0
 19  3  1  0  0  0  0
 19 10  2  0  0  0  0
 20 19  1  0  0  0  0
 21 27  1  0  0  0  0
 22 26  2  0  0  0  0
 23 28  1  0  0  0  0
 24 29  1  0  0  0  0
 25 24  2  0  0  0  0
 27 25  1  0  0  0  0
 27 30  2  0  0  0  0
 28 22  1  0  0  0  0
 29 31  1  6  0  0  0
 30 23  1  0  0  0  0
 30 29  1  0  0  0  0
 31 22  1  0  0  0  0
M  END
>  <MODEL>
9

>  <REMARK>
 VINA RESULT:      -7.7      2.565      5.910
  Name = 
  2 active torsions:
  status: ('A' for Active; 'I' for Inactive)
    1  A    between atoms: C_9  and  N_23
    2  A    between atoms: C_15  and  N_23
                            x       y       z     vdW  Elec       q    Type
                         _______ _______ _______ _____ _____    ______ ____

>  <TORSDO>
F 2

$$$$
