=
 OpenBabel10262422543D

 37 43  0  0  1  0  0  0  0  0999 V2000
  186.8380  176.3580  136.1060 C   0  0  0  0  0  2  0  0  0  0  0  0
  182.5690  177.3540  137.4270 C   0  0  1  0  0  3  0  0  0  0  0  0
  182.0360  179.9550  139.8140 O   0  0  0  0  0  0  0  0  0  0  0  0
  184.3630  175.8580  136.2190 C   0  0  2  0  0  3  0  0  0  0  0  0
  182.6680  177.7200  138.8950 C   0  0  2  0  0  3  0  0  0  0  0  0
  184.0480  177.1460  137.0100 C   0  0  2  0  0  3  0  0  0  0  0  0
  181.5990  178.6570  139.4680 C   0  0  1  0  0  0  0  0  0  0  0  0
  183.3350  174.7830  136.5150 C   0  0  0  0  0  2  0  0  0  0  0  0
  184.9140  177.3880  138.2460 C   0  0  1  0  0  3  0  0  0  0  0  0
  188.4530  177.7550  137.1570 O   0  0  0  0  0  1  0  0  0  0  0  0
  179.9520  176.5670  137.0870 S   0  0  0  0  0  0  0  0  0  0  0  0
  182.0690  175.2960  136.2160 O   0  0  0  0  0  0  0  0  0  0  0  0
  186.1980  178.0910  137.8350 C   0  0  0  0  0  2  0  0  0  0  0  0
  181.8240  179.0590  140.8870 C   0  0  1  0  0  3  0  0  0  0  0  0
  181.6950  176.0900  137.3120 C   0  0  1  0  0  3  0  0  0  0  0  0
  184.0470  178.2910  139.0840 C   0  0  2  0  0  3  0  0  0  0  0  0
  185.7760  175.3080  136.4100 C   0  0  0  0  0  2  0  0  0  0  0  0
  180.1200  178.5460  139.1020 C   0  0  2  0  0  3  0  0  0  0  0  0
  187.2510  177.0860  137.3810 C   0  0  1  0  0  3  0  0  0  0  0  0
  183.1600  178.5420  141.4870 C   0  0  1  0  0  3  0  0  0  0  0  0
  184.4170  178.3850  140.5650 C   0  0  2  0  0  3  0  0  0  0  0  0
  179.6710  177.1040  138.8110 C   0  0  0  0  0  2  0  0  0  0  0  0
  180.5950  179.7660  136.9380 C   0  0  0  0  0  3  0  0  0  0  0  0
  179.6580  179.6210  138.1080 C   0  0  2  0  0  3  0  0  0  0  0  0
  179.3820  180.8710  138.7520 O   0  0  0  0  0  0  0  0  0  0  0  0
  178.9310  183.3270  138.6890 C   0  0  0  0  0  1  0  0  0  0  0  0
  180.1880  182.1710  136.9440 C   0  0  0  0  0  3  0  0  0  0  0  0
  179.5130  182.0980  138.0910 C   0  0  0  0  0  0  0  0  0  0  0  0
  180.8050  180.9590  136.3810 C   0  0  0  0  0  3  0  0  0  0  0  0
  182.1970  179.2850  143.4290 O   0  0  0  0  0  1  0  0  0  0  0  0
  183.3970  179.0630  142.8390 N   0  0  0  0  0  0  0  0  0  0  0  0
  184.0430  178.1180  143.5680 O   0  0  0  0  0  0  0  0  0  0  0  0
  184.4480  178.7770  144.7300 C   0  0  0  0  0  1  0  0  0  0  0  0
  185.3550  179.4840  140.7430 N   0  0  0  0  0  2  0  0  0  0  0  0
  186.3280  179.0450  141.6520 N   0  0  0  0  0  2  0  0  0  0  0  0
  187.4900  178.6530  140.8730 C   0  0  0  0  0  2  0  0  0  0  0  0
  188.4040  177.7840  141.7130 C   0  0  0  0  0  1  0  0  0  0  0  0
  1 17  1  0  0  0  0
  1 19  1  0  0  0  0
  2  5  1  0  0  0  0
  3 14  1  0  0  0  0
  4 17  1  0  0  0  0
  4  8  1  0  0  0  0
  4  6  1  0  0  0  0
  5 16  1  0  0  0  0
  5  7  1  0  0  0  0
  6  2  1  0  0  0  0
  6  9  1  0  0  0  0
  7  3  1  0  0  0  0
  7 14  1  0  0  0  0
  9 16  1  0  0  0  0
 10 19  1  0  0  0  0
 11 15  1  0  0  0  0
 11 22  1  0  0  0  0
 12  8  1  0  0  0  0
 12 15  1  0  0  0  0
 13  9  1  0  0  0  0
 14 20  1  0  0  0  0
 15  2  1  0  0  0  0
 16 21  1  0  0  0  0
 18  7  1  0  0  0  0
 19 13  1  0  0  0  0
 20 31  1  0  0  0  0
 21 34  1  0  0  0  0
 21 20  1  0  0  0  0
 22 18  1  0  0  0  0
 23 24  1  0  0  0  0
 24 25  1  0  0  0  0
 24 18  1  0  0  0  0
 27 28  2  0  0  0  0
 28 26  1  0  0  0  0
 28 25  1  0  0  0  0
 29 23  2  0  0  0  0
 29 27  1  0  0  0  0
 31 30  1  0  0  0  0
 31 32  1  0  0  0  0
 32 33  1  0  0  0  0
 34 35  1  0  0  0  0
 36 35  1  0  0  0  0
 36 37  1  0  0  0  0
M  END
>  <MODEL>
1

>  <REMARK>
 VINA RESULT:      -6.1      0.000      0.000
  Name = 
  6 active torsions:
  status: ('A' for Active; 'I' for Inactive)
    1  A    between atoms: N_1  and  N_23
    2  A    between atoms: N_1  and  C_36
    3  A    between atoms: C_5  and  N_23
    4  A    between atoms: C_6  and  C_31
    5  A    between atoms: O_11  and  N_26
    6  A    between atoms: N_26  and  C_33
                            x       y       z     vdW  Elec       q    Type
                         _______ _______ _______ _____ _____    ______ ____

>  <TORSDO>
F 6

$$$$
=
 OpenBabel10262422543D

 37 43  0  0  1  0  0  0  0  0999 V2000
  185.4210  174.3610  134.8500 C   0  0  0  0  0  2  0  0  0  0  0  0
  182.3460  176.5680  137.4250 C   0  0  1  0  0  3  0  0  0  0  0  0
  183.1780  179.7550  138.8020 O   0  0  0  0  0  0  0  0  0  0  0  0
  183.2550  174.4550  136.1490 C   0  0  2  0  0  3  0  0  0  0  0  0
  183.1440  177.2750  138.5020 C   0  0  2  0  0  3  0  0  0  0  0  0
  183.4400  175.9430  136.5220 C   0  0  2  0  0  3  0  0  0  0  0  0
  182.5370  178.5370  139.1240 C   0  0  1  0  0  0  0  0  0  0  0  0
  182.4100  173.7440  137.1880 C   0  0  0  0  0  2  0  0  0  0  0  0
  184.7970  176.3070  137.1230 C   0  0  1  0  0  3  0  0  0  0  0  0
  187.4370  175.6020  134.5960 O   0  0  0  0  0  1  0  0  0  0  0  0
  179.8230  176.3040  138.4970 S   0  0  0  0  0  0  0  0  0  0  0  0
  181.1900  174.4220  137.2950 O   0  0  0  0  0  0  0  0  0  0  0  0
  185.7890  176.5830  136.0030 C   0  0  0  0  0  2  0  0  0  0  0  0
  183.4260  179.2390  140.0950 C   0  0  1  0  0  3  0  0  0  0  0  0
  181.4300  175.5370  138.1150 C   0  0  1  0  0  3  0  0  0  0  0  0
  184.4890  177.5640  137.8940 C   0  0  2  0  0  3  0  0  0  0  0  0
  184.5510  173.6830  135.9010 C   0  0  0  0  0  2  0  0  0  0  0  0
  181.0540  178.6570  139.4710 C   0  0  2  0  0  3  0  0  0  0  0  0
  186.4330  175.2910  135.5120 C   0  0  1  0  0  3  0  0  0  0  0  0
  184.8460  178.6220  140.2130 C   0  0  1  0  0  3  0  0  0  0  0  0
  185.5130  177.9610  138.9590 C   0  0  2  0  0  3  0  0  0  0  0  0
  180.4180  177.3220  139.8930 C   0  0  0  0  0  2  0  0  0  0  0  0
  180.9110  179.5530  137.1110 C   0  0  0  0  0  3  0  0  0  0  0  0
  180.2610  179.5070  138.4690 C   0  0  2  0  0  3  0  0  0  0  0  0
  179.9620  180.8110  138.9830 O   0  0  0  0  0  0  0  0  0  0  0  0
  179.1900  183.1690  138.6880 C   0  0  0  0  0  1  0  0  0  0  0  0
  180.2030  181.8760  136.8810 C   0  0  0  0  0  3  0  0  0  0  0  0
  179.7930  181.9230  138.1480 C   0  0  0  0  0  0  0  0  0  0  0  0
  180.8450  180.6570  136.3650 C   0  0  0  0  0  3  0  0  0  0  0  0
  185.0150  179.7940  142.1750 O   0  0  0  0  0  1  0  0  0  0  0  0
  185.7230  179.4150  141.0830 N   0  0  0  0  0  0  0  0  0  0  0  0
  186.7450  178.6320  141.5100 O   0  0  0  0  0  0  0  0  0  0  0  0
  186.3380  178.1600  142.7580 C   0  0  0  0  0  1  0  0  0  0  0  0
  186.5030  178.8380  138.3510 N   0  0  0  0  0  2  0  0  0  0  0  0
  187.7580  178.2590  138.5850 N   0  0  0  0  0  2  0  0  0  0  0  0
  188.6080  178.6220  137.4650 C   0  0  0  0  0  2  0  0  0  0  0  0
  189.3600  177.4020  136.9720 C   0  0  0  0  0  1  0  0  0  0  0  0
  1 19  1  0  0  0  0
  1 17  1  0  0  0  0
  2 15  1  0  0  0  0
  2  5  1  0  0  0  0
  3  7  1  0  0  0  0
  3 14  1  0  0  0  0
  4  6  1  0  0  0  0
  4  8  1  0  0  0  0
  5  7  1  0  0  0  0
  6  9  1  0  0  0  0
  6  2  1  0  0  0  0
  7 18  1  0  0  0  0
  7 14  1  0  0  0  0
  8 12  1  0  0  0  0
  9 16  1  0  0  0  0
 10 19  1  0  0  0  0
 11 22  1  0  0  0  0
 12 15  1  0  0  0  0
 13  9  1  0  0  0  0
 14 20  1  0  0  0  0
 15 11  1  0  0  0  0
 16  5  1  0  0  0  0
 16 21  1  0  0  0  0
 17  4  1  0  0  0  0
 18 22  1  0  0  0  0
 19 13  1  0  0  0  0
 20 31  1  0  0  0  0
 21 20  1  0  0  0  0
 23 24  1  0  0  0  0
 24 25  1  0  0  0  0
 24 18  1  0  0  0  0
 27 28  2  0  0  0  0
 28 26  1  0  0  0  0
 28 25  1  0  0  0  0
 29 27  1  0  0  0  0
 29 23  2  0  0  0  0
 31 32  1  0  0  0  0
 31 30  1  0  0  0  0
 32 33  1  0  0  0  0
 34 35  1  0  0  0  0
 34 21  1  0  0  0  0
 36 35  1  0  0  0  0
 37 36  1  0  0  0  0
M  END
>  <MODEL>
2

>  <REMARK>
 VINA RESULT:      -6.1      1.599      2.143
  Name = 
  6 active torsions:
  status: ('A' for Active; 'I' for Inactive)
    1  A    between atoms: N_1  and  N_23
    2  A    between atoms: N_1  and  C_36
    3  A    between atoms: C_5  and  N_23
    4  A    between atoms: C_6  and  C_31
    5  A    between atoms: O_11  and  N_26
    6  A    between atoms: N_26  and  C_33
                            x       y       z     vdW  Elec       q    Type
                         _______ _______ _______ _____ _____    ______ ____

>  <TORSDO>
F 6

$$$$
=
 OpenBabel10262422543D

 37 43  0  0  1  0  0  0  0  0999 V2000
  186.4920  177.7530  146.2300 C   0  0  0  0  0  2  0  0  0  0  0  0
  184.5200  178.1050  142.1130 C   0  0  1  0  0  3  0  0  0  0  0  0
  186.3020  177.0170  139.2170 O   0  0  0  0  0  0  0  0  0  0  0  0
  184.6710  178.5950  144.6930 C   0  0  2  0  0  3  0  0  0  0  0  0
  185.6370  178.4530  141.1510 C   0  0  2  0  0  3  0  0  0  0  0  0
  185.2610  177.8820  143.4560 C   0  0  2  0  0  3  0  0  0  0  0  0
  185.4610  178.0530  139.6820 C   0  0  1  0  0  0  0  0  0  0  0  0
  183.8790  179.8190  144.2770 C   0  0  0  0  0  2  0  0  0  0  0  0
  186.7500  178.1210  143.2060 C   0  0  1  0  0  3  0  0  0  0  0  0
  188.6660  176.7890  146.1050 O   0  0  0  0  0  1  0  0  0  0  0  0
  182.2330  179.0080  140.8730 S   0  0  0  0  0  0  0  0  0  0  0  0
  182.8900  179.4120  143.3750 O   0  0  0  0  0  0  0  0  0  0  0  0
  187.5660  177.1320  144.0240 C   0  0  0  0  0  2  0  0  0  0  0  0
  186.6450  178.3290  138.8180 C   0  0  1  0  0  3  0  0  0  0  0  0
  183.5240  179.2810  142.1280 C   0  0  1  0  0  3  0  0  0  0  0  0
  186.8840  177.8450  141.7310 C   0  0  2  0  0  3  0  0  0  0  0  0
  185.6860  178.9630  145.7750 C   0  0  0  0  0  2  0  0  0  0  0  0
  184.1310  178.1910  138.9410 C   0  0  2  0  0  3  0  0  0  0  0  0
  187.7940  177.6500  145.4400 C   0  0  1  0  0  3  0  0  0  0  0  0
  187.8800  178.8690  139.5900 C   0  0  1  0  0  3  0  0  0  0  0  0
  188.1430  178.3980  141.0610 C   0  0  2  0  0  3  0  0  0  0  0  0
  183.2850  179.3800  139.4250 C   0  0  0  0  0  2  0  0  0  0  0  0
  183.8120  176.1360  137.5010 C   0  0  0  0  0  3  0  0  0  0  0  0
  183.3960  176.8560  138.7580 C   0  0  2  0  0  3  0  0  0  0  0  0
  181.9750  177.0020  138.8660 O   0  0  0  0  0  0  0  0  0  0  0  0
  179.6460  176.1410  138.5830 C   0  0  0  0  0  1  0  0  0  0  0  0
  181.5150  175.3680  137.2130 C   0  0  0  0  0  3  0  0  0  0  0  0
  181.0830  176.1490  138.2040 C   0  0  0  0  0  0  0  0  0  0  0  0
  182.9290  175.4150  136.8100 C   0  0  0  0  0  3  0  0  0  0  0  0
  189.5160  177.7690  138.4220 O   0  0  0  0  0  1  0  0  0  0  0  0
  189.0570  179.0080  138.7240 N   0  0  0  0  0  0  0  0  0  0  0  0
  188.6810  179.5980  137.5620 O   0  0  0  0  0  0  0  0  0  0  0  0
  189.0540  178.6960  136.5640 C   0  0  0  0  0  1  0  0  0  0  0  0
  189.1880  177.3860  141.1230 N   0  0  0  0  0  2  0  0  0  0  0  0
  190.1960  177.8940  141.9550 N   0  0  0  0  0  2  0  0  0  0  0  0
  190.9310  176.7530  142.4740 C   0  0  0  0  0  2  0  0  0  0  0  0
  191.3900  177.0370  143.8910 C   0  0  0  0  0  1  0  0  0  0  0  0
  2 15  1  0  0  0  0
  2  6  1  0  0  0  0
  3  7  1  0  0  0  0
  4 17  1  0  0  0  0
  5 16  1  0  0  0  0
  5  2  1  0  0  0  0
  6  4  1  0  0  0  0
  7  5  1  0  0  0  0
  8  4  1  0  0  0  0
  9  6  1  0  0  0  0
  9 13  1  0  0  0  0
 11 15  1  0  0  0  0
 12  8  1  0  0  0  0
 13 19  1  0  0  0  0
 14  3  1  0  0  0  0
 14 20  1  0  0  0  0
 14  7  1  0  0  0  0
 15 12  1  0  0  0  0
 16  9  1  0  0  0  0
 17  1  1  0  0  0  0
 18 22  1  0  0  0  0
 18  7  1  0  0  0  0
 19 10  1  0  0  0  0
 19  1  1  0  0  0  0
 20 21  1  0  0  0  0
 21 34  1  0  0  0  0
 21 16  1  0  0  0  0
 22 11  1  0  0  0  0
 23 24  1  0  0  0  0
 24 25  1  0  0  0  0
 24 18  1  0  0  0  0
 27 28  2  0  0  0  0
 28 26  1  0  0  0  0
 28 25  1  0  0  0  0
 29 27  1  0  0  0  0
 29 23  2  0  0  0  0
 30 31  1  0  0  0  0
 31 20  1  0  0  0  0
 32 31  1  0  0  0  0
 33 32  1  0  0  0  0
 34 35  1  0  0  0  0
 35 36  1  0  0  0  0
 36 37  1  0  0  0  0
M  END
>  <MODEL>
3

>  <REMARK>
 VINA RESULT:      -6.0      2.935      6.472
  Name = 
  6 active torsions:
  status: ('A' for Active; 'I' for Inactive)
    1  A    between atoms: N_1  and  N_23
    2  A    between atoms: N_1  and  C_36
    3  A    between atoms: C_5  and  N_23
    4  A    between atoms: C_6  and  C_31
    5  A    between atoms: O_11  and  N_26
    6  A    between atoms: N_26  and  C_33
                            x       y       z     vdW  Elec       q    Type
                         _______ _______ _______ _____ _____    ______ ____

>  <TORSDO>
F 6

$$$$
=
 OpenBabel10262422543D

 37 43  0  0  1  0  0  0  0  0999 V2000
  187.8120  175.6500  134.7780 C   0  0  0  0  0  2  0  0  0  0  0  0
  184.1270  177.5030  136.7640 C   0  0  1  0  0  3  0  0  0  0  0  0
  184.5530  180.1380  139.1350 O   0  0  0  0  0  0  0  0  0  0  0  0
  185.3420  175.6760  135.3150 C   0  0  2  0  0  3  0  0  0  0  0  0
  184.5460  177.8280  138.1850 C   0  0  2  0  0  3  0  0  0  0  0  0
  185.4380  176.9950  136.1130 C   0  0  2  0  0  3  0  0  0  0  0  0
  183.8050  178.9620  138.9020 C   0  0  1  0  0  0  0  0  0  0  0  0
  184.1800  174.8360  135.8080 C   0  0  0  0  0  2  0  0  0  0  0  0
  186.5310  177.0410  137.1810 C   0  0  1  0  0  3  0  0  0  0  0  0
  189.8350  176.6710  135.5070 O   0  0  0  0  0  1  0  0  0  0  0  0
  181.3840  177.2810  136.8860 S   0  0  0  0  0  0  0  0  0  0  0  0
  183.0150  175.6040  135.7090 O   0  0  0  0  0  0  0  0  0  0  0  0
  187.8450  177.4640  136.5420 C   0  0  0  0  0  2  0  0  0  0  0  0
  184.3440  179.2970  140.2530 C   0  0  1  0  0  3  0  0  0  0  0  0
  183.0040  176.4500  136.8310 C   0  0  1  0  0  3  0  0  0  0  0  0
  186.0240  178.0980  138.1260 C   0  0  2  0  0  3  0  0  0  0  0  0
  186.6230  174.8420  135.2830 C   0  0  0  0  0  2  0  0  0  0  0  0
  182.2950  179.1650  138.7900 C   0  0  2  0  0  3  0  0  0  0  0  0
  188.5760  176.2660  135.9470 C   0  0  1  0  0  3  0  0  0  0  0  0
  185.6260  178.5080  140.6350 C   0  0  1  0  0  3  0  0  0  0  0  0
  186.6500  178.1000  139.5210 C   0  0  2  0  0  3  0  0  0  0  0  0
  181.5160  177.8510  138.6180 C   0  0  0  0  0  2  0  0  0  0  0  0
  181.4470  181.5410  138.6160 C   0  0  0  0  0  3  0  0  0  0  0  0
  181.9040  180.3210  137.8590 C   0  0  2  0  0  3  0  0  0  0  0  0
  180.9700  179.9130  136.8530 O   0  0  0  0  0  0  0  0  0  0  0  0
  179.3190  180.4200  135.0470 C   0  0  0  0  0  1  0  0  0  0  0  0
  179.7980  181.9720  136.8710 C   0  0  0  0  0  3  0  0  0  0  0  0
  180.0470  180.8010  136.2850 C   0  0  0  0  0  0  0  0  0  0  0  0
  180.4860  182.3230  138.1230 C   0  0  0  0  0  3  0  0  0  0  0  0
  185.2810  179.7540  142.5280 O   0  0  0  0  0  1  0  0  0  0  0  0
  186.1900  178.9570  141.9150 N   0  0  0  0  0  0  0  0  0  0  0  0
  186.3900  177.8770  142.7110 O   0  0  0  0  0  0  0  0  0  0  0  0
  185.8230  178.2260  143.9380 C   0  0  0  0  0  1  0  0  0  0  0  0
  187.8110  178.9780  139.5110 N   0  0  0  0  0  2  0  0  0  0  0  0
  188.8210  178.3250  140.2320 N   0  0  0  0  0  2  0  0  0  0  0  0
  189.8070  177.8720  139.2670 C   0  0  0  0  0  2  0  0  0  0  0  0
  190.8970  177.0910  139.9720 C   0  0  0  0  0  1  0  0  0  0  0  0
  1 17  1  0  0  0  0
  1 19  1  0  0  0  0
  2 15  1  0  0  0  0
  2  5  1  0  0  0  0
  3 14  1  0  0  0  0
  4  8  1  0  0  0  0
  4  6  1  0  0  0  0
  5  7  1  0  0  0  0
  6  2  1  0  0  0  0
  6  9  1  0  0  0  0
  7  3  1  0  0  0  0
  7 14  1  0  0  0  0
  9 16  1  0  0  0  0
 10 19  1  0  0  0  0
 11 22  1  0  0  0  0
 12  8  1  0  0  0  0
 12 15  1  0  0  0  0
 13  9  1  0  0  0  0
 14 20  1  0  0  0  0
 15 11  1  0  0  0  0
 16  5  1  0  0  0  0
 16 21  1  0  0  0  0
 17  4  1  0  0  0  0
 18  7  1  0  0  0  0
 19 13  1  0  0  0  0
 20 31  1  0  0  0  0
 21 20  1  0  0  0  0
 22 18  1  0  0  0  0
 24 23  1  0  0  0  0
 24 18  1  0  0  0  0
 25 24  1  0  0  0  0
 26 28  1  0  0  0  0
 27 29  1  0  0  0  0
 28 25  1  0  0  0  0
 28 27  2  0  0  0  0
 29 23  2  0  0  0  0
 31 30  1  0  0  0  0
 31 32  1  0  0  0  0
 32 33  1  0  0  0  0
 34 21  1  0  0  0  0
 34 35  1  0  0  0  0
 36 37  1  0  0  0  0
 36 35  1  0  0  0  0
M  END
>  <MODEL>
4

>  <REMARK>
 VINA RESULT:      -6.0      1.726      2.347
  Name = 
  6 active torsions:
  status: ('A' for Active; 'I' for Inactive)
    1  A    between atoms: N_1  and  N_23
    2  A    between atoms: N_1  and  C_36
    3  A    between atoms: C_5  and  N_23
    4  A    between atoms: C_6  and  C_31
    5  A    between atoms: O_11  and  N_26
    6  A    between atoms: N_26  and  C_33
                            x       y       z     vdW  Elec       q    Type
                         _______ _______ _______ _____ _____    ______ ____

>  <TORSDO>
F 6

$$$$
=
 OpenBabel10262422543D

 37 43  0  0  1  0  0  0  0  0999 V2000
  179.7950  179.3550  141.4180 C   0  0  0  0  0  2  0  0  0  0  0  0
  181.5330  177.5820  137.5710 C   0  0  1  0  0  3  0  0  0  0  0  0
  184.8290  176.2110  137.6070 O   0  0  0  0  0  0  0  0  0  0  0  0
  179.7450  178.9580  138.9220 C   0  0  2  0  0  3  0  0  0  0  0  0
  183.0100  177.9230  137.5930 C   0  0  2  0  0  3  0  0  0  0  0  0
  181.0270  178.0980  138.9430 C   0  0  2  0  0  3  0  0  0  0  0  0
  183.9630  177.0040  136.8210 C   0  0  1  0  0  0  0  0  0  0  0  0
  179.5700  179.6260  137.5720 C   0  0  0  0  0  2  0  0  0  0  0  0
  182.2220  178.7130  139.6720 C   0  0  1  0  0  3  0  0  0  0  0  0
  181.3070  179.1840  143.2490 O   0  0  0  0  0  1  0  0  0  0  0  0
  180.9540  177.1880  134.9080 S   0  0  0  0  0  0  0  0  0  0  0  0
  179.5590  178.6290  136.5910 O   0  0  0  0  0  0  0  0  0  0  0  0
  182.1230  178.3990  141.1570 C   0  0  0  0  0  2  0  0  0  0  0  0
  185.4090  177.3370  136.9780 C   0  0  1  0  0  3  0  0  0  0  0  0
  180.9010  178.2910  136.3570 C   0  0  1  0  0  3  0  0  0  0  0  0
  183.3920  178.0030  139.0450 C   0  0  2  0  0  3  0  0  0  0  0  0
  179.6390  179.9930  140.0430 C   0  0  0  0  0  2  0  0  0  0  0  0
  183.6250  176.4280  135.4470 C   0  0  2  0  0  3  0  0  0  0  0  0
  181.2490  179.4200  141.8760 C   0  0  1  0  0  3  0  0  0  0  0  0
  185.6870  178.4870  137.9850 C   0  0  1  0  0  3  0  0  0  0  0  0
  184.7550  178.6720  139.2310 C   0  0  2  0  0  3  0  0  0  0  0  0
  182.7470  177.3600  134.5960 C   0  0  0  0  0  2  0  0  0  0  0  0
  182.3380  174.6310  136.6750 C   0  0  0  0  0  3  0  0  0  0  0  0
  183.2130  174.9500  135.4910 C   0  0  2  0  0  3  0  0  0  0  0  0
  184.3400  174.0710  135.3850 O   0  0  0  0  0  0  0  0  0  0  0  0
  185.3930  171.8120  135.5610 C   0  0  0  0  0  1  0  0  0  0  0  0
  183.4330  172.4600  136.8650 C   0  0  0  0  0  3  0  0  0  0  0  0
  184.3450  172.7910  135.9520 C   0  0  0  0  0  0  0  0  0  0  0  0
  182.4270  173.4480  137.2840 C   0  0  0  0  0  3  0  0  0  0  0  0
  187.7320  177.4870  138.2420 O   0  0  0  0  0  1  0  0  0  0  0  0
  187.1240  178.6980  138.2010 N   0  0  0  0  0  0  0  0  0  0  0  0
  187.6340  179.3760  137.1420 O   0  0  0  0  0  0  0  0  0  0  0  0
  188.9920  179.0540  137.1310 C   0  0  0  0  0  1  0  0  0  0  0  0
  185.3690  178.1510  140.4430 N   0  0  0  0  0  2  0  0  0  0  0  0
  185.5120  179.2330  141.3240 N   0  0  0  0  0  2  0  0  0  0  0  0
  185.6070  178.6800  142.6640 C   0  0  0  0  0  2  0  0  0  0  0  0
  184.7610  179.4970  143.6200 C   0  0  0  0  0  1  0  0  0  0  0  0
  1 19  1  0  0  0  0
  2  5  1  0  0  0  0
  2  6  1  0  0  0  0
  4  6  1  0  0  0  0
  4 17  1  0  0  0  0
  5 16  1  0  0  0  0
  6  9  1  0  0  0  0
  7 14  1  0  0  0  0
  7  5  1  0  0  0  0
  7  3  1  0  0  0  0
  8  4  1  0  0  0  0
  9 13  1  0  0  0  0
 11 15  1  0  0  0  0
 12  8  1  0  0  0  0
 13 19  1  0  0  0  0
 14  3  1  0  0  0  0
 14 20  1  0  0  0  0
 15 12  1  0  0  0  0
 15  2  1  0  0  0  0
 16 21  1  0  0  0  0
 16  9  1  0  0  0  0
 17  1  1  0  0  0  0
 18 24  1  0  0  0  0
 18  7  1  0  0  0  0
 19 10  1  0  0  0  0
 20 31  1  0  0  0  0
 20 21  1  0  0  0  0
 21 34  1  0  0  0  0
 22 11  1  0  0  0  0
 22 18  1  0  0  0  0
 23 29  2  0  0  0  0
 24 23  1  0  0  0  0
 25 24  1  0  0  0  0
 25 28  1  0  0  0  0
 26 28  1  0  0  0  0
 27 29  1  0  0  0  0
 28 27  2  0  0  0  0
 31 30  1  0  0  0  0
 32 31  1  0  0  0  0
 33 32  1  0  0  0  0
 34 35  1  0  0  0  0
 35 36  1  0  0  0  0
 36 37  1  0  0  0  0
M  END
>  <MODEL>
5

>  <REMARK>
 VINA RESULT:      -6.0      1.913      6.371
  Name = 
  6 active torsions:
  status: ('A' for Active; 'I' for Inactive)
    1  A    between atoms: N_1  and  N_23
    2  A    between atoms: N_1  and  C_36
    3  A    between atoms: C_5  and  N_23
    4  A    between atoms: C_6  and  C_31
    5  A    between atoms: O_11  and  N_26
    6  A    between atoms: N_26  and  C_33
                            x       y       z     vdW  Elec       q    Type
                         _______ _______ _______ _____ _____    ______ ____

>  <TORSDO>
F 6

$$$$
=
 OpenBabel10262422543D

 37 43  0  0  1  0  0  0  0  0999 V2000
  180.9360  179.1900  143.4350 C   0  0  0  0  0  2  0  0  0  0  0  0
  181.3620  177.7860  139.0980 C   0  0  1  0  0  3  0  0  0  0  0  0
  184.4290  176.3030  138.0300 O   0  0  0  0  0  0  0  0  0  0  0  0
  180.1380  179.0690  141.0400 C   0  0  2  0  0  3  0  0  0  0  0  0
  182.8010  178.0700  138.7140 C   0  0  2  0  0  3  0  0  0  0  0  0
  181.3120  178.1670  140.6000 C   0  0  2  0  0  3  0  0  0  0  0  0
  183.4260  177.2070  137.6130 C   0  0  1  0  0  0  0  0  0  0  0  0
  179.6230  179.8860  139.8710 C   0  0  0  0  0  2  0  0  0  0  0  0
  182.7040  178.6570  140.9980 C   0  0  1  0  0  3  0  0  0  0  0  0
  182.9000  178.7680  144.7130 O   0  0  0  0  0  1  0  0  0  0  0  0
  180.0100  177.7050  136.7010 S   0  0  0  0  0  0  0  0  0  0  0  0
  179.2610  179.0020  138.8480 O   0  0  0  0  0  0  0  0  0  0  0  0
  183.0210  178.1870  142.4100 C   0  0  0  0  0  2  0  0  0  0  0  0
  184.8740  177.4700  137.3660 C   0  0  1  0  0  3  0  0  0  0  0  0
  180.4530  178.6440  138.1970 C   0  0  1  0  0  3  0  0  0  0  0  0
  183.5920  177.9780  139.9890 C   0  0  2  0  0  3  0  0  0  0  0  0
  180.4310  179.9790  142.2340 C   0  0  0  0  0  2  0  0  0  0  0  0
  182.6660  176.7960  136.3520 C   0  0  2  0  0  3  0  0  0  0  0  0
  182.4620  179.1540  143.4470 C   0  0  1  0  0  3  0  0  0  0  0  0
  185.5070  178.4930  138.3480 C   0  0  1  0  0  3  0  0  0  0  0  0
  184.9910  178.5740  139.8250 C   0  0  2  0  0  3  0  0  0  0  0  0
  181.6420  177.8460  135.8900 C   0  0  0  0  0  2  0  0  0  0  0  0
  181.5370  174.9220  135.0840 C   0  0  0  0  0  3  0  0  0  0  0  0
  182.1890  175.3380  136.3780 C   0  0  2  0  0  3  0  0  0  0  0  0
  181.3750  175.0540  137.5220 O   0  0  0  0  0  0  0  0  0  0  0  0
  179.7850  173.6000  138.7870 C   0  0  0  0  0  1  0  0  0  0  0  0
  179.9540  173.5650  136.3510 C   0  0  0  0  0  3  0  0  0  0  0  0
  180.3840  174.0660  137.5090 C   0  0  0  0  0  0  0  0  0  0  0  0
  180.5160  174.0640  135.0860 C   0  0  0  0  0  3  0  0  0  0  0  0
  187.5000  177.3870  138.1170 O   0  0  0  0  0  1  0  0  0  0  0  0
  186.9550  178.6280  138.1480 N   0  0  0  0  0  0  0  0  0  0  0  0
  187.1820  179.2050  136.9410 O   0  0  0  0  0  0  0  0  0  0  0  0
  188.3680  178.6280  136.4850 C   0  0  0  0  0  1  0  0  0  0  0  0
  185.8960  177.9030  140.7480 N   0  0  0  0  0  2  0  0  0  0  0  0
  186.3620  178.8780  141.6420 N   0  0  0  0  0  2  0  0  0  0  0  0
  187.2160  178.1990  142.6010 C   0  0  0  0  0  2  0  0  0  0  0  0
  186.4280  177.8780  143.8560 C   0  0  0  0  0  1  0  0  0  0  0  0
  1 19  1  0  0  0  0
  2  6  1  0  0  0  0
  4 17  1  0  0  0  0
  5  2  1  0  0  0  0
  5 16  1  0  0  0  0
  6  9  1  0  0  0  0
  6  4  1  0  0  0  0
  7  3  1  0  0  0  0
  7  5  1  0  0  0  0
  8  4  1  0  0  0  0
  9 13  1  0  0  0  0
 11 15  1  0  0  0  0
 12  8  1  0  0  0  0
 13 19  1  0  0  0  0
 14  7  1  0  0  0  0
 14  3  1  0  0  0  0
 14 20  1  0  0  0  0
 15 12  1  0  0  0  0
 15  2  1  0  0  0  0
 16  9  1  0  0  0  0
 17  1  1  0  0  0  0
 18 24  1  0  0  0  0
 18  7  1  0  0  0  0
 19 10  1  0  0  0  0
 20 21  1  0  0  0  0
 21 16  1  0  0  0  0
 21 34  1  0  0  0  0
 22 18  1  0  0  0  0
 22 11  1  0  0  0  0
 23 29  2  0  0  0  0
 23 24  1  0  0  0  0
 24 25  1  0  0  0  0
 27 28  2  0  0  0  0
 28 25  1  0  0  0  0
 28 26  1  0  0  0  0
 29 27  1  0  0  0  0
 30 31  1  0  0  0  0
 31 20  1  0  0  0  0
 32 31  1  0  0  0  0
 33 32  1  0  0  0  0
 34 35  1  0  0  0  0
 35 36  1  0  0  0  0
 36 37  1  0  0  0  0
M  END
>  <MODEL>
6

>  <REMARK>
 VINA RESULT:      -5.7      1.900      5.873
  Name = 
  6 active torsions:
  status: ('A' for Active; 'I' for Inactive)
    1  A    between atoms: N_1  and  N_23
    2  A    between atoms: N_1  and  C_36
    3  A    between atoms: C_5  and  N_23
    4  A    between atoms: C_6  and  C_31
    5  A    between atoms: O_11  and  N_26
    6  A    between atoms: N_26  and  C_33
                            x       y       z     vdW  Elec       q    Type
                         _______ _______ _______ _____ _____    ______ ____

>  <TORSDO>
F 6

$$$$
=
 OpenBabel10262422543D

 37 43  0  0  1  0  0  0  0  0999 V2000
  183.6420  178.8920  145.0190 C   0  0  0  0  0  2  0  0  0  0  0  0
  182.0880  177.8990  140.8290 C   0  0  1  0  0  3  0  0  0  0  0  0
  184.3240  176.5200  138.4120 O   0  0  0  0  0  0  0  0  0  0  0  0
  181.8810  178.9970  143.2100 C   0  0  2  0  0  3  0  0  0  0  0  0
  183.2280  178.2160  139.8820 C   0  0  2  0  0  3  0  0  0  0  0  0
  182.7090  178.1380  142.2290 C   0  0  2  0  0  3  0  0  0  0  0  0
  183.2780  177.4600  138.5510 C   0  0  1  0  0  0  0  0  0  0  0  0
  180.9440  179.9200  142.4540 C   0  0  0  0  0  2  0  0  0  0  0  0
  184.1560  178.5870  142.0210 C   0  0  1  0  0  3  0  0  0  0  0  0
  185.9470  178.3510  145.2740 O   0  0  0  0  0  1  0  0  0  0  0  0
  179.8280  178.0440  139.2620 S   0  0  0  0  0  0  0  0  0  0  0  0
  180.1390  179.1360  141.6210 O   0  0  0  0  0  0  0  0  0  0  0  0
  185.0330  177.9870  143.1080 C   0  0  0  0  0  2  0  0  0  0  0  0
  184.4850  177.7430  137.7210 C   0  0  1  0  0  3  0  0  0  0  0  0
  180.9140  178.8390  140.4880 C   0  0  1  0  0  3  0  0  0  0  0  0
  184.4900  178.0050  140.6720 C   0  0  2  0  0  3  0  0  0  0  0  0
  182.6990  179.7900  144.2290 C   0  0  0  0  0  2  0  0  0  0  0  0
  182.0310  177.1690  137.7170 C   0  0  2  0  0  3  0  0  0  0  0  0
  185.0190  178.8540  144.3630 C   0  0  1  0  0  3  0  0  0  0  0  0
  185.5240  178.6690  138.4110 C   0  0  1  0  0  3  0  0  0  0  0  0
  185.7030  178.6130  139.9670 C   0  0  2  0  0  3  0  0  0  0  0  0
  180.9520  178.2590  137.8360 C   0  0  0  0  0  2  0  0  0  0  0  0
  180.5820  175.3450  136.7330 C   0  0  0  0  0  3  0  0  0  0  0  0
  181.5510  175.7150  137.8250 C   0  0  2  0  0  3  0  0  0  0  0  0
  181.0550  175.4050  139.1330 O   0  0  0  0  0  0  0  0  0  0  0  0
  179.8180  173.9290  140.7250 C   0  0  0  0  0  1  0  0  0  0  0  0
  179.3550  173.9660  138.3270 C   0  0  0  0  0  3  0  0  0  0  0  0
  180.0760  174.4270  139.3490 C   0  0  0  0  0  0  0  0  0  0  0  0
  179.5810  174.4970  136.9740 C   0  0  0  0  0  3  0  0  0  0  0  0
  187.5650  177.7730  137.8800 O   0  0  0  0  0  1  0  0  0  0  0  0
  186.7460  178.8210  137.6130 N   0  0  0  0  0  0  0  0  0  0  0  0
  186.4230  178.7620  136.2970 O   0  0  0  0  0  0  0  0  0  0  0  0
  187.4700  178.0560  135.7010 C   0  0  0  0  0  1  0  0  0  0  0  0
  186.8890  177.8570  140.3430 N   0  0  0  0  0  2  0  0  0  0  0  0
  187.6580  178.6920  141.1660 N   0  0  0  0  0  2  0  0  0  0  0  0
  188.8240  177.9280  141.5740 C   0  0  0  0  0  2  0  0  0  0  0  0
  188.4250  176.8860  142.6010 C   0  0  0  0  0  1  0  0  0  0  0  0
  2  6  1  0  0  0  0
  3  7  1  0  0  0  0
  4 17  1  0  0  0  0
  5 16  1  0  0  0  0
  5  2  1  0  0  0  0
  6  4  1  0  0  0  0
  7  5  1  0  0  0  0
  8  4  1  0  0  0  0
  9  6  1  0  0  0  0
  9 13  1  0  0  0  0
 11 15  1  0  0  0  0
 12  8  1  0  0  0  0
 13 19  1  0  0  0  0
 14 20  1  0  0  0  0
 14  3  1  0  0  0  0
 14  7  1  0  0  0  0
 15  2  1  0  0  0  0
 15 12  1  0  0  0  0
 16  9  1  0  0  0  0
 17  1  1  0  0  0  0
 18 24  1  0  0  0  0
 18 22  1  0  0  0  0
 18  7  1  0  0  0  0
 19  1  1  0  0  0  0
 19 10  1  0  0  0  0
 20 21  1  0  0  0  0
 21 34  1  0  0  0  0
 21 16  1  0  0  0  0
 22 11  1  0  0  0  0
 23 29  2  0  0  0  0
 23 24  1  0  0  0  0
 24 25  1  0  0  0  0
 25 28  1  0  0  0  0
 27 28  2  0  0  0  0
 28 26  1  0  0  0  0
 29 27  1  0  0  0  0
 31 30  1  0  0  0  0
 31 20  1  0  0  0  0
 32 31  1  0  0  0  0
 33 32  1  0  0  0  0
 34 35  1  0  0  0  0
 35 36  1  0  0  0  0
 36 37  1  0  0  0  0
M  END
>  <MODEL>
7

>  <REMARK>
 VINA RESULT:      -5.4      2.340      5.895
  Name = 
  6 active torsions:
  status: ('A' for Active; 'I' for Inactive)
    1  A    between atoms: N_1  and  N_23
    2  A    between atoms: N_1  and  C_36
    3  A    between atoms: C_5  and  N_23
    4  A    between atoms: C_6  and  C_31
    5  A    between atoms: O_11  and  N_26
    6  A    between atoms: N_26  and  C_33
                            x       y       z     vdW  Elec       q    Type
                         _______ _______ _______ _____ _____    ______ ____

>  <TORSDO>
F 6

$$$$
=
 OpenBabel10262422543D

 37 43  0  0  1  0  0  0  0  0999 V2000
  186.5500  177.6370  145.1680 C   0  0  0  0  0  2  0  0  0  0  0  0
  183.9980  178.1470  141.4020 C   0  0  1  0  0  3  0  0  0  0  0  0
  185.3160  177.1380  138.2420 O   0  0  0  0  0  0  0  0  0  0  0  0
  184.5360  178.5490  143.9450 C   0  0  2  0  0  3  0  0  0  0  0  0
  184.9660  178.5150  140.2960 C   0  0  2  0  0  3  0  0  0  0  0  0
  184.9250  177.8720  142.6130 C   0  0  2  0  0  3  0  0  0  0  0  0
  184.5690  178.1670  138.8580 C   0  0  1  0  0  0  0  0  0  0  0  0
  183.7090  179.7950  143.6900 C   0  0  0  0  0  2  0  0  0  0  0  0
  186.3650  178.1040  142.1520 C   0  0  1  0  0  3  0  0  0  0  0  0
  188.6660  176.6550  144.6930 O   0  0  0  0  0  1  0  0  0  0  0  0
  181.5670  179.1160  140.5420 S   0  0  0  0  0  0  0  0  0  0  0  0
  182.5920  179.4290  142.9310 O   0  0  0  0  0  0  0  0  0  0  0  0
  187.2770  177.0790  142.8090 C   0  0  0  0  0  2  0  0  0  0  0  0
  185.6170  178.4590  137.8370 C   0  0  1  0  0  3  0  0  0  0  0  0
  183.0330  179.3330  141.6010 C   0  0  1  0  0  3  0  0  0  0  0  0
  186.2760  177.8760  140.6660 C   0  0  2  0  0  3  0  0  0  0  0  0
  185.7050  178.8700  144.8760 C   0  0  0  0  0  2  0  0  0  0  0  0
  183.1470  178.3440  138.3260 C   0  0  2  0  0  3  0  0  0  0  0  0
  187.7190  177.5470  144.1920 C   0  0  1  0  0  3  0  0  0  0  0  0
  186.9600  178.9600  138.4350 C   0  0  1  0  0  3  0  0  0  0  0  0
  187.4300  178.4370  139.8360 C   0  0  2  0  0  3  0  0  0  0  0  0
  182.4000  179.5250  138.9680 C   0  0  0  0  0  2  0  0  0  0  0  0
  183.0770  175.8810  138.8970 C   0  0  0  0  0  3  0  0  0  0  0  0
  182.3720  177.0230  138.2120 C   0  0  2  0  0  3  0  0  0  0  0  0
  182.0150  176.7200  136.8580 O   0  0  0  0  0  0  0  0  0  0  0  0
  181.1890  175.1510  135.0980 C   0  0  0  0  0  1  0  0  0  0  0  0
  182.3130  174.3860  137.1270 C   0  0  0  0  0  3  0  0  0  0  0  0
  181.8500  175.4060  136.4050 C   0  0  0  0  0  0  0  0  0  0  0  0
  183.0100  174.6460  138.3960 C   0  0  0  0  0  3  0  0  0  0  0  0
  189.0650  179.7380  137.9690 O   0  0  0  0  0  1  0  0  0  0  0  0
  187.9990  179.1150  137.4090 N   0  0  0  0  0  0  0  0  0  0  0  0
  188.4080  177.8860  137.0070 O   0  0  0  0  0  0  0  0  0  0  0  0
  189.1770  178.1200  135.8650 C   0  0  0  0  0  1  0  0  0  0  0  0
  188.4570  177.4130  139.7100 N   0  0  0  0  0  2  0  0  0  0  0  0
  189.5800  177.8750  140.4120 N   0  0  0  0  0  2  0  0  0  0  0  0
  190.5560  176.8000  140.4050 C   0  0  0  0  0  2  0  0  0  0  0  0
  190.8560  176.3850  138.9780 C   0  0  0  0  0  1  0  0  0  0  0  0
  2 15  1  0  0  0  0
  2  6  1  0  0  0  0
  3  7  1  0  0  0  0
  4 17  1  0  0  0  0
  5 16  1  0  0  0  0
  5  2  1  0  0  0  0
  6  4  1  0  0  0  0
  7  5  1  0  0  0  0
  8  4  1  0  0  0  0
  9  6  1  0  0  0  0
  9 13  1  0  0  0  0
 11 15  1  0  0  0  0
 12  8  1  0  0  0  0
 13 19  1  0  0  0  0
 14  3  1  0  0  0  0
 14 20  1  0  0  0  0
 14  7  1  0  0  0  0
 15 12  1  0  0  0  0
 16  9  1  0  0  0  0
 17  1  1  0  0  0  0
 18  7  1  0  0  0  0
 18 22  1  0  0  0  0
 19 10  1  0  0  0  0
 19  1  1  0  0  0  0
 20 21  1  0  0  0  0
 21 16  1  0  0  0  0
 22 11  1  0  0  0  0
 24 18  1  0  0  0  0
 24 23  1  0  0  0  0
 25 24  1  0  0  0  0
 26 28  1  0  0  0  0
 27 29  1  0  0  0  0
 28 25  1  0  0  0  0
 28 27  2  0  0  0  0
 29 23  2  0  0  0  0
 31 30  1  0  0  0  0
 31 20  1  0  0  0  0
 32 31  1  0  0  0  0
 33 32  1  0  0  0  0
 34 21  1  0  0  0  0
 34 35  1  0  0  0  0
 36 35  1  0  0  0  0
 37 36  1  0  0  0  0
M  END
>  <MODEL>
8

>  <REMARK>
 VINA RESULT:      -5.1      2.757      6.197
  Name = 
  6 active torsions:
  status: ('A' for Active; 'I' for Inactive)
    1  A    between atoms: N_1  and  N_23
    2  A    between atoms: N_1  and  C_36
    3  A    between atoms: C_5  and  N_23
    4  A    between atoms: C_6  and  C_31
    5  A    between atoms: O_11  and  N_26
    6  A    between atoms: N_26  and  C_33
                            x       y       z     vdW  Elec       q    Type
                         _______ _______ _______ _____ _____    ______ ____

>  <TORSDO>
F 6

$$$$
=
 OpenBabel10262422543D

 37 43  0  0  1  0  0  0  0  0999 V2000
  188.4350  174.7920  136.3040 C   0  0  0  0  0  2  0  0  0  0  0  0
  185.0050  177.0710  138.3050 C   0  0  1  0  0  3  0  0  0  0  0  0
  182.0410  175.3120  139.2360 O   0  0  0  0  0  0  0  0  0  0  0  0
  187.2890  176.9320  137.0090 C   0  0  2  0  0  3  0  0  0  0  0  0
  183.7310  176.4380  137.7820 C   0  0  2  0  0  3  0  0  0  0  0  0
  186.1210  176.1870  137.6920 C   0  0  2  0  0  3  0  0  0  0  0  0
  182.4800  176.5260  138.6620 C   0  0  1  0  0  0  0  0  0  0  0  0
  186.8470  178.3050  136.5400 C   0  0  0  0  0  2  0  0  0  0  0  0
  185.4430  175.1090  136.8460 C   0  0  1  0  0  3  0  0  0  0  0  0
  187.9500  172.4750  136.0560 O   0  0  0  0  0  1  0  0  0  0  0  0
  184.2480  179.5980  139.0950 S   0  0  0  0  0  0  0  0  0  0  0  0
  186.3440  179.0010  137.6440 O   0  0  0  0  0  0  0  0  0  0  0  0
  186.2080  173.8020  136.9840 C   0  0  0  0  0  2  0  0  0  0  0  0
  181.2960  175.7880  138.1320 C   0  0  1  0  0  3  0  0  0  0  0  0
  185.0320  178.5390  137.8370 C   0  0  1  0  0  3  0  0  0  0  0  0
  184.0780  175.0080  137.4750 C   0  0  2  0  0  3  0  0  0  0  0  0
  187.9630  176.1730  135.8660 C   0  0  0  0  0  2  0  0  0  0  0  0
  182.1030  177.7860  139.4410 C   0  0  2  0  0  3  0  0  0  0  0  0
  187.3710  173.7420  136.0000 C   0  0  1  0  0  3  0  0  0  0  0  0
  181.5840  174.9740  136.8410 C   0  0  1  0  0  3  0  0  0  0  0  0
  182.9990  174.3380  136.6220 C   0  0  2  0  0  3  0  0  0  0  0  0
  182.5300  179.0860  138.7390 C   0  0  0  0  0  2  0  0  0  0  0  0
  181.5340  178.5940  141.7680 C   0  0  0  0  0  3  0  0  0  0  0  0
  182.4070  177.6860  140.9420 C   0  0  2  0  0  3  0  0  0  0  0  0
  183.8020  177.8530  141.2240 O   0  0  0  0  0  0  0  0  0  0  0  0
  185.6960  178.2410  142.8060 C   0  0  0  0  0  1  0  0  0  0  0  0
  183.4220  179.0090  143.2570 C   0  0  0  0  0  3  0  0  0  0  0  0
  184.2620  178.3710  142.4410 C   0  0  0  0  0  0  0  0  0  0  0  0
  182.0130  179.1770  142.8680 C   0  0  0  0  0  3  0  0  0  0  0  0
  179.3080  174.7320  136.9370 O   0  0  0  0  0  1  0  0  0  0  0  0
  180.4290  174.1680  136.4260 N   0  0  0  0  0  0  0  0  0  0  0  0
  180.3270  174.2070  135.0740 O   0  0  0  0  0  0  0  0  0  0  0  0
  179.9430  172.9170  134.7060 C   0  0  0  0  0  1  0  0  0  0  0  0
  182.9970  172.9110  136.9080 N   0  0  0  0  0  2  0  0  0  0  0  0
  183.3420  172.2570  135.7160 N   0  0  0  0  0  2  0  0  0  0  0  0
  183.8000  170.9270  136.0800 C   0  0  0  0  0  2  0  0  0  0  0  0
  185.0110  170.5540  135.2480 C   0  0  0  0  0  1  0  0  0  0  0  0
  4  6  1  0  0  0  0
  5  2  1  0  0  0  0
  5  7  1  0  0  0  0
  6  2  1  0  0  0  0
  7  3  1  0  0  0  0
  7 18  1  0  0  0  0
  8  4  1  0  0  0  0
  8 12  1  0  0  0  0
  9 13  1  0  0  0  0
  9 16  1  0  0  0  0
  9  6  1  0  0  0  0
 12 15  1  0  0  0  0
 14  7  1  0  0  0  0
 14  3  1  0  0  0  0
 15  2  1  0  0  0  0
 15 11  1  0  0  0  0
 16  5  1  0  0  0  0
 17  1  1  0  0  0  0
 17  4  1  0  0  0  0
 18 24  1  0  0  0  0
 19 10  1  0  0  0  0
 19  1  1  0  0  0  0
 19 13  1  0  0  0  0
 20 14  1  0  0  0  0
 21 20  1  0  0  0  0
 21 34  1  0  0  0  0
 21 16  1  0  0  0  0
 22 11  1  0  0  0  0
 22 18  1  0  0  0  0
 23 29  2  0  0  0  0
 24 25  1  0  0  0  0
 24 23  1  0  0  0  0
 25 28  1  0  0  0  0
 28 26  1  0  0  0  0
 28 27  2  0  0  0  0
 29 27  1  0  0  0  0
 31 20  1  0  0  0  0
 31 30  1  0  0  0  0
 32 31  1  0  0  0  0
 33 32  1  0  0  0  0
 35 36  1  0  0  0  0
 35 34  1  0  0  0  0
 37 36  1  0  0  0  0
M  END
>  <MODEL>
9

>  <REMARK>
 VINA RESULT:      -5.1      3.511      6.259
  Name = 
  6 active torsions:
  status: ('A' for Active; 'I' for Inactive)
    1  A    between atoms: N_1  and  N_23
    2  A    between atoms: N_1  and  C_36
    3  A    between atoms: C_5  and  N_23
    4  A    between atoms: C_6  and  C_31
    5  A    between atoms: O_11  and  N_26
    6  A    between atoms: N_26  and  C_33
                            x       y       z     vdW  Elec       q    Type
                         _______ _______ _______ _____ _____    ______ ____

>  <TORSDO>
F 6

$$$$
