=
 OpenBabel10262422503D

 37 41  0  0  1  0  0  0  0  0999 V2000
  187.0620  176.5020  137.9650 C   0  0  0  0  0  2  0  0  0  0  0  0
  183.0550  173.8190  136.7770 C   0  0  2  0  0  3  0  0  0  0  0  0
  188.3700  175.8580  137.5420 C   0  0  0  0  0  2  0  0  0  0  0  0
  184.0080  177.3160  135.4510 O   0  0  0  0  0  0  0  0  0  0  0  0
  185.0890  172.6930  137.7950 C   0  0  0  0  0  2  0  0  0  0  0  0
  184.0010  174.8980  136.2270 C   0  0  1  0  0  3  0  0  0  0  0  0
  188.6640  177.4640  135.4930 C   0  0  0  0  0  0  0  0  0  0  0  0
  191.1420  176.1420  137.9980 N   0  0  0  0  0  1  0  0  0  0  0  0
  183.7850  172.4800  137.0150 C   0  0  2  0  0  3  0  0  0  0  0  0
  183.2330  176.2030  135.8570 C   0  0  1  0  0  3  0  0  0  0  0  0
  184.0570  171.7010  135.7320 C   0  0  0  0  0  1  0  0  0  0  0  0
  189.2150  176.7560  136.6770 C   0  0  0  0  0  0  0  0  0  0  0  0
  185.9380  173.8470  137.2280 C   0  0  2  0  0  3  0  0  0  0  0  0
  180.6810  174.7530  136.2760 C   0  0  0  0  0  3  0  0  0  0  0  0
  190.5270  176.8400  136.9180 C   0  0  0  0  0  3  0  0  0  0  0  0
  181.4700  172.7710  135.2870 O   0  0  0  0  0  0  0  0  0  0  0  0
  187.2130  177.8110  135.3570 C   0  0  0  0  0  2  0  0  0  0  0  0
  185.0470  176.8500  134.6260 C   0  0  0  0  0  2  0  0  0  0  0  0
  181.7220  173.7300  136.0620 C   0  0  0  0  0  0  0  0  0  0  0  0
  185.1300  175.0800  137.1660 N   0  0  1  0  0  0  0  0  0  0  0  0
  182.2240  176.5600  136.8650 N   0  0  0  0  0  0  0  0  0  0  0  0
  186.3150  176.5880  135.4520 C   0  0  2  0  0  3  0  0  0  0  0  0
  189.4470  177.8720  134.5940 O   0  0  0  0  0  0  0  0  0  0  0  0
  185.9550  176.2910  136.9260 C   0  0  2  0  0  3  0  0  0  0  0  0
  180.9070  176.0040  136.6950 C   0  0  0  0  0  3  0  0  0  0  0  0
  182.8480  176.7250  139.1820 C   0  0  0  0  0  3  0  0  0  0  0  0
  182.5190  177.3550  138.0420 C   0  0  0  0  0  0  0  0  0  0  0  0
  182.3990  178.8340  137.9840 C   0  0  0  0  0  3  0  0  0  0  0  0
  183.1330  179.7330  138.6570 C   0  0  0  0  0  3  0  0  0  0  0  0
  184.2210  178.3620  140.4230 C   0  0  0  0  0  3  0  0  0  0  0  0
  184.2090  179.4230  139.6170 C   0  0  0  0  0  3  0  0  0  0  0  0
  183.0820  177.4020  140.4950 C   0  0  0  0  0  2  0  0  0  0  0  0
  186.5650  173.4830  135.8740 C   0  0  0  0  0  2  0  0  0  0  0  0
  187.6320  172.4460  136.0180 C   0  0  0  0  0  0  0  0  0  0  0  0
  188.6150  172.6520  136.8240 N   0  0  0  0  0  2  0  0  0  0  0  0
  187.7190  171.3460  135.0070 C   0  0  0  0  0  2  0  0  0  0  0  0
  187.7880  170.1080  135.6520 O   0  0  0  0  0  1  0  0  0  0  0  0
  2 19  1  6  0  0  0
  2  9  1  0  0  0  0
  3  1  1  0  0  0  0
  4 10  1  0  0  0  0
  6  2  1  0  0  0  0
  6 20  1  0  0  0  0
  7 12  1  0  0  0  0
  9  5  1  0  0  0  0
 10  6  1  0  0  0  0
 10 21  1  0  0  0  0
 11  9  1  0  0  0  0
 12 15  2  0  0  0  0
 12  3  1  0  0  0  0
 13  5  1  0  0  0  0
 14 25  2  0  0  0  0
 15  8  1  0  0  0  0
 16 19  2  0  0  0  0
 17 22  1  0  0  0  0
 17  7  1  0  0  0  0
 18  4  1  0  0  0  0
 18 22  1  0  0  0  0
 19 14  1  0  0  0  0
 20 13  1  0  0  0  0
 21 27  1  0  0  0  0
 22 24  1  0  0  0  0
 23  7  2  0  0  0  0
 24 20  1  0  0  0  0
 24  1  1  0  0  0  0
 25 21  1  0  0  0  0
 26 32  1  0  0  0  0
 27 26  2  0  0  0  0
 28 27  1  0  0  0  0
 28 29  2  0  0  0  0
 29 31  1  0  0  0  0
 30 32  1  0  0  0  0
 31 30  2  0  0  0  0
 33 34  1  0  0  0  0
 33 13  1  0  0  0  0
 34 35  2  0  0  0  0
 36 37  1  0  0  0  0
 36 34  1  0  0  0  0
M  END
>  <MODEL>
1

>  <REMARK>
 VINA RESULT:      -5.5      0.000      0.000
  Name = 
  4 active torsions:
  status: ('A' for Active; 'I' for Inactive)
    1  A    between atoms: C_3  and  CA_21
    2  A    between atoms: C_6  and  N_31
    3  A    between atoms: C_20  and  C_25
    4  A    between atoms: CA_21  and  C_25
                            x       y       z     vdW  Elec       q    Type
                         _______ _______ _______ _____ _____    ______ ____

>  <TORSDO>
F 4

$$$$
=
 OpenBabel10262422503D

 37 41  0  0  1  0  0  0  0  0999 V2000
  191.3380  174.7640  137.9420 C   0  0  0  0  0  2  0  0  0  0  0  0
  186.4980  175.3620  137.0020 C   0  0  2  0  0  3  0  0  0  0  0  0
  191.9900  173.6810  137.1010 C   0  0  0  0  0  2  0  0  0  0  0  0
  189.3280  177.9220  136.4250 O   0  0  0  0  0  0  0  0  0  0  0  0
  187.4730  173.0310  137.2460 C   0  0  0  0  0  2  0  0  0  0  0  0
  187.8900  175.8320  136.5520 C   0  0  1  0  0  3  0  0  0  0  0  0
  193.1430  175.4110  135.5070 C   0  0  0  0  0  0  0  0  0  0  0  0
  194.3880  172.1930  137.0110 N   0  0  0  0  0  1  0  0  0  0  0  0
  186.2850  173.8560  136.7360 C   0  0  2  0  0  3  0  0  0  0  0  0
  188.0500  177.3760  136.6950 C   0  0  1  0  0  3  0  0  0  0  0  0
  186.0080  173.5350  135.2710 C   0  0  0  0  0  1  0  0  0  0  0  0
  193.1860  174.1740  136.3290 C   0  0  0  0  0  0  0  0  0  0  0  0
  188.8320  173.6180  136.8190 C   0  0  2  0  0  3  0  0  0  0  0  0
  185.1470  177.5670  137.2720 C   0  0  0  0  0  3  0  0  0  0  0  0
  194.2910  173.4240  136.2980 C   0  0  0  0  0  3  0  0  0  0  0  0
  184.5690  175.9430  135.6720 O   0  0  0  0  0  0  0  0  0  0  0  0
  192.1870  176.5320  135.7770 C   0  0  0  0  0  2  0  0  0  0  0  0
  189.8620  177.2570  135.3070 C   0  0  0  0  0  2  0  0  0  0  0  0
  185.3630  176.2760  136.5900 C   0  0  0  0  0  0  0  0  0  0  0  0
  188.9230  175.0300  137.2430 N   0  0  1  0  0  0  0  0  0  0  0  0
  187.4780  177.8820  137.9520 N   0  0  0  0  0  0  0  0  0  0  0  0
  190.7380  176.0760  135.7510 C   0  0  2  0  0  3  0  0  0  0  0  0
  193.9950  175.5780  134.5940 O   0  0  0  0  0  0  0  0  0  0  0  0
  190.3040  175.5660  137.1450 C   0  0  2  0  0  3  0  0  0  0  0  0
  186.0870  178.2530  137.9330 C   0  0  0  0  0  3  0  0  0  0  0  0
  187.5320  177.9730  140.3550 C   0  0  0  0  0  3  0  0  0  0  0  0
  188.2160  177.9330  139.2000 C   0  0  0  0  0  0  0  0  0  0  0  0
  189.7000  177.9960  139.1780 C   0  0  0  0  0  3  0  0  0  0  0  0
  190.5440  177.4760  140.0810 C   0  0  0  0  0  3  0  0  0  0  0  0
  189.0690  176.9960  142.0240 C   0  0  0  0  0  3  0  0  0  0  0  0
  190.1590  176.7420  141.3020 C   0  0  0  0  0  3  0  0  0  0  0  0
  188.1490  178.1260  141.7080 C   0  0  0  0  0  2  0  0  0  0  0  0
  189.0860  173.4360  135.3160 C   0  0  0  0  0  2  0  0  0  0  0  0
  189.5010  172.0380  134.9900 C   0  0  0  0  0  0  0  0  0  0  0  0
  190.7440  171.7750  134.7790 N   0  0  0  0  0  2  0  0  0  0  0  0
  188.4550  171.0400  134.6000 C   0  0  0  0  0  2  0  0  0  0  0  0
  188.3340  170.0620  135.5920 O   0  0  0  0  0  1  0  0  0  0  0  0
  2 19  1  6  0  0  0
  3  1  1  0  0  0  0
  4 10  1  0  0  0  0
  6 10  1  0  0  0  0
  6  2  1  0  0  0  0
  6 20  1  0  0  0  0
  7 17  1  0  0  0  0
  7 12  1  0  0  0  0
  9  2  1  0  0  0  0
  9  5  1  0  0  0  0
 10 21  1  0  0  0  0
 11  9  1  0  0  0  0
 12  3  1  0  0  0  0
 13 20  1  0  0  0  0
 13  5  1  0  0  0  0
 14 25  2  0  0  0  0
 15 12  2  0  0  0  0
 15  8  1  0  0  0  0
 16 19  2  0  0  0  0
 18 22  1  0  0  0  0
 18  4  1  0  0  0  0
 19 14  1  0  0  0  0
 21 27  1  0  0  0  0
 22 17  1  0  0  0  0
 22 24  1  0  0  0  0
 23  7  2  0  0  0  0
 24 20  1  0  0  0  0
 24  1  1  0  0  0  0
 25 21  1  0  0  0  0
 26 32  1  0  0  0  0
 27 26  2  0  0  0  0
 28 27  1  0  0  0  0
 28 29  2  0  0  0  0
 29 31  1  0  0  0  0
 31 30  2  0  0  0  0
 32 30  1  0  0  0  0
 33 13  1  0  0  0  0
 34 33  1  0  0  0  0
 35 34  2  0  0  0  0
 36 34  1  0  0  0  0
 36 37  1  0  0  0  0
M  END
>  <MODEL>
2

>  <REMARK>
 VINA RESULT:      -5.2      2.748      4.700
  Name = 
  4 active torsions:
  status: ('A' for Active; 'I' for Inactive)
    1  A    between atoms: C_3  and  CA_21
    2  A    between atoms: C_6  and  N_31
    3  A    between atoms: C_20  and  C_25
    4  A    between atoms: CA_21  and  C_25
                            x       y       z     vdW  Elec       q    Type
                         _______ _______ _______ _____ _____    ______ ____

>  <TORSDO>
F 4

$$$$
=
 OpenBabel10262422503D

 37 41  0  0  1  0  0  0  0  0999 V2000
  189.1740  175.5040  138.1510 C   0  0  0  0  0  2  0  0  0  0  0  0
  184.3140  176.5150  138.0150 C   0  0  2  0  0  3  0  0  0  0  0  0
  189.6260  174.5520  137.0570 C   0  0  0  0  0  2  0  0  0  0  0  0
  187.2340  178.9820  137.4820 O   0  0  0  0  0  0  0  0  0  0  0  0
  185.1300  174.1290  137.7250 C   0  0  0  0  0  2  0  0  0  0  0  0
  185.6680  176.9830  137.4580 C   0  0  1  0  0  3  0  0  0  0  0  0
  190.6930  176.4720  135.6290 C   0  0  0  0  0  0  0  0  0  0  0  0
  191.8710  172.9780  136.3830 N   0  0  0  0  0  1  0  0  0  0  0  0
  183.9520  175.0940  137.5330 C   0  0  2  0  0  3  0  0  0  0  0  0
  185.9630  178.4670  137.8330 C   0  0  1  0  0  3  0  0  0  0  0  0
  183.4640  175.0510  136.0880 C   0  0  0  0  0  1  0  0  0  0  0  0
  190.7460  175.1100  136.2190 C   0  0  0  0  0  0  0  0  0  0  0  0
  186.4630  174.7090  137.2160 C   0  0  2  0  0  3  0  0  0  0  0  0
  183.1830  178.7080  138.8370 C   0  0  0  0  0  3  0  0  0  0  0  0
  191.7770  174.3180  135.9070 C   0  0  0  0  0  3  0  0  0  0  0  0
  182.2790  177.4250  137.0850 O   0  0  0  0  0  0  0  0  0  0  0  0
  189.8690  177.5780  136.2140 C   0  0  0  0  0  2  0  0  0  0  0  0
  187.5660  178.4980  136.2050 C   0  0  0  0  0  2  0  0  0  0  0  0
  183.2080  177.5480  137.9250 C   0  0  0  0  0  0  0  0  0  0  0  0
  186.7160  176.0170  137.8530 N   0  0  1  0  0  0  0  0  0  0  0  0
  185.5990  178.7730  139.2250 N   0  0  0  0  0  0  0  0  0  0  0  0
  188.3980  177.2110  136.3170 C   0  0  2  0  0  3  0  0  0  0  0  0
  191.4300  176.7520  134.6460 O   0  0  0  0  0  0  0  0  0  0  0  0
  188.1100  176.4880  137.6520 C   0  0  2  0  0  3  0  0  0  0  0  0
  184.2500  179.2150  139.4640 C   0  0  0  0  0  3  0  0  0  0  0  0
  185.9670  178.3720  141.5680 C   0  0  0  0  0  3  0  0  0  0  0  0
  186.4940  178.5640  140.3480 C   0  0  0  0  0  0  0  0  0  0  0  0
  187.9640  178.6210  140.1410 C   0  0  0  0  0  3  0  0  0  0  0  0
  188.9010  177.9220  140.7990 C   0  0  0  0  0  3  0  0  0  0  0  0
  187.6740  177.0650  142.7850 C   0  0  0  0  0  3  0  0  0  0  0  0
  188.6530  176.9570  141.8870 C   0  0  0  0  0  3  0  0  0  0  0  0
  186.7590  178.2410  142.8300 C   0  0  0  0  0  2  0  0  0  0  0  0
  186.5050  174.7820  135.6830 C   0  0  0  0  0  2  0  0  0  0  0  0
  186.7900  173.4470  135.0730 C   0  0  0  0  0  0  0  0  0  0  0  0
  187.9600  173.2020  134.5950 N   0  0  0  0  0  2  0  0  0  0  0  0
  185.6450  172.5420  134.7380 C   0  0  0  0  0  2  0  0  0  0  0  0
  185.6630  171.4190  135.5710 O   0  0  0  0  0  1  0  0  0  0  0  0
  2 19  1  6  0  0  0
  3  1  1  0  0  0  0
  4 10  1  0  0  0  0
  6 10  1  0  0  0  0
  6 20  1  0  0  0  0
  6  2  1  0  0  0  0
  7 17  1  0  0  0  0
  7 12  1  0  0  0  0
  9  5  1  0  0  0  0
  9  2  1  0  0  0  0
 10 21  1  0  0  0  0
 11  9  1  0  0  0  0
 12  3  1  0  0  0  0
 13  5  1  0  0  0  0
 13 20  1  0  0  0  0
 14 25  2  0  0  0  0
 15 12  2  0  0  0  0
 15  8  1  0  0  0  0
 16 19  2  0  0  0  0
 17 22  1  0  0  0  0
 18 22  1  0  0  0  0
 18  4  1  0  0  0  0
 19 14  1  0  0  0  0
 21 25  1  0  0  0  0
 21 27  1  0  0  0  0
 22 24  1  0  0  0  0
 23  7  2  0  0  0  0
 24 20  1  0  0  0  0
 24  1  1  0  0  0  0
 26 32  1  0  0  0  0
 27 26  2  0  0  0  0
 28 27  1  0  0  0  0
 28 29  2  0  0  0  0
 29 31  1  0  0  0  0
 30 32  1  0  0  0  0
 31 30  2  0  0  0  0
 33 13  1  0  0  0  0
 34 33  1  0  0  0  0
 35 34  2  0  0  0  0
 36 34  1  0  0  0  0
 36 37  1  0  0  0  0
M  END
>  <MODEL>
3

>  <REMARK>
 VINA RESULT:      -4.5      2.303      3.639
  Name = 
  4 active torsions:
  status: ('A' for Active; 'I' for Inactive)
    1  A    between atoms: C_3  and  CA_21
    2  A    between atoms: C_6  and  N_31
    3  A    between atoms: C_20  and  C_25
    4  A    between atoms: CA_21  and  C_25
                            x       y       z     vdW  Elec       q    Type
                         _______ _______ _______ _____ _____    ______ ____

>  <TORSDO>
F 4

$$$$
=
 OpenBabel10262422503D

 37 41  0  0  1  0  0  0  0  0999 V2000
  183.8060  175.3630  138.2430 C   0  0  0  0  0  2  0  0  0  0  0  0
  188.4280  176.6540  136.9640 C   0  0  2  0  0  3  0  0  0  0  0  0
  183.0520  176.4570  138.9780 C   0  0  0  0  0  2  0  0  0  0  0  0
  185.4930  175.8140  134.6010 O   0  0  0  0  0  0  0  0  0  0  0  0
  187.5480  177.1900  139.2830 C   0  0  0  0  0  2  0  0  0  0  0  0
  186.9740  176.6950  136.4680 C   0  0  1  0  0  3  0  0  0  0  0  0
  181.6310  177.0930  136.8710 C   0  0  0  0  0  0  0  0  0  0  0  0
  180.6990  176.7810  140.5040 N   0  0  0  0  0  1  0  0  0  0  0  0
  188.6260  177.5030  138.2370 C   0  0  2  0  0  3  0  0  0  0  0  0
  186.8090  175.9510  135.1070 C   0  0  1  0  0  3  0  0  0  0  0  0
  188.6780  179.0030  137.9630 C   0  0  0  0  0  1  0  0  0  0  0  0
  181.7410  176.8100  138.3250 C   0  0  0  0  0  0  0  0  0  0  0  0
  186.1280  177.1700  138.6860 C   0  0  2  0  0  3  0  0  0  0  0  0
  189.7610  175.7470  134.9240 C   0  0  0  0  0  3  0  0  0  0  0  0
  180.6600  176.9750  139.0920 C   0  0  0  0  0  3  0  0  0  0  0  0
  190.1150  177.9100  135.7770 O   0  0  0  0  0  0  0  0  0  0  0  0
  182.5960  176.5480  135.8620 C   0  0  0  0  0  2  0  0  0  0  0  0
  184.8050  177.0170  134.8370 C   0  0  0  0  0  2  0  0  0  0  0  0
  189.4670  176.8350  135.8760 C   0  0  0  0  0  0  0  0  0  0  0  0
  186.0770  176.2300  137.5480 N   0  0  1  0  0  0  0  0  0  0  0  0
  187.5590  174.6870  135.0680 N   0  0  0  0  0  0  0  0  0  0  0  0
  184.0320  176.9440  136.1630 C   0  0  2  0  0  3  0  0  0  0  0  0
  180.6440  177.7470  136.4390 O   0  0  0  0  0  0  0  0  0  0  0  0
  184.6880  175.9260  137.1230 C   0  0  2  0  0  3  0  0  0  0  0  0
  188.9230  174.7530  134.6110 C   0  0  0  0  0  3  0  0  0  0  0  0
  185.6920  173.2500  135.5550 C   0  0  0  0  0  3  0  0  0  0  0  0
  187.0240  173.4260  135.5470 C   0  0  0  0  0  0  0  0  0  0  0  0
  187.9450  172.3830  136.0670 C   0  0  0  0  0  3  0  0  0  0  0  0
  187.7870  171.0540  135.9890 C   0  0  0  0  0  3  0  0  0  0  0  0
  185.3870  170.8050  135.3880 C   0  0  0  0  0  3  0  0  0  0  0  0
  186.6410  170.3550  135.3760 C   0  0  0  0  0  3  0  0  0  0  0  0
  184.9930  172.0490  136.1070 C   0  0  0  0  0  2  0  0  0  0  0  0
  185.6470  178.5780  138.3090 C   0  0  0  0  0  2  0  0  0  0  0  0
  184.7920  179.1760  139.3790 C   0  0  0  0  0  0  0  0  0  0  0  0
  184.0510  180.1940  139.1080 N   0  0  0  0  0  2  0  0  0  0  0  0
  185.0430  178.7990  140.8060 C   0  0  0  0  0  2  0  0  0  0  0  0
  185.7850  179.7990  141.4420 O   0  0  0  0  0  1  0  0  0  0  0  0
  1  3  1  0  0  0  0
  2 19  1  6  0  0  0
  2  9  1  0  0  0  0
  4 18  1  0  0  0  0
  4 10  1  0  0  0  0
  6  2  1  0  0  0  0
  6 20  1  0  0  0  0
  7 12  1  0  0  0  0
  9  5  1  0  0  0  0
 10  6  1  0  0  0  0
 11  9  1  0  0  0  0
 12  3  1  0  0  0  0
 12 15  2  0  0  0  0
 13  5  1  0  0  0  0
 14 19  1  0  0  0  0
 15  8  1  0  0  0  0
 16 19  2  0  0  0  0
 17 22  1  0  0  0  0
 17  7  1  0  0  0  0
 18 22  1  0  0  0  0
 20 13  1  0  0  0  0
 21 10  1  0  0  0  0
 21 27  1  0  0  0  0
 22 24  1  0  0  0  0
 23  7  2  0  0  0  0
 24 20  1  0  0  0  0
 24  1  1  0  0  0  0
 25 14  2  0  0  0  0
 25 21  1  0  0  0  0
 26 32  1  0  0  0  0
 27 26  2  0  0  0  0
 27 28  1  0  0  0  0
 29 28  2  0  0  0  0
 30 32  1  0  0  0  0
 31 30  2  0  0  0  0
 31 29  1  0  0  0  0
 33 13  1  0  0  0  0
 33 34  1  0  0  0  0
 34 36  1  0  0  0  0
 35 34  2  0  0  0  0
 36 37  1  0  0  0  0
M  END
>  <MODEL>
4

>  <REMARK>
 VINA RESULT:      -3.2      2.231      7.335
  Name = 
  4 active torsions:
  status: ('A' for Active; 'I' for Inactive)
    1  A    between atoms: C_3  and  CA_21
    2  A    between atoms: C_6  and  N_31
    3  A    between atoms: C_20  and  C_25
    4  A    between atoms: CA_21  and  C_25
                            x       y       z     vdW  Elec       q    Type
                         _______ _______ _______ _____ _____    ______ ____

>  <TORSDO>
F 4

$$$$
=
 OpenBabel10262422503D

 37 41  0  0  1  0  0  0  0  0999 V2000
  181.4000  177.6110  141.2560 C   0  0  0  0  0  2  0  0  0  0  0  0
  186.1980  177.9030  140.0050 C   0  0  2  0  0  3  0  0  0  0  0  0
  181.0510  178.3980  142.5080 C   0  0  0  0  0  2  0  0  0  0  0  0
  183.1700  179.1990  137.9910 O   0  0  0  0  0  0  0  0  0  0  0  0
  185.5300  177.5160  142.4230 C   0  0  0  0  0  2  0  0  0  0  0  0
  184.8460  178.6060  139.8060 C   0  0  1  0  0  3  0  0  0  0  0  0
  179.9430  180.3440  141.1490 C   0  0  0  0  0  0  0  0  0  0  0  0
  178.9310  178.6510  144.3540 N   0  0  0  0  0  1  0  0  0  0  0  0
  186.6590  177.9470  141.4770 C   0  0  2  0  0  3  0  0  0  0  0  0
  184.4520  178.6800  138.3000 C   0  0  1  0  0  3  0  0  0  0  0  0
  187.2130  179.3040  141.8970 C   0  0  0  0  0  1  0  0  0  0  0  0
  179.9400  179.3900  142.2880 C   0  0  0  0  0  0  0  0  0  0  0  0
  184.1910  178.2060  142.1020 C   0  0  2  0  0  3  0  0  0  0  0  0
  187.1660  177.7140  137.5990 C   0  0  0  0  0  3  0  0  0  0  0  0
  178.9700  179.4890  143.2020 C   0  0  0  0  0  3  0  0  0  0  0  0
  188.2180  179.0000  139.2650 O   0  0  0  0  0  0  0  0  0  0  0  0
  180.6770  180.0800  139.8700 C   0  0  0  0  0  2  0  0  0  0  0  0
  182.9230  180.2910  138.8410 C   0  0  0  0  0  2  0  0  0  0  0  0
  187.2470  178.2550  138.9700 C   0  0  0  0  0  0  0  0  0  0  0  0
  183.8360  177.9790  140.6870 N   0  0  1  0  0  0  0  0  0  0  0  0
  184.7350  177.4260  137.5870 N   0  0  0  0  0  0  0  0  0  0  0  0
  182.1600  179.8370  140.0940 C   0  0  2  0  0  3  0  0  0  0  0  0
  179.2360  181.3860  141.2100 O   0  0  0  0  0  0  0  0  0  0  0  0
  182.4290  178.3430  140.3860 C   0  0  2  0  0  3  0  0  0  0  0  0
  186.0450  177.2880  137.0060 C   0  0  0  0  0  3  0  0  0  0  0  0
  182.5100  176.5680  137.2740 C   0  0  0  0  0  3  0  0  0  0  0  0
  183.8040  176.3150  137.5260 C   0  0  0  0  0  0  0  0  0  0  0  0
  184.2830  174.9350  137.7960 C   0  0  0  0  0  3  0  0  0  0  0  0
  183.8240  173.7980  137.2520 C   0  0  0  0  0  3  0  0  0  0  0  0
  181.6570  174.4890  136.2490 C   0  0  0  0  0  3  0  0  0  0  0  0
  182.7240  173.6920  136.2750 C   0  0  0  0  0  3  0  0  0  0  0  0
  181.4220  175.5420  137.2770 C   0  0  0  0  0  2  0  0  0  0  0  0
  184.2120  179.6960  142.4720 C   0  0  0  0  0  2  0  0  0  0  0  0
  184.2690  179.8980  143.9520 C   0  0  0  0  0  0  0  0  0  0  0  0
  185.2440  180.5650  144.4670 N   0  0  0  0  0  2  0  0  0  0  0  0
  183.3900  179.0690  144.8350 C   0  0  0  0  0  2  0  0  0  0  0  0
  184.0200  178.8430  146.0620 O   0  0  0  0  0  1  0  0  0  0  0  0
  1  3  1  0  0  0  0
  2 19  1  6  0  0  0
  2  9  1  0  0  0  0
  4 10  1  0  0  0  0
  4 18  1  0  0  0  0
  6  2  1  0  0  0  0
  6 20  1  0  0  0  0
  7 23  2  0  0  0  0
  7 12  1  0  0  0  0
  9 11  1  0  0  0  0
  9  5  1  0  0  0  0
 10  6  1  0  0  0  0
 12  3  1  0  0  0  0
 12 15  2  0  0  0  0
 13  5  1  0  0  0  0
 13 33  1  0  0  0  0
 14 19  1  0  0  0  0
 15  8  1  0  0  0  0
 17 22  1  0  0  0  0
 17  7  1  0  0  0  0
 18 22  1  0  0  0  0
 19 16  2  0  0  0  0
 20 13  1  0  0  0  0
 21 10  1  0  0  0  0
 22 24  1  0  0  0  0
 24 20  1  0  0  0  0
 24  1  1  0  0  0  0
 25 21  1  0  0  0  0
 25 14  2  0  0  0  0
 26 32  1  0  0  0  0
 26 27  2  0  0  0  0
 27 21  1  0  0  0  0
 27 28  1  0  0  0  0
 29 28  2  0  0  0  0
 30 31  2  0  0  0  0
 30 32  1  0  0  0  0
 31 29  1  0  0  0  0
 33 34  1  0  0  0  0
 34 35  2  0  0  0  0
 34 36  1  0  0  0  0
 36 37  1  0  0  0  0
M  END
>  <MODEL>
5

>  <REMARK>
 VINA RESULT:      -3.2      3.969      8.364
  Name = 
  4 active torsions:
  status: ('A' for Active; 'I' for Inactive)
    1  A    between atoms: C_3  and  CA_21
    2  A    between atoms: C_6  and  N_31
    3  A    between atoms: C_20  and  C_25
    4  A    between atoms: CA_21  and  C_25
                            x       y       z     vdW  Elec       q    Type
                         _______ _______ _______ _____ _____    ______ ____

>  <TORSDO>
F 4

$$$$
=
 OpenBabel10262422503D

 37 41  0  0  1  0  0  0  0  0999 V2000
  181.3950  177.7250  141.1460 C   0  0  0  0  0  2  0  0  0  0  0  0
  186.2100  177.9450  139.9450 C   0  0  2  0  0  3  0  0  0  0  0  0
  181.0590  178.4490  142.4370 C   0  0  0  0  0  2  0  0  0  0  0  0
  183.2380  179.4390  137.9870 O   0  0  0  0  0  0  0  0  0  0  0  0
  185.5110  177.4440  142.3330 C   0  0  0  0  0  2  0  0  0  0  0  0
  184.8800  178.6970  139.7770 C   0  0  1  0  0  3  0  0  0  0  0  0
  180.0180  180.5000  141.1820 C   0  0  0  0  0  0  0  0  0  0  0  0
  178.9310  178.6610  144.2800 N   0  0  0  0  0  1  0  0  0  0  0  0
  186.6600  177.8940  141.4200 C   0  0  2  0  0  3  0  0  0  0  0  0
  184.5010  178.8680  138.2740 C   0  0  1  0  0  3  0  0  0  0  0  0
  187.2490  179.2090  141.9200 C   0  0  0  0  0  1  0  0  0  0  0  0
  179.9780  179.4850  142.2660 C   0  0  0  0  0  0  0  0  0  0  0  0
  184.1950  178.1900  142.0420 C   0  0  2  0  0  3  0  0  0  0  0  0
  187.1920  177.8640  137.5390 C   0  0  0  0  0  3  0  0  0  0  0  0
  179.0040  179.5610  143.1770 C   0  0  0  0  0  3  0  0  0  0  0  0
  188.2660  179.0230  139.2810 O   0  0  0  0  0  0  0  0  0  0  0  0
  180.7550  180.2860  139.8950 C   0  0  0  0  0  2  0  0  0  0  0  0
  183.0150  180.4900  138.8950 C   0  0  0  0  0  2  0  0  0  0  0  0
  187.2770  178.3240  138.9380 C   0  0  0  0  0  0  0  0  0  0  0  0
  183.8460  178.0520  140.6140 N   0  0  1  0  0  0  0  0  0  0  0  0
  184.7550  177.6470  137.4940 N   0  0  0  0  0  0  0  0  0  0  0  0
  182.2290  179.9880  140.1160 C   0  0  2  0  0  3  0  0  0  0  0  0
  179.3410  181.5570  141.2970 O   0  0  0  0  0  0  0  0  0  0  0  0
  182.4520  178.4730  140.3250 C   0  0  2  0  0  3  0  0  0  0  0  0
  186.0650  177.5040  136.9160 C   0  0  0  0  0  3  0  0  0  0  0  0
  184.1990  175.3080  137.5890 C   0  0  0  0  0  3  0  0  0  0  0  0
  183.7930  176.5690  137.3650 C   0  0  0  0  0  0  0  0  0  0  0  0
  182.4010  176.8670  136.9380 C   0  0  0  0  0  3  0  0  0  0  0  0
  181.2860  176.2200  137.3060 C   0  0  0  0  0  3  0  0  0  0  0  0
  182.1570  174.1100  138.2910 C   0  0  0  0  0  3  0  0  0  0  0  0
  181.2220  175.0550  138.2090 C   0  0  0  0  0  3  0  0  0  0  0  0
  183.3520  174.0910  137.4000 C   0  0  0  0  0  2  0  0  0  0  0  0
  184.2560  179.6550  142.4960 C   0  0  0  0  0  2  0  0  0  0  0  0
  184.2950  179.7730  143.9850 C   0  0  0  0  0  0  0  0  0  0  0  0
  185.3030  180.3390  144.5530 N   0  0  0  0  0  2  0  0  0  0  0  0
  183.3400  178.9630  144.8050 C   0  0  0  0  0  2  0  0  0  0  0  0
  183.8740  178.7370  146.0770 O   0  0  0  0  0  1  0  0  0  0  0  0
  1  3  1  0  0  0  0
  2 19  1  6  0  0  0
  2  9  1  0  0  0  0
  4 10  1  0  0  0  0
  4 18  1  0  0  0  0
  6  2  1  0  0  0  0
  6 20  1  0  0  0  0
  7 23  2  0  0  0  0
  7 12  1  0  0  0  0
  9 11  1  0  0  0  0
  9  5  1  0  0  0  0
 10  6  1  0  0  0  0
 12  3  1  0  0  0  0
 12 15  2  0  0  0  0
 13  5  1  0  0  0  0
 13 33  1  0  0  0  0
 14 19  1  0  0  0  0
 15  8  1  0  0  0  0
 17 22  1  0  0  0  0
 17  7  1  0  0  0  0
 18 22  1  0  0  0  0
 19 16  2  0  0  0  0
 20 13  1  0  0  0  0
 21 10  1  0  0  0  0
 22 24  1  0  0  0  0
 24 20  1  0  0  0  0
 24  1  1  0  0  0  0
 25 21  1  0  0  0  0
 25 14  2  0  0  0  0
 27 21  1  0  0  0  0
 27 26  2  0  0  0  0
 28 29  2  0  0  0  0
 28 27  1  0  0  0  0
 29 31  1  0  0  0  0
 31 30  2  0  0  0  0
 32 26  1  0  0  0  0
 32 30  1  0  0  0  0
 33 34  1  0  0  0  0
 34 35  2  0  0  0  0
 34 36  1  0  0  0  0
 36 37  1  0  0  0  0
M  END
>  <MODEL>
6

>  <REMARK>
 VINA RESULT:      -2.8      3.990      8.265
  Name = 
  4 active torsions:
  status: ('A' for Active; 'I' for Inactive)
    1  A    between atoms: C_3  and  CA_21
    2  A    between atoms: C_6  and  N_31
    3  A    between atoms: C_20  and  C_25
    4  A    between atoms: CA_21  and  C_25
                            x       y       z     vdW  Elec       q    Type
                         _______ _______ _______ _____ _____    ______ ____

>  <TORSDO>
F 4

$$$$
