=
 OpenBabel10262419483D

 25 26  0  0  1  0  0  0  0  0999 V2000
  187.0370  177.6640  145.2000 N   0  0  0  0  0  0  0  0  0  0  0  0
  188.0910  177.2640  144.4670 C   0  0  0  0  0  0  0  0  0  0  0  0
  189.4480  177.8060  147.6280 C   0  0  0  0  0  1  0  0  0  0  0  0
  188.7540  177.6520  146.5070 C   0  0  0  0  0  0  0  0  0  0  0  0
  190.4960  176.8850  144.9030 C   0  0  2  0  0  3  0  0  0  0  0  0
  191.6120  176.8430  145.8930 C   0  0  0  0  0  1  0  0  0  0  0  0
  188.0070  176.9140  143.2240 N   0  0  0  0  0  1  0  0  0  0  0  0
  187.4290  177.9060  146.4410 N   0  0  0  0  0  0  0  0  0  0  0  0
  189.2360  177.2350  145.2590 C   0  0  0  0  0  0  0  0  0  0  0  0
  185.6650  177.8110  144.7260 C   0  0  1  0  0  3  0  0  0  0  0  0
  183.5030  179.4470  143.6010 C   0  0  0  0  0  2  0  0  0  0  0  0
  184.8960  178.8200  145.5900 C   0  0  1  0  0  3  0  0  0  0  0  0
  183.4750  179.0010  145.0600 C   0  0  0  0  0  2  0  0  0  0  0  0
  184.2370  178.4140  142.7540 C   0  0  0  0  0  2  0  0  0  0  0  0
  184.8340  178.3510  146.9640 N   0  0  0  0  0  1  0  0  0  0  0  0
  185.6650  178.2430  143.2590 C   0  0  0  0  0  2  0  0  0  0  0  0
  190.8470  176.4940  143.5020 C   0  0  0  0  0  2  0  0  0  0  0  0
  191.2780  177.7190  142.7080 C   0  0  0  0  0  2  0  0  0  0  0  0
  191.8620  177.3090  141.3670 C   0  0  0  0  0  2  0  0  0  0  0  0
  189.7050  178.0030  140.2520 N   0  0  0  0  0  2  0  0  0  0  0  0
  190.7790  177.0670  140.3710 C   0  0  0  0  0  0  0  0  0  0  0  0
  190.8060  176.0250  139.6630 O   0  0  0  0  0  0  0  0  0  0  0  0
  187.3250  178.3370  139.9450 C   0  0  0  0  0  1  0  0  0  0  0  0
  188.8750  178.5730  138.0360 C   0  0  0  0  0  1  0  0  0  0  0  0
  188.6010  177.8150  139.3200 C   0  0  0  0  0  3  0  0  0  0  0  0
  1  8  1  0  0  0  0
  2  1  1  0  0  0  0
  2  9  2  0  0  0  0
  4  3  1  0  0  0  0
  5  9  1  0  0  0  0
  5  6  1  1  0  0  0
  7  2  1  0  0  0  0
  8  4  2  0  0  0  0
  9  4  1  0  0  0  0
 10 16  1  6  0  0  0
 10  1  1  0  0  0  0
 10 12  1  0  0  0  0
 11 13  1  0  0  0  0
 12 15  1  1  0  0  0
 13 12  1  0  0  0  0
 14 16  1  0  0  0  0
 14 11  1  0  0  0  0
 17  5  1  0  0  0  0
 18 17  1  0  0  0  0
 19 18  1  0  0  0  0
 20 21  1  0  0  0  0
 21 19  1  0  0  0  0
 22 21  2  0  0  0  0
 24 25  1  0  0  0  0
 25 23  1  0  0  0  0
 25 20  1  0  0  0  0
M  END
>  <MODEL>
1

>  <REMARK>
 VINA RESULT:      -8.7      0.000      0.000
  Name = 
  6 active torsions:
  status: ('A' for Active; 'I' for Inactive)
    1  A    between atoms: N_1  and  C_5
    2  A    between atoms: N_2  and  C_21
    3  A    between atoms: C_6  and  C_15
    4  A    between atoms: C_6  and  C_23
    5  A    between atoms: C_13  and  C_20
    6  A    between atoms: C_20  and  C_23
                            x       y       z     vdW  Elec       q    Type
                         _______ _______ _______ _____ _____    ______ ____

>  <TORSDO>
F 6

$$$$
=
 OpenBabel10262419483D

 25 26  0  0  1  0  0  0  0  0999 V2000
  188.4730  177.5430  141.7800 N   0  0  0  0  0  0  0  0  0  0  0  0
  188.0090  177.2860  143.0150 C   0  0  0  0  0  0  0  0  0  0  0  0
  185.5590  179.3360  141.6290 C   0  0  0  0  0  1  0  0  0  0  0  0
  186.5860  178.5710  141.9780 C   0  0  0  0  0  0  0  0  0  0  0  0
  185.9940  177.9130  144.3060 C   0  0  2  0  0  3  0  0  0  0  0  0
  184.6700  178.6020  144.3290 C   0  0  0  0  0  1  0  0  0  0  0  0
  188.6110  176.5100  143.8590 N   0  0  0  0  0  1  0  0  0  0  0  0
  187.6170  178.3260  141.1420 N   0  0  0  0  0  0  0  0  0  0  0  0
  186.7860  177.9250  143.2060 C   0  0  0  0  0  0  0  0  0  0  0  0
  189.7180  177.0440  141.2060 C   0  0  1  0  0  3  0  0  0  0  0  0
  192.2970  177.5080  139.8830 C   0  0  0  0  0  2  0  0  0  0  0  0
  189.7990  177.3730  139.7100 C   0  0  1  0  0  3  0  0  0  0  0  0
  191.1250  176.8880  139.1280 C   0  0  0  0  0  2  0  0  0  0  0  0
  192.2210  177.1370  141.3600 C   0  0  0  0  0  2  0  0  0  0  0  0
  188.7060  176.7300  139.0010 N   0  0  0  0  0  1  0  0  0  0  0  0
  190.9110  177.6390  141.9570 C   0  0  0  0  0  2  0  0  0  0  0  0
  186.3810  177.1930  145.5580 C   0  0  0  0  0  2  0  0  0  0  0  0
  186.7940  178.1890  146.6300 C   0  0  0  0  0  2  0  0  0  0  0  0
  187.4350  177.4730  147.8080 C   0  0  0  0  0  2  0  0  0  0  0  0
  189.7310  176.7540  147.0420 N   0  0  0  0  0  2  0  0  0  0  0  0
  188.9150  177.6540  147.7940 C   0  0  0  0  0  0  0  0  0  0  0  0
  189.4340  178.5830  148.4690 O   0  0  0  0  0  0  0  0  0  0  0  0
  191.7880  175.5880  147.5690 C   0  0  0  0  0  1  0  0  0  0  0  0
  191.6530  177.0420  145.5770 C   0  0  0  0  0  1  0  0  0  0  0  0
  191.1830  176.8560  147.0060 C   0  0  0  0  0  3  0  0  0  0  0  0
  1  2  1  0  0  0  0
  2  9  2  0  0  0  0
  2  7  1  0  0  0  0
  3  4  1  0  0  0  0
  4  9  1  0  0  0  0
  5  6  1  6  0  0  0
  5 17  1  0  0  0  0
  8  1  1  0  0  0  0
  8  4  2  0  0  0  0
  9  5  1  0  0  0  0
 10  1  1  1  0  0  0
 10 16  1  0  0  0  0
 11 14  1  0  0  0  0
 12 15  1  6  0  0  0
 12 10  1  0  0  0  0
 13 12  1  0  0  0  0
 13 11  1  0  0  0  0
 14 16  1  0  0  0  0
 17 18  1  0  0  0  0
 18 19  1  0  0  0  0
 20 21  1  0  0  0  0
 21 19  1  0  0  0  0
 21 22  2  0  0  0  0
 24 25  1  0  0  0  0
 25 20  1  0  0  0  0
 25 23  1  0  0  0  0
M  END
>  <MODEL>
2

>  <REMARK>
 VINA RESULT:      -8.6      2.612      6.943
  Name = 
  6 active torsions:
  status: ('A' for Active; 'I' for Inactive)
    1  A    between atoms: N_1  and  C_5
    2  A    between atoms: N_2  and  C_21
    3  A    between atoms: C_6  and  C_15
    4  A    between atoms: C_6  and  C_23
    5  A    between atoms: C_13  and  C_20
    6  A    between atoms: C_20  and  C_23
                            x       y       z     vdW  Elec       q    Type
                         _______ _______ _______ _____ _____    ______ ____

>  <TORSDO>
F 6

$$$$
=
 OpenBabel10262419483D

 25 26  0  0  1  0  0  0  0  0999 V2000
  186.5420  178.6030  141.8380 N   0  0  0  0  0  0  0  0  0  0  0  0
  187.4090  177.7610  142.4280 C   0  0  0  0  0  0  0  0  0  0  0  0
  188.9260  178.5000  139.3810 C   0  0  0  0  0  1  0  0  0  0  0  0
  188.2000  178.3450  140.4830 C   0  0  0  0  0  0  0  0  0  0  0  0
  189.5990  176.7820  141.8260 C   0  0  2  0  0  3  0  0  0  0  0  0
  190.7320  176.7160  140.8560 C   0  0  0  0  0  1  0  0  0  0  0  0
  187.2390  177.2770  143.6160 N   0  0  0  0  0  1  0  0  0  0  0  0
  187.0110  178.9610  140.6530 N   0  0  0  0  0  0  0  0  0  0  0  0
  188.5080  177.5540  141.5980 C   0  0  0  0  0  0  0  0  0  0  0  0
  185.2760  179.0680  142.3970 C   0  0  1  0  0  3  0  0  0  0  0  0
  182.9090  178.6460  144.0800 C   0  0  0  0  0  2  0  0  0  0  0  0
  184.1160  178.1790  141.9320 C   0  0  1  0  0  3  0  0  0  0  0  0
  182.8030  178.6450  142.5580 C   0  0  0  0  0  2  0  0  0  0  0  0
  184.0420  179.5660  144.5240 C   0  0  0  0  0  2  0  0  0  0  0  0
  183.9970  178.2330  140.4850 N   0  0  0  0  0  1  0  0  0  0  0  0
  185.3620  179.0930  143.9240 C   0  0  0  0  0  2  0  0  0  0  0  0
  189.7510  175.9670  143.0700 C   0  0  0  0  0  2  0  0  0  0  0  0
  191.1040  176.2360  143.7110 C   0  0  0  0  0  2  0  0  0  0  0  0
  191.0390  177.4670  144.6010 C   0  0  0  0  0  2  0  0  0  0  0  0
  189.0930  177.8380  146.1670 N   0  0  0  0  0  2  0  0  0  0  0  0
  190.3170  177.1630  145.8700 C   0  0  0  0  0  0  0  0  0  0  0  0
  190.8090  176.3350  146.6820 O   0  0  0  0  0  0  0  0  0  0  0  0
  189.0110  178.3720  148.5290 C   0  0  0  0  0  1  0  0  0  0  0  0
  186.9230  178.0930  147.2380 C   0  0  0  0  0  1  0  0  0  0  0  0
  188.3510  177.6100  147.3990 C   0  0  0  0  0  3  0  0  0  0  0  0
  1  2  1  0  0  0  0
  2  7  1  0  0  0  0
  3  4  1  0  0  0  0
  4  8  2  0  0  0  0
  4  9  1  0  0  0  0
  5  6  1  1  0  0  0
  5 17  1  0  0  0  0
  8  1  1  0  0  0  0
  9  5  1  0  0  0  0
  9  2  2  0  0  0  0
 10  1  1  6  0  0  0
 10 16  1  0  0  0  0
 11 14  1  0  0  0  0
 12 15  1  6  0  0  0
 12 10  1  0  0  0  0
 12 13  1  0  0  0  0
 13 11  1  0  0  0  0
 16 14  1  0  0  0  0
 17 18  1  0  0  0  0
 18 19  1  0  0  0  0
 19 21  1  0  0  0  0
 20 25  1  0  0  0  0
 21 20  1  0  0  0  0
 21 22  2  0  0  0  0
 24 25  1  0  0  0  0
 25 23  1  0  0  0  0
M  END
>  <MODEL>
3

>  <REMARK>
 VINA RESULT:      -8.5      2.243      5.096
  Name = 
  6 active torsions:
  status: ('A' for Active; 'I' for Inactive)
    1  A    between atoms: N_1  and  C_5
    2  A    between atoms: N_2  and  C_21
    3  A    between atoms: C_6  and  C_15
    4  A    between atoms: C_6  and  C_23
    5  A    between atoms: C_13  and  C_20
    6  A    between atoms: C_20  and  C_23
                            x       y       z     vdW  Elec       q    Type
                         _______ _______ _______ _____ _____    ______ ____

>  <TORSDO>
F 6

$$$$
=
 OpenBabel10262419483D

 25 26  0  0  1  0  0  0  0  0999 V2000
  189.3200  177.3330  142.4110 N   0  0  0  0  0  0  0  0  0  0  0  0
  188.4040  177.2520  143.3910 C   0  0  0  0  0  0  0  0  0  0  0  0
  191.3610  177.9670  145.0870 C   0  0  0  0  0  1  0  0  0  0  0  0
  190.3460  177.7040  144.2720 C   0  0  0  0  0  0  0  0  0  0  0  0
  188.4330  177.4950  145.8530 C   0  0  2  0  0  3  0  0  0  0  0  0
  189.2110  177.8270  147.0830 C   0  0  0  0  0  1  0  0  0  0  0  0
  187.1450  177.0390  143.1790 N   0  0  0  0  0  1  0  0  0  0  0  0
  190.5050  177.6050  142.9350 N   0  0  0  0  0  0  0  0  0  0  0  0
  189.0070  177.4830  144.6250 C   0  0  0  0  0  0  0  0  0  0  0  0
  189.0720  177.1600  140.9830 C   0  0  1  0  0  3  0  0  0  0  0  0
  189.6970  177.7690  138.1800 C   0  0  0  0  0  2  0  0  0  0  0  0
  188.6430  178.4850  140.3400 C   0  0  1  0  0  3  0  0  0  0  0  0
  188.4290  178.3050  138.8390 C   0  0  0  0  0  2  0  0  0  0  0  0
  190.0840  176.4330  138.8060 C   0  0  0  0  0  2  0  0  0  0  0  0
  187.4060  178.9510  140.9430 N   0  0  0  0  0  1  0  0  0  0  0  0
  190.3250  176.6070  140.3010 C   0  0  0  0  0  2  0  0  0  0  0  0
  186.9810  177.1990  146.0540 C   0  0  0  0  0  2  0  0  0  0  0  0
  186.3420  178.2770  146.9170 C   0  0  0  0  0  2  0  0  0  0  0  0
  184.8430  178.3400  146.6720 C   0  0  0  0  0  2  0  0  0  0  0  0
  183.3900  178.5720  144.6200 N   0  0  0  0  0  2  0  0  0  0  0  0
  184.5500  178.9710  145.3530 C   0  0  0  0  0  0  0  0  0  0  0  0
  185.3440  179.8300  144.8840 O   0  0  0  0  0  0  0  0  0  0  0  0
  183.8130  178.3680  142.2430 C   0  0  0  0  0  1  0  0  0  0  0  0
  181.5690  178.9990  143.0630 C   0  0  0  0  0  1  0  0  0  0  0  0
  183.0590  179.1260  143.3150 C   0  0  0  0  0  3  0  0  0  0  0  0
  1  8  1  0  0  0  0
  1  2  1  0  0  0  0
  2  9  2  0  0  0  0
  4  9  1  0  0  0  0
  4  3  1  0  0  0  0
  5 17  1  0  0  0  0
  5  6  1  6  0  0  0
  7  2  1  0  0  0  0
  8  4  2  0  0  0  0
  9  5  1  0  0  0  0
 10 16  1  6  0  0  0
 10  1  1  0  0  0  0
 11 14  1  0  0  0  0
 11 13  1  0  0  0  0
 12 15  1  1  0  0  0
 12 10  1  0  0  0  0
 13 12  1  0  0  0  0
 14 16  1  0  0  0  0
 17 18  1  0  0  0  0
 19 18  1  0  0  0  0
 20 21  1  0  0  0  0
 21 19  1  0  0  0  0
 22 21  2  0  0  0  0
 23 25  1  0  0  0  0
 24 25  1  0  0  0  0
 25 20  1  0  0  0  0
M  END
>  <MODEL>
4

>  <REMARK>
 VINA RESULT:      -8.4      2.278      5.955
  Name = 
  6 active torsions:
  status: ('A' for Active; 'I' for Inactive)
    1  A    between atoms: N_1  and  C_5
    2  A    between atoms: N_2  and  C_21
    3  A    between atoms: C_6  and  C_15
    4  A    between atoms: C_6  and  C_23
    5  A    between atoms: C_13  and  C_20
    6  A    between atoms: C_20  and  C_23
                            x       y       z     vdW  Elec       q    Type
                         _______ _______ _______ _____ _____    ______ ____

>  <TORSDO>
F 6

$$$$
=
 OpenBabel10262419483D

 25 26  0  0  1  0  0  0  0  0999 V2000
  185.4090  178.2490  144.1280 N   0  0  0  0  0  0  0  0  0  0  0  0
  186.6010  177.6840  144.3890 C   0  0  0  0  0  0  0  0  0  0  0  0
  185.8170  179.3520  147.3440 C   0  0  0  0  0  1  0  0  0  0  0  0
  185.9370  178.7840  146.1500 C   0  0  0  0  0  0  0  0  0  0  0  0
  188.1280  177.6160  146.3330 C   0  0  2  0  0  3  0  0  0  0  0  0
  188.3800  177.9800  147.7590 C   0  0  0  0  0  1  0  0  0  0  0  0
  187.2320  176.9260  143.5520 N   0  0  0  0  0  1  0  0  0  0  0  0
  184.9980  178.9230  145.1900 N   0  0  0  0  0  0  0  0  0  0  0  0
  186.9980  177.9940  145.6870 C   0  0  0  0  0  0  0  0  0  0  0  0
  184.6620  178.1460  142.8780 C   0  0  1  0  0  3  0  0  0  0  0  0
  183.4010  179.3870  140.5360 C   0  0  0  0  0  2  0  0  0  0  0  0
  183.3140  178.8700  142.9880 C   0  0  1  0  0  3  0  0  0  0  0  0
  182.5590  178.7950  141.6630 C   0  0  0  0  0  2  0  0  0  0  0  0
  184.7190  178.6290  140.4170 C   0  0  0  0  0  2  0  0  0  0  0  0
  182.5060  178.2580  144.0290 N   0  0  0  0  0  1  0  0  0  0  0  0
  185.4930  178.7180  141.7280 C   0  0  0  0  0  2  0  0  0  0  0  0
  189.1850  176.7910  145.6700 C   0  0  0  0  0  2  0  0  0  0  0  0
  190.3240  177.6810  145.1960 C   0  0  0  0  0  2  0  0  0  0  0  0
  191.3260  176.8800  144.3820 C   0  0  0  0  0  2  0  0  0  0  0  0
  190.3800  177.4690  142.1160 N   0  0  0  0  0  2  0  0  0  0  0  0
  190.7380  176.4710  143.0740 C   0  0  0  0  0  0  0  0  0  0  0  0
  190.5350  175.2500  142.8370 O   0  0  0  0  0  0  0  0  0  0  0  0
  188.8900  178.2880  140.3900 C   0  0  0  0  0  1  0  0  0  0  0  0
  190.8590  176.9190  139.7940 C   0  0  0  0  0  1  0  0  0  0  0  0
  189.7760  177.1430  140.8320 C   0  0  0  0  0  3  0  0  0  0  0  0
  1  2  1  0  0  0  0
  1  8  1  0  0  0  0
  2  9  2  0  0  0  0
  4  3  1  0  0  0  0
  5  6  1  1  0  0  0
  7  2  1  0  0  0  0
  8  4  2  0  0  0  0
  9  4  1  0  0  0  0
  9  5  1  0  0  0  0
 10 16  1  6  0  0  0
 10 12  1  0  0  0  0
 10  1  1  0  0  0  0
 11 13  1  0  0  0  0
 12 15  1  1  0  0  0
 13 12  1  0  0  0  0
 14 11  1  0  0  0  0
 14 16  1  0  0  0  0
 17  5  1  0  0  0  0
 18 17  1  0  0  0  0
 19 18  1  0  0  0  0
 20 21  1  0  0  0  0
 21 19  1  0  0  0  0
 22 21  2  0  0  0  0
 23 25  1  0  0  0  0
 24 25  1  0  0  0  0
 25 20  1  0  0  0  0
M  END
>  <MODEL>
5

>  <REMARK>
 VINA RESULT:      -8.2      1.717      2.767
  Name = 
  6 active torsions:
  status: ('A' for Active; 'I' for Inactive)
    1  A    between atoms: N_1  and  C_5
    2  A    between atoms: N_2  and  C_21
    3  A    between atoms: C_6  and  C_15
    4  A    between atoms: C_6  and  C_23
    5  A    between atoms: C_13  and  C_20
    6  A    between atoms: C_20  and  C_23
                            x       y       z     vdW  Elec       q    Type
                         _______ _______ _______ _____ _____    ______ ____

>  <TORSDO>
F 6

$$$$
=
 OpenBabel10262419483D

 25 26  0  0  1  0  0  0  0  0999 V2000
  188.1220  177.8330  145.5640 N   0  0  0  0  0  0  0  0  0  0  0  0
  187.5060  177.9800  144.3780 C   0  0  0  0  0  0  0  0  0  0  0  0
  184.9150  178.2530  146.6890 C   0  0  0  0  0  1  0  0  0  0  0  0
  186.0240  178.1280  145.9690 C   0  0  0  0  0  0  0  0  0  0  0  0
  185.1770  178.3660  143.6400 C   0  0  2  0  0  3  0  0  0  0  0  0
  183.7570  178.6280  144.0160 C   0  0  0  0  0  1  0  0  0  0  0  0
  188.1300  177.9860  143.2440 N   0  0  0  0  0  1  0  0  0  0  0  0
  187.2300  177.9180  146.5380 N   0  0  0  0  0  0  0  0  0  0  0  0
  186.1410  178.1750  144.5730 C   0  0  0  0  0  0  0  0  0  0  0  0
  189.5510  177.6190  145.7720 C   0  0  1  0  0  3  0  0  0  0  0  0
  191.8320  175.8350  146.2490 C   0  0  0  0  0  2  0  0  0  0  0  0
  189.8150  177.0150  147.1570 C   0  0  1  0  0  3  0  0  0  0  0  0
  191.3070  176.7520  147.3490 C   0  0  0  0  0  2  0  0  0  0  0  0
  191.5960  176.4700  144.8830 C   0  0  0  0  0  2  0  0  0  0  0  0
  189.3570  177.9260  148.1920 N   0  0  0  0  0  1  0  0  0  0  0  0
  190.1060  176.7140  144.6710 C   0  0  0  0  0  2  0  0  0  0  0  0
  185.4760  178.3520  142.1740 C   0  0  0  0  0  2  0  0  0  0  0  0
  184.1860  178.4640  141.3750 C   0  0  0  0  0  2  0  0  0  0  0  0
  184.4080  179.2790  140.1120 C   0  0  0  0  0  2  0  0  0  0  0  0
  186.4540  178.5900  138.8010 N   0  0  0  0  0  2  0  0  0  0  0  0
  185.0550  178.4490  139.0550 C   0  0  0  0  0  0  0  0  0  0  0  0
  184.3550  177.6490  138.3770 O   0  0  0  0  0  0  0  0  0  0  0  0
  187.5350  178.7620  136.6400 C   0  0  0  0  0  1  0  0  0  0  0  0
  188.3930  177.1910  138.3430 C   0  0  0  0  0  1  0  0  0  0  0  0
  187.1440  177.8310  137.7680 C   0  0  0  0  0  3  0  0  0  0  0  0
  1 10  1  0  0  0  0
  1  8  1  0  0  0  0
  2  9  2  0  0  0  0
  2  1  1  0  0  0  0
  4  8  2  0  0  0  0
  4  3  1  0  0  0  0
  5  6  1  1  0  0  0
  5  9  1  0  0  0  0
  7  2  1  0  0  0  0
  9  4  1  0  0  0  0
 10 16  1  6  0  0  0
 10 12  1  0  0  0  0
 11 13  1  0  0  0  0
 12 13  1  0  0  0  0
 12 15  1  1  0  0  0
 14 11  1  0  0  0  0
 16 14  1  0  0  0  0
 17  5  1  0  0  0  0
 18 17  1  0  0  0  0
 19 18  1  0  0  0  0
 20 21  1  0  0  0  0
 21 19  1  0  0  0  0
 22 21  2  0  0  0  0
 23 25  1  0  0  0  0
 25 24  1  0  0  0  0
 25 20  1  0  0  0  0
M  END
>  <MODEL>
6

>  <REMARK>
 VINA RESULT:      -8.2      2.163      5.371
  Name = 
  6 active torsions:
  status: ('A' for Active; 'I' for Inactive)
    1  A    between atoms: N_1  and  C_5
    2  A    between atoms: N_2  and  C_21
    3  A    between atoms: C_6  and  C_15
    4  A    between atoms: C_6  and  C_23
    5  A    between atoms: C_13  and  C_20
    6  A    between atoms: C_20  and  C_23
                            x       y       z     vdW  Elec       q    Type
                         _______ _______ _______ _____ _____    ______ ____

>  <TORSDO>
F 6

$$$$
=
 OpenBabel10262419483D

 25 26  0  0  1  0  0  0  0  0999 V2000
  189.7180  177.3110  141.0760 N   0  0  0  0  0  0  0  0  0  0  0  0
  188.7400  177.6900  140.2340 C   0  0  0  0  0  0  0  0  0  0  0  0
  190.7750  175.6590  138.2680 C   0  0  0  0  0  1  0  0  0  0  0  0
  190.1290  176.3910  139.1680 C   0  0  0  0  0  0  0  0  0  0  0  0
  188.1940  177.2550  137.8610 C   0  0  2  0  0  3  0  0  0  0  0  0
  188.5200  176.5270  136.6000 C   0  0  0  0  0  1  0  0  0  0  0  0
  187.7380  178.4290  140.5880 N   0  0  0  0  0  1  0  0  0  0  0  0
  190.5690  176.5230  140.4370 N   0  0  0  0  0  0  0  0  0  0  0  0
  188.9500  177.1250  138.9790 C   0  0  0  0  0  0  0  0  0  0  0  0
  189.8400  177.6890  142.4800 C   0  0  1  0  0  3  0  0  0  0  0  0
  191.0750  177.3660  145.1230 C   0  0  0  0  0  2  0  0  0  0  0  0
  189.4690  176.5150  143.3950 C   0  0  1  0  0  3  0  0  0  0  0  0
  189.6440  176.9060  144.8610 C   0  0  0  0  0  2  0  0  0  0  0  0
  191.4110  178.5570  144.2330 C   0  0  0  0  0  2  0  0  0  0  0  0
  188.0870  176.1270  143.1690 N   0  0  0  0  0  1  0  0  0  0  0  0
  191.2640  178.1700  142.7660 C   0  0  0  0  0  2  0  0  0  0  0  0
  186.9710  178.1170  137.8240 C   0  0  0  0  0  2  0  0  0  0  0  0
  185.7220  177.2510  137.7490 C   0  0  0  0  0  2  0  0  0  0  0  0
  184.4710  178.1130  137.7950 C   0  0  0  0  0  2  0  0  0  0  0  0
  183.9660  178.1270  140.2700 N   0  0  0  0  0  2  0  0  0  0  0  0
  184.3740  178.8340  139.0970 C   0  0  0  0  0  0  0  0  0  0  0  0
  184.6260  180.0680  139.1450 O   0  0  0  0  0  0  0  0  0  0  0  0
  182.3840  178.6700  142.0220 C   0  0  0  0  0  1  0  0  0  0  0  0
  184.7210  178.0950  142.5830 C   0  0  0  0  0  1  0  0  0  0  0  0
  183.8240  178.7740  141.5660 C   0  0  0  0  0  3  0  0  0  0  0  0
  2  7  1  0  0  0  0
  2  1  1  0  0  0  0
  3  4  1  0  0  0  0
  4  8  2  0  0  0  0
  5  6  1  1  0  0  0
  5  9  1  0  0  0  0
  8  1  1  0  0  0  0
  9  4  1  0  0  0  0
  9  2  2  0  0  0  0
 10  1  1  6  0  0  0
 10 16  1  0  0  0  0
 10 12  1  0  0  0  0
 12 15  1  1  0  0  0
 12 13  1  0  0  0  0
 13 11  1  0  0  0  0
 14 11  1  0  0  0  0
 16 14  1  0  0  0  0
 17  5  1  0  0  0  0
 18 19  1  0  0  0  0
 18 17  1  0  0  0  0
 19 21  1  0  0  0  0
 20 25  1  0  0  0  0
 21 22  2  0  0  0  0
 21 20  1  0  0  0  0
 25 23  1  0  0  0  0
 25 24  1  0  0  0  0
M  END
>  <MODEL>
7

>  <REMARK>
 VINA RESULT:      -8.1      2.597      6.693
  Name = 
  6 active torsions:
  status: ('A' for Active; 'I' for Inactive)
    1  A    between atoms: N_1  and  C_5
    2  A    between atoms: N_2  and  C_21
    3  A    between atoms: C_6  and  C_15
    4  A    between atoms: C_6  and  C_23
    5  A    between atoms: C_13  and  C_20
    6  A    between atoms: C_20  and  C_23
                            x       y       z     vdW  Elec       q    Type
                         _______ _______ _______ _____ _____    ______ ____

>  <TORSDO>
F 6

$$$$
=
 OpenBabel10262419483D

 25 26  0  0  1  0  0  0  0  0999 V2000
  188.0060  177.8560  145.5820 N   0  0  0  0  0  0  0  0  0  0  0  0
  187.3040  178.0160  144.4470 C   0  0  0  0  0  0  0  0  0  0  0  0
  184.8910  178.2560  146.9470 C   0  0  0  0  0  1  0  0  0  0  0  0
  185.9440  178.1420  146.1460 C   0  0  0  0  0  0  0  0  0  0  0  0
  184.9260  178.4080  143.8890 C   0  0  2  0  0  3  0  0  0  0  0  0
  183.5370  178.6630  144.3740 C   0  0  0  0  0  1  0  0  0  0  0  0
  187.8410  178.0380  143.2690 N   0  0  0  0  0  1  0  0  0  0  0  0
  187.1890  177.9270  146.6210 N   0  0  0  0  0  0  0  0  0  0  0  0
  185.9570  178.2060  144.7460 C   0  0  0  0  0  0  0  0  0  0  0  0
  189.4470  177.6410  145.6800 C   0  0  1  0  0  3  0  0  0  0  0  0
  191.7590  175.8540  145.9580 C   0  0  0  0  0  2  0  0  0  0  0  0
  189.8130  177.0150  147.0320 C   0  0  1  0  0  3  0  0  0  0  0  0
  191.3150  176.7530  147.1090 C   0  0  0  0  0  2  0  0  0  0  0  0
  191.4220  176.5110  144.6240 C   0  0  0  0  0  2  0  0  0  0  0  0
  189.4320  177.9090  148.1120 N   0  0  0  0  0  1  0  0  0  0  0  0
  189.9200  176.7540  144.5270 C   0  0  0  0  0  2  0  0  0  0  0  0
  185.1140  178.4130  142.4050 C   0  0  0  0  0  2  0  0  0  0  0  0
  183.7740  178.2390  141.7060 C   0  0  0  0  0  2  0  0  0  0  0  0
  183.9650  178.1340  140.2020 C   0  0  0  0  0  2  0  0  0  0  0  0
  182.0820  179.5750  139.3320 N   0  0  0  0  0  2  0  0  0  0  0  0
  183.4830  179.3700  139.5210 C   0  0  0  0  0  0  0  0  0  0  0  0
  184.3190  180.2110  139.0940 O   0  0  0  0  0  0  0  0  0  0  0  0
  181.1630  180.3700  137.2360 C   0  0  0  0  0  1  0  0  0  0  0  0
  180.3160  181.2490  139.3840 C   0  0  0  0  0  1  0  0  0  0  0  0
  181.5440  180.7450  138.6530 C   0  0  0  0  0  3  0  0  0  0  0  0
  1 10  1  0  0  0  0
  1  8  1  0  0  0  0
  2  9  2  0  0  0  0
  2  1  1  0  0  0  0
  4  8  2  0  0  0  0
  4  3  1  0  0  0  0
  5  6  1  1  0  0  0
  5  9  1  0  0  0  0
  7  2  1  0  0  0  0
  9  4  1  0  0  0  0
 10 16  1  6  0  0  0
 10 12  1  0  0  0  0
 11 13  1  0  0  0  0
 12 13  1  0  0  0  0
 12 15  1  1  0  0  0
 14 11  1  0  0  0  0
 16 14  1  0  0  0  0
 17  5  1  0  0  0  0
 18 17  1  0  0  0  0
 19 18  1  0  0  0  0
 20 21  1  0  0  0  0
 21 19  1  0  0  0  0
 22 21  2  0  0  0  0
 23 25  1  0  0  0  0
 25 20  1  0  0  0  0
 25 24  1  0  0  0  0
M  END
>  <MODEL>
8

>  <REMARK>
 VINA RESULT:      -8.1      3.252      6.283
  Name = 
  6 active torsions:
  status: ('A' for Active; 'I' for Inactive)
    1  A    between atoms: N_1  and  C_5
    2  A    between atoms: N_2  and  C_21
    3  A    between atoms: C_6  and  C_15
    4  A    between atoms: C_6  and  C_23
    5  A    between atoms: C_13  and  C_20
    6  A    between atoms: C_20  and  C_23
                            x       y       z     vdW  Elec       q    Type
                         _______ _______ _______ _____ _____    ______ ____

>  <TORSDO>
F 6

$$$$
=
 OpenBabel10262419483D

 25 26  0  0  1  0  0  0  0  0999 V2000
  187.8770  177.7180  144.6200 N   0  0  0  0  0  0  0  0  0  0  0  0
  187.0020  178.1060  143.6760 C   0  0  0  0  0  0  0  0  0  0  0  0
  185.1510  178.2520  146.6230 C   0  0  0  0  0  1  0  0  0  0  0  0
  186.0110  178.1390  145.6180 C   0  0  0  0  0  0  0  0  0  0  0  0
  184.6330  178.8200  143.6580 C   0  0  2  0  0  3  0  0  0  0  0  0
  183.4050  179.1500  144.4390 C   0  0  0  0  0  1  0  0  0  0  0  0
  187.3080  178.2330  142.4250 N   0  0  0  0  0  1  0  0  0  0  0  0
  187.2840  177.7310  145.8030 N   0  0  0  0  0  0  0  0  0  0  0  0
  185.7710  178.3940  144.2600 C   0  0  0  0  0  0  0  0  0  0  0  0
  189.2700  177.3410  144.4000 C   0  0  1  0  0  3  0  0  0  0  0  0
  191.7290  177.4350  142.8000 C   0  0  0  0  0  2  0  0  0  0  0  0
  189.4150  176.5190  143.1130 C   0  0  1  0  0  3  0  0  0  0  0  0
  190.8810  176.1680  142.8680 C   0  0  0  0  0  2  0  0  0  0  0  0
  191.6020  178.2180  144.1020 C   0  0  0  0  0  2  0  0  0  0  0  0
  188.6450  175.2920  143.2180 N   0  0  0  0  0  1  0  0  0  0  0  0
  190.1440  178.5950  144.3440 C   0  0  0  0  0  2  0  0  0  0  0  0
  184.5400  179.0090  142.1770 C   0  0  0  0  0  2  0  0  0  0  0  0
  183.3910  178.1850  141.6150 C   0  0  0  0  0  2  0  0  0  0  0  0
  182.8180  178.8450  140.3720 C   0  0  0  0  0  2  0  0  0  0  0  0
  184.6150  178.0430  138.7890 N   0  0  0  0  0  2  0  0  0  0  0  0
  183.8960  179.1270  139.3800 C   0  0  0  0  0  0  0  0  0  0  0  0
  184.1800  180.3210  139.0930 O   0  0  0  0  0  0  0  0  0  0  0  0
  187.0190  178.2530  138.5710 C   0  0  0  0  0  1  0  0  0  0  0  0
  185.6990  177.1300  136.8100 C   0  0  0  0  0  1  0  0  0  0  0  0
  185.6960  178.2470  137.8350 C   0  0  0  0  0  3  0  0  0  0  0  0
  1  8  1  0  0  0  0
  2  9  2  0  0  0  0
  2  1  1  0  0  0  0
  4  8  2  0  0  0  0
  4  3  1  0  0  0  0
  5  9  1  0  0  0  0
  5  6  1  1  0  0  0
  7  2  1  0  0  0  0
  9  4  1  0  0  0  0
 10 16  1  6  0  0  0
 10  1  1  0  0  0  0
 11 13  1  0  0  0  0
 11 14  1  0  0  0  0
 12 15  1  1  0  0  0
 12 10  1  0  0  0  0
 13 12  1  0  0  0  0
 14 16  1  0  0  0  0
 17  5  1  0  0  0  0
 18 17  1  0  0  0  0
 19 18  1  0  0  0  0
 20 21  1  0  0  0  0
 21 19  1  0  0  0  0
 22 21  2  0  0  0  0
 24 25  1  0  0  0  0
 25 23  1  0  0  0  0
 25 20  1  0  0  0  0
M  END
>  <MODEL>
9

>  <REMARK>
 VINA RESULT:      -7.9      2.527      5.765
  Name = 
  6 active torsions:
  status: ('A' for Active; 'I' for Inactive)
    1  A    between atoms: N_1  and  C_5
    2  A    between atoms: N_2  and  C_21
    3  A    between atoms: C_6  and  C_15
    4  A    between atoms: C_6  and  C_23
    5  A    between atoms: C_13  and  C_20
    6  A    between atoms: C_20  and  C_23
                            x       y       z     vdW  Elec       q    Type
                         _______ _______ _______ _____ _____    ______ ____

>  <TORSDO>
F 6

$$$$
