=
 OpenBabel10252414493D

 34 39  0  0  1  0  0  0  0  0999 V2000
  189.8130  177.3730  146.4890 C   0  0  0  0  0  0  0  0  0  0  0  0
  191.3450  176.0080  145.2450 C   0  0  0  0  0  0  0  0  0  0  0  0
  189.2700  176.9440  144.0310 C   0  0  1  0  0  3  0  0  0  0  0  0
  188.9330  177.4030  141.6500 C   0  0  2  0  0  3  0  0  0  0  0  0
  191.8160  176.6180  147.4810 C   0  0  0  0  0  3  0  0  0  0  0  0
  192.1410  175.9550  146.3440 N   0  0  0  0  0  0  0  0  0  0  0  0
  191.5320  177.3690  142.2470 S   0  0  0  0  0  0  0  0  0  0  0  0
  190.2000  176.8300  145.2440 C   0  0  0  0  0  0  0  0  0  0  0  0
  189.5620  178.0630  140.4500 C   0  0  0  0  0  2  0  0  0  0  0  0
  190.6440  177.2950  147.5580 N   0  0  0  0  0  0  0  0  0  0  0  0
  188.0040  177.6490  144.3420 N   0  0  1  0  0  0  0  0  0  0  0  0
  188.4340  177.9210  146.6860 C   0  0  0  0  0  2  0  0  0  0  0  0
  191.6180  175.1270  144.1600 N   0  0  0  0  0  1  0  0  0  0  0  0
  187.5250  177.9160  141.9310 C   0  0  0  0  0  2  0  0  0  0  0  0
  187.0160  177.3690  143.2790 C   0  0  2  0  0  3  0  0  0  0  0  0
  191.0590  177.7740  140.5240 C   0  0  2  0  0  3  0  0  0  0  0  0
  189.8410  177.6970  142.8180 C   0  0  2  0  0  3  0  0  0  0  0  0
  187.5050  177.2840  145.6650 C   0  0  0  0  0  2  0  0  0  0  0  0
  183.4850  178.6670  142.7870 C   0  0  0  0  0  0  0  0  0  0  0  0
  183.1690  179.1290  144.0690 C   0  0  0  0  0  3  0  0  0  0  0  0
  185.6760  177.9830  143.5700 C   0  0  0  0  0  0  0  0  0  0  0  0
  184.1040  179.0210  145.1030 C   0  0  0  0  0  3  0  0  0  0  0  0
  184.7370  178.0970  142.5390 C   0  0  0  0  0  3  0  0  0  0  0  0
  185.3560  178.4500  144.8540 C   0  0  0  0  0  3  0  0  0  0  0  0
  182.5340  178.7780  141.7360 N   0  0  0  0  0  1  0  0  0  0  0  0
  190.7030  176.3340  138.5290 C   0  0  0  0  0  3  0  0  0  0  0  0
  191.4500  176.6690  139.5880 C   0  0  0  0  0  3  0  0  0  0  0  0
  189.2580  174.9520  136.1100 O   0  0  0  0  0  0  0  0  0  0  0  0
  191.0910  175.2250  137.5880 C   0  0  1  0  0  3  0  0  0  0  0  0
  190.4150  175.3170  136.2390 C   0  0  0  0  0  0  0  0  0  0  0  0
  192.6440  175.7310  135.2130 C   0  0  0  0  0  2  0  0  0  0  0  0
  193.0700  175.9930  136.6520 C   0  0  0  0  0  2  0  0  0  0  0  0
  192.4940  175.0310  137.5100 O   0  0  0  0  0  0  0  0  0  0  0  0
  191.1390  175.9280  135.0770 C   0  0  0  0  0  2  0  0  0  0  0  0
  1 12  1  0  0  0  0
  1 10  1  0  0  0  0
  2  6  2  0  0  0  0
  3 11  1  0  0  0  0
  3  8  1  1  0  0  0
  4  9  1  6  0  0  0
  4 14  1  0  0  0  0
  4 17  1  0  0  0  0
  5 10  2  0  0  0  0
  6  5  1  0  0  0  0
  8  2  1  0  0  0  0
  8  1  2  0  0  0  0
  9 16  1  0  0  0  0
 11 18  1  1  0  0  0
 13  2  1  0  0  0  0
 14 15  1  0  0  0  0
 15 21  1  1  0  0  0
 15 11  1  0  0  0  0
 16 27  1  6  0  0  0
 16  7  1  0  0  0  0
 17  7  1  6  0  0  0
 17  3  1  0  0  0  0
 18 12  1  0  0  0  0
 19 20  1  0  0  0  0
 20 22  2  0  0  0  0
 21 24  2  0  0  0  0
 23 19  2  0  0  0  0
 23 21  1  0  0  0  0
 24 22  1  0  0  0  0
 25 19  1  0  0  0  0
 26 27  2  0  0  0  0
 28 30  2  0  0  0  0
 29 26  1  6  0  0  0
 30 29  1  0  0  0  0
 31 32  1  0  0  0  0
 32 33  1  0  0  0  0
 33 29  1  0  0  0  0
 34 31  1  0  0  0  0
 34 30  1  0  0  0  0
M  END
>  <MODEL>
1

>  <REMARK>
 VINA RESULT:     -10.3      0.000      0.000
  Name = 
  3 active torsions:
  status: ('A' for Active; 'I' for Inactive)
    1  A    between atoms: C_3  and  C_13
    2  A    between atoms: C_12  and  C_28
    3  A    between atoms: C_17  and  C_29
                            x       y       z     vdW  Elec       q    Type
                         _______ _______ _______ _____ _____    ______ ____

>  <TORSDO>
F 3

$$$$
=
 OpenBabel10252414493D

 34 39  0  0  1  0  0  0  0  0999 V2000
  189.6980  177.3440  146.0430 C   0  0  0  0  0  0  0  0  0  0  0  0
  191.1270  176.0210  144.6390 C   0  0  0  0  0  0  0  0  0  0  0  0
  188.9860  177.0290  143.6110 C   0  0  1  0  0  3  0  0  0  0  0  0
  188.4960  177.5970  141.2810 C   0  0  2  0  0  3  0  0  0  0  0  0
  191.7540  176.5260  146.8630 C   0  0  0  0  0  3  0  0  0  0  0  0
  191.9940  175.9120  145.6790 N   0  0  0  0  0  0  0  0  0  0  0  0
  191.1290  177.5130  141.6980 S   0  0  0  0  0  0  0  0  0  0  0  0
  189.9940  176.8530  144.7520 C   0  0  0  0  0  0  0  0  0  0  0  0
  189.0520  178.3040  140.0710 C   0  0  0  0  0  2  0  0  0  0  0  0
  190.5980  177.2100  147.0500 N   0  0  0  0  0  0  0  0  0  0  0  0
  187.7530  177.7310  144.0370 N   0  0  1  0  0  0  0  0  0  0  0  0
  188.3430  177.8950  146.3560 C   0  0  0  0  0  2  0  0  0  0  0  0
  191.3160  175.1860  143.5010 N   0  0  0  0  0  1  0  0  0  0  0  0
  187.1170  178.1100  141.6780 C   0  0  0  0  0  2  0  0  0  0  0  0
  186.6930  177.5080  143.0320 C   0  0  2  0  0  3  0  0  0  0  0  0
  190.5460  177.9980  140.0310 C   0  0  2  0  0  3  0  0  0  0  0  0
  189.4840  177.8310  142.3960 C   0  0  2  0  0  3  0  0  0  0  0  0
  187.3390  177.3120  145.3740 C   0  0  0  0  0  2  0  0  0  0  0  0
  183.1130  178.7560  142.8670 C   0  0  0  0  0  0  0  0  0  0  0  0
  182.9270  179.2630  144.1570 C   0  0  0  0  0  3  0  0  0  0  0  0
  185.3830  178.1210  143.4400 C   0  0  0  0  0  0  0  0  0  0  0  0
  183.9660  179.2020  145.0900 C   0  0  0  0  0  3  0  0  0  0  0  0
  184.3390  178.1870  142.5090 C   0  0  0  0  0  3  0  0  0  0  0  0
  185.1930  178.6340  144.7320 C   0  0  0  0  0  3  0  0  0  0  0  0
  182.0560  178.8190  141.9180 N   0  0  0  0  0  1  0  0  0  0  0  0
  190.5790  177.0770  137.7220 C   0  0  0  0  0  3  0  0  0  0  0  0
  190.8600  176.9330  139.0230 C   0  0  0  0  0  3  0  0  0  0  0  0
  191.6590  174.1390  137.9430 O   0  0  0  0  0  0  0  0  0  0  0  0
  190.8920  176.0110  136.7070 C   0  0  1  0  0  3  0  0  0  0  0  0
  190.7680  174.6060  137.2530 C   0  0  0  0  0  0  0  0  0  0  0  0
  188.8560  174.2330  135.7050 C   0  0  0  0  0  2  0  0  0  0  0  0
  188.8830  175.7510  135.5750 C   0  0  0  0  0  2  0  0  0  0  0  0
  190.2170  176.2040  135.4740 O   0  0  0  0  0  0  0  0  0  0  0  0
  189.5170  173.8150  137.0130 C   0  0  0  0  0  2  0  0  0  0  0  0
  1 12  1  0  0  0  0
  1 10  1  0  0  0  0
  2  8  1  0  0  0  0
  2  6  2  0  0  0  0
  3 11  1  0  0  0  0
  3  8  1  1  0  0  0
  4  9  1  6  0  0  0
  4 14  1  0  0  0  0
  4 17  1  0  0  0  0
  5 10  2  0  0  0  0
  6  5  1  0  0  0  0
  8  1  2  0  0  0  0
 11 18  1  1  0  0  0
 13  2  1  0  0  0  0
 14 15  1  0  0  0  0
 15 21  1  1  0  0  0
 15 11  1  0  0  0  0
 16 27  1  6  0  0  0
 16  9  1  0  0  0  0
 16  7  1  0  0  0  0
 17  7  1  6  0  0  0
 17  3  1  0  0  0  0
 18 12  1  0  0  0  0
 19 20  1  0  0  0  0
 20 22  2  0  0  0  0
 21 24  2  0  0  0  0
 23 19  2  0  0  0  0
 23 21  1  0  0  0  0
 24 22  1  0  0  0  0
 25 19  1  0  0  0  0
 26 27  2  0  0  0  0
 29 30  1  0  0  0  0
 29 26  1  1  0  0  0
 30 28  2  0  0  0  0
 31 34  1  0  0  0  0
 32 31  1  0  0  0  0
 33 32  1  0  0  0  0
 33 29  1  0  0  0  0
 34 30  1  0  0  0  0
M  END
>  <MODEL>
2

>  <REMARK>
 VINA RESULT:     -10.1      0.893      1.522
  Name = 
  3 active torsions:
  status: ('A' for Active; 'I' for Inactive)
    1  A    between atoms: C_3  and  C_13
    2  A    between atoms: C_12  and  C_28
    3  A    between atoms: C_17  and  C_29
                            x       y       z     vdW  Elec       q    Type
                         _______ _______ _______ _____ _____    ______ ____

>  <TORSDO>
F 3

$$$$
=
 OpenBabel10252414493D

 34 39  0  0  1  0  0  0  0  0999 V2000
  191.4310  177.4750  141.2960 C   0  0  0  0  0  0  0  0  0  0  0  0
  190.0360  176.7470  139.4830 C   0  0  0  0  0  0  0  0  0  0  0  0
  188.9310  177.2390  141.7630 C   0  0  1  0  0  3  0  0  0  0  0  0
  186.6280  177.8960  142.2680 C   0  0  2  0  0  3  0  0  0  0  0  0
  192.3390  177.1650  139.1400 C   0  0  0  0  0  3  0  0  0  0  0  0
  191.1280  176.7680  138.6760 N   0  0  0  0  0  0  0  0  0  0  0  0
  187.2460  178.4870  139.7420 S   0  0  0  0  0  0  0  0  0  0  0  0
  190.1300  177.2240  140.8070 C   0  0  0  0  0  0  0  0  0  0  0  0
  185.5330  178.8520  141.8680 C   0  0  0  0  0  2  0  0  0  0  0  0
  192.4910  177.4850  140.4490 N   0  0  0  0  0  0  0  0  0  0  0  0
  189.3170  177.5300  143.1640 N   0  0  1  0  0  0  0  0  0  0  0  0
  191.6820  177.6010  142.7660 C   0  0  0  0  0  2  0  0  0  0  0  0
  188.8480  176.1210  139.0100 N   0  0  0  0  0  1  0  0  0  0  0  0
  186.9580  177.9700  143.7550 C   0  0  0  0  0  2  0  0  0  0  0  0
  188.2150  177.1350  144.0650 C   0  0  2  0  0  3  0  0  0  0  0  0
  185.5860  178.9690  140.3480 C   0  0  2  0  0  3  0  0  0  0  0  0
  187.8360  178.2700  141.4440 C   0  0  2  0  0  3  0  0  0  0  0  0
  190.5750  176.8750  143.5140 C   0  0  0  0  0  2  0  0  0  0  0  0
  190.2160  177.1880  147.2890 C   0  0  0  0  0  0  0  0  0  0  0  0
  189.2670  177.6490  148.2070 C   0  0  0  0  0  3  0  0  0  0  0  0
  188.5690  177.3220  145.5130 C   0  0  0  0  0  0  0  0  0  0  0  0
  187.9680  177.9460  147.7820 C   0  0  0  0  0  3  0  0  0  0  0  0
  189.8660  177.0240  145.9450 C   0  0  0  0  0  3  0  0  0  0  0  0
  187.6190  177.7810  146.4390 C   0  0  0  0  0  3  0  0  0  0  0  0
  191.5360  176.8860  147.7210 N   0  0  0  0  0  1  0  0  0  0  0  0
  183.7790  178.6050  138.6800 C   0  0  0  0  0  3  0  0  0  0  0  0
  184.5170  178.1430  139.6960 C   0  0  0  0  0  3  0  0  0  0  0  0
  183.5790  175.5830  137.8600 O   0  0  0  0  0  0  0  0  0  0  0  0
  182.7050  177.7800  138.0240 C   0  0  1  0  0  3  0  0  0  0  0  0
  182.7620  176.3150  138.3930 C   0  0  0  0  0  0  0  0  0  0  0  0
  180.5750  176.5790  139.5510 C   0  0  0  0  0  2  0  0  0  0  0  0
  180.8830  178.0670  139.4310 C   0  0  0  0  0  2  0  0  0  0  0  0
  181.4120  178.3500  138.1530 O   0  0  0  0  0  0  0  0  0  0  0  0
  181.8690  175.7770  139.4710 C   0  0  0  0  0  2  0  0  0  0  0  0
  1 12  1  0  0  0  0
  2  8  2  0  0  0  0
  3  8  1  6  0  0  0
  3 11  1  0  0  0  0
  4  9  1  1  0  0  0
  4 14  1  0  0  0  0
  5 10  1  0  0  0  0
  6  5  2  0  0  0  0
  6  2  1  0  0  0  0
  7 16  1  0  0  0  0
  8  1  1  0  0  0  0
 10  1  2  0  0  0  0
 11 18  1  1  0  0  0
 11 15  1  0  0  0  0
 12 18  1  0  0  0  0
 13  2  1  0  0  0  0
 14 15  1  0  0  0  0
 15 21  1  1  0  0  0
 16 27  1  6  0  0  0
 16  9  1  0  0  0  0
 17  7  1  6  0  0  0
 17  3  1  0  0  0  0
 17  4  1  0  0  0  0
 19 25  1  0  0  0  0
 19 20  1  0  0  0  0
 21 23  1  0  0  0  0
 21 24  2  0  0  0  0
 22 20  2  0  0  0  0
 23 19  2  0  0  0  0
 24 22  1  0  0  0  0
 26 27  2  0  0  0  0
 28 30  2  0  0  0  0
 29 33  1  0  0  0  0
 29 30  1  0  0  0  0
 29 26  1  1  0  0  0
 30 34  1  0  0  0  0
 32 31  1  0  0  0  0
 33 32  1  0  0  0  0
 34 31  1  0  0  0  0
M  END
>  <MODEL>
3

>  <REMARK>
 VINA RESULT:      -9.5      3.397      6.904
  Name = 
  3 active torsions:
  status: ('A' for Active; 'I' for Inactive)
    1  A    between atoms: C_3  and  C_13
    2  A    between atoms: C_12  and  C_28
    3  A    between atoms: C_17  and  C_29
                            x       y       z     vdW  Elec       q    Type
                         _______ _______ _______ _____ _____    ______ ____

>  <TORSDO>
F 3

$$$$
=
 OpenBabel10252414493D

 34 39  0  0  1  0  0  0  0  0999 V2000
  185.1450  179.0210  144.6210 C   0  0  0  0  0  0  0  0  0  0  0  0
  186.9660  177.4570  144.6300 C   0  0  0  0  0  0  0  0  0  0  0  0
  185.9020  178.0910  142.3670 C   0  0  1  0  0  3  0  0  0  0  0  0
  186.8770  178.0500  140.1220 C   0  0  2  0  0  3  0  0  0  0  0  0
  186.2770  178.5180  146.6290 C   0  0  0  0  0  3  0  0  0  0  0  0
  187.0770  177.6430  145.9710 N   0  0  0  0  0  0  0  0  0  0  0  0
  188.7870  178.1840  141.9790 S   0  0  0  0  0  0  0  0  0  0  0  0
  186.0640  178.2430  143.8840 C   0  0  0  0  0  0  0  0  0  0  0  0
  188.0900  178.4630  139.3280 C   0  0  0  0  0  2  0  0  0  0  0  0
  185.2990  179.1760  145.9610 N   0  0  0  0  0  0  0  0  0  0  0  0
  184.7270  178.8220  141.8390 N   0  0  1  0  0  0  0  0  0  0  0  0
  183.9180  179.5730  143.9680 C   0  0  0  0  0  2  0  0  0  0  0  0
  187.6750  176.3790  144.0280 N   0  0  0  0  0  1  0  0  0  0  0  0
  185.5790  178.5860  139.5300 C   0  0  0  0  0  2  0  0  0  0  0  0
  184.4030  178.3150  140.4890 C   0  0  2  0  0  3  0  0  0  0  0  0
  189.3040  178.2210  140.2210 C   0  0  2  0  0  3  0  0  0  0  0  0
  187.0810  178.5920  141.5150 C   0  0  2  0  0  3  0  0  0  0  0  0
  183.5890  178.7250  142.7500 C   0  0  0  0  0  2  0  0  0  0  0  0
  180.7500  178.9820  139.7100 C   0  0  0  0  0  0  0  0  0  0  0  0
  180.8350  180.1050  138.8800 C   0  0  0  0  0  3  0  0  0  0  0  0
  183.1660  178.9520  139.9230 C   0  0  0  0  0  0  0  0  0  0  0  0
  182.0830  180.6520  138.5680 C   0  0  0  0  0  3  0  0  0  0  0  0
  181.9140  178.4070  140.2290 C   0  0  0  0  0  3  0  0  0  0  0  0
  183.2470  180.0770  139.0870 C   0  0  0  0  0  3  0  0  0  0  0  0
  179.4810  178.4250  140.0260 N   0  0  0  0  0  1  0  0  0  0  0  0
  190.7370  176.8510  138.7230 C   0  0  0  0  0  3  0  0  0  0  0  0
  190.0170  176.9560  139.8460 C   0  0  0  0  0  3  0  0  0  0  0  0
  189.7890  174.1210  137.4980 O   0  0  0  0  0  0  0  0  0  0  0  0
  191.4530  175.5830  138.3410 C   0  0  1  0  0  3  0  0  0  0  0  0
  190.7630  174.8090  137.2410 C   0  0  0  0  0  0  0  0  0  0  0  0
  192.7140  175.2730  135.7680 C   0  0  0  0  0  2  0  0  0  0  0  0
  193.0540  176.3130  136.8290 C   0  0  0  0  0  2  0  0  0  0  0  0
  192.8410  175.7770  138.1170 O   0  0  0  0  0  0  0  0  0  0  0  0
  191.2260  174.9480  135.8210 C   0  0  0  0  0  2  0  0  0  0  0  0
  1 10  1  0  0  0  0
  2  6  2  0  0  0  0
  3  8  1  1  0  0  0
  4  9  1  6  0  0  0
  4 17  1  0  0  0  0
  6  5  1  0  0  0  0
  8  1  2  0  0  0  0
  8  2  1  0  0  0  0
  9 16  1  0  0  0  0
 10  5  2  0  0  0  0
 11  3  1  0  0  0  0
 11 18  1  1  0  0  0
 12  1  1  0  0  0  0
 13  2  1  0  0  0  0
 14  4  1  0  0  0  0
 14 15  1  0  0  0  0
 15 21  1  6  0  0  0
 15 11  1  0  0  0  0
 16 27  1  6  0  0  0
 16  7  1  0  0  0  0
 17  7  1  1  0  0  0
 17  3  1  0  0  0  0
 18 12  1  0  0  0  0
 19 25  1  0  0  0  0
 19 23  1  0  0  0  0
 20 19  2  0  0  0  0
 21 23  2  0  0  0  0
 22 20  1  0  0  0  0
 22 24  2  0  0  0  0
 24 21  1  0  0  0  0
 26 27  2  0  0  0  0
 29 26  1  6  0  0  0
 30 28  2  0  0  0  0
 30 29  1  0  0  0  0
 31 34  1  0  0  0  0
 31 32  1  0  0  0  0
 32 33  1  0  0  0  0
 33 29  1  0  0  0  0
 34 30  1  0  0  0  0
M  END
>  <MODEL>
4

>  <REMARK>
 VINA RESULT:      -9.2      2.367      3.953
  Name = 
  3 active torsions:
  status: ('A' for Active; 'I' for Inactive)
    1  A    between atoms: C_3  and  C_13
    2  A    between atoms: C_12  and  C_28
    3  A    between atoms: C_17  and  C_29
                            x       y       z     vdW  Elec       q    Type
                         _______ _______ _______ _____ _____    ______ ____

>  <TORSDO>
F 3

$$$$
=
 OpenBabel10252414493D

 34 39  0  0  1  0  0  0  0  0999 V2000
  191.6260  177.5030  141.3100 C   0  0  0  0  0  0  0  0  0  0  0  0
  190.6880  176.6410  139.2760 C   0  0  0  0  0  0  0  0  0  0  0  0
  189.0900  177.2150  141.2190 C   0  0  1  0  0  3  0  0  0  0  0  0
  186.7210  177.8280  141.1580 C   0  0  2  0  0  3  0  0  0  0  0  0
  193.0010  177.1100  139.4330 C   0  0  0  0  0  3  0  0  0  0  0  0
  191.9330  176.6530  138.7340 N   0  0  0  0  0  0  0  0  0  0  0  0
  187.8810  178.3060  138.8050 S   0  0  0  0  0  0  0  0  0  0  0  0
  190.4740  177.1870  140.5580 C   0  0  0  0  0  0  0  0  0  0  0  0
  185.7270  178.7280  140.4700 C   0  0  0  0  0  2  0  0  0  0  0  0
  192.8490  177.5010  140.7220 N   0  0  0  0  0  0  0  0  0  0  0  0
  189.1460  177.5900  142.6520 N   0  0  1  0  0  0  0  0  0  0  0  0
  191.5380  177.7110  142.7890 C   0  0  0  0  0  2  0  0  0  0  0  0
  189.6480  175.9560  138.5850 N   0  0  0  0  0  1  0  0  0  0  0  0
  186.7070  177.9880  142.6740 C   0  0  0  0  0  2  0  0  0  0  0  0
  187.8770  177.2080  143.3050 C   0  0  2  0  0  3  0  0  0  0  0  0
  186.1180  178.7690  138.9960 C   0  0  2  0  0  3  0  0  0  0  0  0
  188.0760  178.1950  140.6050 C   0  0  2  0  0  3  0  0  0  0  0  0
  190.3040  176.9920  143.3110 C   0  0  0  0  0  2  0  0  0  0  0  0
  186.7830  178.3690  146.7480 C   0  0  0  0  0  0  0  0  0  0  0  0
  187.8840  178.0120  147.5330 C   0  0  0  0  0  3  0  0  0  0  0  0
  187.8920  177.4800  144.7820 C   0  0  0  0  0  0  0  0  0  0  0  0
  188.9900  177.3900  146.9470 C   0  0  0  0  0  3  0  0  0  0  0  0
  186.7880  178.1040  145.3750 C   0  0  0  0  0  3  0  0  0  0  0  0
  188.9960  177.1260  145.5740 C   0  0  0  0  0  3  0  0  0  0  0  0
  185.6580  179.0010  147.3450 N   0  0  0  0  0  1  0  0  0  0  0  0
  183.9090  177.8470  138.3260 C   0  0  0  0  0  3  0  0  0  0  0  0
  185.2390  177.8780  138.1700 C   0  0  0  0  0  3  0  0  0  0  0  0
  183.7130  174.7360  137.9690 O   0  0  0  0  0  0  0  0  0  0  0  0
  183.0230  176.9540  137.5010 C   0  0  1  0  0  3  0  0  0  0  0  0
  182.8370  175.5760  138.0940 C   0  0  0  0  0  0  0  0  0  0  0  0
  180.4320  176.1090  138.4390 C   0  0  0  0  0  2  0  0  0  0  0  0
  180.8880  177.5420  138.1920 C   0  0  0  0  0  2  0  0  0  0  0  0
  181.8070  177.5790  137.1210 O   0  0  0  0  0  0  0  0  0  0  0  0
  181.6130  175.2650  138.9020 C   0  0  0  0  0  2  0  0  0  0  0  0
  1 12  1  0  0  0  0
  2  8  1  0  0  0  0
  3  8  1  6  0  0  0
  3 11  1  0  0  0  0
  4  9  1  6  0  0  0
  4 14  1  0  0  0  0
  5 10  2  0  0  0  0
  6  2  2  0  0  0  0
  6  5  1  0  0  0  0
  7 16  1  0  0  0  0
  8  1  2  0  0  0  0
 10  1  1  0  0  0  0
 11 15  1  0  0  0  0
 11 18  1  1  0  0  0
 12 18  1  0  0  0  0
 13  2  1  0  0  0  0
 14 15  1  0  0  0  0
 15 21  1  1  0  0  0
 16 27  1  6  0  0  0
 16  9  1  0  0  0  0
 17  7  1  6  0  0  0
 17  4  1  0  0  0  0
 17  3  1  0  0  0  0
 19 25  1  0  0  0  0
 19 20  1  0  0  0  0
 21 23  1  0  0  0  0
 21 24  2  0  0  0  0
 22 20  2  0  0  0  0
 23 19  2  0  0  0  0
 24 22  1  0  0  0  0
 27 26  2  0  0  0  0
 28 30  2  0  0  0  0
 29 30  1  0  0  0  0
 29 26  1  1  0  0  0
 30 34  1  0  0  0  0
 31 34  1  0  0  0  0
 32 31  1  0  0  0  0
 33 29  1  0  0  0  0
 33 32  1  0  0  0  0
M  END
>  <MODEL>
5

>  <REMARK>
 VINA RESULT:      -9.1      3.684      6.410
  Name = 
  3 active torsions:
  status: ('A' for Active; 'I' for Inactive)
    1  A    between atoms: C_3  and  C_13
    2  A    between atoms: C_12  and  C_28
    3  A    between atoms: C_17  and  C_29
                            x       y       z     vdW  Elec       q    Type
                         _______ _______ _______ _____ _____    ______ ____

>  <TORSDO>
F 3

$$$$
=
 OpenBabel10252414493D

 34 39  0  0  1  0  0  0  0  0999 V2000
  191.3040  177.4910  141.2830 C   0  0  0  0  0  0  0  0  0  0  0  0
  189.8320  176.7760  139.5270 C   0  0  0  0  0  0  0  0  0  0  0  0
  188.8260  177.2580  141.8540 C   0  0  1  0  0  3  0  0  0  0  0  0
  186.5480  177.9170  142.4600 C   0  0  2  0  0  3  0  0  0  0  0  0
  192.1190  177.1910  139.0880 C   0  0  0  0  0  3  0  0  0  0  0  0
  190.8890  176.7990  138.6750 N   0  0  0  0  0  0  0  0  0  0  0  0
  187.0600  178.5200  139.9130 S   0  0  0  0  0  0  0  0  0  0  0  0
  189.9840  177.2450  140.8480 C   0  0  0  0  0  0  0  0  0  0  0  0
  185.4400  178.8770  142.1120 C   0  0  0  0  0  2  0  0  0  0  0  0
  192.3270  177.5030  140.3910 N   0  0  0  0  0  0  0  0  0  0  0  0
  189.2720  177.5410  143.2390 N   0  0  1  0  0  0  0  0  0  0  0  0
  191.6180  177.6080  142.7410 C   0  0  0  0  0  2  0  0  0  0  0  0
  188.6230  176.1550  139.1020 N   0  0  0  0  0  1  0  0  0  0  0  0
  186.9410  177.9830  143.9320 C   0  0  0  0  0  2  0  0  0  0  0  0
  188.2090  177.1430  144.1840 C   0  0  2  0  0  3  0  0  0  0  0  0
  185.4280  179.0030  140.5920 C   0  0  2  0  0  3  0  0  0  0  0  0
  187.7210  178.2930  141.5880 C   0  0  2  0  0  3  0  0  0  0  0  0
  190.5420  176.8810  143.5320 C   0  0  0  0  0  2  0  0  0  0  0  0
  190.3270  177.1200  147.3320 C   0  0  0  0  0  0  0  0  0  0  0  0
  189.4360  177.6310  148.2800 C   0  0  0  0  0  3  0  0  0  0  0  0
  188.6240  177.3220  145.6170 C   0  0  0  0  0  0  0  0  0  0  0  0
  188.1390  177.9880  147.9020 C   0  0  0  0  0  3  0  0  0  0  0  0
  189.9210  176.9640  146.0030 C   0  0  0  0  0  3  0  0  0  0  0  0
  187.7320  177.8320  146.5730 C   0  0  0  0  0  3  0  0  0  0  0  0
  191.6460  176.7560  147.7180 N   0  0  0  0  0  1  0  0  0  0  0  0
  183.4750  178.6890  139.0870 C   0  0  0  0  0  3  0  0  0  0  0  0
  184.3310  178.1820  139.9820 C   0  0  0  0  0  3  0  0  0  0  0  0
  181.5340  179.1520  136.6640 O   0  0  0  0  0  0  0  0  0  0  0  0
  182.3710  177.8700  138.4740 C   0  0  1  0  0  3  0  0  0  0  0  0
  182.1530  178.1570  137.0050 C   0  0  0  0  0  0  0  0  0  0  0  0
  182.9110  175.8420  136.4970 C   0  0  0  0  0  2  0  0  0  0  0  0
  183.4290  175.8780  137.9300 C   0  0  0  0  0  2  0  0  0  0  0  0
  182.4760  176.4870  138.7740 O   0  0  0  0  0  0  0  0  0  0  0  0
  182.7620  177.2640  135.9670 C   0  0  0  0  0  2  0  0  0  0  0  0
  1 12  1  0  0  0  0
  2  8  2  0  0  0  0
  3  8  1  6  0  0  0
  3 11  1  0  0  0  0
  4  9  1  1  0  0  0
  4 14  1  0  0  0  0
  5 10  1  0  0  0  0
  6  5  2  0  0  0  0
  6  2  1  0  0  0  0
  7 16  1  0  0  0  0
  8  1  1  0  0  0  0
 10  1  2  0  0  0  0
 11 18  1  1  0  0  0
 11 15  1  0  0  0  0
 12 18  1  0  0  0  0
 13  2  1  0  0  0  0
 14 15  1  0  0  0  0
 15 21  1  1  0  0  0
 16 27  1  6  0  0  0
 16  9  1  0  0  0  0
 17  7  1  6  0  0  0
 17  3  1  0  0  0  0
 17  4  1  0  0  0  0
 19 25  1  0  0  0  0
 19 20  1  0  0  0  0
 21 23  1  0  0  0  0
 21 24  2  0  0  0  0
 22 20  2  0  0  0  0
 23 19  2  0  0  0  0
 24 22  1  0  0  0  0
 26 27  2  0  0  0  0
 28 30  2  0  0  0  0
 29 33  1  0  0  0  0
 29 26  1  6  0  0  0
 30 29  1  0  0  0  0
 31 32  1  0  0  0  0
 32 33  1  0  0  0  0
 34 31  1  0  0  0  0
 34 30  1  0  0  0  0
M  END
>  <MODEL>
6

>  <REMARK>
 VINA RESULT:      -8.9      3.727      6.666
  Name = 
  3 active torsions:
  status: ('A' for Active; 'I' for Inactive)
    1  A    between atoms: C_3  and  C_13
    2  A    between atoms: C_12  and  C_28
    3  A    between atoms: C_17  and  C_29
                            x       y       z     vdW  Elec       q    Type
                         _______ _______ _______ _____ _____    ______ ____

>  <TORSDO>
F 3

$$$$
=
 OpenBabel10252414493D

 34 39  0  0  1  0  0  0  0  0999 V2000
  191.1280  177.8080  141.7910 C   0  0  0  0  0  0  0  0  0  0  0  0
  190.6000  176.7550  139.7000 C   0  0  0  0  0  0  0  0  0  0  0  0
  188.6610  177.3970  141.2770 C   0  0  1  0  0  3  0  0  0  0  0  0
  186.3230  177.8920  140.7480 C   0  0  2  0  0  3  0  0  0  0  0  0
  192.8310  177.3420  140.2250 C   0  0  0  0  0  3  0  0  0  0  0  0
  191.9220  176.7860  139.3870 N   0  0  0  0  0  0  0  0  0  0  0  0
  187.8710  178.2490  138.6060 S   0  0  0  0  0  0  0  0  0  0  0  0
  190.1410  177.3840  140.8750 C   0  0  0  0  0  0  0  0  0  0  0  0
  185.4410  178.6920  139.8240 C   0  0  0  0  0  2  0  0  0  0  0  0
  192.4370  177.8200  141.4310 N   0  0  0  0  0  0  0  0  0  0  0  0
  188.4460  177.8780  142.6620 N   0  0  1  0  0  0  0  0  0  0  0  0
  190.7690  178.1210  143.2090 C   0  0  0  0  0  2  0  0  0  0  0  0
  189.7250  175.9730  138.8940 N   0  0  0  0  0  1  0  0  0  0  0  0
  186.0310  178.1630  142.2190 C   0  0  0  0  0  2  0  0  0  0  0  0
  187.0930  177.4880  143.1080 C   0  0  2  0  0  3  0  0  0  0  0  0
  186.0890  178.6420  138.4440 C   0  0  2  0  0  3  0  0  0  0  0  0
  187.7430  178.2800  140.4160 C   0  0  2  0  0  3  0  0  0  0  0  0
  189.4860  177.3850  143.5610 C   0  0  0  0  0  2  0  0  0  0  0  0
  187.4700  177.7410  146.8760 C   0  0  0  0  0  0  0  0  0  0  0  0
  186.3800  178.5480  147.2180 C   0  0  0  0  0  3  0  0  0  0  0  0
  186.8330  177.8680  144.5380 C   0  0  0  0  0  0  0  0  0  0  0  0
  185.5150  179.0160  146.2250 C   0  0  0  0  0  3  0  0  0  0  0  0
  187.6940  177.4010  145.5380 C   0  0  0  0  0  3  0  0  0  0  0  0
  185.7400  178.6760  144.8870 C   0  0  0  0  0  3  0  0  0  0  0  0
  188.3490  177.2650  147.8870 N   0  0  0  0  0  1  0  0  0  0  0  0
  185.9140  176.4400  137.3030 C   0  0  0  0  0  3  0  0  0  0  0  0
  185.4020  177.6520  137.5510 C   0  0  0  0  0  3  0  0  0  0  0  0
  186.9360  174.4790  135.0780 O   0  0  0  0  0  0  0  0  0  0  0  0
  185.2280  175.4440  136.4070 C   0  0  1  0  0  3  0  0  0  0  0  0
  186.1250  174.3080  135.9730 C   0  0  0  0  0  0  0  0  0  0  0  0
  184.6860  172.7490  137.2740 C   0  0  0  0  0  2  0  0  0  0  0  0
  184.1570  174.0320  137.9040 C   0  0  0  0  0  2  0  0  0  0  0  0
  183.9720  175.0180  136.9100 O   0  0  0  0  0  0  0  0  0  0  0  0
  186.0740  172.9940  136.6940 C   0  0  0  0  0  2  0  0  0  0  0  0
  1 12  1  0  0  0  0
  2  8  1  0  0  0  0
  3  8  1  6  0  0  0
  3 11  1  0  0  0  0
  4  9  1  6  0  0  0
  4 14  1  0  0  0  0
  5 10  2  0  0  0  0
  6  2  2  0  0  0  0
  6  5  1  0  0  0  0
  8  1  2  0  0  0  0
 10  1  1  0  0  0  0
 11 15  1  0  0  0  0
 11 18  1  1  0  0  0
 12 18  1  0  0  0  0
 13  2  1  0  0  0  0
 14 15  1  0  0  0  0
 15 21  1  1  0  0  0
 16 27  1  6  0  0  0
 16  7  1  0  0  0  0
 16  9  1  0  0  0  0
 17  7  1  6  0  0  0
 17  4  1  0  0  0  0
 17  3  1  0  0  0  0
 19 20  1  0  0  0  0
 19 25  1  0  0  0  0
 21 24  2  0  0  0  0
 21 23  1  0  0  0  0
 22 20  2  0  0  0  0
 23 19  2  0  0  0  0
 24 22  1  0  0  0  0
 26 27  2  0  0  0  0
 28 30  2  0  0  0  0
 29 33  1  0  0  0  0
 29 26  1  1  0  0  0
 30 29  1  0  0  0  0
 30 34  1  0  0  0  0
 31 32  1  0  0  0  0
 33 32  1  0  0  0  0
 34 31  1  0  0  0  0
M  END
>  <MODEL>
7

>  <REMARK>
 VINA RESULT:      -8.8      3.381      5.246
  Name = 
  3 active torsions:
  status: ('A' for Active; 'I' for Inactive)
    1  A    between atoms: C_3  and  C_13
    2  A    between atoms: C_12  and  C_28
    3  A    between atoms: C_17  and  C_29
                            x       y       z     vdW  Elec       q    Type
                         _______ _______ _______ _____ _____    ______ ____

>  <TORSDO>
F 3

$$$$
=
 OpenBabel10252414493D

 34 39  0  0  1  0  0  0  0  0999 V2000
  188.4420  177.4090  135.4340 C   0  0  0  0  0  0  0  0  0  0  0  0
  186.7620  177.0900  137.1190 C   0  0  0  0  0  0  0  0  0  0  0  0
  189.2240  176.6230  137.7340 C   0  0  1  0  0  3  0  0  0  0  0  0
  190.3220  176.6880  139.9210 C   0  0  2  0  0  3  0  0  0  0  0  0
  186.1920  177.9730  135.0000 C   0  0  0  0  0  3  0  0  0  0  0  0
  185.8370  177.5540  136.2390 N   0  0  0  0  0  0  0  0  0  0  0  0
  188.1000  178.1620  139.9360 S   0  0  0  0  0  0  0  0  0  0  0  0
  188.1300  177.1180  136.7800 C   0  0  0  0  0  0  0  0  0  0  0  0
  190.4820  177.5260  141.1640 C   0  0  0  0  0  2  0  0  0  0  0  0
  187.4810  177.8700  134.5940 N   0  0  0  0  0  0  0  0  0  0  0  0
  190.5470  176.5020  137.0780 N   0  0  1  0  0  0  0  0  0  0  0  0
  189.7930  177.0890  134.8780 C   0  0  0  0  0  2  0  0  0  0  0  0
  186.3140  176.4640  138.3170 N   0  0  0  0  0  1  0  0  0  0  0  0
  191.6570  176.3280  139.2800 C   0  0  0  0  0  2  0  0  0  0  0  0
  191.4290  175.6580  137.9110 C   0  0  2  0  0  3  0  0  0  0  0  0
  189.1170  178.1390  141.4600 C   0  0  2  0  0  3  0  0  0  0  0  0
  189.4850  177.5040  138.9670 C   0  0  2  0  0  3  0  0  0  0  0  0
  190.4180  175.9870  135.7170 C   0  0  0  0  0  2  0  0  0  0  0  0
  194.6970  176.2980  136.0930 C   0  0  0  0  0  0  0  0  0  0  0  0
  195.2540  175.0160  136.0460 C   0  0  0  0  0  3  0  0  0  0  0  0
  192.7640  175.4190  137.2660 C   0  0  0  0  0  0  0  0  0  0  0  0
  194.5690  173.9340  136.6050 C   0  0  0  0  0  3  0  0  0  0  0  0
  193.4540  176.4980  136.7010 C   0  0  0  0  0  3  0  0  0  0  0  0
  193.3260  174.1340  137.2130 C   0  0  0  0  0  3  0  0  0  0  0  0
  195.3940  177.3980  135.5230 N   0  0  0  0  0  1  0  0  0  0  0  0
  188.5760  177.7270  143.8500 C   0  0  0  0  0  3  0  0  0  0  0  0
  188.4130  177.4040  142.5620 C   0  0  0  0  0  3  0  0  0  0  0  0
  189.4540  176.7910  146.7140 O   0  0  0  0  0  0  0  0  0  0  0  0
  187.8730  176.9920  144.9600 C   0  0  1  0  0  3  0  0  0  0  0  0
  188.4180  177.3110  146.3330 C   0  0  0  0  0  0  0  0  0  0  0  0
  186.2370  178.3710  146.8910 C   0  0  0  0  0  2  0  0  0  0  0  0
  186.0180  178.3190  145.3840 C   0  0  0  0  0  2  0  0  0  0  0  0
  186.4590  177.0790  144.8730 O   0  0  0  0  0  0  0  0  0  0  0  0
  187.7290  178.3250  147.1970 C   0  0  0  0  0  2  0  0  0  0  0  0
  1  8  1  0  0  0  0
  2 13  1  0  0  0  0
  3  8  1  6  0  0  0
  3 17  1  0  0  0  0
  4 14  1  6  0  0  0
  4  9  1  0  0  0  0
  5  6  2  0  0  0  0
  6  2  1  0  0  0  0
  7 16  1  0  0  0  0
  8  2  2  0  0  0  0
  9 16  1  0  0  0  0
 10  5  1  0  0  0  0
 10  1  2  0  0  0  0
 11 18  1  6  0  0  0
 11  3  1  0  0  0  0
 11 15  1  0  0  0  0
 12  1  1  0  0  0  0
 12 18  1  0  0  0  0
 15 21  1  6  0  0  0
 15 14  1  0  0  0  0
 16 27  1  1  0  0  0
 17  4  1  0  0  0  0
 17  7  1  1  0  0  0
 19 23  1  0  0  0  0
 20 19  2  0  0  0  0
 20 22  1  0  0  0  0
 22 24  2  0  0  0  0
 23 21  2  0  0  0  0
 24 21  1  0  0  0  0
 25 19  1  0  0  0  0
 27 26  2  0  0  0  0
 29 26  1  6  0  0  0
 29 30  1  0  0  0  0
 30 28  2  0  0  0  0
 30 34  1  0  0  0  0
 31 34  1  0  0  0  0
 32 31  1  0  0  0  0
 33 29  1  0  0  0  0
 33 32  1  0  0  0  0
M  END
>  <MODEL>
8

>  <REMARK>
 VINA RESULT:      -8.5      4.244     10.039
  Name = 
  3 active torsions:
  status: ('A' for Active; 'I' for Inactive)
    1  A    between atoms: C_3  and  C_13
    2  A    between atoms: C_12  and  C_28
    3  A    between atoms: C_17  and  C_29
                            x       y       z     vdW  Elec       q    Type
                         _______ _______ _______ _____ _____    ______ ____

>  <TORSDO>
F 3

$$$$
=
 OpenBabel10252414493D

 34 39  0  0  1  0  0  0  0  0999 V2000
  186.8200  178.4270  138.6660 C   0  0  0  0  0  0  0  0  0  0  0  0
  186.1650  178.3020  140.9720 C   0  0  0  0  0  0  0  0  0  0  0  0
  188.5110  177.4530  140.3140 C   0  0  1  0  0  3  0  0  0  0  0  0
  190.5410  177.2780  141.6700 C   0  0  2  0  0  3  0  0  0  0  0  0
  184.7590  179.3330  139.3730 C   0  0  0  0  0  3  0  0  0  0  0  0
  185.0050  178.9280  140.6430 N   0  0  0  0  0  0  0  0  0  0  0  0
  188.8590  179.0650  142.7140 S   0  0  0  0  0  0  0  0  0  0  0  0
  187.1750  178.1390  140.0020 C   0  0  0  0  0  0  0  0  0  0  0  0
  191.4140  178.0390  142.6340 C   0  0  0  0  0  2  0  0  0  0  0  0
  185.6490  179.0550  138.3890 N   0  0  0  0  0  0  0  0  0  0  0  0
  189.3040  177.1610  139.0960 N   0  0  1  0  0  0  0  0  0  0  0  0
  187.6580  177.9300  137.5310 C   0  0  0  0  0  2  0  0  0  0  0  0
  186.2800  177.7080  142.2610 N   0  0  0  0  0  1  0  0  0  0  0  0
  191.3170  176.7470  140.4700 C   0  0  0  0  0  2  0  0  0  0  0  0
  190.3470  176.1670  139.4220 C   0  0  2  0  0  3  0  0  0  0  0  0
  190.4790  178.8370  143.5380 C   0  0  2  0  0  3  0  0  0  0  0  0
  189.4720  178.2430  141.2180 C   0  0  2  0  0  3  0  0  0  0  0  0
  188.4460  176.7180  137.9990 C   0  0  0  0  0  2  0  0  0  0  0  0
  193.0640  176.0840  136.7740 C   0  0  0  0  0  0  0  0  0  0  0  0
  192.6410  175.0260  135.9630 C   0  0  0  0  0  3  0  0  0  0  0  0
  191.1390  175.7560  138.2130 C   0  0  0  0  0  0  0  0  0  0  0  0
  191.4680  174.3320  136.2730 C   0  0  0  0  0  3  0  0  0  0  0  0
  192.3130  176.4480  137.8960 C   0  0  0  0  0  3  0  0  0  0  0  0
  190.7170  174.6960  137.3950 C   0  0  0  0  0  3  0  0  0  0  0  0
  194.2570  176.7900  136.4570 N   0  0  0  0  0  1  0  0  0  0  0  0
  189.2320  177.4470  145.1790 C   0  0  0  0  0  3  0  0  0  0  0  0
  190.3120  178.1770  144.8750 C   0  0  0  0  0  3  0  0  0  0  0  0
  191.1910  176.8380  147.5530 O   0  0  0  0  0  0  0  0  0  0  0  0
  189.0600  176.7840  146.5180 C   0  0  1  0  0  3  0  0  0  0  0  0
  190.0470  177.2620  147.5580 C   0  0  0  0  0  0  0  0  0  0  0  0
  188.1480  178.2490  148.8270 C   0  0  0  0  0  2  0  0  0  0  0  0
  187.3890  178.0410  147.5220 C   0  0  0  0  0  2  0  0  0  0  0  0
  187.7140  176.7840  146.9680 O   0  0  0  0  0  0  0  0  0  0  0  0
  189.6450  178.3140  148.5480 C   0  0  0  0  0  2  0  0  0  0  0  0
  1  8  1  0  0  0  0
  2 13  1  0  0  0  0
  3  8  1  6  0  0  0
  3 17  1  0  0  0  0
  4 14  1  6  0  0  0
  4  9  1  0  0  0  0
  5  6  2  0  0  0  0
  6  2  1  0  0  0  0
  7 16  1  0  0  0  0
  8  2  2  0  0  0  0
  9 16  1  0  0  0  0
 10  1  2  0  0  0  0
 10  5  1  0  0  0  0
 11 18  1  6  0  0  0
 11 15  1  0  0  0  0
 11  3  1  0  0  0  0
 12 18  1  0  0  0  0
 12  1  1  0  0  0  0
 15 21  1  6  0  0  0
 15 14  1  0  0  0  0
 16 27  1  1  0  0  0
 17  4  1  0  0  0  0
 17  7  1  1  0  0  0
 19 23  1  0  0  0  0
 20 22  1  0  0  0  0
 20 19  2  0  0  0  0
 22 24  2  0  0  0  0
 23 21  2  0  0  0  0
 24 21  1  0  0  0  0
 25 19  1  0  0  0  0
 27 26  2  0  0  0  0
 28 30  2  0  0  0  0
 29 26  1  6  0  0  0
 29 33  1  0  0  0  0
 29 30  1  0  0  0  0
 30 34  1  0  0  0  0
 32 31  1  0  0  0  0
 33 32  1  0  0  0  0
 34 31  1  0  0  0  0
M  END
>  <MODEL>
9

>  <REMARK>
 VINA RESULT:      -8.4      3.846      9.035
  Name = 
  3 active torsions:
  status: ('A' for Active; 'I' for Inactive)
    1  A    between atoms: C_3  and  C_13
    2  A    between atoms: C_12  and  C_28
    3  A    between atoms: C_17  and  C_29
                            x       y       z     vdW  Elec       q    Type
                         _______ _______ _______ _____ _____    ______ ____

>  <TORSDO>
F 3

$$$$
