=
 OpenBabel10262421503D

 30 35  0  0  1  0  0  0  0  0999 V2000
  188.1260  178.1380  139.8100 C   0  0  1  0  0  3  0  0  0  0  0  0
  186.0470  178.6030  138.3920 C   0  0  0  0  0  0  0  0  0  0  0  0
  185.7830  177.7320  143.1340 C   0  0  0  0  0  2  0  0  0  0  0  0
  188.5390  177.6520  141.2090 C   0  0  1  0  0  3  0  0  0  0  0  0
  188.5390  177.1590  138.8590 O   0  0  0  0  0  0  0  0  0  0  0  0
  191.9110  176.6130  140.0570 O   0  0  0  0  0  0  0  0  0  0  0  0
  190.6470  178.0160  143.7200 C   0  0  1  0  0  3  0  0  0  0  0  0
  190.6820  176.8970  140.0600 C   0  0  0  0  0  0  0  0  0  0  0  0
  190.1990  175.8710  137.8330 C   0  0  0  0  0  3  0  0  0  0  0  0
  189.3120  178.1770  144.4540 C   0  0  2  0  0  3  0  0  0  0  0  0
  186.8830  177.4290  144.0630 C   0  0  0  0  0  0  0  0  0  0  0  0
  189.8280  176.6240  138.8760 C   0  0  0  0  0  0  0  0  0  0  0  0
  190.0860  177.5950  141.2620 C   0  0  2  0  0  3  0  0  0  0  0  0
  184.7260  178.9110  138.2990 N   0  0  0  0  0  0  0  0  0  0  0  0
  189.4220  177.2760  145.6680 C   0  0  0  0  0  2  0  0  0  0  0  0
  191.6570  177.5920  144.7760 C   0  0  0  0  0  2  0  0  0  0  0  0
  186.9530  178.4830  136.8880 Cl  0  0  0  0  0  0  0  0  0  0  0  0
  186.4440  178.7340  142.1930 C   0  0  1  0  0  3  0  0  0  0  0  0
  183.9530  179.1140  139.3930 C   0  0  0  0  0  3  0  0  0  0  0  0
  186.6500  178.4420  139.6650 C   0  0  0  0  0  0  0  0  0  0  0  0
  187.9700  178.5450  142.3170 C   0  0  1  0  0  3  0  0  0  0  0  0
  186.7120  176.8200  145.1510 O   0  0  0  0  0  0  0  0  0  0  0  0
  188.1530  177.8810  143.6020 N   0  0  0  0  0  0  0  0  0  0  0  0
  190.8830  177.3240  146.0550 C   0  0  0  0  0  2  0  0  0  0  0  0
  190.0900  175.6250  142.9060 C   0  0  0  0  0  1  0  0  0  0  0  0
  184.5130  179.0320  140.6620 C   0  0  0  0  0  3  0  0  0  0  0  0
  185.8640  178.7070  140.8080 C   0  0  0  0  0  0  0  0  0  0  0  0
  190.6520  177.0040  142.5620 C   0  0  2  0  0  3  0  0  0  0  0  0
  192.3130  175.9070  136.5600 C   0  0  0  0  0  1  0  0  0  0  0  0
  191.5310  175.2160  137.6610 C   0  0  0  0  0  2  0  0  0  0  0  0
  1  5  1  6  0  0  0
  1  4  1  0  0  0  0
  2 20  1  0  0  0  0
  3 11  1  0  0  0  0
  4 13  1  0  0  0  0
  4 21  1  0  0  0  0
  5 12  1  0  0  0  0
  6  8  2  0  0  0  0
  7 10  1  0  0  0  0
  7 16  1  0  0  0  0
  8 13  1  0  0  0  0
  9 12  2  0  0  0  0
 10 15  1  0  0  0  0
 11 22  2  0  0  0  0
 12  8  1  0  0  0  0
 13 28  1  0  0  0  0
 14  2  2  0  0  0  0
 14 19  1  0  0  0  0
 15 24  1  0  0  0  0
 16 24  1  0  0  0  0
 17  2  1  0  0  0  0
 18 21  1  0  0  0  0
 18  3  1  0  0  0  0
 19 26  2  0  0  0  0
 20  1  1  0  0  0  0
 20 27  2  0  0  0  0
 21 23  1  0  0  0  0
 23 11  1  0  0  0  0
 23 10  1  0  0  0  0
 26 27  1  0  0  0  0
 27 18  1  0  0  0  0
 28 25  1  0  0  0  0
 28  7  1  0  0  0  0
 29 30  1  0  0  0  0
 30  9  1  0  0  0  0
M  END
>  <MODEL>
1

>  <REMARK>
 VINA RESULT:      -9.0      0.000      0.000
  Name = 
  1 active torsions:
  status: ('A' for Active; 'I' for Inactive)
    1  A    between atoms: C_9  and  C_21
                            x       y       z     vdW  Elec       q    Type
                         _______ _______ _______ _____ _____    ______ ____

>  <TORSDO>
F 1

$$$$
=
 OpenBabel10262421503D

 30 35  0  0  1  0  0  0  0  0999 V2000
  189.0270  176.9500  143.6980 C   0  0  1  0  0  3  0  0  0  0  0  0
  191.2440  176.3650  144.8350 C   0  0  0  0  0  0  0  0  0  0  0  0
  187.6740  178.6280  147.1710 C   0  0  0  0  0  2  0  0  0  0  0  0
  187.7450  177.7690  143.9200 C   0  0  1  0  0  3  0  0  0  0  0  0
  189.7510  177.5400  142.6210 O   0  0  0  0  0  0  0  0  0  0  0  0
  187.0170  177.9650  140.2860 O   0  0  0  0  0  0  0  0  0  0  0  0
  184.4720  177.8900  143.5260 C   0  0  1  0  0  3  0  0  0  0  0  0
  187.6400  177.8600  141.3780 C   0  0  0  0  0  0  0  0  0  0  0  0
  189.9060  178.2350  140.3930 C   0  0  0  0  0  3  0  0  0  0  0  0
  184.5780  178.1310  145.0350 C   0  0  2  0  0  3  0  0  0  0  0  0
  186.3660  179.0440  146.6430 C   0  0  0  0  0  0  0  0  0  0  0  0
  189.1240  177.8810  141.4210 C   0  0  0  0  0  0  0  0  0  0  0  0
  186.8620  177.6340  142.6550 C   0  0  2  0  0  3  0  0  0  0  0  0
  191.9910  176.2210  145.9620 N   0  0  0  0  0  0  0  0  0  0  0  0
  183.6880  179.3280  145.3030 C   0  0  0  0  0  2  0  0  0  0  0  0
  183.1310  178.4690  143.1020 C   0  0  0  0  0  2  0  0  0  0  0  0
  191.9940  175.9140  143.3090 Cl  0  0  0  0  0  0  0  0  0  0  0  0
  187.9000  177.3140  146.4300 C   0  0  1  0  0  3  0  0  0  0  0  0
  191.4860  176.4550  147.1980 C   0  0  0  0  0  3  0  0  0  0  0  0
  189.9020  176.8150  144.9260 C   0  0  0  0  0  0  0  0  0  0  0  0
  186.9930  177.3270  145.1810 C   0  0  1  0  0  3  0  0  0  0  0  0
  185.6800  179.9650  147.1590 O   0  0  0  0  0  0  0  0  0  0  0  0
  185.9630  178.3120  145.4880 N   0  0  0  0  0  0  0  0  0  0  0  0
  182.5600  179.2040  144.3030 C   0  0  0  0  0  2  0  0  0  0  0  0
  185.8690  179.9840  142.9350 C   0  0  0  0  0  1  0  0  0  0  0  0
  190.1580  176.8350  147.3440 C   0  0  0  0  0  3  0  0  0  0  0  0
  189.3540  177.0060  146.2130 C   0  0  0  0  0  0  0  0  0  0  0  0
  185.5950  178.5030  142.6730 C   0  0  2  0  0  3  0  0  0  0  0  0
  189.7700  177.5420  138.0290 C   0  0  0  0  0  1  0  0  0  0  0  0
  189.4310  178.6280  139.0320 C   0  0  0  0  0  2  0  0  0  0  0  0
  1  5  1  6  0  0  0
  1  4  1  0  0  0  0
  1 20  1  0  0  0  0
  2 20  2  0  0  0  0
  2 14  1  0  0  0  0
  4 21  1  0  0  0  0
  6  8  2  0  0  0  0
  7 10  1  0  0  0  0
  8 12  1  0  0  0  0
  8 13  1  0  0  0  0
  9 12  2  0  0  0  0
 10 15  1  0  0  0  0
 10 23  1  0  0  0  0
 11 22  2  0  0  0  0
 11  3  1  0  0  0  0
 12  5  1  0  0  0  0
 13 28  1  0  0  0  0
 13  4  1  0  0  0  0
 14 19  2  0  0  0  0
 16  7  1  0  0  0  0
 16 24  1  0  0  0  0
 17  2  1  0  0  0  0
 18  3  1  0  0  0  0
 19 26  1  0  0  0  0
 20 27  1  0  0  0  0
 21 23  1  0  0  0  0
 21 18  1  0  0  0  0
 23 11  1  0  0  0  0
 24 15  1  0  0  0  0
 27 18  1  0  0  0  0
 27 26  2  0  0  0  0
 28 25  1  0  0  0  0
 28  7  1  0  0  0  0
 29 30  1  0  0  0  0
 30  9  1  0  0  0  0
M  END
>  <MODEL>
2

>  <REMARK>
 VINA RESULT:      -8.6      2.940      6.054
  Name = 
  1 active torsions:
  status: ('A' for Active; 'I' for Inactive)
    1  A    between atoms: C_9  and  C_21
                            x       y       z     vdW  Elec       q    Type
                         _______ _______ _______ _____ _____    ______ ____

>  <TORSDO>
F 1

$$$$
=
 OpenBabel10262421503D

 30 35  0  0  1  0  0  0  0  0999 V2000
  187.4720  178.4490  141.2200 C   0  0  1  0  0  3  0  0  0  0  0  0
  189.9090  177.6650  141.2230 C   0  0  0  0  0  0  0  0  0  0  0  0
  186.8620  176.5820  137.6360 C   0  0  0  0  0  2  0  0  0  0  0  0
  186.1450  178.2350  140.4760 C   0  0  1  0  0  3  0  0  0  0  0  0
  187.3240  177.9490  142.5470 O   0  0  0  0  0  0  0  0  0  0  0  0
  184.1240  179.4410  143.3460 O   0  0  0  0  0  0  0  0  0  0  0  0
  183.4110  179.6520  139.2930 C   0  0  1  0  0  3  0  0  0  0  0  0
  185.0670  178.9450  142.6710 C   0  0  0  0  0  0  0  0  0  0  0  0
  186.2540  177.9380  144.6260 C   0  0  0  0  0  3  0  0  0  0  0  0
  183.9320  178.9600  138.0300 C   0  0  2  0  0  3  0  0  0  0  0  0
  185.4420  176.9430  137.5130 C   0  0  0  0  0  0  0  0  0  0  0  0
  186.2170  178.2770  143.3310 C   0  0  0  0  0  0  0  0  0  0  0  0
  185.0600  179.0980  141.1660 C   0  0  2  0  0  3  0  0  0  0  0  0
  190.9800  177.1380  140.5720 N   0  0  0  0  0  0  0  0  0  0  0  0
  182.7290  178.2410  137.4530 C   0  0  0  0  0  2  0  0  0  0  0  0
  181.9190  179.8570  139.0730 C   0  0  0  0  0  2  0  0  0  0  0  0
  190.1500  178.1730  142.8900 Cl  0  0  0  0  0  0  0  0  0  0  0  0
  187.4360  177.8240  138.3090 C   0  0  1  0  0  3  0  0  0  0  0  0
  190.9330  176.7940  139.2630 C   0  0  0  0  0  3  0  0  0  0  0  0
  188.6760  177.8300  140.5410 C   0  0  0  0  0  0  0  0  0  0  0  0
  186.2640  178.5670  138.9840 C   0  0  1  0  0  3  0  0  0  0  0  0
  184.6310  176.2990  136.7970 O   0  0  0  0  0  0  0  0  0  0  0  0
  185.0770  178.0780  138.2930 N   0  0  0  0  0  0  0  0  0  0  0  0
  181.5490  179.1230  137.7960 C   0  0  0  0  0  2  0  0  0  0  0  0
  183.1890  177.4350  140.6060 C   0  0  0  0  0  1  0  0  0  0  0  0
  189.7660  176.9970  138.5350 C   0  0  0  0  0  3  0  0  0  0  0  0
  188.6360  177.5260  139.1630 C   0  0  0  0  0  0  0  0  0  0  0  0
  183.6430  178.8950  140.6110 C   0  0  2  0  0  3  0  0  0  0  0  0
  185.7820  178.7140  146.9200 C   0  0  0  0  0  1  0  0  0  0  0  0
  185.1760  178.2040  145.6270 C   0  0  0  0  0  2  0  0  0  0  0  0
  1 20  1  6  0  0  0
  1  5  1  0  0  0  0
  2 17  1  0  0  0  0
  3 18  1  0  0  0  0
  4 13  1  0  0  0  0
  4  1  1  0  0  0  0
  5 12  1  0  0  0  0
  7 28  1  0  0  0  0
  8 12  1  0  0  0  0
  8  6  2  0  0  0  0
  9 30  1  0  0  0  0
 10 23  1  0  0  0  0
 10  7  1  0  0  0  0
 11  3  1  0  0  0  0
 11 23  1  0  0  0  0
 12  9  2  0  0  0  0
 13  8  1  0  0  0  0
 14  2  1  0  0  0  0
 15 24  1  0  0  0  0
 15 10  1  0  0  0  0
 16  7  1  0  0  0  0
 18 21  1  0  0  0  0
 18 27  1  0  0  0  0
 19 14  2  0  0  0  0
 20  2  2  0  0  0  0
 21  4  1  0  0  0  0
 22 11  2  0  0  0  0
 23 21  1  0  0  0  0
 24 16  1  0  0  0  0
 25 28  1  0  0  0  0
 26 27  2  0  0  0  0
 26 19  1  0  0  0  0
 27 20  1  0  0  0  0
 28 13  1  0  0  0  0
 30 29  1  0  0  0  0
M  END
>  <MODEL>
3

>  <REMARK>
 VINA RESULT:      -8.4      2.721      7.427
  Name = 
  1 active torsions:
  status: ('A' for Active; 'I' for Inactive)
    1  A    between atoms: C_9  and  C_21
                            x       y       z     vdW  Elec       q    Type
                         _______ _______ _______ _____ _____    ______ ____

>  <TORSDO>
F 1

$$$$
=
 OpenBabel10262421503D

 30 35  0  0  1  0  0  0  0  0999 V2000
  186.4680  178.6920  141.2890 C   0  0  1  0  0  3  0  0  0  0  0  0
  183.9600  179.0050  140.8810 C   0  0  0  0  0  0  0  0  0  0  0  0
  185.7010  177.4080  145.0930 C   0  0  0  0  0  2  0  0  0  0  0  0
  187.4510  178.0820  142.3010 C   0  0  1  0  0  3  0  0  0  0  0  0
  186.5580  177.9490  140.0760 O   0  0  0  0  0  0  0  0  0  0  0  0
  190.1640  177.8090  139.7820 O   0  0  0  0  0  0  0  0  0  0  0  0
  190.3410  178.4200  143.8540 C   0  0  1  0  0  3  0  0  0  0  0  0
  189.0170  177.8780  140.3030 C   0  0  0  0  0  0  0  0  0  0  0  0
  187.7850  177.1270  138.2630 C   0  0  0  0  0  3  0  0  0  0  0  0
  189.4030  178.2430  145.0520 C   0  0  2  0  0  3  0  0  0  0  0  0
  187.1050  177.1620  145.4590 C   0  0  0  0  0  0  0  0  0  0  0  0
  187.7910  177.6430  139.4980 C   0  0  0  0  0  0  0  0  0  0  0  0
  188.8870  178.2790  141.7560 C   0  0  2  0  0  3  0  0  0  0  0  0
  182.6890  179.0960  141.3560 N   0  0  0  0  0  0  0  0  0  0  0  0
  190.0760  177.2030  145.9250 C   0  0  0  0  0  2  0  0  0  0  0  0
  191.7250  178.0210  144.3440 C   0  0  0  0  0  2  0  0  0  0  0  0
  184.1950  179.2630  139.1570 Cl  0  0  0  0  0  0  0  0  0  0  0  0
  185.8300  178.6360  144.1970 C   0  0  1  0  0  3  0  0  0  0  0  0
  182.4030  179.0010  142.6770 C   0  0  0  0  0  3  0  0  0  0  0  0
  185.0350  178.7610  141.7740 C   0  0  0  0  0  0  0  0  0  0  0  0
  187.2890  178.6910  143.6980 C   0  0  1  0  0  3  0  0  0  0  0  0
  187.4440  176.3780  146.3840 O   0  0  0  0  0  0  0  0  0  0  0  0
  188.0340  177.8850  144.6560 N   0  0  0  0  0  0  0  0  0  0  0  0
  191.5580  177.4390  145.7360 C   0  0  0  0  0  2  0  0  0  0  0  0
  189.7400  176.1170  142.8420 C   0  0  0  0  0  1  0  0  0  0  0  0
  183.4290  178.8270  143.5980 C   0  0  0  0  0  3  0  0  0  0  0  0
  184.7500  178.7170  143.1560 C   0  0  0  0  0  0  0  0  0  0  0  0
  189.9800  177.6070  142.5990 C   0  0  2  0  0  3  0  0  0  0  0  0
  189.2360  177.7440  136.3660 C   0  0  0  0  0  1  0  0  0  0  0  0
  188.9940  176.7380  137.4750 C   0  0  0  0  0  2  0  0  0  0  0  0
  1  5  1  6  0  0  0
  1 20  1  0  0  0  0
  1  4  1  0  0  0  0
  2 14  2  0  0  0  0
  2 20  1  0  0  0  0
  3 11  1  0  0  0  0
  4 21  1  0  0  0  0
  6  8  2  0  0  0  0
  7 16  1  0  0  0  0
  7 10  1  0  0  0  0
  8 13  1  0  0  0  0
  9 12  2  0  0  0  0
 10 15  1  0  0  0  0
 11 22  2  0  0  0  0
 12  5  1  0  0  0  0
 12  8  1  0  0  0  0
 13  4  1  0  0  0  0
 13 28  1  0  0  0  0
 14 19  1  0  0  0  0
 16 24  1  0  0  0  0
 17  2  1  0  0  0  0
 18  3  1  0  0  0  0
 19 26  2  0  0  0  0
 20 27  2  0  0  0  0
 21 18  1  0  0  0  0
 21 23  1  0  0  0  0
 23 10  1  0  0  0  0
 23 11  1  0  0  0  0
 24 15  1  0  0  0  0
 27 26  1  0  0  0  0
 27 18  1  0  0  0  0
 28 25  1  0  0  0  0
 28  7  1  0  0  0  0
 29 30  1  0  0  0  0
 30  9  1  0  0  0  0
M  END
>  <MODEL>
4

>  <REMARK>
 VINA RESULT:      -8.0      1.739      2.260
  Name = 
  1 active torsions:
  status: ('A' for Active; 'I' for Inactive)
    1  A    between atoms: C_9  and  C_21
                            x       y       z     vdW  Elec       q    Type
                         _______ _______ _______ _____ _____    ______ ____

>  <TORSDO>
F 1

$$$$
=
 OpenBabel10262421503D

 30 35  0  0  1  0  0  0  0  0999 V2000
  185.8820  178.5150  142.1350 C   0  0  1  0  0  3  0  0  0  0  0  0
  185.8400  178.2020  144.6750 C   0  0  0  0  0  0  0  0  0  0  0  0
  189.5270  176.6740  141.9560 C   0  0  0  0  0  2  0  0  0  0  0  0
  186.6640  178.0780  140.8860 C   0  0  1  0  0  3  0  0  0  0  0  0
  184.5720  177.9570  142.0580 O   0  0  0  0  0  0  0  0  0  0  0  0
  183.8140  178.7980  138.6200 O   0  0  0  0  0  0  0  0  0  0  0  0
  187.8770  178.9920  137.9580 C   0  0  1  0  0  3  0  0  0  0  0  0
  184.4790  178.5080  139.6520 C   0  0  0  0  0  0  0  0  0  0  0  0
  182.5210  177.6840  140.9690 C   0  0  0  0  0  3  0  0  0  0  0  0
  189.1440  178.4480  138.6240 C   0  0  2  0  0  3  0  0  0  0  0  0
  189.6750  176.7660  140.4960 C   0  0  0  0  0  0  0  0  0  0  0  0
  183.8080  178.0480  140.8940 C   0  0  0  0  0  0  0  0  0  0  0  0
  185.9790  178.7020  139.6450 C   0  0  2  0  0  3  0  0  0  0  0  0
  186.4770  177.9050  145.8390 N   0  0  0  0  0  0  0  0  0  0  0  0
  189.7680  177.5330  137.5890 C   0  0  0  0  0  2  0  0  0  0  0  0
  188.1280  178.9190  136.4590 C   0  0  0  0  0  2  0  0  0  0  0  0
  184.1550  178.6970  144.7840 Cl  0  0  0  0  0  0  0  0  0  0  0  0
  188.8080  177.9810  142.2730 C   0  0  1  0  0  3  0  0  0  0  0  0
  187.7960  177.5970  145.8820 C   0  0  0  0  0  3  0  0  0  0  0  0
  186.5470  178.1530  143.4460 C   0  0  0  0  0  0  0  0  0  0  0  0
  188.1440  178.4700  140.9690 C   0  0  1  0  0  3  0  0  0  0  0  0
  190.4270  176.0030  139.8350 O   0  0  0  0  0  0  0  0  0  0  0  0
  188.8750  177.7880  139.9090 N   0  0  0  0  0  0  0  0  0  0  0  0
  189.4320  178.1680  136.2580 C   0  0  0  0  0  2  0  0  0  0  0  0
  186.6270  176.7350  138.1310 C   0  0  0  0  0  1  0  0  0  0  0  0
  188.5470  177.6000  144.7120 C   0  0  0  0  0  3  0  0  0  0  0  0
  187.9330  177.8880  143.4910 C   0  0  0  0  0  0  0  0  0  0  0  0
  186.5740  178.2530  138.3020 C   0  0  2  0  0  3  0  0  0  0  0  0
  181.2870  176.3050  139.3370 C   0  0  0  0  0  1  0  0  0  0  0  0
  181.5410  177.7130  139.8410 C   0  0  0  0  0  2  0  0  0  0  0  0
  1  5  1  1  0  0  0
  1 20  1  0  0  0  0
  2 17  1  0  0  0  0
  2 14  1  0  0  0  0
  3 18  1  0  0  0  0
  4 21  1  0  0  0  0
  4  1  1  0  0  0  0
  6  8  2  0  0  0  0
  7 28  1  0  0  0  0
  7 10  1  0  0  0  0
  8 12  1  0  0  0  0
 10 23  1  0  0  0  0
 11  3  1  0  0  0  0
 12  9  2  0  0  0  0
 12  5  1  0  0  0  0
 13  8  1  0  0  0  0
 13  4  1  0  0  0  0
 14 19  2  0  0  0  0
 15 10  1  0  0  0  0
 16  7  1  0  0  0  0
 18 27  1  0  0  0  0
 20 27  1  0  0  0  0
 20  2  2  0  0  0  0
 21 18  1  0  0  0  0
 22 11  2  0  0  0  0
 23 11  1  0  0  0  0
 23 21  1  0  0  0  0
 24 16  1  0  0  0  0
 24 15  1  0  0  0  0
 25 28  1  0  0  0  0
 26 19  1  0  0  0  0
 27 26  2  0  0  0  0
 28 13  1  0  0  0  0
 29 30  1  0  0  0  0
 30  9  1  0  0  0  0
M  END
>  <MODEL>
5

>  <REMARK>
 VINA RESULT:      -7.9      2.652      6.632
  Name = 
  1 active torsions:
  status: ('A' for Active; 'I' for Inactive)
    1  A    between atoms: C_9  and  C_21
                            x       y       z     vdW  Elec       q    Type
                         _______ _______ _______ _____ _____    ______ ____

>  <TORSDO>
F 1

$$$$
=
 OpenBabel10262421503D

 30 35  0  0  1  0  0  0  0  0999 V2000
  185.6070  178.8000  142.3910 C   0  0  1  0  0  3  0  0  0  0  0  0
  184.5840  178.7820  144.7370 C   0  0  0  0  0  0  0  0  0  0  0  0
  188.6930  176.4650  143.7060 C   0  0  0  0  0  2  0  0  0  0  0  0
  186.7060  178.1230  141.5570 C   0  0  1  0  0  3  0  0  0  0  0  0
  184.3430  178.4240  141.8510 O   0  0  0  0  0  0  0  0  0  0  0  0
  185.0540  178.9730  138.3440 O   0  0  0  0  0  0  0  0  0  0  0  0
  189.0460  178.5270  139.2660 C   0  0  1  0  0  3  0  0  0  0  0  0
  185.2340  178.7100  139.5650 C   0  0  0  0  0  0  0  0  0  0  0  0
  182.8200  178.3180  140.0800 C   0  0  0  0  0  3  0  0  0  0  0  0
  189.8680  177.8910  140.3910 C   0  0  2  0  0  3  0  0  0  0  0  0
  189.3800  176.3710  142.4080 C   0  0  0  0  0  0  0  0  0  0  0  0
  184.0860  178.4890  140.4810 C   0  0  0  0  0  0  0  0  0  0  0  0
  186.6410  178.6930  140.1190 C   0  0  2  0  0  3  0  0  0  0  0  0
  184.6890  178.5320  146.0690 N   0  0  0  0  0  0  0  0  0  0  0  0
  190.6620  176.7890  139.7200 C   0  0  0  0  0  2  0  0  0  0  0  0
  189.8120  178.2540  137.9810 C   0  0  0  0  0  2  0  0  0  0  0  0
  183.0870  179.5150  144.1720 Cl  0  0  0  0  0  0  0  0  0  0  0  0
  188.1420  177.8860  143.6580 C   0  0  1  0  0  3  0  0  0  0  0  0
  185.8270  178.0510  146.6260 C   0  0  0  0  0  3  0  0  0  0  0  0
  185.6730  178.4990  143.8730 C   0  0  0  0  0  0  0  0  0  0  0  0
  188.0960  178.3130  142.1760 C   0  0  1  0  0  3  0  0  0  0  0  0
  190.1810  175.4430  142.1230 O   0  0  0  0  0  0  0  0  0  0  0  0
  189.0380  177.4230  141.5100 N   0  0  0  0  0  0  0  0  0  0  0  0
  190.9510  177.3120  138.3300 C   0  0  0  0  0  2  0  0  0  0  0  0
  187.4550  176.4990  139.0680 C   0  0  0  0  0  1  0  0  0  0  0  0
  186.9440  177.8190  145.8310 C   0  0  0  0  0  3  0  0  0  0  0  0
  186.8790  178.0510  144.4550 C   0  0  0  0  0  0  0  0  0  0  0  0
  187.6010  178.0190  139.1270 C   0  0  2  0  0  3  0  0  0  0  0  0
  181.5940  179.6490  138.4030 C   0  0  0  0  0  1  0  0  0  0  0  0
  182.3420  178.3560  138.6640 C   0  0  0  0  0  2  0  0  0  0  0  0
  1  5  1  6  0  0  0
  1 20  1  0  0  0  0
  2 14  1  0  0  0  0
  4 21  1  0  0  0  0
  4  1  1  0  0  0  0
  6  8  2  0  0  0  0
  7 10  1  0  0  0  0
  8 13  1  0  0  0  0
  8 12  1  0  0  0  0
  9 12  2  0  0  0  0
 10 23  1  0  0  0  0
 11  3  1  0  0  0  0
 12  5  1  0  0  0  0
 13  4  1  0  0  0  0
 14 19  2  0  0  0  0
 15 10  1  0  0  0  0
 16 24  1  0  0  0  0
 16  7  1  0  0  0  0
 17  2  1  0  0  0  0
 18  3  1  0  0  0  0
 18 27  1  0  0  0  0
 20 27  1  0  0  0  0
 20  2  2  0  0  0  0
 21 18  1  0  0  0  0
 22 11  2  0  0  0  0
 23 21  1  0  0  0  0
 23 11  1  0  0  0  0
 24 15  1  0  0  0  0
 25 28  1  0  0  0  0
 26 19  1  0  0  0  0
 27 26  2  0  0  0  0
 28  7  1  0  0  0  0
 28 13  1  0  0  0  0
 29 30  1  0  0  0  0
 30  9  1  0  0  0  0
M  END
>  <MODEL>
6

>  <REMARK>
 VINA RESULT:      -7.4      2.680      5.952
  Name = 
  1 active torsions:
  status: ('A' for Active; 'I' for Inactive)
    1  A    between atoms: C_9  and  C_21
                            x       y       z     vdW  Elec       q    Type
                         _______ _______ _______ _____ _____    ______ ____

>  <TORSDO>
F 1

$$$$
=
 OpenBabel10262421503D

 30 35  0  0  1  0  0  0  0  0999 V2000
  188.7570  177.1670  144.5810 C   0  0  1  0  0  3  0  0  0  0  0  0
  190.1090  177.1280  146.7540 C   0  0  0  0  0  0  0  0  0  0  0  0
  185.8870  179.4430  146.3950 C   0  0  0  0  0  2  0  0  0  0  0  0
  187.5460  177.8600  143.9350 C   0  0  1  0  0  3  0  0  0  0  0  0
  189.9290  177.5680  143.8750 O   0  0  0  0  0  0  0  0  0  0  0  0
  188.7190  177.1130  140.4940 O   0  0  0  0  0  0  0  0  0  0  0  0
  184.9010  177.5030  141.9960 C   0  0  1  0  0  3  0  0  0  0  0  0
  188.7170  177.3390  141.7340 C   0  0  0  0  0  0  0  0  0  0  0  0
  191.1780  177.7350  141.9060 C   0  0  0  0  0  3  0  0  0  0  0  0
  184.2490  178.1020  143.2460 C   0  0  2  0  0  3  0  0  0  0  0  0
  185.0190  179.5680  145.2140 C   0  0  0  0  0  0  0  0  0  0  0  0
  189.9850  177.5430  142.4800 C   0  0  0  0  0  0  0  0  0  0  0  0
  187.4040  177.3310  142.4860 C   0  0  2  0  0  3  0  0  0  0  0  0
  190.1970  177.3400  148.0940 N   0  0  0  0  0  0  0  0  0  0  0  0
  183.3620  179.2160  142.7280 C   0  0  0  0  0  2  0  0  0  0  0  0
  183.9560  177.8070  140.8440 C   0  0  0  0  0  2  0  0  0  0  0  0
  191.5110  176.4220  145.9570 Cl  0  0  0  0  0  0  0  0  0  0  0  0
  186.4300  178.0280  146.2270 C   0  0  1  0  0  3  0  0  0  0  0  0
  189.1500  177.7960  148.8230 C   0  0  0  0  0  3  0  0  0  0  0  0
  188.9060  177.4270  146.0650 C   0  0  0  0  0  0  0  0  0  0  0  0
  186.2620  177.6420  144.7430 C   0  0  1  0  0  3  0  0  0  0  0  0
  184.1820  180.4980  145.0740 O   0  0  0  0  0  0  0  0  0  0  0  0
  185.2300  178.5440  144.2450 N   0  0  0  0  0  0  0  0  0  0  0  0
  182.8770  178.7300  141.3800 C   0  0  0  0  0  2  0  0  0  0  0  0
  186.4400  179.5480  141.6280 C   0  0  0  0  0  1  0  0  0  0  0  0
  187.9300  178.0420  148.2050 C   0  0  0  0  0  3  0  0  0  0  0  0
  187.7950  177.8490  146.8280 C   0  0  0  0  0  0  0  0  0  0  0  0
  186.3090  178.0260  141.6640 C   0  0  2  0  0  3  0  0  0  0  0  0
  192.9220  177.5030  140.1750 C   0  0  0  0  0  1  0  0  0  0  0  0
  191.4460  177.7400  140.4360 C   0  0  0  0  0  2  0  0  0  0  0  0
  1  5  1  6  0  0  0
  1 20  1  0  0  0  0
  2 14  1  0  0  0  0
  4  1  1  0  0  0  0
  4 21  1  0  0  0  0
  6  8  2  0  0  0  0
  7 10  1  0  0  0  0
  8 12  1  0  0  0  0
  8 13  1  0  0  0  0
  9 12  2  0  0  0  0
 10 23  1  0  0  0  0
 11  3  1  0  0  0  0
 12  5  1  0  0  0  0
 13  4  1  0  0  0  0
 14 19  2  0  0  0  0
 15 10  1  0  0  0  0
 16 24  1  0  0  0  0
 16  7  1  0  0  0  0
 17  2  1  0  0  0  0
 18  3  1  0  0  0  0
 18 27  1  0  0  0  0
 20  2  2  0  0  0  0
 20 27  1  0  0  0  0
 21 18  1  0  0  0  0
 22 11  2  0  0  0  0
 23 21  1  0  0  0  0
 23 11  1  0  0  0  0
 24 15  1  0  0  0  0
 25 28  1  0  0  0  0
 26 19  1  0  0  0  0
 27 26  2  0  0  0  0
 28  7  1  0  0  0  0
 28 13  1  0  0  0  0
 29 30  1  0  0  0  0
 30  9  1  0  0  0  0
M  END
>  <MODEL>
7

>  <REMARK>
 VINA RESULT:      -7.4      3.044      6.205
  Name = 
  1 active torsions:
  status: ('A' for Active; 'I' for Inactive)
    1  A    between atoms: C_9  and  C_21
                            x       y       z     vdW  Elec       q    Type
                         _______ _______ _______ _____ _____    ______ ____

>  <TORSDO>
F 1

$$$$
=
 OpenBabel10262421503D

 30 35  0  0  1  0  0  0  0  0999 V2000
  185.1990  178.6600  141.8720 C   0  0  1  0  0  3  0  0  0  0  0  0
  184.5040  178.5600  144.3340 C   0  0  0  0  0  0  0  0  0  0  0  0
  188.7590  176.8750  142.7930 C   0  0  0  0  0  2  0  0  0  0  0  0
  186.2740  178.1330  140.9080 C   0  0  1  0  0  3  0  0  0  0  0  0
  183.9510  178.0740  141.5100 O   0  0  0  0  0  0  0  0  0  0  0  0
  184.1060  178.6110  137.9340 O   0  0  0  0  0  0  0  0  0  0  0  0
  188.2030  178.8200  138.3220 C   0  0  1  0  0  3  0  0  0  0  0  0
  184.4820  178.4190  139.1220 C   0  0  0  0  0  0  0  0  0  0  0  0
  182.2470  177.6750  139.9590 C   0  0  0  0  0  3  0  0  0  0  0  0
  189.2540  178.3560  139.3350 C   0  0  2  0  0  3  0  0  0  0  0  0
  189.2780  176.8460  141.4170 C   0  0  0  0  0  0  0  0  0  0  0  0
  183.5110  178.0530  140.1860 C   0  0  0  0  0  0  0  0  0  0  0  0
  185.9340  178.6390  139.4840 C   0  0  2  0  0  3  0  0  0  0  0  0
  184.8190  178.3730  145.6430 N   0  0  0  0  0  0  0  0  0  0  0  0
  190.1190  177.3690  138.5770 C   0  0  0  0  0  2  0  0  0  0  0  0
  188.8300  178.6260  136.9490 C   0  0  0  0  0  2  0  0  0  0  0  0
  182.8500  179.0330  143.9640 Cl  0  0  0  0  0  0  0  0  0  0  0  0
  187.9890  178.1910  142.8020 C   0  0  1  0  0  3  0  0  0  0  0  0
  186.0810  178.0930  146.0490 C   0  0  0  0  0  3  0  0  0  0  0  0
  185.5030  178.4210  143.3360 C   0  0  0  0  0  0  0  0  0  0  0  0
  187.6840  178.5570  141.3340 C   0  0  1  0  0  3  0  0  0  0  0  0
  190.1720  176.0440  141.0390 O   0  0  0  0  0  0  0  0  0  0  0  0
  188.6610  177.8020  140.5590 N   0  0  0  0  0  0  0  0  0  0  0  0
  190.1390  177.8840  137.1550 C   0  0  0  0  0  2  0  0  0  0  0  0
  186.9410  176.5640  138.3610 C   0  0  0  0  0  1  0  0  0  0  0  0
  187.1080  178.0110  145.1160 C   0  0  0  0  0  3  0  0  0  0  0  0
  186.8300  178.1850  143.7570 C   0  0  0  0  0  0  0  0  0  0  0  0
  186.8520  178.0890  138.3820 C   0  0  2  0  0  3  0  0  0  0  0  0
  181.5190  176.1460  138.1640 C   0  0  0  0  0  1  0  0  0  0  0  0
  181.5900  177.5920  138.6190 C   0  0  0  0  0  2  0  0  0  0  0  0
  1  5  1  6  0  0  0
  1 20  1  0  0  0  0
  2 14  1  0  0  0  0
  3 18  1  0  0  0  0
  4 21  1  0  0  0  0
  4  1  1  0  0  0  0
  6  8  2  0  0  0  0
  7 28  1  0  0  0  0
  7 10  1  0  0  0  0
  8 13  1  0  0  0  0
  8 12  1  0  0  0  0
  9 12  2  0  0  0  0
 10 23  1  0  0  0  0
 11  3  1  0  0  0  0
 12  5  1  0  0  0  0
 13  4  1  0  0  0  0
 14 19  2  0  0  0  0
 15 10  1  0  0  0  0
 16 24  1  0  0  0  0
 16  7  1  0  0  0  0
 17  2  1  0  0  0  0
 18 27  1  0  0  0  0
 20 27  1  0  0  0  0
 20  2  2  0  0  0  0
 21 18  1  0  0  0  0
 22 11  2  0  0  0  0
 23 21  1  0  0  0  0
 23 11  1  0  0  0  0
 24 15  1  0  0  0  0
 25 28  1  0  0  0  0
 26 19  1  0  0  0  0
 27 26  2  0  0  0  0
 28 13  1  0  0  0  0
 29 30  1  0  0  0  0
 30  9  1  0  0  0  0
M  END
>  <MODEL>
8

>  <REMARK>
 VINA RESULT:      -7.2      2.709      6.256
  Name = 
  1 active torsions:
  status: ('A' for Active; 'I' for Inactive)
    1  A    between atoms: C_9  and  C_21
                            x       y       z     vdW  Elec       q    Type
                         _______ _______ _______ _____ _____    ______ ____

>  <TORSDO>
F 1

$$$$
=
 OpenBabel10262421503D

 30 35  0  0  1  0  0  0  0  0999 V2000
  187.3150  177.6990  141.9130 C   0  0  1  0  0  3  0  0  0  0  0  0
  187.3620  178.1570  139.3950 C   0  0  0  0  0  0  0  0  0  0  0  0
  191.3550  178.2870  142.1070 C   0  0  0  0  0  2  0  0  0  0  0  0
  188.2010  177.7950  143.1650 C   0  0  1  0  0  3  0  0  0  0  0  0
  186.2490  178.6360  142.0490 O   0  0  0  0  0  0  0  0  0  0  0  0
  185.2800  177.8780  145.4540 O   0  0  0  0  0  0  0  0  0  0  0  0
  189.0770  176.3780  146.0130 C   0  0  1  0  0  3  0  0  0  0  0  0
  185.9970  178.0040  144.4240 C   0  0  0  0  0  0  0  0  0  0  0  0
  184.3930  179.4760  143.1970 C   0  0  0  0  0  3  0  0  0  0  0  0
  190.4480  176.5340  145.3480 C   0  0  2  0  0  3  0  0  0  0  0  0
  191.4730  178.0690  143.5580 C   0  0  0  0  0  0  0  0  0  0  0  0
  185.4990  178.7230  143.2230 C   0  0  0  0  0  0  0  0  0  0  0  0
  187.3590  177.3470  144.3860 C   0  0  2  0  0  3  0  0  0  0  0  0
  188.0550  178.3040  138.2350 N   0  0  0  0  0  0  0  0  0  0  0  0
  191.3330  177.1440  146.4160 C   0  0  0  0  0  2  0  0  0  0  0  0
  189.3450  176.2810  147.5070 C   0  0  0  0  0  2  0  0  0  0  0  0
  185.6070  178.2230  139.2970 Cl  0  0  0  0  0  0  0  0  0  0  0  0
  190.2600  177.2930  141.7370 C   0  0  1  0  0  3  0  0  0  0  0  0
  189.4040  178.1840  138.1780 C   0  0  0  0  0  3  0  0  0  0  0  0
  188.0540  177.9090  140.6080 C   0  0  0  0  0  0  0  0  0  0  0  0
  189.4810  176.9630  143.0280 C   0  0  1  0  0  3  0  0  0  0  0  0
  192.4310  178.5170  144.2410 O   0  0  0  0  0  0  0  0  0  0  0  0
  190.3950  177.3170  144.1070 N   0  0  0  0  0  0  0  0  0  0  0  0
  190.8200  176.5710  147.7190 C   0  0  0  0  0  2  0  0  0  0  0  0
  188.6020  178.9200  145.9880 C   0  0  0  0  0  1  0  0  0  0  0  0
  190.1210  177.8780  139.3290 C   0  0  0  0  0  3  0  0  0  0  0  0
  189.4530  177.7270  140.5470 C   0  0  0  0  0  0  0  0  0  0  0  0
  188.0710  177.5080  145.7370 C   0  0  2  0  0  3  0  0  0  0  0  0
  182.1360  179.0000  144.0730 C   0  0  0  0  0  1  0  0  0  0  0  0
  183.4590  179.6910  144.3430 C   0  0  0  0  0  2  0  0  0  0  0  0
  1 20  1  6  0  0  0
  1  5  1  0  0  0  0
  1  4  1  0  0  0  0
  2 20  1  0  0  0  0
  3 11  1  0  0  0  0
  4 13  1  0  0  0  0
  5 12  1  0  0  0  0
  7 16  1  0  0  0  0
  8  6  2  0  0  0  0
  9 12  2  0  0  0  0
  9 30  1  0  0  0  0
 10  7  1  0  0  0  0
 10 15  1  0  0  0  0
 11 23  1  0  0  0  0
 11 22  2  0  0  0  0
 12  8  1  0  0  0  0
 13  8  1  0  0  0  0
 13 28  1  0  0  0  0
 14  2  2  0  0  0  0
 15 24  1  0  0  0  0
 16 24  1  0  0  0  0
 17  2  1  0  0  0  0
 18  3  1  0  0  0  0
 18 21  1  0  0  0  0
 19 14  1  0  0  0  0
 19 26  2  0  0  0  0
 21  4  1  0  0  0  0
 21 23  1  0  0  0  0
 23 10  1  0  0  0  0
 26 27  1  0  0  0  0
 27 20  2  0  0  0  0
 27 18  1  0  0  0  0
 28 25  1  0  0  0  0
 28  7  1  0  0  0  0
 29 30  1  0  0  0  0
M  END
>  <MODEL>
9

>  <REMARK>
 VINA RESULT:      -6.9      2.224      5.412
  Name = 
  1 active torsions:
  status: ('A' for Active; 'I' for Inactive)
    1  A    between atoms: C_9  and  C_21
                            x       y       z     vdW  Elec       q    Type
                         _______ _______ _______ _____ _____    ______ ____

>  <TORSDO>
F 1

$$$$
