=
 OpenBabel10262423113D

 34 38  0  0  0  0  0  0  0  0999 V2000
  186.5910  178.1530  144.0510 C   0  0  0  0  0  0  0  0  0  0  0  0
  187.7840  177.6840  147.5360 C   0  0  0  0  0  3  0  0  0  0  0  0
  185.7540  178.3210  146.7030 C   0  0  0  0  0  3  0  0  0  0  0  0
  186.0850  178.5050  141.5870 C   0  0  0  0  0  0  0  0  0  0  0  0
  187.0470  177.9860  142.6110 C   0  0  0  0  0  2  0  0  0  0  0  0
  184.4120  178.8830  143.3300 C   0  0  0  0  0  0  0  0  0  0  0  0
  183.0960  179.2630  143.5700 O   0  0  0  0  0  1  0  0  0  0  0  0
  184.8540  178.8720  141.9290 C   0  0  0  0  0  3  0  0  0  0  0  0
  184.8560  178.6290  145.6910 C   0  0  0  0  0  0  0  0  0  0  0  0
  185.2580  178.5600  144.3400 C   0  0  0  0  0  0  0  0  0  0  0  0
  183.5700  179.0070  146.0630 O   0  0  0  0  0  1  0  0  0  0  0  0
  189.1730  177.2610  147.7270 C   0  0  0  0  0  3  0  0  0  0  0  0
  190.1200  176.9980  146.8300 C   0  0  0  0  0  0  0  0  0  0  0  0
  189.9360  177.0900  145.3800 C   0  0  0  0  0  3  0  0  0  0  0  0
  187.0660  177.9360  146.4410 C   0  0  0  0  0  0  0  0  0  0  0  0
  188.8630  177.4370  144.6780 C   0  0  0  0  0  3  0  0  0  0  0  0
  187.5030  177.8430  145.0970 C   0  0  0  0  0  0  0  0  0  0  0  0
  191.4550  176.5820  147.3170 C   0  0  0  0  0  0  0  0  0  0  0  0
  192.1910  175.4350  146.7040 C   0  0  0  0  0  1  0  0  0  0  0  0
  192.0000  177.1990  148.2710 O   0  0  0  0  0  0  0  0  0  0  0  0
  186.4900  178.4820  140.1370 C   0  0  0  0  0  2  0  0  0  0  0  0
  190.1260  177.6470  140.5300 C   0  0  0  0  0  2  0  0  0  0  0  0
  188.0550  177.8040  138.4380 C   0  0  0  0  0  2  0  0  0  0  0  0
  191.9370  176.1690  137.5380 C   0  0  0  0  0  0  0  0  0  0  0  0
  191.6640  176.6590  138.8230 C   0  0  0  0  0  3  0  0  0  0  0  0
  190.4050  177.1840  139.1290 C   0  0  0  0  0  0  0  0  0  0  0  0
  189.6690  176.7160  136.8630 C   0  0  0  0  0  3  0  0  0  0  0  0
  189.3940  177.1920  138.1480 C   0  0  0  0  0  0  0  0  0  0  0  0
  190.9320  176.2020  136.5610 C   0  0  0  0  0  3  0  0  0  0  0  0
  187.7730  177.8120  139.8770 N   0  0  0  0  0  0  0  0  0  0  0  0
  188.8570  178.4930  140.5910 C   0  0  0  0  0  2  0  0  0  0  0  0
  193.2680  175.6240  137.2250 C   0  0  0  0  0  0  0  0  0  0  0  0
  193.5010  174.3930  137.3590 O   0  0  0  0  0  1  0  0  0  0  0  0
  194.2810  176.4620  136.7760 O   0  0  0  0  0  0  0  0  0  0  0  0
  1 10  1  0  0  0  0
  1 17  2  0  0  0  0
  2 12  1  0  0  0  0
  4  8  2  0  0  0  0
  4  5  1  0  0  0  0
  5  1  1  0  0  0  0
  6  7  1  0  0  0  0
  6 10  2  0  0  0  0
  8  6  1  0  0  0  0
  9 11  1  0  0  0  0
  9  3  2  0  0  0  0
 10  9  1  0  0  0  0
 13 18  1  0  0  0  0
 13 12  2  0  0  0  0
 14 13  1  0  0  0  0
 15  3  1  0  0  0  0
 15  2  2  0  0  0  0
 16 17  1  0  0  0  0
 16 14  2  0  0  0  0
 17 15  1  0  0  0  0
 18 20  2  0  0  0  0
 19 18  1  0  0  0  0
 21  4  1  0  0  0  0
 22 31  1  0  0  0  0
 23 30  1  0  0  0  0
 24 25  1  0  0  0  0
 25 26  2  0  0  0  0
 26 22  1  0  0  0  0
 27 28  2  0  0  0  0
 28 23  1  0  0  0  0
 28 26  1  0  0  0  0
 29 27  1  0  0  0  0
 29 24  2  0  0  0  0
 30 21  1  0  0  0  0
 30 31  1  0  0  0  0
 32 33  1  0  0  0  0
 32 24  1  0  0  0  0
 34 32  2  0  0  0  0
M  END
>  <MODEL>
1

>  <REMARK>
 VINA RESULT:     -12.0      0.000      0.000
  Name = 
  4 active torsions:
  status: ('A' for Active; 'I' for Inactive)
    1  A    between atoms: C_3  and  C_25
    2  A    between atoms: C_7  and  C_11
    3  A    between atoms: C_8  and  C_18
    4  A    between atoms: C_18  and  N_30
                            x       y       z     vdW  Elec       q    Type
                         _______ _______ _______ _____ _____    ______ ____

>  <TORSDO>
F 4

$$$$
=
 OpenBabel10262423113D

 34 38  0  0  1  0  0  0  0  0999 V2000
  187.9230  177.7950  144.9980 C   0  0  1  0  0  3  0  0  0  0  0  0
  184.4250  178.5850  145.9630 C   0  0  0  0  0  3  0  0  0  0  0  0
  186.2940  178.2040  147.2210 C   0  0  0  0  0  3  0  0  0  0  0  0
  190.1940  177.1570  144.0570 C   0  0  0  0  0  0  0  0  0  0  0  0
  188.8080  177.6480  143.7710 C   0  0  0  0  0  3  0  0  0  0  0  0
  189.7890  177.3690  146.4590 C   0  0  0  0  0  0  0  0  0  0  0  0
  190.3770  177.2780  147.7160 O   0  0  0  0  0  1  0  0  0  0  0  0
  190.6490  177.0790  145.3030 C   0  0  0  0  0  3  0  0  0  0  0  0
  187.6360  177.9080  147.4130 C   0  0  0  0  0  0  0  0  0  0  0  0
  188.4800  177.6880  146.3030 C   0  0  0  0  0  0  0  0  0  0  0  0
  188.1000  177.8340  148.7230 O   0  0  0  0  0  1  0  0  0  0  0  0
  183.4490  178.7740  144.8870 C   0  0  0  0  0  3  0  0  0  0  0  0
  183.6070  178.7160  143.5670 C   0  0  0  0  0  0  0  0  0  0  0  0
  184.8780  178.4300  142.8970 C   0  0  0  0  0  3  0  0  0  0  0  0
  185.7270  178.2980  145.9530 C   0  0  0  0  0  0  0  0  0  0  0  0
  186.0760  178.1780  143.4130 C   0  0  0  0  0  3  0  0  0  0  0  0
  186.5450  178.0970  144.8140 C   0  0  0  0  0  0  0  0  0  0  0  0
  182.4270  178.9540  142.7050 C   0  0  0  0  0  0  0  0  0  0  0  0
  182.4200  178.5680  141.2620 C   0  0  0  0  0  1  0  0  0  0  0  0
  181.3940  179.4940  143.1840 O   0  0  0  0  0  0  0  0  0  0  0  0
  191.1140  176.8770  142.8980 C   0  0  0  0  0  2  0  0  0  0  0  0
  190.7310  176.4240  139.1940 C   0  0  0  0  0  2  0  0  0  0  0  0
  189.3950  177.7540  141.4600 C   0  0  0  0  0  2  0  0  0  0  0  0
  187.5240  177.6600  137.5810 C   0  0  0  0  0  0  0  0  0  0  0  0
  188.7890  177.0840  137.7640 C   0  0  0  0  0  3  0  0  0  0  0  0
  189.4020  177.1010  139.0190 C   0  0  0  0  0  0  0  0  0  0  0  0
  187.4750  178.2610  139.9350 C   0  0  0  0  0  3  0  0  0  0  0  0
  188.7300  177.6740  140.1170 C   0  0  0  0  0  0  0  0  0  0  0  0
  186.8720  178.2490  138.6740 C   0  0  0  0  0  3  0  0  0  0  0  0
  190.4320  176.7280  141.6040 N   0  0  0  0  0  0  0  0  0  0  0  0
  191.3950  176.8380  140.5060 C   0  0  0  0  0  2  0  0  0  0  0  0
  186.8900  177.6420  136.2530 C   0  0  0  0  0  0  0  0  0  0  0  0
  185.6440  177.4890  136.1430 O   0  0  0  0  0  1  0  0  0  0  0  0
  187.6600  177.7950  135.1070 O   0  0  0  0  0  0  0  0  0  0  0  0
  1  5  1  6  0  0  0
  1 10  1  0  0  0  0
  3  9  1  0  0  0  0
  4  8  1  0  0  0  0
  5  4  2  0  0  0  0
  6  7  1  0  0  0  0
  8  6  2  0  0  0  0
  9 11  1  0  0  0  0
 10  6  1  0  0  0  0
 10  9  2  0  0  0  0
 12  2  2  0  0  0  0
 13 12  1  0  0  0  0
 14 16  1  0  0  0  0
 14 13  2  0  0  0  0
 15  2  1  0  0  0  0
 15  3  2  0  0  0  0
 16 17  2  0  0  0  0
 17  1  1  0  0  0  0
 17 15  1  0  0  0  0
 18 20  2  0  0  0  0
 18 13  1  0  0  0  0
 19 18  1  0  0  0  0
 21  4  1  0  0  0  0
 22 31  1  0  0  0  0
 23 30  1  0  0  0  0
 24 25  2  0  0  0  0
 24 29  1  0  0  0  0
 25 26  1  0  0  0  0
 26 22  1  0  0  0  0
 26 28  2  0  0  0  0
 27 28  1  0  0  0  0
 28 23  1  0  0  0  0
 29 27  2  0  0  0  0
 30 21  1  0  0  0  0
 31 30  1  0  0  0  0
 32 24  1  0  0  0  0
 33 32  1  0  0  0  0
 34 32  2  0  0  0  0
M  END
>  <MODEL>
2

>  <REMARK>
 VINA RESULT:     -11.6      2.384      5.715
  Name = 
  4 active torsions:
  status: ('A' for Active; 'I' for Inactive)
    1  A    between atoms: C_3  and  C_25
    2  A    between atoms: C_7  and  C_11
    3  A    between atoms: C_8  and  C_18
    4  A    between atoms: C_18  and  N_30
                            x       y       z     vdW  Elec       q    Type
                         _______ _______ _______ _____ _____    ______ ____

>  <TORSDO>
F 4

$$$$
=
 OpenBabel10262423113D

 34 38  0  0  1  0  0  0  0  0999 V2000
  188.2950  177.5990  145.0620 C   0  0  1  0  0  3  0  0  0  0  0  0
  191.3240  176.6720  143.1240 C   0  0  0  0  0  3  0  0  0  0  0  0
  190.9730  176.8920  145.3710 C   0  0  0  0  0  3  0  0  0  0  0  0
  186.1160  178.3670  146.1160 C   0  0  0  0  0  0  0  0  0  0  0  0
  186.8200  177.9120  144.8750 C   0  0  0  0  0  3  0  0  0  0  0  0
  188.0950  177.8360  147.4500 C   0  0  0  0  0  0  0  0  0  0  0  0
  188.5990  177.7630  148.7440 O   0  0  0  0  0  1  0  0  0  0  0  0
  186.7020  178.2820  147.3060 C   0  0  0  0  0  3  0  0  0  0  0  0
  190.2120  177.1650  146.4990 C   0  0  0  0  0  0  0  0  0  0  0  0
  188.8560  177.5350  146.3680 C   0  0  0  0  0  0  0  0  0  0  0  0
  190.8370  177.0680  147.7380 O   0  0  0  0  0  1  0  0  0  0  0  0
  191.2080  176.6230  141.6650 C   0  0  0  0  0  3  0  0  0  0  0  0
  190.1590  176.8560  140.8800 C   0  0  0  0  0  0  0  0  0  0  0  0
  188.8300  177.2350  141.3650 C   0  0  0  0  0  3  0  0  0  0  0  0
  190.4460  176.9630  144.0840 C   0  0  0  0  0  0  0  0  0  0  0  0
  188.3970  177.4220  142.6070 C   0  0  0  0  0  3  0  0  0  0  0  0
  189.0850  177.3180  143.9130 C   0  0  0  0  0  0  0  0  0  0  0  0
  190.3330  176.7290  139.4150 C   0  0  0  0  0  0  0  0  0  0  0  0
  189.8330  177.7740  138.4730 C   0  0  0  0  0  1  0  0  0  0  0  0
  190.9160  175.7200  138.9330 O   0  0  0  0  0  0  0  0  0  0  0  0
  184.6790  178.8030  146.0130 C   0  0  0  0  0  2  0  0  0  0  0  0
  184.2680  178.9260  142.2860 C   0  0  0  0  0  2  0  0  0  0  0  0
  182.6370  178.8910  144.7410 C   0  0  0  0  0  2  0  0  0  0  0  0
  180.7620  178.5550  140.8780 C   0  0  0  0  0  0  0  0  0  0  0  0
  182.1510  178.7140  140.9710 C   0  0  0  0  0  3  0  0  0  0  0  0
  182.7720  178.8150  142.2190 C   0  0  0  0  0  0  0  0  0  0  0  0
  180.6110  178.5810  143.3020 C   0  0  0  0  0  3  0  0  0  0  0  0
  181.9980  178.7260  143.3930 C   0  0  0  0  0  0  0  0  0  0  0  0
  179.9960  178.4900  142.0510 C   0  0  0  0  0  3  0  0  0  0  0  0
  184.0650  178.5640  144.6980 N   0  0  0  0  0  0  0  0  0  0  0  0
  184.7280  179.3720  143.6720 C   0  0  0  0  0  2  0  0  0  0  0  0
  180.1180  178.4560  139.5580 C   0  0  0  0  0  0  0  0  0  0  0  0
  180.6270  179.0230  138.5550 O   0  0  0  0  0  0  0  0  0  0  0  0
  178.9400  177.7340  139.4050 O   0  0  0  0  0  1  0  0  0  0  0  0
  1  5  1  1  0  0  0
  1 10  1  0  0  0  0
  2 15  1  0  0  0  0
  3  9  1  0  0  0  0
  4  8  1  0  0  0  0
  5  4  2  0  0  0  0
  6  7  1  0  0  0  0
  8  6  2  0  0  0  0
  9 11  1  0  0  0  0
 10  9  2  0  0  0  0
 10  6  1  0  0  0  0
 12  2  2  0  0  0  0
 13 14  2  0  0  0  0
 13 12  1  0  0  0  0
 14 16  1  0  0  0  0
 15  3  2  0  0  0  0
 16 17  2  0  0  0  0
 17 15  1  0  0  0  0
 17  1  1  0  0  0  0
 18 13  1  0  0  0  0
 19 18  1  0  0  0  0
 20 18  2  0  0  0  0
 21  4  1  0  0  0  0
 22 31  1  0  0  0  0
 24 25  2  0  0  0  0
 24 29  1  0  0  0  0
 25 26  1  0  0  0  0
 26 22  1  0  0  0  0
 26 28  2  0  0  0  0
 27 28  1  0  0  0  0
 28 23  1  0  0  0  0
 29 27  2  0  0  0  0
 30 23  1  0  0  0  0
 30 21  1  0  0  0  0
 31 30  1  0  0  0  0
 32 24  1  0  0  0  0
 33 32  2  0  0  0  0
 34 32  1  0  0  0  0
M  END
>  <MODEL>
3

>  <REMARK>
 VINA RESULT:     -11.3      2.776      8.025
  Name = 
  4 active torsions:
  status: ('A' for Active; 'I' for Inactive)
    1  A    between atoms: C_3  and  C_25
    2  A    between atoms: C_7  and  C_11
    3  A    between atoms: C_8  and  C_18
    4  A    between atoms: C_18  and  N_30
                            x       y       z     vdW  Elec       q    Type
                         _______ _______ _______ _____ _____    ______ ____

>  <TORSDO>
F 4

$$$$
=
 OpenBabel10262423113D

 34 38  0  0  1  0  0  0  0  0999 V2000
  184.1320  178.7430  141.5510 C   0  0  1  0  0  3  0  0  0  0  0  0
  185.0190  178.2720  137.9760 C   0  0  0  0  0  3  0  0  0  0  0  0
  182.9990  178.5180  139.0150 C   0  0  0  0  0  3  0  0  0  0  0  0
  183.8130  178.9380  144.0630 C   0  0  0  0  0  0  0  0  0  0  0  0
  184.7740  178.9350  142.9150 C   0  0  0  0  0  3  0  0  0  0  0  0
  181.9290  178.9410  142.5040 C   0  0  0  0  0  0  0  0  0  0  0  0
  180.5450  179.0230  142.4060 O   0  0  0  0  0  1  0  0  0  0  0  0
  182.5010  178.9880  143.8570 C   0  0  0  0  0  3  0  0  0  0  0  0
  182.1680  178.6920  140.1130 C   0  0  0  0  0  0  0  0  0  0  0  0
  182.7170  178.7990  141.4090 C   0  0  0  0  0  0  0  0  0  0  0  0
  180.7970  178.7470  139.8820 O   0  0  0  0  0  1  0  0  0  0  0  0
  186.4390  178.1450  137.6390 C   0  0  0  0  0  3  0  0  0  0  0  0
  187.5120  178.1760  138.4250 C   0  0  0  0  0  0  0  0  0  0  0  0
  187.4690  178.3560  139.8780 C   0  0  0  0  0  3  0  0  0  0  0  0
  184.3840  178.4460  139.1360 C   0  0  0  0  0  0  0  0  0  0  0  0
  186.4280  178.5130  140.6870 C   0  0  0  0  0  3  0  0  0  0  0  0
  184.9730  178.5630  140.4190 C   0  0  0  0  0  0  0  0  0  0  0  0
  188.8460  178.0200  137.8020 C   0  0  0  0  0  0  0  0  0  0  0  0
  189.9440  177.2680  138.4800 C   0  0  0  0  0  1  0  0  0  0  0  0
  189.0790  178.5280  136.6720 O   0  0  0  0  0  0  0  0  0  0  0  0
  184.3610  179.0160  145.4630 C   0  0  0  0  0  2  0  0  0  0  0  0
  187.5940  177.2590  144.7360 C   0  0  0  0  0  2  0  0  0  0  0  0
  186.1560  178.5100  146.9850 C   0  0  0  0  0  2  0  0  0  0  0  0
  190.2320  177.2030  147.4660 C   0  0  0  0  0  0  0  0  0  0  0  0
  189.5730  177.0060  146.2450 C   0  0  0  0  0  3  0  0  0  0  0  0
  188.2530  177.4330  146.0740 C   0  0  0  0  0  0  0  0  0  0  0  0
  188.2430  178.2810  148.3500 C   0  0  0  0  0  3  0  0  0  0  0  0
  187.5920  178.0950  147.1270 C   0  0  0  0  0  0  0  0  0  0  0  0
  189.5590  177.8430  148.5170 C   0  0  0  0  0  3  0  0  0  0  0  0
  185.7880  178.6810  145.5760 N   0  0  0  0  0  0  0  0  0  0  0  0
  186.0830  177.4530  144.8330 C   0  0  0  0  0  2  0  0  0  0  0  0
  191.6200  176.7440  147.6370 C   0  0  0  0  0  0  0  0  0  0  0  0
  192.3260  177.1830  148.5850 O   0  0  0  0  0  1  0  0  0  0  0  0
  192.1660  175.8190  146.7560 O   0  0  0  0  0  0  0  0  0  0  0  0
  1  5  1  6  0  0  0
  2 15  1  0  0  0  0
  3 15  2  0  0  0  0
  3  9  1  0  0  0  0
  4 21  1  0  0  0  0
  5  4  2  0  0  0  0
  6  8  2  0  0  0  0
  7  6  1  0  0  0  0
  8  4  1  0  0  0  0
  9 10  2  0  0  0  0
 10  1  1  0  0  0  0
 10  6  1  0  0  0  0
 11  9  1  0  0  0  0
 12  2  2  0  0  0  0
 12 13  1  0  0  0  0
 13 14  2  0  0  0  0
 14 16  1  0  0  0  0
 15 17  1  0  0  0  0
 17 16  2  0  0  0  0
 17  1  1  0  0  0  0
 18 13  1  0  0  0  0
 18 19  1  0  0  0  0
 20 18  2  0  0  0  0
 21 30  1  0  0  0  0
 22 31  1  0  0  0  0
 22 26  1  0  0  0  0
 23 28  1  0  0  0  0
 24 32  1  0  0  0  0
 24 29  1  0  0  0  0
 25 24  2  0  0  0  0
 26 25  1  0  0  0  0
 26 28  2  0  0  0  0
 27 29  2  0  0  0  0
 28 27  1  0  0  0  0
 30 23  1  0  0  0  0
 31 30  1  0  0  0  0
 32 33  1  0  0  0  0
 34 32  2  0  0  0  0
M  END
>  <MODEL>
4

>  <REMARK>
 VINA RESULT:     -11.1      2.412      7.885
  Name = 
  4 active torsions:
  status: ('A' for Active; 'I' for Inactive)
    1  A    between atoms: C_3  and  C_25
    2  A    between atoms: C_7  and  C_11
    3  A    between atoms: C_8  and  C_18
    4  A    between atoms: C_18  and  N_30
                            x       y       z     vdW  Elec       q    Type
                         _______ _______ _______ _____ _____    ______ ____

>  <TORSDO>
F 4

$$$$
=
 OpenBabel10262423113D

 34 38  0  0  1  0  0  0  0  0999 V2000
  184.1260  178.7120  141.8700 C   0  0  1  0  0  3  0  0  0  0  0  0
  185.3410  178.2640  138.3900 C   0  0  0  0  0  3  0  0  0  0  0  0
  183.2300  178.4430  139.2450 C   0  0  0  0  0  3  0  0  0  0  0  0
  183.5790  178.9030  144.3430 C   0  0  0  0  0  0  0  0  0  0  0  0
  184.6380  178.9300  143.2840 C   0  0  0  0  0  3  0  0  0  0  0  0
  181.8420  178.8380  142.6230 C   0  0  0  0  0  0  0  0  0  0  0  0
  180.4690  178.8730  142.4020 O   0  0  0  0  0  1  0  0  0  0  0  0
  182.2890  178.9080  144.0210 C   0  0  0  0  0  3  0  0  0  0  0  0
  182.3000  178.5910  140.2640 C   0  0  0  0  0  0  0  0  0  0  0  0
  182.7280  178.7210  141.6030 C   0  0  0  0  0  0  0  0  0  0  0  0
  180.9540  178.6000  139.9130 O   0  0  0  0  0  1  0  0  0  0  0  0
  186.7890  178.1840  138.1810 C   0  0  0  0  0  3  0  0  0  0  0  0
  187.7860  178.2530  139.0580 C   0  0  0  0  0  0  0  0  0  0  0  0
  187.6090  178.4350  140.5020 C   0  0  0  0  0  3  0  0  0  0  0  0
  184.6010  178.4180  139.4880 C   0  0  0  0  0  0  0  0  0  0  0  0
  186.4960  178.5590  141.2140 C   0  0  0  0  0  3  0  0  0  0  0  0
  185.0700  178.5580  140.8180 C   0  0  0  0  0  0  0  0  0  0  0  0
  189.1750  178.1410  138.5570 C   0  0  0  0  0  0  0  0  0  0  0  0
  190.2820  177.6330  139.4220 C   0  0  0  0  0  1  0  0  0  0  0  0
  189.4480  178.4780  137.3730 O   0  0  0  0  0  0  0  0  0  0  0  0
  183.9970  179.0020  145.7860 C   0  0  0  0  0  2  0  0  0  0  0  0
  187.1000  178.1620  147.7190 C   0  0  0  0  0  2  0  0  0  0  0  0
  186.1810  178.4570  144.9340 C   0  0  0  0  0  2  0  0  0  0  0  0
  190.1130  176.9130  145.7770 C   0  0  0  0  0  0  0  0  0  0  0  0
  189.2750  177.3080  146.8290 C   0  0  0  0  0  3  0  0  0  0  0  0
  187.9940  177.8030  146.5680 C   0  0  0  0  0  0  0  0  0  0  0  0
  188.3690  177.4950  144.1890 C   0  0  0  0  0  3  0  0  0  0  0  0
  187.5310  177.8750  145.2400 C   0  0  0  0  0  0  0  0  0  0  0  0
  189.6520  177.0110  144.4560 C   0  0  0  0  0  3  0  0  0  0  0  0
  185.2850  178.3610  146.0900 N   0  0  0  0  0  0  0  0  0  0  0  0
  185.9070  178.9940  147.2550 C   0  0  0  0  0  2  0  0  0  0  0  0
  191.4630  176.3990  146.0620 C   0  0  0  0  0  0  0  0  0  0  0  0
  192.0550  175.6640  145.2280 O   0  0  0  0  0  0  0  0  0  0  0  0
  192.0980  176.7210  147.2550 O   0  0  0  0  0  1  0  0  0  0  0  0
  1  5  1  6  0  0  0
  2 15  1  0  0  0  0
  3 15  2  0  0  0  0
  3  9  1  0  0  0  0
  4 21  1  0  0  0  0
  5  4  2  0  0  0  0
  6  8  2  0  0  0  0
  7  6  1  0  0  0  0
  8  4  1  0  0  0  0
  9 10  2  0  0  0  0
 10  1  1  0  0  0  0
 10  6  1  0  0  0  0
 11  9  1  0  0  0  0
 12  2  2  0  0  0  0
 12 13  1  0  0  0  0
 13 14  2  0  0  0  0
 14 16  1  0  0  0  0
 15 17  1  0  0  0  0
 17 16  2  0  0  0  0
 17  1  1  0  0  0  0
 18 13  1  0  0  0  0
 18 19  1  0  0  0  0
 20 18  2  0  0  0  0
 21 30  1  0  0  0  0
 23 28  1  0  0  0  0
 23 30  1  0  0  0  0
 24 32  1  0  0  0  0
 24 25  1  0  0  0  0
 26 25  2  0  0  0  0
 26 22  1  0  0  0  0
 27 29  1  0  0  0  0
 27 28  2  0  0  0  0
 28 26  1  0  0  0  0
 29 24  2  0  0  0  0
 30 31  1  0  0  0  0
 31 22  1  0  0  0  0
 32 34  1  0  0  0  0
 33 32  2  0  0  0  0
M  END
>  <MODEL>
5

>  <REMARK>
 VINA RESULT:     -11.0      2.455      7.189
  Name = 
  4 active torsions:
  status: ('A' for Active; 'I' for Inactive)
    1  A    between atoms: C_3  and  C_25
    2  A    between atoms: C_7  and  C_11
    3  A    between atoms: C_8  and  C_18
    4  A    between atoms: C_18  and  N_30
                            x       y       z     vdW  Elec       q    Type
                         _______ _______ _______ _____ _____    ______ ____

>  <TORSDO>
F 4

$$$$
=
 OpenBabel10262423113D

 34 38  0  0  0  0  0  0  0  0999 V2000
  187.6240  177.9330  143.2460 C   0  0  0  0  0  0  0  0  0  0  0  0
  187.9810  177.3920  146.9020 C   0  0  0  0  0  3  0  0  0  0  0  0
  186.1710  177.9480  145.6240 C   0  0  0  0  0  3  0  0  0  0  0  0
  187.6960  178.3540  140.7430 C   0  0  0  0  0  0  0  0  0  0  0  0
  188.4180  177.8480  141.9540 C   0  0  0  0  0  2  0  0  0  0  0  0
  185.6370  178.5690  142.0430 C   0  0  0  0  0  0  0  0  0  0  0  0
  184.2800  178.8660  141.9690 O   0  0  0  0  0  1  0  0  0  0  0  0
  186.3990  178.6380  140.7880 C   0  0  0  0  0  3  0  0  0  0  0  0
  185.5210  178.2460  144.4340 C   0  0  0  0  0  0  0  0  0  0  0  0
  186.2370  178.2540  143.2180 C   0  0  0  0  0  0  0  0  0  0  0  0
  184.1630  178.5380  144.4960 O   0  0  0  0  0  1  0  0  0  0  0  0
  189.3080  177.0380  147.4100 C   0  0  0  0  0  3  0  0  0  0  0  0
  190.4560  176.8640  146.7600 C   0  0  0  0  0  0  0  0  0  0  0  0
  190.6170  177.0040  145.3110 C   0  0  0  0  0  3  0  0  0  0  0  0
  187.5290  177.6460  145.6740 C   0  0  0  0  0  0  0  0  0  0  0  0
  189.7220  177.3180  144.3810 C   0  0  0  0  0  3  0  0  0  0  0  0
  188.2780  177.6310  144.4720 C   0  0  0  0  0  0  0  0  0  0  0  0
  191.6610  176.5030  147.5420 C   0  0  0  0  0  0  0  0  0  0  0  0
  192.4300  175.2530  147.2640 C   0  0  0  0  0  1  0  0  0  0  0  0
  192.0620  177.2580  148.4690 O   0  0  0  0  0  0  0  0  0  0  0  0
  188.4360  178.4110  139.4320 C   0  0  0  0  0  2  0  0  0  0  0  0
  190.5920  175.6280  138.1370 C   0  0  0  0  0  2  0  0  0  0  0  0
  187.9240  176.8070  137.7120 C   0  0  0  0  0  2  0  0  0  0  0  0
  189.0170  173.1320  135.7490 C   0  0  0  0  0  0  0  0  0  0  0  0
  189.9430  173.7900  136.5700 C   0  0  0  0  0  3  0  0  0  0  0  0
  189.5970  174.9790  137.2180 C   0  0  0  0  0  0  0  0  0  0  0  0
  187.3780  174.8550  136.2420 C   0  0  0  0  0  3  0  0  0  0  0  0
  188.2980  175.5020  137.0710 C   0  0  0  0  0  0  0  0  0  0  0  0
  187.7330  173.6730  135.5890 C   0  0  0  0  0  3  0  0  0  0  0  0
  188.7760  177.0960  138.8700 N   0  0  0  0  0  0  0  0  0  0  0  0
  190.1850  177.0610  138.4700 C   0  0  0  0  0  2  0  0  0  0  0  0
  189.3940  171.8840  135.0650 C   0  0  0  0  0  0  0  0  0  0  0  0
  188.5310  170.9940  134.8400 O   0  0  0  0  0  1  0  0  0  0  0  0
  190.7070  171.6760  134.6600 O   0  0  0  0  0  0  0  0  0  0  0  0
  1 17  2  0  0  0  0
  2 12  1  0  0  0  0
  3 15  1  0  0  0  0
  4  8  2  0  0  0  0
  4  5  1  0  0  0  0
  5  1  1  0  0  0  0
  6 10  2  0  0  0  0
  7  6  1  0  0  0  0
  8  6  1  0  0  0  0
  9 11  1  0  0  0  0
  9  3  2  0  0  0  0
 10  1  1  0  0  0  0
 10  9  1  0  0  0  0
 13 12  2  0  0  0  0
 13 18  1  0  0  0  0
 14 13  1  0  0  0  0
 15  2  2  0  0  0  0
 16 17  1  0  0  0  0
 16 14  2  0  0  0  0
 17 15  1  0  0  0  0
 18 20  2  0  0  0  0
 19 18  1  0  0  0  0
 21  4  1  0  0  0  0
 22 31  1  0  0  0  0
 23 30  1  0  0  0  0
 24 25  1  0  0  0  0
 25 26  2  0  0  0  0
 26 22  1  0  0  0  0
 27 28  2  0  0  0  0
 28 26  1  0  0  0  0
 28 23  1  0  0  0  0
 29 24  2  0  0  0  0
 29 27  1  0  0  0  0
 30 21  1  0  0  0  0
 31 30  1  0  0  0  0
 32 24  1  0  0  0  0
 33 32  1  0  0  0  0
 34 32  2  0  0  0  0
M  END
>  <MODEL>
6

>  <REMARK>
 VINA RESULT:     -11.0      2.207      2.731
  Name = 
  4 active torsions:
  status: ('A' for Active; 'I' for Inactive)
    1  A    between atoms: C_3  and  C_25
    2  A    between atoms: C_7  and  C_11
    3  A    between atoms: C_8  and  C_18
    4  A    between atoms: C_18  and  N_30
                            x       y       z     vdW  Elec       q    Type
                         _______ _______ _______ _____ _____    ______ ____

>  <TORSDO>
F 4

$$$$
=
 OpenBabel10262423113D

 34 38  0  0  1  0  0  0  0  0999 V2000
  188.9850  177.5950  144.3410 C   0  0  1  0  0  3  0  0  0  0  0  0
  191.2920  177.1310  141.4680 C   0  0  0  0  0  3  0  0  0  0  0  0
  191.5570  176.7320  143.7020 C   0  0  0  0  0  3  0  0  0  0  0  0
  187.2500  178.1200  146.1190 C   0  0  0  0  0  0  0  0  0  0  0  0
  187.5560  178.0010  144.6580 C   0  0  0  0  0  3  0  0  0  0  0  0
  189.4340  177.1680  146.6690 C   0  0  0  0  0  0  0  0  0  0  0  0
  190.2420  176.7210  147.7080 O   0  0  0  0  0  1  0  0  0  0  0  0
  188.1090  177.6870  147.0360 C   0  0  0  0  0  3  0  0  0  0  0  0
  191.1480  176.7100  145.0280 C   0  0  0  0  0  0  0  0  0  0  0  0
  189.8530  177.1500  145.3780 C   0  0  0  0  0  0  0  0  0  0  0  0
  192.0560  176.2500  145.9770 O   0  0  0  0  0  1  0  0  0  0  0  0
  190.8000  177.4930  140.1370 C   0  0  0  0  0  3  0  0  0  0  0  0
  189.6170  177.9730  139.7620 C   0  0  0  0  0  0  0  0  0  0  0  0
  188.5070  178.2500  140.6770 C   0  0  0  0  0  3  0  0  0  0  0  0
  190.7280  177.1770  142.6760 C   0  0  0  0  0  0  0  0  0  0  0  0
  188.4320  178.1010  141.9950 C   0  0  0  0  0  3  0  0  0  0  0  0
  189.4170  177.6150  142.9870 C   0  0  0  0  0  0  0  0  0  0  0  0
  189.3930  178.2500  138.3240 C   0  0  0  0  0  0  0  0  0  0  0  0
  189.7830  177.2700  137.2670 C   0  0  0  0  0  1  0  0  0  0  0  0
  188.8620  179.3360  137.9660 O   0  0  0  0  0  0  0  0  0  0  0  0
  185.8910  178.6190  146.5350 C   0  0  0  0  0  2  0  0  0  0  0  0
  182.6600  179.1970  144.7180 C   0  0  0  0  0  2  0  0  0  0  0  0
  185.3770  178.1630  144.2280 C   0  0  0  0  0  2  0  0  0  0  0  0
  182.6370  178.7210  140.9520 C   0  0  0  0  0  0  0  0  0  0  0  0
  182.2280  179.0020  142.2630 C   0  0  0  0  0  3  0  0  0  0  0  0
  183.1110  178.8320  143.3330 C   0  0  0  0  0  0  0  0  0  0  0  0
  184.8370  178.1140  141.7840 C   0  0  0  0  0  3  0  0  0  0  0  0
  184.4310  178.4070  143.0890 C   0  0  0  0  0  0  0  0  0  0  0  0
  183.9460  178.2760  140.7200 C   0  0  0  0  0  3  0  0  0  0  0  0
  184.9920  178.9330  145.4150 N   0  0  0  0  0  0  0  0  0  0  0  0
  183.6050  178.6290  145.7750 C   0  0  0  0  0  2  0  0  0  0  0  0
  181.6970  178.8970  139.8330 C   0  0  0  0  0  0  0  0  0  0  0  0
  180.5240  178.4430  139.9070 O   0  0  0  0  0  1  0  0  0  0  0  0
  182.0950  179.5680  138.6830 O   0  0  0  0  0  0  0  0  0  0  0  0
  1  5  1  6  0  0  0
  1 10  1  0  0  0  0
  2 15  1  0  0  0  0
  3  9  1  0  0  0  0
  4 21  1  0  0  0  0
  4  8  1  0  0  0  0
  5  4  2  0  0  0  0
  6  8  2  0  0  0  0
  6  7  1  0  0  0  0
  9 10  2  0  0  0  0
  9 11  1  0  0  0  0
 10  6  1  0  0  0  0
 12  2  2  0  0  0  0
 13 12  1  0  0  0  0
 13 14  2  0  0  0  0
 14 16  1  0  0  0  0
 15 17  1  0  0  0  0
 15  3  2  0  0  0  0
 16 17  2  0  0  0  0
 17  1  1  0  0  0  0
 18 13  1  0  0  0  0
 19 18  1  0  0  0  0
 20 18  2  0  0  0  0
 22 31  1  0  0  0  0
 23 30  1  0  0  0  0
 24 25  1  0  0  0  0
 25 26  2  0  0  0  0
 26 22  1  0  0  0  0
 27 28  2  0  0  0  0
 28 26  1  0  0  0  0
 28 23  1  0  0  0  0
 29 24  2  0  0  0  0
 29 27  1  0  0  0  0
 30 31  1  0  0  0  0
 30 21  1  0  0  0  0
 32 33  1  0  0  0  0
 32 24  1  0  0  0  0
 34 32  2  0  0  0  0
M  END
>  <MODEL>
7

>  <REMARK>
 VINA RESULT:     -10.6      2.738      7.908
  Name = 
  4 active torsions:
  status: ('A' for Active; 'I' for Inactive)
    1  A    between atoms: C_3  and  C_25
    2  A    between atoms: C_7  and  C_11
    3  A    between atoms: C_8  and  C_18
    4  A    between atoms: C_18  and  N_30
                            x       y       z     vdW  Elec       q    Type
                         _______ _______ _______ _____ _____    ______ ____

>  <TORSDO>
F 4

$$$$
=
 OpenBabel10262423113D

 34 38  0  0  0  0  0  0  0  0999 V2000
  185.8990  178.3130  143.3640 C   0  0  0  0  0  0  0  0  0  0  0  0
  187.4390  177.7930  146.7030 C   0  0  0  0  0  3  0  0  0  0  0  0
  185.3140  178.3620  146.0880 C   0  0  0  0  0  3  0  0  0  0  0  0
  185.1450  178.7150  140.9730 C   0  0  0  0  0  0  0  0  0  0  0  0
  186.2220  178.2100  141.8830 C   0  0  0  0  0  2  0  0  0  0  0  0
  183.6320  178.9640  142.8780 C   0  0  0  0  0  0  0  0  0  0  0  0
  182.3300  179.2760  143.2530 O   0  0  0  0  0  1  0  0  0  0  0  0
  183.9380  179.0150  141.4410 C   0  0  0  0  0  3  0  0  0  0  0  0
  184.3100  178.6590  145.1760 C   0  0  0  0  0  0  0  0  0  0  0  0
  184.5840  178.6490  143.7910 C   0  0  0  0  0  0  0  0  0  0  0  0
  183.0510  178.9670  145.6800 O   0  0  0  0  0  1  0  0  0  0  0  0
  188.8570  177.4270  146.7480 C   0  0  0  0  0  3  0  0  0  0  0  0
  189.7240  177.2350  145.7570 C   0  0  0  0  0  0  0  0  0  0  0  0
  189.3980  177.3630  144.3340 C   0  0  0  0  0  3  0  0  0  0  0  0
  186.6090  178.0440  145.6900 C   0  0  0  0  0  0  0  0  0  0  0  0
  188.2490  177.6810  143.7490 C   0  0  0  0  0  3  0  0  0  0  0  0
  186.9190  178.0120  144.3080 C   0  0  0  0  0  0  0  0  0  0  0  0
  191.1160  176.8650  146.1010 C   0  0  0  0  0  0  0  0  0  0  0  0
  191.4400  176.0970  147.3400 C   0  0  0  0  0  1  0  0  0  0  0  0
  192.0640  177.2000  145.3410 O   0  0  0  0  0  0  0  0  0  0  0  0
  185.4110  178.7550  139.4910 C   0  0  0  0  0  2  0  0  0  0  0  0
  188.4010  178.0820  137.3290 C   0  0  0  0  0  2  0  0  0  0  0  0
  187.5360  177.8270  140.1350 C   0  0  0  0  0  2  0  0  0  0  0  0
  191.6310  177.0600  139.0420 C   0  0  0  0  0  0  0  0  0  0  0  0
  190.6950  177.4020  138.0570 C   0  0  0  0  0  3  0  0  0  0  0  0
  189.3660  177.6610  138.4000 C   0  0  0  0  0  0  0  0  0  0  0  0
  189.8990  177.2550  140.7340 C   0  0  0  0  0  3  0  0  0  0  0  0
  188.9710  177.6090  139.7510 C   0  0  0  0  0  0  0  0  0  0  0  0
  191.2240  176.9870  140.3820 C   0  0  0  0  0  3  0  0  0  0  0  0
  186.8280  178.6190  139.1250 N   0  0  0  0  0  0  0  0  0  0  0  0
  186.9570  177.9810  137.8130 C   0  0  0  0  0  2  0  0  0  0  0  0
  193.0280  176.7830  138.6690 C   0  0  0  0  0  0  0  0  0  0  0  0
  193.9260  176.7290  139.5510 O   0  0  0  0  0  1  0  0  0  0  0  0
  193.3700  176.5770  137.3380 O   0  0  0  0  0  0  0  0  0  0  0  0
  1 10  1  0  0  0  0
  1 17  2  0  0  0  0
  2 12  1  0  0  0  0
  4  8  2  0  0  0  0
  4  5  1  0  0  0  0
  5  1  1  0  0  0  0
  6  7  1  0  0  0  0
  6 10  2  0  0  0  0
  8  6  1  0  0  0  0
  9 11  1  0  0  0  0
  9  3  2  0  0  0  0
 10  9  1  0  0  0  0
 13 18  1  0  0  0  0
 13 12  2  0  0  0  0
 14 13  1  0  0  0  0
 15  3  1  0  0  0  0
 15  2  2  0  0  0  0
 16 17  1  0  0  0  0
 16 14  2  0  0  0  0
 17 15  1  0  0  0  0
 18 19  1  0  0  0  0
 20 18  2  0  0  0  0
 21  4  1  0  0  0  0
 22 31  1  0  0  0  0
 22 26  1  0  0  0  0
 24 29  1  0  0  0  0
 25 26  1  0  0  0  0
 25 24  2  0  0  0  0
 26 28  2  0  0  0  0
 28 23  1  0  0  0  0
 28 27  1  0  0  0  0
 29 27  2  0  0  0  0
 30 21  1  0  0  0  0
 30 23  1  0  0  0  0
 31 30  1  0  0  0  0
 32 24  1  0  0  0  0
 32 33  1  0  0  0  0
 34 32  2  0  0  0  0
M  END
>  <MODEL>
8

>  <REMARK>
 VINA RESULT:     -10.6      1.197      1.844
  Name = 
  4 active torsions:
  status: ('A' for Active; 'I' for Inactive)
    1  A    between atoms: C_3  and  C_25
    2  A    between atoms: C_7  and  C_11
    3  A    between atoms: C_8  and  C_18
    4  A    between atoms: C_18  and  N_30
                            x       y       z     vdW  Elec       q    Type
                         _______ _______ _______ _____ _____    ______ ____

>  <TORSDO>
F 4

$$$$
=
 OpenBabel10262423113D

 34 38  0  0  0  0  0  0  0  0999 V2000
  185.0190  178.4600  142.9360 C   0  0  0  0  0  0  0  0  0  0  0  0
  185.3520  178.2770  146.6300 C   0  0  0  0  0  3  0  0  0  0  0  0
  183.5350  178.6190  145.2890 C   0  0  0  0  0  3  0  0  0  0  0  0
  185.1060  178.6520  140.4060 C   0  0  0  0  0  0  0  0  0  0  0  0
  185.8350  178.2980  141.6650 C   0  0  0  0  0  2  0  0  0  0  0  0
  183.0200  178.8790  141.6610 C   0  0  0  0  0  0  0  0  0  0  0  0
  181.6510  179.0970  141.5480 O   0  0  0  0  0  1  0  0  0  0  0  0
  183.7950  178.8720  140.4130 C   0  0  0  0  0  3  0  0  0  0  0  0
  182.8880  178.7720  144.0710 C   0  0  0  0  0  0  0  0  0  0  0  0
  183.6190  178.7050  142.8660 C   0  0  0  0  0  0  0  0  0  0  0  0
  181.5150  178.9970  144.0930 O   0  0  0  0  0  1  0  0  0  0  0  0
  186.6890  178.0410  147.1810 C   0  0  0  0  0  3  0  0  0  0  0  0
  187.8530  177.8670  146.5610 C   0  0  0  0  0  0  0  0  0  0  0  0
  188.0270  177.8820  145.1060 C   0  0  0  0  0  3  0  0  0  0  0  0
  184.9050  178.3940  145.3800 C   0  0  0  0  0  0  0  0  0  0  0  0
  187.1300  178.0620  144.1430 C   0  0  0  0  0  3  0  0  0  0  0  0
  185.6710  178.3070  144.1910 C   0  0  0  0  0  0  0  0  0  0  0  0
  189.0640  177.6430  147.3830 C   0  0  0  0  0  0  0  0  0  0  0  0
  190.2290  176.8650  146.8670 C   0  0  0  0  0  1  0  0  0  0  0  0
  189.1290  178.1120  148.5510 O   0  0  0  0  0  0  0  0  0  0  0  0
  185.8600  178.6270  139.1020 C   0  0  0  0  0  2  0  0  0  0  0  0
  189.3010  177.7500  140.3110 C   0  0  0  0  0  2  0  0  0  0  0  0
  187.7290  177.8210  137.8180 C   0  0  0  0  0  2  0  0  0  0  0  0
  191.6610  176.0630  137.8620 C   0  0  0  0  0  0  0  0  0  0  0  0
  191.1350  176.6340  139.0290 C   0  0  0  0  0  3  0  0  0  0  0  0
  189.8570  177.1990  139.0300 C   0  0  0  0  0  0  0  0  0  0  0  0
  189.6070  176.6120  136.6870 C   0  0  0  0  0  3  0  0  0  0  0  0
  189.0800  177.1680  137.8560 C   0  0  0  0  0  0  0  0  0  0  0  0
  190.8890  176.0570  136.6910 C   0  0  0  0  0  3  0  0  0  0  0  0
  187.1470  177.9200  139.1600 N   0  0  0  0  0  0  0  0  0  0  0  0
  188.0740  178.6210  140.0520 C   0  0  0  0  0  2  0  0  0  0  0  0
  193.0100  175.4760  137.8710 C   0  0  0  0  0  0  0  0  0  0  0  0
  194.0170  176.1920  138.1200 O   0  0  0  0  0  1  0  0  0  0  0  0
  193.1880  174.1240  137.6060 O   0  0  0  0  0  0  0  0  0  0  0  0
  1 17  2  0  0  0  0
  2 12  1  0  0  0  0
  3 15  1  0  0  0  0
  4  8  2  0  0  0  0
  4  5  1  0  0  0  0
  5  1  1  0  0  0  0
  6 10  2  0  0  0  0
  7  6  1  0  0  0  0
  8  6  1  0  0  0  0
  9 11  1  0  0  0  0
  9  3  2  0  0  0  0
 10  1  1  0  0  0  0
 10  9  1  0  0  0  0
 13 12  2  0  0  0  0
 13 18  1  0  0  0  0
 14 13  1  0  0  0  0
 15  2  2  0  0  0  0
 16 17  1  0  0  0  0
 16 14  2  0  0  0  0
 17 15  1  0  0  0  0
 18 20  2  0  0  0  0
 19 18  1  0  0  0  0
 21 30  1  0  0  0  0
 21  4  1  0  0  0  0
 23 28  1  0  0  0  0
 23 30  1  0  0  0  0
 24 32  1  0  0  0  0
 24 25  1  0  0  0  0
 25 26  2  0  0  0  0
 26 22  1  0  0  0  0
 27 29  1  0  0  0  0
 27 28  2  0  0  0  0
 28 26  1  0  0  0  0
 29 24  2  0  0  0  0
 30 31  1  0  0  0  0
 31 22  1  0  0  0  0
 32 33  1  0  0  0  0
 34 32  2  0  0  0  0
M  END
>  <MODEL>
9

>  <REMARK>
 VINA RESULT:     -10.6      1.175      1.937
  Name = 
  4 active torsions:
  status: ('A' for Active; 'I' for Inactive)
    1  A    between atoms: C_3  and  C_25
    2  A    between atoms: C_7  and  C_11
    3  A    between atoms: C_8  and  C_18
    4  A    between atoms: C_18  and  N_30
                            x       y       z     vdW  Elec       q    Type
                         _______ _______ _______ _____ _____    ______ ____

>  <TORSDO>
F 4

$$$$
