=
 OpenBabel10262420543D

 28 32  0  0  1  0  0  0  0  0999 V2000
  190.7420  176.3290  143.5780 C   0  0  1  0  0  3  0  0  0  0  0  0
  185.7450  177.5810  143.6580 C   0  0  0  0  0  3  0  0  0  0  0  0
  189.9810  178.0200  148.0030 C   0  0  0  0  0  1  0  0  0  0  0  0
  185.3250  178.5120  145.9040 C   0  0  2  0  0  3  0  0  0  0  0  0
  187.5360  177.1840  145.3210 C   0  0  1  0  0  3  0  0  0  0  0  0
  184.0300  179.3470  143.9070 C   0  0  0  0  0  0  0  0  0  0  0  0
  186.2300  177.8220  144.8880 C   0  0  0  0  0  0  0  0  0  0  0  0
  187.1190  178.0320  147.6150 C   0  0  0  0  0  2  0  0  0  0  0  0
  184.5610  179.6830  145.2750 C   0  0  0  0  0  2  0  0  0  0  0  0
  190.3450  177.0570  145.8820 C   0  0  2  0  0  3  0  0  0  0  0  0
  188.5760  177.1620  144.2180 C   0  0  0  0  0  2  0  0  0  0  0  0
  186.0630  179.0190  147.1430 C   0  0  0  0  0  2  0  0  0  0  0  0
  191.9640  175.1170  145.4310 C   0  0  0  0  0  2  0  0  0  0  0  0
  188.1660  177.9010  146.5120 C   0  0  1  0  0  3  0  0  0  0  0  0
  191.5770  176.2570  146.3690 C   0  0  0  0  0  2  0  0  0  0  0  0
  183.2920  180.1350  143.3380 O   0  0  0  0  0  0  0  0  0  0  0  0
  184.3730  178.0430  143.2470 C   0  0  0  0  0  2  0  0  0  0  0  0
  189.3610  177.1810  146.9790 N   0  0  0  0  0  0  0  0  0  0  0  0
  192.0410  175.6280  143.9990 C   0  0  0  0  0  2  0  0  0  0  0  0
  189.7540  176.4280  144.6770 N   0  0  1  0  0  0  0  0  0  0  0  0
  191.0230  177.6400  142.8100 C   0  0  0  0  0  2  0  0  0  0  0  0
  190.7420  177.5650  141.3430 C   0  0  0  0  0  0  0  0  0  0  0  0
  190.2240  177.3890  138.5970 C   0  0  0  0  0  0  0  0  0  0  0  0
  189.4640  177.8560  140.8490 C   0  0  0  0  0  3  0  0  0  0  0  0
  191.7610  177.1950  140.4580 C   0  0  0  0  0  3  0  0  0  0  0  0
  191.5020  177.1040  139.0870 C   0  0  0  0  0  3  0  0  0  0  0  0
  189.9600  177.2960  137.2030 N   0  0  0  0  0  1  0  0  0  0  0  0
  189.2060  177.7670  139.4780 C   0  0  0  0  0  3  0  0  0  0  0  0
  1 21  1  1  0  0  0
  1 19  1  0  0  0  0
  1 20  1  0  0  0  0
  2  7  2  0  0  0  0
  4  9  1  6  0  0  0
  4 12  1  0  0  0  0
  5 11  1  6  0  0  0
  5 14  1  0  0  0  0
  6  9  1  0  0  0  0
  7  5  1  0  0  0  0
  7  4  1  0  0  0  0
 10 15  1  1  0  0  0
 10 18  1  0  0  0  0
 12  8  1  0  0  0  0
 13 15  1  0  0  0  0
 14 18  1  0  0  0  0
 14  8  1  1  0  0  0
 16  6  2  0  0  0  0
 17  2  1  0  0  0  0
 17  6  1  0  0  0  0
 18  3  1  0  0  0  0
 19 13  1  0  0  0  0
 20 11  1  6  0  0  0
 20 10  1  0  0  0  0
 22 21  1  0  0  0  0
 23 26  2  0  0  0  0
 23 28  1  0  0  0  0
 24 22  1  0  0  0  0
 25 22  2  0  0  0  0
 26 25  1  0  0  0  0
 27 23  1  0  0  0  0
 28 24  2  0  0  0  0
M  END
>  <MODEL>
1

>  <REMARK>
 VINA RESULT:      -8.8      0.000      0.000
  Name = 
  2 active torsions:
  status: ('A' for Active; 'I' for Inactive)
    1  A    between atoms: C_1  and  C_2
    2  A    between atoms: C_2  and  C_3
                            x       y       z     vdW  Elec       q    Type
                         _______ _______ _______ _____ _____    ______ ____

>  <TORSDO>
F 2

$$$$
=
 OpenBabel10262420543D

 28 32  0  0  1  0  0  0  0  0999 V2000
  189.4020  177.7570  142.0810 C   0  0  1  0  0  3  0  0  0  0  0  0
  185.2270  178.9520  139.3080 C   0  0  0  0  0  3  0  0  0  0  0  0
  190.0850  175.5880  137.8560 C   0  0  0  0  0  1  0  0  0  0  0  0
  185.5130  177.8040  137.1420 C   0  0  2  0  0  3  0  0  0  0  0  0
  187.4990  178.0700  138.8670 C   0  0  1  0  0  3  0  0  0  0  0  0
  183.2110  178.1640  138.1100 C   0  0  0  0  0  0  0  0  0  0  0  0
  186.0330  178.2260  138.5130 C   0  0  0  0  0  0  0  0  0  0  0  0
  187.8520  176.9810  136.6670 C   0  0  0  0  0  2  0  0  0  0  0  0
  184.0660  177.3040  137.2180 C   0  0  0  0  0  2  0  0  0  0  0  0
  189.8360  176.7590  139.8880 C   0  0  2  0  0  3  0  0  0  0  0  0
  187.7300  177.8800  140.3540 C   0  0  0  0  0  2  0  0  0  0  0  0
  186.3660  176.7330  136.4620 C   0  0  0  0  0  2  0  0  0  0  0  0
  191.7780  177.7870  141.2130 C   0  0  0  0  0  2  0  0  0  0  0  0
  188.1440  176.8800  138.1610 C   0  0  1  0  0  3  0  0  0  0  0  0
  191.3580  176.7620  140.1640 C   0  0  0  0  0  2  0  0  0  0  0  0
  182.0090  177.9650  138.1650 O   0  0  0  0  0  0  0  0  0  0  0  0
  183.8150  179.2840  138.9080 C   0  0  0  0  0  2  0  0  0  0  0  0
  189.5900  176.8370  138.4310 N   0  0  0  0  0  0  0  0  0  0  0  0
  190.8900  177.6610  142.4440 C   0  0  0  0  0  2  0  0  0  0  0  0
  189.1670  177.8590  140.6210 N   0  0  1  0  0  0  0  0  0  0  0  0
  188.5630  176.6920  142.8220 C   0  0  0  0  0  2  0  0  0  0  0  0
  187.7250  177.2360  143.9350 C   0  0  0  0  0  0  0  0  0  0  0  0
  186.1800  178.2810  146.0230 C   0  0  0  0  0  0  0  0  0  0  0  0
  186.4290  177.7050  143.6840 C   0  0  0  0  0  3  0  0  0  0  0  0
  188.2410  177.2840  145.2350 C   0  0  0  0  0  3  0  0  0  0  0  0
  187.4710  177.8080  146.2770 C   0  0  0  0  0  3  0  0  0  0  0  0
  185.3970  178.8140  147.0840 N   0  0  0  0  0  1  0  0  0  0  0  0
  185.6580  178.2270  144.7270 C   0  0  0  0  0  3  0  0  0  0  0  0
  1 19  1  0  0  0  0
  1 21  1  6  0  0  0
  3 18  1  0  0  0  0
  4 12  1  1  0  0  0
  4  9  1  0  0  0  0
  4  7  1  0  0  0  0
  5 11  1  1  0  0  0
  6 16  2  0  0  0  0
  6 17  1  0  0  0  0
  7  5  1  0  0  0  0
  7  2  2  0  0  0  0
  9  6  1  0  0  0  0
 10 15  1  6  0  0  0
 10 20  1  0  0  0  0
 12  8  1  0  0  0  0
 13 19  1  0  0  0  0
 14  8  1  6  0  0  0
 14 18  1  0  0  0  0
 14  5  1  0  0  0  0
 15 13  1  0  0  0  0
 17  2  1  0  0  0  0
 18 10  1  0  0  0  0
 20 11  1  1  0  0  0
 20  1  1  0  0  0  0
 21 22  1  0  0  0  0
 22 25  1  0  0  0  0
 23 26  1  0  0  0  0
 23 27  1  0  0  0  0
 24 22  2  0  0  0  0
 24 28  1  0  0  0  0
 25 26  2  0  0  0  0
 28 23  2  0  0  0  0
M  END
>  <MODEL>
2

>  <REMARK>
 VINA RESULT:      -8.8      2.961      6.974
  Name = 
  2 active torsions:
  status: ('A' for Active; 'I' for Inactive)
    1  A    between atoms: C_1  and  C_2
    2  A    between atoms: C_2  and  C_3
                            x       y       z     vdW  Elec       q    Type
                         _______ _______ _______ _____ _____    ______ ____

>  <TORSDO>
F 2

$$$$
=
 OpenBabel10262420543D

 28 32  0  0  1  0  0  0  0  0999 V2000
  190.5840  177.3980  141.4250 C   0  0  1  0  0  3  0  0  0  0  0  0
  185.8140  178.7770  140.0470 C   0  0  0  0  0  3  0  0  0  0  0  0
  190.0400  175.6410  136.9940 C   0  0  0  0  0  1  0  0  0  0  0  0
  185.4730  177.8400  137.7910 C   0  0  2  0  0  3  0  0  0  0  0  0
  187.8640  177.9770  138.9110 C   0  0  1  0  0  3  0  0  0  0  0  0
  183.5360  178.0720  139.3900 C   0  0  0  0  0  0  0  0  0  0  0  0
  186.3590  178.1410  138.9950 C   0  0  0  0  0  0  0  0  0  0  0  0
  187.5790  177.1020  136.6080 C   0  0  0  0  0  2  0  0  0  0  0  0
  184.0990  177.3110  138.2190 C   0  0  0  0  0  2  0  0  0  0  0  0
  190.3790  176.6140  139.1140 C   0  0  2  0  0  3  0  0  0  0  0  0
  188.4980  177.6540  140.2500 C   0  0  0  0  0  2  0  0  0  0  0  0
  186.0920  176.8500  136.8030 C   0  0  0  0  0  2  0  0  0  0  0  0
  192.6240  177.5470  139.9370 C   0  0  0  0  0  2  0  0  0  0  0  0
  188.2740  176.8680  137.9460 C   0  0  1  0  0  3  0  0  0  0  0  0
  191.9180  176.6160  138.9550 C   0  0  0  0  0  2  0  0  0  0  0  0
  182.3940  177.8490  139.7590 O   0  0  0  0  0  0  0  0  0  0  0  0
  184.3500  179.1220  140.0890 C   0  0  0  0  0  2  0  0  0  0  0  0
  189.7370  176.8230  137.7980 N   0  0  0  0  0  0  0  0  0  0  0  0
  192.1130  177.2930  141.3480 C   0  0  0  0  0  2  0  0  0  0  0  0
  189.9520  177.6310  140.1040 N   0  0  1  0  0  0  0  0  0  0  0  0
  189.9730  176.2560  142.2670 C   0  0  0  0  0  2  0  0  0  0  0  0
  189.6520  176.6370  143.6780 C   0  0  0  0  0  0  0  0  0  0  0  0
  189.0290  177.3190  146.3200 C   0  0  0  0  0  0  0  0  0  0  0  0
  190.6550  176.6510  144.6550 C   0  0  0  0  0  3  0  0  0  0  0  0
  188.3390  176.9730  144.0250 C   0  0  0  0  0  3  0  0  0  0  0  0
  188.0270  177.3120  145.3450 C   0  0  0  0  0  3  0  0  0  0  0  0
  188.7110  177.6630  147.6630 N   0  0  0  0  0  1  0  0  0  0  0  0
  190.3440  176.9920  145.9740 C   0  0  0  0  0  3  0  0  0  0  0  0
  1 21  1  6  0  0  0
  2 17  1  0  0  0  0
  3 18  1  0  0  0  0
  4 12  1  6  0  0  0
  4  9  1  0  0  0  0
  4  7  1  0  0  0  0
  5  7  1  0  0  0  0
  5 11  1  1  0  0  0
  6 16  2  0  0  0  0
  6 17  1  0  0  0  0
  7  2  2  0  0  0  0
  8 12  1  0  0  0  0
  9  6  1  0  0  0  0
 10 15  1  6  0  0  0
 10 20  1  0  0  0  0
 13 19  1  0  0  0  0
 14  8  1  6  0  0  0
 14  5  1  0  0  0  0
 15 13  1  0  0  0  0
 18 14  1  0  0  0  0
 18 10  1  0  0  0  0
 19  1  1  0  0  0  0
 20 11  1  1  0  0  0
 20  1  1  0  0  0  0
 21 22  1  0  0  0  0
 22 25  2  0  0  0  0
 22 24  1  0  0  0  0
 23 27  1  0  0  0  0
 24 28  2  0  0  0  0
 25 26  1  0  0  0  0
 26 23  2  0  0  0  0
 28 23  1  0  0  0  0
M  END
>  <MODEL>
3

>  <REMARK>
 VINA RESULT:      -8.3      2.474      6.806
  Name = 
  2 active torsions:
  status: ('A' for Active; 'I' for Inactive)
    1  A    between atoms: C_1  and  C_2
    2  A    between atoms: C_2  and  C_3
                            x       y       z     vdW  Elec       q    Type
                         _______ _______ _______ _____ _____    ______ ____

>  <TORSDO>
F 2

$$$$
=
 OpenBabel10262420543D

 28 32  0  0  1  0  0  0  0  0999 V2000
  188.9430  178.1880  139.6940 C   0  0  1  0  0  3  0  0  0  0  0  0
  185.7140  179.5730  143.4630 C   0  0  0  0  0  3  0  0  0  0  0  0
  184.5640  177.5770  137.8320 C   0  0  0  0  0  1  0  0  0  0  0  0
  183.4450  179.2170  142.5630 C   0  0  2  0  0  3  0  0  0  0  0  0
  185.5890  179.2140  141.0160 C   0  0  1  0  0  3  0  0  0  0  0  0
  183.9100  178.9170  145.0240 C   0  0  0  0  0  0  0  0  0  0  0  0
  184.9600  179.2580  142.3950 C   0  0  0  0  0  0  0  0  0  0  0  0
  183.3190  178.9340  140.0570 C   0  0  0  0  0  2  0  0  0  0  0  0
  183.0400  178.5140  143.8640 C   0  0  0  0  0  2  0  0  0  0  0  0
  186.7230  178.0020  138.6780 C   0  0  2  0  0  3  0  0  0  0  0  0
  186.9770  178.6030  141.0190 C   0  0  0  0  0  2  0  0  0  0  0  0
  182.7140  178.5490  141.3980 C   0  0  0  0  0  2  0  0  0  0  0  0
  188.6960  178.8330  137.2610 C   0  0  0  0  0  2  0  0  0  0  0  0
  184.7530  178.4120  140.0220 C   0  0  1  0  0  3  0  0  0  0  0  0
  187.3360  178.1400  137.2640 C   0  0  0  0  0  2  0  0  0  0  0  0
  183.6270  178.5380  146.1490 O   0  0  0  0  0  0  0  0  0  0  0  0
  185.1040  179.8050  144.8190 C   0  0  0  0  0  2  0  0  0  0  0  0
  185.3290  178.4980  138.6710 N   0  0  0  0  0  0  0  0  0  0  0  0
  189.6010  178.2000  138.3080 C   0  0  0  0  0  2  0  0  0  0  0  0
  187.5550  178.7070  139.6810 N   0  0  1  0  0  0  0  0  0  0  0  0
  189.1450  176.8350  140.4110 C   0  0  0  0  0  2  0  0  0  0  0  0
  189.8210  176.9390  141.7420 C   0  0  0  0  0  0  0  0  0  0  0  0
  191.0890  177.1710  144.2270 C   0  0  0  0  0  0  0  0  0  0  0  0
  189.1530  176.5520  142.9100 C   0  0  0  0  0  3  0  0  0  0  0  0
  191.1280  177.4340  141.8200 C   0  0  0  0  0  3  0  0  0  0  0  0
  191.7600  177.5520  143.0610 C   0  0  0  0  0  3  0  0  0  0  0  0
  191.7320  177.2920  145.4890 N   0  0  0  0  0  1  0  0  0  0  0  0
  189.7860  176.6680  144.1500 C   0  0  0  0  0  3  0  0  0  0  0  0
  1 21  1  6  0  0  0
  2 17  1  0  0  0  0
  3 18  1  0  0  0  0
  4 12  1  6  0  0  0
  4  9  1  0  0  0  0
  5 11  1  1  0  0  0
  5  7  1  0  0  0  0
  6 16  2  0  0  0  0
  7  4  1  0  0  0  0
  7  2  2  0  0  0  0
  8 12  1  0  0  0  0
  9  6  1  0  0  0  0
 10 15  1  6  0  0  0
 10 20  1  0  0  0  0
 13 15  1  0  0  0  0
 13 19  1  0  0  0  0
 14  8  1  6  0  0  0
 14  5  1  0  0  0  0
 17  6  1  0  0  0  0
 18 10  1  0  0  0  0
 18 14  1  0  0  0  0
 19  1  1  0  0  0  0
 20  1  1  0  0  0  0
 20 11  1  1  0  0  0
 21 22  1  0  0  0  0
 22 25  2  0  0  0  0
 22 24  1  0  0  0  0
 23 27  1  0  0  0  0
 24 28  2  0  0  0  0
 25 26  1  0  0  0  0
 26 23  2  0  0  0  0
 28 23  1  0  0  0  0
M  END
>  <MODEL>
4

>  <REMARK>
 VINA RESULT:      -8.3      2.433      6.011
  Name = 
  2 active torsions:
  status: ('A' for Active; 'I' for Inactive)
    1  A    between atoms: C_1  and  C_2
    2  A    between atoms: C_2  and  C_3
                            x       y       z     vdW  Elec       q    Type
                         _______ _______ _______ _____ _____    ______ ____

>  <TORSDO>
F 2

$$$$
=
 OpenBabel10262420543D

 28 32  0  0  1  0  0  0  0  0999 V2000
  184.5920  178.9510  142.1040 C   0  0  1  0  0  3  0  0  0  0  0  0
  188.2990  178.8390  138.5270 C   0  0  0  0  0  3  0  0  0  0  0  0
  188.2150  176.5860  144.1780 C   0  0  0  0  0  1  0  0  0  0  0  0
  190.1640  177.5780  139.5370 C   0  0  2  0  0  3  0  0  0  0  0  0
  188.1340  178.4780  140.9720 C   0  0  1  0  0  3  0  0  0  0  0  0
  189.7470  177.4820  137.0510 C   0  0  0  0  0  0  0  0  0  0  0  0
  188.7970  178.2470  139.6280 C   0  0  0  0  0  0  0  0  0  0  0  0
  190.0280  177.2850  142.0410 C   0  0  0  0  0  2  0  0  0  0  0  0
  190.3080  176.7610  138.2470 C   0  0  0  0  0  2  0  0  0  0  0  0
  186.4770  177.8650  143.2290 C   0  0  2  0  0  3  0  0  0  0  0  0
  186.6200  178.5000  140.8880 C   0  0  0  0  0  2  0  0  0  0  0  0
  190.4880  176.6750  140.7270 C   0  0  0  0  0  2  0  0  0  0  0  0
  184.9570  179.4510  144.5560 C   0  0  0  0  0  2  0  0  0  0  0  0
  188.5070  177.4080  141.9940 C   0  0  1  0  0  3  0  0  0  0  0  0
  185.9020  178.2550  144.6130 C   0  0  0  0  0  2  0  0  0  0  0  0
  189.9060  177.0110  135.9360 O   0  0  0  0  0  0  0  0  0  0  0  0
  189.0220  178.7870  137.2080 C   0  0  0  0  0  2  0  0  0  0  0  0
  187.9480  177.7350  143.3150 N   0  0  0  0  0  0  0  0  0  0  0  0
  183.9260  179.2450  143.4550 C   0  0  0  0  0  2  0  0  0  0  0  0
  186.0680  178.8450  142.1960 N   0  0  1  0  0  0  0  0  0  0  0  0
  183.8840  177.7990  141.3570 C   0  0  0  0  0  2  0  0  0  0  0  0
  182.9080  178.2500  140.3160 C   0  0  0  0  0  0  0  0  0  0  0  0
  181.0560  179.1020  138.3980 C   0  0  0  0  0  0  0  0  0  0  0  0
  183.2020  179.3450  139.4940 C   0  0  0  0  0  3  0  0  0  0  0  0
  181.6890  177.5780  140.1700 C   0  0  0  0  0  3  0  0  0  0  0  0
  180.7630  178.0040  139.2130 C   0  0  0  0  0  3  0  0  0  0  0  0
  180.1140  179.5360  137.4240 N   0  0  0  0  0  1  0  0  0  0  0  0
  182.2770  179.7700  138.5360 C   0  0  0  0  0  3  0  0  0  0  0  0
  1 21  1  1  0  0  0
  1 20  1  0  0  0  0
  1 19  1  0  0  0  0
  2  7  2  0  0  0  0
  4  9  1  6  0  0  0
  4  7  1  0  0  0  0
  4 12  1  0  0  0  0
  5 11  1  6  0  0  0
  5 14  1  0  0  0  0
  6 17  1  0  0  0  0
  6  9  1  0  0  0  0
  7  5  1  0  0  0  0
 10 18  1  0  0  0  0
 10 15  1  1  0  0  0
 12  8  1  0  0  0  0
 13 15  1  0  0  0  0
 14  8  1  1  0  0  0
 14 18  1  0  0  0  0
 16  6  2  0  0  0  0
 17  2  1  0  0  0  0
 18  3  1  0  0  0  0
 19 13  1  0  0  0  0
 20 11  1  6  0  0  0
 20 10  1  0  0  0  0
 22 21  1  0  0  0  0
 23 28  2  0  0  0  0
 23 26  1  0  0  0  0
 24 22  2  0  0  0  0
 25 22  1  0  0  0  0
 26 25  2  0  0  0  0
 27 23  1  0  0  0  0
 28 24  1  0  0  0  0
M  END
>  <MODEL>
5

>  <REMARK>
 VINA RESULT:      -8.3      3.867      7.503
  Name = 
  2 active torsions:
  status: ('A' for Active; 'I' for Inactive)
    1  A    between atoms: C_1  and  C_2
    2  A    between atoms: C_2  and  C_3
                            x       y       z     vdW  Elec       q    Type
                         _______ _______ _______ _____ _____    ______ ____

>  <TORSDO>
F 2

$$$$
=
 OpenBabel10262420543D

 28 32  0  0  1  0  0  0  0  0999 V2000
  182.3760  178.2510  139.4460 C   0  0  1  0  0  3  0  0  0  0  0  0
  186.7010  178.2470  142.2480 C   0  0  0  0  0  3  0  0  0  0  0  0
  180.8880  178.7160  143.9840 C   0  0  0  0  0  1  0  0  0  0  0  0
  185.9740  178.4260  144.5990 C   0  0  2  0  0  3  0  0  0  0  0  0
  184.3320  178.8920  142.5780 C   0  0  1  0  0  3  0  0  0  0  0  0
  188.0640  177.1500  143.9960 C   0  0  0  0  0  0  0  0  0  0  0  0
  185.6780  178.4300  143.1020 C   0  0  0  0  0  0  0  0  0  0  0  0
  183.5810  179.1640  144.9270 C   0  0  0  0  0  2  0  0  0  0  0  0
  186.9360  177.2950  144.9810 C   0  0  0  0  0  2  0  0  0  0  0  0
  181.6040  178.6290  141.7390 C   0  0  2  0  0  3  0  0  0  0  0  0
  183.9550  178.2380  141.2630 C   0  0  0  0  0  2  0  0  0  0  0  0
  184.7240  178.3230  145.4730 C   0  0  0  0  0  2  0  0  0  0  0  0
  180.4220  179.8180  139.7960 C   0  0  0  0  0  2  0  0  0  0  0  0
  183.1980  178.6050  143.5590 C   0  0  1  0  0  3  0  0  0  0  0  0
  180.2970  179.2720  141.2150 C   0  0  0  0  0  2  0  0  0  0  0  0
  188.9780  176.3780  144.2370 O   0  0  0  0  0  0  0  0  0  0  0  0
  188.0960  177.9650  142.7350 C   0  0  0  0  0  2  0  0  0  0  0  0
  181.9340  179.1770  143.0720 N   0  0  0  0  0  0  0  0  0  0  0  0
  181.0420  178.7650  138.8880 C   0  0  0  0  0  2  0  0  0  0  0  0
  182.7090  178.8240  140.7720 N   0  0  1  0  0  0  0  0  0  0  0  0
  182.4880  176.7140  139.3340 C   0  0  0  0  0  2  0  0  0  0  0  0
  183.4420  176.2430  138.2810 C   0  0  0  0  0  0  0  0  0  0  0  0
  185.2540  175.3740  136.3330 C   0  0  0  0  0  0  0  0  0  0  0  0
  183.5380  174.8810  137.9690 C   0  0  0  0  0  3  0  0  0  0  0  0
  184.2480  177.1680  137.6100 C   0  0  0  0  0  3  0  0  0  0  0  0
  185.1550  176.7340  136.6380 C   0  0  0  0  0  3  0  0  0  0  0  0
  186.1760  174.9320  135.3440 N   0  0  0  0  0  1  0  0  0  0  0  0
  184.4430  174.4480  136.9960 C   0  0  0  0  0  3  0  0  0  0  0  0
  1 21  1  1  0  0  0
  1 20  1  0  0  0  0
  2 17  1  0  0  0  0
  2  7  2  0  0  0  0
  4  9  1  6  0  0  0
  4 12  1  0  0  0  0
  5 11  1  6  0  0  0
  5  7  1  0  0  0  0
  5 14  1  0  0  0  0
  6 16  2  0  0  0  0
  6  9  1  0  0  0  0
  7  4  1  0  0  0  0
  8 12  1  0  0  0  0
 10 15  1  6  0  0  0
 10 18  1  0  0  0  0
 13 15  1  0  0  0  0
 14  8  1  1  0  0  0
 17  6  1  0  0  0  0
 18 14  1  0  0  0  0
 18  3  1  0  0  0  0
 19  1  1  0  0  0  0
 19 13  1  0  0  0  0
 20 11  1  1  0  0  0
 20 10  1  0  0  0  0
 22 21  1  0  0  0  0
 23 26  2  0  0  0  0
 23 28  1  0  0  0  0
 24 22  1  0  0  0  0
 25 22  2  0  0  0  0
 26 25  1  0  0  0  0
 27 23  1  0  0  0  0
 28 24  2  0  0  0  0
M  END
>  <MODEL>
6

>  <REMARK>
 VINA RESULT:      -8.1      4.475      7.473
  Name = 
  2 active torsions:
  status: ('A' for Active; 'I' for Inactive)
    1  A    between atoms: C_1  and  C_2
    2  A    between atoms: C_2  and  C_3
                            x       y       z     vdW  Elec       q    Type
                         _______ _______ _______ _____ _____    ______ ____

>  <TORSDO>
F 2

$$$$
=
 OpenBabel10262420543D

 28 32  0  0  1  0  0  0  0  0999 V2000
  189.4460  177.6510  138.0920 C   0  0  1  0  0  3  0  0  0  0  0  0
  189.4350  178.2520  143.2100 C   0  0  0  0  0  3  0  0  0  0  0  0
  184.8140  178.1120  139.2550 C   0  0  0  0  0  1  0  0  0  0  0  0
  187.0610  178.4350  143.8560 C   0  0  2  0  0  3  0  0  0  0  0  0
  187.8540  178.6310  141.3410 C   0  0  1  0  0  3  0  0  0  0  0  0
  188.7400  177.3870  145.4200 C   0  0  0  0  0  0  0  0  0  0  0  0
  188.1580  178.3480  142.8000 C   0  0  0  0  0  0  0  0  0  0  0  0
  185.4670  178.9030  141.9550 C   0  0  0  0  0  2  0  0  0  0  0  0
  187.2960  177.4380  144.9970 C   0  0  0  0  0  2  0  0  0  0  0  0
  187.0900  178.0230  138.6460 C   0  0  2  0  0  3  0  0  0  0  0  0
  188.7750  177.8900  140.3920 C   0  0  0  0  0  2  0  0  0  0  0  0
  185.6530  178.2200  143.3010 C   0  0  0  0  0  2  0  0  0  0  0  0
  188.0450  178.9950  136.4710 C   0  0  0  0  0  2  0  0  0  0  0  0
  186.4250  178.2520  140.9620 C   0  0  1  0  0  3  0  0  0  0  0  0
  186.8020  178.4910  137.1990 C   0  0  0  0  0  2  0  0  0  0  0  0
  189.0560  176.7350  146.4020 O   0  0  0  0  0  0  0  0  0  0  0  0
  189.7900  178.1530  144.6690 C   0  0  0  0  0  2  0  0  0  0  0  0
  186.1310  178.6560  139.5780 N   0  0  0  0  0  0  0  0  0  0  0  0
  189.1760  177.9870  136.6190 C   0  0  0  0  0  2  0  0  0  0  0  0
  188.4950  178.3080  139.0200 N   0  0  1  0  0  0  0  0  0  0  0  0
  189.6490  176.1350  138.3050 C   0  0  0  0  0  2  0  0  0  0  0  0
  191.0180  175.6430  137.9550 C   0  0  0  0  0  0  0  0  0  0  0  0
  193.5710  174.7260  137.2630 C   0  0  0  0  0  0  0  0  0  0  0  0
  192.1520  176.3770  138.3250 C   0  0  0  0  0  3  0  0  0  0  0  0
  191.1660  174.4460  137.2460 C   0  0  0  0  0  3  0  0  0  0  0  0
  192.4410  173.9890  136.8980 C   0  0  0  0  0  3  0  0  0  0  0  0
  194.8680  174.2620  136.9090 N   0  0  0  0  0  1  0  0  0  0  0  0
  193.4270  175.9190  137.9790 C   0  0  0  0  0  3  0  0  0  0  0  0
  1 21  1  6  0  0  0
  1 20  1  0  0  0  0
  2 17  1  0  0  0  0
  3 18  1  0  0  0  0
  4 12  1  6  0  0  0
  4  9  1  0  0  0  0
  5 11  1  6  0  0  0
  5  7  1  0  0  0  0
  6 16  2  0  0  0  0
  7  2  2  0  0  0  0
  7  4  1  0  0  0  0
  8 12  1  0  0  0  0
  9  6  1  0  0  0  0
 10 15  1  6  0  0  0
 10 20  1  0  0  0  0
 10 18  1  0  0  0  0
 13 19  1  0  0  0  0
 13 15  1  0  0  0  0
 14  5  1  0  0  0  0
 14  8  1  1  0  0  0
 17  6  1  0  0  0  0
 18 14  1  0  0  0  0
 19  1  1  0  0  0  0
 20 11  1  1  0  0  0
 22 21  1  0  0  0  0
 22 24  1  0  0  0  0
 23 28  1  0  0  0  0
 25 22  2  0  0  0  0
 26 25  1  0  0  0  0
 26 23  2  0  0  0  0
 27 23  1  0  0  0  0
 28 24  2  0  0  0  0
M  END
>  <MODEL>
7

>  <REMARK>
 VINA RESULT:      -8.1      3.128      6.084
  Name = 
  2 active torsions:
  status: ('A' for Active; 'I' for Inactive)
    1  A    between atoms: C_1  and  C_2
    2  A    between atoms: C_2  and  C_3
                            x       y       z     vdW  Elec       q    Type
                         _______ _______ _______ _____ _____    ______ ____

>  <TORSDO>
F 2

$$$$
=
 OpenBabel10262420543D

 28 32  0  0  1  0  0  0  0  0999 V2000
  190.4320  177.5970  142.6280 C   0  0  1  0  0  3  0  0  0  0  0  0
  185.6450  179.4940  142.8350 C   0  0  0  0  0  3  0  0  0  0  0  0
  188.5320  176.5770  138.3420 C   0  0  0  0  0  1  0  0  0  0  0  0
  184.6120  178.9370  140.6640 C   0  0  2  0  0  3  0  0  0  0  0  0
  187.2160  178.7370  141.0760 C   0  0  1  0  0  3  0  0  0  0  0  0
  183.2120  179.0550  142.7600 C   0  0  0  0  0  0  0  0  0  0  0  0
  185.8160  178.9900  141.5990 C   0  0  0  0  0  0  0  0  0  0  0  0
  186.2300  178.2450  138.8540 C   0  0  0  0  0  2  0  0  0  0  0  0
  183.3550  178.4450  141.3910 C   0  0  0  0  0  2  0  0  0  0  0  0
  189.5310  177.1910  140.3880 C   0  0  2  0  0  3  0  0  0  0  0  0
  188.1480  178.1720  142.1300 C   0  0  0  0  0  2  0  0  0  0  0  0
  184.8320  178.0690  139.4250 C   0  0  0  0  0  2  0  0  0  0  0  0
  192.0010  177.8310  140.6580 C   0  0  0  0  0  2  0  0  0  0  0  0
  187.2300  177.7630  139.9010 C   0  0  1  0  0  3  0  0  0  0  0  0
  190.9610  177.1110  139.8040 C   0  0  0  0  0  2  0  0  0  0  0  0
  182.1940  178.8570  143.4030 O   0  0  0  0  0  0  0  0  0  0  0  0
  184.2920  179.9280  143.3300 C   0  0  0  0  0  2  0  0  0  0  0  0
  188.5860  177.6420  139.3420 N   0  0  0  0  0  0  0  0  0  0  0  0
  191.8640  177.4010  142.1120 C   0  0  0  0  0  2  0  0  0  0  0  0
  189.4980  178.0710  141.5790 N   0  0  1  0  0  0  0  0  0  0  0  0
  189.9500  176.3850  143.4550 C   0  0  0  0  0  2  0  0  0  0  0  0
  189.5030  176.7250  144.8420 C   0  0  0  0  0  0  0  0  0  0  0  0
  188.6900  177.3910  147.4360 C   0  0  0  0  0  0  0  0  0  0  0  0
  188.1720  177.0810  145.0910 C   0  0  0  0  0  3  0  0  0  0  0  0
  190.4240  176.6960  145.8950 C   0  0  0  0  0  3  0  0  0  0  0  0
  190.0190  177.0300  147.1910 C   0  0  0  0  0  3  0  0  0  0  0  0
  188.2780  177.7320  148.7540 N   0  0  0  0  0  1  0  0  0  0  0  0
  187.7670  177.4140  146.3860 C   0  0  0  0  0  3  0  0  0  0  0  0
  1 21  1  6  0  0  0
  2 17  1  0  0  0  0
  3 18  1  0  0  0  0
  4 12  1  6  0  0  0
  4  9  1  0  0  0  0
  4  7  1  0  0  0  0
  5  7  1  0  0  0  0
  5 11  1  1  0  0  0
  6 17  1  0  0  0  0
  6 16  2  0  0  0  0
  7  2  2  0  0  0  0
  8 12  1  0  0  0  0
  9  6  1  0  0  0  0
 10 15  1  6  0  0  0
 10 20  1  0  0  0  0
 13 19  1  0  0  0  0
 14  8  1  6  0  0  0
 14  5  1  0  0  0  0
 15 13  1  0  0  0  0
 18 14  1  0  0  0  0
 18 10  1  0  0  0  0
 19  1  1  0  0  0  0
 20 11  1  1  0  0  0
 20  1  1  0  0  0  0
 21 22  1  0  0  0  0
 22 24  2  0  0  0  0
 22 25  1  0  0  0  0
 23 27  1  0  0  0  0
 24 28  1  0  0  0  0
 25 26  2  0  0  0  0
 26 23  1  0  0  0  0
 28 23  2  0  0  0  0
M  END
>  <MODEL>
8

>  <REMARK>
 VINA RESULT:      -8.0      1.904      5.884
  Name = 
  2 active torsions:
  status: ('A' for Active; 'I' for Inactive)
    1  A    between atoms: C_1  and  C_2
    2  A    between atoms: C_2  and  C_3
                            x       y       z     vdW  Elec       q    Type
                         _______ _______ _______ _____ _____    ______ ____

>  <TORSDO>
F 2

$$$$
=
 OpenBabel10262420543D

 28 32  0  0  1  0  0  0  0  0999 V2000
  187.6690  178.3710  146.5970 C   0  0  1  0  0  3  0  0  0  0  0  0
  188.6900  178.7060  141.5580 C   0  0  0  0  0  3  0  0  0  0  0  0
  191.6170  175.7170  145.9750 C   0  0  0  0  0  1  0  0  0  0  0  0
  190.6860  177.3040  141.1860 C   0  0  2  0  0  3  0  0  0  0  0  0
  189.9020  178.0220  143.6070 C   0  0  1  0  0  3  0  0  0  0  0  0
  188.9340  177.5450  139.3870 C   0  0  0  0  0  0  0  0  0  0  0  0
  189.6690  177.9680  142.1090 C   0  0  0  0  0  0  0  0  0  0  0  0
  191.9610  176.6800  143.2740 C   0  0  0  0  0  2  0  0  0  0  0  0
  190.0090  176.6660  139.9670 C   0  0  0  0  0  2  0  0  0  0  0  0
  189.7610  177.1280  146.3270 C   0  0  2  0  0  3  0  0  0  0  0  0
  188.6120  178.0690  144.4030 C   0  0  0  0  0  2  0  0  0  0  0  0
  191.5470  176.2470  141.8770 C   0  0  0  0  0  2  0  0  0  0  0  0
  189.3920  178.5360  148.4410 C   0  0  0  0  0  2  0  0  0  0  0  0
  190.6950  176.8220  144.1150 C   0  0  1  0  0  3  0  0  0  0  0  0
  190.1010  177.3340  147.8220 C   0  0  0  0  0  2  0  0  0  0  0  0
  188.3970  177.2270  138.3380 O   0  0  0  0  0  0  0  0  0  0  0  0
  188.5360  178.8250  140.0650 C   0  0  0  0  0  2  0  0  0  0  0  0
  191.0070  176.9740  145.5450 N   0  0  0  0  0  0  0  0  0  0  0  0
  187.9080  178.4890  148.1080 C   0  0  0  0  0  2  0  0  0  0  0  0
  188.9250  178.2410  145.8200 N   0  0  1  0  0  0  0  0  0  0  0  0
  186.5690  177.3370  146.2700 C   0  0  0  0  0  2  0  0  0  0  0  0
  185.4710  177.8610  145.4000 C   0  0  0  0  0  0  0  0  0  0  0  0
  183.4110  178.8070  143.7580 C   0  0  0  0  0  0  0  0  0  0  0  0
  184.3180  178.4160  145.9690 C   0  0  0  0  0  3  0  0  0  0  0  0
  185.5930  177.7890  144.0080 C   0  0  0  0  0  3  0  0  0  0  0  0
  184.5630  178.2600  143.1880 C   0  0  0  0  0  3  0  0  0  0  0  0
  182.3630  179.2860  142.9240 N   0  0  0  0  0  1  0  0  0  0  0  0
  183.2890  178.8880  145.1490 C   0  0  0  0  0  3  0  0  0  0  0  0
  1 21  1  1  0  0  0
  1 19  1  0  0  0  0
  2  7  2  0  0  0  0
  4  9  1  6  0  0  0
  4 12  1  0  0  0  0
  4  7  1  0  0  0  0
  5 14  1  0  0  0  0
  5 11  1  1  0  0  0
  6  9  1  0  0  0  0
  6 17  1  0  0  0  0
  7  5  1  0  0  0  0
 10 15  1  1  0  0  0
 12  8  1  0  0  0  0
 14  8  1  6  0  0  0
 14 18  1  0  0  0  0
 15 13  1  0  0  0  0
 16  6  2  0  0  0  0
 17  2  1  0  0  0  0
 18  3  1  0  0  0  0
 18 10  1  0  0  0  0
 19 13  1  0  0  0  0
 20 11  1  6  0  0  0
 20 10  1  0  0  0  0
 20  1  1  0  0  0  0
 22 24  1  0  0  0  0
 22 21  1  0  0  0  0
 23 28  1  0  0  0  0
 25 22  2  0  0  0  0
 26 23  2  0  0  0  0
 26 25  1  0  0  0  0
 27 23  1  0  0  0  0
 28 24  2  0  0  0  0
M  END
>  <MODEL>
9

>  <REMARK>
 VINA RESULT:      -8.0      2.415      6.055
  Name = 
  2 active torsions:
  status: ('A' for Active; 'I' for Inactive)
    1  A    between atoms: C_1  and  C_2
    2  A    between atoms: C_2  and  C_3
                            x       y       z     vdW  Elec       q    Type
                         _______ _______ _______ _____ _____    ______ ____

>  <TORSDO>
F 2

$$$$
