=
 OpenBabel10262423303D

 34 40  0  0  1  0  0  0  0  0999 V2000
  187.1140  178.0020  144.2490 C   0  0  0  0  0  0  0  0  0  0  0  0
  183.5380  178.7110  145.0800 C   0  0  0  0  0  3  0  0  0  0  0  0
  181.4800  179.0200  142.1910 C   0  0  0  0  0  0  0  0  0  0  0  0
  185.4610  178.3850  146.5070 C   0  0  0  0  0  3  0  0  0  0  0  0
  189.8590  177.4850  144.5870 N   0  0  0  0  0  0  0  0  0  0  0  0
  188.0110  177.7950  143.0870 C   0  0  0  0  0  3  0  0  0  0  0  0
  189.0200  177.6800  145.7310 C   0  0  0  0  0  0  0  0  0  0  0  0
  188.7320  177.8070  148.1320 C   0  0  0  0  0  3  0  0  0  0  0  0
  180.3470  179.2220  141.6830 O   0  0  0  0  0  0  0  0  0  0  0  0
  189.5570  177.6150  147.0190 C   0  0  0  0  0  3  0  0  0  0  0  0
  189.3200  177.5490  143.2560 C   0  0  0  0  0  0  0  0  0  0  0  0
  186.8210  178.1300  146.6770 C   0  0  0  0  0  0  0  0  0  0  0  0
  187.6500  177.9370  145.5510 C   0  0  1  0  0  3  0  0  0  0  0  0
  187.3670  178.0630  147.9620 C   0  0  0  0  0  3  0  0  0  0  0  0
  183.0010  178.7760  143.7960 C   0  0  0  0  0  0  0  0  0  0  0  0
  182.8810  178.7250  141.2900 S   0  0  0  0  0  0  0  0  0  0  0  0
  181.6930  179.0190  143.5280 N   0  0  0  0  0  2  0  0  0  0  0  0
  183.8070  178.5890  142.6840 C   0  0  0  0  0  0  0  0  0  0  0  0
  184.9110  178.4520  145.2250 C   0  0  0  0  0  0  0  0  0  0  0  0
  185.1700  178.3310  142.7900 C   0  0  0  0  0  3  0  0  0  0  0  0
  185.7400  178.2590  144.0770 C   0  0  0  0  0  0  0  0  0  0  0  0
  192.4320  177.3380  141.0920 C   0  0  0  0  0  3  0  0  0  0  0  0
  189.6650  176.9550  140.8590 C   0  0  0  0  0  3  0  0  0  0  0  0
  192.1620  176.3650  137.5280 C   0  0  0  0  0  0  0  0  0  0  0  0
  192.7100  176.7540  138.7580 C   0  0  0  0  0  3  0  0  0  0  0  0
  191.8840  176.9510  139.8680 C   0  0  0  0  0  0  0  0  0  0  0  0
  189.9430  176.3700  138.5260 C   0  0  0  0  0  3  0  0  0  0  0  0
  190.4900  176.7580  139.7510 C   0  0  0  0  0  0  0  0  0  0  0  0
  190.7750  176.1740  137.4200 C   0  0  0  0  0  3  0  0  0  0  0  0
  190.2100  177.3440  142.0930 C   0  0  0  0  0  0  0  0  0  0  0  0
  191.5990  177.5340  142.1980 C   0  0  0  0  0  3  0  0  0  0  0  0
  193.0360  176.1580  136.3630 C   0  0  0  0  0  0  0  0  0  0  0  0
  192.6410  175.4770  135.3790 O   0  0  0  0  0  0  0  0  0  0  0  0
  194.3110  176.7140  136.3370 O   0  0  0  0  0  1  0  0  0  0  0  0
  2 19  1  0  0  0  0
  3 17  1  0  0  0  0
  4 12  1  0  0  0  0
  5  7  2  0  0  0  0
  6 11  2  0  0  0  0
  6  1  1  0  0  0  0
  7 10  1  0  0  0  0
  9  3  2  0  0  0  0
 10  8  2  0  0  0  0
 11  5  1  0  0  0  0
 12 14  2  0  0  0  0
 13  1  1  6  0  0  0
 13  7  1  0  0  0  0
 13 12  1  0  0  0  0
 14  8  1  0  0  0  0
 15  2  2  0  0  0  0
 16  3  1  0  0  0  0
 16 18  1  0  0  0  0
 17 15  1  0  0  0  0
 18 20  2  0  0  0  0
 18 15  1  0  0  0  0
 19  4  2  0  0  0  0
 20 21  1  0  0  0  0
 21  1  2  0  0  0  0
 21 19  1  0  0  0  0
 22 31  1  0  0  0  0
 23 30  1  0  0  0  0
 24 25  2  0  0  0  0
 25 26  1  0  0  0  0
 26 22  2  0  0  0  0
 27 28  1  0  0  0  0
 28 26  1  0  0  0  0
 28 23  2  0  0  0  0
 29 24  1  0  0  0  0
 29 27  2  0  0  0  0
 30 31  2  0  0  0  0
 30 11  1  0  0  0  0
 32 24  1  0  0  0  0
 33 32  2  0  0  0  0
 34 32  1  0  0  0  0
M  END
>  <MODEL>
1

>  <REMARK>
 VINA RESULT:     -12.8      0.000      0.000
  Name = 
  2 active torsions:
  status: ('A' for Active; 'I' for Inactive)
    1  A    between atoms: C_7  and  C_11
    2  A    between atoms: C_18  and  C_30
                            x       y       z     vdW  Elec       q    Type
                         _______ _______ _______ _____ _____    ______ ____

>  <TORSDO>
F 2

$$$$
=
 OpenBabel10262423303D

 34 40  0  0  1  0  0  0  0  0999 V2000
  186.4910  178.0680  143.6050 C   0  0  0  0  0  0  0  0  0  0  0  0
  183.0380  178.8820  144.7880 C   0  0  0  0  0  3  0  0  0  0  0  0
  180.7040  179.2200  142.1210 C   0  0  0  0  0  0  0  0  0  0  0  0
  185.0880  178.5170  146.0150 C   0  0  0  0  0  3  0  0  0  0  0  0
  189.2410  177.4810  143.6670 N   0  0  0  0  0  0  0  0  0  0  0  0
  187.2580  177.8260  142.3600 C   0  0  0  0  0  3  0  0  0  0  0  0
  188.5300  177.7090  144.8880 C   0  0  0  0  0  0  0  0  0  0  0  0
  188.4930  177.8660  147.3040 C   0  0  0  0  0  3  0  0  0  0  0  0
  179.5300  179.4470  141.7300 O   0  0  0  0  0  0  0  0  0  0  0  0
  189.1940  177.6410  146.1150 C   0  0  0  0  0  3  0  0  0  0  0  0
  188.5700  177.5460  142.3970 C   0  0  0  0  0  0  0  0  0  0  0  0
  186.4510  178.2270  146.0480 C   0  0  0  0  0  0  0  0  0  0  0  0
  187.1550  178.0010  144.8450 C   0  0  1  0  0  3  0  0  0  0  0  0
  187.1250  178.1570  147.2720 C   0  0  0  0  0  3  0  0  0  0  0  0
  182.3750  178.9490  143.5660 C   0  0  0  0  0  0  0  0  0  0  0  0
  181.9970  178.8780  141.0860 S   0  0  0  0  0  0  0  0  0  0  0  0
  181.0530  179.2250  143.4300 N   0  0  0  0  0  2  0  0  0  0  0  0
  183.0570  178.7300  142.3790 C   0  0  0  0  0  0  0  0  0  0  0  0
  184.4120  178.5870  144.7950 C   0  0  0  0  0  0  0  0  0  0  0  0
  184.4170  178.4360  142.3490 C   0  0  0  0  0  3  0  0  0  0  0  0
  185.1130  178.3610  143.5720 C   0  0  0  0  0  0  0  0  0  0  0  0
  189.4020  176.8870  138.7520 C   0  0  0  0  0  3  0  0  0  0  0  0
  190.7340  177.2710  141.1890 C   0  0  0  0  0  3  0  0  0  0  0  0
  192.9320  176.5910  137.6700 C   0  0  0  0  0  0  0  0  0  0  0  0
  191.5310  176.6260  137.6280 C   0  0  0  0  0  3  0  0  0  0  0  0
  190.7960  176.8520  138.7950 C   0  0  0  0  0  0  0  0  0  0  0  0
  192.8630  177.0110  140.0650 C   0  0  0  0  0  3  0  0  0  0  0  0
  191.4680  177.0460  140.0230 C   0  0  0  0  0  0  0  0  0  0  0  0
  193.5920  176.7850  138.8940 C   0  0  0  0  0  3  0  0  0  0  0  0
  189.3310  177.3070  141.1520 C   0  0  0  0  0  0  0  0  0  0  0  0
  188.6730  177.1120  139.9240 C   0  0  0  0  0  3  0  0  0  0  0  0
  193.7010  176.3530  136.4380 C   0  0  0  0  0  0  0  0  0  0  0  0
  193.3600  175.4410  135.6380 O   0  0  0  0  0  0  0  0  0  0  0  0
  194.8130  177.1350  136.1430 O   0  0  0  0  0  1  0  0  0  0  0  0
  2 19  1  0  0  0  0
  3 17  1  0  0  0  0
  4 12  1  0  0  0  0
  5  7  2  0  0  0  0
  6 11  2  0  0  0  0
  6  1  1  0  0  0  0
  7 10  1  0  0  0  0
  9  3  2  0  0  0  0
 10  8  2  0  0  0  0
 11  5  1  0  0  0  0
 12 14  2  0  0  0  0
 13  1  1  6  0  0  0
 13  7  1  0  0  0  0
 13 12  1  0  0  0  0
 14  8  1  0  0  0  0
 15  2  2  0  0  0  0
 16  3  1  0  0  0  0
 16 18  1  0  0  0  0
 17 15  1  0  0  0  0
 18 15  1  0  0  0  0
 19  4  2  0  0  0  0
 20 18  2  0  0  0  0
 20 21  1  0  0  0  0
 21  1  2  0  0  0  0
 21 19  1  0  0  0  0
 22 26  2  0  0  0  0
 22 31  1  0  0  0  0
 24 29  1  0  0  0  0
 25 24  2  0  0  0  0
 25 26  1  0  0  0  0
 26 28  1  0  0  0  0
 28 27  1  0  0  0  0
 28 23  2  0  0  0  0
 29 27  2  0  0  0  0
 30 23  1  0  0  0  0
 30 11  1  0  0  0  0
 31 30  2  0  0  0  0
 32 24  1  0  0  0  0
 33 32  2  0  0  0  0
 34 32  1  0  0  0  0
M  END
>  <MODEL>
2

>  <REMARK>
 VINA RESULT:     -12.1      0.832      1.508
  Name = 
  2 active torsions:
  status: ('A' for Active; 'I' for Inactive)
    1  A    between atoms: C_7  and  C_11
    2  A    between atoms: C_18  and  C_30
                            x       y       z     vdW  Elec       q    Type
                         _______ _______ _______ _____ _____    ______ ____

>  <TORSDO>
F 2

$$$$
=
 OpenBabel10262423303D

 34 40  0  0  1  0  0  0  0  0999 V2000
  188.2050  177.7900  144.2130 C   0  0  0  0  0  0  0  0  0  0  0  0
  191.8200  177.1760  143.4850 C   0  0  0  0  0  3  0  0  0  0  0  0
  192.5410  177.1190  139.9990 C   0  0  0  0  0  0  0  0  0  0  0  0
  190.6340  177.3420  145.5840 C   0  0  0  0  0  3  0  0  0  0  0  0
  185.8240  178.1760  145.6610 N   0  0  0  0  0  0  0  0  0  0  0  0
  186.9120  178.0280  143.5280 C   0  0  0  0  0  3  0  0  0  0  0  0
  187.0550  177.9480  146.3550 C   0  0  0  0  0  0  0  0  0  0  0  0
  188.2900  177.6920  148.4230 C   0  0  0  0  0  3  0  0  0  0  0  0
  193.3750  176.9930  139.0660 O   0  0  0  0  0  0  0  0  0  0  0  0
  187.0830  177.9160  147.7510 C   0  0  0  0  0  3  0  0  0  0  0  0
  185.7800  178.2120  144.2250 C   0  0  0  0  0  0  0  0  0  0  0  0
  189.4550  177.5320  146.3030 C   0  0  0  0  0  0  0  0  0  0  0  0
  188.2390  177.7570  145.6210 C   0  0  1  0  0  3  0  0  0  0  0  0
  189.4730  177.5010  147.7010 C   0  0  0  0  0  3  0  0  0  0  0  0
  191.7940  177.2080  142.0930 C   0  0  0  0  0  0  0  0  0  0  0  0
  190.8920  177.4100  139.7600 S   0  0  0  0  0  0  0  0  0  0  0  0
  192.8860  177.0330  141.3050 N   0  0  0  0  0  2  0  0  0  0  0  0
  190.6050  177.4270  141.4140 C   0  0  0  0  0  0  0  0  0  0  0  0
  190.6200  177.3710  144.1870 C   0  0  0  0  0  0  0  0  0  0  0  0
  189.3980  177.6240  142.0770 C   0  0  0  0  0  3  0  0  0  0  0  0
  189.3960  177.5980  143.4860 C   0  0  0  0  0  0  0  0  0  0  0  0
  182.1210  179.0030  143.5930 C   0  0  0  0  0  3  0  0  0  0  0  0
  184.4230  178.3390  142.1370 C   0  0  0  0  0  3  0  0  0  0  0  0
  180.7840  179.0030  140.1380 C   0  0  0  0  0  0  0  0  0  0  0  0
  180.8500  179.1130  141.5350 C   0  0  0  0  0  3  0  0  0  0  0  0
  182.0570  178.8930  142.2030 C   0  0  0  0  0  0  0  0  0  0  0  0
  183.1520  178.4490  140.0790 C   0  0  0  0  0  3  0  0  0  0  0  0
  183.2170  178.5590  141.4690 C   0  0  0  0  0  0  0  0  0  0  0  0
  181.9410  178.6700  139.4160 C   0  0  0  0  0  3  0  0  0  0  0  0
  184.4940  178.4480  143.5350 C   0  0  0  0  0  0  0  0  0  0  0  0
  183.3330  178.7810  144.2550 C   0  0  0  0  0  3  0  0  0  0  0  0
  179.5100  179.2350  139.4400 C   0  0  0  0  0  0  0  0  0  0  0  0
  178.9310  180.3510  139.5210 O   0  0  0  0  0  1  0  0  0  0  0  0
  178.9310  178.2230  138.6820 O   0  0  0  0  0  0  0  0  0  0  0  0
  2 19  1  0  0  0  0
  3 17  1  0  0  0  0
  4 12  1  0  0  0  0
  5  7  2  0  0  0  0
  6  1  1  0  0  0  0
  6 11  2  0  0  0  0
  7 10  1  0  0  0  0
  9  3  2  0  0  0  0
 10  8  2  0  0  0  0
 11  5  1  0  0  0  0
 12 14  2  0  0  0  0
 13  1  1  6  0  0  0
 13 12  1  0  0  0  0
 13  7  1  0  0  0  0
 14  8  1  0  0  0  0
 15  2  2  0  0  0  0
 16  3  1  0  0  0  0
 16 18  1  0  0  0  0
 17 15  1  0  0  0  0
 18 20  2  0  0  0  0
 18 15  1  0  0  0  0
 19  4  2  0  0  0  0
 20 21  1  0  0  0  0
 21 19  1  0  0  0  0
 21  1  2  0  0  0  0
 22 31  1  0  0  0  0
 23 30  1  0  0  0  0
 24 25  2  0  0  0  0
 25 26  1  0  0  0  0
 26 22  2  0  0  0  0
 27 28  1  0  0  0  0
 28 23  2  0  0  0  0
 28 26  1  0  0  0  0
 29 27  2  0  0  0  0
 29 24  1  0  0  0  0
 30 11  1  0  0  0  0
 30 31  2  0  0  0  0
 32 33  1  0  0  0  0
 32 24  1  0  0  0  0
 34 32  2  0  0  0  0
M  END
>  <MODEL>
3

>  <REMARK>
 VINA RESULT:     -11.9      2.444      8.419
  Name = 
  2 active torsions:
  status: ('A' for Active; 'I' for Inactive)
    1  A    between atoms: C_7  and  C_11
    2  A    between atoms: C_18  and  C_30
                            x       y       z     vdW  Elec       q    Type
                         _______ _______ _______ _____ _____    ______ ____

>  <TORSDO>
F 2

$$$$
=
 OpenBabel10262423303D

 34 40  0  0  1  0  0  0  0  0999 V2000
  185.2150  178.3270  141.6620 C   0  0  0  0  0  0  0  0  0  0  0  0
  184.6470  178.5530  137.9730 C   0  0  0  0  0  3  0  0  0  0  0  0
  187.5990  177.9460  136.0770 C   0  0  0  0  0  0  0  0  0  0  0  0
  183.1280  178.8420  139.8300 C   0  0  0  0  0  3  0  0  0  0  0  0
  184.7010  178.3660  144.4270 N   0  0  0  0  0  0  0  0  0  0  0  0
  186.2860  178.0600  142.6520 C   0  0  0  0  0  3  0  0  0  0  0  0
  183.6440  178.6270  143.4980 C   0  0  0  0  0  0  0  0  0  0  0  0
  181.3250  179.1580  143.0430 C   0  0  0  0  0  3  0  0  0  0  0  0
  188.1700  177.8480  134.9610 O   0  0  0  0  0  0  0  0  0  0  0  0
  182.3530  178.9030  143.9570 C   0  0  0  0  0  3  0  0  0  0  0  0
  186.0330  178.0800  143.9700 C   0  0  0  0  0  0  0  0  0  0  0  0
  182.8710  178.8630  141.2000 C   0  0  0  0  0  0  0  0  0  0  0  0
  183.9120  178.6050  142.1180 C   0  0  1  0  0  3  0  0  0  0  0  0
  181.5830  179.1380  141.6680 C   0  0  0  0  0  3  0  0  0  0  0  0
  185.9330  178.2790  137.5140 C   0  0  0  0  0  0  0  0  0  0  0  0
  188.3820  177.7310  137.5610 S   0  0  0  0  0  0  0  0  0  0  0  0
  186.2830  178.2360  136.2030 N   0  0  0  0  0  2  0  0  0  0  0  0
  186.9620  178.0250  138.4080 C   0  0  0  0  0  0  0  0  0  0  0  0
  184.4140  178.5680  139.3580 C   0  0  0  0  0  0  0  0  0  0  0  0
  186.7670  178.0310  139.7850 C   0  0  0  0  0  3  0  0  0  0  0  0
  185.4750  178.3060  140.2770 C   0  0  0  0  0  0  0  0  0  0  0  0
  187.9010  177.7040  147.2530 C   0  0  0  0  0  3  0  0  0  0  0  0
  188.3750  177.4120  144.5060 C   0  0  0  0  0  3  0  0  0  0  0  0
  191.4520  176.6480  147.2680 C   0  0  0  0  0  0  0  0  0  0  0  0
  190.1860  177.0500  147.7180 C   0  0  0  0  0  3  0  0  0  0  0  0
  189.1600  177.3050  146.8040 C   0  0  0  0  0  0  0  0  0  0  0  0
  190.6590  176.7570  144.9710 C   0  0  0  0  0  3  0  0  0  0  0  0
  189.3990  177.1570  145.4190 C   0  0  0  0  0  0  0  0  0  0  0  0
  191.6810  176.5030  145.8910 C   0  0  0  0  0  3  0  0  0  0  0  0
  187.1060  177.8140  144.9520 C   0  0  0  0  0  0  0  0  0  0  0  0
  186.8800  177.9580  146.3330 C   0  0  0  0  0  3  0  0  0  0  0  0
  192.5270  176.3810  148.2350 C   0  0  0  0  0  0  0  0  0  0  0  0
  193.1810  175.3040  148.1840 O   0  0  0  0  0  0  0  0  0  0  0  0
  192.8340  177.3150  149.2180 O   0  0  0  0  0  1  0  0  0  0  0  0
  1 13  1  0  0  0  0
  1  6  1  0  0  0  0
  2 19  1  0  0  0  0
  3 17  1  0  0  0  0
  3 16  1  0  0  0  0
  4 12  1  0  0  0  0
  6 11  2  0  0  0  0
  7 10  1  0  0  0  0
  7  5  2  0  0  0  0
  8 10  2  0  0  0  0
  9  3  2  0  0  0  0
 11  5  1  0  0  0  0
 11 30  1  0  0  0  0
 12 14  2  0  0  0  0
 13 12  1  1  0  0  0
 13  7  1  0  0  0  0
 14  8  1  0  0  0  0
 15  2  2  0  0  0  0
 15 18  1  0  0  0  0
 16 18  1  0  0  0  0
 17 15  1  0  0  0  0
 18 20  2  0  0  0  0
 19  4  2  0  0  0  0
 19 21  1  0  0  0  0
 20 21  1  0  0  0  0
 21  1  2  0  0  0  0
 23 30  2  0  0  0  0
 23 28  1  0  0  0  0
 24 25  1  0  0  0  0
 24 32  1  0  0  0  0
 26 22  1  0  0  0  0
 26 25  2  0  0  0  0
 27 28  2  0  0  0  0
 27 29  1  0  0  0  0
 28 26  1  0  0  0  0
 29 24  2  0  0  0  0
 30 31  1  0  0  0  0
 31 22  2  0  0  0  0
 32 34  1  0  0  0  0
 33 32  2  0  0  0  0
M  END
>  <MODEL>
4

>  <REMARK>
 VINA RESULT:     -11.2      4.256      7.506
  Name = 
  2 active torsions:
  status: ('A' for Active; 'I' for Inactive)
    1  A    between atoms: C_7  and  C_11
    2  A    between atoms: C_18  and  C_30
                            x       y       z     vdW  Elec       q    Type
                         _______ _______ _______ _____ _____    ______ ____

>  <TORSDO>
F 2

$$$$
=
 OpenBabel10262423303D

 34 40  0  0  1  0  0  0  0  0999 V2000
  189.0210  177.4810  143.6590 C   0  0  0  0  0  0  0  0  0  0  0  0
  192.3350  176.7510  142.0890 C   0  0  0  0  0  3  0  0  0  0  0  0
  192.2370  176.8610  138.5310 C   0  0  0  0  0  0  0  0  0  0  0  0
  191.6690  176.8490  144.4100 C   0  0  0  0  0  3  0  0  0  0  0  0
  187.0590  177.8890  145.6330 N   0  0  0  0  0  0  0  0  0  0  0  0
  187.6220  177.8160  143.3010 C   0  0  0  0  0  3  0  0  0  0  0  0
  188.4010  177.5680  146.0120 C   0  0  0  0  0  0  0  0  0  0  0  0
  190.0580  177.1400  147.7260 C   0  0  0  0  0  3  0  0  0  0  0  0
  192.8270  176.7520  137.4260 O   0  0  0  0  0  0  0  0  0  0  0  0
  188.7450  177.4550  147.3620 C   0  0  0  0  0  3  0  0  0  0  0  0
  186.6910  178.0080  144.2480 C   0  0  0  0  0  0  0  0  0  0  0  0
  190.6980  177.0500  145.3900 C   0  0  0  0  0  0  0  0  0  0  0  0
  189.3740  177.3660  145.0180 C   0  0  2  0  0  3  0  0  0  0  0  0
  191.0330  176.9380  146.7420 C   0  0  0  0  0  3  0  0  0  0  0  0
  191.9940  176.8640  140.7430 C   0  0  0  0  0  0  0  0  0  0  0  0
  190.5960  177.2380  138.6930 S   0  0  0  0  0  0  0  0  0  0  0  0
  192.8650  176.6860  139.7180 N   0  0  0  0  0  2  0  0  0  0  0  0
  190.6950  177.1740  140.3680 C   0  0  0  0  0  0  0  0  0  0  0  0
  191.3390  176.9590  143.0570 C   0  0  0  0  0  0  0  0  0  0  0  0
  189.6850  177.3850  141.2990 C   0  0  0  0  0  3  0  0  0  0  0  0
  190.0020  177.2790  142.6680 C   0  0  0  0  0  0  0  0  0  0  0  0
  183.0340  178.9930  144.5140 C   0  0  0  0  0  3  0  0  0  0  0  0
  184.9030  178.3170  142.5380 C   0  0  0  0  0  3  0  0  0  0  0  0
  180.9470  179.2540  141.4650 C   0  0  0  0  0  0  0  0  0  0  0  0
  181.3350  179.2780  142.8120 C   0  0  0  0  0  3  0  0  0  0  0  0
  182.6490  178.9680  143.1730 C   0  0  0  0  0  0  0  0  0  0  0  0
  183.2050  178.6040  140.8350 C   0  0  0  0  0  3  0  0  0  0  0  0
  183.5910  178.6280  142.1770 C   0  0  0  0  0  0  0  0  0  0  0  0
  181.8890  178.9150  140.4810 C   0  0  0  0  0  3  0  0  0  0  0  0
  185.2960  178.3400  143.8850 C   0  0  0  0  0  0  0  0  0  0  0  0
  184.3500  178.6800  144.8680 C   0  0  0  0  0  3  0  0  0  0  0  0
  179.5620  179.5820  141.0910 C   0  0  0  0  0  0  0  0  0  0  0  0
  178.9310  178.8560  140.2770 O   0  0  0  0  0  0  0  0  0  0  0  0
  178.9360  180.6990  141.6320 O   0  0  0  0  0  1  0  0  0  0  0  0
  2 19  1  0  0  0  0
  3 16  1  0  0  0  0
  3 17  1  0  0  0  0
  4 12  1  0  0  0  0
  5  7  2  0  0  0  0
  6  1  1  0  0  0  0
  6 11  2  0  0  0  0
  7 10  1  0  0  0  0
  9  3  2  0  0  0  0
 10  8  2  0  0  0  0
 11  5  1  0  0  0  0
 12 14  2  0  0  0  0
 13  1  1  1  0  0  0
 13 12  1  0  0  0  0
 13  7  1  0  0  0  0
 14  8  1  0  0  0  0
 15  2  2  0  0  0  0
 16 18  1  0  0  0  0
 17 15  1  0  0  0  0
 18 15  1  0  0  0  0
 18 20  2  0  0  0  0
 19  4  2  0  0  0  0
 20 21  1  0  0  0  0
 21 19  1  0  0  0  0
 21  1  2  0  0  0  0
 22 31  1  0  0  0  0
 23 30  1  0  0  0  0
 24 25  2  0  0  0  0
 25 26  1  0  0  0  0
 26 22  2  0  0  0  0
 27 28  1  0  0  0  0
 28 23  2  0  0  0  0
 28 26  1  0  0  0  0
 29 27  2  0  0  0  0
 29 24  1  0  0  0  0
 30 11  1  0  0  0  0
 30 31  2  0  0  0  0
 32 24  1  0  0  0  0
 32 34  1  0  0  0  0
 33 32  2  0  0  0  0
M  END
>  <MODEL>
5

>  <REMARK>
 VINA RESULT:     -11.1      2.178      8.603
  Name = 
  2 active torsions:
  status: ('A' for Active; 'I' for Inactive)
    1  A    between atoms: C_7  and  C_11
    2  A    between atoms: C_18  and  C_30
                            x       y       z     vdW  Elec       q    Type
                         _______ _______ _______ _____ _____    ______ ____

>  <TORSDO>
F 2

$$$$
=
 OpenBabel10262423303D

 34 40  0  0  1  0  0  0  0  0999 V2000
  190.4090  176.6930  138.0620 C   0  0  0  0  0  0  0  0  0  0  0  0
  192.4160  175.4620  135.1570 C   0  0  0  0  0  3  0  0  0  0  0  0
  195.5450  174.0670  136.1270 C   0  0  0  0  0  0  0  0  0  0  0  0
  190.2380  176.5050  135.2490 C   0  0  0  0  0  3  0  0  0  0  0  0
  188.2960  177.8360  139.5260 N   0  0  0  0  0  0  0  0  0  0  0  0
  190.4640  176.8070  139.5390 C   0  0  0  0  0  3  0  0  0  0  0  0
  188.2110  177.7400  138.1000 C   0  0  0  0  0  0  0  0  0  0  0  0
  187.0040  178.1170  136.0350 C   0  0  0  0  0  3  0  0  0  0  0  0
  196.6330  173.5200  135.8120 O   0  0  0  0  0  0  0  0  0  0  0  0
  187.0810  178.2130  137.4280 C   0  0  0  0  0  3  0  0  0  0  0  0
  189.4530  177.3530  140.2310 C   0  0  0  0  0  0  0  0  0  0  0  0
  189.1900  177.0720  135.9720 C   0  0  0  0  0  0  0  0  0  0  0  0
  189.2720  177.1670  137.3780 C   0  0  1  0  0  3  0  0  0  0  0  0
  188.0560  177.5480  135.3080 C   0  0  0  0  0  3  0  0  0  0  0  0
  193.5430  174.9900  135.8260 C   0  0  0  0  0  0  0  0  0  0  0  0
  195.0960  174.4330  137.7160 S   0  0  0  0  0  0  0  0  0  0  0  0
  194.6130  174.4230  135.2120 N   0  0  0  0  0  2  0  0  0  0  0  0
  193.6330  175.0790  137.2060 C   0  0  0  0  0  0  0  0  0  0  0  0
  191.3740  176.0290  135.9080 C   0  0  0  0  0  0  0  0  0  0  0  0
  192.6200  175.6340  137.9820 C   0  0  0  0  0  3  0  0  0  0  0  0
  191.4680  176.1190  137.3310 C   0  0  0  0  0  0  0  0  0  0  0  0
  190.7870  177.7460  143.7630 C   0  0  0  0  0  3  0  0  0  0  0  0
  188.3320  177.3940  142.4580 C   0  0  0  0  0  3  0  0  0  0  0  0
  188.4640  177.7060  146.6490 C   0  0  0  0  0  0  0  0  0  0  0  0
  189.6480  177.7770  145.9000 C   0  0  0  0  0  3  0  0  0  0  0  0
  189.6080  177.6740  144.5070 C   0  0  0  0  0  0  0  0  0  0  0  0
  187.1920  177.4270  144.5940 C   0  0  0  0  0  3  0  0  0  0  0  0
  188.3710  177.4980  143.8490 C   0  0  0  0  0  0  0  0  0  0  0  0
  187.2380  177.5310  145.9870 C   0  0  0  0  0  3  0  0  0  0  0  0
  189.5140  177.4650  141.7040 C   0  0  0  0  0  0  0  0  0  0  0  0
  190.7400  177.6410  142.3700 C   0  0  0  0  0  3  0  0  0  0  0  0
  188.5110  177.8160  148.1150 C   0  0  0  0  0  0  0  0  0  0  0  0
  187.5450  177.4160  148.8180 O   0  0  0  0  0  1  0  0  0  0  0  0
  189.6260  178.3630  148.7410 O   0  0  0  0  0  0  0  0  0  0  0  0
  1  6  1  0  0  0  0
  2 15  2  0  0  0  0
  2 19  1  0  0  0  0
  3 16  1  0  0  0  0
  4 19  2  0  0  0  0
  4 12  1  0  0  0  0
  5 11  1  0  0  0  0
  6 11  2  0  0  0  0
  7  5  2  0  0  0  0
  8 10  2  0  0  0  0
  9  3  2  0  0  0  0
 10  7  1  0  0  0  0
 11 30  1  0  0  0  0
 13 12  1  6  0  0  0
 13  1  1  0  0  0  0
 13  7  1  0  0  0  0
 14 12  2  0  0  0  0
 14  8  1  0  0  0  0
 15 18  1  0  0  0  0
 17 15  1  0  0  0  0
 17  3  1  0  0  0  0
 18 16  1  0  0  0  0
 18 20  2  0  0  0  0
 19 21  1  0  0  0  0
 21 20  1  0  0  0  0
 21  1  2  0  0  0  0
 22 26  1  0  0  0  0
 23 28  1  0  0  0  0
 24 32  1  0  0  0  0
 25 24  2  0  0  0  0
 26 25  1  0  0  0  0
 27 29  2  0  0  0  0
 28 26  2  0  0  0  0
 28 27  1  0  0  0  0
 29 24  1  0  0  0  0
 30 31  1  0  0  0  0
 30 23  2  0  0  0  0
 31 22  2  0  0  0  0
 32 34  2  0  0  0  0
 32 33  1  0  0  0  0
M  END
>  <MODEL>
6

>  <REMARK>
 VINA RESULT:     -10.6      4.476     10.398
  Name = 
  2 active torsions:
  status: ('A' for Active; 'I' for Inactive)
    1  A    between atoms: C_7  and  C_11
    2  A    between atoms: C_18  and  C_30
                            x       y       z     vdW  Elec       q    Type
                         _______ _______ _______ _____ _____    ______ ____

>  <TORSDO>
F 2

$$$$
=
 OpenBabel10262423303D

 34 40  0  0  1  0  0  0  0  0999 V2000
  186.0930  178.2470  140.7840 C   0  0  0  0  0  0  0  0  0  0  0  0
  182.4910  179.0400  140.1660 C   0  0  0  0  0  3  0  0  0  0  0  0
  180.5580  179.1230  143.1550 C   0  0  0  0  0  0  0  0  0  0  0  0
  184.3500  178.8210  138.6370 C   0  0  0  0  0  3  0  0  0  0  0  0
  188.8160  177.7470  140.2900 N   0  0  0  0  0  0  0  0  0  0  0  0
  187.0360  177.9430  141.8870 C   0  0  0  0  0  3  0  0  0  0  0  0
  187.9320  178.0380  139.2020 C   0  0  0  0  0  0  0  0  0  0  0  0
  187.5450  178.3590  136.8330 C   0  0  0  0  0  3  0  0  0  0  0  0
  179.4500  179.2900  143.7250 O   0  0  0  0  0  0  0  0  0  0  0  0
  188.4140  178.0750  137.8910 C   0  0  0  0  0  3  0  0  0  0  0  0
  188.3340  177.7060  141.6440 C   0  0  0  0  0  0  0  0  0  0  0  0
  185.6990  178.5730  138.3890 C   0  0  0  0  0  0  0  0  0  0  0  0
  186.5730  178.2860  139.4600 C   0  0  2  0  0  3  0  0  0  0  0  0
  186.1900  178.6080  137.0810 C   0  0  0  0  0  3  0  0  0  0  0  0
  182.0090  179.0030  141.4720 C   0  0  0  0  0  0  0  0  0  0  0  0
  181.9930  178.7490  143.9690 S   0  0  0  0  0  0  0  0  0  0  0  0
  180.7150  179.2290  141.8140 N   0  0  0  0  0  2  0  0  0  0  0  0
  182.8590  178.7220  142.5310 C   0  0  0  0  0  0  0  0  0  0  0  0
  183.8540  178.7870  139.9430 C   0  0  0  0  0  0  0  0  0  0  0  0
  184.2140  178.4660  142.3460 C   0  0  0  0  0  3  0  0  0  0  0  0
  184.7290  178.4980  141.0340 C   0  0  0  0  0  0  0  0  0  0  0  0
  191.4600  176.6840  143.5410 C   0  0  0  0  0  3  0  0  0  0  0  0
  188.8480  177.5480  144.0780 C   0  0  0  0  0  3  0  0  0  0  0  0
  191.4780  176.6940  147.2450 C   0  0  0  0  0  0  0  0  0  0  0  0
  191.9050  176.5480  145.9170 C   0  0  0  0  0  3  0  0  0  0  0  0
  191.0340  176.8300  144.8620 C   0  0  0  0  0  0  0  0  0  0  0  0
  189.2930  177.4130  146.4540 C   0  0  0  0  0  3  0  0  0  0  0  0
  189.7180  177.2660  145.1330 C   0  0  0  0  0  0  0  0  0  0  0  0
  190.1690  177.1280  147.5060 C   0  0  0  0  0  3  0  0  0  0  0  0
  189.2700  177.4030  142.7470 C   0  0  0  0  0  0  0  0  0  0  0  0
  190.5830  176.9680  142.4890 C   0  0  0  0  0  3  0  0  0  0  0  0
  192.4000  176.3950  148.3520 C   0  0  0  0  0  0  0  0  0  0  0  0
  192.8300  175.2240  148.5280 O   0  0  0  0  0  0  0  0  0  0  0  0
  192.8060  177.4050  149.2190 O   0  0  0  0  0  1  0  0  0  0  0  0
  1 21  1  0  0  0  0
  1  6  2  0  0  0  0
  2 15  1  0  0  0  0
  3  9  2  0  0  0  0
  3 16  1  0  0  0  0
  4 19  1  0  0  0  0
  5 11  2  0  0  0  0
  7 13  1  0  0  0  0
  7  5  1  0  0  0  0
  8 14  2  0  0  0  0
  8 10  1  0  0  0  0
 10  7  2  0  0  0  0
 11  6  1  0  0  0  0
 11 30  1  0  0  0  0
 12  4  2  0  0  0  0
 13 12  1  1  0  0  0
 13  1  1  0  0  0  0
 14 12  1  0  0  0  0
 15 17  1  0  0  0  0
 15 18  2  0  0  0  0
 17  3  1  0  0  0  0
 18 16  1  0  0  0  0
 19  2  2  0  0  0  0
 19 21  1  0  0  0  0
 20 18  1  0  0  0  0
 21 20  2  0  0  0  0
 22 26  1  0  0  0  0
 23 28  1  0  0  0  0
 24 29  1  0  0  0  0
 24 32  1  0  0  0  0
 25 24  2  0  0  0  0
 26 28  2  0  0  0  0
 26 25  1  0  0  0  0
 27 29  2  0  0  0  0
 28 27  1  0  0  0  0
 30 23  2  0  0  0  0
 31 30  1  0  0  0  0
 31 22  2  0  0  0  0
 32 33  2  0  0  0  0
 32 34  1  0  0  0  0
M  END
>  <MODEL>
7

>  <REMARK>
 VINA RESULT:     -10.0      3.962      6.769
  Name = 
  2 active torsions:
  status: ('A' for Active; 'I' for Inactive)
    1  A    between atoms: C_7  and  C_11
    2  A    between atoms: C_18  and  C_30
                            x       y       z     vdW  Elec       q    Type
                         _______ _______ _______ _____ _____    ______ ____

>  <TORSDO>
F 2

$$$$
=
 OpenBabel10262423303D

 34 40  0  0  1  0  0  0  0  0999 V2000
  189.3190  176.7600  137.9250 C   0  0  0  0  0  0  0  0  0  0  0  0
  187.2500  176.5710  134.8160 C   0  0  0  0  0  3  0  0  0  0  0  0
  183.7860  177.1280  135.4220 C   0  0  0  0  0  0  0  0  0  0  0  0
  189.6270  176.3020  135.1550 C   0  0  0  0  0  3  0  0  0  0  0  0
  191.5660  176.7130  139.6170 N   0  0  0  0  0  0  0  0  0  0  0  0
  189.1950  176.9970  139.3830 C   0  0  0  0  0  3  0  0  0  0  0  0
  191.7210  176.4810  138.2130 C   0  0  0  0  0  0  0  0  0  0  0  0
  193.1310  176.0030  136.3020 C   0  0  0  0  0  3  0  0  0  0  0  0
  182.6100  177.2210  134.9860 O   0  0  0  0  0  0  0  0  0  0  0  0
  192.9860  176.2300  137.6740 C   0  0  0  0  0  3  0  0  0  0  0  0
  190.2710  176.9740  140.1840 C   0  0  0  0  0  0  0  0  0  0  0  0
  190.7420  176.2780  135.9910 C   0  0  0  0  0  0  0  0  0  0  0  0
  190.5920  176.5070  137.3760 C   0  0  1  0  0  3  0  0  0  0  0  0
  192.0120  176.0270  135.4620 C   0  0  0  0  0  3  0  0  0  0  0  0
  185.9880  176.8210  135.3510 C   0  0  0  0  0  0  0  0  0  0  0  0
  184.2080  177.3160  137.0490 S   0  0  0  0  0  0  0  0  0  0  0  0
  184.8450  176.8640  134.6210 N   0  0  0  0  0  2  0  0  0  0  0  0
  185.8300  177.0470  136.7100 C   0  0  0  0  0  0  0  0  0  0  0  0
  188.3570  176.5520  135.6800 C   0  0  0  0  0  0  0  0  0  0  0  0
  186.9040  177.0350  137.5940 C   0  0  0  0  0  3  0  0  0  0  0  0
  188.1930  176.7850  137.0790 C   0  0  0  0  0  0  0  0  0  0  0  0
  191.1290  177.7290  143.8040 C   0  0  0  0  0  3  0  0  0  0  0  0
  188.8770  177.1360  142.2450 C   0  0  0  0  0  3  0  0  0  0  0  0
  188.4640  177.8000  146.3760 C   0  0  0  0  0  0  0  0  0  0  0  0
  189.7280  177.8740  145.7740 C   0  0  0  0  0  3  0  0  0  0  0  0
  189.8700  177.6540  144.4020 C   0  0  0  0  0  0  0  0  0  0  0  0
  187.4750  177.2820  144.2140 C   0  0  0  0  0  3  0  0  0  0  0  0
  188.7350  177.3560  143.6160 C   0  0  0  0  0  0  0  0  0  0  0  0
  187.3410  177.5030  145.5880 C   0  0  0  0  0  3  0  0  0  0  0  0
  190.1410  177.2100  141.6380 C   0  0  0  0  0  0  0  0  0  0  0  0
  191.2640  177.5070  142.4300 C   0  0  0  0  0  3  0  0  0  0  0  0
  188.3200  178.0320  147.8210 C   0  0  0  0  0  0  0  0  0  0  0  0
  187.1810  178.0350  148.3590 O   0  0  0  0  0  0  0  0  0  0  0  0
  189.4440  178.2530  148.6110 O   0  0  0  0  0  1  0  0  0  0  0  0
  1  6  1  0  0  0  0
  2 15  2  0  0  0  0
  2 19  1  0  0  0  0
  3 16  1  0  0  0  0
  4 19  2  0  0  0  0
  4 12  1  0  0  0  0
  5 11  1  0  0  0  0
  6 11  2  0  0  0  0
  7  5  2  0  0  0  0
  8 10  2  0  0  0  0
  9  3  2  0  0  0  0
 10  7  1  0  0  0  0
 11 30  1  0  0  0  0
 13 12  1  1  0  0  0
 13  1  1  0  0  0  0
 13  7  1  0  0  0  0
 14 12  2  0  0  0  0
 14  8  1  0  0  0  0
 15 18  1  0  0  0  0
 17 15  1  0  0  0  0
 17  3  1  0  0  0  0
 18 16  1  0  0  0  0
 18 20  2  0  0  0  0
 19 21  1  0  0  0  0
 21 20  1  0  0  0  0
 21  1  2  0  0  0  0
 22 26  1  0  0  0  0
 23 28  1  0  0  0  0
 24 32  1  0  0  0  0
 25 24  1  0  0  0  0
 26 25  2  0  0  0  0
 27 29  1  0  0  0  0
 28 27  2  0  0  0  0
 28 26  1  0  0  0  0
 29 24  2  0  0  0  0
 30 23  2  0  0  0  0
 30 31  1  0  0  0  0
 31 22  2  0  0  0  0
 32 33  2  0  0  0  0
 32 34  1  0  0  0  0
M  END
>  <MODEL>
8

>  <REMARK>
 VINA RESULT:     -10.0      4.149      8.592
  Name = 
  2 active torsions:
  status: ('A' for Active; 'I' for Inactive)
    1  A    between atoms: C_7  and  C_11
    2  A    between atoms: C_18  and  C_30
                            x       y       z     vdW  Elec       q    Type
                         _______ _______ _______ _____ _____    ______ ____

>  <TORSDO>
F 2

$$$$
