=
 OpenBabel10262420383D

 55 59  0  0  1  0  0  0  0  0999 V2000
  187.9190  178.3910  136.0740 C   0  0  0  0  0  2  0  0  0  0  0  0
  185.9560  176.2500  135.8240 C   0  0  2  0  0  3  0  0  0  0  0  0
  185.6460  177.4840  136.6960 C   0  0  0  0  0  2  0  0  0  0  0  0
  187.7990  177.3390  134.9670 C   0  0  0  0  0  2  0  0  0  0  0  0
  186.9180  178.1630  137.2080 C   0  0  1  0  0  3  0  0  0  0  0  0
  187.3210  176.1090  135.4780 O   0  0  0  0  0  0  0  0  0  0  0  0
  185.0670  176.1930  134.5950 C   0  0  0  0  0  2  0  0  0  0  0  0
  183.6750  176.7040  134.9580 C   0  0  0  0  0  2  0  0  0  0  0  0
  182.6980  175.5500  135.0080 C   0  0  0  0  0  2  0  0  0  0  0  0
  182.0670  175.4210  136.3870 C   0  0  1  0  0  3  0  0  0  0  0  0
  183.0440  174.7270  137.3240 C   0  0  0  0  0  1  0  0  0  0  0  0
  181.7790  176.7040  136.8820 O   0  0  0  0  0  0  0  0  0  0  0  0
  179.7580  177.0860  135.5650 C   0  0  0  0  0  1  0  0  0  0  0  0
  180.3770  176.9470  136.9560 C   0  0  1  0  0  0  0  0  0  0  0  0
  179.8130  175.8110  137.5280 O   0  0  0  0  0  1  0  0  0  0  0  0
  180.4550  177.8770  140.2630 C   0  0  0  0  0  0  0  0  0  0  0  0
  181.0290  180.3800  139.9550 O   0  0  0  0  0  0  0  0  0  0  0  0
  180.0390  178.1990  137.8300 C   0  0  1  0  0  0  0  0  0  0  0  0
  182.4080  178.7870  138.1060 F   0  0  0  0  0  0  0  0  0  0  0  0
  181.1500  179.2540  137.7770 C   0  0  2  0  0  3  0  0  0  0  0  0
  181.7410  177.0920  140.0910 C   0  0  0  0  0  1  0  0  0  0  0  0
  180.7740  179.2770  140.7760 C   0  0  0  0  0  0  0  0  0  0  0  0
  179.6980  177.1440  141.3620 C   0  0  0  0  0  1  0  0  0  0  0  0
  180.7490  180.4880  138.5670 C   0  0  2  0  0  3  0  0  0  0  0  0
  178.9430  178.8060  137.2430 F   0  0  0  0  0  0  0  0  0  0  0  0
  180.9770  179.4360  142.0130 O   0  0  0  0  0  0  0  0  0  0  0  0
  179.5820  177.8350  139.1360 O   0  0  0  0  0  0  0  0  0  0  0  0
  181.3630  181.7560  137.9930 C   0  0  0  0  0  2  0  0  0  0  0  0
  180.4150  182.4750  137.0670 C   0  0  0  0  0  1  0  0  0  0  0  0
  187.5770  177.3700  138.3200 C   0  0  0  0  0  2  0  0  0  0  0  0
  188.7750  178.1160  138.8740 C   0  0  0  0  0  2  0  0  0  0  0  0
  189.3100  177.4070  140.1250 C   0  0  2  0  0  3  0  0  0  0  0  0
  188.5250  176.5500  142.6750 C   0  0  0  0  0  2  0  0  0  0  0  0
  188.3370  177.3230  145.1370 C   0  0  0  0  0  2  0  0  0  0  0  0
  189.9970  178.5050  143.6780 C   0  0  2  0  0  3  0  0  0  0  0  0
  189.8060  177.6940  144.9560 C   0  0  0  0  0  2  0  0  0  0  0  0
  187.8910  176.3190  144.0620 C   0  0  0  0  0  2  0  0  0  0  0  0
  189.1380  177.9640  142.5270 C   0  0  2  0  0  0  0  0  0  0  0  0
  191.3540  178.4750  143.3300 O   0  0  0  0  0  1  0  0  0  0  0  0
  188.3860  179.0030  141.8120 C   0  0  1  0  0  3  0  0  0  0  0  0
  189.6010  178.3960  141.1800 N   0  0  0  0  0  0  0  0  0  0  0  0
  187.0450  178.5590  141.2020 C   0  0  0  0  0  2  0  0  0  0  0  0
  185.6260  178.4620  143.1000 F   0  0  0  0  0  0  0  0  0  0  0  0
  185.8520  179.1650  141.9340 C   0  0  2  0  0  3  0  0  0  0  0  0
  184.6120  179.0930  141.0750 C   0  0  0  0  0  2  0  0  0  0  0  0
  184.8660  179.6630  139.8250 O   0  0  0  0  0  1  0  0  0  0  0  0
  191.7040  177.1420  140.4840 C   0  0  0  0  0  2  0  0  0  0  0  0
  190.7830  176.5670  138.4620 C   0  0  0  0  0  2  0  0  0  0  0  0
  192.2780  176.6270  138.3620 C   0  0  1  0  0  3  0  0  0  0  0  0
  192.7450  177.2250  139.5380 O   0  0  0  0  0  0  0  0  0  0  0  0
  190.5040  176.5800  139.8740 N   0  0  0  0  0  0  0  0  0  0  0  0
  192.8670  175.2230  138.2350 C   0  0  0  0  0  2  0  0  0  0  0  0
  194.0670  175.1840  137.3390 C   0  0  0  0  0  0  0  0  0  0  0  0
  194.2960  176.2320  136.4510 O   0  0  0  0  0  0  0  0  0  0  0  0
  194.8740  174.2140  137.3690 O   0  0  0  0  0  1  0  0  0  0  0  0
  1  5  1  0  0  0  0
  2  7  1  6  0  0  0
  2  3  1  0  0  0  0
  3  5  1  0  0  0  0
  4  6  1  0  0  0  0
  4  1  1  0  0  0  0
  5 30  1  1  0  0  0
  6  2  1  0  0  0  0
  7  8  1  0  0  0  0
  8  9  1  0  0  0  0
  9 10  1  0  0  0  0
 10 12  1  0  0  0  0
 10 11  1  1  0  0  0
 12 14  1  0  0  0  0
 14 13  1  6  0  0  0
 14 15  1  0  0  0  0
 14 18  1  0  0  0  0
 16 22  1  0  0  0  0
 16 23  1  0  0  0  0
 17 22  1  0  0  0  0
 18 25  1  6  0  0  0
 18 27  1  0  0  0  0
 20 18  1  0  0  0  0
 20 19  1  1  0  0  0
 20 24  1  0  0  0  0
 21 16  1  0  0  0  0
 22 26  2  0  0  0  0
 24 28  1  6  0  0  0
 24 17  1  0  0  0  0
 27 16  1  0  0  0  0
 29 28  1  0  0  0  0
 30 31  1  0  0  0  0
 32 31  1  6  0  0  0
 32 41  1  0  0  0  0
 33 37  1  0  0  0  0
 35 39  1  6  0  0  0
 35 36  1  0  0  0  0
 36 34  1  0  0  0  0
 37 34  1  0  0  0  0
 38 33  1  1  0  0  0
 38 35  1  0  0  0  0
 40 42  1  6  0  0  0
 40 38  1  0  0  0  0
 41 40  1  0  0  0  0
 41 38  1  0  0  0  0
 42 44  1  0  0  0  0
 44 43  1  1  0  0  0
 45 44  1  0  0  0  0
 46 45  1  0  0  0  0
 48 51  1  0  0  0  0
 49 52  1  1  0  0  0
 49 48  1  0  0  0  0
 49 50  1  0  0  0  0
 50 47  1  0  0  0  0
 51 32  1  0  0  0  0
 51 47  1  0  0  0  0
 53 55  1  0  0  0  0
 53 52  1  0  0  0  0
 54 53  2  0  0  0  0
M  END
>  <MODEL>
1

>  <REMARK>
 VINA RESULT:      -6.7      0.000      0.000
  Name = 
  18 active torsions:
  status: ('A' for Active; 'I' for Inactive)
    1  A    between atoms: C_2  and  C_28
    2  A    between atoms: C_2  and  C_44
    3  A    between atoms: C_4  and  C_40
    4  A    between atoms: C_6  and  C_20
    5  A    between atoms: C_8  and  O_22
    6  A    between atoms: C_8  and  C_35
    7  A    between atoms: C_10  and  C_32
    8  A    between atoms: C_11  and  C_38
    9  A    between atoms: C_19  and  C_40
   10  A    between atoms: C_19  and  C_45
   11  A    between atoms: C_20  and  O_22
   12  A    between atoms: C_27  and  C_54
   13  A    between atoms: C_28  and  C_33
   14  A    between atoms: C_32  and  C_39
   15  A    between atoms: C_33  and  N_49
   16  A    between atoms: C_33  and  N_52
   17  A    between atoms: C_35  and  C_51
   18  A    between atoms: C_51  and  C_54
                            x       y       z     vdW  Elec       q    Type
                         _______ _______ _______ _____ _____    ______ ____

>  <TORSDO>
F 18

$$$$
=
 OpenBabel10262420383D

 55 59  0  0  1  0  0  0  0  0999 V2000
  191.5640  177.7650  142.8610 C   0  0  0  0  0  2  0  0  0  0  0  0
  188.6960  177.3290  142.5800 C   0  0  2  0  0  3  0  0  0  0  0  0
  189.6880  176.2070  142.2080 C   0  0  0  0  0  2  0  0  0  0  0  0
  190.4200  178.5070  143.5580 C   0  0  0  0  0  2  0  0  0  0  0  0
  191.0630  176.7580  141.8250 C   0  0  1  0  0  3  0  0  0  0  0  0
  189.2860  178.6070  142.7170 O   0  0  0  0  0  0  0  0  0  0  0  0
  187.8730  176.9680  143.8040 C   0  0  0  0  0  2  0  0  0  0  0  0
  186.5840  177.7850  143.8010 C   0  0  0  0  0  2  0  0  0  0  0  0
  186.0850  177.9560  142.3830 C   0  0  0  0  0  2  0  0  0  0  0  0
  184.5890  178.2360  142.3540 C   0  0  1  0  0  3  0  0  0  0  0  0
  184.1920  178.9770  143.6210 C   0  0  0  0  0  1  0  0  0  0  0  0
  184.2930  179.0340  141.2360 O   0  0  0  0  0  0  0  0  0  0  0  0
  183.3340  177.0250  140.2310 C   0  0  0  0  0  1  0  0  0  0  0  0
  183.1910  178.5250  140.4910 C   0  0  1  0  0  0  0  0  0  0  0  0
  182.0680  178.6810  141.2990 O   0  0  0  0  0  1  0  0  0  0  0  0
  181.9140  177.9280  137.3560 C   0  0  0  0  0  0  0  0  0  0  0  0
  180.9620  180.2820  136.8640 O   0  0  0  0  0  0  0  0  0  0  0  0
  182.9800  179.2930  139.1450 C   0  0  1  0  0  0  0  0  0  0  0  0
  180.5730  179.5700  139.5480 F   0  0  0  0  0  0  0  0  0  0  0  0
  181.7480  180.2030  139.1890 C   0  0  2  0  0  3  0  0  0  0  0  0
  180.9320  177.2230  138.2730 C   0  0  0  0  0  1  0  0  0  0  0  0
  181.1740  178.9480  136.5000 C   0  0  0  0  0  0  0  0  0  0  0  0
  182.4310  176.8360  136.4310 C   0  0  0  0  0  1  0  0  0  0  0  0
  181.6250  180.9940  137.8990 C   0  0  2  0  0  3  0  0  0  0  0  0
  184.0540  180.1530  139.0100 F   0  0  0  0  0  0  0  0  0  0  0  0
  180.5730  178.5450  135.4630 O   0  0  0  0  0  0  0  0  0  0  0  0
  183.0790  178.4260  138.0110 O   0  0  0  0  0  0  0  0  0  0  0  0
  180.9700  182.3490  138.1210 C   0  0  0  0  0  2  0  0  0  0  0  0
  179.7220  182.5180  137.2910 C   0  0  0  0  0  1  0  0  0  0  0  0
  191.0570  177.3980  140.4500 C   0  0  0  0  0  2  0  0  0  0  0  0
  192.0700  176.7290  139.5420 C   0  0  0  0  0  2  0  0  0  0  0  0
  191.4460  176.4450  138.1690 C   0  0  2  0  0  3  0  0  0  0  0  0
  190.0270  176.0930  135.7790 C   0  0  0  0  0  2  0  0  0  0  0  0
  187.8880  175.0190  134.7960 C   0  0  0  0  0  2  0  0  0  0  0  0
  188.7900  174.0570  136.9270 C   0  0  2  0  0  3  0  0  0  0  0  0
  188.4100  173.7590  135.4800 C   0  0  0  0  0  2  0  0  0  0  0  0
  189.0150  176.0490  134.6160 C   0  0  0  0  0  2  0  0  0  0  0  0
  189.4900  175.4160  137.0630 C   0  0  2  0  0  0  0  0  0  0  0  0
  189.6240  173.0300  137.3890 O   0  0  0  0  0  1  0  0  0  0  0  0
  188.9540  176.2500  138.1470 C   0  0  1  0  0  3  0  0  0  0  0  0
  190.2740  175.5620  138.3200 N   0  0  0  0  0  0  0  0  0  0  0  0
  189.0380  177.7710  137.9250 C   0  0  0  0  0  2  0  0  0  0  0  0
  187.6470  178.6730  139.6210 F   0  0  0  0  0  0  0  0  0  0  0  0
  187.7250  178.4730  138.2570 C   0  0  2  0  0  3  0  0  0  0  0  0
  186.5510  177.6310  137.8210 C   0  0  0  0  0  2  0  0  0  0  0  0
  186.0580  178.0970  136.5990 O   0  0  0  0  0  1  0  0  0  0  0  0
  192.7280  174.4790  137.5210 C   0  0  0  0  0  2  0  0  0  0  0  0
  193.6390  176.5690  137.2650 C   0  0  0  0  0  2  0  0  0  0  0  0
  194.6920  175.5130  137.1100 C   0  0  1  0  0  3  0  0  0  0  0  0
  194.1260  174.3030  137.5300 O   0  0  0  0  0  0  0  0  0  0  0  0
  192.3890  175.8590  137.1990 N   0  0  0  0  0  0  0  0  0  0  0  0
  195.1260  175.3930  135.6510 C   0  0  0  0  0  2  0  0  0  0  0  0
  196.6160  175.4060  135.4930 C   0  0  0  0  0  0  0  0  0  0  0  0
  197.3700  176.3660  136.1640 O   0  0  0  0  0  1  0  0  0  0  0  0
  197.2040  174.5650  134.7580 O   0  0  0  0  0  0  0  0  0  0  0  0
  1  4  1  0  0  0  0
  2  6  1  0  0  0  0
  2  7  1  1  0  0  0
  3  2  1  0  0  0  0
  5 30  1  6  0  0  0
  5  3  1  0  0  0  0
  5  1  1  0  0  0  0
  6  4  1  0  0  0  0
  8  7  1  0  0  0  0
  9  8  1  0  0  0  0
 10  9  1  0  0  0  0
 10 11  1  1  0  0  0
 12 10  1  0  0  0  0
 14 13  1  6  0  0  0
 14 12  1  0  0  0  0
 14 15  1  0  0  0  0
 16 27  1  0  0  0  0
 16 21  1  0  0  0  0
 17 24  1  0  0  0  0
 18 25  1  6  0  0  0
 18 20  1  0  0  0  0
 18 14  1  0  0  0  0
 20 19  1  6  0  0  0
 22 17  1  0  0  0  0
 22 16  1  0  0  0  0
 23 16  1  0  0  0  0
 24 28  1  1  0  0  0
 24 20  1  0  0  0  0
 26 22  2  0  0  0  0
 27 18  1  0  0  0  0
 29 28  1  0  0  0  0
 31 30  1  0  0  0  0
 32 41  1  0  0  0  0
 32 31  1  1  0  0  0
 34 36  1  0  0  0  0
 35 38  1  0  0  0  0
 35 39  1  6  0  0  0
 36 35  1  0  0  0  0
 37 34  1  0  0  0  0
 37 33  1  0  0  0  0
 38 33  1  6  0  0  0
 38 40  1  0  0  0  0
 38 41  1  0  0  0  0
 40 42  1  6  0  0  0
 40 41  1  0  0  0  0
 42 44  1  0  0  0  0
 44 43  1  1  0  0  0
 45 44  1  0  0  0  0
 46 45  1  0  0  0  0
 47 50  1  0  0  0  0
 49 52  1  6  0  0  0
 49 48  1  0  0  0  0
 49 50  1  0  0  0  0
 51 48  1  0  0  0  0
 51 47  1  0  0  0  0
 51 32  1  0  0  0  0
 53 52  1  0  0  0  0
 53 54  1  0  0  0  0
 55 53  2  0  0  0  0
M  END
>  <MODEL>
2

>  <REMARK>
 VINA RESULT:      -6.5      2.084      5.728
  Name = 
  18 active torsions:
  status: ('A' for Active; 'I' for Inactive)
    1  A    between atoms: C_2  and  C_28
    2  A    between atoms: C_2  and  C_44
    3  A    between atoms: C_4  and  C_40
    4  A    between atoms: C_6  and  C_20
    5  A    between atoms: C_8  and  O_22
    6  A    between atoms: C_8  and  C_35
    7  A    between atoms: C_10  and  C_32
    8  A    between atoms: C_11  and  C_38
    9  A    between atoms: C_19  and  C_40
   10  A    between atoms: C_19  and  C_45
   11  A    between atoms: C_20  and  O_22
   12  A    between atoms: C_27  and  C_54
   13  A    between atoms: C_28  and  C_33
   14  A    between atoms: C_32  and  C_39
   15  A    between atoms: C_33  and  N_49
   16  A    between atoms: C_33  and  N_52
   17  A    between atoms: C_35  and  C_51
   18  A    between atoms: C_51  and  C_54
                            x       y       z     vdW  Elec       q    Type
                         _______ _______ _______ _____ _____    ______ ____

>  <TORSDO>
F 18

$$$$
=
 OpenBabel10262420383D

 55 59  0  0  1  0  0  0  0  0999 V2000
  189.4260  176.2500  141.9840 C   0  0  0  0  0  2  0  0  0  0  0  0
  191.4770  177.0550  143.8910 C   0  0  2  0  0  3  0  0  0  0  0  0
  190.7690  178.1170  143.0270 C   0  0  0  0  0  2  0  0  0  0  0  0
  189.9230  175.4910  143.2180 C   0  0  0  0  0  2  0  0  0  0  0  0
  190.2230  177.5290  141.7230 C   0  0  1  0  0  3  0  0  0  0  0  0
  191.3010  175.7250  143.4430 O   0  0  0  0  0  0  0  0  0  0  0  0
  191.1180  177.1940  145.3600 C   0  0  0  0  0  2  0  0  0  0  0  0
  189.8300  178.0030  145.4860 C   0  0  0  0  0  2  0  0  0  0  0  0
  188.6650  177.0800  145.7670 C   0  0  0  0  0  2  0  0  0  0  0  0
  187.5570  177.8020  146.5220 C   0  0  1  0  0  3  0  0  0  0  0  0
  188.1220  178.3810  147.8090 C   0  0  0  0  0  1  0  0  0  0  0  0
  187.0600  178.8430  145.7220 O   0  0  0  0  0  0  0  0  0  0  0  0
  184.9910  177.9260  146.6400 C   0  0  0  0  0  1  0  0  0  0  0  0
  185.6900  179.1240  145.9970 C   0  0  1  0  0  0  0  0  0  0  0  0
  185.6840  180.1420  146.9450 O   0  0  0  0  0  1  0  0  0  0  0  0
  185.6930  178.5160  142.6150 C   0  0  0  0  0  0  0  0  0  0  0  0
  183.1600  178.7880  142.1640 O   0  0  0  0  0  0  0  0  0  0  0  0
  184.9130  179.5880  144.7220 C   0  0  1  0  0  0  0  0  0  0  0  0
  183.6240  177.5000  144.6100 F   0  0  0  0  0  0  0  0  0  0  0  0
  183.5600  178.8800  144.5850 C   0  0  2  0  0  3  0  0  0  0  0  0
  185.9010  177.1400  143.2170 C   0  0  0  0  0  1  0  0  0  0  0  0
  184.4570  178.5030  141.7230 C   0  0  0  0  0  0  0  0  0  0  0  0
  186.9050  178.7350  141.7210 C   0  0  0  0  0  1  0  0  0  0  0  0
  182.7990  179.4170  143.3850 C   0  0  2  0  0  3  0  0  0  0  0  0
  184.5990  180.9210  144.9140 F   0  0  0  0  0  0  0  0  0  0  0  0
  184.5660  178.0600  140.5440 O   0  0  0  0  0  0  0  0  0  0  0  0
  185.7430  179.5860  143.5570 O   0  0  0  0  0  0  0  0  0  0  0  0
  181.2930  179.3580  143.5920 C   0  0  0  0  0  2  0  0  0  0  0  0
  180.5510  179.1370  142.2980 C   0  0  0  0  0  1  0  0  0  0  0  0
  191.3260  177.2490  140.7210 C   0  0  0  0  0  2  0  0  0  0  0  0
  190.9540  177.7790  139.3510 C   0  0  0  0  0  2  0  0  0  0  0  0
  191.2900  176.7430  138.2710 C   0  0  2  0  0  3  0  0  0  0  0  0
  189.9010  176.3470  135.8690 C   0  0  0  0  0  2  0  0  0  0  0  0
  188.0070  174.9500  134.7950 C   0  0  0  0  0  2  0  0  0  0  0  0
  189.1590  173.9850  136.8010 C   0  0  2  0  0  3  0  0  0  0  0  0
  188.8040  173.7660  135.3330 C   0  0  0  0  0  2  0  0  0  0  0  0
  188.8850  176.2100  134.7180 C   0  0  0  0  0  2  0  0  0  0  0  0
  189.5610  175.4400  137.0770 C   0  0  2  0  0  0  0  0  0  0  0  0
  190.2050  173.1180  137.1410 O   0  0  0  0  0  1  0  0  0  0  0  0
  188.8960  176.0240  138.2500 C   0  0  1  0  0  3  0  0  0  0  0  0
  190.3360  175.6190  138.3350 N   0  0  0  0  0  0  0  0  0  0  0  0
  188.6500  177.5430  138.1940 C   0  0  0  0  0  2  0  0  0  0  0  0
  186.5870  176.7430  137.3410 F   0  0  0  0  0  0  0  0  0  0  0  0
  187.2090  177.8770  137.8230 C   0  0  2  0  0  3  0  0  0  0  0  0
  187.1720  178.9420  136.7540 C   0  0  0  0  0  2  0  0  0  0  0  0
  188.3130  179.7460  136.8420 O   0  0  0  0  0  1  0  0  0  0  0  0
  193.5480  176.8490  137.3660 C   0  0  0  0  0  2  0  0  0  0  0  0
  192.6750  174.8290  138.0170 C   0  0  0  0  0  2  0  0  0  0  0  0
  193.9230  174.6280  137.2110 C   0  0  1  0  0  3  0  0  0  0  0  0
  194.2480  175.8640  136.6400 O   0  0  0  0  0  0  0  0  0  0  0  0
  192.6700  176.2290  138.3500 N   0  0  0  0  0  0  0  0  0  0  0  0
  195.0720  174.1610  138.1030 C   0  0  0  0  0  2  0  0  0  0  0  0
  196.4000  174.2370  137.4140 C   0  0  0  0  0  0  0  0  0  0  0  0
  197.4080  175.0350  137.9500 O   0  0  0  0  0  1  0  0  0  0  0  0
  196.6240  173.5950  136.3510 O   0  0  0  0  0  0  0  0  0  0  0  0
  1  4  1  0  0  0  0
  2  7  1  1  0  0  0
  3  2  1  0  0  0  0
  4  6  1  0  0  0  0
  5 30  1  6  0  0  0
  5  1  1  0  0  0  0
  5  3  1  0  0  0  0
  6  2  1  0  0  0  0
  7  8  1  0  0  0  0
  8  9  1  0  0  0  0
  9 10  1  0  0  0  0
 10 11  1  1  0  0  0
 12 14  1  0  0  0  0
 12 10  1  0  0  0  0
 14 13  1  1  0  0  0
 14 15  1  0  0  0  0
 16 21  1  0  0  0  0
 16 27  1  0  0  0  0
 17 24  1  0  0  0  0
 18 25  1  1  0  0  0
 18 14  1  0  0  0  0
 20 19  1  6  0  0  0
 20 18  1  0  0  0  0
 22 17  1  0  0  0  0
 22 16  1  0  0  0  0
 23 16  1  0  0  0  0
 24 28  1  1  0  0  0
 24 20  1  0  0  0  0
 26 22  2  0  0  0  0
 27 18  1  0  0  0  0
 29 28  1  0  0  0  0
 31 30  1  0  0  0  0
 32 41  1  0  0  0  0
 32 51  1  0  0  0  0
 32 31  1  1  0  0  0
 34 36  1  0  0  0  0
 35 38  1  0  0  0  0
 35 39  1  6  0  0  0
 36 35  1  0  0  0  0
 37 34  1  0  0  0  0
 37 33  1  0  0  0  0
 38 33  1  6  0  0  0
 38 40  1  0  0  0  0
 38 41  1  0  0  0  0
 40 42  1  6  0  0  0
 40 41  1  0  0  0  0
 44 43  1  6  0  0  0
 44 42  1  0  0  0  0
 45 46  1  0  0  0  0
 45 44  1  0  0  0  0
 47 51  1  0  0  0  0
 48 51  1  0  0  0  0
 49 48  1  0  0  0  0
 49 52  1  1  0  0  0
 50 49  1  0  0  0  0
 50 47  1  0  0  0  0
 53 54  1  0  0  0  0
 53 52  1  0  0  0  0
 55 53  2  0  0  0  0
M  END
>  <MODEL>
3

>  <REMARK>
 VINA RESULT:      -5.6      3.417      7.436
  Name = 
  18 active torsions:
  status: ('A' for Active; 'I' for Inactive)
    1  A    between atoms: C_2  and  C_28
    2  A    between atoms: C_2  and  C_44
    3  A    between atoms: C_4  and  C_40
    4  A    between atoms: C_6  and  C_20
    5  A    between atoms: C_8  and  O_22
    6  A    between atoms: C_8  and  C_35
    7  A    between atoms: C_10  and  C_32
    8  A    between atoms: C_11  and  C_38
    9  A    between atoms: C_19  and  C_40
   10  A    between atoms: C_19  and  C_45
   11  A    between atoms: C_20  and  O_22
   12  A    between atoms: C_27  and  C_54
   13  A    between atoms: C_28  and  C_33
   14  A    between atoms: C_32  and  C_39
   15  A    between atoms: C_33  and  N_49
   16  A    between atoms: C_33  and  N_52
   17  A    between atoms: C_35  and  C_51
   18  A    between atoms: C_51  and  C_54
                            x       y       z     vdW  Elec       q    Type
                         _______ _______ _______ _____ _____    ______ ____

>  <TORSDO>
F 18

$$$$
=
 OpenBabel10262420383D

 55 59  0  0  1  0  0  0  0  0999 V2000
  183.8210  178.3530  144.1130 C   0  0  0  0  0  2  0  0  0  0  0  0
  182.6910  178.9570  141.4950 C   0  0  2  0  0  3  0  0  0  0  0  0
  183.8810  177.9830  141.6160 C   0  0  0  0  0  2  0  0  0  0  0  0
  182.4260  178.8930  143.7840 C   0  0  0  0  0  2  0  0  0  0  0  0
  184.7120  178.2410  142.8750 C   0  0  1  0  0  3  0  0  0  0  0  0
  182.4580  179.7390  142.6500 O   0  0  0  0  0  0  0  0  0  0  0  0
  181.4270  178.2460  141.0460 C   0  0  0  0  0  2  0  0  0  0  0  0
  180.3900  179.2840  140.6260 C   0  0  0  0  0  2  0  0  0  0  0  0
  179.6140  178.7840  139.4280 C   0  0  0  0  0  2  0  0  0  0  0  0
  180.1000  179.4380  138.1420 C   0  0  1  0  0  3  0  0  0  0  0  0
  180.5450  180.8610  138.4400 C   0  0  0  0  0  1  0  0  0  0  0  0
  181.1870  178.7060  137.6370 O   0  0  0  0  0  0  0  0  0  0  0  0
  179.4570  178.2380  135.9780 C   0  0  0  0  0  1  0  0  0  0  0  0
  180.9490  178.2380  136.3130 C   0  0  1  0  0  0  0  0  0  0  0  0
  181.5470  179.1600  135.4590 O   0  0  0  0  0  1  0  0  0  0  0  0
  183.9970  176.6710  136.5590 C   0  0  0  0  0  0  0  0  0  0  0  0
  183.1750  174.3140  137.2390 O   0  0  0  0  0  0  0  0  0  0  0  0
  181.5610  176.8200  136.0670 C   0  0  1  0  0  0  0  0  0  0  0  0
  181.6480  176.3170  138.4700 F   0  0  0  0  0  0  0  0  0  0  0  0
  181.2660  175.8580  137.2240 C   0  0  2  0  0  3  0  0  0  0  0  0
  183.9520  177.5430  137.7990 C   0  0  0  0  0  1  0  0  0  0  0  0
  184.2080  175.2160  136.9630 C   0  0  0  0  0  0  0  0  0  0  0  0
  185.2410  177.1270  135.8110 C   0  0  0  0  0  1  0  0  0  0  0  0
  181.8020  174.4720  136.9120 C   0  0  2  0  0  3  0  0  0  0  0  0
  180.8950  176.2850  134.9800 F   0  0  0  0  0  0  0  0  0  0  0  0
  185.3820  174.8240  137.2200 O   0  0  0  0  0  0  0  0  0  0  0  0
  182.9260  176.8910  135.6440 O   0  0  0  0  0  0  0  0  0  0  0  0
  180.9680  173.3780  137.5630 C   0  0  0  0  0  2  0  0  0  0  0  0
  179.6030  173.8740  137.9700 C   0  0  0  0  0  1  0  0  0  0  0  0
  185.5670  179.4870  142.7460 C   0  0  0  0  0  2  0  0  0  0  0  0
  186.5300  179.3590  141.5830 C   0  0  0  0  0  2  0  0  0  0  0  0
  187.5530  178.2490  141.8610 C   0  0  2  0  0  3  0  0  0  0  0  0
  189.4280  176.2830  142.5460 C   0  0  0  0  0  2  0  0  0  0  0  0
  191.4750  175.8320  144.0630 C   0  0  0  0  0  2  0  0  0  0  0  0
  190.9690  178.2170  143.4830 C   0  0  2  0  0  3  0  0  0  0  0  0
  192.0160  177.1080  143.4260 C   0  0  0  0  0  2  0  0  0  0  0  0
  190.3420  175.2340  143.2120 C   0  0  0  0  0  2  0  0  0  0  0  0
  189.5610  177.6850  143.1880 C   0  0  2  0  0  0  0  0  0  0  0  0
  191.3200  179.2090  142.5570 O   0  0  0  0  0  1  0  0  0  0  0  0
  188.5460  178.1340  144.1520 C   0  0  1  0  0  3  0  0  0  0  0  0
  188.5940  178.7420  142.7830 N   0  0  0  0  0  0  0  0  0  0  0  0
  187.3750  177.1640  144.3920 C   0  0  0  0  0  2  0  0  0  0  0  0
  185.8840  177.7650  146.1360 F   0  0  0  0  0  0  0  0  0  0  0  0
  187.0280  177.0380  145.8720 C   0  0  2  0  0  3  0  0  0  0  0  0
  188.1520  177.5750  146.7250 C   0  0  0  0  0  2  0  0  0  0  0  0
  187.7520  177.6250  148.0640 O   0  0  0  0  0  1  0  0  0  0  0  0
  189.1340  178.6360  140.0500 C   0  0  0  0  0  2  0  0  0  0  0  0
  187.1770  177.5130  139.6340 C   0  0  0  0  0  2  0  0  0  0  0  0
  187.8380  177.9130  138.3490 C   0  0  1  0  0  3  0  0  0  0  0  0
  188.8680  178.8020  138.6760 O   0  0  0  0  0  0  0  0  0  0  0  0
  188.1840  177.7050  140.6450 N   0  0  0  0  0  0  0  0  0  0  0  0
  188.4230  176.6930  137.6400 C   0  0  0  0  0  2  0  0  0  0  0  0
  189.5070  177.0570  136.6720 C   0  0  0  0  0  0  0  0  0  0  0  0
  189.1680  177.5590  135.4180 O   0  0  0  0  0  0  0  0  0  0  0  0
  190.7240  176.9140  136.9700 O   0  0  0  0  0  1  0  0  0  0  0  0
  2  7  1  1  0  0  0
  2  3  1  0  0  0  0
  2  6  1  0  0  0  0
  3  5  1  0  0  0  0
  4  1  1  0  0  0  0
  5 30  1  6  0  0  0
  5  1  1  0  0  0  0
  6  4  1  0  0  0  0
  8  7  1  0  0  0  0
  9  8  1  0  0  0  0
 10 11  1  1  0  0  0
 10  9  1  0  0  0  0
 12 10  1  0  0  0  0
 14 13  1  6  0  0  0
 14 12  1  0  0  0  0
 15 14  1  0  0  0  0
 16 22  1  0  0  0  0
 16 21  1  0  0  0  0
 18 25  1  6  0  0  0
 18 14  1  0  0  0  0
 18 20  1  0  0  0  0
 20 19  1  1  0  0  0
 22 26  2  0  0  0  0
 22 17  1  0  0  0  0
 23 16  1  0  0  0  0
 24 20  1  0  0  0  0
 24 17  1  0  0  0  0
 24 28  1  1  0  0  0
 27 18  1  0  0  0  0
 27 16  1  0  0  0  0
 28 29  1  0  0  0  0
 31 30  1  0  0  0  0
 32 31  1  6  0  0  0
 32 41  1  0  0  0  0
 33 37  1  0  0  0  0
 35 39  1  6  0  0  0
 36 35  1  0  0  0  0
 36 34  1  0  0  0  0
 37 34  1  0  0  0  0
 38 33  1  6  0  0  0
 38 35  1  0  0  0  0
 38 40  1  0  0  0  0
 40 42  1  6  0  0  0
 41 38  1  0  0  0  0
 41 40  1  0  0  0  0
 42 44  1  0  0  0  0
 44 43  1  6  0  0  0
 44 45  1  0  0  0  0
 45 46  1  0  0  0  0
 47 51  1  0  0  0  0
 48 51  1  0  0  0  0
 49 52  1  1  0  0  0
 49 50  1  0  0  0  0
 49 48  1  0  0  0  0
 50 47  1  0  0  0  0
 51 32  1  0  0  0  0
 53 55  1  0  0  0  0
 53 52  1  0  0  0  0
 54 53  2  0  0  0  0
M  END
>  <MODEL>
4

>  <REMARK>
 VINA RESULT:      -5.6      2.220      5.356
  Name = 
  18 active torsions:
  status: ('A' for Active; 'I' for Inactive)
    1  A    between atoms: C_2  and  C_28
    2  A    between atoms: C_2  and  C_44
    3  A    between atoms: C_4  and  C_40
    4  A    between atoms: C_6  and  C_20
    5  A    between atoms: C_8  and  O_22
    6  A    between atoms: C_8  and  C_35
    7  A    between atoms: C_10  and  C_32
    8  A    between atoms: C_11  and  C_38
    9  A    between atoms: C_19  and  C_40
   10  A    between atoms: C_19  and  C_45
   11  A    between atoms: C_20  and  O_22
   12  A    between atoms: C_27  and  C_54
   13  A    between atoms: C_28  and  C_33
   14  A    between atoms: C_32  and  C_39
   15  A    between atoms: C_33  and  N_49
   16  A    between atoms: C_33  and  N_52
   17  A    between atoms: C_35  and  C_51
   18  A    between atoms: C_51  and  C_54
                            x       y       z     vdW  Elec       q    Type
                         _______ _______ _______ _____ _____    ______ ____

>  <TORSDO>
F 18

$$$$
=
 OpenBabel10262420383D

 55 59  0  0  1  0  0  0  0  0999 V2000
  182.0070  179.0050  143.0870 C   0  0  0  0  0  2  0  0  0  0  0  0
  184.2380  178.5270  141.2720 C   0  0  2  0  0  3  0  0  0  0  0  0
  183.1040  179.4910  140.8650 C   0  0  0  0  0  2  0  0  0  0  0  0
  183.4090  178.4850  143.4230 C   0  0  0  0  0  2  0  0  0  0  0  0
  181.7910  179.1720  141.5820 C   0  0  1  0  0  3  0  0  0  0  0  0
  183.9270  177.6920  142.3710 O   0  0  0  0  0  0  0  0  0  0  0  0
  185.5480  179.2620  141.4910 C   0  0  0  0  0  2  0  0  0  0  0  0
  186.6950  178.2540  141.4870 C   0  0  0  0  0  2  0  0  0  0  0  0
  187.9630  178.9170  140.9940 C   0  0  0  0  0  2  0  0  0  0  0  0
  189.1220  177.9300  140.9530 C   0  0  1  0  0  3  0  0  0  0  0  0
  189.6110  177.7910  139.5190 C   0  0  0  0  0  1  0  0  0  0  0  0
  190.1660  178.4160  141.7560 O   0  0  0  0  0  0  0  0  0  0  0  0
  190.1810  176.0130  142.1910 C   0  0  0  0  0  1  0  0  0  0  0  0
  190.8080  177.3750  142.4870 C   0  0  1  0  0  0  0  0  0  0  0  0
  192.1170  177.3190  142.0180 O   0  0  0  0  0  1  0  0  0  0  0  0
  188.5560  177.5660  145.0760 C   0  0  0  0  0  0  0  0  0  0  0  0
  190.0550  176.6420  146.9710 O   0  0  0  0  0  0  0  0  0  0  0  0
  190.8130  177.6490  144.0270 C   0  0  1  0  0  0  0  0  0  0  0  0
  190.4990  175.2730  144.5650 F   0  0  0  0  0  0  0  0  0  0  0  0
  191.2340  176.4130  144.8290 C   0  0  2  0  0  3  0  0  0  0  0  0
  188.0610  176.3810  144.2700 C   0  0  0  0  0  1  0  0  0  0  0  0
  188.8280  177.1320  146.5120 C   0  0  0  0  0  0  0  0  0  0  0  0
  187.3830  178.5350  145.1010 C   0  0  0  0  0  1  0  0  0  0  0  0
  191.3090  176.7410  146.3100 C   0  0  2  0  0  3  0  0  0  0  0  0
  191.8070  178.5810  144.2590 F   0  0  0  0  0  0  0  0  0  0  0  0
  187.8550  177.0560  147.3150 O   0  0  0  0  0  0  0  0  0  0  0  0
  189.6140  178.2990  144.4600 O   0  0  0  0  0  0  0  0  0  0  0  0
  192.3590  175.9060  147.0270 C   0  0  0  0  0  2  0  0  0  0  0  0
  192.5210  176.3160  148.4690 C   0  0  0  0  0  1  0  0  0  0  0  0
  181.1240  177.9300  141.0210 C   0  0  0  0  0  2  0  0  0  0  0  0
  179.9690  178.3050  140.1140 C   0  0  0  0  0  2  0  0  0  0  0  0
  180.2810  177.9090  138.6650 C   0  0  2  0  0  3  0  0  0  0  0  0
  180.5260  176.5690  136.2170 C   0  0  0  0  0  2  0  0  0  0  0  0
  181.8750  174.7200  135.0100 C   0  0  0  0  0  2  0  0  0  0  0  0
  182.9620  175.8560  136.9620 C   0  0  2  0  0  3  0  0  0  0  0  0
  183.0800  175.5300  135.4760 C   0  0  0  0  0  2  0  0  0  0  0  0
  180.5970  175.5740  135.0400 C   0  0  0  0  0  2  0  0  0  0  0  0
  181.5230  176.2260  137.3500 C   0  0  2  0  0  0  0  0  0  0  0  0
  183.8330  176.9130  137.2570 O   0  0  0  0  0  1  0  0  0  0  0  0
  181.0380  175.5300  138.5500 C   0  0  1  0  0  3  0  0  0  0  0  0
  181.4230  176.9760  138.6310 N   0  0  0  0  0  0  0  0  0  0  0  0
  179.5240  175.2560  138.5980 C   0  0  0  0  0  2  0  0  0  0  0  0
  180.1710  173.4710  140.0200 F   0  0  0  0  0  0  0  0  0  0  0  0
  179.2120  173.8510  139.1030 C   0  0  2  0  0  3  0  0  0  0  0  0
  179.2170  172.8660  137.9580 C   0  0  0  0  0  2  0  0  0  0  0  0
  180.4060  172.1310  137.9680 O   0  0  0  0  0  1  0  0  0  0  0  0
  181.9270  179.5260  137.8870 C   0  0  0  0  0  2  0  0  0  0  0  0
  179.7490  180.1770  138.2010 C   0  0  0  0  0  2  0  0  0  0  0  0
  180.6380  181.3740  138.0340 C   0  0  1  0  0  3  0  0  0  0  0  0
  181.9590  180.9180  138.1070 O   0  0  0  0  0  0  0  0  0  0  0  0
  180.5500  179.0580  137.7810 N   0  0  0  0  0  0  0  0  0  0  0  0
  180.4010  182.0360  136.6780 C   0  0  0  0  0  2  0  0  0  0  0  0
  180.3040  183.5280  136.7780 C   0  0  0  0  0  0  0  0  0  0  0  0
  181.4670  184.2930  136.7820 O   0  0  0  0  0  0  0  0  0  0  0  0
  179.1860  184.1060  136.8640 O   0  0  0  0  0  1  0  0  0  0  0  0
  1  4  1  0  0  0  0
  2  7  1  1  0  0  0
  2  6  1  0  0  0  0
  3  2  1  0  0  0  0
  3  5  1  0  0  0  0
  5 30  1  6  0  0  0
  5  1  1  0  0  0  0
  6  4  1  0  0  0  0
  8  7  1  0  0  0  0
  9  8  1  0  0  0  0
 10 11  1  6  0  0  0
 10  9  1  0  0  0  0
 10 12  1  0  0  0  0
 12 14  1  0  0  0  0
 14 13  1  6  0  0  0
 14 18  1  0  0  0  0
 15 14  1  0  0  0  0
 16 23  1  0  0  0  0
 16 22  1  0  0  0  0
 18 25  1  1  0  0  0
 18 27  1  0  0  0  0
 18 20  1  0  0  0  0
 20 19  1  1  0  0  0
 20 24  1  0  0  0  0
 21 16  1  0  0  0  0
 22 17  1  0  0  0  0
 22 26  2  0  0  0  0
 24 17  1  0  0  0  0
 24 28  1  1  0  0  0
 27 16  1  0  0  0  0
 28 29  1  0  0  0  0
 31 30  1  0  0  0  0
 32 31  1  1  0  0  0
 34 37  1  0  0  0  0
 34 36  1  0  0  0  0
 35 39  1  6  0  0  0
 35 38  1  0  0  0  0
 36 35  1  0  0  0  0
 37 33  1  0  0  0  0
 38 33  1  6  0  0  0
 38 40  1  0  0  0  0
 38 41  1  0  0  0  0
 40 42  1  6  0  0  0
 40 41  1  0  0  0  0
 41 32  1  0  0  0  0
 42 44  1  0  0  0  0
 44 43  1  1  0  0  0
 45 46  1  0  0  0  0
 45 44  1  0  0  0  0
 47 50  1  0  0  0  0
 49 52  1  6  0  0  0
 49 50  1  0  0  0  0
 49 48  1  0  0  0  0
 51 47  1  0  0  0  0
 51 48  1  0  0  0  0
 51 32  1  0  0  0  0
 52 53  1  0  0  0  0
 53 54  2  0  0  0  0
 53 55  1  0  0  0  0
M  END
>  <MODEL>
5

>  <REMARK>
 VINA RESULT:      -5.4      3.345     10.902
  Name = 
  18 active torsions:
  status: ('A' for Active; 'I' for Inactive)
    1  A    between atoms: C_2  and  C_28
    2  A    between atoms: C_2  and  C_44
    3  A    between atoms: C_4  and  C_40
    4  A    between atoms: C_6  and  C_20
    5  A    between atoms: C_8  and  O_22
    6  A    between atoms: C_8  and  C_35
    7  A    between atoms: C_10  and  C_32
    8  A    between atoms: C_11  and  C_38
    9  A    between atoms: C_19  and  C_40
   10  A    between atoms: C_19  and  C_45
   11  A    between atoms: C_20  and  O_22
   12  A    between atoms: C_27  and  C_54
   13  A    between atoms: C_28  and  C_33
   14  A    between atoms: C_32  and  C_39
   15  A    between atoms: C_33  and  N_49
   16  A    between atoms: C_33  and  N_52
   17  A    between atoms: C_35  and  C_51
   18  A    between atoms: C_51  and  C_54
                            x       y       z     vdW  Elec       q    Type
                         _______ _______ _______ _____ _____    ______ ____

>  <TORSDO>
F 18

$$$$
=
 OpenBabel10262420383D

 55 59  0  0  1  0  0  0  0  0999 V2000
  187.5780  178.8350  136.6080 C   0  0  0  0  0  2  0  0  0  0  0  0
  186.0570  176.3990  136.1150 C   0  0  2  0  0  3  0  0  0  0  0  0
  185.3960  177.5870  136.8430 C   0  0  0  0  0  2  0  0  0  0  0  0
  187.8390  177.7500  135.5590 C   0  0  0  0  0  2  0  0  0  0  0  0
  186.4240  178.4770  137.5460 C   0  0  1  0  0  3  0  0  0  0  0  0
  187.4670  176.4730  136.0400 O   0  0  0  0  0  0  0  0  0  0  0  0
  185.4420  176.1670  134.7460 C   0  0  0  0  0  2  0  0  0  0  0  0
  185.1000  174.6870  134.5940 C   0  0  0  0  0  2  0  0  0  0  0  0
  185.0570  174.0240  135.9520 C   0  0  0  0  0  2  0  0  0  0  0  0
  183.7090  173.3620  136.2020 C   0  0  1  0  0  3  0  0  0  0  0  0
  183.9030  172.1540  137.1050 C   0  0  0  0  0  1  0  0  0  0  0  0
  182.8560  174.2830  136.8330 O   0  0  0  0  0  0  0  0  0  0  0  0
  181.4630  173.8580  134.8720 C   0  0  0  0  0  1  0  0  0  0  0  0
  181.5140  174.1750  136.3670 C   0  0  1  0  0  0  0  0  0  0  0  0
  180.9600  173.0810  137.0230 O   0  0  0  0  0  1  0  0  0  0  0  0
  180.6770  176.1070  139.0840 C   0  0  0  0  0  0  0  0  0  0  0  0
  180.5780  178.4110  137.9130 O   0  0  0  0  0  0  0  0  0  0  0  0
  180.6740  175.4570  136.6800 C   0  0  1  0  0  0  0  0  0  0  0  0
  182.6820  176.8530  136.9110 F   0  0  0  0  0  0  0  0  0  0  0  0
  181.4340  176.7420  136.3290 C   0  0  2  0  0  3  0  0  0  0  0  0
  182.1400  175.7820  139.3230 C   0  0  0  0  0  1  0  0  0  0  0  0
  180.4850  177.6180  139.0620 C   0  0  0  0  0  0  0  0  0  0  0  0
  179.9560  175.5670  140.3090 C   0  0  0  0  0  1  0  0  0  0  0  0
  180.5570  177.9590  136.5670 C   0  0  2  0  0  3  0  0  0  0  0  0
  179.5900  175.4380  135.8220 F   0  0  0  0  0  0  0  0  0  0  0  0
  180.3890  178.2320  140.1630 O   0  0  0  0  0  0  0  0  0  0  0  0
  180.0910  175.4110  137.9850 O   0  0  0  0  0  0  0  0  0  0  0  0
  180.8920  179.0970  135.6140 C   0  0  0  0  0  2  0  0  0  0  0  0
  180.5320  180.4430  136.1920 C   0  0  0  0  0  1  0  0  0  0  0  0
  186.9690  177.8300  138.8050 C   0  0  0  0  0  2  0  0  0  0  0  0
  188.4060  178.2490  139.0440 C   0  0  0  0  0  2  0  0  0  0  0  0
  188.9750  177.5180  140.2670 C   0  0  2  0  0  3  0  0  0  0  0  0
  188.3300  176.6430  142.8500 C   0  0  0  0  0  2  0  0  0  0  0  0
  188.2960  177.3910  145.3270 C   0  0  0  0  0  2  0  0  0  0  0  0
  189.8820  178.5700  143.7850 C   0  0  2  0  0  3  0  0  0  0  0  0
  189.7560  177.7470  145.0640 C   0  0  0  0  0  2  0  0  0  0  0  0
  187.7750  176.4040  144.2690 C   0  0  0  0  0  2  0  0  0  0  0  0
  188.9510  178.0510  142.6810 C   0  0  2  0  0  0  0  0  0  0  0  0
  191.2160  178.5280  143.3580 O   0  0  0  0  0  1  0  0  0  0  0  0
  188.1710  179.1070  142.0210 C   0  0  1  0  0  3  0  0  0  0  0  0
  189.3400  178.4920  141.3130 N   0  0  0  0  0  0  0  0  0  0  0  0
  186.7910  178.6840  141.4860 C   0  0  0  0  0  2  0  0  0  0  0  0
  184.9800  177.3650  142.2640 F   0  0  0  0  0  0  0  0  0  0  0  0
  185.7940  178.4240  142.6110 C   0  0  2  0  0  3  0  0  0  0  0  0
  184.9330  179.6420  142.8450 C   0  0  0  0  0  2  0  0  0  0  0  0
  184.8090  179.8810  144.2170 O   0  0  0  0  0  1  0  0  0  0  0  0
  191.3570  177.1330  140.5990 C   0  0  0  0  0  2  0  0  0  0  0  0
  190.4100  176.7250  138.5490 C   0  0  0  0  0  2  0  0  0  0  0  0
  191.9060  176.7300  138.4460 C   0  0  1  0  0  3  0  0  0  0  0  0
  192.3990  177.2330  139.6560 O   0  0  0  0  0  0  0  0  0  0  0  0
  190.1350  176.6610  139.9590 N   0  0  0  0  0  0  0  0  0  0  0  0
  192.4370  175.3130  138.2290 C   0  0  0  0  0  2  0  0  0  0  0  0
  191.9850  174.7250  136.9280 C   0  0  0  0  0  0  0  0  0  0  0  0
  191.5240  173.4120  136.8900 O   0  0  0  0  0  1  0  0  0  0  0  0
  192.0180  175.3960  135.8600 O   0  0  0  0  0  0  0  0  0  0  0  0
  1  5  1  0  0  0  0
  2  7  1  6  0  0  0
  2  3  1  0  0  0  0
  3  5  1  0  0  0  0
  4  6  1  0  0  0  0
  4  1  1  0  0  0  0
  5 30  1  1  0  0  0
  6  2  1  0  0  0  0
  8  7  1  0  0  0  0
  8  9  1  0  0  0  0
  9 10  1  0  0  0  0
 10 12  1  0  0  0  0
 10 11  1  1  0  0  0
 14 13  1  6  0  0  0
 14 18  1  0  0  0  0
 14 12  1  0  0  0  0
 14 15  1  0  0  0  0
 16 21  1  0  0  0  0
 16 23  1  0  0  0  0
 17 22  1  0  0  0  0
 18 25  1  6  0  0  0
 18 27  1  0  0  0  0
 20 24  1  0  0  0  0
 20 18  1  0  0  0  0
 20 19  1  1  0  0  0
 22 16  1  0  0  0  0
 22 26  2  0  0  0  0
 24 28  1  6  0  0  0
 24 17  1  0  0  0  0
 27 16  1  0  0  0  0
 28 29  1  0  0  0  0
 30 31  1  0  0  0  0
 32 31  1  6  0  0  0
 32 41  1  0  0  0  0
 33 37  1  0  0  0  0
 35 39  1  6  0  0  0
 35 36  1  0  0  0  0
 36 34  1  0  0  0  0
 37 34  1  0  0  0  0
 38 33  1  1  0  0  0
 38 35  1  0  0  0  0
 40 42  1  6  0  0  0
 40 38  1  0  0  0  0
 41 40  1  0  0  0  0
 41 38  1  0  0  0  0
 42 44  1  0  0  0  0
 44 43  1  6  0  0  0
 44 45  1  0  0  0  0
 45 46  1  0  0  0  0
 48 51  1  0  0  0  0
 49 52  1  1  0  0  0
 49 48  1  0  0  0  0
 49 50  1  0  0  0  0
 50 47  1  0  0  0  0
 51 32  1  0  0  0  0
 51 47  1  0  0  0  0
 53 52  1  0  0  0  0
 54 53  1  0  0  0  0
 55 53  2  0  0  0  0
M  END
>  <MODEL>
6

>  <REMARK>
 VINA RESULT:      -5.3      1.606      2.066
  Name = 
  18 active torsions:
  status: ('A' for Active; 'I' for Inactive)
    1  A    between atoms: C_2  and  C_28
    2  A    between atoms: C_2  and  C_44
    3  A    between atoms: C_4  and  C_40
    4  A    between atoms: C_6  and  C_20
    5  A    between atoms: C_8  and  O_22
    6  A    between atoms: C_8  and  C_35
    7  A    between atoms: C_10  and  C_32
    8  A    between atoms: C_11  and  C_38
    9  A    between atoms: C_19  and  C_40
   10  A    between atoms: C_19  and  C_45
   11  A    between atoms: C_20  and  O_22
   12  A    between atoms: C_27  and  C_54
   13  A    between atoms: C_28  and  C_33
   14  A    between atoms: C_32  and  C_39
   15  A    between atoms: C_33  and  N_49
   16  A    between atoms: C_33  and  N_52
   17  A    between atoms: C_35  and  C_51
   18  A    between atoms: C_51  and  C_54
                            x       y       z     vdW  Elec       q    Type
                         _______ _______ _______ _____ _____    ______ ____

>  <TORSDO>
F 18

$$$$
=
 OpenBabel10262420383D

 55 59  0  0  1  0  0  0  0  0999 V2000
  185.5510  178.0270  137.5590 C   0  0  0  0  0  2  0  0  0  0  0  0
  188.3470  177.4150  137.0100 C   0  0  2  0  0  3  0  0  0  0  0  0
  187.5300  178.2550  136.0080 C   0  0  0  0  0  2  0  0  0  0  0  0
  186.6470  177.6290  138.5520 C   0  0  0  0  0  2  0  0  0  0  0  0
  186.0290  177.9730  136.1070 C   0  0  1  0  0  3  0  0  0  0  0  0
  187.5660  176.7260  137.9670 O   0  0  0  0  0  0  0  0  0  0  0  0
  189.4360  178.2380  137.6770 C   0  0  0  0  0  2  0  0  0  0  0  0
  190.2190  177.3480  138.6390 C   0  0  0  0  0  2  0  0  0  0  0  0
  189.9950  177.8050  140.0630 C   0  0  0  0  0  2  0  0  0  0  0  0
  191.1040  177.3120  140.9830 C   0  0  1  0  0  3  0  0  0  0  0  0
  192.4060  177.2310  140.2000 C   0  0  0  0  0  1  0  0  0  0  0  0
  191.2550  178.2180  142.0450 O   0  0  0  0  0  0  0  0  0  0  0  0
  190.8460  176.0860  143.1650 C   0  0  0  0  0  1  0  0  0  0  0  0
  191.1430  177.5790  143.3140 C   0  0  1  0  0  0  0  0  0  0  0  0
  192.3960  177.6750  143.9110 O   0  0  0  0  0  1  0  0  0  0  0  0
  187.7210  177.7440  143.5860 C   0  0  0  0  0  0  0  0  0  0  0  0
  187.5390  177.9280  146.1590 O   0  0  0  0  0  0  0  0  0  0  0  0
  190.0710  178.2590  144.2270 C   0  0  1  0  0  0  0  0  0  0  0  0
  189.5830  176.1620  145.4090 F   0  0  0  0  0  0  0  0  0  0  0  0
  189.8790  177.5040  145.5480 C   0  0  2  0  0  3  0  0  0  0  0  0
  187.9750  176.2870  143.2510 C   0  0  0  0  0  1  0  0  0  0  0  0
  186.9470  177.8420  144.8950 C   0  0  0  0  0  0  0  0  0  0  0  0
  186.8120  178.2440  142.4730 C   0  0  0  0  0  1  0  0  0  0  0  0
  188.8960  178.2400  146.4410 C   0  0  2  0  0  3  0  0  0  0  0  0
  190.5870  179.4890  144.5920 F   0  0  0  0  0  0  0  0  0  0  0  0
  185.6930  177.6830  144.8690 O   0  0  0  0  0  0  0  0  0  0  0  0
  188.8770  178.5770  143.5070 O   0  0  0  0  0  0  0  0  0  0  0  0
  189.1980  178.0280  147.9170 C   0  0  0  0  0  2  0  0  0  0  0  0
  187.9510  177.7400  148.7150 C   0  0  0  0  0  1  0  0  0  0  0  0
  185.6620  176.6340  135.4970 C   0  0  0  0  0  2  0  0  0  0  0  0
  184.7470  175.8550  136.4210 C   0  0  0  0  0  2  0  0  0  0  0  0
  184.4560  174.4680  135.8340 C   0  0  2  0  0  3  0  0  0  0  0  0
  182.0170  173.4620  134.8910 C   0  0  0  0  0  2  0  0  0  0  0  0
  179.9240  172.1260  135.6180 C   0  0  0  0  0  2  0  0  0  0  0  0
  182.0270  171.7870  136.9380 C   0  0  2  0  0  3  0  0  0  0  0  0
  180.9500  171.1050  136.0990 C   0  0  0  0  0  2  0  0  0  0  0  0
  180.5490  173.0900  134.5960 C   0  0  0  0  0  2  0  0  0  0  0  0
  182.4320  173.1450  136.3480 C   0  0  2  0  0  0  0  0  0  0  0  0
  183.1380  170.9370  137.0130 O   0  0  0  0  0  1  0  0  0  0  0  0
  182.4730  174.2300  137.3370 C   0  0  1  0  0  3  0  0  0  0  0  0
  183.7520  173.6370  136.8290 N   0  0  0  0  0  0  0  0  0  0  0  0
  182.1510  175.6370  136.8010 C   0  0  0  0  0  2  0  0  0  0  0  0
  180.4650  177.2910  137.0120 F   0  0  0  0  0  0  0  0  0  0  0  0
  181.2400  176.4160  137.7450 C   0  0  2  0  0  3  0  0  0  0  0  0
  182.0590  177.2050  138.7380 C   0  0  0  0  0  2  0  0  0  0  0  0
  181.9520  176.6300  140.0070 O   0  0  0  0  0  1  0  0  0  0  0  0
  185.4460  172.3230  135.2440 C   0  0  0  0  0  2  0  0  0  0  0  0
  186.7090  173.9010  136.3310 C   0  0  0  0  0  2  0  0  0  0  0  0
  187.3990  172.5700  136.3500 C   0  0  1  0  0  3  0  0  0  0  0  0
  186.4710  171.6200  135.9080 O   0  0  0  0  0  0  0  0  0  0  0  0
  185.6580  173.7610  135.3570 N   0  0  0  0  0  0  0  0  0  0  0  0
  188.6080  172.5760  135.4160 C   0  0  0  0  0  2  0  0  0  0  0  0
  189.7090  173.4630  135.9100 C   0  0  0  0  0  0  0  0  0  0  0  0
  190.0290  173.4730  137.2660 O   0  0  0  0  0  1  0  0  0  0  0  0
  190.3520  174.2090  135.1210 O   0  0  0  0  0  0  0  0  0  0  0  0
  1  4  1  0  0  0  0
  2  7  1  1  0  0  0
  2  6  1  0  0  0  0
  3  5  1  0  0  0  0
  3  2  1  0  0  0  0
  5 30  1  1  0  0  0
  5  1  1  0  0  0  0
  6  4  1  0  0  0  0
  7  8  1  0  0  0  0
  8  9  1  0  0  0  0
  9 10  1  0  0  0  0
 10 11  1  6  0  0  0
 10 12  1  0  0  0  0
 12 14  1  0  0  0  0
 14 13  1  6  0  0  0
 14 15  1  0  0  0  0
 14 18  1  0  0  0  0
 16 22  1  0  0  0  0
 17 24  1  0  0  0  0
 18 25  1  1  0  0  0
 18 20  1  0  0  0  0
 20 19  1  6  0  0  0
 20 24  1  0  0  0  0
 21 16  1  0  0  0  0
 22 17  1  0  0  0  0
 23 16  1  0  0  0  0
 24 28  1  1  0  0  0
 26 22  2  0  0  0  0
 27 16  1  0  0  0  0
 27 18  1  0  0  0  0
 28 29  1  0  0  0  0
 30 31  1  0  0  0  0
 32 31  1  1  0  0  0
 32 41  1  0  0  0  0
 34 36  1  0  0  0  0
 35 39  1  6  0  0  0
 36 35  1  0  0  0  0
 37 33  1  0  0  0  0
 37 34  1  0  0  0  0
 38 33  1  6  0  0  0
 38 41  1  0  0  0  0
 38 35  1  0  0  0  0
 38 40  1  0  0  0  0
 40 42  1  6  0  0  0
 41 40  1  0  0  0  0
 42 44  1  0  0  0  0
 44 43  1  6  0  0  0
 44 45  1  0  0  0  0
 45 46  1  0  0  0  0
 47 51  1  0  0  0  0
 47 50  1  0  0  0  0
 48 49  1  0  0  0  0
 49 52  1  6  0  0  0
 50 49  1  0  0  0  0
 51 32  1  0  0  0  0
 51 48  1  0  0  0  0
 52 53  1  0  0  0  0
 53 54  1  0  0  0  0
 55 53  2  0  0  0  0
M  END
>  <MODEL>
7

>  <REMARK>
 VINA RESULT:      -5.2      3.132      9.113
  Name = 
  18 active torsions:
  status: ('A' for Active; 'I' for Inactive)
    1  A    between atoms: C_2  and  C_28
    2  A    between atoms: C_2  and  C_44
    3  A    between atoms: C_4  and  C_40
    4  A    between atoms: C_6  and  C_20
    5  A    between atoms: C_8  and  O_22
    6  A    between atoms: C_8  and  C_35
    7  A    between atoms: C_10  and  C_32
    8  A    between atoms: C_11  and  C_38
    9  A    between atoms: C_19  and  C_40
   10  A    between atoms: C_19  and  C_45
   11  A    between atoms: C_20  and  O_22
   12  A    between atoms: C_27  and  C_54
   13  A    between atoms: C_28  and  C_33
   14  A    between atoms: C_32  and  C_39
   15  A    between atoms: C_33  and  N_49
   16  A    between atoms: C_33  and  N_52
   17  A    between atoms: C_35  and  C_51
   18  A    between atoms: C_51  and  C_54
                            x       y       z     vdW  Elec       q    Type
                         _______ _______ _______ _____ _____    ______ ____

>  <TORSDO>
F 18

$$$$
=
 OpenBabel10262420383D

 55 59  0  0  1  0  0  0  0  0999 V2000
  186.9100  178.4690  137.7840 C   0  0  0  0  0  2  0  0  0  0  0  0
  189.0820  176.6850  137.0120 C   0  0  2  0  0  3  0  0  0  0  0  0
  188.6330  177.8110  136.0590 C   0  0  0  0  0  2  0  0  0  0  0  0
  187.8030  177.6150  138.6900 C   0  0  0  0  0  2  0  0  0  0  0  0
  187.1790  178.2230  136.2990 C   0  0  1  0  0  3  0  0  0  0  0  0
  188.1680  176.4040  138.0550 O   0  0  0  0  0  0  0  0  0  0  0  0
  190.4790  176.9310  137.5550 C   0  0  0  0  0  2  0  0  0  0  0  0
  190.5730  176.3730  138.9720 C   0  0  0  0  0  2  0  0  0  0  0  0
  190.6250  177.5060  139.9720 C   0  0  0  0  0  2  0  0  0  0  0  0
  191.6500  177.2340  141.0640 C   0  0  1  0  0  3  0  0  0  0  0  0
  193.0480  177.4520  140.5050 C   0  0  0  0  0  1  0  0  0  0  0  0
  191.4310  178.1210  142.1300 O   0  0  0  0  0  0  0  0  0  0  0  0
  190.6830  175.9990  143.0790 C   0  0  0  0  0  1  0  0  0  0  0  0
  191.1290  177.4370  143.3430 C   0  0  1  0  0  0  0  0  0  0  0  0
  192.3210  177.3580  144.0550 O   0  0  0  0  0  1  0  0  0  0  0  0
  187.7090  177.7470  143.4940 C   0  0  0  0  0  0  0  0  0  0  0  0
  187.4520  178.0290  146.0530 O   0  0  0  0  0  0  0  0  0  0  0  0
  190.0560  178.1910  144.1960 C   0  0  1  0  0  0  0  0  0  0  0  0
  189.4460  176.1580  145.4320 F   0  0  0  0  0  0  0  0  0  0  0  0
  189.7910  177.4920  145.5340 C   0  0  2  0  0  3  0  0  0  0  0  0
  187.9140  176.2700  143.2180 C   0  0  0  0  0  1  0  0  0  0  0  0
  186.8980  177.9220  144.7730 C   0  0  0  0  0  0  0  0  0  0  0  0
  186.8570  178.2430  142.3350 C   0  0  0  0  0  1  0  0  0  0  0  0
  188.8110  178.2970  146.3690 C   0  0  2  0  0  3  0  0  0  0  0  0
  190.6090  179.4120  144.5350 F   0  0  0  0  0  0  0  0  0  0  0  0
  185.6400  177.8110  144.7110 O   0  0  0  0  0  0  0  0  0  0  0  0
  188.8990  178.5310  143.4260 O   0  0  0  0  0  0  0  0  0  0  0  0
  189.0570  178.1260  147.8610 C   0  0  0  0  0  2  0  0  0  0  0  0
  187.9290  177.3890  148.5390 C   0  0  0  0  0  1  0  0  0  0  0  0
  186.2010  177.1930  135.7650 C   0  0  0  0  0  2  0  0  0  0  0  0
  184.9700  177.1160  136.6450 C   0  0  0  0  0  2  0  0  0  0  0  0
  184.0370  176.0000  136.1560 C   0  0  2  0  0  3  0  0  0  0  0  0
  181.2680  176.2960  135.8410 C   0  0  0  0  0  2  0  0  0  0  0  0
  179.0110  175.9450  137.0550 C   0  0  0  0  0  2  0  0  0  0  0  0
  180.9570  174.5570  137.8090 C   0  0  2  0  0  3  0  0  0  0  0  0
  179.5340  174.5270  137.2590 C   0  0  0  0  0  2  0  0  0  0  0  0
  179.7690  176.6490  135.9170 C   0  0  0  0  0  2  0  0  0  0  0  0
  181.7990  175.6560  137.1460 C   0  0  2  0  0  0  0  0  0  0  0  0
  181.5420  173.3020  137.6000 O   0  0  0  0  0  1  0  0  0  0  0  0
  182.5460  176.4850  138.1020 C   0  0  1  0  0  3  0  0  0  0  0  0
  183.2670  175.4530  137.2880 N   0  0  0  0  0  0  0  0  0  0  0  0
  182.7950  177.9420  137.6730 C   0  0  0  0  0  2  0  0  0  0  0  0
  183.6340  179.8530  138.7990 F   0  0  0  0  0  0  0  0  0  0  0  0
  182.6180  178.9190  138.8310 C   0  0  2  0  0  3  0  0  0  0  0  0
  182.6710  178.1890  140.1510 C   0  0  0  0  0  2  0  0  0  0  0  0
  183.4500  178.9080  141.0620 O   0  0  0  0  0  1  0  0  0  0  0  0
  183.8430  174.1420  134.5940 C   0  0  0  0  0  2  0  0  0  0  0  0
  185.2170  173.9560  136.4210 C   0  0  0  0  0  2  0  0  0  0  0  0
  185.0030  172.6150  135.7850 C   0  0  1  0  0  3  0  0  0  0  0  0
  183.9680  172.7630  134.8540 O   0  0  0  0  0  0  0  0  0  0  0  0
  184.7360  174.9070  135.4550 N   0  0  0  0  0  0  0  0  0  0  0  0
  186.2700  172.1490  135.0690 C   0  0  0  0  0  2  0  0  0  0  0  0
  186.5190  170.6820  135.2410 C   0  0  0  0  0  0  0  0  0  0  0  0
  187.8080  170.2310  135.5130 O   0  0  0  0  0  1  0  0  0  0  0  0
  185.5820  169.8430  135.1410 O   0  0  0  0  0  0  0  0  0  0  0  0
  1  4  1  0  0  0  0
  2  7  1  1  0  0  0
  2  6  1  0  0  0  0
  3  5  1  0  0  0  0
  3  2  1  0  0  0  0
  5 30  1  1  0  0  0
  5  1  1  0  0  0  0
  6  4  1  0  0  0  0
  7  8  1  0  0  0  0
  8  9  1  0  0  0  0
  9 10  1  0  0  0  0
 10 11  1  6  0  0  0
 10 12  1  0  0  0  0
 12 14  1  0  0  0  0
 14 13  1  6  0  0  0
 14 15  1  0  0  0  0
 14 18  1  0  0  0  0
 16 22  1  0  0  0  0
 17 24  1  0  0  0  0
 18 25  1  1  0  0  0
 18 20  1  0  0  0  0
 20 19  1  6  0  0  0
 20 24  1  0  0  0  0
 21 16  1  0  0  0  0
 22 17  1  0  0  0  0
 23 16  1  0  0  0  0
 24 28  1  1  0  0  0
 26 22  2  0  0  0  0
 27 16  1  0  0  0  0
 27 18  1  0  0  0  0
 28 29  1  0  0  0  0
 30 31  1  0  0  0  0
 32 31  1  1  0  0  0
 32 41  1  0  0  0  0
 33 37  1  0  0  0  0
 34 36  1  0  0  0  0
 35 39  1  6  0  0  0
 36 35  1  0  0  0  0
 37 34  1  0  0  0  0
 38 33  1  6  0  0  0
 38 41  1  0  0  0  0
 38 35  1  0  0  0  0
 38 40  1  0  0  0  0
 40 42  1  6  0  0  0
 41 40  1  0  0  0  0
 42 44  1  0  0  0  0
 44 43  1  1  0  0  0
 44 45  1  0  0  0  0
 45 46  1  0  0  0  0
 47 50  1  0  0  0  0
 47 51  1  0  0  0  0
 49 52  1  6  0  0  0
 49 48  1  0  0  0  0
 50 49  1  0  0  0  0
 51 32  1  0  0  0  0
 51 48  1  0  0  0  0
 52 53  1  0  0  0  0
 53 54  1  0  0  0  0
 55 53  2  0  0  0  0
M  END
>  <MODEL>
8

>  <REMARK>
 VINA RESULT:      -5.1      3.038      9.159
  Name = 
  18 active torsions:
  status: ('A' for Active; 'I' for Inactive)
    1  A    between atoms: C_2  and  C_28
    2  A    between atoms: C_2  and  C_44
    3  A    between atoms: C_4  and  C_40
    4  A    between atoms: C_6  and  C_20
    5  A    between atoms: C_8  and  O_22
    6  A    between atoms: C_8  and  C_35
    7  A    between atoms: C_10  and  C_32
    8  A    between atoms: C_11  and  C_38
    9  A    between atoms: C_19  and  C_40
   10  A    between atoms: C_19  and  C_45
   11  A    between atoms: C_20  and  O_22
   12  A    between atoms: C_27  and  C_54
   13  A    between atoms: C_28  and  C_33
   14  A    between atoms: C_32  and  C_39
   15  A    between atoms: C_33  and  N_49
   16  A    between atoms: C_33  and  N_52
   17  A    between atoms: C_35  and  C_51
   18  A    between atoms: C_51  and  C_54
                            x       y       z     vdW  Elec       q    Type
                         _______ _______ _______ _____ _____    ______ ____

>  <TORSDO>
F 18

$$$$
=
 OpenBabel10262420383D

 55 59  0  0  1  0  0  0  0  0999 V2000
  186.1130  175.9830  135.1500 C   0  0  0  0  0  2  0  0  0  0  0  0
  187.6020  177.0040  137.4390 C   0  0  2  0  0  3  0  0  0  0  0  0
  187.3130  175.4940  137.3180 C   0  0  0  0  0  2  0  0  0  0  0  0
  186.8890  177.3000  135.2670 C   0  0  0  0  0  2  0  0  0  0  0  0
  186.0710  175.2110  136.4690 C   0  0  1  0  0  3  0  0  0  0  0  0
  186.8240  177.8170  136.5830 O   0  0  0  0  0  0  0  0  0  0  0  0
  189.0830  177.3060  137.2920 C   0  0  0  0  0  2  0  0  0  0  0  0
  189.4870  178.3540  138.3250 C   0  0  0  0  0  2  0  0  0  0  0  0
  188.6870  178.1630  139.5940 C   0  0  0  0  0  2  0  0  0  0  0  0
  189.4920  177.4160  140.6480 C   0  0  1  0  0  3  0  0  0  0  0  0
  190.9240  177.2520  140.1630 C   0  0  0  0  0  1  0  0  0  0  0  0
  189.4860  178.1570  141.8410 O   0  0  0  0  0  0  0  0  0  0  0  0
  187.1940  177.7530  142.5820 C   0  0  0  0  0  1  0  0  0  0  0  0
  188.6860  177.5460  142.8480 C   0  0  1  0  0  0  0  0  0  0  0  0
  188.9190  176.1770  142.7540 O   0  0  0  0  0  1  0  0  0  0  0  0
  187.1400  178.0770  145.8710 C   0  0  0  0  0  0  0  0  0  0  0  0
  189.1100  177.4710  147.4340 O   0  0  0  0  0  0  0  0  0  0  0  0
  189.0570  178.0450  144.2830 C   0  0  1  0  0  0  0  0  0  0  0  0
  189.0180  175.7690  145.2070 F   0  0  0  0  0  0  0  0  0  0  0  0
  189.7320  176.9480  145.1160 C   0  0  2  0  0  3  0  0  0  0  0  0
  186.5260  176.7770  145.3890 C   0  0  0  0  0  1  0  0  0  0  0  0
  187.7820  177.8650  147.2370 C   0  0  0  0  0  0  0  0  0  0  0  0
  185.9580  179.0170  146.0580 C   0  0  0  0  0  1  0  0  0  0  0  0
  190.1530  177.4940  146.4700 C   0  0  2  0  0  3  0  0  0  0  0  0
  190.0260  179.0190  144.1240 F   0  0  0  0  0  0  0  0  0  0  0  0
  187.0450  177.8910  148.2630 O   0  0  0  0  0  0  0  0  0  0  0  0
  187.9690  178.7290  144.9120 O   0  0  0  0  0  0  0  0  0  0  0  0
  191.3930  176.7930  147.0060 C   0  0  0  0  0  2  0  0  0  0  0  0
  192.0470  175.9230  145.9620 C   0  0  0  0  0  1  0  0  0  0  0  0
  184.7900  175.5370  137.2130 C   0  0  0  0  0  2  0  0  0  0  0  0
  183.9200  176.4740  136.3980 C   0  0  0  0  0  2  0  0  0  0  0  0
  182.4390  176.2440  136.7270 C   0  0  2  0  0  3  0  0  0  0  0  0
  180.2940  177.5930  137.9220 C   0  0  0  0  0  2  0  0  0  0  0  0
  179.1380  178.0090  140.1990 C   0  0  0  0  0  2  0  0  0  0  0  0
  180.5070  175.9240  139.9620 C   0  0  2  0  0  3  0  0  0  0  0  0
  179.1250  176.4860  140.2800 C   0  0  0  0  0  2  0  0  0  0  0  0
  179.3380  178.4780  138.7480 C   0  0  0  0  0  2  0  0  0  0  0  0
  181.1770  176.6800  138.8070 C   0  0  2  0  0  0  0  0  0  0  0  0
  180.3740  174.5660  139.6440 O   0  0  0  0  0  1  0  0  0  0  0  0
  182.5660  177.0700  139.0820 C   0  0  1  0  0  3  0  0  0  0  0  0
  182.2840  175.9250  138.1580 N   0  0  0  0  0  0  0  0  0  0  0  0
  183.0490  178.3580  138.3920 C   0  0  0  0  0  2  0  0  0  0  0  0
  183.9780  180.5080  138.7660 F   0  0  0  0  0  0  0  0  0  0  0  0
  183.2840  179.4900  139.3880 C   0  0  2  0  0  3  0  0  0  0  0  0
  184.0930  178.9980  140.5640 C   0  0  0  0  0  2  0  0  0  0  0  0
  185.3990  179.4880  140.4810 O   0  0  0  0  0  1  0  0  0  0  0  0
  180.6450  175.6830  135.1790 C   0  0  0  0  0  2  0  0  0  0  0  0
  181.2880  174.1670  136.7770 C   0  0  0  0  0  2  0  0  0  0  0  0
  179.9860  173.7570  136.1560 C   0  0  1  0  0  3  0  0  0  0  0  0
  179.5350  174.8410  135.3940 O   0  0  0  0  0  0  0  0  0  0  0  0
  181.8060  175.1920  135.9100 N   0  0  0  0  0  0  0  0  0  0  0  0
  180.1790  172.5410  135.2510 C   0  0  0  0  0  2  0  0  0  0  0  0
  180.2830  171.2620  136.0240 C   0  0  0  0  0  0  0  0  0  0  0  0
  180.9810  170.1860  135.4810 O   0  0  0  0  0  0  0  0  0  0  0  0
  179.7440  171.1370  137.1580 O   0  0  0  0  0  1  0  0  0  0  0  0
  1  4  1  0  0  0  0
  1  5  1  0  0  0  0
  2  7  1  6  0  0  0
  3  2  1  0  0  0  0
  4  6  1  0  0  0  0
  5 30  1  1  0  0  0
  5  3  1  0  0  0  0
  6  2  1  0  0  0  0
  7  8  1  0  0  0  0
  8  9  1  0  0  0  0
  9 10  1  0  0  0  0
 10 11  1  6  0  0  0
 10 12  1  0  0  0  0
 12 14  1  0  0  0  0
 14 13  1  6  0  0  0
 14 18  1  0  0  0  0
 15 14  1  0  0  0  0
 16 23  1  0  0  0  0
 16 22  1  0  0  0  0
 18 25  1  6  0  0  0
 18 27  1  0  0  0  0
 18 20  1  0  0  0  0
 20 19  1  1  0  0  0
 20 24  1  0  0  0  0
 21 16  1  0  0  0  0
 22 17  1  0  0  0  0
 22 26  2  0  0  0  0
 24 28  1  1  0  0  0
 24 17  1  0  0  0  0
 27 16  1  0  0  0  0
 29 28  1  0  0  0  0
 31 30  1  0  0  0  0
 32 31  1  6  0  0  0
 32 41  1  0  0  0  0
 33 37  1  0  0  0  0
 34 36  1  0  0  0  0
 35 39  1  6  0  0  0
 35 36  1  0  0  0  0
 37 34  1  0  0  0  0
 38 33  1  6  0  0  0
 38 40  1  0  0  0  0
 38 35  1  0  0  0  0
 40 42  1  6  0  0  0
 41 38  1  0  0  0  0
 41 40  1  0  0  0  0
 42 44  1  0  0  0  0
 44 43  1  6  0  0  0
 44 45  1  0  0  0  0
 46 45  1  0  0  0  0
 47 50  1  0  0  0  0
 47 51  1  0  0  0  0
 49 52  1  6  0  0  0
 49 48  1  0  0  0  0
 50 49  1  0  0  0  0
 51 32  1  0  0  0  0
 51 48  1  0  0  0  0
 52 53  1  0  0  0  0
 53 55  1  0  0  0  0
 54 53  2  0  0  0  0
M  END
>  <MODEL>
9

>  <REMARK>
 VINA RESULT:      -5.1      3.178      9.623
  Name = 
  18 active torsions:
  status: ('A' for Active; 'I' for Inactive)
    1  A    between atoms: C_2  and  C_28
    2  A    between atoms: C_2  and  C_44
    3  A    between atoms: C_4  and  C_40
    4  A    between atoms: C_6  and  C_20
    5  A    between atoms: C_8  and  O_22
    6  A    between atoms: C_8  and  C_35
    7  A    between atoms: C_10  and  C_32
    8  A    between atoms: C_11  and  C_38
    9  A    between atoms: C_19  and  C_40
   10  A    between atoms: C_19  and  C_45
   11  A    between atoms: C_20  and  O_22
   12  A    between atoms: C_27  and  C_54
   13  A    between atoms: C_28  and  C_33
   14  A    between atoms: C_32  and  C_39
   15  A    between atoms: C_33  and  N_49
   16  A    between atoms: C_33  and  N_52
   17  A    between atoms: C_35  and  C_51
   18  A    between atoms: C_51  and  C_54
                            x       y       z     vdW  Elec       q    Type
                         _______ _______ _______ _____ _____    ______ ____

>  <TORSDO>
F 18

$$$$
