=
 OpenBabel10262421323D

 32 35  0  0  1  0  0  0  0  0999 V2000
  188.1580  176.3020  143.0660 C   0  0  0  0  0  2  0  0  0  0  0  0
  184.5770  179.2050  140.2710 C   0  0  0  0  0  1  0  0  0  0  0  0
  184.3010  178.7820  142.7970 C   0  0  0  0  0  3  0  0  0  0  0  0
  190.5100  176.8260  140.2250 N   0  0  0  0  0  0  0  0  0  0  0  0
  188.3220  177.7940  140.2980 C   0  0  0  0  0  0  0  0  0  0  0  0
  189.5360  177.9270  138.1940 C   0  0  0  0  0  0  0  0  0  0  0  0
  185.1090  178.9160  141.5940 N   0  0  0  0  0  0  0  0  0  0  0  0
  187.3330  178.2240  141.0190 C   0  0  0  0  0  0  0  0  0  0  0  0
  186.4400  178.5690  141.9020 C   0  0  0  0  0  0  0  0  0  0  0  0
  187.7960  177.5820  143.8170 C   0  0  1  0  0  3  0  0  0  0  0  0
  191.3410  176.2130  138.0180 C   0  0  0  0  0  1  0  0  0  0  0  0
  188.4180  178.1670  138.8900 C   0  0  0  0  0  3  0  0  0  0  0  0
  190.7550  177.3270  138.8660 C   0  0  2  0  0  3  0  0  0  0  0  0
  185.2710  178.3030  143.8980 C   0  0  0  0  0  3  0  0  0  0  0  0
  186.5750  178.1740  143.2510 N   0  0  0  0  0  0  0  0  0  0  0  0
  189.4310  177.0360  140.9190 C   0  0  0  0  0  0  0  0  0  0  0  0
  189.3590  176.4840  142.2500 N   0  0  0  0  0  2  0  0  0  0  0  0
  189.6290  178.2780  136.8400 O   0  0  0  0  0  0  0  0  0  0  0  0
  188.6810  177.8810  135.8540 C   0  0  0  0  0  2  0  0  0  0  0  0
  188.2100  175.4080  135.8870 C   0  0  0  0  0  0  0  0  0  0  0  0
  188.9610  176.5240  135.4100 N   0  0  0  0  0  2  0  0  0  0  0  0
  187.2800  175.5690  136.7210 O   0  0  0  0  0  0  0  0  0  0  0  0
  188.5210  174.0430  135.3870 C   0  0  0  0  0  1  0  0  0  0  0  0
  187.6500  177.2790  145.3030 C   0  0  0  0  0  2  0  0  0  0  0  0
  190.1060  177.6090  145.4530 C   0  0  1  0  0  3  0  0  0  0  0  0
  188.9110  177.2380  147.4180 C   0  0  1  0  0  3  0  0  0  0  0  0
  190.1790  176.5250  147.3720 N   0  0  0  0  0  2  0  0  0  0  0  0
  190.9730  177.1510  146.4570 O   0  0  0  0  0  0  0  0  0  0  0  0
  188.9490  178.2750  148.5260 C   0  0  0  0  0  1  0  0  0  0  0  0
  188.7780  177.9220  146.0950 C   0  0  2  0  0  3  0  0  0  0  0  0
  191.6370  178.7080  143.8400 C   0  0  0  0  0  2  0  0  0  0  0  0
  190.6790  178.8120  144.7630 C   0  0  0  0  0  3  0  0  0  0  0  0
  1 10  1  0  0  0  0
  2  7  1  0  0  0  0
  3 14  2  0  0  0  0
  4 16  2  0  0  0  0
  5 16  1  0  0  0  0
  5  8  2  0  0  0  0
  6 13  1  0  0  0  0
  6 12  2  0  0  0  0
  7  9  1  0  0  0  0
  7  3  1  0  0  0  0
  8  9  2  0  0  0  0
  9 15  1  0  0  0  0
 10 24  1  1  0  0  0
 12  5  1  0  0  0  0
 13 11  1  6  0  0  0
 13  4  1  0  0  0  0
 15 10  1  0  0  0  0
 15 14  1  0  0  0  0
 16 17  1  0  0  0  0
 17  1  1  0  0  0  0
 18  6  1  0  0  0  0
 19 18  1  0  0  0  0
 20 22  2  0  0  0  0
 21 19  1  0  0  0  0
 21 20  1  0  0  0  0
 23 20  1  0  0  0  0
 25 32  1  1  0  0  0
 25 30  1  0  0  0  0
 25 28  1  0  0  0  0
 26 29  1  1  0  0  0
 27 26  1  0  0  0  0
 28 27  1  0  0  0  0
 30 24  1  6  0  0  0
 30 26  1  0  0  0  0
 31 32  2  0  0  0  0
M  END
>  <MODEL>
1

>  <REMARK>
 VINA RESULT:      -8.7      0.000      0.000
  Name = 
  6 active torsions:
  status: ('A' for Active; 'I' for Inactive)
    1  A    between atoms: O_2  and  C_12
    2  A    between atoms: O_2  and  C_24
    3  A    between atoms: C_7  and  C_29
    4  A    between atoms: N_10  and  C_24
    5  A    between atoms: C_16  and  C_27
    6  A    between atoms: C_27  and  C_32
                            x       y       z     vdW  Elec       q    Type
                         _______ _______ _______ _____ _____    ______ ____

>  <TORSDO>
F 6

$$$$
=
 OpenBabel10262421323D

 32 35  0  0  1  0  0  0  0  0999 V2000
  185.6830  179.1320  141.2560 C   0  0  0  0  0  2  0  0  0  0  0  0
  185.9660  178.4220  146.5930 C   0  0  0  0  0  1  0  0  0  0  0  0
  183.7460  178.9930  145.4190 C   0  0  0  0  0  3  0  0  0  0  0  0
  188.9720  177.3950  141.0450 N   0  0  0  0  0  0  0  0  0  0  0  0
  187.7900  177.6980  143.1050 C   0  0  0  0  0  0  0  0  0  0  0  0
  190.0850  176.9020  143.2360 C   0  0  0  0  0  0  0  0  0  0  0  0
  185.0880  178.4300  145.4330 N   0  0  0  0  0  0  0  0  0  0  0  0
  186.6520  177.8600  143.7060 C   0  0  0  0  0  0  0  0  0  0  0  0
  185.4330  178.0480  144.1210 C   0  0  0  0  0  0  0  0  0  0  0  0
  184.5410  178.2430  141.7450 C   0  0  1  0  0  3  0  0  0  0  0  0
  191.4050  177.4330  141.1860 C   0  0  0  0  0  1  0  0  0  0  0  0
  188.9690  177.2920  143.8640 C   0  0  0  0  0  3  0  0  0  0  0  0
  190.1330  176.8040  141.7240 C   0  0  2  0  0  3  0  0  0  0  0  0
  183.2850  178.9310  143.9460 C   0  0  0  0  0  3  0  0  0  0  0  0
  184.4020  178.3520  143.2040 N   0  0  0  0  0  0  0  0  0  0  0  0
  187.8800  177.7900  141.6300 C   0  0  0  0  0  0  0  0  0  0  0  0
  186.8260  178.3350  140.8100 N   0  0  0  0  0  2  0  0  0  0  0  0
  191.2210  176.5180  143.9630 O   0  0  0  0  0  0  0  0  0  0  0  0
  191.5800  177.0780  145.2220 C   0  0  0  0  0  2  0  0  0  0  0  0
  192.0920  176.2210  147.5340 C   0  0  0  0  0  0  0  0  0  0  0  0
  192.0420  176.0300  146.1210 N   0  0  0  0  0  2  0  0  0  0  0  0
  191.7420  177.3170  148.0470 O   0  0  0  0  0  0  0  0  0  0  0  0
  192.5510  175.1130  148.4120 C   0  0  0  0  0  1  0  0  0  0  0  0
  183.2550  178.6170  141.0180 C   0  0  0  0  0  2  0  0  0  0  0  0
  183.2810  178.3610  138.5490 C   0  0  1  0  0  3  0  0  0  0  0  0
  181.5330  177.3960  139.7490 C   0  0  1  0  0  3  0  0  0  0  0  0
  181.1000  178.0350  138.5150 N   0  0  0  0  0  2  0  0  0  0  0  0
  182.1870  178.1370  137.6980 O   0  0  0  0  0  0  0  0  0  0  0  0
  181.2970  175.8990  139.6580 C   0  0  0  0  0  1  0  0  0  0  0  0
  182.9990  177.6680  139.8580 C   0  0  2  0  0  3  0  0  0  0  0  0
  184.6160  176.6850  137.2970 C   0  0  0  0  0  2  0  0  0  0  0  0
  184.5510  177.8610  137.9250 C   0  0  0  0  0  3  0  0  0  0  0  0
  1 10  1  0  0  0  0
  3  7  1  0  0  0  0
  4 16  2  0  0  0  0
  4 13  1  0  0  0  0
  5  8  2  0  0  0  0
  5 12  1  0  0  0  0
  6 12  2  0  0  0  0
  6 18  1  0  0  0  0
  7  2  1  0  0  0  0
  8  9  2  0  0  0  0
  9  7  1  0  0  0  0
 10 24  1  6  0  0  0
 10 15  1  0  0  0  0
 13 11  1  6  0  0  0
 13  6  1  0  0  0  0
 14  3  2  0  0  0  0
 15 14  1  0  0  0  0
 15  9  1  0  0  0  0
 16  5  1  0  0  0  0
 17  1  1  0  0  0  0
 17 16  1  0  0  0  0
 18 19  1  0  0  0  0
 19 21  1  0  0  0  0
 20 22  2  0  0  0  0
 20 23  1  0  0  0  0
 21 20  1  0  0  0  0
 25 32  1  6  0  0  0
 25 30  1  0  0  0  0
 26 29  1  6  0  0  0
 26 30  1  0  0  0  0
 27 26  1  0  0  0  0
 28 27  1  0  0  0  0
 28 25  1  0  0  0  0
 30 24  1  1  0  0  0
 31 32  2  0  0  0  0
M  END
>  <MODEL>
2

>  <REMARK>
 VINA RESULT:      -8.3      3.064      7.806
  Name = 
  6 active torsions:
  status: ('A' for Active; 'I' for Inactive)
    1  A    between atoms: O_2  and  C_12
    2  A    between atoms: O_2  and  C_24
    3  A    between atoms: C_7  and  C_29
    4  A    between atoms: N_10  and  C_24
    5  A    between atoms: C_16  and  C_27
    6  A    between atoms: C_27  and  C_32
                            x       y       z     vdW  Elec       q    Type
                         _______ _______ _______ _____ _____    ______ ____

>  <TORSDO>
F 6

$$$$
=
 OpenBabel10262421323D

 32 35  0  0  1  0  0  0  0  0999 V2000
  184.9410  179.8910  142.8980 C   0  0  0  0  0  2  0  0  0  0  0  0
  188.2000  177.4420  146.4270 C   0  0  0  0  0  1  0  0  0  0  0  0
  185.8410  178.2370  147.0880 C   0  0  0  0  0  3  0  0  0  0  0  0
  187.1440  178.5340  140.2180 N   0  0  0  0  0  0  0  0  0  0  0  0
  187.4720  178.0510  142.5390 C   0  0  0  0  0  0  0  0  0  0  0  0
  189.2400  177.4020  140.9990 C   0  0  0  0  0  0  0  0  0  0  0  0
  186.8220  177.7860  146.1120 N   0  0  0  0  0  0  0  0  0  0  0  0
  186.9510  177.9290  143.7210 C   0  0  0  0  0  0  0  0  0  0  0  0
  186.2600  177.8910  144.8240 C   0  0  0  0  0  0  0  0  0  0  0  0
  184.1840  178.8200  143.6810 C   0  0  1  0  0  3  0  0  0  0  0  0
  189.1590  178.6740  138.8540 C   0  0  0  0  0  1  0  0  0  0  0  0
  188.7890  177.4870  142.2570 C   0  0  0  0  0  3  0  0  0  0  0  0
  188.3700  177.8230  139.8310 C   0  0  2  0  0  3  0  0  0  0  0  0
  184.5980  178.6460  146.2690 C   0  0  0  0  0  3  0  0  0  0  0  0
  184.9520  178.4210  144.8690 N   0  0  0  0  0  0  0  0  0  0  0  0
  186.6880  178.6400  141.4300 C   0  0  0  0  0  0  0  0  0  0  0  0
  185.4570  179.3640  141.6340 N   0  0  0  0  0  2  0  0  0  0  0  0
  190.5070  176.8670  140.7260 O   0  0  0  0  0  0  0  0  0  0  0  0
  191.6920  177.2520  141.4140 C   0  0  0  0  0  2  0  0  0  0  0  0
  191.6680  177.5140  143.9190 C   0  0  0  0  0  0  0  0  0  0  0  0
  191.6960  176.6870  142.7560 N   0  0  0  0  0  2  0  0  0  0  0  0
  191.6490  178.7700  143.8140 O   0  0  0  0  0  0  0  0  0  0  0  0
  191.6520  176.8900  145.2670 C   0  0  0  0  0  1  0  0  0  0  0  0
  182.7970  179.3360  144.0420 C   0  0  0  0  0  2  0  0  0  0  0  0
  181.5070  179.1950  141.9260 C   0  0  1  0  0  3  0  0  0  0  0  0
  180.3970  178.7890  143.9340 C   0  0  1  0  0  3  0  0  0  0  0  0
  179.6190  179.5880  142.9980 N   0  0  0  0  0  2  0  0  0  0  0  0
  180.1250  179.3720  141.7510 O   0  0  0  0  0  0  0  0  0  0  0  0
  179.7130  177.4530  144.1560 C   0  0  0  0  0  1  0  0  0  0  0  0
  181.7250  178.5710  143.2820 C   0  0  2  0  0  3  0  0  0  0  0  0
  181.3920  177.3330  140.2900 C   0  0  0  0  0  2  0  0  0  0  0  0
  182.0770  178.3420  140.8310 C   0  0  0  0  0  3  0  0  0  0  0  0
  1 10  1  0  0  0  0
  4 16  2  0  0  0  0
  5  8  2  0  0  0  0
  6 12  2  0  0  0  0
  7  2  1  0  0  0  0
  7  3  1  0  0  0  0
  8  9  2  0  0  0  0
  9 15  1  0  0  0  0
  9  7  1  0  0  0  0
 10 24  1  1  0  0  0
 10 15  1  0  0  0  0
 12  5  1  0  0  0  0
 13 11  1  6  0  0  0
 13  4  1  0  0  0  0
 13  6  1  0  0  0  0
 14  3  2  0  0  0  0
 15 14  1  0  0  0  0
 16 17  1  0  0  0  0
 16  5  1  0  0  0  0
 17  1  1  0  0  0  0
 18  6  1  0  0  0  0
 18 19  1  0  0  0  0
 19 21  1  0  0  0  0
 20 23  1  0  0  0  0
 21 20  1  0  0  0  0
 22 20  2  0  0  0  0
 25 32  1  6  0  0  0
 25 30  1  0  0  0  0
 26 29  1  6  0  0  0
 27 26  1  0  0  0  0
 28 25  1  0  0  0  0
 28 27  1  0  0  0  0
 30 26  1  0  0  0  0
 30 24  1  1  0  0  0
 31 32  2  0  0  0  0
M  END
>  <MODEL>
3

>  <REMARK>
 VINA RESULT:      -8.2      3.033      6.885
  Name = 
  6 active torsions:
  status: ('A' for Active; 'I' for Inactive)
    1  A    between atoms: O_2  and  C_12
    2  A    between atoms: O_2  and  C_24
    3  A    between atoms: C_7  and  C_29
    4  A    between atoms: N_10  and  C_24
    5  A    between atoms: C_16  and  C_27
    6  A    between atoms: C_27  and  C_32
                            x       y       z     vdW  Elec       q    Type
                         _______ _______ _______ _____ _____    ______ ____

>  <TORSDO>
F 6

$$$$
=
 OpenBabel10262421323D

 32 35  0  0  1  0  0  0  0  0999 V2000
  184.5080  178.0960  141.3280 C   0  0  0  0  0  2  0  0  0  0  0  0
  189.7600  176.8770  141.3160 C   0  0  0  0  0  1  0  0  0  0  0  0
  188.4950  177.4370  139.1440 C   0  0  0  0  0  3  0  0  0  0  0  0
  184.8560  178.7060  144.9870 N   0  0  0  0  0  0  0  0  0  0  0  0
  186.7050  178.1170  143.5840 C   0  0  0  0  0  0  0  0  0  0  0  0
  187.0660  178.0790  145.9900 C   0  0  0  0  0  0  0  0  0  0  0  0
  188.6820  177.5230  140.5840 N   0  0  0  0  0  0  0  0  0  0  0  0
  187.2310  178.1230  142.3990 C   0  0  0  0  0  0  0  0  0  0  0  0
  187.5740  178.1920  141.1450 C   0  0  0  0  0  0  0  0  0  0  0  0
  185.2890  179.0780  140.4570 C   0  0  1  0  0  3  0  0  0  0  0  0
  184.9380  177.8780  147.2770 C   0  0  0  0  0  1  0  0  0  0  0  0
  187.5390  177.8660  144.7560 C   0  0  0  0  0  3  0  0  0  0  0  0
  185.6790  178.6520  146.2020 C   0  0  2  0  0  3  0  0  0  0  0  0
  187.1400  178.1210  138.8580 C   0  0  0  0  0  3  0  0  0  0  0  0
  186.6250  178.5410  140.1590 N   0  0  0  0  0  0  0  0  0  0  0  0
  185.2870  178.4950  143.7780 C   0  0  0  0  0  0  0  0  0  0  0  0
  184.3450  178.6030  142.6910 N   0  0  0  0  0  2  0  0  0  0  0  0
  187.8630  177.8320  147.1170 O   0  0  0  0  0  0  0  0  0  0  0  0
  189.2320  178.2130  147.2150 C   0  0  0  0  0  2  0  0  0  0  0  0
  191.2650  176.7580  146.9130 C   0  0  0  0  0  0  0  0  0  0  0  0
  190.0450  177.0640  147.5860 N   0  0  0  0  0  2  0  0  0  0  0  0
  191.6720  177.4780  145.9620 O   0  0  0  0  0  0  0  0  0  0  0  0
  192.0700  175.5850  147.3420 C   0  0  0  0  0  1  0  0  0  0  0  0
  184.4980  179.3800  139.1910 C   0  0  0  0  0  2  0  0  0  0  0  0
  183.1090  177.7900  137.8860 C   0  0  1  0  0  3  0  0  0  0  0  0
  182.0440  179.5190  139.0280 C   0  0  1  0  0  3  0  0  0  0  0  0
  181.4950  179.2820  137.7010 N   0  0  0  0  0  2  0  0  0  0  0  0
  181.8390  178.0150  137.3310 O   0  0  0  0  0  0  0  0  0  0  0  0
  180.9980  179.1920  140.0780 C   0  0  0  0  0  1  0  0  0  0  0  0
  183.2030  178.5840  139.1640 C   0  0  2  0  0  3  0  0  0  0  0  0
  182.6800  175.6630  139.0900 C   0  0  0  0  0  2  0  0  0  0  0  0
  183.3300  176.3260  138.1310 C   0  0  0  0  0  3  0  0  0  0  0  0
  1 17  1  0  0  0  0
  3  7  1  0  0  0  0
  4 13  1  0  0  0  0
  5 16  1  0  0  0  0
  5 12  1  0  0  0  0
  6 13  1  0  0  0  0
  6 18  1  0  0  0  0
  7  9  1  0  0  0  0
  7  2  1  0  0  0  0
  8  5  2  0  0  0  0
  9  8  2  0  0  0  0
 10 24  1  6  0  0  0
 10  1  1  0  0  0  0
 12  6  2  0  0  0  0
 13 11  1  1  0  0  0
 14  3  2  0  0  0  0
 14 15  1  0  0  0  0
 15 10  1  0  0  0  0
 15  9  1  0  0  0  0
 16  4  2  0  0  0  0
 17 16  1  0  0  0  0
 18 19  1  0  0  0  0
 19 21  1  0  0  0  0
 20 23  1  0  0  0  0
 20 21  1  0  0  0  0
 22 20  2  0  0  0  0
 25 32  1  1  0  0  0
 25 30  1  0  0  0  0
 26 30  1  0  0  0  0
 26 29  1  1  0  0  0
 27 26  1  0  0  0  0
 28 27  1  0  0  0  0
 28 25  1  0  0  0  0
 30 24  1  6  0  0  0
 32 31  2  0  0  0  0
M  END
>  <MODEL>
4

>  <REMARK>
 VINA RESULT:      -8.0      2.818      8.748
  Name = 
  6 active torsions:
  status: ('A' for Active; 'I' for Inactive)
    1  A    between atoms: O_2  and  C_12
    2  A    between atoms: O_2  and  C_24
    3  A    between atoms: C_7  and  C_29
    4  A    between atoms: N_10  and  C_24
    5  A    between atoms: C_16  and  C_27
    6  A    between atoms: C_27  and  C_32
                            x       y       z     vdW  Elec       q    Type
                         _______ _______ _______ _____ _____    ______ ____

>  <TORSDO>
F 6

$$$$
=
 OpenBabel10262421323D

 32 35  0  0  1  0  0  0  0  0999 V2000
  185.3730  179.7880  142.7100 C   0  0  0  0  0  2  0  0  0  0  0  0
  188.9360  177.1190  145.7520 C   0  0  0  0  0  1  0  0  0  0  0  0
  186.6710  177.9040  146.6940 C   0  0  0  0  0  3  0  0  0  0  0  0
  187.2650  178.5500  139.7500 N   0  0  0  0  0  0  0  0  0  0  0  0
  187.8220  177.9410  141.9970 C   0  0  0  0  0  0  0  0  0  0  0  0
  189.4110  177.3540  140.2510 C   0  0  0  0  0  0  0  0  0  0  0  0
  187.5390  177.4940  145.6000 N   0  0  0  0  0  0  0  0  0  0  0  0
  187.4240  177.7630  143.2190 C   0  0  0  0  0  0  0  0  0  0  0  0
  186.8490  177.6740  144.3840 C   0  0  0  0  0  0  0  0  0  0  0  0
  184.6830  178.6860  143.5120 C   0  0  1  0  0  3  0  0  0  0  0  0
  189.1320  178.7390  138.1940 C   0  0  0  0  0  1  0  0  0  0  0  0
  189.0930  177.3780  141.5510 C   0  0  0  0  0  3  0  0  0  0  0  0
  188.4330  177.8460  139.2020 C   0  0  2  0  0  3  0  0  0  0  0  0
  185.3570  178.3700  146.0300 C   0  0  0  0  0  3  0  0  0  0  0  0
  185.5620  178.2160  144.5920 N   0  0  0  0  0  0  0  0  0  0  0  0
  186.9380  178.5970  141.0070 C   0  0  0  0  0  0  0  0  0  0  0  0
  185.7470  179.3230  141.3740 N   0  0  0  0  0  2  0  0  0  0  0  0
  190.6340  176.8200  139.8200 O   0  0  0  0  0  0  0  0  0  0  0  0
  190.7650  175.9450  138.7050 C   0  0  0  0  0  2  0  0  0  0  0  0
  192.8510  175.5550  137.3490 C   0  0  0  0  0  0  0  0  0  0  0  0
  191.8180  176.4200  137.8190 N   0  0  0  0  0  2  0  0  0  0  0  0
  192.8850  174.3450  137.7000 O   0  0  0  0  0  0  0  0  0  0  0  0
  193.8920  176.0820  136.4290 C   0  0  0  0  0  1  0  0  0  0  0  0
  183.3490  179.1970  144.0410 C   0  0  0  0  0  2  0  0  0  0  0  0
  182.2590  178.9250  141.8270 C   0  0  1  0  0  3  0  0  0  0  0  0
  180.9080  179.2030  143.7050 C   0  0  1  0  0  3  0  0  0  0  0  0
  180.4420  179.9490  142.5460 N   0  0  0  0  0  2  0  0  0  0  0  0
  180.9870  179.3720  141.4370 O   0  0  0  0  0  0  0  0  0  0  0  0
  179.8940  178.1320  144.0650 C   0  0  0  0  0  1  0  0  0  0  0  0
  182.1920  178.5590  143.2880 C   0  0  2  0  0  3  0  0  0  0  0  0
  182.9780  177.8890  139.6910 C   0  0  0  0  0  2  0  0  0  0  0  0
  182.6930  177.7600  140.9880 C   0  0  0  0  0  3  0  0  0  0  0  0
  1 10  1  0  0  0  0
  4 16  2  0  0  0  0
  5  8  2  0  0  0  0
  6 12  2  0  0  0  0
  7  2  1  0  0  0  0
  7  3  1  0  0  0  0
  8  9  2  0  0  0  0
  9 15  1  0  0  0  0
  9  7  1  0  0  0  0
 10 24  1  1  0  0  0
 10 15  1  0  0  0  0
 12  5  1  0  0  0  0
 13 11  1  6  0  0  0
 13  4  1  0  0  0  0
 13  6  1  0  0  0  0
 14  3  2  0  0  0  0
 15 14  1  0  0  0  0
 16 17  1  0  0  0  0
 16  5  1  0  0  0  0
 17  1  1  0  0  0  0
 18  6  1  0  0  0  0
 19 18  1  0  0  0  0
 20 22  2  0  0  0  0
 20 21  1  0  0  0  0
 21 19  1  0  0  0  0
 23 20  1  0  0  0  0
 25 32  1  6  0  0  0
 25 30  1  0  0  0  0
 26 29  1  6  0  0  0
 27 26  1  0  0  0  0
 28 25  1  0  0  0  0
 28 27  1  0  0  0  0
 30 26  1  0  0  0  0
 30 24  1  1  0  0  0
 31 32  2  0  0  0  0
M  END
>  <MODEL>
5

>  <REMARK>
 VINA RESULT:      -8.0      2.808      5.937
  Name = 
  6 active torsions:
  status: ('A' for Active; 'I' for Inactive)
    1  A    between atoms: O_2  and  C_12
    2  A    between atoms: O_2  and  C_24
    3  A    between atoms: C_7  and  C_29
    4  A    between atoms: N_10  and  C_24
    5  A    between atoms: C_16  and  C_27
    6  A    between atoms: C_27  and  C_32
                            x       y       z     vdW  Elec       q    Type
                         _______ _______ _______ _____ _____    ______ ____

>  <TORSDO>
F 6

$$$$
=
 OpenBabel10262421323D

 32 35  0  0  1  0  0  0  0  0999 V2000
  187.2900  177.8100  139.3180 C   0  0  0  0  0  2  0  0  0  0  0  0
  190.5790  176.3960  143.3490 C   0  0  0  0  0  1  0  0  0  0  0  0
  191.3940  176.4950  140.9080 C   0  0  0  0  0  3  0  0  0  0  0  0
  185.0310  179.2300  141.9180 N   0  0  0  0  0  0  0  0  0  0  0  0
  187.1560  178.2550  142.4330 C   0  0  0  0  0  0  0  0  0  0  0  0
  185.6720  178.7560  144.2950 C   0  0  0  0  0  0  0  0  0  0  0  0
  190.5070  176.9020  141.9870 N   0  0  0  0  0  0  0  0  0  0  0  0
  188.3580  177.9660  142.0380 C   0  0  0  0  0  0  0  0  0  0  0  0
  189.4970  177.7290  141.4550 C   0  0  0  0  0  0  0  0  0  0  0  0
  188.6320  178.5310  139.2000 C   0  0  1  0  0  3  0  0  0  0  0  0
  183.2850  178.9490  143.5940 C   0  0  0  0  0  1  0  0  0  0  0  0
  186.8290  178.2450  143.8560 C   0  0  0  0  0  3  0  0  0  0  0  0
  184.7040  179.4210  143.3370 C   0  0  2  0  0  3  0  0  0  0  0  0
  190.8260  177.1530  139.6320 C   0  0  0  0  0  3  0  0  0  0  0  0
  189.6340  177.8830  140.0580 N   0  0  0  0  0  0  0  0  0  0  0  0
  186.1410  178.7280  141.4640 C   0  0  0  0  0  0  0  0  0  0  0  0
  186.3080  178.6240  140.0350 N   0  0  0  0  0  2  0  0  0  0  0  0
  185.3530  178.7410  145.6600 O   0  0  0  0  0  0  0  0  0  0  0  0
  185.7490  177.7050  146.5530 C   0  0  0  0  0  2  0  0  0  0  0  0
  188.0830  177.7360  147.4970 C   0  0  0  0  0  0  0  0  0  0  0  0
  186.7370  178.2090  147.4950 N   0  0  0  0  0  2  0  0  0  0  0  0
  188.4550  176.8520  146.6790 O   0  0  0  0  0  0  0  0  0  0  0  0
  189.0610  178.2970  148.4650 C   0  0  0  0  0  1  0  0  0  0  0  0
  189.0660  178.5670  137.7400 C   0  0  0  0  0  2  0  0  0  0  0  0
  189.4310  176.5330  136.3650 C   0  0  1  0  0  3  0  0  0  0  0  0
  187.7630  178.0260  135.7210 C   0  0  1  0  0  3  0  0  0  0  0  0
  188.5370  177.5090  134.6010 N   0  0  0  0  0  2  0  0  0  0  0  0
  189.1270  176.3500  135.0070 O   0  0  0  0  0  0  0  0  0  0  0  0
  186.3270  177.5450  135.6130 C   0  0  0  0  0  1  0  0  0  0  0  0
  188.3920  177.4550  136.9510 C   0  0  2  0  0  3  0  0  0  0  0  0
  188.5940  174.2410  136.8180 C   0  0  0  0  0  2  0  0  0  0  0  0
  189.4650  175.2170  137.0850 C   0  0  0  0  0  3  0  0  0  0  0  0
  1 17  1  0  0  0  0
  3  7  1  0  0  0  0
  4 13  1  0  0  0  0
  5 12  1  0  0  0  0
  6 18  1  0  0  0  0
  7  2  1  0  0  0  0
  8  5  2  0  0  0  0
  9  7  1  0  0  0  0
  9  8  2  0  0  0  0
 10 24  1  6  0  0  0
 10  1  1  0  0  0  0
 10 15  1  0  0  0  0
 12  6  2  0  0  0  0
 13 11  1  6  0  0  0
 13  6  1  0  0  0  0
 14 15  1  0  0  0  0
 14  3  2  0  0  0  0
 15  9  1  0  0  0  0
 16  4  2  0  0  0  0
 16  5  1  0  0  0  0
 17 16  1  0  0  0  0
 18 19  1  0  0  0  0
 19 21  1  0  0  0  0
 20 23  1  0  0  0  0
 21 20  1  0  0  0  0
 22 20  2  0  0  0  0
 25 30  1  0  0  0  0
 25 32  1  1  0  0  0
 26 29  1  6  0  0  0
 26 30  1  0  0  0  0
 27 28  1  0  0  0  0
 27 26  1  0  0  0  0
 28 25  1  0  0  0  0
 30 24  1  1  0  0  0
 31 32  2  0  0  0  0
M  END
>  <MODEL>
6

>  <REMARK>
 VINA RESULT:      -7.5      1.908      8.644
  Name = 
  6 active torsions:
  status: ('A' for Active; 'I' for Inactive)
    1  A    between atoms: O_2  and  C_12
    2  A    between atoms: O_2  and  C_24
    3  A    between atoms: C_7  and  C_29
    4  A    between atoms: N_10  and  C_24
    5  A    between atoms: C_16  and  C_27
    6  A    between atoms: C_27  and  C_32
                            x       y       z     vdW  Elec       q    Type
                         _______ _______ _______ _____ _____    ______ ____

>  <TORSDO>
F 6

$$$$
=
 OpenBabel10262421323D

 32 35  0  0  1  0  0  0  0  0999 V2000
  187.8350  177.9850  143.7630 C   0  0  0  0  0  2  0  0  0  0  0  0
  188.4630  178.8390  138.4770 C   0  0  0  0  0  1  0  0  0  0  0  0
  190.3510  177.8490  139.9220 C   0  0  0  0  0  3  0  0  0  0  0  0
  184.1670  178.2580  143.1750 N   0  0  0  0  0  0  0  0  0  0  0  0
  185.7800  178.3760  141.4090 C   0  0  0  0  0  0  0  0  0  0  0  0
  183.4830  178.9720  140.8710 C   0  0  0  0  0  0  0  0  0  0  0  0
  188.9470  178.1030  139.6340 N   0  0  0  0  0  0  0  0  0  0  0  0
  186.9570  178.0500  140.9720 C   0  0  0  0  0  0  0  0  0  0  0  0
  188.1740  177.6590  140.7260 C   0  0  0  0  0  0  0  0  0  0  0  0
  188.4840  176.7760  143.0930 C   0  0  1  0  0  3  0  0  0  0  0  0
  182.1590  179.6090  142.8880 C   0  0  0  0  0  1  0  0  0  0  0  0
  184.7580  178.8510  140.4810 C   0  0  0  0  0  3  0  0  0  0  0  0
  183.0530  178.5550  142.2630 C   0  0  2  0  0  3  0  0  0  0  0  0
  190.3770  177.2010  141.3230 C   0  0  0  0  0  3  0  0  0  0  0  0
  188.9840  177.1410  141.7600 N   0  0  0  0  0  0  0  0  0  0  0  0
  185.4140  178.1440  142.8250 C   0  0  0  0  0  0  0  0  0  0  0  0
  186.3820  177.8340  143.8480 N   0  0  0  0  0  2  0  0  0  0  0  0
  182.5020  179.4350  139.9830 O   0  0  0  0  0  0  0  0  0  0  0  0
  182.7940  180.0380  138.7270 C   0  0  0  0  0  2  0  0  0  0  0  0
  181.1540  181.6050  137.6330 C   0  0  0  0  0  0  0  0  0  0  0  0
  182.1370  181.3340  138.6310 N   0  0  0  0  0  2  0  0  0  0  0  0
  180.8310  180.7220  136.7920 O   0  0  0  0  0  0  0  0  0  0  0  0
  180.4960  182.9360  137.5880 C   0  0  0  0  0  1  0  0  0  0  0  0
  189.5870  176.2250  143.9880 C   0  0  0  0  0  2  0  0  0  0  0  0
  191.5250  177.4080  144.9910 C   0  0  1  0  0  3  0  0  0  0  0  0
  189.7790  176.7520  146.3870 C   0  0  1  0  0  3  0  0  0  0  0  0
  191.0940  176.5300  146.9680 N   0  0  0  0  0  2  0  0  0  0  0  0
  191.9760  177.3430  146.3190 O   0  0  0  0  0  0  0  0  0  0  0  0
  189.0330  177.7960  147.1960 C   0  0  0  0  0  1  0  0  0  0  0  0
  190.0240  177.2680  145.0050 C   0  0  2  0  0  3  0  0  0  0  0  0
  191.0720  179.6370  144.0000 C   0  0  0  0  0  2  0  0  0  0  0  0
  191.9510  178.6940  144.3470 C   0  0  0  0  0  3  0  0  0  0  0  0
  1 17  1  0  0  0  0
  2  7  1  0  0  0  0
  3 14  2  0  0  0  0
  5 16  1  0  0  0  0
  6 13  1  0  0  0  0
  7  3  1  0  0  0  0
  7  9  1  0  0  0  0
  8  5  2  0  0  0  0
  9  8  2  0  0  0  0
  9 15  1  0  0  0  0
 10  1  1  0  0  0  0
 10 24  1  1  0  0  0
 12  6  2  0  0  0  0
 12  5  1  0  0  0  0
 13 11  1  1  0  0  0
 13  4  1  0  0  0  0
 14 15  1  0  0  0  0
 15 10  1  0  0  0  0
 16  4  2  0  0  0  0
 16 17  1  0  0  0  0
 18  6  1  0  0  0  0
 19 18  1  0  0  0  0
 20 21  1  0  0  0  0
 21 19  1  0  0  0  0
 22 20  2  0  0  0  0
 23 20  1  0  0  0  0
 25 32  1  1  0  0  0
 25 30  1  0  0  0  0
 25 28  1  0  0  0  0
 26 27  1  0  0  0  0
 26 29  1  1  0  0  0
 28 27  1  0  0  0  0
 30 24  1  6  0  0  0
 30 26  1  0  0  0  0
 31 32  2  0  0  0  0
M  END
>  <MODEL>
7

>  <REMARK>
 VINA RESULT:      -7.3      2.763      5.596
  Name = 
  6 active torsions:
  status: ('A' for Active; 'I' for Inactive)
    1  A    between atoms: O_2  and  C_12
    2  A    between atoms: O_2  and  C_24
    3  A    between atoms: C_7  and  C_29
    4  A    between atoms: N_10  and  C_24
    5  A    between atoms: C_16  and  C_27
    6  A    between atoms: C_27  and  C_32
                            x       y       z     vdW  Elec       q    Type
                         _______ _______ _______ _____ _____    ______ ____

>  <TORSDO>
F 6

$$$$
=
 OpenBabel10262421323D

 32 35  0  0  1  0  0  0  0  0999 V2000
  186.9450  178.3890  142.7290 C   0  0  0  0  0  2  0  0  0  0  0  0
  192.1740  177.1280  142.3630 C   0  0  0  0  0  1  0  0  0  0  0  0
  190.8700  176.8720  144.5700 C   0  0  0  0  0  3  0  0  0  0  0  0
  186.8480  178.2410  139.0080 N   0  0  0  0  0  0  0  0  0  0  0  0
  188.8110  177.7300  140.2790 C   0  0  0  0  0  0  0  0  0  0  0  0
  189.0640  177.9610  137.8710 C   0  0  0  0  0  0  0  0  0  0  0  0
  190.9470  176.9280  143.1170 N   0  0  0  0  0  0  0  0  0  0  0  0
  189.3190  177.3130  141.3980 C   0  0  0  0  0  0  0  0  0  0  0  0
  189.6370  176.9130  142.5950 C   0  0  0  0  0  0  0  0  0  0  0  0
  187.2250  177.0450  143.3970 C   0  0  1  0  0  3  0  0  0  0  0  0
  187.2150  179.2770  136.8330 C   0  0  0  0  0  1  0  0  0  0  0  0
  189.6260  177.7550  139.0680 C   0  0  0  0  0  3  0  0  0  0  0  0
  187.5620  178.1040  137.7310 C   0  0  2  0  0  3  0  0  0  0  0  0
  189.3640  176.8280  144.9060 C   0  0  0  0  0  3  0  0  0  0  0  0
  188.6680  176.8800  143.6220 N   0  0  0  0  0  0  0  0  0  0  0  0
  187.3700  178.0560  140.1840 C   0  0  0  0  0  0  0  0  0  0  0  0
  186.5210  178.2170  141.3390 N   0  0  0  0  0  2  0  0  0  0  0  0
  189.8460  177.9920  136.7070 O   0  0  0  0  0  0  0  0  0  0  0  0
  190.5290  176.8580  136.1830 C   0  0  0  0  0  2  0  0  0  0  0  0
  189.8020  174.5680  136.9380 C   0  0  0  0  0  0  0  0  0  0  0  0
  189.6250  175.7190  136.1130 N   0  0  0  0  0  2  0  0  0  0  0  0
  190.7620  174.5030  137.7520 O   0  0  0  0  0  0  0  0  0  0  0  0
  188.8400  173.4400  136.8440 C   0  0  0  0  0  1  0  0  0  0  0  0
  186.4280  176.9410  144.6920 C   0  0  0  0  0  2  0  0  0  0  0  0
  186.1190  178.2670  146.7670 C   0  0  1  0  0  3  0  0  0  0  0  0
  184.7380  178.7150  144.9460 C   0  0  1  0  0  3  0  0  0  0  0  0
  184.0320  178.7230  146.2180 N   0  0  0  0  0  2  0  0  0  0  0  0
  184.9560  178.9210  147.2020 O   0  0  0  0  0  0  0  0  0  0  0  0
  184.7200  180.1080  144.3430 C   0  0  0  0  0  1  0  0  0  0  0  0
  186.1460  178.3220  145.2610 C   0  0  2  0  0  3  0  0  0  0  0  0
  188.1290  178.2530  148.2220 C   0  0  0  0  0  2  0  0  0  0  0  0
  187.3410  178.9020  147.3630 C   0  0  0  0  0  3  0  0  0  0  0  0
  1 10  1  0  0  0  0
  2  7  1  0  0  0  0
  3 14  2  0  0  0  0
  4 16  2  0  0  0  0
  5  8  2  0  0  0  0
  6 12  2  0  0  0  0
  7  3  1  0  0  0  0
  8  9  2  0  0  0  0
  9  7  1  0  0  0  0
  9 15  1  0  0  0  0
 10 15  1  0  0  0  0
 10 24  1  1  0  0  0
 12  5  1  0  0  0  0
 13 11  1  6  0  0  0
 13  6  1  0  0  0  0
 13  4  1  0  0  0  0
 15 14  1  0  0  0  0
 16  5  1  0  0  0  0
 16 17  1  0  0  0  0
 17  1  1  0  0  0  0
 18  6  1  0  0  0  0
 19 18  1  0  0  0  0
 20 22  2  0  0  0  0
 21 19  1  0  0  0  0
 21 20  1  0  0  0  0
 23 20  1  0  0  0  0
 25 28  1  0  0  0  0
 25 32  1  1  0  0  0
 26 29  1  1  0  0  0
 26 30  1  0  0  0  0
 26 27  1  0  0  0  0
 27 28  1  0  0  0  0
 30 24  1  6  0  0  0
 30 25  1  0  0  0  0
 32 31  2  0  0  0  0
M  END
>  <MODEL>
8

>  <REMARK>
 VINA RESULT:      -7.3      2.125      4.100
  Name = 
  6 active torsions:
  status: ('A' for Active; 'I' for Inactive)
    1  A    between atoms: O_2  and  C_12
    2  A    between atoms: O_2  and  C_24
    3  A    between atoms: C_7  and  C_29
    4  A    between atoms: N_10  and  C_24
    5  A    between atoms: C_16  and  C_27
    6  A    between atoms: C_27  and  C_32
                            x       y       z     vdW  Elec       q    Type
                         _______ _______ _______ _____ _____    ______ ____

>  <TORSDO>
F 6

$$$$
=
 OpenBabel10262421323D

 32 35  0  0  1  0  0  0  0  0999 V2000
  187.9140  177.9510  143.7750 C   0  0  0  0  0  2  0  0  0  0  0  0
  188.6290  178.7450  138.4900 C   0  0  0  0  0  1  0  0  0  0  0  0
  190.4860  177.7510  139.9740 C   0  0  0  0  0  3  0  0  0  0  0  0
  184.2580  178.2530  143.1280 N   0  0  0  0  0  0  0  0  0  0  0  0
  185.8980  178.3370  141.3860 C   0  0  0  0  0  0  0  0  0  0  0  0
  183.6160  178.9490  140.8070 C   0  0  0  0  0  0  0  0  0  0  0  0
  189.0890  178.0160  139.6620 N   0  0  0  0  0  0  0  0  0  0  0  0
  187.0780  177.9960  140.9700 C   0  0  0  0  0  0  0  0  0  0  0  0
  188.2950  177.5900  140.7460 C   0  0  0  0  0  0  0  0  0  0  0  0
  188.5610  176.7280  143.1270 C   0  0  1  0  0  3  0  0  0  0  0  0
  182.2670  179.6200  142.7970 C   0  0  0  0  0  1  0  0  0  0  0  0
  184.8950  178.8120  140.4380 C   0  0  0  0  0  3  0  0  0  0  0  0
  183.1610  178.5500  142.1970 C   0  0  2  0  0  3  0  0  0  0  0  0
  190.4850  177.1180  141.3820 C   0  0  0  0  0  3  0  0  0  0  0  0
  189.0850  177.0750  141.7980 N   0  0  0  0  0  0  0  0  0  0  0  0
  185.5090  178.1230  142.7990 C   0  0  0  0  0  0  0  0  0  0  0  0
  186.4590  177.8140  143.8390 N   0  0  0  0  0  2  0  0  0  0  0  0
  182.6520  179.4120  139.9000 O   0  0  0  0  0  0  0  0  0  0  0  0
  182.2100  178.6690  138.7690 C   0  0  0  0  0  2  0  0  0  0  0  0
  181.5010  176.3420  139.4180 C   0  0  0  0  0  0  0  0  0  0  0  0
  181.1890  177.7110  139.1690 N   0  0  0  0  0  2  0  0  0  0  0  0
  182.6800  175.9170  139.2890 O   0  0  0  0  0  0  0  0  0  0  0  0
  180.4270  175.4070  139.8440 C   0  0  0  0  0  1  0  0  0  0  0  0
  189.6450  176.1760  144.0440 C   0  0  0  0  0  2  0  0  0  0  0  0
  191.6010  177.3550  145.0170 C   0  0  1  0  0  3  0  0  0  0  0  0
  189.8500  176.7530  146.4300 C   0  0  1  0  0  3  0  0  0  0  0  0
  191.1640  176.5260  147.0130 N   0  0  0  0  0  2  0  0  0  0  0  0
  192.0550  177.3120  146.3440 O   0  0  0  0  0  0  0  0  0  0  0  0
  189.1200  177.8240  147.2180 C   0  0  0  0  0  1  0  0  0  0  0  0
  190.0980  177.2350  145.0360 C   0  0  2  0  0  3  0  0  0  0  0  0
  191.1740  179.5630  143.9680 C   0  0  0  0  0  2  0  0  0  0  0  0
  192.0430  178.6210  144.3440 C   0  0  0  0  0  3  0  0  0  0  0  0
  1 17  1  0  0  0  0
  2  7  1  0  0  0  0
  3 14  2  0  0  0  0
  5 16  1  0  0  0  0
  6 13  1  0  0  0  0
  7  3  1  0  0  0  0
  7  9  1  0  0  0  0
  8  5  2  0  0  0  0
  9  8  2  0  0  0  0
  9 15  1  0  0  0  0
 10  1  1  0  0  0  0
 10 24  1  1  0  0  0
 12  6  2  0  0  0  0
 12  5  1  0  0  0  0
 13 11  1  1  0  0  0
 13  4  1  0  0  0  0
 14 15  1  0  0  0  0
 15 10  1  0  0  0  0
 16  4  2  0  0  0  0
 16 17  1  0  0  0  0
 18  6  1  0  0  0  0
 19 21  1  0  0  0  0
 19 18  1  0  0  0  0
 20 23  1  0  0  0  0
 21 20  1  0  0  0  0
 22 20  2  0  0  0  0
 25 32  1  1  0  0  0
 25 30  1  0  0  0  0
 25 28  1  0  0  0  0
 26 27  1  0  0  0  0
 26 29  1  1  0  0  0
 28 27  1  0  0  0  0
 30 24  1  6  0  0  0
 30 26  1  0  0  0  0
 31 32  2  0  0  0  0
M  END
>  <MODEL>
9

>  <REMARK>
 VINA RESULT:      -7.3      2.507      5.183
  Name = 
  6 active torsions:
  status: ('A' for Active; 'I' for Inactive)
    1  A    between atoms: O_2  and  C_12
    2  A    between atoms: O_2  and  C_24
    3  A    between atoms: C_7  and  C_29
    4  A    between atoms: N_10  and  C_24
    5  A    between atoms: C_16  and  C_27
    6  A    between atoms: C_27  and  C_32
                            x       y       z     vdW  Elec       q    Type
                         _______ _______ _______ _____ _____    ______ ____

>  <TORSDO>
F 6

$$$$
