=
 OpenBabel10262420543D

 28 32  0  0  0  0  0  0  0  0999 V2000
  190.0750  177.6590  140.0020 N   0  0  0  0  0  0  0  0  0  0  0  0
  191.4540  176.4260  145.1140 S   0  0  0  0  0  0  0  0  0  0  0  0
  185.8330  178.3140  142.4170 C   0  0  0  0  0  1  0  0  0  0  0  0
  189.2890  177.1770  146.1310 C   0  0  0  0  0  0  0  0  0  0  0  0
  189.2230  177.3570  143.6480 C   0  0  0  0  0  0  0  0  0  0  0  0
  189.9010  177.0230  144.9020 C   0  0  0  0  0  0  0  0  0  0  0  0
  187.1080  177.5220  144.9540 C   0  0  0  0  0  2  0  0  0  0  0  0
  190.0970  176.8290  147.2180 C   0  0  0  0  0  3  0  0  0  0  0  0
  188.0080  177.9940  141.1970 C   0  0  0  0  0  0  0  0  0  0  0  0
  189.9330  177.3720  142.4410 O   0  0  0  0  0  0  0  0  0  0  0  0
  187.9270  177.7920  146.2310 C   0  0  0  0  0  2  0  0  0  0  0  0
  188.0570  178.3610  138.7750 C   0  0  0  0  0  3  0  0  0  0  0  0
  187.2540  177.9880  142.4270 N   0  0  0  0  0  0  0  0  0  0  0  0
  187.3530  178.2690  139.9030 C   0  0  0  0  0  3  0  0  0  0  0  0
  191.3480  176.3820  146.7990 C   0  0  0  0  0  0  0  0  0  0  0  0
  187.9100  177.6650  143.6680 C   0  0  0  0  0  0  0  0  0  0  0  0
  189.5580  178.2600  138.7700 C   0  0  0  0  0  2  0  0  0  0  0  0
  189.3150  177.6870  141.2230 C   0  0  0  0  0  0  0  0  0  0  0  0
  192.4200  175.8880  147.7030 C   0  0  0  0  0  2  0  0  0  0  0  0
  192.7080  176.8600  148.6620 O   0  0  0  0  0  1  0  0  0  0  0  0
  191.4490  177.1760  140.0040 C   0  0  0  0  0  2  0  0  0  0  0  0
  191.7350  176.4270  138.7460 C   0  0  0  0  0  0  0  0  0  0  0  0
  192.3050  174.9890  136.4150 C   0  0  0  0  0  0  0  0  0  0  0  0
  190.8630  175.4230  138.3120 C   0  0  0  0  0  3  0  0  0  0  0  0
  192.8970  176.7060  138.0170 C   0  0  0  0  0  3  0  0  0  0  0  0
  193.1790  175.9890  136.8510 C   0  0  0  0  0  3  0  0  0  0  0  0
  192.6060  174.2270  135.1760 C   0  0  0  0  0  1  0  0  0  0  0  0
  191.1460  174.7050  137.1460 C   0  0  0  0  0  3  0  0  0  0  0  0
  1 21  1  0  0  0  0
  1 18  1  0  0  0  0
  2 15  1  0  0  0  0
  3 13  1  0  0  0  0
  4 11  1  0  0  0  0
  4  8  1  0  0  0  0
  5 16  2  0  0  0  0
  5  6  1  0  0  0  0
  6  2  1  0  0  0  0
  6  4  2  0  0  0  0
  7 11  1  0  0  0  0
  9 18  2  0  0  0  0
  9 13  1  0  0  0  0
 10  5  1  0  0  0  0
 12 14  2  0  0  0  0
 13 16  1  0  0  0  0
 14  9  1  0  0  0  0
 15  8  2  0  0  0  0
 15 19  1  0  0  0  0
 16  7  1  0  0  0  0
 17 12  1  0  0  0  0
 17  1  1  0  0  0  0
 18 10  1  0  0  0  0
 19 20  1  0  0  0  0
 22 21  1  0  0  0  0
 23 26  2  0  0  0  0
 23 28  1  0  0  0  0
 24 22  1  0  0  0  0
 25 22  2  0  0  0  0
 26 25  1  0  0  0  0
 27 23  1  0  0  0  0
 28 24  2  0  0  0  0
M  END
>  <MODEL>
1

>  <REMARK>
 VINA RESULT:      -9.1      0.000      0.000
  Name = 
  3 active torsions:
  status: ('A' for Active; 'I' for Inactive)
    1  A    between atoms: N_1  and  C_2
    2  A    between atoms: C_2  and  C_3
    3  A    between atoms: C_12  and  C_24
                            x       y       z     vdW  Elec       q    Type
                         _______ _______ _______ _____ _____    ______ ____

>  <TORSDO>
F 3

$$$$
=
 OpenBabel10262420543D

 28 32  0  0  0  0  0  0  0  0999 V2000
  187.1390  178.2010  140.8700 N   0  0  0  0  0  0  0  0  0  0  0  0
  190.1010  176.9100  145.2430 S   0  0  0  0  0  0  0  0  0  0  0  0
  183.8960  178.7650  144.5330 C   0  0  0  0  0  1  0  0  0  0  0  0
  188.3720  177.6180  146.9160 C   0  0  0  0  0  0  0  0  0  0  0  0
  187.5090  177.8340  144.5900 C   0  0  0  0  0  0  0  0  0  0  0  0
  188.5570  177.4910  145.5530 C   0  0  0  0  0  0  0  0  0  0  0  0
  185.9260  177.9530  146.5100 C   0  0  0  0  0  2  0  0  0  0  0  0
  189.4900  177.2650  147.6780 C   0  0  0  0  0  3  0  0  0  0  0  0
  185.5640  178.4920  142.6730 C   0  0  0  0  0  0  0  0  0  0  0  0
  187.7920  177.8770  143.2200 O   0  0  0  0  0  0  0  0  0  0  0  0
  187.1110  178.2140  147.4610 C   0  0  0  0  0  2  0  0  0  0  0  0
  184.8280  178.8950  140.3700 C   0  0  0  0  0  3  0  0  0  0  0  0
  185.2470  178.4580  144.0790 N   0  0  0  0  0  0  0  0  0  0  0  0
  184.5260  178.7770  141.6640 C   0  0  0  0  0  3  0  0  0  0  0  0
  190.5430  176.8410  146.8710 C   0  0  0  0  0  0  0  0  0  0  0  0
  186.2710  178.1250  145.0370 C   0  0  0  0  0  0  0  0  0  0  0  0
  186.2480  178.8140  139.8810 C   0  0  0  0  0  2  0  0  0  0  0  0
  186.8130  178.2010  142.2710 C   0  0  0  0  0  0  0  0  0  0  0  0
  191.8530  176.3470  147.3730 C   0  0  0  0  0  2  0  0  0  0  0  0
  192.2690  177.1350  148.4460 O   0  0  0  0  0  1  0  0  0  0  0  0
  188.4440  177.7360  140.4210 C   0  0  0  0  0  2  0  0  0  0  0  0
  188.4970  177.7040  138.9310 C   0  0  0  0  0  0  0  0  0  0  0  0
  188.6460  177.6260  136.1380 C   0  0  0  0  0  0  0  0  0  0  0  0
  187.9920  176.6010  138.2330 C   0  0  0  0  0  3  0  0  0  0  0  0
  189.0830  178.7650  138.2300 C   0  0  0  0  0  3  0  0  0  0  0  0
  189.1550  178.7270  136.8350 C   0  0  0  0  0  3  0  0  0  0  0  0
  188.7230  177.5860  134.6550 C   0  0  0  0  0  1  0  0  0  0  0  0
  188.0650  176.5630  136.8370 C   0  0  0  0  0  3  0  0  0  0  0  0
  1 18  1  0  0  0  0
  2  6  1  0  0  0  0
  2 15  1  0  0  0  0
  4 11  1  0  0  0  0
  4  8  1  0  0  0  0
  5 16  2  0  0  0  0
  5  6  1  0  0  0  0
  6  4  2  0  0  0  0
  7 11  1  0  0  0  0
  9 13  1  0  0  0  0
 10  5  1  0  0  0  0
 12 14  2  0  0  0  0
 13  3  1  0  0  0  0
 13 16  1  0  0  0  0
 14  9  1  0  0  0  0
 15 19  1  0  0  0  0
 15  8  2  0  0  0  0
 16  7  1  0  0  0  0
 17 12  1  0  0  0  0
 17  1  1  0  0  0  0
 18  9  2  0  0  0  0
 18 10  1  0  0  0  0
 19 20  1  0  0  0  0
 21  1  1  0  0  0  0
 22 21  1  0  0  0  0
 23 26  2  0  0  0  0
 23 28  1  0  0  0  0
 24 22  1  0  0  0  0
 25 22  2  0  0  0  0
 26 25  1  0  0  0  0
 27 23  1  0  0  0  0
 28 24  2  0  0  0  0
M  END
>  <MODEL>
2

>  <REMARK>
 VINA RESULT:      -9.0      2.467      2.937
  Name = 
  3 active torsions:
  status: ('A' for Active; 'I' for Inactive)
    1  A    between atoms: N_1  and  C_2
    2  A    between atoms: C_2  and  C_3
    3  A    between atoms: C_12  and  C_24
                            x       y       z     vdW  Elec       q    Type
                         _______ _______ _______ _____ _____    ______ ____

>  <TORSDO>
F 3

$$$$
=
 OpenBabel10262420543D

 28 32  0  0  0  0  0  0  0  0999 V2000
  189.7370  176.9440  142.6320 N   0  0  0  0  0  0  0  0  0  0  0  0
  184.5710  178.6260  142.8460 S   0  0  0  0  0  0  0  0  0  0  0  0
  189.0680  177.6530  147.4590 C   0  0  0  0  0  1  0  0  0  0  0  0
  184.4030  178.5530  145.3470 C   0  0  0  0  0  0  0  0  0  0  0  0
  186.7100  178.0020  144.5880 C   0  0  0  0  0  0  0  0  0  0  0  0
  185.3170  178.3680  144.3280 C   0  0  0  0  0  0  0  0  0  0  0  0
  186.2920  178.5280  146.9870 C   0  0  0  0  0  2  0  0  0  0  0  0
  183.1160  178.8770  144.9080 C   0  0  0  0  0  3  0  0  0  0  0  0
  189.3930  177.2770  144.9950 C   0  0  0  0  0  0  0  0  0  0  0  0
  187.5560  177.6370  143.5340 O   0  0  0  0  0  0  0  0  0  0  0  0
  184.7860  178.2850  146.7700 C   0  0  0  0  0  2  0  0  0  0  0  0
  191.5890  176.5300  144.2030 C   0  0  0  0  0  3  0  0  0  0  0  0
  188.5420  177.6470  146.0990 N   0  0  0  0  0  0  0  0  0  0  0  0
  190.8180  176.9560  145.2050 C   0  0  0  0  0  3  0  0  0  0  0  0
  183.0580  178.9580  143.5190 C   0  0  0  0  0  0  0  0  0  0  0  0
  187.1680  178.0060  145.8560 C   0  0  0  0  0  0  0  0  0  0  0  0
  191.0330  176.2880  142.8270 C   0  0  0  0  0  2  0  0  0  0  0  0
  188.8940  177.2810  143.7470 C   0  0  0  0  0  0  0  0  0  0  0  0
  181.8490  179.3340  142.7390 C   0  0  0  0  0  2  0  0  0  0  0  0
  181.8530  178.6630  141.5160 O   0  0  0  0  0  1  0  0  0  0  0  0
  189.2460  177.0980  141.2690 C   0  0  0  0  0  2  0  0  0  0  0  0
  190.3570  176.8980  140.2940 C   0  0  0  0  0  0  0  0  0  0  0  0
  192.4210  176.5630  138.4350 C   0  0  0  0  0  0  0  0  0  0  0  0
  191.6060  177.4870  140.5210 C   0  0  0  0  0  3  0  0  0  0  0  0
  190.1400  176.1470  139.1330 C   0  0  0  0  0  3  0  0  0  0  0  0
  191.1720  175.9780  138.2060 C   0  0  0  0  0  3  0  0  0  0  0  0
  193.5180  176.3830  137.4490 C   0  0  0  0  0  1  0  0  0  0  0  0
  192.6380  177.3190  139.5930 C   0  0  0  0  0  3  0  0  0  0  0  0
  1 17  1  0  0  0  0
  1 18  1  0  0  0  0
  2 15  1  0  0  0  0
  2  6  1  0  0  0  0
  4 11  1  0  0  0  0
  5 16  2  0  0  0  0
  6  5  1  0  0  0  0
  6  4  2  0  0  0  0
  8  4  1  0  0  0  0
  9 14  1  0  0  0  0
  9 13  1  0  0  0  0
 10 18  1  0  0  0  0
 10  5  1  0  0  0  0
 11  7  1  0  0  0  0
 12 14  2  0  0  0  0
 13  3  1  0  0  0  0
 15  8  2  0  0  0  0
 16 13  1  0  0  0  0
 16  7  1  0  0  0  0
 17 12  1  0  0  0  0
 18  9  2  0  0  0  0
 19 15  1  0  0  0  0
 20 19  1  0  0  0  0
 21  1  1  0  0  0  0
 22 24  1  0  0  0  0
 22 21  1  0  0  0  0
 23 28  1  0  0  0  0
 25 22  2  0  0  0  0
 26 23  2  0  0  0  0
 26 25  1  0  0  0  0
 27 23  1  0  0  0  0
 28 24  2  0  0  0  0
M  END
>  <MODEL>
3

>  <REMARK>
 VINA RESULT:      -9.0      2.930      5.568
  Name = 
  3 active torsions:
  status: ('A' for Active; 'I' for Inactive)
    1  A    between atoms: N_1  and  C_2
    2  A    between atoms: C_2  and  C_3
    3  A    between atoms: C_12  and  C_24
                            x       y       z     vdW  Elec       q    Type
                         _______ _______ _______ _____ _____    ______ ____

>  <TORSDO>
F 3

$$$$
=
 OpenBabel10262420543D

 28 32  0  0  0  0  0  0  0  0999 V2000
  184.1150  178.7930  142.5020 N   0  0  0  0  0  0  0  0  0  0  0  0
  188.9680  177.4120  140.4780 S   0  0  0  0  0  0  0  0  0  0  0  0
  186.7150  177.8440  146.5760 C   0  0  0  0  0  1  0  0  0  0  0  0
  190.1390  177.3490  142.6950 C   0  0  0  0  0  0  0  0  0  0  0  0
  187.7070  177.8040  142.9790 C   0  0  0  0  0  0  0  0  0  0  0  0
  188.8840  177.5380  142.1500 C   0  0  0  0  0  0  0  0  0  0  0  0
  189.0830  177.1660  144.9560 C   0  0  0  0  0  2  0  0  0  0  0  0
  191.1440  177.1280  141.7490 C   0  0  0  0  0  3  0  0  0  0  0  0
  185.4020  178.3430  144.4910 C   0  0  0  0  0  0  0  0  0  0  0  0
  186.4950  178.1790  142.3890 O   0  0  0  0  0  0  0  0  0  0  0  0
  190.3610  177.5100  144.1670 C   0  0  0  0  0  2  0  0  0  0  0  0
  183.0530  179.0030  144.7160 C   0  0  0  0  0  3  0  0  0  0  0  0
  186.6410  177.9610  145.1240 N   0  0  0  0  0  0  0  0  0  0  0  0
  184.1770  178.5660  145.2840 C   0  0  0  0  0  3  0  0  0  0  0  0
  190.6330  177.1320  140.4530 C   0  0  0  0  0  0  0  0  0  0  0  0
  187.8070  177.6990  144.3190 C   0  0  0  0  0  0  0  0  0  0  0  0
  182.9920  179.3580  143.2550 C   0  0  0  0  0  2  0  0  0  0  0  0
  185.3490  178.4420  143.1520 C   0  0  0  0  0  0  0  0  0  0  0  0
  191.4310  176.8750  139.2240 C   0  0  0  0  0  2  0  0  0  0  0  0
  191.1170  175.6140  138.7180 O   0  0  0  0  0  1  0  0  0  0  0  0
  184.0120  178.7480  141.0500 C   0  0  0  0  0  2  0  0  0  0  0  0
  182.8510  177.9050  140.6410 C   0  0  0  0  0  0  0  0  0  0  0  0
  180.6660  176.3570  139.8290 C   0  0  0  0  0  0  0  0  0  0  0  0
  183.0560  176.7530  139.8730 C   0  0  0  0  0  3  0  0  0  0  0  0
  181.5520  178.2860  140.9960 C   0  0  0  0  0  3  0  0  0  0  0  0
  180.4610  177.5110  140.5930 C   0  0  0  0  0  3  0  0  0  0  0  0
  179.5060  175.5340  139.4010 C   0  0  0  0  0  1  0  0  0  0  0  0
  181.9640  175.9790  139.4690 C   0  0  0  0  0  3  0  0  0  0  0  0
  1 18  1  0  0  0  0
  1 17  1  0  0  0  0
  2  6  1  0  0  0  0
  4 11  1  0  0  0  0
  5 16  2  0  0  0  0
  6  4  2  0  0  0  0
  6  5  1  0  0  0  0
  8  4  1  0  0  0  0
  9 13  1  0  0  0  0
  9 14  1  0  0  0  0
 10  5  1  0  0  0  0
 10 18  1  0  0  0  0
 11  7  1  0  0  0  0
 12 14  2  0  0  0  0
 13  3  1  0  0  0  0
 15  2  1  0  0  0  0
 15  8  2  0  0  0  0
 16  7  1  0  0  0  0
 16 13  1  0  0  0  0
 17 12  1  0  0  0  0
 18  9  2  0  0  0  0
 19 15  1  0  0  0  0
 20 19  1  0  0  0  0
 21  1  1  0  0  0  0
 22 25  1  0  0  0  0
 22 21  1  0  0  0  0
 23 26  1  0  0  0  0
 24 22  2  0  0  0  0
 26 25  2  0  0  0  0
 27 23  1  0  0  0  0
 28 23  2  0  0  0  0
 28 24  1  0  0  0  0
M  END
>  <MODEL>
4

>  <REMARK>
 VINA RESULT:      -8.6      3.472      7.462
  Name = 
  3 active torsions:
  status: ('A' for Active; 'I' for Inactive)
    1  A    between atoms: N_1  and  C_2
    2  A    between atoms: C_2  and  C_3
    3  A    between atoms: C_12  and  C_24
                            x       y       z     vdW  Elec       q    Type
                         _______ _______ _______ _____ _____    ______ ____

>  <TORSDO>
F 3

$$$$
=
 OpenBabel10262420543D

 28 32  0  0  0  0  0  0  0  0999 V2000
  189.1520  177.6530  138.4830 N   0  0  0  0  0  0  0  0  0  0  0  0
  185.1980  178.6920  142.0670 S   0  0  0  0  0  0  0  0  0  0  0  0
  191.4410  176.9780  142.7900 C   0  0  0  0  0  1  0  0  0  0  0  0
  186.4950  177.9370  144.0760 C   0  0  0  0  0  0  0  0  0  0  0  0
  187.8950  177.8430  142.0170 C   0  0  0  0  0  0  0  0  0  0  0  0
  186.6380  178.1240  142.7140 C   0  0  0  0  0  0  0  0  0  0  0  0
  188.9760  177.6640  144.2550 C   0  0  0  0  0  2  0  0  0  0  0  0
  185.2190  178.2360  144.5620 C   0  0  0  0  0  3  0  0  0  0  0  0
  190.2580  177.3080  140.5970 C   0  0  0  0  0  0  0  0  0  0  0  0
  187.9480  177.8590  140.6190 O   0  0  0  0  0  0  0  0  0  0  0  0
  187.6060  177.3390  144.8820 C   0  0  0  0  0  2  0  0  0  0  0  0
  191.5330  177.0230  138.5240 C   0  0  0  0  0  3  0  0  0  0  0  0
  190.2290  177.2820  142.0390 N   0  0  0  0  0  0  0  0  0  0  0  0
  191.5150  177.0860  139.8560 C   0  0  0  0  0  3  0  0  0  0  0  0
  184.3780  178.6790  143.5430 C   0  0  0  0  0  0  0  0  0  0  0  0
  188.9980  177.5540  142.7370 C   0  0  0  0  0  0  0  0  0  0  0  0
  190.2690  177.1020  137.7120 C   0  0  0  0  0  2  0  0  0  0  0  0
  189.1340  177.5950  139.9200 C   0  0  0  0  0  0  0  0  0  0  0  0
  182.9730  179.1260  143.7360 C   0  0  0  0  0  2  0  0  0  0  0  0
  182.2410  178.8850  142.5740 O   0  0  0  0  0  1  0  0  0  0  0  0
  187.9790  178.1160  137.7530 C   0  0  0  0  0  2  0  0  0  0  0  0
  187.0550  176.9770  137.4840 C   0  0  0  0  0  0  0  0  0  0  0  0
  185.3220  174.8270  137.0320 C   0  0  0  0  0  0  0  0  0  0  0  0
  185.6710  177.1860  137.4560 C   0  0  0  0  0  3  0  0  0  0  0  0
  187.5710  175.6900  137.2940 C   0  0  0  0  0  3  0  0  0  0  0  0
  186.7050  174.6160  137.0650 C   0  0  0  0  0  3  0  0  0  0  0  0
  184.4030  173.6860  136.7900 C   0  0  0  0  0  1  0  0  0  0  0  0
  184.8060  176.1120  137.2290 C   0  0  0  0  0  3  0  0  0  0  0  0
  1 18  1  0  0  0  0
  2  6  1  0  0  0  0
  2 15  1  0  0  0  0
  4  8  1  0  0  0  0
  4 11  1  0  0  0  0
  5  6  1  0  0  0  0
  5 16  2  0  0  0  0
  6  4  2  0  0  0  0
  7 11  1  0  0  0  0
  9 13  1  0  0  0  0
 10  5  1  0  0  0  0
 12 14  2  0  0  0  0
 13 16  1  0  0  0  0
 13  3  1  0  0  0  0
 14  9  1  0  0  0  0
 15 19  1  0  0  0  0
 15  8  2  0  0  0  0
 16  7  1  0  0  0  0
 17  1  1  0  0  0  0
 17 12  1  0  0  0  0
 18  9  2  0  0  0  0
 18 10  1  0  0  0  0
 20 19  1  0  0  0  0
 21  1  1  0  0  0  0
 22 21  1  0  0  0  0
 23 26  2  0  0  0  0
 23 28  1  0  0  0  0
 24 22  1  0  0  0  0
 25 22  2  0  0  0  0
 26 25  1  0  0  0  0
 27 23  1  0  0  0  0
 28 24  2  0  0  0  0
M  END
>  <MODEL>
5

>  <REMARK>
 VINA RESULT:      -8.2      3.209      5.554
  Name = 
  3 active torsions:
  status: ('A' for Active; 'I' for Inactive)
    1  A    between atoms: N_1  and  C_2
    2  A    between atoms: C_2  and  C_3
    3  A    between atoms: C_12  and  C_24
                            x       y       z     vdW  Elec       q    Type
                         _______ _______ _______ _____ _____    ______ ____

>  <TORSDO>
F 3

$$$$
=
 OpenBabel10262420543D

 28 32  0  0  0  0  0  0  0  0999 V2000
  189.6810  177.8710  140.2060 N   0  0  0  0  0  0  0  0  0  0  0  0
  184.8930  178.8510  142.5870 S   0  0  0  0  0  0  0  0  0  0  0  0
  190.7240  177.1890  144.9710 C   0  0  0  0  0  1  0  0  0  0  0  0
  185.6050  178.0950  144.8700 C   0  0  0  0  0  0  0  0  0  0  0  0
  187.5110  178.0270  143.2680 C   0  0  0  0  0  0  0  0  0  0  0  0
  186.1100  178.2920  143.5990 C   0  0  0  0  0  0  0  0  0  0  0  0
  187.9470  177.8430  145.7140 C   0  0  0  0  0  2  0  0  0  0  0  0
  184.2420  178.3790  144.9930 C   0  0  0  0  0  3  0  0  0  0  0  0
  190.1760  177.5220  142.5400 C   0  0  0  0  0  0  0  0  0  0  0  0
  187.9420  178.0520  141.9360 O   0  0  0  0  0  0  0  0  0  0  0  0
  186.4620  177.5010  145.9450 C   0  0  0  0  0  2  0  0  0  0  0  0
  191.9690  177.2620  140.8890 C   0  0  0  0  0  3  0  0  0  0  0  0
  189.7580  177.4870  143.9200 N   0  0  0  0  0  0  0  0  0  0  0  0
  191.5900  177.3170  142.1660 C   0  0  0  0  0  3  0  0  0  0  0  0
  183.7040  178.8210  143.7860 C   0  0  0  0  0  0  0  0  0  0  0  0
  188.3810  177.7430  144.2580 C   0  0  0  0  0  0  0  0  0  0  0  0
  190.9720  177.3350  139.7650 C   0  0  0  0  0  2  0  0  0  0  0  0
  189.2750  177.8030  141.5840 C   0  0  0  0  0  0  0  0  0  0  0  0
  182.2940  179.2540  143.5920 C   0  0  0  0  0  2  0  0  0  0  0  0
  181.7650  178.6320  142.4620 O   0  0  0  0  0  1  0  0  0  0  0  0
  188.7460  178.3280  139.1880 C   0  0  0  0  0  2  0  0  0  0  0  0
  188.7780  177.4150  138.0090 C   0  0  0  0  0  0  0  0  0  0  0  0
  188.8790  175.6740  135.8210 C   0  0  0  0  0  0  0  0  0  0  0  0
  187.9450  176.2900  137.9690 C   0  0  0  0  0  3  0  0  0  0  0  0
  189.6660  177.6630  136.9570 C   0  0  0  0  0  3  0  0  0  0  0  0
  189.7150  176.7950  135.8620 C   0  0  0  0  0  3  0  0  0  0  0  0
  188.9320  174.7520  134.6580 C   0  0  0  0  0  1  0  0  0  0  0  0
  187.9950  175.4220  136.8750 C   0  0  0  0  0  3  0  0  0  0  0  0
  1 18  1  0  0  0  0
  2  6  1  0  0  0  0
  2 15  1  0  0  0  0
  4  8  1  0  0  0  0
  4 11  1  0  0  0  0
  5  6  1  0  0  0  0
  5 16  2  0  0  0  0
  6  4  2  0  0  0  0
  7 11  1  0  0  0  0
  9 13  1  0  0  0  0
 10  5  1  0  0  0  0
 12 14  2  0  0  0  0
 13 16  1  0  0  0  0
 13  3  1  0  0  0  0
 14  9  1  0  0  0  0
 15  8  2  0  0  0  0
 16  7  1  0  0  0  0
 17  1  1  0  0  0  0
 17 12  1  0  0  0  0
 18 10  1  0  0  0  0
 18  9  2  0  0  0  0
 19 15  1  0  0  0  0
 20 19  1  0  0  0  0
 21  1  1  0  0  0  0
 22 21  1  0  0  0  0
 23 26  2  0  0  0  0
 23 28  1  0  0  0  0
 24 22  1  0  0  0  0
 25 22  2  0  0  0  0
 26 25  1  0  0  0  0
 27 23  1  0  0  0  0
 28 24  2  0  0  0  0
M  END
>  <MODEL>
6

>  <REMARK>
 VINA RESULT:      -8.2      2.901      4.990
  Name = 
  3 active torsions:
  status: ('A' for Active; 'I' for Inactive)
    1  A    between atoms: N_1  and  C_2
    2  A    between atoms: C_2  and  C_3
    3  A    between atoms: C_12  and  C_24
                            x       y       z     vdW  Elec       q    Type
                         _______ _______ _______ _____ _____    ______ ____

>  <TORSDO>
F 3

$$$$
=
 OpenBabel10262420543D

 28 32  0  0  0  0  0  0  0  0999 V2000
  185.1580  178.4500  144.0850 N   0  0  0  0  0  0  0  0  0  0  0  0
  189.3360  177.2910  140.8040 S   0  0  0  0  0  0  0  0  0  0  0  0
  188.8170  177.6680  147.2870 C   0  0  0  0  0  1  0  0  0  0  0  0
  191.0700  177.3060  142.6150 C   0  0  0  0  0  0  0  0  0  0  0  0
  188.7890  177.6440  143.5560 C   0  0  0  0  0  0  0  0  0  0  0  0
  189.7060  177.4280  142.4350 C   0  0  0  0  0  0  0  0  0  0  0  0
  190.6830  177.0920  145.0780 C   0  0  0  0  0  2  0  0  0  0  0  0
  191.7880  177.1260  141.4290 C   0  0  0  0  0  3  0  0  0  0  0  0
  186.9610  178.0820  145.6430 C   0  0  0  0  0  0  0  0  0  0  0  0
  187.4440  177.9530  143.3220 O   0  0  0  0  0  0  0  0  0  0  0  0
  191.6780  177.4920  143.9710 C   0  0  0  0  0  2  0  0  0  0  0  0
  184.7330  178.6280  146.5050 C   0  0  0  0  0  3  0  0  0  0  0  0
  188.3430  177.7680  145.9120 N   0  0  0  0  0  0  0  0  0  0  0  0
  185.9900  178.2520  146.7420 C   0  0  0  0  0  3  0  0  0  0  0  0
  190.9420  177.0930  140.3230 C   0  0  0  0  0  0  0  0  0  0  0  0
  189.2560  177.5560  144.8180 C   0  0  0  0  0  0  0  0  0  0  0  0
  184.2570  178.9660  145.1190 C   0  0  0  0  0  2  0  0  0  0  0  0
  186.5390  178.1660  144.3710 C   0  0  0  0  0  0  0  0  0  0  0  0
  191.3850  176.8650  138.9220 C   0  0  0  0  0  2  0  0  0  0  0  0
  191.1480  175.5370  138.5670 O   0  0  0  0  0  1  0  0  0  0  0  0
  184.6650  178.3860  142.7170 C   0  0  0  0  0  2  0  0  0  0  0  0
  183.1820  178.5440  142.6940 C   0  0  0  0  0  0  0  0  0  0  0  0
  180.4060  178.8940  142.6580 C   0  0  0  0  0  0  0  0  0  0  0  0
  182.5040  178.6410  141.4740 C   0  0  0  0  0  3  0  0  0  0  0  0
  182.4700  178.6290  143.8970 C   0  0  0  0  0  3  0  0  0  0  0  0
  181.0830  178.8020  143.8780 C   0  0  0  0  0  3  0  0  0  0  0  0
  178.9320  179.0780  142.6400 C   0  0  0  0  0  1  0  0  0  0  0  0
  181.1170  178.8150  141.4560 C   0  0  0  0  0  3  0  0  0  0  0  0
  1 18  1  0  0  0  0
  1 17  1  0  0  0  0
  2  6  1  0  0  0  0
  4 11  1  0  0  0  0
  5 16  2  0  0  0  0
  6  4  2  0  0  0  0
  6  5  1  0  0  0  0
  8  4  1  0  0  0  0
  9 13  1  0  0  0  0
  9 14  1  0  0  0  0
 10  5  1  0  0  0  0
 10 18  1  0  0  0  0
 11  7  1  0  0  0  0
 12 14  2  0  0  0  0
 13  3  1  0  0  0  0
 15  2  1  0  0  0  0
 15  8  2  0  0  0  0
 16  7  1  0  0  0  0
 16 13  1  0  0  0  0
 17 12  1  0  0  0  0
 18  9  2  0  0  0  0
 19 15  1  0  0  0  0
 20 19  1  0  0  0  0
 21  1  1  0  0  0  0
 22 21  1  0  0  0  0
 22 25  1  0  0  0  0
 23 26  1  0  0  0  0
 24 22  2  0  0  0  0
 26 25  2  0  0  0  0
 27 23  1  0  0  0  0
 28 24  1  0  0  0  0
 28 23  2  0  0  0  0
M  END
>  <MODEL>
7

>  <REMARK>
 VINA RESULT:      -7.9      3.133      8.139
  Name = 
  3 active torsions:
  status: ('A' for Active; 'I' for Inactive)
    1  A    between atoms: N_1  and  C_2
    2  A    between atoms: C_2  and  C_3
    3  A    between atoms: C_12  and  C_24
                            x       y       z     vdW  Elec       q    Type
                         _______ _______ _______ _____ _____    ______ ____

>  <TORSDO>
F 3

$$$$
=
 OpenBabel10262420543D

 28 32  0  0  0  0  0  0  0  0999 V2000
  187.9020  177.8760  144.8640 N   0  0  0  0  0  0  0  0  0  0  0  0
  187.7750  178.2510  139.4410 S   0  0  0  0  0  0  0  0  0  0  0  0
  183.1350  178.7460  143.9870 C   0  0  0  0  0  1  0  0  0  0  0  0
  185.2750  178.3200  139.2670 C   0  0  0  0  0  0  0  0  0  0  0  0
  186.0070  178.2980  141.6480 C   0  0  0  0  0  0  0  0  0  0  0  0
  186.2840  178.2920  140.2100 C   0  0  0  0  0  0  0  0  0  0  0  0
  183.6500  178.8770  141.0870 C   0  0  0  0  0  2  0  0  0  0  0  0
  185.7280  178.2860  137.9450 C   0  0  0  0  0  3  0  0  0  0  0  0
  185.5670  178.2850  144.4220 C   0  0  0  0  0  0  0  0  0  0  0  0
  187.0380  178.0770  142.5690 O   0  0  0  0  0  0  0  0  0  0  0  0
  183.8390  178.2570  139.6880 C   0  0  0  0  0  2  0  0  0  0  0  0
  186.3170  178.0440  146.7420 C   0  0  0  0  0  3  0  0  0  0  0  0
  184.4870  178.5130  143.4940 N   0  0  0  0  0  0  0  0  0  0  0  0
  185.3440  178.3390  145.8800 C   0  0  0  0  0  3  0  0  0  0  0  0
  187.1190  178.2490  137.8850 C   0  0  0  0  0  0  0  0  0  0  0  0
  184.7460  178.5060  142.0760 C   0  0  0  0  0  0  0  0  0  0  0  0
  187.6680  177.5740  146.2780 C   0  0  0  0  0  2  0  0  0  0  0  0
  186.8080  178.0760  143.9510 C   0  0  0  0  0  0  0  0  0  0  0  0
  187.9150  178.2590  136.6290 C   0  0  0  0  0  2  0  0  0  0  0  0
  189.0630  179.0310  136.8100 O   0  0  0  0  0  1  0  0  0  0  0  0
  189.2690  177.8070  144.3650 C   0  0  0  0  0  2  0  0  0  0  0  0
  190.1690  177.2300  145.4050 C   0  0  0  0  0  0  0  0  0  0  0  0
  191.8950  176.1850  147.3440 C   0  0  0  0  0  0  0  0  0  0  0  0
  190.0140  177.5910  146.7480 C   0  0  0  0  0  3  0  0  0  0  0  0
  191.1930  176.3510  145.0320 C   0  0  0  0  0  3  0  0  0  0  0  0
  192.0530  175.8270  146.0010 C   0  0  0  0  0  3  0  0  0  0  0  0
  192.8090  175.6280  148.3730 C   0  0  0  0  0  1  0  0  0  0  0  0
  190.8760  177.0680  147.7170 C   0  0  0  0  0  3  0  0  0  0  0  0
  1 17  1  0  0  0  0
  2  6  1  0  0  0  0
  4 11  1  0  0  0  0
  4  6  2  0  0  0  0
  5 16  2  0  0  0  0
  5 10  1  0  0  0  0
  6  5  1  0  0  0  0
  7 16  1  0  0  0  0
  8  4  1  0  0  0  0
  9 14  1  0  0  0  0
 10 18  1  0  0  0  0
 11  7  1  0  0  0  0
 13  3  1  0  0  0  0
 13  9  1  0  0  0  0
 14 12  2  0  0  0  0
 15  8  2  0  0  0  0
 15  2  1  0  0  0  0
 16 13  1  0  0  0  0
 17 12  1  0  0  0  0
 18  9  2  0  0  0  0
 18  1  1  0  0  0  0
 19 20  1  0  0  0  0
 19 15  1  0  0  0  0
 21  1  1  0  0  0  0
 21 22  1  0  0  0  0
 22 24  1  0  0  0  0
 23 28  1  0  0  0  0
 23 27  1  0  0  0  0
 24 28  2  0  0  0  0
 25 22  2  0  0  0  0
 25 26  1  0  0  0  0
 26 23  2  0  0  0  0
M  END
>  <MODEL>
8

>  <REMARK>
 VINA RESULT:      -7.8      3.858      7.873
  Name = 
  3 active torsions:
  status: ('A' for Active; 'I' for Inactive)
    1  A    between atoms: N_1  and  C_2
    2  A    between atoms: C_2  and  C_3
    3  A    between atoms: C_12  and  C_24
                            x       y       z     vdW  Elec       q    Type
                         _______ _______ _______ _____ _____    ______ ____

>  <TORSDO>
F 3

$$$$
=
 OpenBabel10262420543D

 28 32  0  0  0  0  0  0  0  0999 V2000
  189.3230  177.8800  142.9300 N   0  0  0  0  0  0  0  0  0  0  0  0
  183.9450  178.6040  142.5960 S   0  0  0  0  0  0  0  0  0  0  0  0
  188.5650  177.8610  138.0640 C   0  0  0  0  0  1  0  0  0  0  0  0
  183.9020  178.9140  140.1080 C   0  0  0  0  0  0  0  0  0  0  0  0
  186.1970  178.3640  140.9030 C   0  0  0  0  0  0  0  0  0  0  0  0
  184.7740  178.6170  141.1370 C   0  0  0  0  0  0  0  0  0  0  0  0
  185.6700  178.2360  138.4720 C   0  0  0  0  0  2  0  0  0  0  0  0
  182.5880  179.1460  140.5230 C   0  0  0  0  0  3  0  0  0  0  0  0
  188.9430  177.8900  140.5490 C   0  0  0  0  0  0  0  0  0  0  0  0
  187.0840  178.2570  141.9810 O   0  0  0  0  0  0  0  0  0  0  0  0
  184.4070  179.0880  138.7090 C   0  0  0  0  0  2  0  0  0  0  0  0
  191.2210  177.5630  141.3910 C   0  0  0  0  0  3  0  0  0  0  0  0
  188.0510  178.0000  139.4210 N   0  0  0  0  0  0  0  0  0  0  0  0
  190.3740  177.5800  140.3620 C   0  0  0  0  0  3  0  0  0  0  0  0
  182.4570  179.0030  141.9030 C   0  0  0  0  0  0  0  0  0  0  0  0
  186.6480  178.2510  139.6380 C   0  0  0  0  0  0  0  0  0  0  0  0
  190.7800  177.9260  142.7830 C   0  0  0  0  0  2  0  0  0  0  0  0
  188.4520  178.0160  141.7930 C   0  0  0  0  0  0  0  0  0  0  0  0
  181.1800  179.1320  142.6530 C   0  0  0  0  0  2  0  0  0  0  0  0
  181.3630  178.6990  143.9660 O   0  0  0  0  0  1  0  0  0  0  0  0
  188.7710  177.8590  144.2770 C   0  0  0  0  0  2  0  0  0  0  0  0
  189.7690  177.3020  145.2360 C   0  0  0  0  0  0  0  0  0  0  0  0
  191.6090  176.2160  147.0430 C   0  0  0  0  0  0  0  0  0  0  0  0
  190.8370  176.5280  144.7680 C   0  0  0  0  0  3  0  0  0  0  0  0
  189.6190  177.5270  146.6090 C   0  0  0  0  0  3  0  0  0  0  0  0
  190.5400  176.9860  147.5110 C   0  0  0  0  0  3  0  0  0  0  0  0
  192.5870  175.6410  148.0020 C   0  0  0  0  0  1  0  0  0  0  0  0
  191.7570  175.9860  145.6710 C   0  0  0  0  0  3  0  0  0  0  0  0
  1 21  1  0  0  0  0
  3 13  1  0  0  0  0
  4  8  1  0  0  0  0
  4  6  2  0  0  0  0
  5  6  1  0  0  0  0
  5 10  1  0  0  0  0
  6  2  1  0  0  0  0
  7 11  1  0  0  0  0
  7 16  1  0  0  0  0
  8 15  2  0  0  0  0
  9 18  2  0  0  0  0
 11  4  1  0  0  0  0
 12 17  1  0  0  0  0
 13 16  1  0  0  0  0
 13  9  1  0  0  0  0
 14  9  1  0  0  0  0
 14 12  2  0  0  0  0
 15  2  1  0  0  0  0
 15 19  1  0  0  0  0
 16  5  2  0  0  0  0
 17  1  1  0  0  0  0
 18 10  1  0  0  0  0
 18  1  1  0  0  0  0
 19 20  1  0  0  0  0
 21 22  1  0  0  0  0
 22 25  1  0  0  0  0
 23 26  1  0  0  0  0
 23 27  1  0  0  0  0
 24 22  2  0  0  0  0
 24 28  1  0  0  0  0
 25 26  2  0  0  0  0
 28 23  2  0  0  0  0
M  END
>  <MODEL>
9

>  <REMARK>
 VINA RESULT:      -7.5      3.340      7.661
  Name = 
  3 active torsions:
  status: ('A' for Active; 'I' for Inactive)
    1  A    between atoms: N_1  and  C_2
    2  A    between atoms: C_2  and  C_3
    3  A    between atoms: C_12  and  C_24
                            x       y       z     vdW  Elec       q    Type
                         _______ _______ _______ _____ _____    ______ ____

>  <TORSDO>
F 3

$$$$
