=
 OpenBabel10262420563D

 28 32  0  0  1  0  0  0  0  0999 V2000
  184.2860  179.0590  142.2360 C   0  0  0  0  0  3  0  0  0  0  0  0
  178.9530  180.7400  140.2640 O   0  0  0  0  0  1  0  0  0  0  0  0
  182.3340  178.6580  143.6080 C   0  0  0  0  0  0  0  0  0  0  0  0
  182.0080  178.7980  141.1430 C   0  0  2  0  0  3  0  0  0  0  0  0
  184.4630  178.9340  144.6330 C   0  0  0  0  0  0  0  0  0  0  0  0
  182.9090  178.8230  142.3350 C   0  0  0  0  0  0  0  0  0  0  0  0
  179.7060  179.1500  142.6030 S   0  0  0  0  0  0  0  0  0  0  0  0
  183.1240  178.7040  144.7140 N   0  0  0  0  0  0  0  0  0  0  0  0
  180.3950  179.3620  138.8790 C   0  0  2  0  0  3  0  0  0  0  0  0
  182.6790  179.0500  139.7960 C   0  0  0  0  0  2  0  0  0  0  0  0
  180.8770  178.3160  143.7660 C   0  0  0  0  0  2  0  0  0  0  0  0
  180.2770  180.3330  140.0760 C   0  0  2  0  0  3  0  0  0  0  0  0
  185.2830  178.9840  145.8720 C   0  0  0  0  0  1  0  0  0  0  0  0
  185.0690  179.1140  143.3900 C   0  0  0  0  0  3  0  0  0  0  0  0
  180.9030  179.8070  141.3810 C   0  0  2  0  0  3  0  0  0  0  0  0
  181.7450  178.7510  138.6890 N   0  0  1  0  0  0  0  0  0  0  0  0
  181.6590  177.2810  138.4100 C   0  0  1  0  0  0  0  0  0  0  0  0
  181.4660  176.9550  136.9150 C   0  0  2  0  0  3  0  0  0  0  0  0
  183.1650  175.6200  137.6250 C   0  0  2  0  0  0  0  0  0  0  0  0
  184.1210  176.7710  137.8720 C   0  0  0  0  0  2  0  0  0  0  0  0
  182.9250  176.5200  138.8010 C   0  0  1  0  0  3  0  0  0  0  0  0
  183.6190  174.2210  137.9810 C   0  0  0  0  0  1  0  0  0  0  0  0
  180.5100  176.6270  139.1810 C   0  0  0  0  0  1  0  0  0  0  0  0
  182.1880  175.7790  136.6210 O   0  0  0  0  0  0  0  0  0  0  0  0
  181.9380  178.0580  135.9670 C   0  0  0  0  0  2  0  0  0  0  0  0
  182.2220  177.4820  134.5940 C   0  0  0  0  0  1  0  0  0  0  0  0
  180.7680  181.1590  137.3280 O   0  0  0  0  0  1  0  0  0  0  0  0
  179.9400  180.0690  137.6070 C   0  0  0  0  0  2  0  0  0  0  0  0
  1  6  2  0  0  0  0
  1 14  1  0  0  0  0
  3 11  1  0  0  0  0
  3  8  2  0  0  0  0
  4 10  1  6  0  0  0
  4 15  1  0  0  0  0
  4  6  1  0  0  0  0
  5  8  1  0  0  0  0
  5 13  1  0  0  0  0
  6  3  1  0  0  0  0
  7 11  1  0  0  0  0
  9 28  1  6  0  0  0
  9 12  1  0  0  0  0
 12  2  1  1  0  0  0
 12 15  1  0  0  0  0
 14  5  2  0  0  0  0
 15  7  1  1  0  0  0
 16  9  1  0  0  0  0
 16 10  1  1  0  0  0
 17 16  1  0  0  0  0
 17 21  1  0  0  0  0
 17 23  1  1  0  0  0
 18 25  1  6  0  0  0
 18 17  1  0  0  0  0
 19 20  1  0  0  0  0
 19 22  1  1  0  0  0
 19 21  1  0  0  0  0
 21 20  1  6  0  0  0
 24 18  1  0  0  0  0
 24 19  1  0  0  0  0
 26 25  1  0  0  0  0
 27 28  1  0  0  0  0
M  END
>  <MODEL>
1

>  <REMARK>
 VINA RESULT:      -5.3      0.000      0.000
  Name = 
  3 active torsions:
  status: ('A' for Active; 'I' for Inactive)
    1  A    between atoms: C_1  and  N_27
    2  A    between atoms: C_2  and  C_3
    3  A    between atoms: C_16  and  C_21
                            x       y       z     vdW  Elec       q    Type
                         _______ _______ _______ _____ _____    ______ ____

>  <TORSDO>
F 3

$$$$
=
 OpenBabel10262420563D

 28 32  0  0  1  0  0  0  0  0999 V2000
  183.8200  178.6200  141.4370 C   0  0  0  0  0  3  0  0  0  0  0  0
  178.9310  181.7260  140.1700 O   0  0  0  0  0  1  0  0  0  0  0  0
  182.0660  178.7980  143.0940 C   0  0  0  0  0  0  0  0  0  0  0  0
  181.4210  179.0060  140.6970 C   0  0  2  0  0  3  0  0  0  0  0  0
  184.3170  178.4690  143.7880 C   0  0  0  0  0  0  0  0  0  0  0  0
  182.4630  178.7840  141.7450 C   0  0  0  0  0  0  0  0  0  0  0  0
  179.5570  180.0060  142.4530 S   0  0  0  0  0  0  0  0  0  0  0  0
  182.9970  178.6280  144.0720 N   0  0  0  0  0  0  0  0  0  0  0  0
  179.7040  179.9860  138.6630 C   0  0  2  0  0  3  0  0  0  0  0  0
  181.9230  179.0470  139.2570 C   0  0  0  0  0  2  0  0  0  0  0  0
  180.6130  178.8840  143.4770 C   0  0  0  0  0  2  0  0  0  0  0  0
  180.0450  180.9600  139.8140 C   0  0  2  0  0  3  0  0  0  0  0  0
  185.2970  178.2940  144.8910 C   0  0  0  0  0  1  0  0  0  0  0  0
  184.7530  178.4600  142.4620 C   0  0  0  0  0  3  0  0  0  0  0  0
  180.6900  180.2890  141.0410 C   0  0  2  0  0  3  0  0  0  0  0  0
  180.7860  179.0170  138.3120 N   0  0  1  0  0  0  0  0  0  0  0  0
  180.2520  177.6280  138.1230 C   0  0  1  0  0  0  0  0  0  0  0  0
  180.0050  177.2680  136.6440 C   0  0  2  0  0  3  0  0  0  0  0  0
  181.1840  175.5300  137.5160 C   0  0  2  0  0  0  0  0  0  0  0  0
  182.4450  176.3440  137.7340 C   0  0  0  0  0  2  0  0  0  0  0  0
  181.2070  176.5450  138.6190 C   0  0  1  0  0  3  0  0  0  0  0  0
  181.1700  174.0890  137.9800 C   0  0  0  0  0  1  0  0  0  0  0  0
  178.9380  177.4210  138.8780 C   0  0  0  0  0  1  0  0  0  0  0  0
  180.3310  175.9080  136.4580 O   0  0  0  0  0  0  0  0  0  0  0  0
  180.8210  178.0970  135.6510 C   0  0  0  0  0  2  0  0  0  0  0  0
  179.9110  178.6940  134.5960 C   0  0  0  0  0  1  0  0  0  0  0  0
  180.3780  181.4080  136.8480 O   0  0  0  0  0  1  0  0  0  0  0  0
  179.2770  180.7830  137.4350 C   0  0  0  0  0  2  0  0  0  0  0  0
  1  6  2  0  0  0  0
  1 14  1  0  0  0  0
  3 11  1  0  0  0  0
  3  8  2  0  0  0  0
  4 10  1  6  0  0  0
  4 15  1  0  0  0  0
  4  6  1  0  0  0  0
  5  8  1  0  0  0  0
  5 13  1  0  0  0  0
  6  3  1  0  0  0  0
  7 11  1  0  0  0  0
  9 28  1  6  0  0  0
  9 12  1  0  0  0  0
 12  2  1  1  0  0  0
 12 15  1  0  0  0  0
 14  5  2  0  0  0  0
 15  7  1  1  0  0  0
 16  9  1  0  0  0  0
 16 10  1  1  0  0  0
 17 16  1  0  0  0  0
 17 21  1  0  0  0  0
 17 23  1  1  0  0  0
 18 25  1  6  0  0  0
 18 17  1  0  0  0  0
 19 20  1  0  0  0  0
 19 22  1  1  0  0  0
 19 21  1  0  0  0  0
 21 20  1  6  0  0  0
 24 18  1  0  0  0  0
 24 19  1  0  0  0  0
 26 25  1  0  0  0  0
 27 28  1  0  0  0  0
M  END
>  <MODEL>
2

>  <REMARK>
 VINA RESULT:      -5.0      1.231      1.330
  Name = 
  3 active torsions:
  status: ('A' for Active; 'I' for Inactive)
    1  A    between atoms: C_1  and  N_27
    2  A    between atoms: C_2  and  C_3
    3  A    between atoms: C_16  and  C_21
                            x       y       z     vdW  Elec       q    Type
                         _______ _______ _______ _____ _____    ______ ____

>  <TORSDO>
F 3

$$$$
=
 OpenBabel10262420563D

 28 32  0  0  1  0  0  0  0  0999 V2000
  185.5450  173.5840  137.4420 C   0  0  0  0  0  3  0  0  0  0  0  0
  186.6530  179.3810  136.8710 O   0  0  0  0  0  1  0  0  0  0  0  0
  184.5010  174.8190  135.6430 C   0  0  0  0  0  0  0  0  0  0  0  0
  186.6670  175.6710  136.5290 C   0  0  2  0  0  3  0  0  0  0  0  0
  183.4340  172.8830  136.5210 C   0  0  0  0  0  0  0  0  0  0  0  0
  185.5710  174.6550  136.5400 C   0  0  0  0  0  0  0  0  0  0  0  0
  185.2220  177.5320  135.1110 S   0  0  0  0  0  0  0  0  0  0  0  0
  183.4740  173.9260  135.6490 N   0  0  0  0  0  0  0  0  0  0  0  0
  188.4820  177.7920  137.0330 C   0  0  2  0  0  3  0  0  0  0  0  0
  187.7660  175.4780  137.5690 C   0  0  0  0  0  2  0  0  0  0  0  0
  184.5210  175.9000  134.5950 C   0  0  0  0  0  2  0  0  0  0  0  0
  186.9850  178.0860  137.2790 C   0  0  2  0  0  3  0  0  0  0  0  0
  182.2880  171.9380  136.4940 C   0  0  0  0  0  1  0  0  0  0  0  0
  184.4720  172.6910  137.4340 C   0  0  0  0  0  3  0  0  0  0  0  0
  186.0280  177.0370  136.6810 C   0  0  2  0  0  3  0  0  0  0  0  0
  188.9030  176.3820  137.2950 N   0  0  1  0  0  0  0  0  0  0  0  0
  189.7900  175.8530  136.2080 C   0  0  1  0  0  0  0  0  0  0  0  0
  191.2820  175.8320  136.5980 C   0  0  2  0  0  3  0  0  0  0  0  0
  190.8350  173.7710  135.7460 C   0  0  2  0  0  0  0  0  0  0  0  0
  189.9110  173.3750  136.8810 C   0  0  0  0  0  2  0  0  0  0  0  0
  189.4790  174.4070  135.8290 C   0  0  1  0  0  3  0  0  0  0  0  0
  191.0120  172.8050  134.5940 C   0  0  0  0  0  1  0  0  0  0  0  0
  189.6570  176.6720  134.9220 C   0  0  0  0  0  1  0  0  0  0  0  0
  191.8730  174.6840  136.0290 O   0  0  0  0  0  0  0  0  0  0  0  0
  191.5370  175.8060  138.1050 C   0  0  0  0  0  2  0  0  0  0  0  0
  192.8490  176.4930  138.4260 C   0  0  0  0  0  1  0  0  0  0  0  0
  188.8410  178.8730  139.1480 O   0  0  0  0  0  1  0  0  0  0  0  0
  189.3290  178.7660  137.8440 C   0  0  0  0  0  2  0  0  0  0  0  0
  3  8  2  0  0  0  0
  3  6  1  0  0  0  0
  4  6  1  0  0  0  0
  4 15  1  0  0  0  0
  4 10  1  1  0  0  0
  5 14  2  0  0  0  0
  6  1  2  0  0  0  0
  8  5  1  0  0  0  0
  9 12  1  0  0  0  0
  9 16  1  0  0  0  0
  9 28  1  1  0  0  0
 11  7  1  0  0  0  0
 11  3  1  0  0  0  0
 12  2  1  6  0  0  0
 13  5  1  0  0  0  0
 14  1  1  0  0  0  0
 15  7  1  6  0  0  0
 15 12  1  0  0  0  0
 16 10  1  6  0  0  0
 17 23  1  6  0  0  0
 17 18  1  0  0  0  0
 17 16  1  0  0  0  0
 18 25  1  1  0  0  0
 19 22  1  6  0  0  0
 19 21  1  0  0  0  0
 19 24  1  0  0  0  0
 19 20  1  0  0  0  0
 21 17  1  0  0  0  0
 21 20  1  1  0  0  0
 24 18  1  0  0  0  0
 25 26  1  0  0  0  0
 28 27  1  0  0  0  0
M  END
>  <MODEL>
3

>  <REMARK>
 VINA RESULT:      -4.8      6.383      8.927
  Name = 
  3 active torsions:
  status: ('A' for Active; 'I' for Inactive)
    1  A    between atoms: C_1  and  N_27
    2  A    between atoms: C_2  and  C_3
    3  A    between atoms: C_16  and  C_21
                            x       y       z     vdW  Elec       q    Type
                         _______ _______ _______ _____ _____    ______ ____

>  <TORSDO>
F 3

$$$$
=
 OpenBabel10262420563D

 28 32  0  0  1  0  0  0  0  0999 V2000
  185.1770  178.3010  138.3570 C   0  0  0  0  0  3  0  0  0  0  0  0
  180.6350  174.8060  139.8780 O   0  0  0  0  0  1  0  0  0  0  0  0
  184.6290  176.3960  136.9690 C   0  0  0  0  0  0  0  0  0  0  0  0
  182.7990  177.4080  138.3210 C   0  0  2  0  0  3  0  0  0  0  0  0
  186.8630  177.2120  137.0280 C   0  0  0  0  0  0  0  0  0  0  0  0
  184.2240  177.3950  137.8720 C   0  0  0  0  0  0  0  0  0  0  0  0
  182.2750  174.8520  137.4550 S   0  0  0  0  0  0  0  0  0  0  0  0
  185.9270  176.3410  136.5640 N   0  0  0  0  0  0  0  0  0  0  0  0
  180.3280  177.2080  139.7010 C   0  0  2  0  0  3  0  0  0  0  0  0
  182.4350  178.4720  139.3520 C   0  0  0  0  0  2  0  0  0  0  0  0
  183.6320  175.4530  136.3510 C   0  0  0  0  0  2  0  0  0  0  0  0
  181.3130  176.0280  139.8640 C   0  0  2  0  0  3  0  0  0  0  0  0
  188.2700  177.1070  136.5610 C   0  0  0  0  0  1  0  0  0  0  0  0
  186.5030  178.2110  137.9330 C   0  0  0  0  0  3  0  0  0  0  0  0
  182.4710  176.0250  138.8490 C   0  0  2  0  0  3  0  0  0  0  0  0
  180.9680  178.5470  139.5220 N   0  0  1  0  0  0  0  0  0  0  0  0
  180.3160  179.3360  138.4260 C   0  0  1  0  0  0  0  0  0  0  0  0
  179.2820  180.3560  138.9440 C   0  0  2  0  0  3  0  0  0  0  0  0
  180.6130  181.5020  137.5000 C   0  0  2  0  0  0  0  0  0  0  0  0
  181.8470  181.4000  138.3750 C   0  0  0  0  0  2  0  0  0  0  0  0
  181.3050  180.1770  137.6220 C   0  0  1  0  0  3  0  0  0  0  0  0
  180.7470  182.1640  136.1450 C   0  0  0  0  0  1  0  0  0  0  0  0
  179.6090  178.4260  137.4200 C   0  0  0  0  0  1  0  0  0  0  0  0
  179.3540  181.5090  138.1350 O   0  0  0  0  0  0  0  0  0  0  0  0
  179.4880  180.7760  140.3990 C   0  0  0  0  0  2  0  0  0  0  0  0
  178.9310  182.1670  140.6260 C   0  0  0  0  0  1  0  0  0  0  0  0
  179.9900  177.7230  142.0230 O   0  0  0  0  0  1  0  0  0  0  0  0
  179.3610  177.2270  140.8790 C   0  0  0  0  0  2  0  0  0  0  0  0
  3  6  1  0  0  0  0
  4 15  1  0  0  0  0
  4 10  1  1  0  0  0
  5 14  2  0  0  0  0
  6  4  1  0  0  0  0
  6  1  2  0  0  0  0
  8  3  2  0  0  0  0
  8  5  1  0  0  0  0
  9 12  1  0  0  0  0
  9 28  1  1  0  0  0
 11  3  1  0  0  0  0
 11  7  1  0  0  0  0
 12  2  1  6  0  0  0
 13  5  1  0  0  0  0
 14  1  1  0  0  0  0
 15  7  1  6  0  0  0
 15 12  1  0  0  0  0
 16 10  1  6  0  0  0
 16  9  1  0  0  0  0
 17 23  1  6  0  0  0
 17 18  1  0  0  0  0
 17 16  1  0  0  0  0
 18 25  1  1  0  0  0
 19 22  1  6  0  0  0
 19 21  1  0  0  0  0
 19 24  1  0  0  0  0
 19 20  1  0  0  0  0
 21 20  1  1  0  0  0
 21 17  1  0  0  0  0
 24 18  1  0  0  0  0
 25 26  1  0  0  0  0
 28 27  1  0  0  0  0
M  END
>  <MODEL>
4

>  <REMARK>
 VINA RESULT:      -4.8      3.294      5.936
  Name = 
  3 active torsions:
  status: ('A' for Active; 'I' for Inactive)
    1  A    between atoms: C_1  and  N_27
    2  A    between atoms: C_2  and  C_3
    3  A    between atoms: C_16  and  C_21
                            x       y       z     vdW  Elec       q    Type
                         _______ _______ _______ _____ _____    ______ ____

>  <TORSDO>
F 3

$$$$
=
 OpenBabel10262420563D

 28 32  0  0  1  0  0  0  0  0999 V2000
  180.7790  180.2850  135.5440 C   0  0  0  0  0  3  0  0  0  0  0  0
  178.9420  177.5430  140.4700 O   0  0  0  0  0  1  0  0  0  0  0  0
  180.6760  181.5210  137.6210 C   0  0  0  0  0  0  0  0  0  0  0  0
  180.9970  179.0550  137.7560 C   0  0  2  0  0  3  0  0  0  0  0  0
  180.4390  182.6680  135.5500 C   0  0  0  0  0  0  0  0  0  0  0  0
  180.8340  180.2990  136.9440 C   0  0  0  0  0  0  0  0  0  0  0  0
  180.1050  180.2020  140.0900 S   0  0  0  0  0  0  0  0  0  0  0  0
  180.4970  182.6670  136.9090 N   0  0  0  0  0  0  0  0  0  0  0  0
  180.7220  176.5860  139.1250 C   0  0  2  0  0  3  0  0  0  0  0  0
  181.0970  177.7530  136.9680 C   0  0  0  0  0  2  0  0  0  0  0  0
  180.8140  181.6060  139.1170 C   0  0  0  0  0  2  0  0  0  0  0  0
  179.5240  177.5590  139.2000 C   0  0  2  0  0  3  0  0  0  0  0  0
  180.2340  183.9440  134.8170 C   0  0  0  0  0  1  0  0  0  0  0  0
  180.5810  181.4740  134.8420 C   0  0  0  0  0  3  0  0  0  0  0  0
  179.8440  178.9930  138.7370 C   0  0  2  0  0  3  0  0  0  0  0  0
  181.5050  176.6420  137.8530 N   0  0  1  0  0  0  0  0  0  0  0  0
  182.9830  176.6420  138.1070 C   0  0  1  0  0  0  0  0  0  0  0  0
  183.6240  175.2460  137.9680 C   0  0  2  0  0  3  0  0  0  0  0  0
  184.9300  176.6520  136.7470 C   0  0  2  0  0  0  0  0  0  0  0  0
  183.8600  176.9300  135.7080 C   0  0  0  0  0  2  0  0  0  0  0  0
  183.7620  177.5140  137.1240 C   0  0  1  0  0  3  0  0  0  0  0  0
  186.2480  177.3870  136.6340 C   0  0  0  0  0  1  0  0  0  0  0  0
  183.3150  177.1690  139.5050 C   0  0  0  0  0  1  0  0  0  0  0  0
  184.9060  175.4020  137.4000 O   0  0  0  0  0  0  0  0  0  0  0  0
  182.8280  174.2740  137.0980 C   0  0  0  0  0  2  0  0  0  0  0  0
  183.6540  173.0380  136.8030 C   0  0  0  0  0  1  0  0  0  0  0  0
  179.4790  174.6910  138.3250 O   0  0  0  0  0  1  0  0  0  0  0  0
  180.2380  175.1660  139.3970 C   0  0  0  0  0  2  0  0  0  0  0  0
  1  6  1  0  0  0  0
  3 11  1  0  0  0  0
  4 10  1  6  0  0  0
  4 15  1  0  0  0  0
  5  8  2  0  0  0  0
  6  3  2  0  0  0  0
  6  4  1  0  0  0  0
  8  3  1  0  0  0  0
  9 12  1  0  0  0  0
  9 28  1  6  0  0  0
 11  7  1  0  0  0  0
 12  2  1  1  0  0  0
 13  5  1  0  0  0  0
 14  1  2  0  0  0  0
 14  5  1  0  0  0  0
 15 12  1  0  0  0  0
 15  7  1  1  0  0  0
 16 10  1  1  0  0  0
 16 17  1  0  0  0  0
 16  9  1  0  0  0  0
 17 23  1  1  0  0  0
 18 25  1  6  0  0  0
 18 17  1  0  0  0  0
 19 22  1  6  0  0  0
 19 21  1  0  0  0  0
 19 24  1  0  0  0  0
 20 19  1  0  0  0  0
 21 20  1  6  0  0  0
 21 17  1  0  0  0  0
 24 18  1  0  0  0  0
 26 25  1  0  0  0  0
 27 28  1  0  0  0  0
M  END
>  <MODEL>
5

>  <REMARK>
 VINA RESULT:      -4.8      3.349      5.636
  Name = 
  3 active torsions:
  status: ('A' for Active; 'I' for Inactive)
    1  A    between atoms: C_1  and  N_27
    2  A    between atoms: C_2  and  C_3
    3  A    between atoms: C_16  and  C_21
                            x       y       z     vdW  Elec       q    Type
                         _______ _______ _______ _____ _____    ______ ____

>  <TORSDO>
F 3

$$$$
=
 OpenBabel10262420563D

 28 32  0  0  1  0  0  0  0  0999 V2000
  185.6100  177.4960  136.2700 C   0  0  0  0  0  3  0  0  0  0  0  0
  180.5610  179.5580  138.5970 O   0  0  0  0  0  1  0  0  0  0  0  0
  185.5860  178.2570  138.5660 C   0  0  0  0  0  0  0  0  0  0  0  0
  183.4470  177.4240  137.6000 C   0  0  2  0  0  3  0  0  0  0  0  0
  187.6040  178.3550  137.3100 C   0  0  0  0  0  0  0  0  0  0  0  0
  184.9090  177.7070  137.4650 C   0  0  0  0  0  0  0  0  0  0  0  0
  183.1370  178.9680  139.8540 S   0  0  0  0  0  0  0  0  0  0  0  0
  186.9110  178.5520  138.4640 N   0  0  0  0  0  0  0  0  0  0  0  0
  180.6130  177.3910  137.5030 C   0  0  2  0  0  3  0  0  0  0  0  0
  182.7530  176.8910  136.3520 C   0  0  0  0  0  2  0  0  0  0  0  0
  184.9040  178.4230  139.8980 C   0  0  0  0  0  2  0  0  0  0  0  0
  181.2850  178.7680  137.6990 C   0  0  2  0  0  3  0  0  0  0  0  0
  189.0480  178.6990  137.2440 C   0  0  0  0  0  1  0  0  0  0  0  0
  186.9650  177.8200  136.1910 C   0  0  0  0  0  3  0  0  0  0  0  0
  182.7760  178.6970  138.0770 C   0  0  2  0  0  3  0  0  0  0  0  0
  181.3910  176.4170  136.6790 N   0  0  1  0  0  0  0  0  0  0  0  0
  181.4070  175.0500  137.2960 C   0  0  1  0  0  0  0  0  0  0  0  0
  180.3350  174.1070  136.7130 C   0  0  2  0  0  3  0  0  0  0  0  0
  182.2800  172.9300  136.6790 C   0  0  2  0  0  0  0  0  0  0  0  0
  182.9340  173.8160  135.6360 C   0  0  0  0  0  2  0  0  0  0  0  0
  182.7230  174.3070  137.0750 C   0  0  1  0  0  3  0  0  0  0  0  0
  183.0970  171.8050  137.2790 C   0  0  0  0  0  1  0  0  0  0  0  0
  181.1980  175.1120  138.8100 C   0  0  0  0  0  1  0  0  0  0  0  0
  180.8760  172.8060  136.6520 O   0  0  0  0  0  0  0  0  0  0  0  0
  179.8540  174.4940  135.3140 C   0  0  0  0  0  2  0  0  0  0  0  0
  179.3080  173.2770  134.5940 C   0  0  0  0  0  1  0  0  0  0  0  0
  179.2860  178.0880  135.6250 O   0  0  0  0  0  1  0  0  0  0  0  0
  179.2150  177.5870  136.9270 C   0  0  0  0  0  2  0  0  0  0  0  0
  1  6  1  0  0  0  0
  3 11  1  0  0  0  0
  4 10  1  6  0  0  0
  4 15  1  0  0  0  0
  5  8  2  0  0  0  0
  6  4  1  0  0  0  0
  6  3  2  0  0  0  0
  7 11  1  0  0  0  0
  8  3  1  0  0  0  0
  9 28  1  6  0  0  0
  9 12  1  0  0  0  0
 12 15  1  0  0  0  0
 12  2  1  1  0  0  0
 13  5  1  0  0  0  0
 14  1  2  0  0  0  0
 14  5  1  0  0  0  0
 15  7  1  1  0  0  0
 16 10  1  1  0  0  0
 16 17  1  0  0  0  0
 16  9  1  0  0  0  0
 17 23  1  1  0  0  0
 18 25  1  6  0  0  0
 18 17  1  0  0  0  0
 19 21  1  0  0  0  0
 19 22  1  1  0  0  0
 20 19  1  0  0  0  0
 21 20  1  6  0  0  0
 21 17  1  0  0  0  0
 24 19  1  0  0  0  0
 24 18  1  0  0  0  0
 26 25  1  0  0  0  0
 27 28  1  0  0  0  0
M  END
>  <MODEL>
6

>  <REMARK>
 VINA RESULT:      -4.4      3.306      4.749
  Name = 
  3 active torsions:
  status: ('A' for Active; 'I' for Inactive)
    1  A    between atoms: C_1  and  N_27
    2  A    between atoms: C_2  and  C_3
    3  A    between atoms: C_16  and  C_21
                            x       y       z     vdW  Elec       q    Type
                         _______ _______ _______ _____ _____    ______ ____

>  <TORSDO>
F 3

$$$$
=
 OpenBabel10262420563D

 28 32  0  0  1  0  0  0  0  0999 V2000
  185.6990  177.9660  138.1820 C   0  0  0  0  0  3  0  0  0  0  0  0
  181.6870  173.7720  136.9660 O   0  0  0  0  0  1  0  0  0  0  0  0
  185.5570  177.0750  135.9370 C   0  0  0  0  0  0  0  0  0  0  0  0
  183.5030  177.0030  137.3430 C   0  0  2  0  0  3  0  0  0  0  0  0
  187.6220  177.9470  136.7340 C   0  0  0  0  0  0  0  0  0  0  0  0
  184.9380  177.3780  137.1630 C   0  0  0  0  0  0  0  0  0  0  0  0
  183.4550  175.2890  135.1950 S   0  0  0  0  0  0  0  0  0  0  0  0
  186.8700  177.3780  135.7530 N   0  0  0  0  0  0  0  0  0  0  0  0
  181.0110  175.8410  138.0420 C   0  0  2  0  0  3  0  0  0  0  0  0
  182.9050  177.2950  138.7160 C   0  0  0  0  0  2  0  0  0  0  0  0
  184.7670  176.5250  134.7800 C   0  0  0  0  0  2  0  0  0  0  0  0
  182.1590  174.8670  137.6960 C   0  0  2  0  0  3  0  0  0  0  0  0
  189.0550  178.2530  136.4880 C   0  0  0  0  0  1  0  0  0  0  0  0
  187.0470  178.2530  137.9680 C   0  0  0  0  0  3  0  0  0  0  0  0
  183.3670  175.5310  137.0090 C   0  0  2  0  0  3  0  0  0  0  0  0
  181.4370  177.1190  138.6900 N   0  0  1  0  0  0  0  0  0  0  0  0
  180.7410  178.3060  138.0960 C   0  0  1  0  0  0  0  0  0  0  0  0
  179.5950  178.8430  138.9770 C   0  0  2  0  0  3  0  0  0  0  0  0
  180.8450  180.6580  138.4140 C   0  0  2  0  0  0  0  0  0  0  0  0
  182.0580  180.2130  139.2080 C   0  0  0  0  0  2  0  0  0  0  0  0
  181.6630  179.5090  137.9030 C   0  0  1  0  0  3  0  0  0  0  0  0
  180.9500  181.9250  137.5920 C   0  0  0  0  0  1  0  0  0  0  0  0
  180.1580  177.9870  136.7180 C   0  0  0  0  0  1  0  0  0  0  0  0
  179.5740  180.2490  138.8680 O   0  0  0  0  0  0  0  0  0  0  0  0
  179.7170  178.4770  140.4560 C   0  0  0  0  0  2  0  0  0  0  0  0
  178.9310  179.4580  141.3040 C   0  0  0  0  0  1  0  0  0  0  0  0
  180.4360  174.9880  140.2140 O   0  0  0  0  0  1  0  0  0  0  0  0
  179.9770  175.1210  138.9010 C   0  0  0  0  0  2  0  0  0  0  0  0
  3  6  1  0  0  0  0
  4 10  1  1  0  0  0
  5 14  2  0  0  0  0
  6  4  1  0  0  0  0
  6  1  2  0  0  0  0
  8  3  2  0  0  0  0
  8  5  1  0  0  0  0
  9 16  1  0  0  0  0
  9 28  1  1  0  0  0
 11  7  1  0  0  0  0
 11  3  1  0  0  0  0
 12  2  1  6  0  0  0
 12  9  1  0  0  0  0
 13  5  1  0  0  0  0
 14  1  1  0  0  0  0
 15  7  1  6  0  0  0
 15  4  1  0  0  0  0
 15 12  1  0  0  0  0
 16 10  1  6  0  0  0
 17 23  1  6  0  0  0
 17 16  1  0  0  0  0
 17 18  1  0  0  0  0
 18 25  1  1  0  0  0
 19 22  1  6  0  0  0
 19 24  1  0  0  0  0
 19 20  1  0  0  0  0
 21 17  1  0  0  0  0
 21 19  1  0  0  0  0
 21 20  1  1  0  0  0
 24 18  1  0  0  0  0
 25 26  1  0  0  0  0
 28 27  1  0  0  0  0
M  END
>  <MODEL>
7

>  <REMARK>
 VINA RESULT:      -4.4      3.568      6.385
  Name = 
  3 active torsions:
  status: ('A' for Active; 'I' for Inactive)
    1  A    between atoms: C_1  and  N_27
    2  A    between atoms: C_2  and  C_3
    3  A    between atoms: C_16  and  C_21
                            x       y       z     vdW  Elec       q    Type
                         _______ _______ _______ _____ _____    ______ ____

>  <TORSDO>
F 3

$$$$
=
 OpenBabel10262420563D

 28 32  0  0  1  0  0  0  0  0999 V2000
  183.2340  178.2420  141.5750 C   0  0  0  0  0  3  0  0  0  0  0  0
  180.1960  181.5140  137.6750 O   0  0  0  0  0  1  0  0  0  0  0  0
  181.3270  179.5230  142.3330 C   0  0  0  0  0  0  0  0  0  0  0  0
  181.3670  178.8060  139.9480 C   0  0  2  0  0  3  0  0  0  0  0  0
  183.0920  179.0220  143.8480 C   0  0  0  0  0  0  0  0  0  0  0  0
  181.9920  178.8310  141.3060 C   0  0  0  0  0  0  0  0  0  0  0  0
  179.6290  180.8700  140.4730 S   0  0  0  0  0  0  0  0  0  0  0  0
  181.8860  179.5880  143.5720 N   0  0  0  0  0  0  0  0  0  0  0  0
  180.6250  179.1660  137.2340 C   0  0  2  0  0  3  0  0  0  0  0  0
  182.1670  178.0980  138.8590 C   0  0  0  0  0  2  0  0  0  0  0  0
  179.9520  180.0980  142.1220 C   0  0  0  0  0  2  0  0  0  0  0  0
  181.0150  180.4370  138.0220 C   0  0  2  0  0  3  0  0  0  0  0  0
  183.6640  179.1260  145.2150 C   0  0  0  0  0  1  0  0  0  0  0  0
  183.7880  178.3360  142.8530 C   0  0  0  0  0  3  0  0  0  0  0  0
  181.0800  180.2390  139.5480 C   0  0  2  0  0  3  0  0  0  0  0  0
  181.3430  177.9200  137.6450 N   0  0  1  0  0  0  0  0  0  0  0  0
  180.4100  176.7530  137.7670 C   0  0  1  0  0  0  0  0  0  0  0  0
  180.5660  175.7280  136.6250 C   0  0  2  0  0  3  0  0  0  0  0  0
  180.5960  174.5190  138.5510 C   0  0  2  0  0  0  0  0  0  0  0  0
  181.9150  175.0940  139.0280 C   0  0  0  0  0  2  0  0  0  0  0  0
  180.6320  175.9360  139.0380 C   0  0  1  0  0  3  0  0  0  0  0  0
  179.8620  173.5550  139.4600 C   0  0  0  0  0  1  0  0  0  0  0  0
  178.9470  177.1990  137.7940 C   0  0  0  0  0  1  0  0  0  0  0  0
  180.3780  174.4360  137.1600 O   0  0  0  0  0  0  0  0  0  0  0  0
  181.9270  175.7650  135.9300 C   0  0  0  0  0  2  0  0  0  0  0  0
  182.2420  174.4130  135.3200 C   0  0  0  0  0  1  0  0  0  0  0  0
  179.9840  178.5680  134.9970 O   0  0  0  0  0  1  0  0  0  0  0  0
  180.8020  179.4210  135.7410 C   0  0  0  0  0  2  0  0  0  0  0  0
  1 14  1  0  0  0  0
  3  8  2  0  0  0  0
  4 10  1  6  0  0  0
  4  6  1  0  0  0  0
  5 13  1  0  0  0  0
  6  1  2  0  0  0  0
  6  3  1  0  0  0  0
  7 11  1  0  0  0  0
  8  5  1  0  0  0  0
  9 28  1  6  0  0  0
  9 16  1  0  0  0  0
  9 12  1  0  0  0  0
 11  3  1  0  0  0  0
 12  2  1  1  0  0  0
 12 15  1  0  0  0  0
 14  5  2  0  0  0  0
 15  4  1  0  0  0  0
 15  7  1  1  0  0  0
 16 17  1  0  0  0  0
 16 10  1  1  0  0  0
 17 23  1  6  0  0  0
 17 21  1  0  0  0  0
 18 25  1  1  0  0  0
 18 24  1  0  0  0  0
 18 17  1  0  0  0  0
 19 20  1  0  0  0  0
 19 21  1  0  0  0  0
 19 22  1  1  0  0  0
 21 20  1  6  0  0  0
 24 19  1  0  0  0  0
 26 25  1  0  0  0  0
 27 28  1  0  0  0  0
M  END
>  <MODEL>
8

>  <REMARK>
 VINA RESULT:      -4.2      1.752      2.289
  Name = 
  3 active torsions:
  status: ('A' for Active; 'I' for Inactive)
    1  A    between atoms: C_1  and  N_27
    2  A    between atoms: C_2  and  C_3
    3  A    between atoms: C_16  and  C_21
                            x       y       z     vdW  Elec       q    Type
                         _______ _______ _______ _____ _____    ______ ____

>  <TORSDO>
F 3

$$$$
=
 OpenBabel10262420563D

 28 32  0  0  1  0  0  0  0  0999 V2000
  189.8040  176.5490  140.5850 C   0  0  0  0  0  3  0  0  0  0  0  0
  192.3180  173.3730  136.2550 O   0  0  0  0  0  1  0  0  0  0  0  0
  192.0830  177.0310  139.9310 C   0  0  0  0  0  0  0  0  0  0  0  0
  190.5790  176.0130  138.2260 C   0  0  2  0  0  3  0  0  0  0  0  0
  191.3660  177.5030  142.1490 C   0  0  0  0  0  0  0  0  0  0  0  0
  190.8020  176.5530  139.6020 C   0  0  0  0  0  0  0  0  0  0  0  0
  193.2570  175.7660  137.6540 S   0  0  0  0  0  0  0  0  0  0  0  0
  192.3250  177.5030  141.1840 N   0  0  0  0  0  0  0  0  0  0  0  0
  190.1640  174.4390  135.9030 C   0  0  2  0  0  3  0  0  0  0  0  0
  189.1900  175.4470  137.9500 C   0  0  0  0  0  2  0  0  0  0  0  0
  193.1650  177.1390  138.8900 C   0  0  0  0  0  2  0  0  0  0  0  0
  191.2150  173.9240  136.9130 C   0  0  2  0  0  3  0  0  0  0  0  0
  191.6800  178.0220  143.5060 C   0  0  0  0  0  1  0  0  0  0  0  0
  190.0860  177.0270  141.8660 C   0  0  0  0  0  3  0  0  0  0  0  0
  191.6400  174.9620  137.9690 C   0  0  2  0  0  3  0  0  0  0  0  0
  189.0170  175.1820  136.5060 N   0  0  1  0  0  0  0  0  0  0  0  0
  188.6970  176.4320  135.7420 C   0  0  1  0  0  0  0  0  0  0  0  0
  187.4390  176.3000  134.8590 C   0  0  2  0  0  3  0  0  0  0  0  0
  187.1820  178.2400  136.0200 C   0  0  2  0  0  0  0  0  0  0  0  0
  187.0480  177.5520  137.3650 C   0  0  0  0  0  2  0  0  0  0  0  0
  188.4010  177.6280  136.6440 C   0  0  1  0  0  3  0  0  0  0  0  0
  187.1800  179.7530  135.9840 C   0  0  0  0  0  1  0  0  0  0  0  0
  189.8580  176.8530  134.8380 C   0  0  0  0  0  1  0  0  0  0  0  0
  186.7560  177.5350  134.8750 O   0  0  0  0  0  0  0  0  0  0  0  0
  186.4680  175.2090  135.3100 C   0  0  0  0  0  2  0  0  0  0  0  0
  185.0930  175.4560  134.7210 C   0  0  0  0  0  1  0  0  0  0  0  0
  188.7530  172.4990  135.7710 O   0  0  0  0  0  1  0  0  0  0  0  0
  189.6660  173.2750  135.0530 C   0  0  0  0  0  2  0  0  0  0  0  0
  1 14  1  0  0  0  0
  3  8  2  0  0  0  0
  4 10  1  1  0  0  0
  4  6  1  0  0  0  0
  5 13  1  0  0  0  0
  6  3  1  0  0  0  0
  6  1  2  0  0  0  0
  7 11  1  0  0  0  0
  8  5  1  0  0  0  0
  9 28  1  1  0  0  0
  9 16  1  0  0  0  0
  9 12  1  0  0  0  0
 11  3  1  0  0  0  0
 12  2  1  6  0  0  0
 12 15  1  0  0  0  0
 14  5  2  0  0  0  0
 15  7  1  6  0  0  0
 15  4  1  0  0  0  0
 16 10  1  1  0  0  0
 17 23  1  6  0  0  0
 17 16  1  0  0  0  0
 17 21  1  0  0  0  0
 18 24  1  0  0  0  0
 18 25  1  1  0  0  0
 18 17  1  0  0  0  0
 19 22  1  6  0  0  0
 19 21  1  0  0  0  0
 19 20  1  0  0  0  0
 21 20  1  1  0  0  0
 24 19  1  0  0  0  0
 26 25  1  0  0  0  0
 28 27  1  0  0  0  0
M  END
>  <MODEL>
9

>  <REMARK>
 VINA RESULT:      -4.1      7.056      9.357
  Name = 
  3 active torsions:
  status: ('A' for Active; 'I' for Inactive)
    1  A    between atoms: C_1  and  N_27
    2  A    between atoms: C_2  and  C_3
    3  A    between atoms: C_16  and  C_21
                            x       y       z     vdW  Elec       q    Type
                         _______ _______ _______ _____ _____    ______ ____

>  <TORSDO>
F 3

$$$$
