=
 OpenBabel10262419333D

 31 35  0  0  1  0  0  0  0  0999 V2000
  185.9340  179.1000  146.8940 C   0  0  0  0  0  0  0  0  0  0  0  0
  187.6490  177.8940  143.8210 N   0  0  0  0  0  0  0  0  0  0  0  0
  188.9930  177.5130  144.2190 C   0  0  0  0  0  0  0  0  0  0  0  0
  190.5740  176.7270  145.9010 C   0  0  0  0  0  0  0  0  0  0  0  0
  186.5390  177.9380  144.8050 C   0  0  1  0  0  3  0  0  0  0  0  0
  184.5830  179.0180  146.5130 O   0  0  0  0  0  0  0  0  0  0  0  0
  189.2770  177.0820  145.5270 C   0  0  0  0  0  3  0  0  0  0  0  0
  186.0060  178.3940  141.9490 C   0  0  1  0  0  3  0  0  0  0  0  0
  186.2970  179.7440  148.1830 C   0  0  0  0  0  1  0  0  0  0  0  0
  189.8030  177.8880  141.8350 C   0  0  0  0  0  2  0  0  0  0  0  0
  190.8510  176.2850  147.2930 C   0  0  0  0  0  1  0  0  0  0  0  0
  184.9220  177.9660  142.9190 C   0  0  0  0  0  2  0  0  0  0  0  0
  187.3750  177.8420  142.3660 C   0  0  1  0  0  3  0  0  0  0  0  0
  186.8980  178.6480  146.0860 C   0  0  0  0  0  3  0  0  0  0  0  0
  191.6100  176.7870  144.9690 C   0  0  0  0  0  3  0  0  0  0  0  0
  185.2770  178.5840  144.2430 C   0  0  1  0  0  3  0  0  0  0  0  0
  184.1690  178.4240  145.2750 C   0  0  0  0  0  2  0  0  0  0  0  0
  188.4700  178.5920  141.6210 C   0  0  0  0  0  2  0  0  0  0  0  0
  190.0520  177.5610  143.2790 C   0  0  0  0  0  0  0  0  0  0  0  0
  191.3470  177.1940  143.6600 C   0  0  0  0  0  3  0  0  0  0  0  0
  184.6090  179.9010  139.9800 O   0  0  0  0  0  0  0  0  0  0  0  0
  184.9610  178.7320  139.6640 C   0  0  0  0  0  0  0  0  0  0  0  0
  185.6790  177.9300  140.6080 N   0  0  0  0  0  2  0  0  0  0  0  0
  183.9370  177.1470  135.8070 C   0  0  0  0  0  0  0  0  0  0  0  0
  183.2950  177.9890  137.9800 C   0  0  0  0  0  3  0  0  0  0  0  0
  186.9910  178.0180  137.6690 O   0  0  0  0  0  1  0  0  0  0  0  0
  183.5980  176.6480  134.5940 F   0  0  0  0  0  0  0  0  0  0  0  0
  182.9440  177.4740  136.7300 C   0  0  0  0  0  3  0  0  0  0  0  0
  185.6420  177.8480  137.3840 C   0  0  0  0  0  0  0  0  0  0  0  0
  184.6420  178.1830  138.3250 C   0  0  0  0  0  0  0  0  0  0  0  0
  185.2820  177.3340  136.1330 C   0  0  0  0  0  3  0  0  0  0  0  0
  1  9  1  0  0  0  0
  2  3  1  0  0  0  0
  2  5  1  0  0  0  0
  3  7  1  0  0  0  0
  4 11  1  0  0  0  0
  5 14  1  1  0  0  0
  6  1  1  0  0  0  0
  7  4  2  0  0  0  0
  8 23  1  6  0  0  0
  8 13  1  0  0  0  0
  8 12  1  0  0  0  0
 10 19  1  0  0  0  0
 13 18  1  6  0  0  0
 13  2  1  0  0  0  0
 14  1  2  0  0  0  0
 15  4  1  0  0  0  0
 16 12  1  6  0  0  0
 16  5  1  0  0  0  0
 16 17  1  0  0  0  0
 17  6  1  0  0  0  0
 18 10  1  0  0  0  0
 19 20  1  0  0  0  0
 19  3  2  0  0  0  0
 20 15  2  0  0  0  0
 22 21  2  0  0  0  0
 22 23  1  0  0  0  0
 24 31  2  0  0  0  0
 24 28  1  0  0  0  0
 25 30  1  0  0  0  0
 27 24  1  0  0  0  0
 28 25  2  0  0  0  0
 29 26  1  0  0  0  0
 29 30  2  0  0  0  0
 30 22  1  0  0  0  0
 31 29  1  0  0  0  0
M  END
>  <MODEL>
1

>  <REMARK>
 VINA RESULT:      -8.9      0.000      0.000
  Name = 
  2 active torsions:
  status: ('A' for Active; 'I' for Inactive)
    1  A    between atoms: C_9  and  C_22
    2  A    between atoms: C_15  and  N_23
                            x       y       z     vdW  Elec       q    Type
                         _______ _______ _______ _____ _____    ______ ____

>  <TORSDO>
F 2

$$$$
=
 OpenBabel10262419333D

 31 35  0  0  1  0  0  0  0  0999 V2000
  189.3240  176.5340  142.3560 C   0  0  0  0  0  0  0  0  0  0  0  0
  186.1160  178.3530  142.8460 N   0  0  0  0  0  0  0  0  0  0  0  0
  185.8840  178.4040  144.2800 C   0  0  0  0  0  0  0  0  0  0  0  0
  186.7120  178.4180  146.5730 C   0  0  0  0  0  0  0  0  0  0  0  0
  187.4810  178.1730  142.2950 C   0  0  1  0  0  3  0  0  0  0  0  0
  189.6660  176.9160  141.0470 O   0  0  0  0  0  0  0  0  0  0  0  0
  186.9480  178.3780  145.1980 C   0  0  0  0  0  3  0  0  0  0  0  0
  185.2120  178.6750  140.4940 C   0  0  1  0  0  3  0  0  0  0  0  0
  190.1200  175.4890  143.0490 C   0  0  0  0  0  1  0  0  0  0  0  0
  183.3840  178.6510  143.8630 C   0  0  0  0  0  2  0  0  0  0  0  0
  187.8540  178.3780  147.5230 C   0  0  0  0  0  1  0  0  0  0  0  0
  186.6470  178.9400  140.0840 C   0  0  0  0  0  2  0  0  0  0  0  0
  185.0170  178.8770  142.0020 C   0  0  1  0  0  3  0  0  0  0  0  0
  188.2600  177.0680  142.9640 C   0  0  0  0  0  3  0  0  0  0  0  0
  185.4060  178.4960  147.0550 C   0  0  0  0  0  3  0  0  0  0  0  0
  187.4820  177.9090  140.7930 C   0  0  1  0  0  3  0  0  0  0  0  0
  188.9290  177.9070  140.3180 C   0  0  0  0  0  2  0  0  0  0  0  0
  183.7040  178.2390  142.4320 C   0  0  0  0  0  2  0  0  0  0  0  0
  184.5610  178.4920  144.7810 C   0  0  0  0  0  0  0  0  0  0  0  0
  184.3350  178.5410  146.1600 C   0  0  0  0  0  3  0  0  0  0  0  0
  182.8500  177.8680  139.1270 O   0  0  0  0  0  0  0  0  0  0  0  0
  183.1490  179.0930  139.0810 C   0  0  0  0  0  0  0  0  0  0  0  0
  184.3180  179.5610  139.7620 N   0  0  0  0  0  2  0  0  0  0  0  0
  180.7160  181.9440  136.9860 C   0  0  0  0  0  0  0  0  0  0  0  0
  182.2350  181.3810  138.7800 C   0  0  0  0  0  3  0  0  0  0  0  0
  181.5780  178.3750  136.7090 O   0  0  0  0  0  1  0  0  0  0  0  0
  179.9530  182.8550  136.3360 F   0  0  0  0  0  0  0  0  0  0  0  0
  181.4490  182.3230  138.1110 C   0  0  0  0  0  3  0  0  0  0  0  0
  181.5530  179.6770  137.1950 C   0  0  0  0  0  0  0  0  0  0  0  0
  182.3000  180.0510  138.3350 C   0  0  0  0  0  0  0  0  0  0  0  0
  180.7690  180.6260  136.5300 C   0  0  0  0  0  3  0  0  0  0  0  0
  1 14  2  0  0  0  0
  1  9  1  0  0  0  0
  2  3  1  0  0  0  0
  3 19  2  0  0  0  0
  3  7  1  0  0  0  0
  4 15  1  0  0  0  0
  4 11  1  0  0  0  0
  5  2  1  0  0  0  0
  5 14  1  1  0  0  0
  6  1  1  0  0  0  0
  7  4  2  0  0  0  0
  8 23  1  6  0  0  0
  8 13  1  0  0  0  0
 10 19  1  0  0  0  0
 12  8  1  0  0  0  0
 13 18  1  1  0  0  0
 13  2  1  0  0  0  0
 16 12  1  6  0  0  0
 16  5  1  0  0  0  0
 17 16  1  0  0  0  0
 17  6  1  0  0  0  0
 18 10  1  0  0  0  0
 19 20  1  0  0  0  0
 20 15  2  0  0  0  0
 22 21  2  0  0  0  0
 22 23  1  0  0  0  0
 24 28  1  0  0  0  0
 26 29  1  0  0  0  0
 27 24  1  0  0  0  0
 28 25  2  0  0  0  0
 29 30  2  0  0  0  0
 30 25  1  0  0  0  0
 30 22  1  0  0  0  0
 31 24  2  0  0  0  0
 31 29  1  0  0  0  0
M  END
>  <MODEL>
2

>  <REMARK>
 VINA RESULT:      -8.8      2.918      4.959
  Name = 
  2 active torsions:
  status: ('A' for Active; 'I' for Inactive)
    1  A    between atoms: C_9  and  C_22
    2  A    between atoms: C_15  and  N_23
                            x       y       z     vdW  Elec       q    Type
                         _______ _______ _______ _____ _____    ______ ____

>  <TORSDO>
F 2

$$$$
=
 OpenBabel10262419333D

 31 35  0  0  1  0  0  0  0  0999 V2000
  189.7640  176.2530  142.6810 C   0  0  0  0  0  0  0  0  0  0  0  0
  186.7320  178.1370  143.7290 N   0  0  0  0  0  0  0  0  0  0  0  0
  186.7720  178.2110  145.1800 C   0  0  0  0  0  0  0  0  0  0  0  0
  188.0120  178.2370  147.2790 C   0  0  0  0  0  0  0  0  0  0  0  0
  187.9690  177.9250  142.9370 C   0  0  1  0  0  3  0  0  0  0  0  0
  189.8640  176.6120  141.3250 O   0  0  0  0  0  0  0  0  0  0  0  0
  187.9880  178.1760  145.8850 C   0  0  0  0  0  3  0  0  0  0  0  0
  185.4130  178.4460  141.5810 C   0  0  1  0  0  3  0  0  0  0  0  0
  190.6580  175.2010  143.2310 C   0  0  0  0  0  1  0  0  0  0  0  0
  184.2430  178.4990  145.2300 C   0  0  0  0  0  2  0  0  0  0  0  0
  189.3100  178.1880  148.0020 C   0  0  0  0  0  1  0  0  0  0  0  0
  186.7510  178.6790  140.9080 C   0  0  0  0  0  2  0  0  0  0  0  0
  185.5050  178.6710  143.0950 C   0  0  1  0  0  3  0  0  0  0  0  0
  188.8400  176.8140  143.4680 C   0  0  0  0  0  3  0  0  0  0  0  0
  186.8200  178.3460  147.9940 C   0  0  0  0  0  3  0  0  0  0  0  0
  187.6860  177.6420  141.4650 C   0  0  1  0  0  3  0  0  0  0  0  0
  189.0200  177.6070  140.7300 C   0  0  0  0  0  2  0  0  0  0  0  0
  184.2840  178.0630  143.7720 C   0  0  0  0  0  2  0  0  0  0  0  0
  185.5670  178.3290  145.9160 C   0  0  0  0  0  0  0  0  0  0  0  0
  185.6020  178.4000  147.3130 C   0  0  0  0  0  3  0  0  0  0  0  0
  182.9830  177.6260  140.3460 O   0  0  0  0  0  0  0  0  0  0  0  0
  183.2130  178.8660  140.3920 C   0  0  0  0  0  0  0  0  0  0  0  0
  184.4130  179.3390  141.0130 N   0  0  0  0  0  2  0  0  0  0  0  0
  180.5000  181.6970  138.6450 C   0  0  0  0  0  0  0  0  0  0  0  0
  182.6460  180.5870  138.6960 C   0  0  0  0  0  3  0  0  0  0  0  0
  180.5130  179.3130  141.4490 O   0  0  0  0  0  1  0  0  0  0  0  0
  179.6550  182.5950  138.0820 F   0  0  0  0  0  0  0  0  0  0  0  0
  181.7760  181.5130  138.1140 C   0  0  0  0  0  3  0  0  0  0  0  0
  180.9570  180.0290  140.3450 C   0  0  0  0  0  0  0  0  0  0  0  0
  182.2530  179.8350  139.8140 C   0  0  0  0  0  0  0  0  0  0  0  0
  180.0920  180.9580  139.7560 C   0  0  0  0  0  3  0  0  0  0  0  0
  1  9  1  0  0  0  0
  1 14  2  0  0  0  0
  2  3  1  0  0  0  0
  3  7  2  0  0  0  0
  3 19  1  0  0  0  0
  4 15  2  0  0  0  0
  4 11  1  0  0  0  0
  5 14  1  1  0  0  0
  5  2  1  0  0  0  0
  6  1  1  0  0  0  0
  7  4  1  0  0  0  0
  8 23  1  6  0  0  0
  8 13  1  0  0  0  0
 10 19  1  0  0  0  0
 12 16  1  0  0  0  0
 12  8  1  0  0  0  0
 13  2  1  0  0  0  0
 13 18  1  1  0  0  0
 16 17  1  6  0  0  0
 16  5  1  0  0  0  0
 17  6  1  0  0  0  0
 18 10  1  0  0  0  0
 19 20  2  0  0  0  0
 20 15  1  0  0  0  0
 21 22  2  0  0  0  0
 22 23  1  0  0  0  0
 24 31  1  0  0  0  0
 25 30  2  0  0  0  0
 27 24  1  0  0  0  0
 28 24  2  0  0  0  0
 28 25  1  0  0  0  0
 29 26  1  0  0  0  0
 30 29  1  0  0  0  0
 30 22  1  0  0  0  0
 31 29  2  0  0  0  0
M  END
>  <MODEL>
3

>  <REMARK>
 VINA RESULT:      -8.8      2.979      4.962
  Name = 
  2 active torsions:
  status: ('A' for Active; 'I' for Inactive)
    1  A    between atoms: C_9  and  C_22
    2  A    between atoms: C_15  and  N_23
                            x       y       z     vdW  Elec       q    Type
                         _______ _______ _______ _____ _____    ______ ____

>  <TORSDO>
F 2

$$$$
=
 OpenBabel10262419333D

 31 35  0  0  1  0  0  0  0  0999 V2000
  188.0780  178.0910  147.3340 C   0  0  0  0  0  0  0  0  0  0  0  0
  187.5990  177.7840  143.6580 N   0  0  0  0  0  0  0  0  0  0  0  0
  188.8610  177.3100  143.1140 C   0  0  0  0  0  0  0  0  0  0  0  0
  190.9610  176.0950  143.3530 C   0  0  0  0  0  0  0  0  0  0  0  0
  187.2400  177.5520  145.0780 C   0  0  1  0  0  3  0  0  0  0  0  0
  186.7480  178.1140  147.7900 O   0  0  0  0  0  0  0  0  0  0  0  0
  189.7480  176.5360  143.8830 C   0  0  0  0  0  3  0  0  0  0  0  0
  185.2990  178.7760  143.2400 C   0  0  1  0  0  3  0  0  0  0  0  0
  189.1870  178.3560  148.2870 C   0  0  0  0  0  1  0  0  0  0  0  0
  188.2680  178.3310  140.8580 C   0  0  0  0  0  2  0  0  0  0  0  0
  191.8870  175.2870  144.1890 C   0  0  0  0  0  1  0  0  0  0  0  0
  184.8790  178.0950  144.5280 C   0  0  0  0  0  2  0  0  0  0  0  0
  186.5640  178.1340  142.6580 C   0  0  1  0  0  3  0  0  0  0  0  0
  188.3510  177.8820  146.0430 C   0  0  0  0  0  3  0  0  0  0  0  0
  191.3050  176.4120  142.0390 C   0  0  0  0  0  3  0  0  0  0  0  0
  185.9960  178.3250  145.5070 C   0  0  1  0  0  3  0  0  0  0  0  0
  185.6330  177.8830  146.9180 C   0  0  0  0  0  2  0  0  0  0  0  0
  187.1670  179.0630  141.6140 C   0  0  0  0  0  2  0  0  0  0  0  0
  189.2170  177.6190  141.7780 C   0  0  0  0  0  0  0  0  0  0  0  0
  190.4310  177.1640  141.2530 C   0  0  0  0  0  3  0  0  0  0  0  0
  182.5300  179.0750  143.8260 O   0  0  0  0  0  0  0  0  0  0  0  0
  182.8400  178.8450  142.6250 C   0  0  0  0  0  0  0  0  0  0  0  0
  184.2190  178.7000  142.2670 N   0  0  0  0  0  2  0  0  0  0  0  0
  179.8610  178.4370  139.5600 C   0  0  0  0  0  0  0  0  0  0  0  0
  181.9600  177.7800  140.5630 C   0  0  0  0  0  3  0  0  0  0  0  0
  180.4160  180.4980  142.5590 O   0  0  0  0  0  1  0  0  0  0  0  0
  178.9310  178.2960  138.5850 F   0  0  0  0  0  0  0  0  0  0  0  0
  181.0010  177.6330  139.5580 C   0  0  0  0  0  3  0  0  0  0  0  0
  180.6350  179.5410  141.5760 C   0  0  0  0  0  0  0  0  0  0  0  0
  181.7940  178.7310  141.5830 C   0  0  0  0  0  0  0  0  0  0  0  0
  179.6790  179.3870  140.5660 C   0  0  0  0  0  3  0  0  0  0  0  0
  1  6  1  0  0  0  0
  1  9  1  0  0  0  0
  2  5  1  0  0  0  0
  3  2  1  0  0  0  0
  3  7  1  0  0  0  0
  4  7  2  0  0  0  0
  4 11  1  0  0  0  0
  5 16  1  0  0  0  0
  5 14  1  1  0  0  0
  8 23  1  6  0  0  0
  8 12  1  0  0  0  0
 10 18  1  0  0  0  0
 10 19  1  0  0  0  0
 13 18  1  6  0  0  0
 13  8  1  0  0  0  0
 13  2  1  0  0  0  0
 14  1  2  0  0  0  0
 15  4  1  0  0  0  0
 16 12  1  6  0  0  0
 16 17  1  0  0  0  0
 17  6  1  0  0  0  0
 19  3  2  0  0  0  0
 20 19  1  0  0  0  0
 20 15  2  0  0  0  0
 22 21  2  0  0  0  0
 23 22  1  0  0  0  0
 24 31  1  0  0  0  0
 25 30  2  0  0  0  0
 27 24  1  0  0  0  0
 28 24  2  0  0  0  0
 28 25  1  0  0  0  0
 29 30  1  0  0  0  0
 29 26  1  0  0  0  0
 30 22  1  0  0  0  0
 31 29  2  0  0  0  0
M  END
>  <MODEL>
4

>  <REMARK>
 VINA RESULT:      -8.6      3.011      3.644
  Name = 
  2 active torsions:
  status: ('A' for Active; 'I' for Inactive)
    1  A    between atoms: C_9  and  C_22
    2  A    between atoms: C_15  and  N_23
                            x       y       z     vdW  Elec       q    Type
                         _______ _______ _______ _____ _____    ______ ____

>  <TORSDO>
F 2

$$$$
=
 OpenBabel10262419333D

 31 35  0  0  1  0  0  0  0  0999 V2000
  193.1030  176.4560  137.5760 C   0  0  0  0  0  0  0  0  0  0  0  0
  189.5040  176.6820  138.4880 N   0  0  0  0  0  0  0  0  0  0  0  0
  188.7630  176.0520  137.4080 C   0  0  0  0  0  0  0  0  0  0  0  0
  188.6180  174.4510  135.5740 C   0  0  0  0  0  0  0  0  0  0  0  0
  190.9290  176.3520  138.7350 C   0  0  1  0  0  3  0  0  0  0  0  0
  193.7230  176.6690  138.8210 O   0  0  0  0  0  0  0  0  0  0  0  0
  189.3360  175.0420  136.6150 C   0  0  0  0  0  3  0  0  0  0  0  0
  189.4760  178.1230  140.5790 C   0  0  1  0  0  3  0  0  0  0  0  0
  193.9310  176.3960  136.3440 C   0  0  0  0  0  1  0  0  0  0  0  0
  186.7080  177.4250  138.0210 C   0  0  0  0  0  2  0  0  0  0  0  0
  189.2490  173.3930  134.7440 C   0  0  0  0  0  1  0  0  0  0  0  0
  190.7340  177.3830  140.9880 C   0  0  0  0  0  2  0  0  0  0  0  0
  188.6800  177.3330  139.5320 C   0  0  1  0  0  3  0  0  0  0  0  0
  191.7740  176.3550  137.4860 C   0  0  0  0  0  3  0  0  0  0  0  0
  187.3080  174.8530  135.3140 C   0  0  0  0  0  3  0  0  0  0  0  0
  191.5830  177.2850  139.7500 C   0  0  1  0  0  3  0  0  0  0  0  0
  192.9790  176.7530  140.0440 C   0  0  0  0  0  2  0  0  0  0  0  0
  187.6640  178.2530  138.8710 C   0  0  0  0  0  2  0  0  0  0  0  0
  187.4290  176.4460  137.1390 C   0  0  0  0  0  0  0  0  0  0  0  0
  186.7140  175.8420  136.1010 C   0  0  0  0  0  3  0  0  0  0  0  0
  188.6830  176.1490  142.4680 O   0  0  0  0  0  0  0  0  0  0  0  0
  188.2650  177.3240  142.6580 C   0  0  0  0  0  0  0  0  0  0  0  0
  188.6430  178.3630  141.7490 N   0  0  0  0  0  2  0  0  0  0  0  0
  185.6640  178.2590  145.9430 C   0  0  0  0  0  0  0  0  0  0  0  0
  186.0750  178.0520  143.5700 C   0  0  0  0  0  3  0  0  0  0  0  0
  189.1360  177.1360  145.4540 O   0  0  0  0  0  1  0  0  0  0  0  0
  184.8300  178.5570  146.9690 F   0  0  0  0  0  0  0  0  0  0  0  0
  185.2140  178.3600  144.6270 C   0  0  0  0  0  3  0  0  0  0  0  0
  187.8410  177.5400  145.1520 C   0  0  0  0  0  0  0  0  0  0  0  0
  187.3940  177.6390  143.8140 C   0  0  0  0  0  0  0  0  0  0  0  0
  186.9730  177.8500  146.2040 C   0  0  0  0  0  3  0  0  0  0  0  0
  1  6  1  0  0  0  0
  2  5  1  0  0  0  0
  2 13  1  0  0  0  0
  3  2  1  0  0  0  0
  4  7  1  0  0  0  0
  5 14  1  6  0  0  0
  5 16  1  0  0  0  0
  6 17  1  0  0  0  0
  7  3  2  0  0  0  0
  8 12  1  0  0  0  0
  8 23  1  1  0  0  0
  9  1  1  0  0  0  0
 10 18  1  0  0  0  0
 11  4  1  0  0  0  0
 13 18  1  6  0  0  0
 13  8  1  0  0  0  0
 14  1  2  0  0  0  0
 15  4  2  0  0  0  0
 15 20  1  0  0  0  0
 16 17  1  1  0  0  0
 16 12  1  0  0  0  0
 19  3  1  0  0  0  0
 19 10  1  0  0  0  0
 20 19  2  0  0  0  0
 21 22  2  0  0  0  0
 22 30  1  0  0  0  0
 23 22  1  0  0  0  0
 24 31  1  0  0  0  0
 24 27  1  0  0  0  0
 25 30  2  0  0  0  0
 25 28  1  0  0  0  0
 28 24  2  0  0  0  0
 29 26  1  0  0  0  0
 29 31  2  0  0  0  0
 30 29  1  0  0  0  0
M  END
>  <MODEL>
5

>  <REMARK>
 VINA RESULT:      -8.4      4.265      8.679
  Name = 
  2 active torsions:
  status: ('A' for Active; 'I' for Inactive)
    1  A    between atoms: C_9  and  C_22
    2  A    between atoms: C_15  and  N_23
                            x       y       z     vdW  Elec       q    Type
                         _______ _______ _______ _____ _____    ______ ____

>  <TORSDO>
F 2

$$$$
=
 OpenBabel10262419333D

 31 35  0  0  1  0  0  0  0  0999 V2000
  187.6360  178.2390  147.3560 C   0  0  0  0  0  0  0  0  0  0  0  0
  187.8200  177.7140  143.6780 N   0  0  0  0  0  0  0  0  0  0  0  0
  189.1770  177.2810  143.3890 C   0  0  0  0  0  0  0  0  0  0  0  0
  191.2550  176.1960  144.0590 C   0  0  0  0  0  0  0  0  0  0  0  0
  187.2290  177.5370  145.0270 C   0  0  1  0  0  3  0  0  0  0  0  0
  186.2470  178.2150  147.5750 O   0  0  0  0  0  0  0  0  0  0  0  0
  189.9500  176.5980  144.3440 C   0  0  0  0  0  3  0  0  0  0  0  0
  185.5860  178.5560  142.8120 C   0  0  1  0  0  3  0  0  0  0  0  0
  188.5490  178.6140  148.4670 C   0  0  0  0  0  1  0  0  0  0  0  0
  188.9420  178.1480  141.0060 C   0  0  0  0  0  2  0  0  0  0  0  0
  192.0560  175.4850  145.0890 C   0  0  0  0  0  1  0  0  0  0  0  0
  184.9780  177.9220  144.0480 C   0  0  0  0  0  2  0  0  0  0  0  0
  186.9610  177.9540  142.4960 C   0  0  1  0  0  3  0  0  0  0  0  0
  188.1390  177.9780  146.1460 C   0  0  0  0  0  3  0  0  0  0  0  0
  191.8090  176.4610  142.8060 C   0  0  0  0  0  3  0  0  0  0  0  0
  185.8970  178.2640  145.1880 C   0  0  1  0  0  3  0  0  0  0  0  0
  185.3130  177.8780  146.5400 C   0  0  0  0  0  2  0  0  0  0  0  0
  187.6950  178.8580  141.5160 C   0  0  0  0  0  2  0  0  0  0  0  0
  189.7470  177.5370  142.1180 C   0  0  0  0  0  0  0  0  0  0  0  0
  191.0530  177.1220  141.8370 C   0  0  0  0  0  3  0  0  0  0  0  0
  182.8640  179.3800  142.6970 O   0  0  0  0  0  0  0  0  0  0  0  0
  183.3300  178.7950  141.6810 C   0  0  0  0  0  0  0  0  0  0  0  0
  184.6970  178.3700  141.6740 N   0  0  0  0  0  2  0  0  0  0  0  0
  180.8040  178.0160  138.2970 C   0  0  0  0  0  0  0  0  0  0  0  0
  181.4230  177.6290  140.6010 C   0  0  0  0  0  3  0  0  0  0  0  0
  183.7130  180.1270  139.0940 O   0  0  0  0  0  1  0  0  0  0  0  0
  179.9980  177.7590  137.2380 F   0  0  0  0  0  0  0  0  0  0  0  0
  180.5910  177.3630  139.5110 C   0  0  0  0  0  3  0  0  0  0  0  0
  182.6860  179.2060  139.2590 C   0  0  0  0  0  0  0  0  0  0  0  0
  182.4770  178.5490  140.4940 C   0  0  0  0  0  0  0  0  0  0  0  0
  181.8480  178.9340  138.1720 C   0  0  0  0  0  3  0  0  0  0  0  0
  1  6  1  0  0  0  0
  1  9  1  0  0  0  0
  2  5  1  0  0  0  0
  3  2  1  0  0  0  0
  3  7  1  0  0  0  0
  4  7  2  0  0  0  0
  4 11  1  0  0  0  0
  5 16  1  0  0  0  0
  5 14  1  1  0  0  0
  8 23  1  6  0  0  0
  8 12  1  0  0  0  0
 10 18  1  0  0  0  0
 10 19  1  0  0  0  0
 13 18  1  6  0  0  0
 13  8  1  0  0  0  0
 13  2  1  0  0  0  0
 14  1  2  0  0  0  0
 15  4  1  0  0  0  0
 16 12  1  6  0  0  0
 16 17  1  0  0  0  0
 17  6  1  0  0  0  0
 19  3  2  0  0  0  0
 20 19  1  0  0  0  0
 20 15  2  0  0  0  0
 22 21  2  0  0  0  0
 23 22  1  0  0  0  0
 24 28  1  0  0  0  0
 26 29  1  0  0  0  0
 27 24  1  0  0  0  0
 28 25  2  0  0  0  0
 29 30  2  0  0  0  0
 30 25  1  0  0  0  0
 30 22  1  0  0  0  0
 31 24  2  0  0  0  0
 31 29  1  0  0  0  0
M  END
>  <MODEL>
6

>  <REMARK>
 VINA RESULT:      -8.2      2.153      2.484
  Name = 
  2 active torsions:
  status: ('A' for Active; 'I' for Inactive)
    1  A    between atoms: C_9  and  C_22
    2  A    between atoms: C_15  and  N_23
                            x       y       z     vdW  Elec       q    Type
                         _______ _______ _______ _____ _____    ______ ____

>  <TORSDO>
F 2

$$$$
=
 OpenBabel10262419333D

 31 35  0  0  1  0  0  0  0  0999 V2000
  185.3220  179.2260  143.7670 C   0  0  0  0  0  0  0  0  0  0  0  0
  188.7180  177.7100  143.6650 N   0  0  0  0  0  0  0  0  0  0  0  0
  189.1230  177.5080  145.0460 C   0  0  0  0  0  0  0  0  0  0  0  0
  188.5790  177.1270  147.3910 C   0  0  0  0  0  0  0  0  0  0  0  0
  187.2860  177.8110  143.2920 C   0  0  1  0  0  3  0  0  0  0  0  0
  184.8620  178.9730  142.4620 O   0  0  0  0  0  0  0  0  0  0  0  0
  188.1780  177.3100  146.0670 C   0  0  0  0  0  3  0  0  0  0  0  0
  189.3600  177.7760  141.2080 C   0  0  1  0  0  3  0  0  0  0  0  0
  184.5230  180.0890  144.6750 C   0  0  0  0  0  1  0  0  0  0  0  0
  191.5670  177.5790  144.3360 C   0  0  0  0  0  2  0  0  0  0  0  0
  187.5590  176.9290  148.4550 C   0  0  0  0  0  1  0  0  0  0  0  0
  187.9160  177.4130  140.9220 C   0  0  0  0  0  2  0  0  0  0  0  0
  189.7510  177.4120  142.6460 C   0  0  1  0  0  3  0  0  0  0  0  0
  186.4960  178.7370  144.1810 C   0  0  0  0  0  3  0  0  0  0  0  0
  189.9350  177.1290  147.7170 C   0  0  0  0  0  3  0  0  0  0  0  0
  187.0820  178.2550  141.8460 C   0  0  1  0  0  3  0  0  0  0  0  0
  185.5940  178.1630  141.5340 C   0  0  0  0  0  2  0  0  0  0  0  0
  191.0430  178.1270  143.0150 C   0  0  0  0  0  2  0  0  0  0  0  0
  190.4980  177.5000  145.3870 C   0  0  0  0  0  0  0  0  0  0  0  0
  190.8910  177.3070  146.7150 C   0  0  0  0  0  3  0  0  0  0  0  0
  189.8040  178.5340  138.5010 O   0  0  0  0  0  0  0  0  0  0  0  0
  190.4100  177.5080  138.9160 C   0  0  0  0  0  0  0  0  0  0  0  0
  190.2370  177.0850  140.2730 N   0  0  0  0  0  2  0  0  0  0  0  0
  192.9110  175.2660  136.2420 C   0  0  0  0  0  0  0  0  0  0  0  0
  190.7520  176.1590  136.8600 C   0  0  0  0  0  3  0  0  0  0  0  0
  193.2790  177.1240  139.3980 O   0  0  0  0  0  1  0  0  0  0  0  0
  193.6870  174.5550  135.3880 F   0  0  0  0  0  0  0  0  0  0  0  0
  191.5510  175.4260  135.9790 C   0  0  0  0  0  3  0  0  0  0  0  0
  192.6800  176.5710  138.2730 C   0  0  0  0  0  0  0  0  0  0  0  0
  191.3010  176.7400  138.0150 C   0  0  0  0  0  0  0  0  0  0  0  0
  193.4730  175.8370  137.3850 C   0  0  0  0  0  3  0  0  0  0  0  0
  1 14  2  0  0  0  0
  1  9  1  0  0  0  0
  2  3  1  0  0  0  0
  3 19  2  0  0  0  0
  3  7  1  0  0  0  0
  4 15  1  0  0  0  0
  4 11  1  0  0  0  0
  5  2  1  0  0  0  0
  5 14  1  1  0  0  0
  6  1  1  0  0  0  0
  7  4  2  0  0  0  0
  8 23  1  6  0  0  0
  8 13  1  0  0  0  0
 10 19  1  0  0  0  0
 12  8  1  0  0  0  0
 13 18  1  1  0  0  0
 13  2  1  0  0  0  0
 16 12  1  6  0  0  0
 16  5  1  0  0  0  0
 17 16  1  0  0  0  0
 17  6  1  0  0  0  0
 18 10  1  0  0  0  0
 19 20  1  0  0  0  0
 20 15  2  0  0  0  0
 21 22  2  0  0  0  0
 22 23  1  0  0  0  0
 24 31  1  0  0  0  0
 25 30  2  0  0  0  0
 27 24  1  0  0  0  0
 28 24  2  0  0  0  0
 28 25  1  0  0  0  0
 29 26  1  0  0  0  0
 30 29  1  0  0  0  0
 30 22  1  0  0  0  0
 31 29  2  0  0  0  0
M  END
>  <MODEL>
7

>  <REMARK>
 VINA RESULT:      -8.1      3.699      5.074
  Name = 
  2 active torsions:
  status: ('A' for Active; 'I' for Inactive)
    1  A    between atoms: C_9  and  C_22
    2  A    between atoms: C_15  and  N_23
                            x       y       z     vdW  Elec       q    Type
                         _______ _______ _______ _____ _____    ______ ____

>  <TORSDO>
F 2

$$$$
=
 OpenBabel10262419333D

 31 35  0  0  1  0  0  0  0  0999 V2000
  193.1750  176.4250  137.3060 C   0  0  0  0  0  0  0  0  0  0  0  0
  189.6670  176.7830  138.4920 N   0  0  0  0  0  0  0  0  0  0  0  0
  188.8170  176.2600  137.4350 C   0  0  0  0  0  0  0  0  0  0  0  0
  188.4530  174.7850  135.5290 C   0  0  0  0  0  0  0  0  0  0  0  0
  191.0850  176.3650  138.6140 C   0  0  1  0  0  3  0  0  0  0  0  0
  193.8910  176.5290  138.5120 O   0  0  0  0  0  0  0  0  0  0  0  0
  189.2750  175.2720  136.5460 C   0  0  0  0  0  3  0  0  0  0  0  0
  189.8690  178.0930  140.6590 C   0  0  1  0  0  3  0  0  0  0  0  0
  193.9080  176.3980  136.0140 C   0  0  0  0  0  1  0  0  0  0  0  0
  186.8920  177.6990  138.2760 C   0  0  0  0  0  2  0  0  0  0  0  0
  188.9630  173.7480  134.5950 C   0  0  0  0  0  1  0  0  0  0  0  0
  191.1090  177.2640  140.9300 C   0  0  0  0  0  2  0  0  0  0  0  0
  188.9580  177.4120  139.6300 C   0  0  1  0  0  3  0  0  0  0  0  0
  191.8380  176.4000  137.3080 C   0  0  0  0  0  3  0  0  0  0  0  0
  187.1520  175.2700  135.3900 C   0  0  0  0  0  3  0  0  0  0  0  0
  191.8610  177.1980  139.6300 C   0  0  1  0  0  3  0  0  0  0  0  0
  193.2420  176.5760  139.7890 C   0  0  0  0  0  2  0  0  0  0  0  0
  187.9510  178.4220  139.0990 C   0  0  0  0  0  2  0  0  0  0  0  0
  187.4920  176.7390  137.2890 C   0  0  0  0  0  0  0  0  0  0  0  0
  186.6720  176.2380  136.2730 C   0  0  0  0  0  3  0  0  0  0  0  0
  189.0040  176.0410  142.4300 O   0  0  0  0  0  0  0  0  0  0  0  0
  188.7140  177.2280  142.7430 C   0  0  0  0  0  0  0  0  0  0  0  0
  189.1350  178.3040  141.8980 N   0  0  0  0  0  2  0  0  0  0  0  0
  186.5860  178.0630  146.3780 C   0  0  0  0  0  0  0  0  0  0  0  0
  188.6380  177.5610  145.2020 C   0  0  0  0  0  3  0  0  0  0  0  0
  185.8230  177.7260  142.7920 O   0  0  0  0  0  1  0  0  0  0  0  0
  185.9290  178.3250  147.5330 F   0  0  0  0  0  0  0  0  0  0  0  0
  187.9620  177.8310  146.3940 C   0  0  0  0  0  3  0  0  0  0  0  0
  186.5560  177.7540  143.9720 C   0  0  0  0  0  0  0  0  0  0  0  0
  187.9500  177.5180  143.9790 C   0  0  0  0  0  0  0  0  0  0  0  0
  185.8860  178.0250  145.1710 C   0  0  0  0  0  3  0  0  0  0  0  0
  1 14  2  0  0  0  0
  1  6  1  0  0  0  0
  2  5  1  0  0  0  0
  2 13  1  0  0  0  0
  3  2  1  0  0  0  0
  4  7  1  0  0  0  0
  5 14  1  6  0  0  0
  5 16  1  0  0  0  0
  6 17  1  0  0  0  0
  7  3  2  0  0  0  0
  8 12  1  0  0  0  0
  8 23  1  1  0  0  0
  9  1  1  0  0  0  0
 10 18  1  0  0  0  0
 11  4  1  0  0  0  0
 13 18  1  6  0  0  0
 13  8  1  0  0  0  0
 15  4  2  0  0  0  0
 15 20  1  0  0  0  0
 16 17  1  1  0  0  0
 16 12  1  0  0  0  0
 19  3  1  0  0  0  0
 19 10  1  0  0  0  0
 20 19  2  0  0  0  0
 21 22  2  0  0  0  0
 22 30  1  0  0  0  0
 23 22  1  0  0  0  0
 24 28  1  0  0  0  0
 24 27  1  0  0  0  0
 25 28  2  0  0  0  0
 26 29  1  0  0  0  0
 29 30  2  0  0  0  0
 29 31  1  0  0  0  0
 30 25  1  0  0  0  0
 31 24  2  0  0  0  0
M  END
>  <MODEL>
8

>  <REMARK>
 VINA RESULT:      -8.0      4.310      8.858
  Name = 
  2 active torsions:
  status: ('A' for Active; 'I' for Inactive)
    1  A    between atoms: C_9  and  C_22
    2  A    between atoms: C_15  and  N_23
                            x       y       z     vdW  Elec       q    Type
                         _______ _______ _______ _____ _____    ______ ____

>  <TORSDO>
F 2

$$$$
=
 OpenBabel10262419333D

 31 35  0  0  1  0  0  0  0  0999 V2000
  189.8900  176.5530  138.4880 C   0  0  0  0  0  0  0  0  0  0  0  0
  187.5690  178.0950  140.9530 N   0  0  0  0  0  0  0  0  0  0  0  0
  188.2040  177.9680  142.2540 C   0  0  0  0  0  0  0  0  0  0  0  0
  190.1990  177.7740  143.6410 C   0  0  0  0  0  0  0  0  0  0  0  0
  188.3690  178.0660  139.7030 C   0  0  1  0  0  3  0  0  0  0  0  0
  189.4230  177.1020  137.2800 O   0  0  0  0  0  0  0  0  0  0  0  0
  189.6020  177.9050  142.3870 C   0  0  0  0  0  3  0  0  0  0  0  0
  185.4830  178.6230  139.6040 C   0  0  1  0  0  3  0  0  0  0  0  0
  190.9260  175.4880  138.4600 C   0  0  0  0  0  1  0  0  0  0  0  0
  185.9220  178.1000  143.3760 C   0  0  0  0  0  2  0  0  0  0  0  0
  191.6800  177.7000  143.7550 C   0  0  0  0  0  1  0  0  0  0  0  0
  186.4260  179.0240  138.4860 C   0  0  0  0  0  2  0  0  0  0  0  0
  186.1930  178.6400  140.9640 C   0  0  1  0  0  3  0  0  0  0  0  0
  189.3750  176.9440  139.6580 C   0  0  0  0  0  3  0  0  0  0  0  0
  189.4080  177.7130  144.7880 C   0  0  0  0  0  3  0  0  0  0  0  0
  187.5020  177.9750  138.4500 C   0  0  1  0  0  3  0  0  0  0  0  0
  188.4140  178.1200  137.2390 C   0  0  0  0  0  2  0  0  0  0  0  0
  185.3560  177.8750  141.9800 C   0  0  0  0  0  2  0  0  0  0  0  0
  187.4110  177.9130  143.4270 C   0  0  0  0  0  0  0  0  0  0  0  0
  188.0190  177.7910  144.6800 C   0  0  0  0  0  3  0  0  0  0  0  0
  182.9370  178.1040  138.4420 O   0  0  0  0  0  0  0  0  0  0  0  0
  183.0880  179.2150  139.0200 C   0  0  0  0  0  0  0  0  0  0  0  0
  184.3420  179.5270  139.6360 N   0  0  0  0  0  2  0  0  0  0  0  0
  179.9220  182.1140  139.0980 C   0  0  0  0  0  0  0  0  0  0  0  0
  182.0330  181.3190  138.2310 C   0  0  0  0  0  3  0  0  0  0  0  0
  180.7620  178.9550  140.7910 O   0  0  0  0  0  1  0  0  0  0  0  0
  178.9310  183.0380  139.1100 F   0  0  0  0  0  0  0  0  0  0  0  0
  181.0120  182.2720  138.2420 C   0  0  0  0  0  3  0  0  0  0  0  0
  180.8700  180.0450  139.9360 C   0  0  0  0  0  0  0  0  0  0  0  0
  181.9790  180.1970  139.0720 C   0  0  0  0  0  0  0  0  0  0  0  0
  179.8510  181.0050  139.9410 C   0  0  0  0  0  3  0  0  0  0  0  0
  1 14  2  0  0  0  0
  2 13  1  0  0  0  0
  2  3  1  0  0  0  0
  3  7  2  0  0  0  0
  3 19  1  0  0  0  0
  4 11  1  0  0  0  0
  4 15  2  0  0  0  0
  5 14  1  1  0  0  0
  5  2  1  0  0  0  0
  6  1  1  0  0  0  0
  7  4  1  0  0  0  0
  8 23  1  1  0  0  0
  8 13  1  0  0  0  0
  9  1  1  0  0  0  0
 10 19  1  0  0  0  0
 12  8  1  0  0  0  0
 13 18  1  1  0  0  0
 16 17  1  6  0  0  0
 16 12  1  0  0  0  0
 16  5  1  0  0  0  0
 17  6  1  0  0  0  0
 18 10  1  0  0  0  0
 19 20  2  0  0  0  0
 20 15  1  0  0  0  0
 21 22  2  0  0  0  0
 22 30  1  0  0  0  0
 22 23  1  0  0  0  0
 24 27  1  0  0  0  0
 24 31  1  0  0  0  0
 25 28  1  0  0  0  0
 25 30  2  0  0  0  0
 28 24  2  0  0  0  0
 29 31  2  0  0  0  0
 29 26  1  0  0  0  0
 30 29  1  0  0  0  0
M  END
>  <MODEL>
9

>  <REMARK>
 VINA RESULT:      -7.9      3.129      5.732
  Name = 
  2 active torsions:
  status: ('A' for Active; 'I' for Inactive)
    1  A    between atoms: C_9  and  C_22
    2  A    between atoms: C_15  and  N_23
                            x       y       z     vdW  Elec       q    Type
                         _______ _______ _______ _____ _____    ______ ____

>  <TORSDO>
F 2

$$$$
