=
 OpenBabel10262419553D

 25 26  0  0  1  0  0  0  0  0999 V2000
  189.7490  176.1690  142.8310 C   0  0  2  0  0  3  0  0  0  0  0  0
  190.0090  177.1390  143.9950 C   0  0  1  0  0  3  0  0  0  0  0  0
  192.4520  174.5320  144.3460 O   0  0  0  0  0  0  0  0  0  0  0  0
  191.5300  175.3290  144.0370 C   0  0  0  0  0  0  0  0  0  0  0  0
  191.3070  176.5870  146.1830 C   0  0  0  0  0  0  0  0  0  0  0  0
  192.3210  176.2410  146.7680 O   0  0  0  0  0  0  0  0  0  0  0  0
  188.7890  177.1060  144.9120 C   0  0  0  0  0  2  0  0  0  0  0  0
  190.6540  175.0900  143.0020 O   0  0  0  0  0  0  0  0  0  0  0  0
  190.0970  176.9420  147.0020 C   0  0  0  0  0  2  0  0  0  0  0  0
  189.1080  177.7960  146.2210 C   0  0  2  0  0  3  0  0  0  0  0  0
  191.3170  176.6520  144.6690 C   0  0  2  0  0  3  0  0  0  0  0  0
  189.9360  176.8580  141.4730 C   0  0  1  0  0  3  0  0  0  0  0  0
  188.6540  177.5160  140.9460 C   0  0  1  0  0  3  0  0  0  0  0  0
  188.5090  178.8150  141.4450 O   0  0  0  0  0  1  0  0  0  0  0  0
  188.8190  178.9000  138.9520 N   0  0  0  0  0  1  0  0  0  0  0  0
  188.6510  177.5380  139.4270 C   0  0  0  0  0  2  0  0  0  0  0  0
  192.1680  177.4980  141.0220 O   0  0  0  0  0  0  0  0  0  0  0  0
  191.0940  177.8110  141.5080 C   0  0  0  0  0  3  0  0  0  0  0  0
  187.8300  177.9720  147.0200 C   0  0  0  0  0  2  0  0  0  0  0  0
  186.6270  177.5540  146.1920 C   0  0  0  0  0  2  0  0  0  0  0  0
  185.5820  178.6150  146.2410 C   0  0  0  0  0  0  0  0  0  0  0  0
  185.5880  179.4440  147.1900 O   0  0  0  0  0  0  0  0  0  0  0  0
  184.5720  178.7160  145.1810 C   0  0  0  0  0  0  0  0  0  0  0  0
  183.4430  179.2190  145.4270 O   0  0  0  0  0  1  0  0  0  0  0  0
  184.8530  178.2570  143.9000 O   0  0  0  0  0  0  0  0  0  0  0  0
  1 12  1  6  0  0  0
  1  8  1  0  0  0  0
  1  2  1  0  0  0  0
  2 11  1  0  0  0  0
  2  7  1  1  0  0  0
  4  3  2  0  0  0  0
  5  6  2  0  0  0  0
  5  9  1  0  0  0  0
  7 10  1  0  0  0  0
  8  4  1  0  0  0  0
 10  9  1  0  0  0  0
 10 19  1  1  0  0  0
 11  4  1  6  0  0  0
 11  5  1  0  0  0  0
 12 18  1  1  0  0  0
 13 14  1  1  0  0  0
 13 12  1  0  0  0  0
 15 16  1  0  0  0  0
 16 13  1  0  0  0  0
 17 18  2  0  0  0  0
 20 21  1  0  0  0  0
 20 19  1  0  0  0  0
 21 22  2  0  0  0  0
 23 24  1  0  0  0  0
 23 21  1  0  0  0  0
 25 23  2  0  0  0  0
M  END
>  <MODEL>
1

>  <REMARK>
 VINA RESULT:      -8.4      0.000      0.000
  Name = 
  8 active torsions:
  status: ('A' for Active; 'I' for Inactive)
    1  A    between atoms: C_1  and  C_5
    2  A    between atoms: C_2  and  C_21
    3  A    between atoms: C_5  and  C_10
    4  A    between atoms: C_5  and  C_22
    5  A    between atoms: C_6  and  C_15
    6  A    between atoms: C_6  and  C_23
    7  A    between atoms: C_10  and  C_11
    8  A    between atoms: C_15  and  C_21
                            x       y       z     vdW  Elec       q    Type
                         _______ _______ _______ _____ _____    ______ ____

>  <TORSDO>
F 8

$$$$
=
 OpenBabel10262419553D

 25 26  0  0  1  0  0  0  0  0999 V2000
  189.5270  176.5760  142.7710 C   0  0  2  0  0  3  0  0  0  0  0  0
  189.8110  177.4260  144.0190 C   0  0  1  0  0  3  0  0  0  0  0  0
  192.3020  174.8400  144.0250 O   0  0  0  0  0  0  0  0  0  0  0  0
  191.3580  175.6490  143.8280 C   0  0  0  0  0  0  0  0  0  0  0  0
  191.1890  176.6780  146.0970 C   0  0  0  0  0  0  0  0  0  0  0  0
  192.2270  176.2920  146.6120 O   0  0  0  0  0  0  0  0  0  0  0  0
  188.6240  177.2800  144.9660 C   0  0  0  0  0  2  0  0  0  0  0  0
  190.4520  175.5000  142.8020 O   0  0  0  0  0  0  0  0  0  0  0  0
  190.0030  176.9270  146.9860 C   0  0  0  0  0  2  0  0  0  0  0  0
  188.9760  177.8380  146.3280 C   0  0  2  0  0  3  0  0  0  0  0  0
  191.1480  176.8960  144.5980 C   0  0  2  0  0  3  0  0  0  0  0  0
  189.6590  177.4020  141.4850 C   0  0  1  0  0  3  0  0  0  0  0  0
  190.4930  176.7060  140.4010 C   0  0  1  0  0  3  0  0  0  0  0  0
  189.8140  176.6780  139.1780 O   0  0  0  0  0  1  0  0  0  0  0  0
  192.5250  176.8670  139.0730 N   0  0  0  0  0  1  0  0  0  0  0  0
  191.8370  177.3960  140.2370 C   0  0  0  0  0  2  0  0  0  0  0  0
  187.6960  178.7200  141.5450 O   0  0  0  0  0  0  0  0  0  0  0  0
  188.3130  177.8310  140.9810 C   0  0  0  0  0  3  0  0  0  0  0  0
  187.7230  177.9100  147.1810 C   0  0  0  0  0  2  0  0  0  0  0  0
  186.4920  177.6270  146.3370 C   0  0  0  0  0  2  0  0  0  0  0  0
  185.5880  178.8110  146.3430 C   0  0  0  0  0  0  0  0  0  0  0  0
  185.6530  179.6340  147.2950 O   0  0  0  0  0  0  0  0  0  0  0  0
  184.6490  179.0370  145.2370 C   0  0  0  0  0  0  0  0  0  0  0  0
  183.4120  179.1130  145.4620 O   0  0  0  0  0  1  0  0  0  0  0  0
  185.1180  179.1690  143.9360 O   0  0  0  0  0  0  0  0  0  0  0  0
  1 12  1  6  0  0  0
  1  8  1  0  0  0  0
  1  2  1  0  0  0  0
  2 11  1  0  0  0  0
  2  7  1  1  0  0  0
  4  3  2  0  0  0  0
  5  6  2  0  0  0  0
  5  9  1  0  0  0  0
  7 10  1  0  0  0  0
  8  4  1  0  0  0  0
 10  9  1  0  0  0  0
 10 19  1  1  0  0  0
 11  4  1  6  0  0  0
 11  5  1  0  0  0  0
 12 18  1  6  0  0  0
 13 14  1  6  0  0  0
 13 12  1  0  0  0  0
 15 16  1  0  0  0  0
 16 13  1  0  0  0  0
 18 17  2  0  0  0  0
 20 21  1  0  0  0  0
 20 19  1  0  0  0  0
 21 22  2  0  0  0  0
 23 24  1  0  0  0  0
 23 21  1  0  0  0  0
 25 23  2  0  0  0  0
M  END
>  <MODEL>
2

>  <REMARK>
 VINA RESULT:      -8.3      1.201      1.756
  Name = 
  8 active torsions:
  status: ('A' for Active; 'I' for Inactive)
    1  A    between atoms: C_1  and  C_5
    2  A    between atoms: C_2  and  C_21
    3  A    between atoms: C_5  and  C_10
    4  A    between atoms: C_5  and  C_22
    5  A    between atoms: C_6  and  C_15
    6  A    between atoms: C_6  and  C_23
    7  A    between atoms: C_10  and  C_11
    8  A    between atoms: C_15  and  C_21
                            x       y       z     vdW  Elec       q    Type
                         _______ _______ _______ _____ _____    ______ ____

>  <TORSDO>
F 8

$$$$
=
 OpenBabel10262419553D

 25 26  0  0  1  0  0  0  0  0999 V2000
  188.4160  178.1550  142.2330 C   0  0  2  0  0  3  0  0  0  0  0  0
  187.4800  177.4670  143.2400 C   0  0  1  0  0  3  0  0  0  0  0  0
  185.3640  179.5470  141.2190 O   0  0  0  0  0  0  0  0  0  0  0  0
  186.2750  178.8960  141.7930 C   0  0  0  0  0  0  0  0  0  0  0  0
  185.0940  178.2700  143.9030 C   0  0  0  0  0  0  0  0  0  0  0  0
  183.9380  178.5410  143.6190 O   0  0  0  0  0  0  0  0  0  0  0  0
  187.8490  177.9620  144.6360 C   0  0  0  0  0  2  0  0  0  0  0  0
  187.6070  179.0430  141.4790 O   0  0  0  0  0  0  0  0  0  0  0  0
  185.5170  178.3710  145.3420 C   0  0  0  0  0  2  0  0  0  0  0  0
  186.7760  177.5640  145.6270 C   0  0  2  0  0  3  0  0  0  0  0  0
  186.0400  177.8370  142.8010 C   0  0  2  0  0  3  0  0  0  0  0  0
  189.1260  177.1320  141.3360 C   0  0  1  0  0  3  0  0  0  0  0  0
  189.5140  177.6970  139.9630 C   0  0  1  0  0  3  0  0  0  0  0  0
  190.8330  177.3690  139.6340 O   0  0  0  0  0  1  0  0  0  0  0  0
  187.8540  178.3050  138.2920 N   0  0  0  0  0  1  0  0  0  0  0  0
  188.5650  177.1890  138.8910 C   0  0  0  0  0  2  0  0  0  0  0  0
  190.1580  175.4570  142.6500 O   0  0  0  0  0  0  0  0  0  0  0  0
  190.2910  176.5100  142.0470 C   0  0  0  0  0  3  0  0  0  0  0  0
  187.2650  177.8430  147.0360 C   0  0  0  0  0  2  0  0  0  0  0  0
  188.2780  176.7950  147.4620 C   0  0  0  0  0  2  0  0  0  0  0  0
  189.5790  177.4460  147.7850 C   0  0  0  0  0  0  0  0  0  0  0  0
  189.6090  178.3800  148.6290 O   0  0  0  0  0  0  0  0  0  0  0  0
  190.8190  176.9880  147.1470 C   0  0  0  0  0  0  0  0  0  0  0  0
  190.8290  176.6870  145.9240 O   0  0  0  0  0  0  0  0  0  0  0  0
  191.9900  176.8830  147.8880 O   0  0  0  0  0  1  0  0  0  0  0  0
  1 12  1  6  0  0  0
  1  2  1  0  0  0  0
  2  7  1  1  0  0  0
  3  4  2  0  0  0  0
  5  9  1  0  0  0  0
  6  5  2  0  0  0  0
  7 10  1  0  0  0  0
  8  4  1  0  0  0  0
  8  1  1  0  0  0  0
  9 10  1  0  0  0  0
 10 19  1  1  0  0  0
 11  4  1  6  0  0  0
 11  2  1  0  0  0  0
 11  5  1  0  0  0  0
 12 18  1  1  0  0  0
 13 14  1  6  0  0  0
 13 12  1  0  0  0  0
 15 16  1  0  0  0  0
 16 13  1  0  0  0  0
 18 17  2  0  0  0  0
 19 20  1  0  0  0  0
 20 21  1  0  0  0  0
 21 22  2  0  0  0  0
 23 21  1  0  0  0  0
 23 25  1  0  0  0  0
 24 23  2  0  0  0  0
M  END
>  <MODEL>
3

>  <REMARK>
 VINA RESULT:      -8.1      1.700      4.972
  Name = 
  8 active torsions:
  status: ('A' for Active; 'I' for Inactive)
    1  A    between atoms: C_1  and  C_5
    2  A    between atoms: C_2  and  C_21
    3  A    between atoms: C_5  and  C_10
    4  A    between atoms: C_5  and  C_22
    5  A    between atoms: C_6  and  C_15
    6  A    between atoms: C_6  and  C_23
    7  A    between atoms: C_10  and  C_11
    8  A    between atoms: C_15  and  C_21
                            x       y       z     vdW  Elec       q    Type
                         _______ _______ _______ _____ _____    ______ ____

>  <TORSDO>
F 8

$$$$
=
 OpenBabel10262419553D

 25 26  0  0  1  0  0  0  0  0999 V2000
  189.4000  176.6700  142.0030 C   0  0  2  0  0  3  0  0  0  0  0  0
  189.2180  177.5790  143.2290 C   0  0  1  0  0  3  0  0  0  0  0  0
  191.9170  175.3620  144.0620 O   0  0  0  0  0  0  0  0  0  0  0  0
  190.9700  176.0280  143.5690 C   0  0  0  0  0  0  0  0  0  0  0  0
  190.0510  177.0730  145.6430 C   0  0  0  0  0  0  0  0  0  0  0  0
  190.9470  176.8460  146.4420 O   0  0  0  0  0  0  0  0  0  0  0  0
  187.8440  177.2900  143.8250 C   0  0  0  0  0  2  0  0  0  0  0  0
  190.4090  175.7340  142.3470 O   0  0  0  0  0  0  0  0  0  0  0  0
  188.6430  177.1750  146.1610 C   0  0  0  0  0  2  0  0  0  0  0  0
  187.7320  177.9220  145.1970 C   0  0  2  0  0  3  0  0  0  0  0  0
  190.3990  177.2510  144.1790 C   0  0  2  0  0  3  0  0  0  0  0  0
  189.7770  177.4780  140.7540 C   0  0  1  0  0  3  0  0  0  0  0  0
  190.9350  176.8600  139.9600 C   0  0  1  0  0  3  0  0  0  0  0  0
  190.7170  176.9630  138.5820 O   0  0  0  0  0  1  0  0  0  0  0  0
  193.2890  177.1200  139.4010 N   0  0  0  0  0  1  0  0  0  0  0  0
  192.2500  177.5250  140.3310 C   0  0  0  0  0  2  0  0  0  0  0  0
  187.7810  178.6180  140.1940 O   0  0  0  0  0  0  0  0  0  0  0  0
  188.5730  177.7380  139.8980 C   0  0  0  0  0  3  0  0  0  0  0  0
  186.2930  177.8380  145.6720 C   0  0  0  0  0  2  0  0  0  0  0  0
  185.6160  179.1930  145.5500 C   0  0  0  0  0  2  0  0  0  0  0  0
  184.3090  179.0450  144.8490 C   0  0  0  0  0  0  0  0  0  0  0  0
  183.2540  178.9230  145.5280 O   0  0  0  0  0  0  0  0  0  0  0  0
  184.2430  179.0710  143.3830 C   0  0  0  0  0  0  0  0  0  0  0  0
  183.1810  178.7400  142.7910 O   0  0  0  0  0  1  0  0  0  0  0  0
  185.3500  179.4590  142.6390 O   0  0  0  0  0  0  0  0  0  0  0  0
  1 12  1  6  0  0  0
  1  8  1  0  0  0  0
  1  2  1  0  0  0  0
  2  7  1  1  0  0  0
  2 11  1  0  0  0  0
  4  3  2  0  0  0  0
  5  9  1  0  0  0  0
  5  6  2  0  0  0  0
  7 10  1  0  0  0  0
  8  4  1  0  0  0  0
 10 19  1  1  0  0  0
 10  9  1  0  0  0  0
 11  4  1  6  0  0  0
 11  5  1  0  0  0  0
 12 18  1  6  0  0  0
 13 14  1  6  0  0  0
 13 16  1  0  0  0  0
 13 12  1  0  0  0  0
 15 16  1  0  0  0  0
 18 17  2  0  0  0  0
 20 19  1  0  0  0  0
 21 22  2  0  0  0  0
 21 20  1  0  0  0  0
 23 21  1  0  0  0  0
 24 23  1  0  0  0  0
 25 23  2  0  0  0  0
M  END
>  <MODEL>
4

>  <REMARK>
 VINA RESULT:      -7.9      1.645      2.409
  Name = 
  8 active torsions:
  status: ('A' for Active; 'I' for Inactive)
    1  A    between atoms: C_1  and  C_5
    2  A    between atoms: C_2  and  C_21
    3  A    between atoms: C_5  and  C_10
    4  A    between atoms: C_5  and  C_22
    5  A    between atoms: C_6  and  C_15
    6  A    between atoms: C_6  and  C_23
    7  A    between atoms: C_10  and  C_11
    8  A    between atoms: C_15  and  C_21
                            x       y       z     vdW  Elec       q    Type
                         _______ _______ _______ _____ _____    ______ ____

>  <TORSDO>
F 8

$$$$
=
 OpenBabel10262419553D

 25 26  0  0  1  0  0  0  0  0999 V2000
  189.1470  176.8820  145.1890 C   0  0  2  0  0  3  0  0  0  0  0  0
  188.1320  177.9960  144.8870 C   0  0  1  0  0  3  0  0  0  0  0  0
  187.8780  177.3920  148.4170 O   0  0  0  0  0  0  0  0  0  0  0  0
  188.1300  177.4420  147.1850 C   0  0  0  0  0  0  0  0  0  0  0  0
  186.1060  178.6650  146.3790 C   0  0  0  0  0  0  0  0  0  0  0  0
  185.6400  179.0730  147.4320 O   0  0  0  0  0  0  0  0  0  0  0  0
  187.0530  177.4110  143.9800 C   0  0  0  0  0  2  0  0  0  0  0  0
  189.0020  176.5740  146.5670 O   0  0  0  0  0  0  0  0  0  0  0  0
  185.1630  178.3790  145.2450 C   0  0  0  0  0  2  0  0  0  0  0  0
  185.8750  178.3590  143.8990 C   0  0  2  0  0  3  0  0  0  0  0  0
  187.6060  178.4760  146.2630 C   0  0  2  0  0  3  0  0  0  0  0  0
  190.5790  177.3200  144.8530 C   0  0  1  0  0  3  0  0  0  0  0  0
  191.2850  176.3760  143.8710 C   0  0  1  0  0  3  0  0  0  0  0  0
  192.0300  175.4040  144.5480 O   0  0  0  0  0  1  0  0  0  0  0  0
  190.3360  176.3180  141.6320 N   0  0  0  0  0  1  0  0  0  0  0  0
  190.2750  175.7120  142.9500 C   0  0  0  0  0  2  0  0  0  0  0  0
  191.6330  179.2240  143.9260 O   0  0  0  0  0  0  0  0  0  0  0  0
  190.6110  178.7480  144.3940 C   0  0  0  0  0  3  0  0  0  0  0  0
  184.9240  177.8880  142.8150 C   0  0  0  0  0  2  0  0  0  0  0  0
  184.4960  179.0550  141.9420 C   0  0  0  0  0  2  0  0  0  0  0  0
  185.2030  178.9970  140.6320 C   0  0  0  0  0  0  0  0  0  0  0  0
  186.4410  178.7620  140.6080 O   0  0  0  0  0  0  0  0  0  0  0  0
  184.4640  179.1830  139.3780 C   0  0  0  0  0  0  0  0  0  0  0  0
  184.1410  178.1850  138.6790 O   0  0  0  0  0  0  0  0  0  0  0  0
  184.1140  180.4580  138.9530 O   0  0  0  0  0  1  0  0  0  0  0  0
  1 12  1  1  0  0  0
  1  8  1  0  0  0  0
  2  7  1  6  0  0  0
  2  1  1  0  0  0  0
  2 11  1  0  0  0  0
  4  3  2  0  0  0  0
  5  6  2  0  0  0  0
  8  4  1  0  0  0  0
  9  5  1  0  0  0  0
 10 19  1  6  0  0  0
 10  7  1  0  0  0  0
 10  9  1  0  0  0  0
 11  5  1  6  0  0  0
 11  4  1  0  0  0  0
 12 18  1  6  0  0  0
 13 14  1  1  0  0  0
 13 12  1  0  0  0  0
 15 16  1  0  0  0  0
 16 13  1  0  0  0  0
 17 18  2  0  0  0  0
 20 19  1  0  0  0  0
 21 20  1  0  0  0  0
 22 21  2  0  0  0  0
 23 21  1  0  0  0  0
 24 23  2  0  0  0  0
 25 23  1  0  0  0  0
M  END
>  <MODEL>
5

>  <REMARK>
 VINA RESULT:      -7.8      2.678      4.943
  Name = 
  8 active torsions:
  status: ('A' for Active; 'I' for Inactive)
    1  A    between atoms: C_1  and  C_5
    2  A    between atoms: C_2  and  C_21
    3  A    between atoms: C_5  and  C_10
    4  A    between atoms: C_5  and  C_22
    5  A    between atoms: C_6  and  C_15
    6  A    between atoms: C_6  and  C_23
    7  A    between atoms: C_10  and  C_11
    8  A    between atoms: C_15  and  C_21
                            x       y       z     vdW  Elec       q    Type
                         _______ _______ _______ _____ _____    ______ ____

>  <TORSDO>
F 8

$$$$
=
 OpenBabel10262419553D

 25 26  0  0  1  0  0  0  0  0999 V2000
  190.0220  176.9140  144.5520 C   0  0  2  0  0  3  0  0  0  0  0  0
  189.1540  177.9660  145.2610 C   0  0  1  0  0  3  0  0  0  0  0  0
  191.0880  176.4050  147.8520 O   0  0  0  0  0  0  0  0  0  0  0  0
  190.5240  176.8120  146.8030 C   0  0  0  0  0  0  0  0  0  0  0  0
  188.5710  178.0090  147.7980 C   0  0  0  0  0  0  0  0  0  0  0  0
  188.9010  178.0690  148.9720 O   0  0  0  0  0  0  0  0  0  0  0  0
  187.6940  177.5490  145.1060 C   0  0  0  0  0  2  0  0  0  0  0  0
  190.7330  176.2310  145.5720 O   0  0  0  0  0  0  0  0  0  0  0  0
  187.1040  177.9530  147.4720 C   0  0  0  0  0  2  0  0  0  0  0  0
  186.8210  178.3670  146.0340 C   0  0  2  0  0  3  0  0  0  0  0  0
  189.6460  178.0020  146.7300 C   0  0  2  0  0  3  0  0  0  0  0  0
  190.9700  177.5610  143.5330 C   0  0  1  0  0  3  0  0  0  0  0  0
  190.7030  177.1150  142.0890 C   0  0  1  0  0  3  0  0  0  0  0  0
  190.2990  175.7760  142.0380 O   0  0  0  0  0  1  0  0  0  0  0  0
  188.3460  177.3750  141.5450 N   0  0  0  0  0  1  0  0  0  0  0  0
  189.6520  178.0020  141.4440 C   0  0  0  0  0  2  0  0  0  0  0  0
  191.9180  179.6210  144.2080 O   0  0  0  0  0  0  0  0  0  0  0  0
  190.9760  179.0540  143.6770 C   0  0  0  0  0  3  0  0  0  0  0  0
  185.3620  178.1190  145.7000 C   0  0  0  0  0  2  0  0  0  0  0  0
  184.7750  179.3160  144.9730 C   0  0  0  0  0  2  0  0  0  0  0  0
  183.9520  178.8570  143.8190 C   0  0  0  0  0  0  0  0  0  0  0  0
  182.7390  178.5690  144.0010 O   0  0  0  0  0  0  0  0  0  0  0  0
  184.5380  178.7650  142.4760 C   0  0  0  0  0  0  0  0  0  0  0  0
  184.1610  177.8640  141.6800 O   0  0  0  0  0  0  0  0  0  0  0  0
  185.5110  179.6710  142.0740 O   0  0  0  0  0  1  0  0  0  0  0  0
  1 12  1  6  0  0  0
  1  2  1  0  0  0  0
  1  8  1  0  0  0  0
  2  7  1  1  0  0  0
  2 11  1  0  0  0  0
  4  3  2  0  0  0  0
  5  6  2  0  0  0  0
  7 10  1  0  0  0  0
  8  4  1  0  0  0  0
  9  5  1  0  0  0  0
 10 19  1  6  0  0  0
 10  9  1  0  0  0  0
 11  4  1  1  0  0  0
 11  5  1  0  0  0  0
 12 18  1  6  0  0  0
 13 14  1  1  0  0  0
 13 12  1  0  0  0  0
 16 15  1  0  0  0  0
 16 13  1  0  0  0  0
 18 17  2  0  0  0  0
 20 19  1  0  0  0  0
 21 22  2  0  0  0  0
 21 20  1  0  0  0  0
 23 21  1  0  0  0  0
 24 23  2  0  0  0  0
 25 23  1  0  0  0  0
M  END
>  <MODEL>
6

>  <REMARK>
 VINA RESULT:      -7.5      1.873      3.059
  Name = 
  8 active torsions:
  status: ('A' for Active; 'I' for Inactive)
    1  A    between atoms: C_1  and  C_5
    2  A    between atoms: C_2  and  C_21
    3  A    between atoms: C_5  and  C_10
    4  A    between atoms: C_5  and  C_22
    5  A    between atoms: C_6  and  C_15
    6  A    between atoms: C_6  and  C_23
    7  A    between atoms: C_10  and  C_11
    8  A    between atoms: C_15  and  C_21
                            x       y       z     vdW  Elec       q    Type
                         _______ _______ _______ _____ _____    ______ ____

>  <TORSDO>
F 8

$$$$
=
 OpenBabel10262419553D

 25 26  0  0  1  0  0  0  0  0999 V2000
  188.4650  177.4400  141.5770 C   0  0  2  0  0  3  0  0  0  0  0  0
  188.7060  178.2410  142.8660 C   0  0  1  0  0  3  0  0  0  0  0  0
  191.9460  177.1070  141.8140 O   0  0  0  0  0  0  0  0  0  0  0  0
  190.7350  177.3990  141.9940 C   0  0  0  0  0  0  0  0  0  0  0  0
  190.8060  178.0790  144.3960 C   0  0  0  0  0  0  0  0  0  0  0  0
  192.0090  178.1840  144.5790 O   0  0  0  0  0  0  0  0  0  0  0  0
  188.0240  177.4990  144.0120 C   0  0  0  0  0  2  0  0  0  0  0  0
  189.7260  176.9160  141.1910 O   0  0  0  0  0  0  0  0  0  0  0  0
  189.9390  177.6910  145.5610 C   0  0  0  0  0  2  0  0  0  0  0  0
  188.4800  178.0650  145.3400 C   0  0  2  0  0  3  0  0  0  0  0  0
  190.2450  178.3530  143.0150 C   0  0  2  0  0  3  0  0  0  0  0  0
  187.8540  178.3170  140.4760 C   0  0  1  0  0  3  0  0  0  0  0  0
  188.2220  177.8550  139.0590 C   0  0  1  0  0  3  0  0  0  0  0  0
  187.0800  177.6650  138.2750 O   0  0  0  0  0  1  0  0  0  0  0  0
  189.0850  178.7140  136.9530 N   0  0  0  0  0  1  0  0  0  0  0  0
  189.1500  178.8590  138.3960 C   0  0  0  0  0  2  0  0  0  0  0  0
  185.8670  179.5640  140.7790 O   0  0  0  0  0  0  0  0  0  0  0  0
  186.3720  178.4600  140.6620 C   0  0  0  0  0  3  0  0  0  0  0  0
  187.6220  177.4920  146.4520 C   0  0  0  0  0  2  0  0  0  0  0  0
  186.1880  177.3210  145.9790 C   0  0  0  0  0  2  0  0  0  0  0  0
  185.4280  178.5840  146.1980 C   0  0  0  0  0  0  0  0  0  0  0  0
  185.6090  179.2380  147.2600 O   0  0  0  0  0  0  0  0  0  0  0  0
  184.4970  179.0790  145.1770 C   0  0  0  0  0  0  0  0  0  0  0  0
  183.2660  179.1690  145.4320 O   0  0  0  0  0  1  0  0  0  0  0  0
  184.9650  179.4500  143.9230 O   0  0  0  0  0  0  0  0  0  0  0  0
  1 12  1  6  0  0  0
  1  2  1  0  0  0  0
  2 11  1  0  0  0  0
  2  7  1  1  0  0  0
  3  4  2  0  0  0  0
  5  6  2  0  0  0  0
  5  9  1  0  0  0  0
  7 10  1  0  0  0  0
  8  1  1  0  0  0  0
  8  4  1  0  0  0  0
 10  9  1  0  0  0  0
 10 19  1  1  0  0  0
 11  4  1  6  0  0  0
 11  5  1  0  0  0  0
 12 18  1  6  0  0  0
 13 14  1  6  0  0  0
 13 12  1  0  0  0  0
 15 16  1  0  0  0  0
 16 13  1  0  0  0  0
 18 17  2  0  0  0  0
 20 21  1  0  0  0  0
 20 19  1  0  0  0  0
 21 22  2  0  0  0  0
 23 24  1  0  0  0  0
 23 21  1  0  0  0  0
 25 23  2  0  0  0  0
M  END
>  <MODEL>
7

>  <REMARK>
 VINA RESULT:      -7.5      1.653      2.588
  Name = 
  8 active torsions:
  status: ('A' for Active; 'I' for Inactive)
    1  A    between atoms: C_1  and  C_5
    2  A    between atoms: C_2  and  C_21
    3  A    between atoms: C_5  and  C_10
    4  A    between atoms: C_5  and  C_22
    5  A    between atoms: C_6  and  C_15
    6  A    between atoms: C_6  and  C_23
    7  A    between atoms: C_10  and  C_11
    8  A    between atoms: C_15  and  C_21
                            x       y       z     vdW  Elec       q    Type
                         _______ _______ _______ _____ _____    ______ ____

>  <TORSDO>
F 8

$$$$
=
 OpenBabel10262419553D

 25 26  0  0  1  0  0  0  0  0999 V2000
  188.2620  178.4270  141.4280 C   0  0  2  0  0  3  0  0  0  0  0  0
  187.7700  177.6110  142.6340 C   0  0  1  0  0  3  0  0  0  0  0  0
  184.9330  179.5210  141.5410 O   0  0  0  0  0  0  0  0  0  0  0  0
  186.0360  178.9510  141.7480 C   0  0  0  0  0  0  0  0  0  0  0  0
  185.6690  178.1330  144.0790 C   0  0  0  0  0  0  0  0  0  0  0  0
  184.4640  178.2900  144.2000 O   0  0  0  0  0  0  0  0  0  0  0  0
  188.5290  178.0950  143.8660 C   0  0  0  0  0  2  0  0  0  0  0  0
  187.1750  179.2500  141.0340 O   0  0  0  0  0  0  0  0  0  0  0  0
  186.5270  178.2300  145.3100 C   0  0  0  0  0  2  0  0  0  0  0  0
  187.8780  177.5530  145.1210 C   0  0  2  0  0  3  0  0  0  0  0  0
  186.2390  177.8400  142.7060 C   0  0  2  0  0  3  0  0  0  0  0  0
  188.7280  177.5160  140.2840 C   0  0  1  0  0  3  0  0  0  0  0  0
  188.3680  178.0560  138.8940 C   0  0  1  0  0  3  0  0  0  0  0  0
  189.2770  179.0340  138.4780 O   0  0  0  0  0  1  0  0  0  0  0  0
  189.3510  177.1130  136.8790 N   0  0  0  0  0  1  0  0  0  0  0  0
  188.3160  176.9260  137.8800 C   0  0  0  0  0  2  0  0  0  0  0  0
  190.5540  176.1810  140.9760 O   0  0  0  0  0  0  0  0  0  0  0  0
  190.1890  177.2000  140.4120 C   0  0  0  0  0  3  0  0  0  0  0  0
  188.7720  177.8350  146.3130 C   0  0  0  0  0  2  0  0  0  0  0  0
  189.6480  176.6310  146.6150 C   0  0  0  0  0  2  0  0  0  0  0  0
  191.0760  176.9630  146.3520 C   0  0  0  0  0  0  0  0  0  0  0  0
  191.8570  177.1450  147.3240 O   0  0  0  0  0  0  0  0  0  0  0  0
  191.5790  177.0500  144.9760 C   0  0  0  0  0  0  0  0  0  0  0  0
  191.6020  176.0250  144.2440 O   0  0  0  0  0  0  0  0  0  0  0  0
  192.0340  178.2620  144.4720 O   0  0  0  0  0  1  0  0  0  0  0  0
  1 12  1  6  0  0  0
  1  2  1  0  0  0  0
  2 11  1  0  0  0  0
  2  7  1  1  0  0  0
  3  4  2  0  0  0  0
  5  6  2  0  0  0  0
  5  9  1  0  0  0  0
  7 10  1  0  0  0  0
  8  1  1  0  0  0  0
  8  4  1  0  0  0  0
 10  9  1  0  0  0  0
 10 19  1  1  0  0  0
 11  4  1  6  0  0  0
 11  5  1  0  0  0  0
 12 18  1  6  0  0  0
 13 14  1  6  0  0  0
 13 12  1  0  0  0  0
 15 16  1  0  0  0  0
 16 13  1  0  0  0  0
 18 17  2  0  0  0  0
 19 20  1  0  0  0  0
 21 20  1  0  0  0  0
 21 22  2  0  0  0  0
 23 21  1  0  0  0  0
 24 23  2  0  0  0  0
 25 23  1  0  0  0  0
M  END
>  <MODEL>
8

>  <REMARK>
 VINA RESULT:      -7.4      1.810      5.129
  Name = 
  8 active torsions:
  status: ('A' for Active; 'I' for Inactive)
    1  A    between atoms: C_1  and  C_5
    2  A    between atoms: C_2  and  C_21
    3  A    between atoms: C_5  and  C_10
    4  A    between atoms: C_5  and  C_22
    5  A    between atoms: C_6  and  C_15
    6  A    between atoms: C_6  and  C_23
    7  A    between atoms: C_10  and  C_11
    8  A    between atoms: C_15  and  C_21
                            x       y       z     vdW  Elec       q    Type
                         _______ _______ _______ _____ _____    ______ ____

>  <TORSDO>
F 8

$$$$
=
 OpenBabel10262419553D

 25 26  0  0  1  0  0  0  0  0999 V2000
  186.3500  179.0030  142.2830 C   0  0  2  0  0  3  0  0  0  0  0  0
  186.3560  177.9820  143.4320 C   0  0  1  0  0  3  0  0  0  0  0  0
  183.6680  180.2460  144.1660 O   0  0  0  0  0  0  0  0  0  0  0  0
  184.6380  179.5800  143.7200 C   0  0  0  0  0  0  0  0  0  0  0  0
  185.2740  178.3140  145.7770 C   0  0  0  0  0  0  0  0  0  0  0  0
  184.3030  178.5140  146.4900 O   0  0  0  0  0  0  0  0  0  0  0  0
  187.6640  178.1510  144.2000 C   0  0  0  0  0  2  0  0  0  0  0  0
  185.3450  179.9530  142.5990 O   0  0  0  0  0  0  0  0  0  0  0  0
  186.6090  178.0990  146.4340 C   0  0  0  0  0  2  0  0  0  0  0  0
  187.5950  177.3970  145.5110 C   0  0  2  0  0  3  0  0  0  0  0  0
  185.0890  178.2830  144.2730 C   0  0  2  0  0  3  0  0  0  0  0  0
  186.0870  178.3260  140.9310 C   0  0  1  0  0  3  0  0  0  0  0  0
  184.8880  178.9200  140.1800 C   0  0  1  0  0  3  0  0  0  0  0  0
  185.2170  179.2150  138.8530 O   0  0  0  0  0  1  0  0  0  0  0  0
  182.6120  178.5740  140.9650 N   0  0  0  0  0  1  0  0  0  0  0  0
  183.7050  177.9680  140.2260 C   0  0  0  0  0  2  0  0  0  0  0  0
  188.4300  178.3840  140.6130 O   0  0  0  0  0  0  0  0  0  0  0  0
  187.3300  178.3000  140.0920 C   0  0  0  0  0  3  0  0  0  0  0  0
  188.9730  177.3680  146.1470 C   0  0  0  0  0  2  0  0  0  0  0  0
  190.0220  177.8500  145.1590 C   0  0  0  0  0  2  0  0  0  0  0  0
  191.1850  176.9190  145.1600 C   0  0  0  0  0  0  0  0  0  0  0  0
  191.9560  176.8950  146.1560 O   0  0  0  0  0  0  0  0  0  0  0  0
  191.4180  176.0170  144.0260 C   0  0  0  0  0  0  0  0  0  0  0  0
  192.1980  175.0350  144.1470 O   0  0  0  0  0  1  0  0  0  0  0  0
  190.7800  176.2390  142.8120 O   0  0  0  0  0  0  0  0  0  0  0  0
  1 12  1  6  0  0  0
  1  8  1  0  0  0  0
  1  2  1  0  0  0  0
  2  7  1  1  0  0  0
  2 11  1  0  0  0  0
  4  3  2  0  0  0  0
  5  9  1  0  0  0  0
  5  6  2  0  0  0  0
  7 10  1  0  0  0  0
  8  4  1  0  0  0  0
 10 19  1  1  0  0  0
 10  9  1  0  0  0  0
 11  4  1  6  0  0  0
 11  5  1  0  0  0  0
 12 18  1  6  0  0  0
 13 14  1  6  0  0  0
 13 16  1  0  0  0  0
 13 12  1  0  0  0  0
 16 15  1  0  0  0  0
 18 17  2  0  0  0  0
 20 21  1  0  0  0  0
 20 19  1  0  0  0  0
 21 22  2  0  0  0  0
 23 24  1  0  0  0  0
 23 21  1  0  0  0  0
 25 23  2  0  0  0  0
M  END
>  <MODEL>
9

>  <REMARK>
 VINA RESULT:      -7.3      2.481      5.911
  Name = 
  8 active torsions:
  status: ('A' for Active; 'I' for Inactive)
    1  A    between atoms: C_1  and  C_5
    2  A    between atoms: C_2  and  C_21
    3  A    between atoms: C_5  and  C_10
    4  A    between atoms: C_5  and  C_22
    5  A    between atoms: C_6  and  C_15
    6  A    between atoms: C_6  and  C_23
    7  A    between atoms: C_10  and  C_11
    8  A    between atoms: C_15  and  C_21
                            x       y       z     vdW  Elec       q    Type
                         _______ _______ _______ _____ _____    ______ ____

>  <TORSDO>
F 8

$$$$
