=
 OpenBabel10262423283D

 34 39  0  0  1  0  0  0  0  0999 V2000
  188.7930  178.0520  141.0940 C   0  0  0  0  0  0  0  0  0  0  0  0
  190.4810  176.0830  139.1160 C   0  0  0  0  0  2  0  0  0  0  0  0
  191.6560  177.6270  140.7200 C   0  0  0  0  0  2  0  0  0  0  0  0
  187.6270  177.5410  143.5660 N   0  0  0  0  0  0  0  0  0  0  0  0
  187.4380  178.3300  141.3220 C   0  0  0  0  0  3  0  0  0  0  0  0
  188.9490  177.2820  143.3970 C   0  0  0  0  0  0  0  0  0  0  0  0
  191.0620  176.5080  144.2920 C   0  0  0  0  0  3  0  0  0  0  0  0
  189.6970  176.7600  144.4550 C   0  0  0  0  0  3  0  0  0  0  0  0
  186.8580  178.0620  142.5690 C   0  0  0  0  0  0  0  0  0  0  0  0
  190.9470  177.2880  141.9980 C   0  0  0  0  0  0  0  0  0  0  0  0
  189.5690  177.5460  142.1560 C   0  0  0  0  0  0  0  0  0  0  0  0
  191.6850  176.7780  143.0700 C   0  0  0  0  0  3  0  0  0  0  0  0
  189.6280  175.8990  137.8550 C   0  0  0  0  0  2  0  0  0  0  0  0
  189.8230  177.0250  136.8340 C   0  0  2  0  0  3  0  0  0  0  0  0
  189.0880  178.3290  137.2100 C   0  0  0  0  0  2  0  0  0  0  0  0
  190.7190  177.5470  139.5160 C   0  0  2  0  0  3  0  0  0  0  0  0
  188.4280  178.3130  138.5930 C   0  0  0  0  0  2  0  0  0  0  0  0
  189.4340  178.3720  139.7570 C   0  0  1  0  0  3  0  0  0  0  0  0
  183.6000  178.9020  144.3460 C   0  0  0  0  0  3  0  0  0  0  0  0
  184.5130  178.3010  141.7370 C   0  0  0  0  0  3  0  0  0  0  0  0
  180.8840  178.8660  141.5880 C   0  0  0  0  0  0  0  0  0  0  0  0
  181.0760  179.1240  143.2500 S   0  0  0  0  0  0  0  0  0  0  0  0
  182.7300  178.8550  143.2610 C   0  0  0  0  0  0  0  0  0  0  0  0
  182.1350  178.5650  141.0250 C   0  0  0  0  0  0  0  0  0  0  0  0
  183.1620  178.5620  141.9780 C   0  0  0  0  0  0  0  0  0  0  0  0
  182.4140  178.2230  139.3210 Cl  0  0  0  0  0  0  0  0  0  0  0  0
  185.4260  178.3380  142.8100 C   0  0  0  0  0  0  0  0  0  0  0  0
  184.9570  178.6400  144.1100 C   0  0  0  0  0  3  0  0  0  0  0  0
  179.5900  178.9570  140.8910 C   0  0  0  0  0  0  0  0  0  0  0  0
  179.0450  180.0710  140.6800 O   0  0  0  0  0  1  0  0  0  0  0  0
  178.9570  177.7990  140.4590 O   0  0  0  0  0  0  0  0  0  0  0  0
  189.3620  176.5460  135.4690 C   0  0  0  0  0  2  0  0  0  0  0  0
  188.3160  175.4570  135.6160 C   0  0  0  0  0  2  0  0  0  0  0  0
  186.9650  175.9960  135.1960 C   0  0  0  0  0  1  0  0  0  0  0  0
  1  5  2  0  0  0  0
  1 11  1  0  0  0  0
  3 10  1  0  0  0  0
  5  9  1  0  0  0  0
  6  4  1  0  0  0  0
  6  8  1  0  0  0  0
  7  8  2  0  0  0  0
  9 27  1  0  0  0  0
  9  4  2  0  0  0  0
 10 11  1  0  0  0  0
 10 12  2  0  0  0  0
 11  6  2  0  0  0  0
 12  7  1  0  0  0  0
 13  2  1  0  0  0  0
 14 32  1  6  0  0  0
 14 15  1  0  0  0  0
 14 13  1  0  0  0  0
 15 17  1  0  0  0  0
 16  2  1  1  0  0  0
 16 18  1  0  0  0  0
 16  3  1  0  0  0  0
 18 17  1  6  0  0  0
 18  1  1  0  0  0  0
 20 25  2  0  0  0  0
 20 27  1  0  0  0  0
 21 22  1  0  0  0  0
 22 23  1  0  0  0  0
 23 19  2  0  0  0  0
 24 21  2  0  0  0  0
 24 25  1  0  0  0  0
 25 23  1  0  0  0  0
 26 24  1  0  0  0  0
 27 28  2  0  0  0  0
 28 19  1  0  0  0  0
 29 21  1  0  0  0  0
 30 29  1  0  0  0  0
 31 29  2  0  0  0  0
 32 33  1  0  0  0  0
 34 33  1  0  0  0  0
M  END
>  <MODEL>
1

>  <REMARK>
 VINA RESULT:      -9.3      0.000      0.000
  Name = 
  4 active torsions:
  status: ('A' for Active; 'I' for Inactive)
    1  A    between atoms: C_3  and  C_13
    2  A    between atoms: C_3  and  C_25
    3  A    between atoms: C_7  and  C_11
    4  A    between atoms: C_18  and  C_30
                            x       y       z     vdW  Elec       q    Type
                         _______ _______ _______ _____ _____    ______ ____

>  <TORSDO>
F 4

$$$$
=
 OpenBabel10262423283D

 34 39  0  0  1  0  0  0  0  0999 V2000
  184.9550  178.4880  140.8330 C   0  0  0  0  0  0  0  0  0  0  0  0
  182.8250  176.9060  138.9360 C   0  0  0  0  0  2  0  0  0  0  0  0
  184.0060  178.9730  138.1160 C   0  0  0  0  0  2  0  0  0  0  0  0
  187.6550  178.0030  141.2920 N   0  0  0  0  0  0  0  0  0  0  0  0
  185.4480  178.3370  142.1370 C   0  0  0  0  0  3  0  0  0  0  0  0
  187.2240  178.1680  140.0150 C   0  0  0  0  0  0  0  0  0  0  0  0
  187.7000  178.2730  137.6430 C   0  0  0  0  0  3  0  0  0  0  0  0
  188.1340  178.0860  138.9580 C   0  0  0  0  0  3  0  0  0  0  0  0
  186.8090  178.0860  142.3580 C   0  0  0  0  0  0  0  0  0  0  0  0
  185.4300  178.6170  138.4250 C   0  0  0  0  0  0  0  0  0  0  0  0
  185.8610  178.4310  139.7550 C   0  0  0  0  0  0  0  0  0  0  0  0
  186.3550  178.5450  137.3790 C   0  0  0  0  0  3  0  0  0  0  0  0
  181.7980  176.2660  139.8770 C   0  0  0  0  0  2  0  0  0  0  0  0
  180.6710  177.2260  140.2730 C   0  0  2  0  0  3  0  0  0  0  0  0
  181.0900  178.2570  141.3410 C   0  0  0  0  0  2  0  0  0  0  0  0
  183.0440  178.4100  139.1610 C   0  0  2  0  0  3  0  0  0  0  0  0
  182.5810  178.2350  141.6990 C   0  0  0  0  0  2  0  0  0  0  0  0
  183.4900  178.7950  140.5910 C   0  0  1  0  0  3  0  0  0  0  0  0
  186.9940  177.9830  146.1560 C   0  0  0  0  0  3  0  0  0  0  0  0
  188.6650  177.5020  143.9260 C   0  0  0  0  0  3  0  0  0  0  0  0
  190.6100  176.8740  146.9810 C   0  0  0  0  0  0  0  0  0  0  0  0
  189.1570  177.3070  147.7340 S   0  0  0  0  0  0  0  0  0  0  0  0
  188.3170  177.5800  146.3100 C   0  0  0  0  0  0  0  0  0  0  0  0
  190.4410  176.9420  145.5880 C   0  0  0  0  0  0  0  0  0  0  0  0
  189.1470  177.3400  145.2260 C   0  0  0  0  0  0  0  0  0  0  0  0
  191.6920  176.5770  144.4050 Cl  0  0  0  0  0  0  0  0  0  0  0  0
  187.3310  177.9100  143.7290 C   0  0  0  0  0  0  0  0  0  0  0  0
  186.5050  178.1470  144.8530 C   0  0  0  0  0  3  0  0  0  0  0  0
  191.8280  176.4950  147.7150 C   0  0  0  0  0  0  0  0  0  0  0  0
  192.4180  175.4090  147.4740 O   0  0  0  0  0  0  0  0  0  0  0  0
  192.3400  177.3430  148.6880 O   0  0  0  0  0  1  0  0  0  0  0  0
  179.4820  176.4210  140.7670 C   0  0  0  0  0  2  0  0  0  0  0  0
  179.6530  174.9550  140.4180 C   0  0  0  0  0  2  0  0  0  0  0  0
  179.3220  174.1070  141.6290 C   0  0  0  0  0  1  0  0  0  0  0  0
  1  5  1  0  0  0  0
  2 16  1  0  0  0  0
  2 13  1  0  0  0  0
  3 10  1  0  0  0  0
  4  9  1  0  0  0  0
  5  9  2  0  0  0  0
  6  4  2  0  0  0  0
  7  8  2  0  0  0  0
  8  6  1  0  0  0  0
  9 27  1  0  0  0  0
 10 11  1  0  0  0  0
 11  6  1  0  0  0  0
 11  1  2  0  0  0  0
 12  7  1  0  0  0  0
 12 10  2  0  0  0  0
 13 14  1  0  0  0  0
 14 32  1  1  0  0  0
 14 15  1  0  0  0  0
 15 17  1  0  0  0  0
 16  3  1  6  0  0  0
 16 18  1  0  0  0  0
 18  1  1  0  0  0  0
 18 17  1  1  0  0  0
 19 23  1  0  0  0  0
 20 25  1  0  0  0  0
 21 29  1  0  0  0  0
 21 22  1  0  0  0  0
 23 22  1  0  0  0  0
 24 21  2  0  0  0  0
 25 24  1  0  0  0  0
 25 23  2  0  0  0  0
 26 24  1  0  0  0  0
 27 20  2  0  0  0  0
 27 28  1  0  0  0  0
 28 19  2  0  0  0  0
 29 31  1  0  0  0  0
 30 29  2  0  0  0  0
 33 32  1  0  0  0  0
 33 34  1  0  0  0  0
M  END
>  <MODEL>
2

>  <REMARK>
 VINA RESULT:      -9.3      4.984      8.321
  Name = 
  4 active torsions:
  status: ('A' for Active; 'I' for Inactive)
    1  A    between atoms: C_3  and  C_13
    2  A    between atoms: C_3  and  C_25
    3  A    between atoms: C_7  and  C_11
    4  A    between atoms: C_18  and  C_30
                            x       y       z     vdW  Elec       q    Type
                         _______ _______ _______ _____ _____    ______ ____

>  <TORSDO>
F 4

$$$$
=
 OpenBabel10262423283D

 34 39  0  0  1  0  0  0  0  0999 V2000
  188.7220  177.4040  138.5920 C   0  0  0  0  0  0  0  0  0  0  0  0
  186.7180  175.9820  136.4470 C   0  0  0  0  0  2  0  0  0  0  0  0
  188.6610  177.3850  135.6740 C   0  0  0  0  0  2  0  0  0  0  0  0
  190.9280  176.3780  139.9390 N   0  0  0  0  0  0  0  0  0  0  0  0
  188.8120  177.4790  139.9890 C   0  0  0  0  0  3  0  0  0  0  0  0
  190.8940  176.3070  138.5840 C   0  0  0  0  0  0  0  0  0  0  0  0
  191.9330  175.6580  136.4940 C   0  0  0  0  0  3  0  0  0  0  0  0
  191.9550  175.7180  137.8910 C   0  0  0  0  0  3  0  0  0  0  0  0
  189.9250  176.9530  140.6590 C   0  0  0  0  0  0  0  0  0  0  0  0
  189.7770  176.7680  136.4650 C   0  0  0  0  0  0  0  0  0  0  0  0
  189.7920  176.8340  137.8740 C   0  0  0  0  0  0  0  0  0  0  0  0
  190.8520  176.1880  135.7850 C   0  0  0  0  0  3  0  0  0  0  0  0
  185.3450  175.8990  137.1250 C   0  0  0  0  0  2  0  0  0  0  0  0
  184.5270  177.1850  136.9760 C   0  0  2  0  0  3  0  0  0  0  0  0
  184.9860  178.3180  137.9190 C   0  0  0  0  0  2  0  0  0  0  0  0
  187.3480  177.3840  136.4560 C   0  0  2  0  0  3  0  0  0  0  0  0
  186.2580  178.0070  138.7160 C   0  0  0  0  0  2  0  0  0  0  0  0
  187.5370  178.0030  137.8600 C   0  0  1  0  0  3  0  0  0  0  0  0
  191.3450  176.8480  144.1880 C   0  0  0  0  0  3  0  0  0  0  0  0
  188.8690  177.3020  142.8980 C   0  0  0  0  0  3  0  0  0  0  0  0
  188.3550  177.6120  146.5240 C   0  0  0  0  0  0  0  0  0  0  0  0
  190.0110  177.2640  146.5690 S   0  0  0  0  0  0  0  0  0  0  0  0
  190.1890  177.1330  144.9080 C   0  0  0  0  0  0  0  0  0  0  0  0
  187.9270  177.6290  145.1870 C   0  0  0  0  0  0  0  0  0  0  0  0
  188.9690  177.3580  144.2900 C   0  0  0  0  0  0  0  0  0  0  0  0
  186.2780  177.9490  144.6630 Cl  0  0  0  0  0  0  0  0  0  0  0  0
  190.0170  177.0160  142.1330 C   0  0  0  0  0  0  0  0  0  0  0  0
  191.2500  176.7910  142.7900 C   0  0  0  0  0  3  0  0  0  0  0  0
  187.5390  177.8530  147.7250 C   0  0  0  0  0  0  0  0  0  0  0  0
  187.9090  177.4360  148.8540 O   0  0  0  0  0  1  0  0  0  0  0  0
  186.3420  178.5490  147.6180 O   0  0  0  0  0  0  0  0  0  0  0  0
  183.0610  176.8740  137.2160 C   0  0  0  0  0  2  0  0  0  0  0  0
  182.9180  175.6700  138.1290 C   0  0  0  0  0  2  0  0  0  0  0  0
  182.4100  176.1210  139.4820 C   0  0  0  0  0  1  0  0  0  0  0  0
  1  5  1  0  0  0  0
  2 16  1  0  0  0  0
  2 13  1  0  0  0  0
  3 10  1  0  0  0  0
  4  9  1  0  0  0  0
  5  9  2  0  0  0  0
  6  4  2  0  0  0  0
  7  8  2  0  0  0  0
  8  6  1  0  0  0  0
  9 27  1  0  0  0  0
 10 11  1  0  0  0  0
 11  6  1  0  0  0  0
 11  1  2  0  0  0  0
 12 10  2  0  0  0  0
 12  7  1  0  0  0  0
 14 13  1  0  0  0  0
 14 32  1  1  0  0  0
 14 15  1  0  0  0  0
 15 17  1  0  0  0  0
 16  3  1  1  0  0  0
 16 18  1  0  0  0  0
 18  1  1  0  0  0  0
 18 17  1  1  0  0  0
 19 23  1  0  0  0  0
 20 25  1  0  0  0  0
 21 22  1  0  0  0  0
 21 29  1  0  0  0  0
 23 22  1  0  0  0  0
 24 21  2  0  0  0  0
 25 23  2  0  0  0  0
 25 24  1  0  0  0  0
 26 24  1  0  0  0  0
 27 28  1  0  0  0  0
 27 20  2  0  0  0  0
 28 19  2  0  0  0  0
 29 30  1  0  0  0  0
 31 29  2  0  0  0  0
 32 33  1  0  0  0  0
 33 34  1  0  0  0  0
M  END
>  <MODEL>
3

>  <REMARK>
 VINA RESULT:      -9.0      4.032      6.559
  Name = 
  4 active torsions:
  status: ('A' for Active; 'I' for Inactive)
    1  A    between atoms: C_3  and  C_13
    2  A    between atoms: C_3  and  C_25
    3  A    between atoms: C_7  and  C_11
    4  A    between atoms: C_18  and  C_30
                            x       y       z     vdW  Elec       q    Type
                         _______ _______ _______ _____ _____    ______ ____

>  <TORSDO>
F 4

$$$$
=
 OpenBabel10262423283D

 34 39  0  0  1  0  0  0  0  0999 V2000
  181.8390  178.8820  140.7340 C   0  0  0  0  0  0  0  0  0  0  0  0
  179.8400  181.2040  139.6170 C   0  0  0  0  0  2  0  0  0  0  0  0
  178.9310  179.0580  140.5690 C   0  0  0  0  0  2  0  0  0  0  0  0
  183.0730  178.6160  143.2120 N   0  0  0  0  0  0  0  0  0  0  0  0
  183.2270  178.7100  140.8320 C   0  0  0  0  0  3  0  0  0  0  0  0
  181.7230  178.7550  143.1610 C   0  0  0  0  0  0  0  0  0  0  0  0
  179.5890  178.8930  144.2970 C   0  0  0  0  0  3  0  0  0  0  0  0
  180.9800  178.7690  144.3440 C   0  0  0  0  0  3  0  0  0  0  0  0
  183.8410  178.5840  142.0860 C   0  0  0  0  0  0  0  0  0  0  0  0
  179.6660  179.0030  141.8750 C   0  0  0  0  0  0  0  0  0  0  0  0
  181.0700  178.8760  141.9150 C   0  0  0  0  0  0  0  0  0  0  0  0
  178.9350  179.0030  143.0660 C   0  0  0  0  0  3  0  0  0  0  0  0
  180.5980  181.9280  138.4980 C   0  0  0  0  0  2  0  0  0  0  0  0
  180.4740  181.2260  137.1410 C   0  0  2  0  0  3  0  0  0  0  0  0
  181.3690  179.9740  137.0140 C   0  0  0  0  0  2  0  0  0  0  0  0
  179.7870  179.6760  139.4640 C   0  0  2  0  0  3  0  0  0  0  0  0
  182.0960  179.5770  138.3040 C   0  0  0  0  0  2  0  0  0  0  0  0
  181.1670  178.9830  139.3780 C   0  0  1  0  0  3  0  0  0  0  0  0
  187.5330  178.4750  141.1740 C   0  0  0  0  0  3  0  0  0  0  0  0
  185.8790  178.0450  143.4280 C   0  0  0  0  0  3  0  0  0  0  0  0
  189.3670  177.4580  144.4280 C   0  0  0  0  0  0  0  0  0  0  0  0
  189.6680  177.8510  142.8090 S   0  0  0  0  0  0  0  0  0  0  0  0
  188.0620  178.1050  142.4070 C   0  0  0  0  0  0  0  0  0  0  0  0
  187.9840  177.5260  144.6650 C   0  0  0  0  0  0  0  0  0  0  0  0
  187.2640  177.8910  143.5200 C   0  0  0  0  0  0  0  0  0  0  0  0
  187.2130  177.1960  146.2120 Cl  0  0  0  0  0  0  0  0  0  0  0  0
  185.3050  178.4190  142.1970 C   0  0  0  0  0  0  0  0  0  0  0  0
  186.1430  178.6310  141.0770 C   0  0  0  0  0  3  0  0  0  0  0  0
  190.4220  177.1090  145.3930 C   0  0  0  0  0  0  0  0  0  0  0  0
  190.3430  177.4680  146.5970 O   0  0  0  0  0  1  0  0  0  0  0  0
  191.5230  176.3720  144.9760 O   0  0  0  0  0  0  0  0  0  0  0  0
  180.8050  182.2130  136.0370 C   0  0  0  0  0  2  0  0  0  0  0  0
  180.8620  183.6250  136.5880 C   0  0  0  0  0  2  0  0  0  0  0  0
  180.8050  184.6150  135.4440 C   0  0  0  0  0  1  0  0  0  0  0  0
  1  5  2  0  0  0  0
  1 11  1  0  0  0  0
  3 10  1  0  0  0  0
  5  9  1  0  0  0  0
  6  4  1  0  0  0  0
  6  8  1  0  0  0  0
  7  8  2  0  0  0  0
  9 27  1  0  0  0  0
  9  4  2  0  0  0  0
 10 11  1  0  0  0  0
 10 12  2  0  0  0  0
 11  6  2  0  0  0  0
 12  7  1  0  0  0  0
 13  2  1  0  0  0  0
 14 32  1  6  0  0  0
 14 13  1  0  0  0  0
 15 14  1  0  0  0  0
 15 17  1  0  0  0  0
 16  2  1  1  0  0  0
 16  3  1  0  0  0  0
 18 17  1  6  0  0  0
 18 16  1  0  0  0  0
 18  1  1  0  0  0  0
 19 23  1  0  0  0  0
 20 25  1  0  0  0  0
 21 24  2  0  0  0  0
 21 29  1  0  0  0  0
 22 21  1  0  0  0  0
 23 22  1  0  0  0  0
 23 25  2  0  0  0  0
 24 26  1  0  0  0  0
 25 24  1  0  0  0  0
 27 20  2  0  0  0  0
 28 19  2  0  0  0  0
 28 27  1  0  0  0  0
 29 30  1  0  0  0  0
 31 29  2  0  0  0  0
 32 33  1  0  0  0  0
 34 33  1  0  0  0  0
M  END
>  <MODEL>
4

>  <REMARK>
 VINA RESULT:      -8.9      4.825      9.022
  Name = 
  4 active torsions:
  status: ('A' for Active; 'I' for Inactive)
    1  A    between atoms: C_3  and  C_13
    2  A    between atoms: C_3  and  C_25
    3  A    between atoms: C_7  and  C_11
    4  A    between atoms: C_18  and  C_30
                            x       y       z     vdW  Elec       q    Type
                         _______ _______ _______ _____ _____    ______ ____

>  <TORSDO>
F 4

$$$$
=
 OpenBabel10262423283D

 34 39  0  0  1  0  0  0  0  0999 V2000
  187.8850  178.3330  143.3750 C   0  0  0  0  0  0  0  0  0  0  0  0
  190.3480  176.3460  142.5880 C   0  0  0  0  0  2  0  0  0  0  0  0
  190.6370  178.1430  144.3270 C   0  0  0  0  0  2  0  0  0  0  0  0
  185.7760  177.9610  145.1490 N   0  0  0  0  0  0  0  0  0  0  0  0
  186.5560  178.5040  142.9600 C   0  0  0  0  0  3  0  0  0  0  0  0
  187.0480  177.8100  145.5990 C   0  0  0  0  0  0  0  0  0  0  0  0
  188.5850  177.3290  147.4070 C   0  0  0  0  0  3  0  0  0  0  0  0
  187.2770  177.4670  146.9340 C   0  0  0  0  0  3  0  0  0  0  0  0
  185.5000  178.3070  143.8600 C   0  0  0  0  0  0  0  0  0  0  0  0
  189.4540  177.8660  145.2070 C   0  0  0  0  0  0  0  0  0  0  0  0
  188.1380  178.0090  144.7230 C   0  0  0  0  0  0  0  0  0  0  0  0
  189.6690  177.5350  146.5480 C   0  0  0  0  0  3  0  0  0  0  0  0
  190.1420  175.9600  141.1180 C   0  0  0  0  0  2  0  0  0  0  0  0
  190.7180  176.9940  140.1440 C   0  0  2  0  0  3  0  0  0  0  0  0
  189.8390  178.2540  139.9950 C   0  0  0  0  0  2  0  0  0  0  0  0
  190.3260  177.8580  142.8580 C   0  0  2  0  0  3  0  0  0  0  0  0
  188.6410  178.3120  140.9500 C   0  0  0  0  0  2  0  0  0  0  0  0
  189.0320  178.5790  142.4150 C   0  0  1  0  0  3  0  0  0  0  0  0
  181.7270  178.7820  143.9660 C   0  0  0  0  0  3  0  0  0  0  0  0
  183.7830  178.4680  142.0510 C   0  0  0  0  0  3  0  0  0  0  0  0
  180.5880  178.8150  140.2670 C   0  0  0  0  0  0  0  0  0  0  0  0
  179.9730  178.9390  141.8400 S   0  0  0  0  0  0  0  0  0  0  0  0
  181.4570  178.7750  142.6020 C   0  0  0  0  0  0  0  0  0  0  0  0
  181.9800  178.6430  140.3330 C   0  0  0  0  0  0  0  0  0  0  0  0
  182.4540  178.6220  141.6520 C   0  0  0  0  0  0  0  0  0  0  0  0
  183.0380  178.4690  138.9370 Cl  0  0  0  0  0  0  0  0  0  0  0  0
  184.0970  178.4700  143.4240 C   0  0  0  0  0  0  0  0  0  0  0  0
  183.0600  178.6280  144.3730 C   0  0  0  0  0  3  0  0  0  0  0  0
  179.7530  178.8840  139.0560 C   0  0  0  0  0  0  0  0  0  0  0  0
  179.2180  177.8500  138.5800 O   0  0  0  0  0  1  0  0  0  0  0  0
  179.5510  180.1060  138.4270 O   0  0  0  0  0  0  0  0  0  0  0  0
  190.9210  176.3410  138.7880 C   0  0  0  0  0  2  0  0  0  0  0  0
  189.9660  176.9310  137.7670 C   0  0  0  0  0  2  0  0  0  0  0  0
  189.0080  175.8580  137.2950 C   0  0  0  0  0  1  0  0  0  0  0  0
  1 11  1  0  0  0  0
  3 10  1  0  0  0  0
  4  6  1  0  0  0  0
  5  1  2  0  0  0  0
  5  9  1  0  0  0  0
  6  8  1  0  0  0  0
  8  7  2  0  0  0  0
  9  4  2  0  0  0  0
 10 12  2  0  0  0  0
 11 10  1  0  0  0  0
 11  6  2  0  0  0  0
 12  7  1  0  0  0  0
 13  2  1  0  0  0  0
 14 32  1  6  0  0  0
 14 13  1  0  0  0  0
 15 14  1  0  0  0  0
 15 17  1  0  0  0  0
 16  2  1  1  0  0  0
 16  3  1  0  0  0  0
 18 17  1  6  0  0  0
 18 16  1  0  0  0  0
 18  1  1  0  0  0  0
 19 28  1  0  0  0  0
 20 27  1  0  0  0  0
 21 24  2  0  0  0  0
 21 22  1  0  0  0  0
 22 23  1  0  0  0  0
 23 19  2  0  0  0  0
 24 25  1  0  0  0  0
 25 20  2  0  0  0  0
 25 23  1  0  0  0  0
 26 24  1  0  0  0  0
 27  9  1  0  0  0  0
 27 28  2  0  0  0  0
 29 21  1  0  0  0  0
 30 29  1  0  0  0  0
 31 29  2  0  0  0  0
 33 32  1  0  0  0  0
 34 33  1  0  0  0  0
M  END
>  <MODEL>
5

>  <REMARK>
 VINA RESULT:      -8.8      1.584      2.714
  Name = 
  4 active torsions:
  status: ('A' for Active; 'I' for Inactive)
    1  A    between atoms: C_3  and  C_13
    2  A    between atoms: C_3  and  C_25
    3  A    between atoms: C_7  and  C_11
    4  A    between atoms: C_18  and  C_30
                            x       y       z     vdW  Elec       q    Type
                         _______ _______ _______ _____ _____    ______ ____

>  <TORSDO>
F 4

$$$$
=
 OpenBabel10262423283D

 34 39  0  0  1  0  0  0  0  0999 V2000
  188.4150  177.1980  142.6040 C   0  0  0  0  0  0  0  0  0  0  0  0
  190.7290  178.1740  144.6840 C   0  0  0  0  0  2  0  0  0  0  0  0
  191.1510  176.2940  143.0650 C   0  0  0  0  0  2  0  0  0  0  0  0
  187.6910  178.2150  140.1190 N   0  0  0  0  0  0  0  0  0  0  0  0
  187.0880  177.5590  142.3320 C   0  0  0  0  0  3  0  0  0  0  0  0
  188.9830  177.8540  140.3310 C   0  0  0  0  0  0  0  0  0  0  0  0
  191.2510  177.6170  139.5150 C   0  0  0  0  0  3  0  0  0  0  0  0
  189.9240  178.0030  139.3090 C   0  0  0  0  0  3  0  0  0  0  0  0
  186.7340  178.0770  141.0790 C   0  0  0  0  0  0  0  0  0  0  0  0
  190.7150  176.9340  141.7810 C   0  0  0  0  0  0  0  0  0  0  0  0
  189.3740  177.3200  141.5790 C   0  0  0  0  0  0  0  0  0  0  0  0
  191.6420  177.0780  140.7440 C   0  0  0  0  0  3  0  0  0  0  0  0
  190.0020  178.6990  145.9280 C   0  0  0  0  0  2  0  0  0  0  0  0
  189.6360  177.5890  146.9190 C   0  0  2  0  0  3  0  0  0  0  0  0
  188.4110  176.7570  146.4840 C   0  0  0  0  0  2  0  0  0  0  0  0
  190.3040  176.7640  144.2460 C   0  0  2  0  0  3  0  0  0  0  0  0
  187.8800  177.0880  145.0850 C   0  0  0  0  0  2  0  0  0  0  0  0
  188.7960  176.6040  143.9460 C   0  0  1  0  0  3  0  0  0  0  0  0
  183.6190  179.1900  139.2000 C   0  0  0  0  0  3  0  0  0  0  0  0
  184.3930  178.5180  141.8360 C   0  0  0  0  0  3  0  0  0  0  0  0
  180.8240  179.3950  141.8690 C   0  0  0  0  0  0  0  0  0  0  0  0
  181.0900  179.6310  140.2140 S   0  0  0  0  0  0  0  0  0  0  0  0
  182.7140  179.2220  140.2560 C   0  0  0  0  0  0  0  0  0  0  0  0
  182.0260  178.9880  142.4720 C   0  0  0  0  0  0  0  0  0  0  0  0
  183.0790  178.8950  141.5520 C   0  0  0  0  0  0  0  0  0  0  0  0
  182.2200  178.6290  144.1840 Cl  0  0  0  0  0  0  0  0  0  0  0  0
  185.3400  178.4740  140.7930 C   0  0  0  0  0  0  0  0  0  0  0  0
  184.9400  178.8120  139.4780 C   0  0  0  0  0  3  0  0  0  0  0  0
  179.5210  179.5980  142.5240 C   0  0  0  0  0  0  0  0  0  0  0  0
  178.9310  178.6470  143.0990 O   0  0  0  0  0  1  0  0  0  0  0  0
  178.9310  180.8550  142.5110 O   0  0  0  0  0  0  0  0  0  0  0  0
  189.3870  178.2030  148.2850 C   0  0  0  0  0  2  0  0  0  0  0  0
  187.9530  177.9640  148.7200 C   0  0  0  0  0  2  0  0  0  0  0  0
  187.0560  179.0110  148.0940 C   0  0  0  0  0  1  0  0  0  0  0  0
  1 18  1  0  0  0  0
  2 13  1  0  0  0  0
  4  6  2  0  0  0  0
  4  9  1  0  0  0  0
  5  1  1  0  0  0  0
  6 11  1  0  0  0  0
  7 12  1  0  0  0  0
  8  7  2  0  0  0  0
  8  6  1  0  0  0  0
  9  5  2  0  0  0  0
 10  3  1  0  0  0  0
 11 10  1  0  0  0  0
 11  1  2  0  0  0  0
 12 10  2  0  0  0  0
 13 14  1  0  0  0  0
 14 32  1  1  0  0  0
 15 14  1  0  0  0  0
 16  3  1  6  0  0  0
 16  2  1  0  0  0  0
 17 15  1  0  0  0  0
 18 16  1  0  0  0  0
 18 17  1  1  0  0  0
 19 28  2  0  0  0  0
 19 23  1  0  0  0  0
 21 24  2  0  0  0  0
 21 29  1  0  0  0  0
 22 23  1  0  0  0  0
 22 21  1  0  0  0  0
 23 25  2  0  0  0  0
 24 26  1  0  0  0  0
 25 20  1  0  0  0  0
 25 24  1  0  0  0  0
 27  9  1  0  0  0  0
 27 20  2  0  0  0  0
 28 27  1  0  0  0  0
 29 30  1  0  0  0  0
 31 29  2  0  0  0  0
 32 33  1  0  0  0  0
 34 33  1  0  0  0  0
M  END
>  <MODEL>
6

>  <REMARK>
 VINA RESULT:      -8.3      2.282      5.754
  Name = 
  4 active torsions:
  status: ('A' for Active; 'I' for Inactive)
    1  A    between atoms: C_3  and  C_13
    2  A    between atoms: C_3  and  C_25
    3  A    between atoms: C_7  and  C_11
    4  A    between atoms: C_18  and  C_30
                            x       y       z     vdW  Elec       q    Type
                         _______ _______ _______ _____ _____    ______ ____

>  <TORSDO>
F 4

$$$$
=
 OpenBabel10262423283D

 34 39  0  0  1  0  0  0  0  0999 V2000
  187.8940  177.2610  144.3130 C   0  0  0  0  0  0  0  0  0  0  0  0
  185.7930  179.3560  145.6690 C   0  0  0  0  0  2  0  0  0  0  0  0
  186.5610  177.3040  146.9100 C   0  0  0  0  0  2  0  0  0  0  0  0
  190.6700  177.3380  144.1790 N   0  0  0  0  0  0  0  0  0  0  0  0
  188.5580  177.1550  143.0830 C   0  0  0  0  0  3  0  0  0  0  0  0
  190.0690  177.4180  145.3930 C   0  0  0  0  0  0  0  0  0  0  0  0
  190.2320  177.6090  147.8020 C   0  0  0  0  0  3  0  0  0  0  0  0
  190.8450  177.5440  146.5480 C   0  0  0  0  0  3  0  0  0  0  0  0
  189.9570  177.2020  143.0250 C   0  0  0  0  0  0  0  0  0  0  0  0
  188.0480  177.4340  146.7600 C   0  0  0  0  0  0  0  0  0  0  0  0
  188.6600  177.3660  145.4910 C   0  0  0  0  0  0  0  0  0  0  0  0
  188.8390  177.5460  147.9070 C   0  0  0  0  0  3  0  0  0  0  0  0
  184.9890  179.9710  144.5170 C   0  0  0  0  0  2  0  0  0  0  0  0
  183.7950  179.1080  144.0950 C   0  0  2  0  0  3  0  0  0  0  0  0
  184.1910  177.8850  143.2410 C   0  0  0  0  0  2  0  0  0  0  0  0
  185.8230  177.8200  145.6750 C   0  0  2  0  0  3  0  0  0  0  0  0
  185.7020  177.6720  143.0960 C   0  0  0  0  0  2  0  0  0  0  0  0
  186.3810  177.1750  144.3850 C   0  0  1  0  0  3  0  0  0  0  0  0
  192.7270  177.2690  140.4170 C   0  0  0  0  0  3  0  0  0  0  0  0
  189.9480  176.7640  140.5640 C   0  0  0  0  0  3  0  0  0  0  0  0
  191.0140  176.3480  137.0710 C   0  0  0  0  0  0  0  0  0  0  0  0
  192.5280  176.7510  137.7130 S   0  0  0  0  0  0  0  0  0  0  0  0
  191.9880  176.9280  139.2900 C   0  0  0  0  0  0  0  0  0  0  0  0
  190.0640  176.3490  138.1050 C   0  0  0  0  0  0  0  0  0  0  0  0
  190.6260  176.6770  139.3460 C   0  0  0  0  0  0  0  0  0  0  0  0
  188.3540  175.9860  137.8990 Cl  0  0  0  0  0  0  0  0  0  0  0  0
  190.6630  177.1070  141.7300 C   0  0  0  0  0  0  0  0  0  0  0  0
  192.0520  177.3570  141.6430 C   0  0  0  0  0  3  0  0  0  0  0  0
  190.7840  176.0510  135.6480 C   0  0  0  0  0  0  0  0  0  0  0  0
  189.9730  176.7310  134.9680 O   0  0  0  0  0  0  0  0  0  0  0  0
  191.4690  175.0060  135.0410 O   0  0  0  0  0  1  0  0  0  0  0  0
  182.8010  179.9690  143.3370 C   0  0  0  0  0  2  0  0  0  0  0  0
  181.6590  179.1210  142.8090 C   0  0  0  0  0  2  0  0  0  0  0  0
  180.7960  178.6620  143.9640 C   0  0  0  0  0  1  0  0  0  0  0  0
  1 18  1  0  0  0  0
  1 11  1  0  0  0  0
  4  6  1  0  0  0  0
  5  1  2  0  0  0  0
  6 11  2  0  0  0  0
  6  8  1  0  0  0  0
  7 12  1  0  0  0  0
  8  7  2  0  0  0  0
  9  5  1  0  0  0  0
  9  4  2  0  0  0  0
 10  3  1  0  0  0  0
 10 12  2  0  0  0  0
 11 10  1  0  0  0  0
 13  2  1  0  0  0  0
 14 32  1  6  0  0  0
 14 13  1  0  0  0  0
 15 14  1  0  0  0  0
 16  2  1  6  0  0  0
 16  3  1  0  0  0  0
 17 15  1  0  0  0  0
 18 17  1  6  0  0  0
 18 16  1  0  0  0  0
 19 28  1  0  0  0  0
 20 27  1  0  0  0  0
 21 22  1  0  0  0  0
 21 24  2  0  0  0  0
 22 23  1  0  0  0  0
 23 25  1  0  0  0  0
 23 19  2  0  0  0  0
 24 25  1  0  0  0  0
 25 20  2  0  0  0  0
 26 24  1  0  0  0  0
 27  9  1  0  0  0  0
 28 27  2  0  0  0  0
 29 21  1  0  0  0  0
 30 29  2  0  0  0  0
 31 29  1  0  0  0  0
 33 32  1  0  0  0  0
 33 34  1  0  0  0  0
M  END
>  <MODEL>
7

>  <REMARK>
 VINA RESULT:      -8.3      4.408      8.249
  Name = 
  4 active torsions:
  status: ('A' for Active; 'I' for Inactive)
    1  A    between atoms: C_3  and  C_13
    2  A    between atoms: C_3  and  C_25
    3  A    between atoms: C_7  and  C_11
    4  A    between atoms: C_18  and  C_30
                            x       y       z     vdW  Elec       q    Type
                         _______ _______ _______ _____ _____    ______ ____

>  <TORSDO>
F 4

$$$$
=
 OpenBabel10262423283D

 34 39  0  0  1  0  0  0  0  0999 V2000
  187.8580  177.8800  138.4000 C   0  0  0  0  0  0  0  0  0  0  0  0
  185.5070  176.4260  136.6700 C   0  0  0  0  0  2  0  0  0  0  0  0
  187.1670  177.9630  135.5660 C   0  0  0  0  0  2  0  0  0  0  0  0
  190.3500  176.9330  139.1920 N   0  0  0  0  0  0  0  0  0  0  0  0
  188.2450  177.9100  139.7480 C   0  0  0  0  0  3  0  0  0  0  0  0
  190.0260  176.9090  137.8730 C   0  0  0  0  0  0  0  0  0  0  0  0
  190.6170  176.3960  135.5820 C   0  0  0  0  0  3  0  0  0  0  0  0
  190.9380  176.4060  136.9420 C   0  0  0  0  0  3  0  0  0  0  0  0
  189.5000  177.4240  140.1370 C   0  0  0  0  0  0  0  0  0  0  0  0
  188.4550  177.3820  136.0690 C   0  0  0  0  0  0  0  0  0  0  0  0
  188.7730  177.3980  137.4430 C   0  0  0  0  0  0  0  0  0  0  0  0
  189.3830  176.8890  135.1470 C   0  0  0  0  0  3  0  0  0  0  0  0
  184.3190  176.2400  137.6220 C   0  0  0  0  0  2  0  0  0  0  0  0
  183.4270  177.4830  137.7140 C   0  0  2  0  0  3  0  0  0  0  0  0
  184.0260  178.6050  138.5890 C   0  0  0  0  0  2  0  0  0  0  0  0
  186.0560  177.8590  136.6100 C   0  0  2  0  0  3  0  0  0  0  0  0
  185.4540  178.3380  139.0790 C   0  0  0  0  0  2  0  0  0  0  0  0
  186.5160  178.4370  137.9690 C   0  0  1  0  0  3  0  0  0  0  0  0
  191.6690  177.4810  143.2630 C   0  0  0  0  0  3  0  0  0  0  0  0
  188.9270  177.4230  142.5700 C   0  0  0  0  0  3  0  0  0  0  0  0
  189.1900  177.4440  146.2360 C   0  0  0  0  0  0  0  0  0  0  0  0
  190.8490  177.4760  145.9000 S   0  0  0  0  0  0  0  0  0  0  0  0
  190.6720  177.4650  144.2330 C   0  0  0  0  0  0  0  0  0  0  0  0
  188.4780  177.4250  145.0260 C   0  0  0  0  0  0  0  0  0  0  0  0
  189.3250  177.4370  143.9090 C   0  0  0  0  0  0  0  0  0  0  0  0
  186.7240  177.3890  144.8920 Cl  0  0  0  0  0  0  0  0  0  0  0  0
  189.9080  177.4390  141.5580 C   0  0  0  0  0  0  0  0  0  0  0  0
  191.2760  177.4670  141.9180 C   0  0  0  0  0  3  0  0  0  0  0  0
  188.6340  177.4400  147.5990 C   0  0  0  0  0  0  0  0  0  0  0  0
  188.2320  176.3720  148.1310 O   0  0  0  0  0  0  0  0  0  0  0  0
  188.5490  178.6280  148.3140 O   0  0  0  0  0  1  0  0  0  0  0  0
  182.0650  177.0800  138.2490 C   0  0  0  0  0  2  0  0  0  0  0  0
  180.9800  177.4240  137.2460 C   0  0  0  0  0  2  0  0  0  0  0  0
  181.4030  176.9620  135.8670 C   0  0  0  0  0  1  0  0  0  0  0  0
  1  5  1  0  0  0  0
  2 13  1  0  0  0  0
  3 10  1  0  0  0  0
  4  9  1  0  0  0  0
  5  9  2  0  0  0  0
  6  4  2  0  0  0  0
  7  8  2  0  0  0  0
  8  6  1  0  0  0  0
  9 27  1  0  0  0  0
 10 11  1  0  0  0  0
 11  6  1  0  0  0  0
 11  1  2  0  0  0  0
 12  7  1  0  0  0  0
 12 10  2  0  0  0  0
 13 14  1  0  0  0  0
 14 32  1  1  0  0  0
 14 15  1  0  0  0  0
 15 17  1  0  0  0  0
 16  3  1  6  0  0  0
 16  2  1  0  0  0  0
 16 18  1  0  0  0  0
 18  1  1  0  0  0  0
 18 17  1  1  0  0  0
 19 23  1  0  0  0  0
 20 25  1  0  0  0  0
 21 29  1  0  0  0  0
 22 21  1  0  0  0  0
 23 22  1  0  0  0  0
 24 21  2  0  0  0  0
 25 23  2  0  0  0  0
 25 24  1  0  0  0  0
 26 24  1  0  0  0  0
 27 28  1  0  0  0  0
 27 20  2  0  0  0  0
 28 19  2  0  0  0  0
 29 30  2  0  0  0  0
 29 31  1  0  0  0  0
 33 32  1  0  0  0  0
 34 33  1  0  0  0  0
M  END
>  <MODEL>
8

>  <REMARK>
 VINA RESULT:      -8.2      4.379      7.154
  Name = 
  4 active torsions:
  status: ('A' for Active; 'I' for Inactive)
    1  A    between atoms: C_3  and  C_13
    2  A    between atoms: C_3  and  C_25
    3  A    between atoms: C_7  and  C_11
    4  A    between atoms: C_18  and  C_30
                            x       y       z     vdW  Elec       q    Type
                         _______ _______ _______ _____ _____    ______ ____

>  <TORSDO>
F 4

$$$$
=
 OpenBabel10262423283D

 34 39  0  0  1  0  0  0  0  0999 V2000
  187.9530  178.2520  140.2190 C   0  0  0  0  0  0  0  0  0  0  0  0
  186.7370  177.2570  143.0780 C   0  0  0  0  0  2  0  0  0  0  0  0
  185.8500  179.3200  141.9390 C   0  0  0  0  0  2  0  0  0  0  0  0
  187.3470  177.4380  137.6300 N   0  0  0  0  0  0  0  0  0  0  0  0
  188.9600  177.8170  139.3470 C   0  0  0  0  0  3  0  0  0  0  0  0
  186.3440  177.8770  138.4330 C   0  0  0  0  0  0  0  0  0  0  0  0
  183.9980  178.3750  138.7710 C   0  0  0  0  0  3  0  0  0  0  0  0
  185.0310  177.9070  137.9550 C   0  0  0  0  0  3  0  0  0  0  0  0
  188.6440  177.4020  138.0470 C   0  0  0  0  0  0  0  0  0  0  0  0
  185.5780  178.7800  140.5660 C   0  0  0  0  0  0  0  0  0  0  0  0
  186.6270  178.3110  139.7480 C   0  0  0  0  0  0  0  0  0  0  0  0
  184.2720  178.8160  140.0680 C   0  0  0  0  0  3  0  0  0  0  0  0
  187.8820  176.5520  143.8150 C   0  0  0  0  0  2  0  0  0  0  0  0
  188.7850  177.5240  144.5830 C   0  0  2  0  0  3  0  0  0  0  0  0
  189.7680  178.2950  143.6770 C   0  0  0  0  0  2  0  0  0  0  0  0
  187.0790  178.6660  142.5690 C   0  0  2  0  0  3  0  0  0  0  0  0
  189.5640  178.0670  142.1750 C   0  0  0  0  0  2  0  0  0  0  0  0
  188.2950  178.7350  141.6160 C   0  0  1  0  0  3  0  0  0  0  0  0
  190.4280  176.2960  134.8740 C   0  0  0  0  0  3  0  0  0  0  0  0
  190.9890  176.6470  137.6230 C   0  0  0  0  0  3  0  0  0  0  0  0
  194.0460  175.4570  135.9650 C   0  0  0  0  0  0  0  0  0  0  0  0
  193.0530  175.4880  134.5940 S   0  0  0  0  0  0  0  0  0  0  0  0
  191.6880  176.0310  135.4000 C   0  0  0  0  0  0  0  0  0  0  0  0
  193.3010  175.8800  137.0790 C   0  0  0  0  0  0  0  0  0  0  0  0
  191.9780  176.1980  136.7450 C   0  0  0  0  0  0  0  0  0  0  0  0
  193.9280  176.0050  138.7190 Cl  0  0  0  0  0  0  0  0  0  0  0  0
  189.7000  176.9270  137.1280 C   0  0  0  0  0  0  0  0  0  0  0  0
  189.4320  176.7470  135.7500 C   0  0  0  0  0  3  0  0  0  0  0  0
  195.4590  175.0460  135.9410 C   0  0  0  0  0  0  0  0  0  0  0  0
  195.7800  173.8390  135.7880 O   0  0  0  0  0  0  0  0  0  0  0  0
  196.4580  176.0000  136.0890 O   0  0  0  0  0  1  0  0  0  0  0  0
  189.5530  176.7570  145.6450 C   0  0  0  0  0  2  0  0  0  0  0  0
  189.4320  177.4500  146.9890 C   0  0  0  0  0  2  0  0  0  0  0  0
  187.9940  177.8650  147.2150 C   0  0  0  0  0  1  0  0  0  0  0  0
  1 18  1  0  0  0  0
  2 13  1  0  0  0  0
  4  9  2  0  0  0  0
  4  6  1  0  0  0  0
  5  1  2  0  0  0  0
  6 11  1  0  0  0  0
  7 12  2  0  0  0  0
  8  6  2  0  0  0  0
  8  7  1  0  0  0  0
  9  5  1  0  0  0  0
 10  3  1  0  0  0  0
 11  1  1  0  0  0  0
 11 10  2  0  0  0  0
 12 10  1  0  0  0  0
 13 14  1  0  0  0  0
 14 32  1  1  0  0  0
 15 14  1  0  0  0  0
 16  3  1  6  0  0  0
 16  2  1  0  0  0  0
 17 15  1  0  0  0  0
 18 17  1  1  0  0  0
 18 16  1  0  0  0  0
 19 23  2  0  0  0  0
 19 28  1  0  0  0  0
 21 24  2  0  0  0  0
 22 23  1  0  0  0  0
 22 21  1  0  0  0  0
 23 25  1  0  0  0  0
 24 26  1  0  0  0  0
 25 24  1  0  0  0  0
 25 20  2  0  0  0  0
 27 20  1  0  0  0  0
 27  9  1  0  0  0  0
 28 27  2  0  0  0  0
 29 21  1  0  0  0  0
 29 31  1  0  0  0  0
 30 29  2  0  0  0  0
 32 33  1  0  0  0  0
 33 34  1  0  0  0  0
M  END
>  <MODEL>
9

>  <REMARK>
 VINA RESULT:      -8.2      5.954      9.873
  Name = 
  4 active torsions:
  status: ('A' for Active; 'I' for Inactive)
    1  A    between atoms: C_3  and  C_13
    2  A    between atoms: C_3  and  C_25
    3  A    between atoms: C_7  and  C_11
    4  A    between atoms: C_18  and  C_30
                            x       y       z     vdW  Elec       q    Type
                         _______ _______ _______ _____ _____    ______ ____

>  <TORSDO>
F 4

$$$$
