=
 OpenBabel10262420033D

 27 31  0  0  1  0  0  0  0  0999 V2000
  187.2640  176.2090  143.6440 C   0  0  0  0  0  2  0  0  0  0  0  0
  186.7360  178.2110  142.3530 C   0  0  2  0  0  3  0  0  0  0  0  0
  185.0950  178.1350  144.1370 N   0  0  0  0  0  2  0  0  0  0  0  0
  183.5380  179.3900  140.0840 N   0  0  0  0  0  0  0  0  0  0  0  0
  181.1430  179.3740  140.5960 C   0  0  0  0  0  1  0  0  0  0  0  0
  186.9610  178.8070  141.0810 C   0  0  0  0  0  3  0  0  0  0  0  0
  183.0080  178.5870  142.0660 C   0  0  0  0  0  0  0  0  0  0  0  0
  186.1170  179.7220  147.3300 C   0  0  0  0  0  3  0  0  0  0  0  0
  182.1690  178.1970  143.2390 C   0  0  0  0  0  1  0  0  0  0  0  0
  187.1360  178.8930  147.7890 C   0  0  0  0  0  3  0  0  0  0  0  0
  184.3820  178.4990  141.9600 C   0  0  0  0  0  0  0  0  0  0  0  0
  187.7020  177.4280  142.8800 C   0  0  2  0  0  3  0  0  0  0  0  0
  182.5360  179.1070  140.9090 N   0  0  0  0  0  0  0  0  0  0  0  0
  184.6590  179.0170  140.7250 C   0  0  0  0  0  0  0  0  0  0  0  0
  187.4620  176.4150  145.0600 N   0  0  0  0  0  2  0  0  0  0  0  0
  185.4010  178.1940  142.8660 C   0  0  1  0  0  3  0  0  0  0  0  0
  185.5030  179.4540  146.1060 C   0  0  0  0  0  3  0  0  0  0  0  0
  185.9250  179.2240  140.2960 N   0  0  0  0  0  0  0  0  0  0  0  0
  187.5410  177.8010  147.0210 C   0  0  0  0  0  3  0  0  0  0  0  0
  186.9440  177.5280  145.7850 C   0  0  0  0  0  0  0  0  0  0  0  0
  185.9060  178.3750  145.3060 C   0  0  0  0  0  0  0  0  0  0  0  0
  191.8860  177.7270  141.9260 C   0  0  0  0  0  3  0  0  0  0  0  0
  189.1470  177.5640  142.5380 C   0  0  0  0  0  0  0  0  0  0  0  0
  190.0390  178.2000  143.4180 C   0  0  0  0  0  3  0  0  0  0  0  0
  191.3990  178.2880  143.1110 C   0  0  0  0  0  3  0  0  0  0  0  0
  191.0130  177.0770  141.0510 C   0  0  0  0  0  3  0  0  0  0  0  0
  189.6530  176.9910  141.3580 C   0  0  0  0  0  3  0  0  0  0  0  0
  1 15  1  0  0  0  0
  2  6  1  6  0  0  0
  2 16  1  0  0  0  0
  2 12  1  0  0  0  0
  3 21  1  0  0  0  0
  4 14  2  0  0  0  0
  4 13  1  0  0  0  0
  5 13  1  0  0  0  0
  7  9  1  0  0  0  0
  8 10  1  0  0  0  0
 11  7  2  0  0  0  0
 12 23  1  6  0  0  0
 12  1  1  0  0  0  0
 13  7  1  0  0  0  0
 14 11  1  0  0  0  0
 15 20  1  0  0  0  0
 16 11  1  1  0  0  0
 16  3  1  0  0  0  0
 17  8  2  0  0  0  0
 18 14  1  0  0  0  0
 18  6  2  0  0  0  0
 19 10  2  0  0  0  0
 20 19  1  0  0  0  0
 21 20  2  0  0  0  0
 21 17  1  0  0  0  0
 22 25  1  0  0  0  0
 23 24  1  0  0  0  0
 25 24  2  0  0  0  0
 26 27  1  0  0  0  0
 26 22  2  0  0  0  0
 27 23  2  0  0  0  0
M  END
>  <MODEL>
1

>  <REMARK>
 VINA RESULT:      -7.7      0.000      0.000
  Name = 
  1 active torsions:
  status: ('A' for Active; 'I' for Inactive)
    1  A    between atoms: C_9  and  C_15
                            x       y       z     vdW  Elec       q    Type
                         _______ _______ _______ _____ _____    ______ ____

>  <TORSDO>
F 1

$$$$
=
 OpenBabel10262420033D

 27 31  0  0  1  0  0  0  0  0999 V2000
  190.1270  178.9350  144.2710 C   0  0  0  0  0  2  0  0  0  0  0  0
  189.2310  177.4330  142.5700 C   0  0  2  0  0  3  0  0  0  0  0  0
  191.5820  176.8660  142.7670 N   0  0  0  0  0  2  0  0  0  0  0  0
  189.9160  176.9140  138.5660 N   0  0  0  0  0  0  0  0  0  0  0  0
  192.0220  176.6680  137.3390 C   0  0  0  0  0  1  0  0  0  0  0  0
  188.1290  177.2850  141.6840 C   0  0  0  0  0  3  0  0  0  0  0  0
  191.7370  177.0170  139.8000 C   0  0  0  0  0  0  0  0  0  0  0  0
  192.4220  174.3830  145.3910 C   0  0  0  0  0  3  0  0  0  0  0  0
  193.1860  176.9770  140.1620 C   0  0  0  0  0  1  0  0  0  0  0  0
  192.1500  175.0620  146.5750 C   0  0  0  0  0  3  0  0  0  0  0  0
  190.6700  177.1910  140.6580 C   0  0  0  0  0  0  0  0  0  0  0  0
  189.0300  178.0450  143.7570 C   0  0  2  0  0  3  0  0  0  0  0  0
  191.2430  176.8770  138.5490 N   0  0  0  0  0  0  0  0  0  0  0  0
  189.5700  177.1080  139.8510 C   0  0  0  0  0  0  0  0  0  0  0  0
  190.8100  178.2950  145.3710 N   0  0  0  0  0  2  0  0  0  0  0  0
  190.5490  177.2310  142.0500 C   0  0  1  0  0  3  0  0  0  0  0  0
  192.1820  175.0040  144.1640 C   0  0  0  0  0  3  0  0  0  0  0  0
  188.3100  177.1000  140.3440 N   0  0  0  0  0  0  0  0  0  0  0  0
  191.6350  176.3580  146.5290 C   0  0  0  0  0  3  0  0  0  0  0  0
  191.3770  176.9880  145.3060 C   0  0  0  0  0  0  0  0  0  0  0  0
  191.6470  176.2980  144.0910 C   0  0  0  0  0  0  0  0  0  0  0  0
  185.2260  178.2570  145.7550 C   0  0  0  0  0  3  0  0  0  0  0  0
  187.7090  178.0840  144.4470 C   0  0  0  0  0  0  0  0  0  0  0  0
  187.6040  177.8100  145.8210 C   0  0  0  0  0  3  0  0  0  0  0  0
  186.3700  177.8890  146.4700 C   0  0  0  0  0  3  0  0  0  0  0  0
  185.3190  178.5490  144.3920 C   0  0  0  0  0  3  0  0  0  0  0  0
  186.5540  178.4680  143.7430 C   0  0  0  0  0  3  0  0  0  0  0  0
  1 15  1  0  0  0  0
  2  6  1  6  0  0  0
  2 12  1  0  0  0  0
  3 21  1  0  0  0  0
  4 14  2  0  0  0  0
  5 13  1  0  0  0  0
  7  9  1  0  0  0  0
  7 11  2  0  0  0  0
  8 10  1  0  0  0  0
 12  1  1  0  0  0  0
 12 23  1  6  0  0  0
 13  4  1  0  0  0  0
 13  7  1  0  0  0  0
 14 18  1  0  0  0  0
 14 11  1  0  0  0  0
 16 11  1  6  0  0  0
 16  2  1  0  0  0  0
 16  3  1  0  0  0  0
 17  8  2  0  0  0  0
 18  6  2  0  0  0  0
 19 10  2  0  0  0  0
 20 15  1  0  0  0  0
 20 19  1  0  0  0  0
 21 17  1  0  0  0  0
 21 20  2  0  0  0  0
 22 25  1  0  0  0  0
 23 24  1  0  0  0  0
 24 25  2  0  0  0  0
 26 22  2  0  0  0  0
 27 26  1  0  0  0  0
 27 23  2  0  0  0  0
M  END
>  <MODEL>
2

>  <REMARK>
 VINA RESULT:      -7.5      2.924      6.454
  Name = 
  1 active torsions:
  status: ('A' for Active; 'I' for Inactive)
    1  A    between atoms: C_9  and  C_15
                            x       y       z     vdW  Elec       q    Type
                         _______ _______ _______ _____ _____    ______ ____

>  <TORSDO>
F 1

$$$$
=
 OpenBabel10262420033D

 27 31  0  0  1  0  0  0  0  0999 V2000
  190.4660  179.0250  144.0100 C   0  0  0  0  0  2  0  0  0  0  0  0
  188.5980  177.4990  144.3750 C   0  0  2  0  0  3  0  0  0  0  0  0
  188.3710  178.2720  142.0870 N   0  0  0  0  0  2  0  0  0  0  0  0
  184.5260  177.9270  144.4380 N   0  0  0  0  0  0  0  0  0  0  0  0
  183.0240  179.0090  142.8340 C   0  0  0  0  0  1  0  0  0  0  0  0
  187.8450  176.8900  145.4170 C   0  0  0  0  0  3  0  0  0  0  0  0
  185.5160  178.8450  142.6980 C   0  0  0  0  0  0  0  0  0  0  0  0
  190.2500  176.3350  139.5430 C   0  0  0  0  0  3  0  0  0  0  0  0
  185.6770  179.5490  141.3900 C   0  0  0  0  0  1  0  0  0  0  0  0
  191.5800  176.6090  139.8490 C   0  0  0  0  0  3  0  0  0  0  0  0
  186.5170  178.3080  143.4820 C   0  0  0  0  0  0  0  0  0  0  0  0
  189.9070  177.7550  144.5880 C   0  0  2  0  0  3  0  0  0  0  0  0
  184.3360  178.6150  143.3180 N   0  0  0  0  0  0  0  0  0  0  0  0
  185.8540  177.7450  144.5370 C   0  0  0  0  0  0  0  0  0  0  0  0
  191.3020  178.7260  142.8710 N   0  0  0  0  0  2  0  0  0  0  0  0
  187.8870  178.1060  143.2920 C   0  0  1  0  0  3  0  0  0  0  0  0
  189.2320  176.8730  140.3310 C   0  0  0  0  0  3  0  0  0  0  0  0
  186.4850  176.9980  145.4720 N   0  0  0  0  0  0  0  0  0  0  0  0
  191.8880  177.4150  140.9440 C   0  0  0  0  0  3  0  0  0  0  0  0
  190.8780  177.9510  141.7520 C   0  0  0  0  0  0  0  0  0  0  0  0
  189.5160  177.6710  141.4490 C   0  0  0  0  0  0  0  0  0  0  0  0
  192.3990  175.6200  147.3700 C   0  0  0  0  0  3  0  0  0  0  0  0
  190.7470  176.9900  145.5530 C   0  0  0  0  0  0  0  0  0  0  0  0
  191.5690  175.9370  145.1180 C   0  0  0  0  0  3  0  0  0  0  0  0
  192.3850  175.2510  146.0210 C   0  0  0  0  0  3  0  0  0  0  0  0
  191.5990  176.6750  147.8130 C   0  0  0  0  0  3  0  0  0  0  0  0
  190.7820  177.3590  146.9100 C   0  0  0  0  0  3  0  0  0  0  0  0
  1 12  1  0  0  0  0
  2 12  1  0  0  0  0
  2  6  1  1  0  0  0
  4 14  2  0  0  0  0
  5 13  1  0  0  0  0
  6 18  2  0  0  0  0
  7 13  1  0  0  0  0
  7 11  2  0  0  0  0
  8 10  2  0  0  0  0
  8 17  1  0  0  0  0
  9  7  1  0  0  0  0
 10 19  1  0  0  0  0
 11 14  1  0  0  0  0
 12 23  1  1  0  0  0
 13  4  1  0  0  0  0
 14 18  1  0  0  0  0
 15  1  1  0  0  0  0
 16  3  1  6  0  0  0
 16 11  1  0  0  0  0
 16  2  1  0  0  0  0
 17 21  2  0  0  0  0
 19 20  2  0  0  0  0
 20 15  1  0  0  0  0
 21 20  1  0  0  0  0
 21  3  1  0  0  0  0
 22 26  1  0  0  0  0
 23 27  1  0  0  0  0
 24 23  2  0  0  0  0
 24 25  1  0  0  0  0
 25 22  2  0  0  0  0
 27 26  2  0  0  0  0
M  END
>  <MODEL>
3

>  <REMARK>
 VINA RESULT:      -7.5      2.363      5.185
  Name = 
  1 active torsions:
  status: ('A' for Active; 'I' for Inactive)
    1  A    between atoms: C_9  and  C_15
                            x       y       z     vdW  Elec       q    Type
                         _______ _______ _______ _____ _____    ______ ____

>  <TORSDO>
F 1

$$$$
=
 OpenBabel10262420033D

 27 31  0  0  1  0  0  0  0  0999 V2000
  189.8480  179.2360  143.2030 C   0  0  0  0  0  2  0  0  0  0  0  0
  189.4060  177.5010  141.5450 C   0  0  2  0  0  3  0  0  0  0  0  0
  191.6830  177.1240  142.2910 N   0  0  0  0  0  2  0  0  0  0  0  0
  190.9520  176.6060  137.8600 N   0  0  0  0  0  0  0  0  0  0  0  0
  193.2800  176.3780  137.1350 C   0  0  0  0  0  1  0  0  0  0  0  0
  188.5260  177.1840  140.4740 C   0  0  0  0  0  3  0  0  0  0  0  0
  192.4620  176.9680  139.4230 C   0  0  0  0  0  0  0  0  0  0  0  0
  192.0550  175.0010  145.3080 C   0  0  0  0  0  3  0  0  0  0  0  0
  193.8000  177.0680  140.0800 C   0  0  0  0  0  1  0  0  0  0  0  0
  191.5070  175.7820  146.3210 C   0  0  0  0  0  3  0  0  0  0  0  0
  191.2290  177.1570  140.0160 C   0  0  0  0  0  0  0  0  0  0  0  0
  188.9280  178.2210  142.5830 C   0  0  2  0  0  3  0  0  0  0  0  0
  192.2530  176.6600  138.1230 N   0  0  0  0  0  0  0  0  0  0  0  0
  190.3320  176.9120  139.0140 C   0  0  0  0  0  0  0  0  0  0  0  0
  190.3090  178.7660  144.4890 N   0  0  0  0  0  2  0  0  0  0  0  0
  190.8120  177.3370  141.3370 C   0  0  1  0  0  3  0  0  0  0  0  0
  192.0550  175.4690  143.9940 C   0  0  0  0  0  3  0  0  0  0  0  0
  188.9970  176.8690  139.2320 N   0  0  0  0  0  0  0  0  0  0  0  0
  190.9550  177.0260  146.0150 C   0  0  0  0  0  3  0  0  0  0  0  0
  190.9350  177.5030  144.6990 C   0  0  0  0  0  0  0  0  0  0  0  0
  191.4900  176.7070  143.6580 C   0  0  0  0  0  0  0  0  0  0  0  0
  184.7860  178.3780  143.7350 C   0  0  0  0  0  3  0  0  0  0  0  0
  187.4900  178.2420  142.9750 C   0  0  0  0  0  0  0  0  0  0  0  0
  187.0830  177.8170  144.2510 C   0  0  0  0  0  3  0  0  0  0  0  0
  185.7390  177.8780  144.6270 C   0  0  0  0  0  3  0  0  0  0  0  0
  185.1780  178.8200  142.4690 C   0  0  0  0  0  3  0  0  0  0  0  0
  186.5230  178.7570  142.0940 C   0  0  0  0  0  3  0  0  0  0  0  0
  1 15  1  0  0  0  0
  2  6  1  6  0  0  0
  2 12  1  0  0  0  0
  3 21  1  0  0  0  0
  4 13  1  0  0  0  0
  4 14  2  0  0  0  0
  5 13  1  0  0  0  0
  7 11  2  0  0  0  0
  7  9  1  0  0  0  0
  8 10  1  0  0  0  0
 12 23  1  6  0  0  0
 12  1  1  0  0  0  0
 13  7  1  0  0  0  0
 14 18  1  0  0  0  0
 14 11  1  0  0  0  0
 15 20  1  0  0  0  0
 16 11  1  6  0  0  0
 16  2  1  0  0  0  0
 16  3  1  0  0  0  0
 17  8  2  0  0  0  0
 18  6  2  0  0  0  0
 19 10  2  0  0  0  0
 20 19  1  0  0  0  0
 21 17  1  0  0  0  0
 21 20  2  0  0  0  0
 22 25  1  0  0  0  0
 23 24  1  0  0  0  0
 24 25  2  0  0  0  0
 26 22  2  0  0  0  0
 27 26  1  0  0  0  0
 27 23  2  0  0  0  0
M  END
>  <MODEL>
4

>  <REMARK>
 VINA RESULT:      -7.3      3.050      6.669
  Name = 
  1 active torsions:
  status: ('A' for Active; 'I' for Inactive)
    1  A    between atoms: C_9  and  C_15
                            x       y       z     vdW  Elec       q    Type
                         _______ _______ _______ _____ _____    ______ ____

>  <TORSDO>
F 1

$$$$
=
 OpenBabel10262420033D

 27 31  0  0  1  0  0  0  0  0999 V2000
  187.9500  175.9150  144.0710 C   0  0  0  0  0  2  0  0  0  0  0  0
  189.7270  177.4540  143.4160 C   0  0  2  0  0  3  0  0  0  0  0  0
  188.2380  177.3280  141.5050 N   0  0  0  0  0  2  0  0  0  0  0  0
  192.6570  177.3890  140.5560 N   0  0  0  0  0  0  0  0  0  0  0  0
  192.5180  176.9000  138.1600 C   0  0  0  0  0  1  0  0  0  0  0  0
  191.0530  177.8350  143.7630 C   0  0  0  0  0  3  0  0  0  0  0  0
  190.6470  176.8720  139.8190 C   0  0  0  0  0  0  0  0  0  0  0  0
  185.3750  179.6850  141.5400 C   0  0  0  0  0  3  0  0  0  0  0  0
  189.5550  176.5210  138.8620 C   0  0  0  0  0  1  0  0  0  0  0  0
  184.5920  179.2230  142.5940 C   0  0  0  0  0  3  0  0  0  0  0  0
  190.5230  177.0940  141.1760 C   0  0  0  0  0  0  0  0  0  0  0  0
  188.8970  177.0360  144.3970 C   0  0  2  0  0  3  0  0  0  0  0  0
  191.9480  177.0360  139.4900 N   0  0  0  0  0  0  0  0  0  0  0  0
  191.7870  177.4200  141.5810 C   0  0  0  0  0  0  0  0  0  0  0  0
  186.6050  176.4250  143.9410 N   0  0  0  0  0  2  0  0  0  0  0  0
  189.4290  177.2160  142.0370 C   0  0  1  0  0  3  0  0  0  0  0  0
  186.5840  179.0530  141.2460 C   0  0  0  0  0  3  0  0  0  0  0  0
  192.0580  177.8390  142.8390 N   0  0  0  0  0  0  0  0  0  0  0  0
  185.0220  178.1350  143.3530 C   0  0  0  0  0  3  0  0  0  0  0  0
  186.2390  177.5000  143.0780 C   0  0  0  0  0  0  0  0  0  0  0  0
  187.0470  177.9690  142.0060 C   0  0  0  0  0  0  0  0  0  0  0  0
  189.2920  178.1220  148.5410 C   0  0  0  0  0  3  0  0  0  0  0  0
  189.0410  177.4450  145.8230 C   0  0  0  0  0  0  0  0  0  0  0  0
  187.9760  178.0520  146.5110 C   0  0  0  0  0  3  0  0  0  0  0  0
  188.1020  178.3950  147.8590 C   0  0  0  0  0  3  0  0  0  0  0  0
  190.3520  177.5040  147.8750 C   0  0  0  0  0  3  0  0  0  0  0  0
  190.2260  177.1630  146.5260 C   0  0  0  0  0  3  0  0  0  0  0  0
  1 12  1  0  0  0  0
  2  6  1  1  0  0  0
  2 12  1  0  0  0  0
  3 21  1  0  0  0  0
  3 16  1  0  0  0  0
  4 14  2  0  0  0  0
  5 13  1  0  0  0  0
  7 11  2  0  0  0  0
  8 10  1  0  0  0  0
  9  7  1  0  0  0  0
 10 19  2  0  0  0  0
 11 14  1  0  0  0  0
 12 23  1  1  0  0  0
 13  7  1  0  0  0  0
 13  4  1  0  0  0  0
 14 18  1  0  0  0  0
 15  1  1  0  0  0  0
 16 11  1  6  0  0  0
 16  2  1  0  0  0  0
 17  8  2  0  0  0  0
 17 21  1  0  0  0  0
 18  6  2  0  0  0  0
 20 19  1  0  0  0  0
 20 15  1  0  0  0  0
 21 20  2  0  0  0  0
 23 24  2  0  0  0  0
 23 27  1  0  0  0  0
 24 25  1  0  0  0  0
 25 22  2  0  0  0  0
 26 22  1  0  0  0  0
 27 26  2  0  0  0  0
M  END
>  <MODEL>
5

>  <REMARK>
 VINA RESULT:      -7.2      2.640      6.086
  Name = 
  1 active torsions:
  status: ('A' for Active; 'I' for Inactive)
    1  A    between atoms: C_9  and  C_15
                            x       y       z     vdW  Elec       q    Type
                         _______ _______ _______ _____ _____    ______ ____

>  <TORSDO>
F 1

$$$$
=
 OpenBabel10262420033D

 27 31  0  0  1  0  0  0  0  0999 V2000
  189.3840  179.0910  138.4250 C   0  0  0  0  0  2  0  0  0  0  0  0
  188.8800  177.3490  140.0570 C   0  0  2  0  0  3  0  0  0  0  0  0
  186.7490  178.3770  139.5230 N   0  0  0  0  0  2  0  0  0  0  0  0
  187.4020  177.3490  143.8760 N   0  0  0  0  0  0  0  0  0  0  0  0
  185.4330  178.4660  144.8100 C   0  0  0  0  0  1  0  0  0  0  0  0
  189.5010  176.5390  141.0490 C   0  0  0  0  0  3  0  0  0  0  0  0
  186.2550  178.5750  142.4500 C   0  0  0  0  0  0  0  0  0  0  0  0
  184.9830  176.9790  136.5770 C   0  0  0  0  0  3  0  0  0  0  0  0
  185.1700  179.4520  141.9150 C   0  0  0  0  0  1  0  0  0  0  0  0
  185.7980  177.3460  135.5100 C   0  0  0  0  0  3  0  0  0  0  0  0
  187.3200  178.0480  141.7480 C   0  0  0  0  0  0  0  0  0  0  0  0
  189.6000  177.7080  138.9710 C   0  0  2  0  0  3  0  0  0  0  0  0
  186.3530  178.1500  143.7310 N   0  0  0  0  0  0  0  0  0  0  0  0
  187.9900  177.2910  142.6680 C   0  0  0  0  0  0  0  0  0  0  0  0
  188.6350  179.0250  137.1910 N   0  0  0  0  0  2  0  0  0  0  0  0
  187.6580  178.0120  140.3920 C   0  0  1  0  0  3  0  0  0  0  0  0
  185.3570  177.3070  137.8800 C   0  0  0  0  0  3  0  0  0  0  0  0
  189.0350  176.5010  142.3310 N   0  0  0  0  0  0  0  0  0  0  0  0
  186.9870  178.0350  135.7500 C   0  0  0  0  0  3  0  0  0  0  0  0
  187.3820  178.3580  137.0530 C   0  0  0  0  0  0  0  0  0  0  0  0
  186.5570  177.9820  138.1500 C   0  0  0  0  0  0  0  0  0  0  0  0
  192.9040  175.3540  137.5400 C   0  0  0  0  0  3  0  0  0  0  0  0
  190.7510  176.9170  138.4520 C   0  0  0  0  0  0  0  0  0  0  0  0
  192.0650  177.1980  138.8650 C   0  0  0  0  0  3  0  0  0  0  0  0
  193.1360  176.4270  138.4070 C   0  0  0  0  0  3  0  0  0  0  0  0
  191.6020  175.0520  137.1360 C   0  0  0  0  0  3  0  0  0  0  0  0
  190.5320  175.8250  137.5930 C   0  0  0  0  0  3  0  0  0  0  0  0
  1 12  1  0  0  0  0
  2 16  1  0  0  0  0
  2  6  1  1  0  0  0
  6 18  2  0  0  0  0
  7 13  1  0  0  0  0
  8 17  1  0  0  0  0
  9  7  1  0  0  0  0
 10 19  1  0  0  0  0
 10  8  2  0  0  0  0
 11  7  2  0  0  0  0
 11 14  1  0  0  0  0
 12 23  1  1  0  0  0
 12  2  1  0  0  0  0
 13  4  1  0  0  0  0
 13  5  1  0  0  0  0
 14  4  2  0  0  0  0
 15  1  1  0  0  0  0
 16  3  1  6  0  0  0
 16 11  1  0  0  0  0
 17 21  2  0  0  0  0
 18 14  1  0  0  0  0
 19 20  2  0  0  0  0
 20 15  1  0  0  0  0
 20 21  1  0  0  0  0
 21  3  1  0  0  0  0
 22 25  1  0  0  0  0
 23 24  1  0  0  0  0
 25 24  2  0  0  0  0
 26 22  2  0  0  0  0
 26 27  1  0  0  0  0
 27 23  2  0  0  0  0
M  END
>  <MODEL>
6

>  <REMARK>
 VINA RESULT:      -7.1      3.080      6.370
  Name = 
  1 active torsions:
  status: ('A' for Active; 'I' for Inactive)
    1  A    between atoms: C_9  and  C_15
                            x       y       z     vdW  Elec       q    Type
                         _______ _______ _______ _____ _____    ______ ____

>  <TORSDO>
F 1

$$$$
=
 OpenBabel10262420033D

 27 31  0  0  1  0  0  0  0  0999 V2000
  187.9860  175.7560  143.5630 C   0  0  0  0  0  2  0  0  0  0  0  0
  189.5190  177.3010  142.4590 C   0  0  2  0  0  3  0  0  0  0  0  0
  187.3620  177.6610  141.4080 N   0  0  0  0  0  2  0  0  0  0  0  0
  190.9310  177.6850  138.6340 N   0  0  0  0  0  0  0  0  0  0  0  0
  189.7290  177.7210  136.5000 C   0  0  0  0  0  1  0  0  0  0  0  0
  190.9060  177.5300  142.2430 C   0  0  0  0  0  3  0  0  0  0  0  0
  188.7460  177.4430  138.7840 C   0  0  0  0  0  0  0  0  0  0  0  0
  185.1420  180.1070  143.0930 C   0  0  0  0  0  3  0  0  0  0  0  0
  187.3150  177.3610  138.3620 C   0  0  0  0  0  1  0  0  0  0  0  0
  184.8190  179.4760  144.2910 C   0  0  0  0  0  3  0  0  0  0  0  0
  189.2380  177.3800  140.0720 C   0  0  0  0  0  0  0  0  0  0  0  0
  189.1300  176.7310  143.6200 C   0  0  2  0  0  3  0  0  0  0  0  0
  189.7970  177.6040  137.9470 N   0  0  0  0  0  0  0  0  0  0  0  0
  190.5880  177.5460  139.9270 C   0  0  0  0  0  0  0  0  0  0  0  0
  186.7980  176.3530  144.1260 N   0  0  0  0  0  2  0  0  0  0  0  0
  188.6380  177.3760  141.3340 C   0  0  1  0  0  3  0  0  0  0  0  0
  186.0120  179.4880  142.1950 C   0  0  0  0  0  3  0  0  0  0  0  0
  191.4190  177.6740  140.9870 N   0  0  0  0  0  0  0  0  0  0  0  0
  185.3720  178.2310  144.5900 C   0  0  0  0  0  3  0  0  0  0  0  0
  186.2570  177.6040  143.7050 C   0  0  0  0  0  0  0  0  0  0  0  0
  186.5960  178.2450  142.4810 C   0  0  0  0  0  0  0  0  0  0  0  0
  191.3760  176.8970  147.2850 C   0  0  0  0  0  3  0  0  0  0  0  0
  189.9160  176.8210  144.8830 C   0  0  0  0  0  0  0  0  0  0  0  0
  189.3620  177.3990  146.0380 C   0  0  0  0  0  3  0  0  0  0  0  0
  190.0890  177.4430  147.2300 C   0  0  0  0  0  3  0  0  0  0  0  0
  191.9320  176.3050  146.1490 C   0  0  0  0  0  3  0  0  0  0  0  0
  191.2050  176.2630  144.9570 C   0  0  0  0  0  3  0  0  0  0  0  0
  1 12  1  0  0  0  0
  1 15  1  0  0  0  0
  2  6  1  6  0  0  0
  2 12  1  0  0  0  0
  3 21  1  0  0  0  0
  4 14  2  0  0  0  0
  5 13  1  0  0  0  0
  7 11  2  0  0  0  0
  8 10  1  0  0  0  0
  9  7  1  0  0  0  0
 10 19  2  0  0  0  0
 12 23  1  6  0  0  0
 13  4  1  0  0  0  0
 13  7  1  0  0  0  0
 14 11  1  0  0  0  0
 14 18  1  0  0  0  0
 16 11  1  6  0  0  0
 16  3  1  0  0  0  0
 16  2  1  0  0  0  0
 17 21  1  0  0  0  0
 17  8  2  0  0  0  0
 18  6  2  0  0  0  0
 20 15  1  0  0  0  0
 20 19  1  0  0  0  0
 21 20  2  0  0  0  0
 23 27  2  0  0  0  0
 23 24  1  0  0  0  0
 24 25  2  0  0  0  0
 25 22  1  0  0  0  0
 26 22  2  0  0  0  0
 27 26  1  0  0  0  0
M  END
>  <MODEL>
7

>  <REMARK>
 VINA RESULT:      -7.0      2.762      4.922
  Name = 
  1 active torsions:
  status: ('A' for Active; 'I' for Inactive)
    1  A    between atoms: C_9  and  C_15
                            x       y       z     vdW  Elec       q    Type
                         _______ _______ _______ _____ _____    ______ ____

>  <TORSDO>
F 1

$$$$
=
 OpenBabel10262420033D

 27 31  0  0  1  0  0  0  0  0999 V2000
  189.0870  178.7100  137.4830 C   0  0  0  0  0  2  0  0  0  0  0  0
  189.6860  176.3600  137.2100 C   0  0  2  0  0  3  0  0  0  0  0  0
  190.8270  177.0930  139.2210 N   0  0  0  0  0  2  0  0  0  0  0  0
  193.1910  174.3650  136.5010 N   0  0  0  0  0  0  0  0  0  0  0  0
  195.3670  174.5480  137.6090 C   0  0  0  0  0  1  0  0  0  0  0  0
  189.7180  175.3260  136.2340 C   0  0  0  0  0  3  0  0  0  0  0  0
  193.2980  175.8580  138.1170 C   0  0  0  0  0  0  0  0  0  0  0  0
  188.8630  176.8600  142.3580 C   0  0  0  0  0  3  0  0  0  0  0  0
  193.8570  176.6580  139.2480 C   0  0  0  0  0  1  0  0  0  0  0  0
  187.8650  177.8140  142.1840 C   0  0  0  0  0  3  0  0  0  0  0  0
  192.0140  175.9160  137.6120 C   0  0  0  0  0  0  0  0  0  0  0  0
  188.7160  177.2970  137.1270 C   0  0  2  0  0  3  0  0  0  0  0  0
  193.9800  174.9310  137.4070 N   0  0  0  0  0  0  0  0  0  0  0  0
  191.9960  174.9690  136.6270 C   0  0  0  0  0  0  0  0  0  0  0  0
  188.5200  179.0640  138.7630 N   0  0  0  0  0  2  0  0  0  0  0  0
  190.8430  176.5570  138.0270 C   0  0  1  0  0  3  0  0  0  0  0  0
  189.7900  176.6320  141.3410 C   0  0  0  0  0  3  0  0  0  0  0  0
  190.8620  174.6280  135.9720 N   0  0  0  0  0  0  0  0  0  0  0  0
  187.7930  178.5330  140.9910 C   0  0  0  0  0  3  0  0  0  0  0  0
  188.7070  178.3060  139.9560 C   0  0  0  0  0  0  0  0  0  0  0  0
  189.7280  177.3290  140.1250 C   0  0  0  0  0  0  0  0  0  0  0  0
  184.8780  176.6960  135.2790 C   0  0  0  0  0  3  0  0  0  0  0  0
  187.3970  177.0580  136.4760 C   0  0  0  0  0  0  0  0  0  0  0  0
  186.4090  176.2850  137.1090 C   0  0  0  0  0  3  0  0  0  0  0  0
  185.1590  176.1000  136.5120 C   0  0  0  0  0  3  0  0  0  0  0  0
  185.8440  177.4810  134.6470 C   0  0  0  0  0  3  0  0  0  0  0  0
  187.0940  177.6650  135.2430 C   0  0  0  0  0  3  0  0  0  0  0  0
  1 15  1  0  0  0  0
  2  6  1  6  0  0  0
  2 16  1  0  0  0  0
  3 21  1  0  0  0  0
  4 14  2  0  0  0  0
  4 13  1  0  0  0  0
  7  9  1  0  0  0  0
 10  8  1  0  0  0  0
 11  7  2  0  0  0  0
 12 23  1  6  0  0  0
 12  2  1  0  0  0  0
 12  1  1  0  0  0  0
 13  5  1  0  0  0  0
 13  7  1  0  0  0  0
 14 11  1  0  0  0  0
 15 20  1  0  0  0  0
 16 11  1  1  0  0  0
 16  3  1  0  0  0  0
 17  8  2  0  0  0  0
 18  6  2  0  0  0  0
 18 14  1  0  0  0  0
 19 10  2  0  0  0  0
 20 21  2  0  0  0  0
 20 19  1  0  0  0  0
 21 17  1  0  0  0  0
 22 25  1  0  0  0  0
 23 24  1  0  0  0  0
 25 24  2  0  0  0  0
 26 27  1  0  0  0  0
 26 22  2  0  0  0  0
 27 23  2  0  0  0  0
M  END
>  <MODEL>
8

>  <REMARK>
 VINA RESULT:      -6.7      4.991      8.608
  Name = 
  1 active torsions:
  status: ('A' for Active; 'I' for Inactive)
    1  A    between atoms: C_9  and  C_15
                            x       y       z     vdW  Elec       q    Type
                         _______ _______ _______ _____ _____    ______ ____

>  <TORSDO>
F 1

$$$$
=
 OpenBabel10262420033D

 27 31  0  0  1  0  0  0  0  0999 V2000
  183.8440  179.4960  138.8810 C   0  0  0  0  0  2  0  0  0  0  0  0
  184.7750  177.4390  137.9540 C   0  0  2  0  0  3  0  0  0  0  0  0
  186.6360  178.5760  139.0170 N   0  0  0  0  0  2  0  0  0  0  0  0
  187.5400  176.6050  135.0510 N   0  0  0  0  0  0  0  0  0  0  0  0
  189.7930  177.5030  134.7070 C   0  0  0  0  0  1  0  0  0  0  0  0
  184.5000  176.4260  136.9950 C   0  0  0  0  0  3  0  0  0  0  0  0
  188.1770  178.1250  136.5130 C   0  0  0  0  0  0  0  0  0  0  0  0
  187.0940  177.8780  142.6310 C   0  0  0  0  0  3  0  0  0  0  0  0
  189.0560  179.1070  137.2180 C   0  0  0  0  0  1  0  0  0  0  0  0
  185.9760  178.4660  143.2160 C   0  0  0  0  0  3  0  0  0  0  0  0
  186.8920  177.7590  136.8610 C   0  0  0  0  0  0  0  0  0  0  0  0
  183.7380  178.0240  138.5930 C   0  0  2  0  0  3  0  0  0  0  0  0
  188.5210  177.4260  135.4070 N   0  0  0  0  0  0  0  0  0  0  0  0
  186.5490  176.8120  135.9360 C   0  0  0  0  0  0  0  0  0  0  0  0
  184.0840  179.7090  140.2890 N   0  0  0  0  0  2  0  0  0  0  0  0
  186.0820  178.0210  137.9690 C   0  0  1  0  0  3  0  0  0  0  0  0
  187.2470  177.9060  141.2440 C   0  0  0  0  0  3  0  0  0  0  0  0
  185.3970  176.1070  136.0170 N   0  0  0  0  0  0  0  0  0  0  0  0
  185.0130  179.0750  142.4120 C   0  0  0  0  0  3  0  0  0  0  0  0
  185.1460  179.0990  141.0190 C   0  0  0  0  0  0  0  0  0  0  0  0
  186.2830  178.4960  140.4130 C   0  0  0  0  0  0  0  0  0  0  0  0
  179.9120  176.1720  139.2540 C   0  0  0  0  0  3  0  0  0  0  0  0
  182.4200  177.3580  138.7990 C   0  0  0  0  0  0  0  0  0  0  0  0
  182.3040  176.2270  139.6240 C   0  0  0  0  0  3  0  0  0  0  0  0
  181.0590  175.6330  139.8450 C   0  0  0  0  0  3  0  0  0  0  0  0
  180.0110  177.3060  138.4460 C   0  0  0  0  0  3  0  0  0  0  0  0
  181.2560  177.8990  138.2230 C   0  0  0  0  0  3  0  0  0  0  0  0
  1 15  1  0  0  0  0
  2  6  1  6  0  0  0
  2 16  1  0  0  0  0
  2 12  1  0  0  0  0
  3 21  1  0  0  0  0
  4 13  1  0  0  0  0
  4 14  2  0  0  0  0
  5 13  1  0  0  0  0
  7 11  2  0  0  0  0
  7  9  1  0  0  0  0
  8 10  1  0  0  0  0
 12 23  1  6  0  0  0
 12  1  1  0  0  0  0
 13  7  1  0  0  0  0
 14 18  1  0  0  0  0
 14 11  1  0  0  0  0
 15 20  1  0  0  0  0
 16 11  1  1  0  0  0
 16  3  1  0  0  0  0
 17  8  2  0  0  0  0
 18  6  2  0  0  0  0
 19 10  2  0  0  0  0
 20 19  1  0  0  0  0
 21 20  2  0  0  0  0
 21 17  1  0  0  0  0
 22 25  1  0  0  0  0
 23 24  1  0  0  0  0
 24 25  2  0  0  0  0
 26 22  2  0  0  0  0
 27 26  1  0  0  0  0
 27 23  2  0  0  0  0
M  END
>  <MODEL>
9

>  <REMARK>
 VINA RESULT:      -6.6      3.647      7.403
  Name = 
  1 active torsions:
  status: ('A' for Active; 'I' for Inactive)
    1  A    between atoms: C_9  and  C_15
                            x       y       z     vdW  Elec       q    Type
                         _______ _______ _______ _____ _____    ______ ____

>  <TORSDO>
F 1

$$$$
