=
 OpenBabel10262420153D

 27 31  0  0  1  0  0  0  0  0999 V2000
  187.8060  177.5970  144.0520 C   0  0  0  0  0  3  0  0  0  0  0  0
  189.8150  177.4420  142.6860 C   0  0  0  0  0  0  0  0  0  0  0  0
  186.8360  178.6800  140.6210 C   0  0  0  0  0  2  0  0  0  0  0  0
  191.1800  177.2150  142.3640 N   0  0  0  0  0  2  0  0  0  0  0  0
  184.8890  178.8800  142.1510 C   0  0  2  0  0  3  0  0  0  0  0  0
  189.2750  177.3760  143.9230 C   0  0  0  0  0  0  0  0  0  0  0  0
  189.7030  177.6850  140.3840 C   0  0  0  0  0  0  0  0  0  0  0  0
  187.0290  177.9000  143.0040 C   0  0  0  0  0  0  0  0  0  0  0  0
  189.0010  177.7260  141.5230 C   0  0  0  0  0  0  0  0  0  0  0  0
  185.3410  178.4300  140.7640 C   0  0  0  0  0  2  0  0  0  0  0  0
  191.4600  177.3530  140.6200 S   0  0  0  0  0  0  0  0  0  0  0  0
  185.5470  178.0120  143.2180 C   0  0  0  0  0  2  0  0  0  0  0  0
  187.5910  177.9980  141.6730 N   0  0  0  0  0  0  0  0  0  0  0  0
  188.4760  176.6160  138.5110 C   0  0  0  0  0  3  0  0  0  0  0  0
  188.0120  177.8460  136.4760 C   0  0  0  0  0  3  0  0  0  0  0  0
  188.6610  178.9700  137.0030 C   0  0  0  0  0  3  0  0  0  0  0  0
  189.2220  178.9150  138.2810 C   0  0  0  0  0  3  0  0  0  0  0  0
  189.1240  177.7410  139.0410 C   0  0  0  0  0  0  0  0  0  0  0  0
  187.9220  176.6680  137.2290 C   0  0  0  0  0  3  0  0  0  0  0  0
  191.4750  176.4730  147.5150 C   0  0  0  0  0  3  0  0  0  0  0  0
  190.0590  177.0680  145.1540 C   0  0  0  0  0  0  0  0  0  0  0  0
  191.3050  176.4170  145.1020 C   0  0  0  0  0  3  0  0  0  0  0  0
  192.0110  176.1260  146.2730 C   0  0  0  0  0  3  0  0  0  0  0  0
  190.2390  177.1220  147.5850 C   0  0  0  0  0  3  0  0  0  0  0  0
  189.5380  177.4190  146.4140 C   0  0  0  0  0  3  0  0  0  0  0  0
  182.9730  179.0330  143.6500 N   0  0  0  0  0  1  0  0  0  0  0  0
  183.3810  178.7630  142.2810 C   0  0  0  0  0  2  0  0  0  0  0  0
  2  6  2  0  0  0  0
  3 10  1  0  0  0  0
  3 13  1  0  0  0  0
  4  2  1  0  0  0  0
  5 27  1  6  0  0  0
  5 12  1  0  0  0  0
  6  1  1  0  0  0  0
  6 21  1  0  0  0  0
  7 11  1  0  0  0  0
  7  9  2  0  0  0  0
  8 12  1  0  0  0  0
  8  1  2  0  0  0  0
  9 13  1  0  0  0  0
  9  2  1  0  0  0  0
 10  5  1  0  0  0  0
 11  4  1  0  0  0  0
 13  8  1  0  0  0  0
 14 18  1  0  0  0  0
 15 16  2  0  0  0  0
 15 19  1  0  0  0  0
 16 17  1  0  0  0  0
 17 18  2  0  0  0  0
 18  7  1  0  0  0  0
 19 14  2  0  0  0  0
 20 24  1  0  0  0  0
 21 25  1  0  0  0  0
 22 21  2  0  0  0  0
 22 23  1  0  0  0  0
 23 20  2  0  0  0  0
 25 24  2  0  0  0  0
 27 26  1  0  0  0  0
M  END
>  <MODEL>
1

>  <REMARK>
 VINA RESULT:      -9.3      0.000      0.000
  Name = 
  3 active torsions:
  status: ('A' for Active; 'I' for Inactive)
    1  A    between atoms: C_9  and  C_15
    2  A    between atoms: C_13  and  C_22
    3  A    between atoms: C_14  and  C_17
                            x       y       z     vdW  Elec       q    Type
                         _______ _______ _______ _____ _____    ______ ____

>  <TORSDO>
F 3

$$$$
=
 OpenBabel10262420153D

 27 31  0  0  1  0  0  0  0  0999 V2000
  186.2900  177.9820  143.5890 C   0  0  0  0  0  3  0  0  0  0  0  0
  188.6080  177.7500  142.8840 C   0  0  0  0  0  0  0  0  0  0  0  0
  186.3610  178.7060  139.9340 C   0  0  0  0  0  2  0  0  0  0  0  0
  190.0080  177.5280  142.9960 N   0  0  0  0  0  2  0  0  0  0  0  0
  184.0550  179.0010  140.8080 C   0  0  2  0  0  3  0  0  0  0  0  0
  187.7320  177.7880  143.9130 C   0  0  0  0  0  0  0  0  0  0  0  0
  189.1710  177.7680  140.6370 C   0  0  0  0  0  0  0  0  0  0  0  0
  185.8520  178.1640  142.3360 C   0  0  0  0  0  0  0  0  0  0  0  0
  188.1680  177.8990  141.5130 C   0  0  0  0  0  0  0  0  0  0  0  0
  184.8880  178.4320  139.6630 C   0  0  0  0  0  2  0  0  0  0  0  0
  190.7830  177.5060  141.4020 S   0  0  0  0  0  0  0  0  0  0  0  0
  184.3720  178.2560  142.1000 C   0  0  0  0  0  2  0  0  0  0  0  0
  186.7760  178.1480  141.2220 N   0  0  0  0  0  0  0  0  0  0  0  0
  188.6920  176.4500  138.5890 C   0  0  0  0  0  3  0  0  0  0  0  0
  188.6880  177.5100  136.4110 C   0  0  0  0  0  3  0  0  0  0  0  0
  189.0040  178.7380  137.0040 C   0  0  0  0  0  3  0  0  0  0  0  0
  189.1700  178.8220  138.3880 C   0  0  0  0  0  3  0  0  0  0  0  0
  189.0070  177.6800  139.1840 C   0  0  0  0  0  0  0  0  0  0  0  0
  188.5350  176.3650  137.2040 C   0  0  0  0  0  3  0  0  0  0  0  0
  188.7930  177.2820  148.0570 C   0  0  0  0  0  3  0  0  0  0  0  0
  188.1240  177.6200  145.3420 C   0  0  0  0  0  0  0  0  0  0  0  0
  189.3900  177.1320  145.7170 C   0  0  0  0  0  3  0  0  0  0  0  0
  189.7250  176.9690  147.0640 C   0  0  0  0  0  3  0  0  0  0  0  0
  187.5320  177.7690  147.7030 C   0  0  0  0  0  3  0  0  0  0  0  0
  187.2020  177.9390  146.3560 C   0  0  0  0  0  3  0  0  0  0  0  0
  181.8310  178.6380  141.7380 N   0  0  0  0  0  1  0  0  0  0  0  0
  182.5730  178.8580  140.5070 C   0  0  0  0  0  2  0  0  0  0  0  0
  1  6  1  0  0  0  0
  2  4  1  0  0  0  0
  2  6  2  0  0  0  0
  3 13  1  0  0  0  0
  5 27  1  6  0  0  0
  5 12  1  0  0  0  0
  6 21  1  0  0  0  0
  7 11  1  0  0  0  0
  7  9  2  0  0  0  0
  8  1  2  0  0  0  0
  9  2  1  0  0  0  0
 10  3  1  0  0  0  0
 10  5  1  0  0  0  0
 11  4  1  0  0  0  0
 12  8  1  0  0  0  0
 13  9  1  0  0  0  0
 13  8  1  0  0  0  0
 14 18  1  0  0  0  0
 15 16  2  0  0  0  0
 15 19  1  0  0  0  0
 16 17  1  0  0  0  0
 17 18  2  0  0  0  0
 18  7  1  0  0  0  0
 19 14  2  0  0  0  0
 21 22  2  0  0  0  0
 21 25  1  0  0  0  0
 22 23  1  0  0  0  0
 23 20  2  0  0  0  0
 24 20  1  0  0  0  0
 25 24  2  0  0  0  0
 27 26  1  0  0  0  0
M  END
>  <MODEL>
2

>  <REMARK>
 VINA RESULT:      -8.8      1.217      1.588
  Name = 
  3 active torsions:
  status: ('A' for Active; 'I' for Inactive)
    1  A    between atoms: C_9  and  C_15
    2  A    between atoms: C_13  and  C_22
    3  A    between atoms: C_14  and  C_17
                            x       y       z     vdW  Elec       q    Type
                         _______ _______ _______ _____ _____    ______ ____

>  <TORSDO>
F 3

$$$$
=
 OpenBabel10262420153D

 27 31  0  0  1  0  0  0  0  0999 V2000
  186.2110  177.9720  143.6310 C   0  0  0  0  0  3  0  0  0  0  0  0
  188.5380  177.7610  142.9470 C   0  0  0  0  0  0  0  0  0  0  0  0
  186.3120  178.7180  139.9800 C   0  0  0  0  0  2  0  0  0  0  0  0
  189.9380  177.5500  143.0700 N   0  0  0  0  0  2  0  0  0  0  0  0
  183.9950  178.9910  140.8340 C   0  0  2  0  0  3  0  0  0  0  0  0
  187.6520  177.7870  143.9670 C   0  0  0  0  0  0  0  0  0  0  0  0
  189.1220  177.7970  140.7050 C   0  0  0  0  0  0  0  0  0  0  0  0
  185.7840  178.1580  142.3740 C   0  0  0  0  0  0  0  0  0  0  0  0
  188.1100  177.9160  141.5730 C   0  0  0  0  0  0  0  0  0  0  0  0
  184.8430  178.4340  139.6940 C   0  0  0  0  0  2  0  0  0  0  0  0
  190.7280  177.5420  141.4840 S   0  0  0  0  0  0  0  0  0  0  0  0
  184.3060  178.2410  142.1250 C   0  0  0  0  0  2  0  0  0  0  0  0
  186.7190  178.1550  141.2690 N   0  0  0  0  0  0  0  0  0  0  0  0
  189.1620  178.8590  138.4620 C   0  0  0  0  0  3  0  0  0  0  0  0
  188.6890  177.5610  136.4720 C   0  0  0  0  0  3  0  0  0  0  0  0
  188.4970  176.4190  137.2580 C   0  0  0  0  0  3  0  0  0  0  0  0
  188.6310  176.4970  138.6460 C   0  0  0  0  0  3  0  0  0  0  0  0
  188.9720  177.7160  139.2500 C   0  0  0  0  0  0  0  0  0  0  0  0
  189.0200  178.7830  137.0740 C   0  0  0  0  0  3  0  0  0  0  0  0
  188.6770  177.2690  148.1190 C   0  0  0  0  0  3  0  0  0  0  0  0
  188.0320  177.6140  145.3990 C   0  0  0  0  0  0  0  0  0  0  0  0
  189.2740  177.0740  145.7820 C   0  0  0  0  0  3  0  0  0  0  0  0
  189.5970  176.9080  147.1320 C   0  0  0  0  0  3  0  0  0  0  0  0
  187.4390  177.8080  147.7560 C   0  0  0  0  0  3  0  0  0  0  0  0
  187.1210  177.9810  146.4070 C   0  0  0  0  0  3  0  0  0  0  0  0
  182.2110  179.4640  139.2420 N   0  0  0  0  0  1  0  0  0  0  0  0
  182.5180  178.8380  140.5180 C   0  0  0  0  0  2  0  0  0  0  0  0
  1  6  1  0  0  0  0
  2  4  1  0  0  0  0
  2  6  2  0  0  0  0
  3 13  1  0  0  0  0
  5 27  1  6  0  0  0
  5 12  1  0  0  0  0
  6 21  1  0  0  0  0
  7 11  1  0  0  0  0
  7  9  2  0  0  0  0
  8  1  2  0  0  0  0
  9  2  1  0  0  0  0
 10  3  1  0  0  0  0
 10  5  1  0  0  0  0
 11  4  1  0  0  0  0
 12  8  1  0  0  0  0
 13  9  1  0  0  0  0
 13  8  1  0  0  0  0
 14 18  1  0  0  0  0
 15 19  1  0  0  0  0
 15 16  2  0  0  0  0
 16 17  1  0  0  0  0
 17 18  2  0  0  0  0
 18  7  1  0  0  0  0
 19 14  2  0  0  0  0
 21 22  2  0  0  0  0
 21 25  1  0  0  0  0
 22 23  1  0  0  0  0
 23 20  2  0  0  0  0
 24 20  1  0  0  0  0
 25 24  2  0  0  0  0
 26 27  1  0  0  0  0
M  END
>  <MODEL>
3

>  <REMARK>
 VINA RESULT:      -8.7      1.459      2.031
  Name = 
  3 active torsions:
  status: ('A' for Active; 'I' for Inactive)
    1  A    between atoms: C_9  and  C_15
    2  A    between atoms: C_13  and  C_22
    3  A    between atoms: C_14  and  C_17
                            x       y       z     vdW  Elec       q    Type
                         _______ _______ _______ _____ _____    ______ ____

>  <TORSDO>
F 3

$$$$
=
 OpenBabel10262420153D

 27 31  0  0  1  0  0  0  0  0999 V2000
  187.6640  177.9530  143.0180 C   0  0  0  0  0  3  0  0  0  0  0  0
  187.3240  177.9020  145.4280 C   0  0  0  0  0  0  0  0  0  0  0  0
  191.0430  177.6290  144.5580 C   0  0  0  0  0  2  0  0  0  0  0  0
  186.6260  177.9440  146.6650 N   0  0  0  0  0  2  0  0  0  0  0  0
  191.2530  177.7880  142.0870 C   0  0  2  0  0  3  0  0  0  0  0  0
  186.7750  178.0870  144.2070 C   0  0  0  0  0  0  0  0  0  0  0  0
  189.0680  177.3810  146.8610 C   0  0  0  0  0  0  0  0  0  0  0  0
  188.9770  177.7050  143.1260 C   0  0  0  0  0  0  0  0  0  0  0  0
  188.7290  177.5920  145.5830 C   0  0  0  0  0  0  0  0  0  0  0  0
  191.7500  177.0610  143.3340 C   0  0  0  0  0  2  0  0  0  0  0  0
  187.7090  177.6010  148.0250 S   0  0  0  0  0  0  0  0  0  0  0  0
  189.7730  177.4930  141.8710 C   0  0  0  0  0  2  0  0  0  0  0  0
  189.5890  177.5250  144.4260 N   0  0  0  0  0  0  0  0  0  0  0  0
  190.8480  175.6520  146.8000 C   0  0  0  0  0  3  0  0  0  0  0  0
  192.8400  175.8820  148.1590 C   0  0  0  0  0  3  0  0  0  0  0  0
  192.3570  177.0930  148.6690 C   0  0  0  0  0  3  0  0  0  0  0  0
  191.1180  177.5820  148.2500 C   0  0  0  0  0  3  0  0  0  0  0  0
  190.3640  176.8660  147.3080 C   0  0  0  0  0  0  0  0  0  0  0  0
  192.0830  175.1600  147.2270 C   0  0  0  0  0  3  0  0  0  0  0  0
  182.6030  178.9060  143.5110 C   0  0  0  0  0  3  0  0  0  0  0  0
  185.3310  178.3890  143.9840 C   0  0  0  0  0  0  0  0  0  0  0  0
  184.4690  178.7340  145.0420 C   0  0  0  0  0  3  0  0  0  0  0  0
  183.1160  178.9960  144.8070 C   0  0  0  0  0  3  0  0  0  0  0  0
  183.4450  178.5650  142.4490 C   0  0  0  0  0  3  0  0  0  0  0  0
  184.7990  178.3120  142.6830 C   0  0  0  0  0  3  0  0  0  0  0  0
  191.1320  177.1680  139.7330 N   0  0  0  0  0  1  0  0  0  0  0  0
  192.0300  177.3340  140.8640 C   0  0  0  0  0  2  0  0  0  0  0  0
  1  8  2  0  0  0  0
  1  6  1  0  0  0  0
  2  9  1  0  0  0  0
  2  4  1  0  0  0  0
  4 11  1  0  0  0  0
  5 27  1  6  0  0  0
  5 10  1  0  0  0  0
  6  2  2  0  0  0  0
  7 18  1  0  0  0  0
  7 11  1  0  0  0  0
  8 13  1  0  0  0  0
  9  7  2  0  0  0  0
 10  3  1  0  0  0  0
 12  5  1  0  0  0  0
 12  8  1  0  0  0  0
 13  3  1  0  0  0  0
 13  9  1  0  0  0  0
 14 19  2  0  0  0  0
 14 18  1  0  0  0  0
 15 16  2  0  0  0  0
 17 16  1  0  0  0  0
 18 17  2  0  0  0  0
 19 15  1  0  0  0  0
 20 23  1  0  0  0  0
 21  6  1  0  0  0  0
 21 22  1  0  0  0  0
 23 22  2  0  0  0  0
 24 25  1  0  0  0  0
 24 20  2  0  0  0  0
 25 21  2  0  0  0  0
 26 27  1  0  0  0  0
M  END
>  <MODEL>
4

>  <REMARK>
 VINA RESULT:      -8.5      3.101      7.654
  Name = 
  3 active torsions:
  status: ('A' for Active; 'I' for Inactive)
    1  A    between atoms: C_9  and  C_15
    2  A    between atoms: C_13  and  C_22
    3  A    between atoms: C_14  and  C_17
                            x       y       z     vdW  Elec       q    Type
                         _______ _______ _______ _____ _____    ______ ____

>  <TORSDO>
F 3

$$$$
=
 OpenBabel10262420153D

 27 31  0  0  1  0  0  0  0  0999 V2000
  186.6840  178.3820  141.9470 C   0  0  0  0  0  3  0  0  0  0  0  0
  184.3190  178.5380  142.5020 C   0  0  0  0  0  0  0  0  0  0  0  0
  184.8240  178.1320  138.7270 C   0  0  0  0  0  2  0  0  0  0  0  0
  183.1550  178.6430  143.3110 N   0  0  0  0  0  2  0  0  0  0  0  0
  187.2620  177.8910  138.3150 C   0  0  2  0  0  3  0  0  0  0  0  0
  185.5870  178.4300  142.9560 C   0  0  0  0  0  0  0  0  0  0  0  0
  182.7240  178.7690  140.8380 C   0  0  0  0  0  0  0  0  0  0  0  0
  186.4490  178.3950  140.6280 C   0  0  0  0  0  0  0  0  0  0  0  0
  184.0280  178.5980  141.0850 C   0  0  0  0  0  0  0  0  0  0  0  0
  185.9740  178.5430  137.8180 C   0  0  0  0  0  2  0  0  0  0  0  0
  181.6970  178.8160  142.3190 S   0  0  0  0  0  0  0  0  0  0  0  0
  187.6220  178.4390  139.6910 C   0  0  0  0  0  2  0  0  0  0  0  0
  185.0960  178.4890  140.1200 N   0  0  0  0  0  0  0  0  0  0  0  0
  181.6370  178.0120  138.7390 C   0  0  0  0  0  3  0  0  0  0  0  0
  181.0590  179.6020  137.0040 C   0  0  0  0  0  3  0  0  0  0  0  0
  181.5770  180.6450  137.7820 C   0  0  0  0  0  3  0  0  0  0  0  0
  182.1290  180.3720  139.0350 C   0  0  0  0  0  3  0  0  0  0  0  0
  182.1530  179.0560  139.5200 C   0  0  0  0  0  0  0  0  0  0  0  0
  181.0920  178.2850  137.4820 C   0  0  0  0  0  3  0  0  0  0  0  0
  186.7050  178.2940  147.1140 C   0  0  0  0  0  3  0  0  0  0  0  0
  185.9490  178.3830  144.4030 C   0  0  0  0  0  0  0  0  0  0  0  0
  185.2280  179.0990  145.3760 C   0  0  0  0  0  3  0  0  0  0  0  0
  185.5990  179.0510  146.7230 C   0  0  0  0  0  3  0  0  0  0  0  0
  187.4330  177.5760  146.1610 C   0  0  0  0  0  3  0  0  0  0  0  0
  187.0560  177.6180  144.8170 C   0  0  0  0  0  3  0  0  0  0  0  0
  188.9200  179.5190  137.5770 N   0  0  0  0  0  1  0  0  0  0  0  0
  188.4040  178.1770  137.3560 C   0  0  0  0  0  2  0  0  0  0  0  0
  1  6  1  0  0  0  0
  2  6  2  0  0  0  0
  2  4  1  0  0  0  0
  3 13  1  0  0  0  0
  5 27  1  6  0  0  0
  5 12  1  0  0  0  0
  6 21  1  0  0  0  0
  7  9  2  0  0  0  0
  7 11  1  0  0  0  0
  8  1  2  0  0  0  0
  9  2  1  0  0  0  0
 10  5  1  0  0  0  0
 10  3  1  0  0  0  0
 11  4  1  0  0  0  0
 12  8  1  0  0  0  0
 13  8  1  0  0  0  0
 13  9  1  0  0  0  0
 14 18  1  0  0  0  0
 15 19  1  0  0  0  0
 15 16  2  0  0  0  0
 16 17  1  0  0  0  0
 17 18  2  0  0  0  0
 18  7  1  0  0  0  0
 19 14  2  0  0  0  0
 21 25  2  0  0  0  0
 21 22  1  0  0  0  0
 22 23  2  0  0  0  0
 23 20  1  0  0  0  0
 24 20  2  0  0  0  0
 25 24  1  0  0  0  0
 27 26  1  0  0  0  0
M  END
>  <MODEL>
5

>  <REMARK>
 VINA RESULT:      -8.3      3.438      5.947
  Name = 
  3 active torsions:
  status: ('A' for Active; 'I' for Inactive)
    1  A    between atoms: C_9  and  C_15
    2  A    between atoms: C_13  and  C_22
    3  A    between atoms: C_14  and  C_17
                            x       y       z     vdW  Elec       q    Type
                         _______ _______ _______ _____ _____    ______ ____

>  <TORSDO>
F 3

$$$$
=
 OpenBabel10262420153D

 27 31  0  0  1  0  0  0  0  0999 V2000
  187.9020  177.5050  144.6320 C   0  0  0  0  0  3  0  0  0  0  0  0
  187.5000  177.7580  142.2450 C   0  0  0  0  0  0  0  0  0  0  0  0
  190.9130  176.1490  142.9040 C   0  0  0  0  0  2  0  0  0  0  0  0
  186.8060  178.0870  141.0490 N   0  0  0  0  0  2  0  0  0  0  0  0
  191.1500  175.8650  145.3610 C   0  0  2  0  0  3  0  0  0  0  0  0
  186.9990  177.8470  143.4970 C   0  0  0  0  0  0  0  0  0  0  0  0
  189.1950  177.3770  140.7110 C   0  0  0  0  0  0  0  0  0  0  0  0
  189.1580  177.0760  144.4490 C   0  0  0  0  0  0  0  0  0  0  0  0
  188.8650  177.3390  142.0080 C   0  0  0  0  0  0  0  0  0  0  0  0
  191.8720  176.2740  144.0790 C   0  0  0  0  0  2  0  0  0  0  0  0
  187.8420  177.8750  139.6270 S   0  0  0  0  0  0  0  0  0  0  0  0
  190.0220  176.8470  145.6550 C   0  0  0  0  0  2  0  0  0  0  0  0
  189.7080  176.9530  143.1150 N   0  0  0  0  0  0  0  0  0  0  0  0
  190.7650  176.3620  139.0790 C   0  0  0  0  0  3  0  0  0  0  0  0
  193.1360  176.8490  139.1790 C   0  0  0  0  0  3  0  0  0  0  0  0
  192.9220  177.6800  140.2860 C   0  0  0  0  0  3  0  0  0  0  0  0
  191.6320  177.8470  140.7940 C   0  0  0  0  0  3  0  0  0  0  0  0
  190.5500  177.1950  140.1860 C   0  0  0  0  0  0  0  0  0  0  0  0
  192.0570  176.1880  138.5770 C   0  0  0  0  0  3  0  0  0  0  0  0
  183.0100  179.1750  144.4350 C   0  0  0  0  0  3  0  0  0  0  0  0
  185.6080  178.2910  143.8030 C   0  0  0  0  0  0  0  0  0  0  0  0
  184.6420  178.4680  142.7950 C   0  0  0  0  0  3  0  0  0  0  0  0
  183.3510  178.9020  143.1080 C   0  0  0  0  0  3  0  0  0  0  0  0
  183.9560  179.0040  145.4490 C   0  0  0  0  0  3  0  0  0  0  0  0
  185.2440  178.5630  145.1350 C   0  0  0  0  0  3  0  0  0  0  0  0
  191.7290  176.8650  147.5070 N   0  0  0  0  0  1  0  0  0  0  0  0
  192.1150  175.8560  146.5330 C   0  0  0  0  0  2  0  0  0  0  0  0
  2  6  2  0  0  0  0
  3 13  1  0  0  0  0
  3 10  1  0  0  0  0
  4  2  1  0  0  0  0
  5 12  1  0  0  0  0
  5 27  1  1  0  0  0
  6 21  1  0  0  0  0
  6  1  1  0  0  0  0
  7  9  2  0  0  0  0
  8  1  2  0  0  0  0
  8 12  1  0  0  0  0
  9  2  1  0  0  0  0
  9 13  1  0  0  0  0
 10  5  1  0  0  0  0
 11  7  1  0  0  0  0
 11  4  1  0  0  0  0
 13  8  1  0  0  0  0
 14 18  1  0  0  0  0
 15 16  2  0  0  0  0
 16 17  1  0  0  0  0
 18  7  1  0  0  0  0
 18 17  2  0  0  0  0
 19 14  2  0  0  0  0
 19 15  1  0  0  0  0
 20 24  1  0  0  0  0
 21 25  1  0  0  0  0
 22 23  1  0  0  0  0
 22 21  2  0  0  0  0
 23 20  2  0  0  0  0
 25 24  2  0  0  0  0
 27 26  1  0  0  0  0
M  END
>  <MODEL>
6

>  <REMARK>
 VINA RESULT:      -8.2      2.127      5.673
  Name = 
  3 active torsions:
  status: ('A' for Active; 'I' for Inactive)
    1  A    between atoms: C_9  and  C_15
    2  A    between atoms: C_13  and  C_22
    3  A    between atoms: C_14  and  C_17
                            x       y       z     vdW  Elec       q    Type
                         _______ _______ _______ _____ _____    ______ ____

>  <TORSDO>
F 3

$$$$
=
 OpenBabel10262420153D

 27 31  0  0  1  0  0  0  0  0999 V2000
  184.3660  178.6940  142.1110 C   0  0  0  0  0  3  0  0  0  0  0  0
  186.1650  178.3390  140.5100 C   0  0  0  0  0  0  0  0  0  0  0  0
  187.3120  177.5230  144.0720 C   0  0  0  0  0  2  0  0  0  0  0  0
  186.8180  178.2690  139.2490 N   0  0  0  0  0  2  0  0  0  0  0  0
  185.3630  177.8360  145.5810 C   0  0  2  0  0  3  0  0  0  0  0  0
  184.8570  178.6160  140.7060 C   0  0  0  0  0  0  0  0  0  0  0  0
  188.3270  177.9220  141.2300 C   0  0  0  0  0  0  0  0  0  0  0  0
  185.1600  178.4560  143.1640 C   0  0  0  0  0  0  0  0  0  0  0  0
  187.0630  178.1170  141.6230 C   0  0  0  0  0  0  0  0  0  0  0  0
  186.8630  178.0680  145.4210 C   0  0  0  0  0  2  0  0  0  0  0  0
  188.5460  177.9280  139.4400 S   0  0  0  0  0  0  0  0  0  0  0  0
  184.5990  178.6510  144.5430 C   0  0  0  0  0  2  0  0  0  0  0  0
  186.5590  178.1360  142.9760 N   0  0  0  0  0  0  0  0  0  0  0  0
  190.1910  176.6610  142.2780 C   0  0  0  0  0  3  0  0  0  0  0  0
  191.6930  177.7470  143.8370 C   0  0  0  0  0  3  0  0  0  0  0  0
  190.9860  178.9470  143.6890 C   0  0  0  0  0  3  0  0  0  0  0  0
  189.8780  179.0030  142.8410 C   0  0  0  0  0  3  0  0  0  0  0  0
  189.4830  177.8620  142.1270 C   0  0  0  0  0  0  0  0  0  0  0  0
  191.2930  176.6040  143.1340 C   0  0  0  0  0  3  0  0  0  0  0  0
  182.0350  179.2850  137.5200 C   0  0  0  0  0  3  0  0  0  0  0  0
  183.8890  178.8720  139.5990 C   0  0  0  0  0  0  0  0  0  0  0  0
  183.2810  180.1280  139.4150 C   0  0  0  0  0  3  0  0  0  0  0  0
  182.3650  180.3350  138.3800 C   0  0  0  0  0  3  0  0  0  0  0  0
  182.6300  178.0320  137.6880 C   0  0  0  0  0  3  0  0  0  0  0  0
  183.5510  177.8280  138.7170 C   0  0  0  0  0  3  0  0  0  0  0  0
  185.6810  179.3970  147.4270 N   0  0  0  0  0  1  0  0  0  0  0  0
  184.9080  178.2530  146.9690 C   0  0  0  0  0  2  0  0  0  0  0  0
  1  8  2  0  0  0  0
  2  6  2  0  0  0  0
  2  9  1  0  0  0  0
  3 10  1  0  0  0  0
  4 11  1  0  0  0  0
  4  2  1  0  0  0  0
  5 27  1  1  0  0  0
  6  1  1  0  0  0  0
  7  9  2  0  0  0  0
  7 18  1  0  0  0  0
  8 12  1  0  0  0  0
  9 13  1  0  0  0  0
 10  5  1  0  0  0  0
 11  7  1  0  0  0  0
 12  5  1  0  0  0  0
 13  8  1  0  0  0  0
 13  3  1  0  0  0  0
 14 19  1  0  0  0  0
 16 15  1  0  0  0  0
 17 16  2  0  0  0  0
 18 14  2  0  0  0  0
 18 17  1  0  0  0  0
 19 15  2  0  0  0  0
 20 24  2  0  0  0  0
 20 23  1  0  0  0  0
 21  6  1  0  0  0  0
 22 21  1  0  0  0  0
 23 22  2  0  0  0  0
 24 25  1  0  0  0  0
 25 21  2  0  0  0  0
 27 26  1  0  0  0  0
M  END
>  <MODEL>
7

>  <REMARK>
 VINA RESULT:      -8.2      2.715      6.769
  Name = 
  3 active torsions:
  status: ('A' for Active; 'I' for Inactive)
    1  A    between atoms: C_9  and  C_15
    2  A    between atoms: C_13  and  C_22
    3  A    between atoms: C_14  and  C_17
                            x       y       z     vdW  Elec       q    Type
                         _______ _______ _______ _____ _____    ______ ____

>  <TORSDO>
F 3

$$$$
=
 OpenBabel10262420153D

 27 31  0  0  1  0  0  0  0  0999 V2000
  188.6490  177.7350  141.4100 C   0  0  0  0  0  3  0  0  0  0  0  0
  190.3270  177.0070  143.0150 C   0  0  0  0  0  0  0  0  0  0  0  0
  186.9270  177.5020  144.7080 C   0  0  0  0  0  2  0  0  0  0  0  0
  191.5910  176.5750  143.5020 N   0  0  0  0  0  2  0  0  0  0  0  0
  185.2970  178.1480  142.9480 C   0  0  2  0  0  3  0  0  0  0  0  0
  190.0180  177.2340  141.7190 C   0  0  0  0  0  0  0  0  0  0  0  0
  189.8760  177.0150  145.2880 C   0  0  0  0  0  0  0  0  0  0  0  0
  187.7180  177.9180  142.3570 C   0  0  0  0  0  0  0  0  0  0  0  0
  189.3630  177.2340  144.0710 C   0  0  0  0  0  0  0  0  0  0  0  0
  185.7640  178.4260  144.3740 C   0  0  0  0  0  2  0  0  0  0  0  0
  191.5880  176.4470  145.2700 S   0  0  0  0  0  0  0  0  0  0  0  0
  186.3990  178.5150  141.9610 C   0  0  0  0  0  2  0  0  0  0  0  0
  188.0220  177.6600  143.7490 N   0  0  0  0  0  0  0  0  0  0  0  0
  188.5420  176.3390  147.2690 C   0  0  0  0  0  3  0  0  0  0  0  0
  187.9320  177.9630  148.9600 C   0  0  0  0  0  3  0  0  0  0  0  0
  188.5940  178.9660  148.2410 C   0  0  0  0  0  3  0  0  0  0  0  0
  189.2250  178.6580  147.0330 C   0  0  0  0  0  3  0  0  0  0  0  0
  189.2070  177.3420  146.5490 C   0  0  0  0  0  0  0  0  0  0  0  0
  187.9040  176.6500  148.4720 C   0  0  0  0  0  3  0  0  0  0  0  0
  192.7250  176.6780  138.4150 C   0  0  0  0  0  3  0  0  0  0  0  0
  190.9750  177.0380  140.5920 C   0  0  0  0  0  0  0  0  0  0  0  0
  192.3020  177.5050  140.6490 C   0  0  0  0  0  3  0  0  0  0  0  0
  193.1720  177.3220  139.5710 C   0  0  0  0  0  3  0  0  0  0  0  0
  191.4110  176.2080  138.3410 C   0  0  0  0  0  3  0  0  0  0  0  0
  190.5440  176.3840  139.4220 C   0  0  0  0  0  3  0  0  0  0  0  0
  183.2740  179.1780  143.8360 N   0  0  0  0  0  1  0  0  0  0  0  0
  184.0570  178.9640  142.6290 C   0  0  0  0  0  2  0  0  0  0  0  0
  1  6  1  0  0  0  0
  1  8  2  0  0  0  0
  2  4  1  0  0  0  0
  2  9  1  0  0  0  0
  4 11  1  0  0  0  0
  5 27  1  6  0  0  0
  5 10  1  0  0  0  0
  6  2  2  0  0  0  0
  7 18  1  0  0  0  0
  8 13  1  0  0  0  0
  9  7  2  0  0  0  0
 10  3  1  0  0  0  0
 11  7  1  0  0  0  0
 12  8  1  0  0  0  0
 12  5  1  0  0  0  0
 13  9  1  0  0  0  0
 13  3  1  0  0  0  0
 14 19  1  0  0  0  0
 16 15  1  0  0  0  0
 17 16  2  0  0  0  0
 18 17  1  0  0  0  0
 18 14  2  0  0  0  0
 19 15  2  0  0  0  0
 20 23  1  0  0  0  0
 21 22  1  0  0  0  0
 21  6  1  0  0  0  0
 23 22  2  0  0  0  0
 24 20  2  0  0  0  0
 24 25  1  0  0  0  0
 25 21  2  0  0  0  0
 27 26  1  0  0  0  0
M  END
>  <MODEL>
8

>  <REMARK>
 VINA RESULT:      -8.0      2.125      6.218
  Name = 
  3 active torsions:
  status: ('A' for Active; 'I' for Inactive)
    1  A    between atoms: C_9  and  C_15
    2  A    between atoms: C_13  and  C_22
    3  A    between atoms: C_14  and  C_17
                            x       y       z     vdW  Elec       q    Type
                         _______ _______ _______ _____ _____    ______ ____

>  <TORSDO>
F 3

$$$$
=
 OpenBabel10262420153D

 27 31  0  0  1  0  0  0  0  0999 V2000
  184.9230  178.3210  144.9230 C   0  0  0  0  0  3  0  0  0  0  0  0
  185.6860  178.2680  142.6120 C   0  0  0  0  0  0  0  0  0  0  0  0
  188.4910  177.2470  145.0100 C   0  0  0  0  0  2  0  0  0  0  0  0
  185.6200  178.3690  141.1950 N   0  0  0  0  0  2  0  0  0  0  0  0
  187.5540  177.2520  147.3110 C   0  0  2  0  0  3  0  0  0  0  0  0
  184.6440  178.4110  143.4610 C   0  0  0  0  0  0  0  0  0  0  0  0
  187.9300  177.9820  142.1100 C   0  0  0  0  0  0  0  0  0  0  0  0
  186.1450  178.0620  145.4070 C   0  0  0  0  0  0  0  0  0  0  0  0
  187.0280  178.0300  143.0980 C   0  0  0  0  0  0  0  0  0  0  0  0
  188.7630  177.6290  146.4590 C   0  0  0  0  0  2  0  0  0  0  0  0
  187.2200  178.1660  140.4620 S   0  0  0  0  0  0  0  0  0  0  0  0
  186.3470  178.0850  146.8950 C   0  0  0  0  0  2  0  0  0  0  0  0
  187.2710  177.8850  144.5140 N   0  0  0  0  0  0  0  0  0  0  0  0
  189.9950  178.8640  143.1670 C   0  0  0  0  0  3  0  0  0  0  0  0
  192.1520  177.8760  142.6750 C   0  0  0  0  0  3  0  0  0  0  0  0
  191.5400  176.9600  141.8110 C   0  0  0  0  0  3  0  0  0  0  0  0
  190.1570  176.9990  141.6190 C   0  0  0  0  0  3  0  0  0  0  0  0
  189.3810  177.9460  142.3030 C   0  0  0  0  0  0  0  0  0  0  0  0
  191.3790  178.8300  143.3510 C   0  0  0  0  0  3  0  0  0  0  0  0
  180.5960  179.2340  142.2380 C   0  0  0  0  0  3  0  0  0  0  0  0
  183.2450  178.6770  143.0190 C   0  0  0  0  0  0  0  0  0  0  0  0
  182.8690  178.6340  141.6630 C   0  0  0  0  0  3  0  0  0  0  0  0
  181.5530  178.9040  141.2760 C   0  0  0  0  0  3  0  0  0  0  0  0
  180.9520  179.2810  143.5890 C   0  0  0  0  0  3  0  0  0  0  0  0
  182.2650  179.0020  143.9760 C   0  0  0  0  0  3  0  0  0  0  0  0
  189.0800  178.2550  148.9260 N   0  0  0  0  0  1  0  0  0  0  0  0
  187.8430  177.5030  148.7810 C   0  0  0  0  0  2  0  0  0  0  0  0
  1  8  2  0  0  0  0
  2  9  1  0  0  0  0
  2  6  2  0  0  0  0
  3 10  1  0  0  0  0
  4  2  1  0  0  0  0
  5 27  1  1  0  0  0
  6  1  1  0  0  0  0
  7 18  1  0  0  0  0
  7  9  2  0  0  0  0
  8 12  1  0  0  0  0
  9 13  1  0  0  0  0
 10  5  1  0  0  0  0
 11  4  1  0  0  0  0
 11  7  1  0  0  0  0
 12  5  1  0  0  0  0
 13  3  1  0  0  0  0
 13  8  1  0  0  0  0
 14 19  1  0  0  0  0
 15 19  2  0  0  0  0
 16 15  1  0  0  0  0
 17 16  2  0  0  0  0
 17 18  1  0  0  0  0
 18 14  2  0  0  0  0
 20 24  1  0  0  0  0
 21  6  1  0  0  0  0
 21 25  1  0  0  0  0
 22 21  2  0  0  0  0
 23 22  1  0  0  0  0
 23 20  2  0  0  0  0
 24 25  2  0  0  0  0
 27 26  1  0  0  0  0
M  END
>  <MODEL>
9

>  <REMARK>
 VINA RESULT:      -7.9      2.929      6.624
  Name = 
  3 active torsions:
  status: ('A' for Active; 'I' for Inactive)
    1  A    between atoms: C_9  and  C_15
    2  A    between atoms: C_13  and  C_22
    3  A    between atoms: C_14  and  C_17
                            x       y       z     vdW  Elec       q    Type
                         _______ _______ _______ _____ _____    ______ ____

>  <TORSDO>
F 3

$$$$
