=
 OpenBabel10252415063D

 34 38  0  0  1  0  0  0  0  0999 V2000
  189.8170  177.3310  137.3480 C   0  0  2  0  0  3  0  0  0  0  0  0
  187.8310  175.9540  137.1220 C   0  0  0  0  0  2  0  0  0  0  0  0
  188.0700  177.2420  139.0840 C   0  0  1  0  0  3  0  0  0  0  0  0
  186.7540  178.5690  140.7690 N   0  0  0  0  0  0  0  0  0  0  0  0
  189.1260  177.5230  134.9010 C   0  0  0  0  0  2  0  0  0  0  0  0
  188.1490  176.3780  134.6530 C   0  0  0  0  0  2  0  0  0  0  0  0
  186.1010  178.4980  138.5190 O   0  0  0  0  0  0  0  0  0  0  0  0
  188.3670  177.2100  137.6400 N   0  0  1  0  0  0  0  0  0  0  0  0
  190.1990  177.0750  135.8840 C   0  0  0  0  0  2  0  0  0  0  0  0
  189.2990  177.5970  139.9390 C   0  0  1  0  0  3  0  0  0  0  0  0
  190.6970  176.4850  138.2910 C   0  0  0  0  0  2  0  0  0  0  0  0
  187.1440  176.2160  135.7900 C   0  0  0  0  0  2  0  0  0  0  0  0
  187.7570  178.2650  141.7480 C   0  0  0  0  0  3  0  0  0  0  0  0
  188.9530  177.7530  141.4120 C   0  0  0  0  0  0  0  0  0  0  0  0
  186.9300  178.1580  139.4060 C   0  0  0  0  0  0  0  0  0  0  0  0
  190.3140  176.5690  139.7110 N   0  0  0  0  0  2  0  0  0  0  0  0
  191.4420  176.1180  143.7710 C   0  0  0  0  0  0  0  0  0  0  0  0
  191.9190  177.2220  144.4790 C   0  0  0  0  0  3  0  0  0  0  0  0
  189.9680  177.5660  142.4810 C   0  0  0  0  0  0  0  0  0  0  0  0
  191.4300  178.4990  144.1920 C   0  0  0  0  0  3  0  0  0  0  0  0
  190.4750  176.2890  142.7750 C   0  0  0  0  0  3  0  0  0  0  0  0
  190.4630  178.6700  143.1970 C   0  0  0  0  0  3  0  0  0  0  0  0
  191.9170  174.8800  144.0460 F   0  0  0  0  0  0  0  0  0  0  0  0
  185.5800  179.3280  141.1770 C   0  0  0  0  0  2  0  0  0  0  0  0
  184.8150  178.5590  142.2360 C   0  0  0  0  0  2  0  0  0  0  0  0
  185.2690  179.0040  143.6130 C   0  0  0  0  0  2  0  0  0  0  0  0
  185.1750  177.8490  144.5990 C   0  0  0  0  0  2  0  0  0  0  0  0
  184.9530  178.8460  147.2560 O   0  0  0  0  0  0  0  0  0  0  0  0
  186.2720  177.9040  145.5580 N   0  0  0  0  0  0  0  0  0  0  0  0
  186.0870  178.4530  146.8740 C   0  0  0  0  0  0  0  0  0  0  0  0
  188.2630  177.4730  147.5330 C   0  0  0  0  0  2  0  0  0  0  0  0
  188.5350  177.2670  146.0690 C   0  0  0  0  0  3  0  0  0  0  0  0
  187.5690  177.4350  145.1640 C   0  0  0  0  0  3  0  0  0  0  0  0
  187.2750  178.6160  147.7710 C   0  0  0  0  0  2  0  0  0  0  0  0
  1  9  1  6  0  0  0
  1  8  1  0  0  0  0
  1 11  1  0  0  0  0
  3 15  1  6  0  0  0
  3 10  1  0  0  0  0
  4 24  1  0  0  0  0
  4 13  1  0  0  0  0
  5  9  1  0  0  0  0
  6  5  1  0  0  0  0
  6 12  1  0  0  0  0
  7 15  2  0  0  0  0
  8  2  1  1  0  0  0
  8  3  1  0  0  0  0
 10 16  1  1  0  0  0
 10 14  1  0  0  0  0
 11 16  1  0  0  0  0
 12  2  1  0  0  0  0
 14 13  2  0  0  0  0
 14 19  1  0  0  0  0
 15  4  1  0  0  0  0
 17 23  1  0  0  0  0
 17 18  1  0  0  0  0
 19 21  1  0  0  0  0
 19 22  2  0  0  0  0
 20 18  2  0  0  0  0
 21 17  2  0  0  0  0
 22 20  1  0  0  0  0
 24 25  1  0  0  0  0
 25 26  1  0  0  0  0
 26 27  1  0  0  0  0
 27 29  1  0  0  0  0
 29 30  1  0  0  0  0
 30 28  2  0  0  0  0
 30 34  1  0  0  0  0
 31 34  1  0  0  0  0
 32 31  1  0  0  0  0
 33 29  1  0  0  0  0
 33 32  2  0  0  0  0
M  END
>  <MODEL>
1

>  <REMARK>
 VINA RESULT:      -9.1      0.000      0.000
  Name = 
  6 active torsions:
  status: ('A' for Active; 'I' for Inactive)
    1  A    between atoms: C_3  and  N_13
    2  A    between atoms: C_3  and  C_17
    3  A    between atoms: N_5  and  C_18
    4  A    between atoms: C_12  and  C_28
    5  A    between atoms: C_17  and  C_29
    6  A    between atoms: C_18  and  C_29
                            x       y       z     vdW  Elec       q    Type
                         _______ _______ _______ _____ _____    ______ ____

>  <TORSDO>
F 6

$$$$
=
 OpenBabel10252415063D

 34 38  0  0  1  0  0  0  0  0999 V2000
  181.7240  178.0260  140.4780 C   0  0  2  0  0  3  0  0  0  0  0  0
  182.2550  180.0270  139.2100 C   0  0  0  0  0  2  0  0  0  0  0  0
  183.9910  178.9890  140.4250 C   0  0  1  0  0  3  0  0  0  0  0  0
  186.4560  178.4860  140.3420 N   0  0  0  0  0  0  0  0  0  0  0  0
  180.4090  177.8270  138.3010 C   0  0  0  0  0  2  0  0  0  0  0  0
  180.4100  179.2220  137.6860 C   0  0  0  0  0  2  0  0  0  0  0  0
  185.1720  178.5360  138.3810 O   0  0  0  0  0  0  0  0  0  0  0  0
  182.7510  178.7320  139.6710 N   0  0  1  0  0  0  0  0  0  0  0  0
  180.3410  177.9390  139.8190 C   0  0  0  0  0  2  0  0  0  0  0  0
  184.0140  178.2920  141.7950 C   0  0  1  0  0  3  0  0  0  0  0  0
  181.6030  178.5720  141.9150 C   0  0  0  0  0  2  0  0  0  0  0  0
  181.7770  179.8950  137.7710 C   0  0  0  0  0  2  0  0  0  0  0  0
  186.4760  178.4920  141.7760 C   0  0  0  0  0  3  0  0  0  0  0  0
  185.3480  178.4580  142.5070 C   0  0  0  0  0  0  0  0  0  0  0  0
  185.2150  178.6310  139.6380 C   0  0  0  0  0  0  0  0  0  0  0  0
  182.8950  178.8120  142.5810 N   0  0  0  0  0  2  0  0  0  0  0  0
  186.7000  177.6820  145.9720 C   0  0  0  0  0  0  0  0  0  0  0  0
  185.7040  178.2260  146.7850 C   0  0  0  0  0  3  0  0  0  0  0  0
  185.4660  178.3640  143.9860 C   0  0  0  0  0  0  0  0  0  0  0  0
  184.5910  178.8410  146.2080 C   0  0  0  0  0  3  0  0  0  0  0  0
  186.5830  177.7540  144.5800 C   0  0  0  0  0  3  0  0  0  0  0  0
  184.4740  178.9130  144.8170 C   0  0  0  0  0  3  0  0  0  0  0  0
  187.7810  177.0870  146.5300 F   0  0  0  0  0  0  0  0  0  0  0  0
  187.7070  178.2940  139.6230 C   0  0  0  0  0  2  0  0  0  0  0  0
  188.6760  177.5040  140.4810 C   0  0  0  0  0  2  0  0  0  0  0  0
  190.0990  177.8810  140.1160 C   0  0  0  0  0  2  0  0  0  0  0  0
  191.0880  177.0240  140.8910 C   0  0  0  0  0  2  0  0  0  0  0  0
  190.2060  175.1390  142.8330 O   0  0  0  0  0  0  0  0  0  0  0  0
  190.9890  177.2920  142.3200 N   0  0  0  0  0  0  0  0  0  0  0  0
  190.5030  176.2950  143.2360 C   0  0  0  0  0  0  0  0  0  0  0  0
  191.3480  177.6760  145.1090 C   0  0  0  0  0  2  0  0  0  0  0  0
  191.4810  178.8050  144.1250 C   0  0  0  0  0  3  0  0  0  0  0  0
  191.3510  178.5880  142.8140 C   0  0  0  0  0  3  0  0  0  0  0  0
  190.2880  176.6640  144.6700 C   0  0  0  0  0  2  0  0  0  0  0  0
  1  9  1  6  0  0  0
  1 11  1  0  0  0  0
  3 15  1  6  0  0  0
  3 10  1  0  0  0  0
  4 13  1  0  0  0  0
  5  9  1  0  0  0  0
  6 12  1  0  0  0  0
  6  5  1  0  0  0  0
  7 15  2  0  0  0  0
  8  2  1  1  0  0  0
  8  3  1  0  0  0  0
  8  1  1  0  0  0  0
 10 14  1  1  0  0  0
 10 16  1  0  0  0  0
 11 16  1  0  0  0  0
 12  2  1  0  0  0  0
 13 14  2  0  0  0  0
 14 19  1  0  0  0  0
 15  4  1  0  0  0  0
 17 23  1  0  0  0  0
 17 18  1  0  0  0  0
 19 21  1  0  0  0  0
 19 22  2  0  0  0  0
 20 18  2  0  0  0  0
 21 17  2  0  0  0  0
 22 20  1  0  0  0  0
 24  4  1  0  0  0  0
 24 25  1  0  0  0  0
 26 25  1  0  0  0  0
 26 27  1  0  0  0  0
 27 29  1  0  0  0  0
 28 30  2  0  0  0  0
 29 33  1  0  0  0  0
 29 30  1  0  0  0  0
 30 34  1  0  0  0  0
 32 31  1  0  0  0  0
 33 32  2  0  0  0  0
 34 31  1  0  0  0  0
M  END
>  <MODEL>
2

>  <REMARK>
 VINA RESULT:      -8.8      3.035      6.154
  Name = 
  6 active torsions:
  status: ('A' for Active; 'I' for Inactive)
    1  A    between atoms: C_3  and  N_13
    2  A    between atoms: C_3  and  C_17
    3  A    between atoms: N_5  and  C_18
    4  A    between atoms: C_12  and  C_28
    5  A    between atoms: C_17  and  C_29
    6  A    between atoms: C_18  and  C_29
                            x       y       z     vdW  Elec       q    Type
                         _______ _______ _______ _____ _____    ______ ____

>  <TORSDO>
F 6

$$$$
=
 OpenBabel10252415063D

 34 38  0  0  1  0  0  0  0  0999 V2000
  186.5760  177.2250  137.4640 C   0  0  2  0  0  3  0  0  0  0  0  0
  188.3690  178.8010  137.0270 C   0  0  0  0  0  2  0  0  0  0  0  0
  187.8990  178.2500  139.2720 C   0  0  1  0  0  3  0  0  0  0  0  0
  188.9990  177.8740  141.5050 N   0  0  0  0  0  0  0  0  0  0  0  0
  187.7780  176.3380  135.3960 C   0  0  0  0  0  2  0  0  0  0  0  0
  188.6270  177.4950  134.8810 C   0  0  0  0  0  2  0  0  0  0  0  0
  190.0890  177.2900  139.5130 O   0  0  0  0  0  0  0  0  0  0  0  0
  187.9060  177.7220  137.8960 N   0  0  1  0  0  0  0  0  0  0  0  0
  186.4750  176.8790  135.9730 C   0  0  0  0  0  2  0  0  0  0  0  0
  186.5770  177.9790  140.0100 C   0  0  1  0  0  3  0  0  0  0  0  0
  185.4180  178.1540  137.8810 C   0  0  0  0  0  2  0  0  0  0  0  0
  189.3460  178.2350  136.0060 C   0  0  0  0  0  2  0  0  0  0  0  0
  187.7840  178.2950  142.1410 C   0  0  0  0  0  3  0  0  0  0  0  0
  186.6270  178.4130  141.4670 C   0  0  0  0  0  0  0  0  0  0  0  0
  189.0560  177.7460  140.0770 C   0  0  0  0  0  0  0  0  0  0  0  0
  185.5060  178.6430  139.2680 N   0  0  0  0  0  2  0  0  0  0  0  0
  182.9770  178.6760  142.4860 C   0  0  0  0  0  0  0  0  0  0  0  0
  183.0760  179.3710  143.6930 C   0  0  0  0  0  3  0  0  0  0  0  0
  185.3970  178.7550  142.2280 C   0  0  0  0  0  0  0  0  0  0  0  0
  184.3290  179.7570  144.1740 C   0  0  0  0  0  3  0  0  0  0  0  0
  184.1310  178.3670  141.7600 C   0  0  0  0  0  3  0  0  0  0  0  0
  185.4820  179.4490  143.4480 C   0  0  0  0  0  3  0  0  0  0  0  0
  181.7630  178.2990  142.0190 F   0  0  0  0  0  0  0  0  0  0  0  0
  190.1510  177.5500  142.3330 C   0  0  0  0  0  2  0  0  0  0  0  0
  190.3660  178.6420  143.3620 C   0  0  0  0  0  2  0  0  0  0  0  0
  190.9450  178.0400  144.6280 C   0  0  0  0  0  2  0  0  0  0  0  0
  190.1540  176.8070  145.0370 C   0  0  0  0  0  2  0  0  0  0  0  0
  190.6070  177.1620  147.8250 O   0  0  0  0  0  0  0  0  0  0  0  0
  189.1230  177.1580  146.0060 N   0  0  0  0  0  0  0  0  0  0  0  0
  189.4260  177.2880  147.4060 C   0  0  0  0  0  0  0  0  0  0  0  0
  187.2240  178.3730  147.7300 C   0  0  0  0  0  2  0  0  0  0  0  0
  186.8520  177.8680  146.3630 C   0  0  0  0  0  3  0  0  0  0  0  0
  187.7740  177.3400  145.5550 C   0  0  0  0  0  3  0  0  0  0  0  0
  188.3090  177.5100  148.3770 C   0  0  0  0  0  2  0  0  0  0  0  0
  1  9  1  6  0  0  0
  1 11  1  0  0  0  0
  1  8  1  0  0  0  0
  3 10  1  0  0  0  0
  3 15  1  1  0  0  0
  4 13  1  0  0  0  0
  4 24  1  0  0  0  0
  5  9  1  0  0  0  0
  6  5  1  0  0  0  0
  6 12  1  0  0  0  0
  7 15  2  0  0  0  0
  8  2  1  6  0  0  0
  8  3  1  0  0  0  0
 10 16  1  6  0  0  0
 10 14  1  0  0  0  0
 11 16  1  0  0  0  0
 12  2  1  0  0  0  0
 14 13  2  0  0  0  0
 14 19  1  0  0  0  0
 15  4  1  0  0  0  0
 17 18  1  0  0  0  0
 18 20  2  0  0  0  0
 19 22  2  0  0  0  0
 21 19  1  0  0  0  0
 21 17  2  0  0  0  0
 22 20  1  0  0  0  0
 23 17  1  0  0  0  0
 24 25  1  0  0  0  0
 25 26  1  0  0  0  0
 26 27  1  0  0  0  0
 27 29  1  0  0  0  0
 29 30  1  0  0  0  0
 30 28  2  0  0  0  0
 30 34  1  0  0  0  0
 31 34  1  0  0  0  0
 32 31  1  0  0  0  0
 33 29  1  0  0  0  0
 33 32  2  0  0  0  0
M  END
>  <MODEL>
3

>  <REMARK>
 VINA RESULT:      -8.7      2.601      4.729
  Name = 
  6 active torsions:
  status: ('A' for Active; 'I' for Inactive)
    1  A    between atoms: C_3  and  N_13
    2  A    between atoms: C_3  and  C_17
    3  A    between atoms: N_5  and  C_18
    4  A    between atoms: C_12  and  C_28
    5  A    between atoms: C_17  and  C_29
    6  A    between atoms: C_18  and  C_29
                            x       y       z     vdW  Elec       q    Type
                         _______ _______ _______ _____ _____    ______ ____

>  <TORSDO>
F 6

$$$$
=
 OpenBabel10252415063D

 34 38  0  0  1  0  0  0  0  0999 V2000
  183.4180  179.7160  139.3720 C   0  0  2  0  0  3  0  0  0  0  0  0
  182.1270  177.9210  140.3740 C   0  0  0  0  0  2  0  0  0  0  0  0
  184.2610  178.3850  141.2670 C   0  0  1  0  0  3  0  0  0  0  0  0
  185.5480  178.4410  143.4290 N   0  0  0  0  0  0  0  0  0  0  0  0
  181.0080  180.5480  139.4150 C   0  0  0  0  0  2  0  0  0  0  0  0
  180.1460  179.3140  139.6590 C   0  0  0  0  0  2  0  0  0  0  0  0
  183.2680  178.9870  143.3710 O   0  0  0  0  0  0  0  0  0  0  0  0
  183.0830  178.9970  140.6260 N   0  0  1  0  0  0  0  0  0  0  0  0
  182.2050  180.1720  138.5520 C   0  0  0  0  0  2  0  0  0  0  0  0
  185.5850  178.8010  140.6040 C   0  0  1  0  0  3  0  0  0  0  0  0
  184.4130  178.9450  138.4800 C   0  0  0  0  0  2  0  0  0  0  0  0
  180.7290  178.4010  140.7350 C   0  0  0  0  0  2  0  0  0  0  0  0
  186.7460  178.1660  142.6900 C   0  0  0  0  0  3  0  0  0  0  0  0
  186.7990  178.2680  141.3510 C   0  0  0  0  0  0  0  0  0  0  0  0
  184.3090  178.6540  142.7390 C   0  0  0  0  0  0  0  0  0  0  0  0
  185.5480  178.3560  139.2110 N   0  0  0  0  0  2  0  0  0  0  0  0
  190.4310  177.3360  140.7420 C   0  0  0  0  0  0  0  0  0  0  0  0
  190.5720  177.6420  139.3870 C   0  0  0  0  0  3  0  0  0  0  0  0
  188.1080  178.0640  140.6770 C   0  0  0  0  0  0  0  0  0  0  0  0
  189.4880  178.1550  138.6720 C   0  0  0  0  0  3  0  0  0  0  0  0
  189.2050  177.5420  141.3820 C   0  0  0  0  0  3  0  0  0  0  0  0
  188.2630  178.3620  139.3120 C   0  0  0  0  0  3  0  0  0  0  0  0
  191.4810  176.8360  141.4360 F   0  0  0  0  0  0  0  0  0  0  0  0
  185.6220  178.5320  144.8800 C   0  0  0  0  0  2  0  0  0  0  0  0
  186.3990  177.3510  145.4290 C   0  0  0  0  0  2  0  0  0  0  0  0
  186.9670  177.7060  146.7900 C   0  0  0  0  0  2  0  0  0  0  0  0
  188.2320  178.5360  146.6340 C   0  0  0  0  0  2  0  0  0  0  0  0
  189.9220  178.6470  144.3460 O   0  0  0  0  0  0  0  0  0  0  0  0
  189.3870  177.6740  146.4150 N   0  0  0  0  0  0  0  0  0  0  0  0
  190.1740  177.7700  145.2150 C   0  0  0  0  0  0  0  0  0  0  0  0
  191.9100  176.3790  146.3030 C   0  0  0  0  0  2  0  0  0  0  0  0
  190.8810  176.0320  147.3430 C   0  0  0  0  0  3  0  0  0  0  0  0
  189.7190  176.6870  147.4010 C   0  0  0  0  0  3  0  0  0  0  0  0
  191.2620  176.7710  144.9730 C   0  0  0  0  0  2  0  0  0  0  0  0
  1 11  1  6  0  0  0
  1  8  1  0  0  0  0
  2 12  1  0  0  0  0
  3 15  1  1  0  0  0
  4 24  1  0  0  0  0
  5  6  1  0  0  0  0
  6 12  1  0  0  0  0
  8  2  1  6  0  0  0
  8  3  1  0  0  0  0
  9  1  1  0  0  0  0
  9  5  1  0  0  0  0
 10 16  1  6  0  0  0
 10  3  1  0  0  0  0
 10 14  1  0  0  0  0
 11 16  1  0  0  0  0
 13  4  1  0  0  0  0
 14 13  2  0  0  0  0
 15  7  2  0  0  0  0
 15  4  1  0  0  0  0
 17 21  1  0  0  0  0
 17 23  1  0  0  0  0
 18 17  2  0  0  0  0
 19 14  1  0  0  0  0
 19 21  2  0  0  0  0
 20 22  2  0  0  0  0
 20 18  1  0  0  0  0
 22 19  1  0  0  0  0
 24 25  1  0  0  0  0
 25 26  1  0  0  0  0
 27 26  1  0  0  0  0
 28 30  2  0  0  0  0
 29 27  1  0  0  0  0
 29 33  1  0  0  0  0
 30 29  1  0  0  0  0
 31 32  1  0  0  0  0
 32 33  2  0  0  0  0
 34 30  1  0  0  0  0
 34 31  1  0  0  0  0
M  END
>  <MODEL>
4

>  <REMARK>
 VINA RESULT:      -8.2      2.733      5.300
  Name = 
  6 active torsions:
  status: ('A' for Active; 'I' for Inactive)
    1  A    between atoms: C_3  and  N_13
    2  A    between atoms: C_3  and  C_17
    3  A    between atoms: N_5  and  C_18
    4  A    between atoms: C_12  and  C_28
    5  A    between atoms: C_17  and  C_29
    6  A    between atoms: C_18  and  C_29
                            x       y       z     vdW  Elec       q    Type
                         _______ _______ _______ _____ _____    ______ ____

>  <TORSDO>
F 6

$$$$
=
 OpenBabel10252415063D

 34 38  0  0  1  0  0  0  0  0999 V2000
  189.0120  178.4670  139.2210 C   0  0  2  0  0  3  0  0  0  0  0  0
  187.0390  177.1910  138.6130 C   0  0  0  0  0  2  0  0  0  0  0  0
  187.1850  178.0260  140.8150 C   0  0  1  0  0  3  0  0  0  0  0  0
  185.7900  178.9740  142.6830 N   0  0  0  0  0  0  0  0  0  0  0  0
  188.4370  179.1870  136.8430 C   0  0  0  0  0  2  0  0  0  0  0  0
  187.4730  178.1320  136.3100 C   0  0  0  0  0  2  0  0  0  0  0  0
  185.2440  179.3940  140.4420 O   0  0  0  0  0  0  0  0  0  0  0  0
  187.5490  178.3010  139.4130 N   0  0  1  0  0  0  0  0  0  0  0  0
  189.4620  178.5270  137.7560 C   0  0  0  0  0  2  0  0  0  0  0  0
  188.3710  178.1760  141.7820 C   0  0  1  0  0  3  0  0  0  0  0  0
  189.8460  177.4300  140.0000 C   0  0  0  0  0  2  0  0  0  0  0  0
  186.4150  177.7400  137.3380 C   0  0  0  0  0  2  0  0  0  0  0  0
  186.7450  178.4560  143.6200 C   0  0  0  0  0  3  0  0  0  0  0  0
  187.9560  178.0160  143.2370 C   0  0  0  0  0  0  0  0  0  0  0  0
  186.0310  178.8630  141.2740 C   0  0  0  0  0  0  0  0  0  0  0  0
  189.3960  177.2110  141.3860 N   0  0  0  0  0  2  0  0  0  0  0  0
  189.3950  176.9380  146.5830 C   0  0  0  0  0  0  0  0  0  0  0  0
  190.7400  176.7520  146.2590 C   0  0  0  0  0  3  0  0  0  0  0  0
  188.9200  177.5920  144.2860 C   0  0  0  0  0  0  0  0  0  0  0  0
  191.1810  176.9810  144.9530 C   0  0  0  0  0  3  0  0  0  0  0  0
  188.4890  177.3520  145.6010 C   0  0  0  0  0  3  0  0  0  0  0  0
  190.2760  177.3960  143.9730 C   0  0  0  0  0  3  0  0  0  0  0  0
  188.9660  176.7140  147.8480 F   0  0  0  0  0  0  0  0  0  0  0  0
  184.5990  179.6390  143.1900 C   0  0  0  0  0  2  0  0  0  0  0  0
  183.6950  178.6280  143.8670 C   0  0  0  0  0  2  0  0  0  0  0  0
  182.3390  179.2550  144.1290 C   0  0  0  0  0  2  0  0  0  0  0  0
  181.2500  178.4810  143.4020 C   0  0  0  0  0  2  0  0  0  0  0  0
  179.7400  180.7780  142.6580 O   0  0  0  0  0  0  0  0  0  0  0  0
  181.1000  178.9680  142.0350 N   0  0  0  0  0  0  0  0  0  0  0  0
  180.2930  180.1200  141.7370 C   0  0  0  0  0  0  0  0  0  0  0  0
  181.3030  180.1780  139.4770 C   0  0  0  0  0  2  0  0  0  0  0  0
  181.8110  178.7890  139.7440 C   0  0  0  0  0  3  0  0  0  0  0  0
  181.7430  178.2590  140.9680 C   0  0  0  0  0  3  0  0  0  0  0  0
  180.0570  180.4950  140.3070 C   0  0  0  0  0  2  0  0  0  0  0  0
  1  9  1  6  0  0  0
  1  8  1  0  0  0  0
  1 11  1  0  0  0  0
  3 15  1  1  0  0  0
  3 10  1  0  0  0  0
  4 24  1  0  0  0  0
  4 13  1  0  0  0  0
  5  9  1  0  0  0  0
  6  5  1  0  0  0  0
  6 12  1  0  0  0  0
  7 15  2  0  0  0  0
  8  2  1  6  0  0  0
  8  3  1  0  0  0  0
 10 16  1  6  0  0  0
 10 14  1  0  0  0  0
 11 16  1  0  0  0  0
 12  2  1  0  0  0  0
 14 13  2  0  0  0  0
 14 19  1  0  0  0  0
 15  4  1  0  0  0  0
 17 23  1  0  0  0  0
 18 17  1  0  0  0  0
 19 21  1  0  0  0  0
 20 18  2  0  0  0  0
 21 17  2  0  0  0  0
 22 19  2  0  0  0  0
 22 20  1  0  0  0  0
 24 25  1  0  0  0  0
 25 26  1  0  0  0  0
 27 26  1  0  0  0  0
 29 27  1  0  0  0  0
 30 29  1  0  0  0  0
 30 28  2  0  0  0  0
 31 32  1  0  0  0  0
 31 34  1  0  0  0  0
 32 33  2  0  0  0  0
 33 29  1  0  0  0  0
 34 30  1  0  0  0  0
M  END
>  <MODEL>
5

>  <REMARK>
 VINA RESULT:      -8.0      2.945      4.568
  Name = 
  6 active torsions:
  status: ('A' for Active; 'I' for Inactive)
    1  A    between atoms: C_3  and  N_13
    2  A    between atoms: C_3  and  C_17
    3  A    between atoms: N_5  and  C_18
    4  A    between atoms: C_12  and  C_28
    5  A    between atoms: C_17  and  C_29
    6  A    between atoms: C_18  and  C_29
                            x       y       z     vdW  Elec       q    Type
                         _______ _______ _______ _____ _____    ______ ____

>  <TORSDO>
F 6

$$$$
=
 OpenBabel10252415063D

 34 38  0  0  1  0  0  0  0  0999 V2000
  189.2180  177.6240  144.8510 C   0  0  2  0  0  3  0  0  0  0  0  0
  189.9350  175.6780  143.5900 C   0  0  0  0  0  2  0  0  0  0  0  0
  188.4810  177.2080  142.5370 C   0  0  1  0  0  3  0  0  0  0  0  0
  187.9640  178.2540  140.3070 N   0  0  0  0  0  0  0  0  0  0  0  0
  191.6740  177.2870  145.4500 C   0  0  0  0  0  2  0  0  0  0  0  0
  192.0220  175.8730  144.9980 C   0  0  0  0  0  2  0  0  0  0  0  0
  190.1650  177.7050  140.8960 O   0  0  0  0  0  0  0  0  0  0  0  0
  189.5800  177.0930  143.5130 N   0  0  1  0  0  0  0  0  0  0  0  0
  190.2380  177.3220  145.9560 C   0  0  0  0  0  2  0  0  0  0  0  0
  187.2950  178.0320  143.0660 C   0  0  1  0  0  3  0  0  0  0  0  0
  187.8000  177.2190  145.3000 C   0  0  0  0  0  2  0  0  0  0  0  0
  191.4510  175.5460  143.6210 C   0  0  0  0  0  2  0  0  0  0  0  0
  186.6000  178.4020  140.7250 C   0  0  0  0  0  3  0  0  0  0  0  0
  186.2250  178.2520  142.0070 C   0  0  0  0  0  0  0  0  0  0  0  0
  188.9480  177.7540  141.2220 C   0  0  0  0  0  0  0  0  0  0  0  0
  186.7730  177.3540  144.2520 N   0  0  0  0  0  2  0  0  0  0  0  0
  182.4500  178.6050  141.7660 C   0  0  0  0  0  0  0  0  0  0  0  0
  182.1260  179.0040  143.0640 C   0  0  0  0  0  3  0  0  0  0  0  0
  184.8090  178.5250  142.3660 C   0  0  0  0  0  0  0  0  0  0  0  0
  183.1340  179.1610  144.0170 C   0  0  0  0  0  3  0  0  0  0  0  0
  183.7840  178.3640  141.4200 C   0  0  0  0  0  3  0  0  0  0  0  0
  184.4670  178.9200  143.6710 C   0  0  0  0  0  3  0  0  0  0  0  0
  181.4730  178.4500  140.8410 F   0  0  0  0  0  0  0  0  0  0  0  0
  188.3310  178.6520  138.9550 C   0  0  0  0  0  2  0  0  0  0  0  0
  187.9700  177.5490  137.9790 C   0  0  0  0  0  2  0  0  0  0  0  0
  189.2170  177.0870  137.2520 C   0  0  0  0  0  2  0  0  0  0  0  0
  189.5570  175.6560  137.6400 C   0  0  0  0  0  2  0  0  0  0  0  0
  190.8470  173.3580  136.5630 O   0  0  0  0  0  0  0  0  0  0  0  0
  191.0000  175.4480  137.6220 N   0  0  0  0  0  0  0  0  0  0  0  0
  191.5740  174.2430  137.0870 C   0  0  0  0  0  0  0  0  0  0  0  0
  193.7890  175.3500  137.1090 C   0  0  0  0  0  2  0  0  0  0  0  0
  193.1770  176.4020  137.9930 C   0  0  0  0  0  3  0  0  0  0  0  0
  191.8570  176.4520  138.1820 C   0  0  0  0  0  3  0  0  0  0  0  0
  193.0480  174.0160  137.2190 C   0  0  0  0  0  2  0  0  0  0  0  0
  1 11  1  1  0  0  0
  1  9  1  0  0  0  0
  2 12  1  0  0  0  0
  3 15  1  6  0  0  0
  3 10  1  0  0  0  0
  3  8  1  0  0  0  0
  4 13  1  0  0  0  0
  4 15  1  0  0  0  0
  5  9  1  0  0  0  0
  6  5  1  0  0  0  0
  7 15  2  0  0  0  0
  8  2  1  1  0  0  0
  8  1  1  0  0  0  0
 10 14  1  6  0  0  0
 10 16  1  0  0  0  0
 12  6  1  0  0  0  0
 13 14  2  0  0  0  0
 14 19  1  0  0  0  0
 16 11  1  0  0  0  0
 17 18  1  0  0  0  0
 18 20  2  0  0  0  0
 19 22  2  0  0  0  0
 21 17  2  0  0  0  0
 21 19  1  0  0  0  0
 22 20  1  0  0  0  0
 23 17  1  0  0  0  0
 24  4  1  0  0  0  0
 25 24  1  0  0  0  0
 26 27  1  0  0  0  0
 26 25  1  0  0  0  0
 28 30  2  0  0  0  0
 29 27  1  0  0  0  0
 29 33  1  0  0  0  0
 30 34  1  0  0  0  0
 30 29  1  0  0  0  0
 31 34  1  0  0  0  0
 31 32  1  0  0  0  0
 32 33  2  0  0  0  0
M  END
>  <MODEL>
6

>  <REMARK>
 VINA RESULT:      -8.0      3.063      8.195
  Name = 
  6 active torsions:
  status: ('A' for Active; 'I' for Inactive)
    1  A    between atoms: C_3  and  N_13
    2  A    between atoms: C_3  and  C_17
    3  A    between atoms: N_5  and  C_18
    4  A    between atoms: C_12  and  C_28
    5  A    between atoms: C_17  and  C_29
    6  A    between atoms: C_18  and  C_29
                            x       y       z     vdW  Elec       q    Type
                         _______ _______ _______ _____ _____    ______ ____

>  <TORSDO>
F 6

$$$$
=
 OpenBabel10252415063D

 34 38  0  0  1  0  0  0  0  0999 V2000
  188.8460  177.8600  144.6910 C   0  0  2  0  0  3  0  0  0  0  0  0
  189.6500  175.8880  143.5270 C   0  0  0  0  0  2  0  0  0  0  0  0
  188.1790  177.3310  142.3790 C   0  0  1  0  0  3  0  0  0  0  0  0
  187.6870  178.2710  140.0970 N   0  0  0  0  0  0  0  0  0  0  0  0
  191.2950  177.6210  145.3620 C   0  0  0  0  0  2  0  0  0  0  0  0
  191.6950  176.2010  144.9760 C   0  0  0  0  0  2  0  0  0  0  0  0
  189.8880  177.8120  140.7600 O   0  0  0  0  0  0  0  0  0  0  0  0
  189.2550  177.2870  143.3840 N   0  0  1  0  0  0  0  0  0  0  0  0
  189.8460  177.6330  145.8320 C   0  0  0  0  0  2  0  0  0  0  0  0
  186.9560  178.1390  142.8460 C   0  0  1  0  0  3  0  0  0  0  0  0
  187.4290  177.4310  145.1220 C   0  0  0  0  0  2  0  0  0  0  0  0
  191.1680  175.8030  143.6000 C   0  0  0  0  0  2  0  0  0  0  0  0
  186.3090  178.3950  140.4760 C   0  0  0  0  0  3  0  0  0  0  0  0
  185.9070  178.2850  141.7540 C   0  0  0  0  0  0  0  0  0  0  0  0
  188.6620  177.8380  141.0550 C   0  0  0  0  0  0  0  0  0  0  0  0
  186.4250  177.4930  144.0460 N   0  0  0  0  0  2  0  0  0  0  0  0
  182.1430  178.6270  141.3750 C   0  0  0  0  0  0  0  0  0  0  0  0
  181.7620  178.9520  142.6780 C   0  0  0  0  0  3  0  0  0  0  0  0
  184.4750  178.5290  142.0680 C   0  0  0  0  0  0  0  0  0  0  0  0
  182.7290  179.0630  143.6800 C   0  0  0  0  0  3  0  0  0  0  0  0
  183.4910  178.4130  141.0720 C   0  0  0  0  0  3  0  0  0  0  0  0
  184.0760  178.8500  143.3770 C   0  0  0  0  0  3  0  0  0  0  0  0
  181.2060  178.5170  140.4030 F   0  0  0  0  0  0  0  0  0  0  0  0
  188.0770  178.6260  138.7390 C   0  0  0  0  0  2  0  0  0  0  0  0
  187.7050  177.5040  137.7890 C   0  0  0  0  0  2  0  0  0  0  0  0
  186.8100  178.0450  136.6910 C   0  0  0  0  0  2  0  0  0  0  0  0
  186.1480  176.9010  135.9370 C   0  0  0  0  0  2  0  0  0  0  0  0
  186.0310  174.3010  137.0890 O   0  0  0  0  0  0  0  0  0  0  0  0
  185.0150  176.3790  136.6900 N   0  0  0  0  0  0  0  0  0  0  0  0
  185.0190  175.0400  137.2150 C   0  0  0  0  0  0  0  0  0  0  0  0
  183.0500  175.6290  138.5950 C   0  0  0  0  0  2  0  0  0  0  0  0
  182.9000  176.8530  137.7360 C   0  0  0  0  0  3  0  0  0  0  0  0
  183.8600  177.2080  136.8780 C   0  0  0  0  0  3  0  0  0  0  0  0
  183.7780  174.5040  137.8580 C   0  0  0  0  0  2  0  0  0  0  0  0
  1 11  1  1  0  0  0
  1  9  1  0  0  0  0
  2 12  1  0  0  0  0
  3 15  1  6  0  0  0
  3 10  1  0  0  0  0
  3  8  1  0  0  0  0
  4 13  1  0  0  0  0
  4 15  1  0  0  0  0
  5  9  1  0  0  0  0
  6  5  1  0  0  0  0
  7 15  2  0  0  0  0
  8  2  1  1  0  0  0
  8  1  1  0  0  0  0
 10 14  1  6  0  0  0
 10 16  1  0  0  0  0
 12  6  1  0  0  0  0
 13 14  2  0  0  0  0
 14 19  1  0  0  0  0
 16 11  1  0  0  0  0
 17 18  1  0  0  0  0
 18 20  2  0  0  0  0
 19 22  2  0  0  0  0
 21 17  2  0  0  0  0
 21 19  1  0  0  0  0
 22 20  1  0  0  0  0
 23 17  1  0  0  0  0
 24  4  1  0  0  0  0
 25 24  1  0  0  0  0
 26 25  1  0  0  0  0
 27 29  1  0  0  0  0
 27 26  1  0  0  0  0
 28 30  2  0  0  0  0
 29 33  1  0  0  0  0
 29 30  1  0  0  0  0
 30 34  1  0  0  0  0
 32 31  1  0  0  0  0
 33 32  2  0  0  0  0
 34 31  1  0  0  0  0
M  END
>  <MODEL>
7

>  <REMARK>
 VINA RESULT:      -7.9      3.195      7.973
  Name = 
  6 active torsions:
  status: ('A' for Active; 'I' for Inactive)
    1  A    between atoms: C_3  and  N_13
    2  A    between atoms: C_3  and  C_17
    3  A    between atoms: N_5  and  C_18
    4  A    between atoms: C_12  and  C_28
    5  A    between atoms: C_17  and  C_29
    6  A    between atoms: C_18  and  C_29
                            x       y       z     vdW  Elec       q    Type
                         _______ _______ _______ _____ _____    ______ ____

>  <TORSDO>
F 6

$$$$
=
 OpenBabel10252415063D

 34 38  0  0  1  0  0  0  0  0999 V2000
  189.2100  177.6120  144.8720 C   0  0  2  0  0  3  0  0  0  0  0  0
  189.8990  175.6670  143.5930 C   0  0  0  0  0  2  0  0  0  0  0  0
  188.4260  177.2010  142.5720 C   0  0  1  0  0  3  0  0  0  0  0  0
  187.8660  178.2520  140.3550 N   0  0  0  0  0  0  0  0  0  0  0  0
  191.6770  177.2700  145.4220 C   0  0  0  0  0  2  0  0  0  0  0  0
  192.0140  175.8560  144.9600 C   0  0  0  0  0  2  0  0  0  0  0  0
  190.0780  177.6980  140.8990 O   0  0  0  0  0  0  0  0  0  0  0  0
  189.5440  177.0820  143.5260 N   0  0  1  0  0  0  0  0  0  0  0  0
  190.2510  177.3060  145.9560 C   0  0  0  0  0  2  0  0  0  0  0  0
  187.2520  178.0250  143.1270 C   0  0  1  0  0  3  0  0  0  0  0  0
  187.8010  177.2080  145.3490 C   0  0  0  0  0  2  0  0  0  0  0  0
  191.4150  175.5320  143.5940 C   0  0  0  0  0  2  0  0  0  0  0  0
  186.5110  178.4010  140.8010 C   0  0  0  0  0  3  0  0  0  0  0  0
  186.1620  178.2490  142.0900 C   0  0  0  0  0  0  0  0  0  0  0  0
  188.8680  177.7480  141.2500 C   0  0  0  0  0  0  0  0  0  0  0  0
  186.7530  177.3460  144.3220 N   0  0  0  0  0  2  0  0  0  0  0  0
  182.3860  178.6280  141.9180 C   0  0  0  0  0  0  0  0  0  0  0  0
  182.0850  179.0040  143.2290 C   0  0  0  0  0  3  0  0  0  0  0  0
  184.7530  178.5230  142.4780 C   0  0  0  0  0  0  0  0  0  0  0  0
  183.1110  179.1390  144.1680 C   0  0  0  0  0  3  0  0  0  0  0  0
  183.7120  178.3850  141.5460 C   0  0  0  0  0  3  0  0  0  0  0  0
  184.4360  178.8970  143.7950 C   0  0  0  0  0  3  0  0  0  0  0  0
  181.3920  178.4950  141.0070 F   0  0  0  0  0  0  0  0  0  0  0  0
  188.2070  178.6520  138.9970 C   0  0  0  0  0  2  0  0  0  0  0  0
  187.2040  178.0670  138.0230 C   0  0  0  0  0  2  0  0  0  0  0  0
  187.7220  178.2230  136.6060 C   0  0  0  0  0  2  0  0  0  0  0  0
  189.2090  177.9100  136.5500 C   0  0  0  0  0  2  0  0  0  0  0  0
  191.1510  176.5380  138.1160 O   0  0  0  0  0  0  0  0  0  0  0  0
  189.4290  176.4690  136.5220 N   0  0  0  0  0  0  0  0  0  0  0  0
  190.4540  175.8540  137.3210 C   0  0  0  0  0  0  0  0  0  0  0  0
  189.4320  173.6490  136.8440 C   0  0  0  0  0  2  0  0  0  0  0  0
  188.6490  174.3260  135.7540 C   0  0  0  0  0  3  0  0  0  0  0  0
  188.6290  175.6570  135.6510 C   0  0  0  0  0  3  0  0  0  0  0  0
  190.7330  174.3920  137.1530 C   0  0  0  0  0  2  0  0  0  0  0  0
  1 11  1  1  0  0  0
  1  9  1  0  0  0  0
  2 12  1  0  0  0  0
  3 15  1  6  0  0  0
  3 10  1  0  0  0  0
  3  8  1  0  0  0  0
  4 13  1  0  0  0  0
  4 15  1  0  0  0  0
  5  9  1  0  0  0  0
  6  5  1  0  0  0  0
  7 15  2  0  0  0  0
  8  2  1  1  0  0  0
  8  1  1  0  0  0  0
 10 14  1  6  0  0  0
 10 16  1  0  0  0  0
 12  6  1  0  0  0  0
 13 14  2  0  0  0  0
 14 19  1  0  0  0  0
 16 11  1  0  0  0  0
 17 18  1  0  0  0  0
 18 20  2  0  0  0  0
 19 22  2  0  0  0  0
 21 17  2  0  0  0  0
 21 19  1  0  0  0  0
 22 20  1  0  0  0  0
 23 17  1  0  0  0  0
 24  4  1  0  0  0  0
 25 24  1  0  0  0  0
 26 25  1  0  0  0  0
 27 26  1  0  0  0  0
 29 27  1  0  0  0  0
 29 30  1  0  0  0  0
 30 28  2  0  0  0  0
 31 34  1  0  0  0  0
 32 31  1  0  0  0  0
 33 32  2  0  0  0  0
 33 29  1  0  0  0  0
 34 30  1  0  0  0  0
M  END
>  <MODEL>
8

>  <REMARK>
 VINA RESULT:      -7.8      2.978      8.093
  Name = 
  6 active torsions:
  status: ('A' for Active; 'I' for Inactive)
    1  A    between atoms: C_3  and  N_13
    2  A    between atoms: C_3  and  C_17
    3  A    between atoms: N_5  and  C_18
    4  A    between atoms: C_12  and  C_28
    5  A    between atoms: C_17  and  C_29
    6  A    between atoms: C_18  and  C_29
                            x       y       z     vdW  Elec       q    Type
                         _______ _______ _______ _____ _____    ______ ____

>  <TORSDO>
F 6

$$$$
=
 OpenBabel10252415063D

 34 38  0  0  1  0  0  0  0  0999 V2000
  191.0120  176.0500  143.4430 C   0  0  2  0  0  3  0  0  0  0  0  0
  190.7640  178.0160  144.8450 C   0  0  0  0  0  2  0  0  0  0  0  0
  189.2060  177.6920  143.1020 C   0  0  1  0  0  3  0  0  0  0  0  0
  186.7810  178.0120  142.5120 N   0  0  0  0  0  0  0  0  0  0  0  0
  191.5540  175.2740  145.8110 C   0  0  0  0  0  2  0  0  0  0  0  0
  191.7930  176.5450  146.6200 C   0  0  0  0  0  2  0  0  0  0  0  0
  187.4270  177.4980  144.7060 O   0  0  0  0  0  0  0  0  0  0  0  0
  190.0570  176.9900  144.0810 N   0  0  1  0  0  0  0  0  0  0  0  0
  192.0690  175.4690  144.3910 C   0  0  0  0  0  2  0  0  0  0  0  0
  189.3600  177.1430  141.6740 C   0  0  1  0  0  3  0  0  0  0  0  0
  191.6810  176.6300  142.1800 C   0  0  0  0  0  2  0  0  0  0  0  0
  190.7640  177.6300  146.3170 C   0  0  0  0  0  2  0  0  0  0  0  0
  187.1620  178.1310  141.1350 C   0  0  0  0  0  3  0  0  0  0  0  0
  188.3850  177.7850  140.6990 C   0  0  0  0  0  0  0  0  0  0  0  0
  187.7640  177.6940  143.5070 C   0  0  0  0  0  0  0  0  0  0  0  0
  190.7540  177.3260  141.2710 N   0  0  0  0  0  2  0  0  0  0  0  0
  188.8980  176.7360  137.0840 C   0  0  0  0  0  0  0  0  0  0  0  0
  189.1370  177.9660  136.4690 C   0  0  0  0  0  3  0  0  0  0  0  0
  188.6590  177.8440  139.2390 C   0  0  0  0  0  0  0  0  0  0  0  0
  189.1350  179.1380  137.2310 C   0  0  0  0  0  3  0  0  0  0  0  0
  188.6570  176.6750  138.4600 C   0  0  0  0  0  3  0  0  0  0  0  0
  188.8940  179.0770  138.6060 C   0  0  0  0  0  3  0  0  0  0  0  0
  188.8970  175.6000  136.3470 F   0  0  0  0  0  0  0  0  0  0  0  0
  185.3810  178.1860  142.8720 C   0  0  0  0  0  2  0  0  0  0  0  0
  184.6410  178.8690  141.7390 C   0  0  0  0  0  2  0  0  0  0  0  0
  183.5740  177.9380  141.1960 C   0  0  0  0  0  2  0  0  0  0  0  0
  183.1080  178.4090  139.8260 C   0  0  0  0  0  2  0  0  0  0  0  0
  185.4130  179.1860  138.3470 O   0  0  0  0  0  0  0  0  0  0  0  0
  183.7250  177.6110  138.7730 N   0  0  0  0  0  0  0  0  0  0  0  0
  184.8710  178.0890  138.0480 C   0  0  0  0  0  0  0  0  0  0  0  0
  185.1930  175.8030  137.1520 C   0  0  0  0  0  2  0  0  0  0  0  0
  183.8030  175.4940  137.6330 C   0  0  0  0  0  3  0  0  0  0  0  0
  183.1510  176.3430  138.4310 C   0  0  0  0  0  3  0  0  0  0  0  0
  185.3810  177.2980  136.8840 C   0  0  0  0  0  2  0  0  0  0  0  0
  1 11  1  6  0  0  0
  1  8  1  0  0  0  0
  1  9  1  0  0  0  0
  2 12  1  0  0  0  0
  3 15  1  1  0  0  0
  3  8  1  0  0  0  0
  4 24  1  0  0  0  0
  4 15  1  0  0  0  0
  5  6  1  0  0  0  0
  8  2  1  6  0  0  0
  9  5  1  0  0  0  0
 10 14  1  6  0  0  0
 10  3  1  0  0  0  0
 12  6  1  0  0  0  0
 13  4  1  0  0  0  0
 14 13  2  0  0  0  0
 15  7  2  0  0  0  0
 16 10  1  0  0  0  0
 16 11  1  0  0  0  0
 17 21  1  0  0  0  0
 18 17  2  0  0  0  0
 18 20  1  0  0  0  0
 19 14  1  0  0  0  0
 20 22  2  0  0  0  0
 21 19  2  0  0  0  0
 22 19  1  0  0  0  0
 23 17  1  0  0  0  0
 25 24  1  0  0  0  0
 26 25  1  0  0  0  0
 27 26  1  0  0  0  0
 29 27  1  0  0  0  0
 30 28  2  0  0  0  0
 30 29  1  0  0  0  0
 31 32  1  0  0  0  0
 32 33  2  0  0  0  0
 33 29  1  0  0  0  0
 34 31  1  0  0  0  0
 34 30  1  0  0  0  0
M  END
>  <MODEL>
9

>  <REMARK>
 VINA RESULT:      -7.8      2.568      7.107
  Name = 
  6 active torsions:
  status: ('A' for Active; 'I' for Inactive)
    1  A    between atoms: C_3  and  N_13
    2  A    between atoms: C_3  and  C_17
    3  A    between atoms: N_5  and  C_18
    4  A    between atoms: C_12  and  C_28
    5  A    between atoms: C_17  and  C_29
    6  A    between atoms: C_18  and  C_29
                            x       y       z     vdW  Elec       q    Type
                         _______ _______ _______ _____ _____    ______ ____

>  <TORSDO>
F 6

$$$$
