=
 OpenBabel10262420293D

 55 60  0  0  1  0  0  0  0  0999 V2000
  185.3030  178.7790  143.9490 C   0  0  0  0  0  2  0  0  0  0  0  0
  182.3800  179.0570  143.8020 C   0  0  2  0  0  3  0  0  0  0  0  0
  183.1770  178.3810  142.6920 C   0  0  0  0  0  2  0  0  0  0  0  0
  184.5180  179.4680  145.0600 C   0  0  0  0  0  2  0  0  0  0  0  0
  184.5860  178.9710  142.6150 C   0  0  2  0  0  3  0  0  0  0  0  0
  183.1060  178.8950  145.1430 C   0  0  0  0  0  2  0  0  0  0  0  0
  180.9990  178.4260  143.8690 C   0  0  0  0  0  2  0  0  0  0  0  0
  180.4940  180.1560  142.1000 N   0  0  0  0  0  2  0  0  0  0  0  0
  180.1240  178.9570  142.7860 C   0  0  0  0  0  0  0  0  0  0  0  0
  179.0800  178.3310  142.4630 O   0  0  0  0  0  0  0  0  0  0  0  0
  179.7670  180.6530  140.9420 C   0  0  0  0  0  2  0  0  0  0  0  0
  180.5690  180.4340  139.6660 C   0  0  2  0  0  3  0  0  0  0  0  0
  179.5110  182.3210  138.6550 O   0  0  0  0  0  1  0  0  0  0  0  0
  180.5920  181.7090  138.8770 C   0  0  0  0  0  0  0  0  0  0  0  0
  181.7740  182.1830  138.3230 O   0  0  0  0  0  0  0  0  0  0  0  0
  179.9760  179.3440  138.8840 N   0  0  0  0  0  2  0  0  0  0  0  0
  180.9570  177.9260  137.1440 C   0  0  1  0  0  3  0  0  0  0  0  0
  179.1250  176.8660  139.4640 F   0  0  0  0  0  0  0  0  0  0  0  0
  180.9360  178.2540  138.6550 C   0  0  2  0  0  0  0  0  0  0  0  0
  181.2340  174.1450  136.1990 C   0  0  0  0  0  3  0  0  0  0  0  0
  181.0840  176.8040  140.6040 F   0  0  0  0  0  0  0  0  0  0  0  0
  180.5080  176.9430  139.3530 C   0  0  0  0  0  0  0  0  0  0  0  0
  182.1840  178.2620  136.5540 O   0  0  0  0  0  1  0  0  0  0  0  0
  180.8000  173.6290  137.3690 C   0  0  0  0  0  3  0  0  0  0  0  0
  180.3880  174.4910  138.5410 C   0  0  0  0  0  2  0  0  0  0  0  0
  180.6790  176.4290  137.0460 C   0  0  2  0  0  3  0  0  0  0  0  0
  181.0130  175.8770  138.4080 C   0  0  1  0  0  3  0  0  0  0  0  0
  181.4340  175.6310  135.9830 C   0  0  0  0  0  2  0  0  0  0  0  0
  182.2230  178.6300  139.0780 O   0  0  0  0  0  1  0  0  0  0  0  0
  185.3740  178.2890  141.5110 C   0  0  0  0  0  2  0  0  0  0  0  0
  186.7790  178.8590  141.4420 C   0  0  0  0  0  2  0  0  0  0  0  0
  187.7530  177.8700  142.0420 C   0  0  0  0  0  2  0  0  0  0  0  0
  189.1180  178.2950  141.7440 N   0  0  0  0  0  2  0  0  0  0  0  0
  191.4540  177.7110  141.8360 C   0  0  0  0  0  2  0  0  0  0  0  0
  190.8050  176.7310  143.9670 C   0  0  1  0  0  3  0  0  0  0  0  0
  190.0570  177.1630  141.6790 C   0  0  1  0  0  0  0  0  0  0  0  0
  189.9120  176.2000  142.8530 C   0  0  0  0  0  2  0  0  0  0  0  0
  191.7200  177.7630  143.3290 C   0  0  0  0  0  2  0  0  0  0  0  0
  190.0020  177.3580  145.0760 C   0  0  0  0  0  0  0  0  0  0  0  0
  189.4410  176.5580  146.0660 O   0  0  0  0  0  1  0  0  0  0  0  0
  189.8060  178.6020  145.1020 O   0  0  0  0  0  0  0  0  0  0  0  0
  189.9900  176.4480  140.3270 C   0  0  0  0  0  2  0  0  0  0  0  0
  190.2260  177.3760  139.1330 C   0  0  0  0  0  2  0  0  0  0  0  0
  190.6650  176.6080  137.8830 C   0  0  1  0  0  3  0  0  0  0  0  0
  193.0110  176.1860  137.1610 C   0  0  0  0  0  2  0  0  0  0  0  0
  191.9210  175.7800  138.1380 C   0  0  0  0  0  3  0  0  0  0  0  0
  193.0380  176.6980  138.5790 C   0  0  0  0  0  2  0  0  0  0  0  0
  189.5510  175.7230  137.3490 C   0  0  0  0  0  2  0  0  0  0  0  0
  189.1290  176.2080  135.9740 C   0  0  0  0  0  2  0  0  0  0  0  0
  187.6340  175.9990  135.8160 C   0  0  0  0  0  2  0  0  0  0  0  0
  186.5280  177.9630  134.5950 C   0  0  0  0  0  2  0  0  0  0  0  0
  186.8900  177.3270  135.8770 C   0  0  1  0  0  0  0  0  0  0  0  0
  185.5800  177.2580  135.3710 O   0  0  0  0  0  0  0  0  0  0  0  0
  186.9820  178.2100  137.1110 C   0  0  0  0  0  2  0  0  0  0  0  0
  185.7620  178.0210  137.9910 C   0  0  0  0  0  1  0  0  0  0  0  0
  1  4  1  0  0  0  0
  2  7  1  1  0  0  0
  2  6  1  0  0  0  0
  3  2  1  0  0  0  0
  4  6  1  0  0  0  0
  5 30  1  6  0  0  0
  5  3  1  0  0  0  0
  5  1  1  0  0  0  0
  8  9  1  0  0  0  0
  9  7  1  0  0  0  0
 10  9  2  0  0  0  0
 11  8  1  0  0  0  0
 12 11  1  1  0  0  0
 13 14  1  0  0  0  0
 14 12  1  0  0  0  0
 15 14  2  0  0  0  0
 16 12  1  0  0  0  0
 17 23  1  1  0  0  0
 17 19  1  0  0  0  0
 19 16  1  0  0  0  0
 19 29  1  1  0  0  0
 19 22  1  0  0  0  0
 20 24  2  0  0  0  0
 22 18  1  0  0  0  0
 22 21  1  0  0  0  0
 24 25  1  0  0  0  0
 26 28  1  6  0  0  0
 26 17  1  0  0  0  0
 26 27  1  0  0  0  0
 27 25  1  1  0  0  0
 27 22  1  0  0  0  0
 28 20  1  0  0  0  0
 31 30  1  0  0  0  0
 31 32  1  0  0  0  0
 33 32  1  0  0  0  0
 34 38  1  0  0  0  0
 35 39  1  1  0  0  0
 36 42  1  6  0  0  0
 36 33  1  0  0  0  0
 36 34  1  0  0  0  0
 36 37  1  0  0  0  0
 37 35  1  0  0  0  0
 38 35  1  0  0  0  0
 39 41  2  0  0  0  0
 39 40  1  0  0  0  0
 43 42  1  0  0  0  0
 44 48  1  1  0  0  0
 44 46  1  0  0  0  0
 44 43  1  0  0  0  0
 45 46  1  0  0  0  0
 45 47  1  0  0  0  0
 46 47  1  0  0  0  0
 49 48  1  0  0  0  0
 50 49  1  0  0  0  0
 51 53  1  0  0  0  0
 51 52  1  0  0  0  0
 52 50  1  6  0  0  0
 52 54  1  0  0  0  0
 53 52  1  0  0  0  0
 54 55  1  0  0  0  0
M  END
>  <MODEL>
1

>  <REMARK>
 VINA RESULT:      -6.8      0.000      0.000
  Name = 
  22 active torsions:
  status: ('A' for Active; 'I' for Inactive)
    1  A    between atoms: C_2  and  C_28
    2  A    between atoms: C_2  and  C_44
    3  A    between atoms: C_5  and  C_19
    4  A    between atoms: C_6  and  N_46
    5  A    between atoms: C_8  and  CA_22
    6  A    between atoms: C_8  and  N_35
    7  A    between atoms: C_10  and  C_32
    8  A    between atoms: C_15  and  C_17
    9  A    between atoms: C_16  and  C_17
   10  A    between atoms: C_16  and  C_26
   11  A    between atoms: C_17  and  C_36
   12  A    between atoms: C_19  and  C_45
   13  A    between atoms: C_20  and  CA_22
   14  A    between atoms: CA_22  and  N_46
   15  A    between atoms: C_26  and  C_45
   16  A    between atoms: C_27  and  C_54
   17  A    between atoms: C_28  and  C_33
   18  A    between atoms: C_33  and  N_49
   19  A    between atoms: C_34  and  N_49
   20  A    between atoms: C_34  and  C_52
   21  A    between atoms: C_36  and  C_52
   22  A    between atoms: C_43  and  C_54
                            x       y       z     vdW  Elec       q    Type
                         _______ _______ _______ _____ _____    ______ ____

>  <TORSDO>
F 22

$$$$
=
 OpenBabel10262420293D

 55 60  0  0  1  0  0  0  0  0999 V2000
  185.1190  179.1820  142.7560 C   0  0  0  0  0  2  0  0  0  0  0  0
  182.3400  178.4270  143.3450 C   0  0  2  0  0  3  0  0  0  0  0  0
  183.2940  178.8870  144.4420 C   0  0  0  0  0  2  0  0  0  0  0  0
  184.1760  178.7130  141.6520 C   0  0  0  0  0  2  0  0  0  0  0  0
  184.7340  178.5220  144.0780 C   0  0  2  0  0  3  0  0  0  0  0  0
  182.7340  179.0620  142.0060 C   0  0  0  0  0  2  0  0  0  0  0  0
  180.9240  178.8320  143.7250 C   0  0  0  0  0  2  0  0  0  0  0  0
  179.7460  178.6180  141.5020 N   0  0  0  0  0  2  0  0  0  0  0  0
  180.2220  179.4480  142.5650 C   0  0  0  0  0  0  0  0  0  0  0  0
  180.0290  180.6930  142.5410 O   0  0  0  0  0  0  0  0  0  0  0  0
  178.9310  179.1310  140.4110 C   0  0  0  0  0  2  0  0  0  0  0  0
  179.7820  179.3870  139.1750 C   0  0  2  0  0  3  0  0  0  0  0  0
  179.5980  181.1140  137.5370 O   0  0  0  0  0  0  0  0  0  0  0  0
  179.6290  180.8200  138.7640 C   0  0  0  0  0  0  0  0  0  0  0  0
  179.5990  181.8350  139.7130 O   0  0  0  0  0  1  0  0  0  0  0  0
  179.3760  178.4840  138.0930 N   0  0  0  0  0  2  0  0  0  0  0  0
  181.6780  177.8150  138.5960 C   0  0  1  0  0  3  0  0  0  0  0  0
  180.6360  178.5400  135.7240 F   0  0  0  0  0  0  0  0  0  0  0  0
  180.3750  177.4300  137.8600 C   0  0  2  0  0  0  0  0  0  0  0  0
  185.0180  177.0260  136.7300 C   0  0  0  0  0  3  0  0  0  0  0  0
  180.0190  176.3580  135.7040 F   0  0  0  0  0  0  0  0  0  0  0  0
  180.7660  177.3160  136.3680 C   0  0  0  0  0  0  0  0  0  0  0  0
  181.9550  176.9440  139.6590 O   0  0  0  0  0  1  0  0  0  0  0  0
  184.5170  176.9430  135.4790 C   0  0  0  0  0  3  0  0  0  0  0  0
  183.0500  177.1430  135.1710 C   0  0  0  0  0  2  0  0  0  0  0  0
  182.7750  177.7740  137.5370 C   0  0  2  0  0  3  0  0  0  0  0  0
  182.2210  176.9140  136.4310 C   0  0  1  0  0  3  0  0  0  0  0  0
  184.1450  177.2370  137.9500 C   0  0  0  0  0  2  0  0  0  0  0  0
  179.9080  176.1920  138.3340 O   0  0  0  0  0  1  0  0  0  0  0  0
  185.6790  178.9870  145.1720 C   0  0  0  0  0  2  0  0  0  0  0  0
  186.6920  177.9010  145.4850 C   0  0  0  0  0  2  0  0  0  0  0  0
  187.5000  177.5940  144.2450 C   0  0  0  0  0  2  0  0  0  0  0  0
  188.5610  176.6490  144.5810 N   0  0  0  0  0  2  0  0  0  0  0  0
  190.1910  178.2660  143.8460 C   0  0  0  0  0  2  0  0  0  0  0  0
  191.6750  176.9460  145.2530 C   0  0  1  0  0  3  0  0  0  0  0  0
  189.7570  176.8240  143.7400 C   0  0  1  0  0  0  0  0  0  0  0  0
  190.9640  176.0450  144.2510 C   0  0  0  0  0  2  0  0  0  0  0  0
  191.1060  178.3410  145.0530 C   0  0  0  0  0  2  0  0  0  0  0  0
  191.4540  176.4880  146.6710 C   0  0  0  0  0  0  0  0  0  0  0  0
  192.4390  175.7590  147.3270 O   0  0  0  0  0  1  0  0  0  0  0  0
  190.3690  176.7340  147.2620 O   0  0  0  0  0  0  0  0  0  0  0  0
  189.4600  176.5380  142.2650 C   0  0  0  0  0  2  0  0  0  0  0  0
  190.0800  177.5580  141.3080 C   0  0  0  0  0  2  0  0  0  0  0  0
  190.1260  177.0440  139.8660 C   0  0  1  0  0  3  0  0  0  0  0  0
  188.2020  177.2390  138.2970 C   0  0  0  0  0  2  0  0  0  0  0  0
  189.3840  177.9720  138.9090 C   0  0  0  0  0  3  0  0  0  0  0  0
  187.9860  178.2070  139.4330 C   0  0  0  0  0  2  0  0  0  0  0  0
  191.5540  176.8320  139.3920 C   0  0  0  0  0  2  0  0  0  0  0  0
  191.5730  175.8180  138.2630 C   0  0  0  0  0  2  0  0  0  0  0  0
  192.3580  176.3930  137.0980 C   0  0  0  0  0  2  0  0  0  0  0  0
  193.5430  175.1280  135.2090 C   0  0  0  0  0  2  0  0  0  0  0  0
  193.4510  175.4300  136.6510 C   0  0  1  0  0  0  0  0  0  0  0  0
  194.4280  176.0320  135.8400 O   0  0  0  0  0  0  0  0  0  0  0  0
  194.0510  174.4340  137.6280 C   0  0  0  0  0  2  0  0  0  0  0  0
  195.5600  174.3900  137.4830 C   0  0  0  0  0  1  0  0  0  0  0  0
  1  5  1  0  0  0  0
  2  7  1  1  0  0  0
  2  3  1  0  0  0  0
  4  6  1  0  0  0  0
  4  1  1  0  0  0  0
  5  3  1  0  0  0  0
  5 30  1  1  0  0  0
  6  2  1  0  0  0  0
  8  9  1  0  0  0  0
  9  7  1  0  0  0  0
 10  9  2  0  0  0  0
 11  8  1  0  0  0  0
 12 11  1  1  0  0  0
 13 14  2  0  0  0  0
 14 12  1  0  0  0  0
 14 15  1  0  0  0  0
 16 12  1  0  0  0  0
 17 23  1  1  0  0  0
 18 22  1  0  0  0  0
 19 16  1  0  0  0  0
 19 29  1  1  0  0  0
 19 17  1  0  0  0  0
 20 28  1  0  0  0  0
 21 22  1  0  0  0  0
 22 27  1  0  0  0  0
 22 19  1  0  0  0  0
 24 20  2  0  0  0  0
 25 24  1  0  0  0  0
 26 28  1  1  0  0  0
 26 17  1  0  0  0  0
 27 25  1  6  0  0  0
 27 26  1  0  0  0  0
 30 31  1  0  0  0  0
 32 33  1  0  0  0  0
 32 31  1  0  0  0  0
 34 38  1  0  0  0  0
 35 39  1  1  0  0  0
 36 42  1  6  0  0  0
 36 34  1  0  0  0  0
 36 37  1  0  0  0  0
 36 33  1  0  0  0  0
 37 35  1  0  0  0  0
 38 35  1  0  0  0  0
 39 41  2  0  0  0  0
 39 40  1  0  0  0  0
 43 42  1  0  0  0  0
 44 48  1  6  0  0  0
 44 43  1  0  0  0  0
 45 46  1  0  0  0  0
 45 47  1  0  0  0  0
 46 47  1  0  0  0  0
 46 44  1  0  0  0  0
 49 48  1  0  0  0  0
 50 49  1  0  0  0  0
 51 53  1  0  0  0  0
 51 52  1  0  0  0  0
 52 50  1  1  0  0  0
 52 54  1  0  0  0  0
 53 52  1  0  0  0  0
 55 54  1  0  0  0  0
M  END
>  <MODEL>
2

>  <REMARK>
 VINA RESULT:      -6.5      2.212      3.857
  Name = 
  22 active torsions:
  status: ('A' for Active; 'I' for Inactive)
    1  A    between atoms: C_2  and  C_28
    2  A    between atoms: C_2  and  C_44
    3  A    between atoms: C_5  and  C_19
    4  A    between atoms: C_6  and  N_46
    5  A    between atoms: C_8  and  CA_22
    6  A    between atoms: C_8  and  N_35
    7  A    between atoms: C_10  and  C_32
    8  A    between atoms: C_15  and  C_17
    9  A    between atoms: C_16  and  C_17
   10  A    between atoms: C_16  and  C_26
   11  A    between atoms: C_17  and  C_36
   12  A    between atoms: C_19  and  C_45
   13  A    between atoms: C_20  and  CA_22
   14  A    between atoms: CA_22  and  N_46
   15  A    between atoms: C_26  and  C_45
   16  A    between atoms: C_27  and  C_54
   17  A    between atoms: C_28  and  C_33
   18  A    between atoms: C_33  and  N_49
   19  A    between atoms: C_34  and  N_49
   20  A    between atoms: C_34  and  C_52
   21  A    between atoms: C_36  and  C_52
   22  A    between atoms: C_43  and  C_54
                            x       y       z     vdW  Elec       q    Type
                         _______ _______ _______ _____ _____    ______ ____

>  <TORSDO>
F 22

$$$$
=
 OpenBabel10262420293D

 55 60  0  0  1  0  0  0  0  0999 V2000
  185.4350  178.5710  143.9920 C   0  0  0  0  0  2  0  0  0  0  0  0
  182.5610  179.1800  143.8780 C   0  0  2  0  0  3  0  0  0  0  0  0
  183.2940  178.5490  142.6990 C   0  0  0  0  0  2  0  0  0  0  0  0
  184.7160  179.2130  145.1740 C   0  0  0  0  0  2  0  0  0  0  0  0
  184.7590  178.9870  142.6880 C   0  0  2  0  0  3  0  0  0  0  0  0
  183.2490  178.7910  145.1930 C   0  0  0  0  0  2  0  0  0  0  0  0
  181.1190  178.6990  143.8740 C   0  0  0  0  0  2  0  0  0  0  0  0
  180.6080  180.0740  141.8190 N   0  0  0  0  0  2  0  0  0  0  0  0
  180.5240  178.8270  142.5140 C   0  0  0  0  0  0  0  0  0  0  0  0
  179.9770  177.8290  141.9750 O   0  0  0  0  0  0  0  0  0  0  0  0
  180.1780  180.2330  140.4380 C   0  0  0  0  0  2  0  0  0  0  0  0
  181.2310  179.6940  139.4800 C   0  0  2  0  0  3  0  0  0  0  0  0
  180.8840  181.2350  137.6890 O   0  0  0  0  0  0  0  0  0  0  0  0
  181.6760  180.7990  138.5700 C   0  0  0  0  0  0  0  0  0  0  0  0
  182.9730  181.2940  138.6300 O   0  0  0  0  0  1  0  0  0  0  0  0
  180.6810  178.5710  138.7120 N   0  0  0  0  0  2  0  0  0  0  0  0
  182.2520  177.4440  137.2080 C   0  0  1  0  0  3  0  0  0  0  0  0
  179.6240  176.1360  138.3230 F   0  0  0  0  0  0  0  0  0  0  0  0
  181.6320  177.4540  138.6240 C   0  0  2  0  0  0  0  0  0  0  0  0
  182.8170  173.9340  135.5900 C   0  0  0  0  0  3  0  0  0  0  0  0
  180.9600  175.6250  140.0830 F   0  0  0  0  0  0  0  0  0  0  0  0
  180.9360  176.0810  138.7760 C   0  0  0  0  0  0  0  0  0  0  0  0
  183.6180  177.7590  137.2340 O   0  0  0  0  0  1  0  0  0  0  0  0
  181.9400  173.2380  136.3450 C   0  0  0  0  0  3  0  0  0  0  0  0
  181.1080  173.8790  137.4330 C   0  0  0  0  0  2  0  0  0  0  0  0
  182.0090  176.0400  136.6640 C   0  0  2  0  0  3  0  0  0  0  0  0
  181.7590  175.1850  137.8790 C   0  0  1  0  0  3  0  0  0  0  0  0
  183.1130  175.4020  135.8210 C   0  0  0  0  0  2  0  0  0  0  0  0
  182.6470  177.5910  139.5880 O   0  0  0  0  0  1  0  0  0  0  0  0
  185.4820  178.3510  141.5150 C   0  0  0  0  0  2  0  0  0  0  0  0
  186.9000  178.8830  141.4240 C   0  0  0  0  0  2  0  0  0  0  0  0
  187.8410  177.9330  142.1290 C   0  0  0  0  0  2  0  0  0  0  0  0
  189.2200  178.3370  141.8720 N   0  0  0  0  0  2  0  0  0  0  0  0
  191.5290  177.6490  141.9330 C   0  0  0  0  0  2  0  0  0  0  0  0
  190.7880  176.4260  143.9020 C   0  0  1  0  0  3  0  0  0  0  0  0
  190.1160  177.1850  141.6760 C   0  0  1  0  0  0  0  0  0  0  0  0
  189.9040  176.0840  142.7090 C   0  0  0  0  0  2  0  0  0  0  0  0
  191.7580  177.4940  143.4240 C   0  0  0  0  0  2  0  0  0  0  0  0
  189.9810  176.9350  145.0680 C   0  0  0  0  0  0  0  0  0  0  0  0
  188.5980  176.7980  145.0680 O   0  0  0  0  0  0  0  0  0  0  0  0
  190.5450  177.5120  146.0340 O   0  0  0  0  0  1  0  0  0  0  0  0
  190.0560  176.6580  140.2400 C   0  0  0  0  0  2  0  0  0  0  0  0
  189.5730  177.6980  139.2270 C   0  0  0  0  0  2  0  0  0  0  0  0
  189.3330  177.0880  137.8430 C   0  0  1  0  0  3  0  0  0  0  0  0
  187.0080  176.8880  136.9750 C   0  0  0  0  0  2  0  0  0  0  0  0
  188.2130  177.8040  137.0940 C   0  0  0  0  0  3  0  0  0  0  0  0
  187.0310  177.9770  138.0190 C   0  0  0  0  0  2  0  0  0  0  0  0
  190.6030  177.0780  137.0080 C   0  0  0  0  0  2  0  0  0  0  0  0
  190.3680  176.2930  135.7310 C   0  0  0  0  0  2  0  0  0  0  0  0
  191.5360  175.3480  135.5120 C   0  0  0  0  0  2  0  0  0  0  0  0
  192.3680  173.1220  136.4730 C   0  0  0  0  0  2  0  0  0  0  0  0
  191.2260  173.9620  136.0630 C   0  0  1  0  0  0  0  0  0  0  0  0
  191.5710  173.8090  137.4170 O   0  0  0  0  0  0  0  0  0  0  0  0
  189.9160  173.2700  135.7240 C   0  0  0  0  0  2  0  0  0  0  0  0
  188.9030  173.4770  136.8340 C   0  0  0  0  0  1  0  0  0  0  0  0
  1  4  1  0  0  0  0
  2  7  1  1  0  0  0
  2  6  1  0  0  0  0
  3  2  1  0  0  0  0
  4  6  1  0  0  0  0
  5 30  1  6  0  0  0
  5  3  1  0  0  0  0
  5  1  1  0  0  0  0
  8  9  1  0  0  0  0
  9  7  1  0  0  0  0
 10  9  2  0  0  0  0
 11  8  1  0  0  0  0
 12 11  1  1  0  0  0
 13 14  2  0  0  0  0
 14 15  1  0  0  0  0
 14 12  1  0  0  0  0
 16 12  1  0  0  0  0
 17 23  1  1  0  0  0
 17 19  1  0  0  0  0
 18 22  1  0  0  0  0
 19 16  1  0  0  0  0
 19 22  1  0  0  0  0
 19 29  1  1  0  0  0
 20 28  1  0  0  0  0
 20 24  2  0  0  0  0
 22 21  1  0  0  0  0
 24 25  1  0  0  0  0
 26 28  1  1  0  0  0
 26 17  1  0  0  0  0
 26 27  1  0  0  0  0
 27 25  1  6  0  0  0
 27 22  1  0  0  0  0
 31 30  1  0  0  0  0
 31 32  1  0  0  0  0
 33 32  1  0  0  0  0
 34 38  1  0  0  0  0
 35 39  1  1  0  0  0
 36 42  1  6  0  0  0
 36 33  1  0  0  0  0
 36 34  1  0  0  0  0
 36 37  1  0  0  0  0
 37 35  1  0  0  0  0
 38 35  1  0  0  0  0
 39 41  1  0  0  0  0
 40 39  2  0  0  0  0
 43 42  1  0  0  0  0
 44 48  1  6  0  0  0
 44 43  1  0  0  0  0
 45 46  1  0  0  0  0
 45 47  1  0  0  0  0
 46 44  1  0  0  0  0
 46 47  1  0  0  0  0
 49 48  1  0  0  0  0
 50 49  1  0  0  0  0
 51 53  1  0  0  0  0
 52 50  1  6  0  0  0
 52 51  1  0  0  0  0
 52 53  1  0  0  0  0
 54 52  1  0  0  0  0
 54 55  1  0  0  0  0
M  END
>  <MODEL>
3

>  <REMARK>
 VINA RESULT:      -6.5      1.569      2.597
  Name = 
  22 active torsions:
  status: ('A' for Active; 'I' for Inactive)
    1  A    between atoms: C_2  and  C_28
    2  A    between atoms: C_2  and  C_44
    3  A    between atoms: C_5  and  C_19
    4  A    between atoms: C_6  and  N_46
    5  A    between atoms: C_8  and  CA_22
    6  A    between atoms: C_8  and  N_35
    7  A    between atoms: C_10  and  C_32
    8  A    between atoms: C_15  and  C_17
    9  A    between atoms: C_16  and  C_17
   10  A    between atoms: C_16  and  C_26
   11  A    between atoms: C_17  and  C_36
   12  A    between atoms: C_19  and  C_45
   13  A    between atoms: C_20  and  CA_22
   14  A    between atoms: CA_22  and  N_46
   15  A    between atoms: C_26  and  C_45
   16  A    between atoms: C_27  and  C_54
   17  A    between atoms: C_28  and  C_33
   18  A    between atoms: C_33  and  N_49
   19  A    between atoms: C_34  and  N_49
   20  A    between atoms: C_34  and  C_52
   21  A    between atoms: C_36  and  C_52
   22  A    between atoms: C_43  and  C_54
                            x       y       z     vdW  Elec       q    Type
                         _______ _______ _______ _____ _____    ______ ____

>  <TORSDO>
F 22

$$$$
=
 OpenBabel10262420293D

 55 60  0  0  1  0  0  0  0  0999 V2000
  191.0370  174.0490  137.0730 C   0  0  0  0  0  2  0  0  0  0  0  0
  189.1110  175.9070  135.8570 C   0  0  2  0  0  3  0  0  0  0  0  0
  190.5580  176.3110  136.1190 C   0  0  0  0  0  2  0  0  0  0  0  0
  189.5890  173.6370  136.8270 C   0  0  0  0  0  2  0  0  0  0  0  0
  191.1100  175.5520  137.3260 C   0  0  2  0  0  3  0  0  0  0  0  0
  189.0210  174.3930  135.6290 C   0  0  0  0  0  2  0  0  0  0  0  0
  188.6050  176.6570  134.6350 C   0  0  0  0  0  2  0  0  0  0  0  0
  186.0810  176.6730  134.6940 N   0  0  0  0  0  2  0  0  0  0  0  0
  187.3190  177.3470  134.9350 C   0  0  0  0  0  0  0  0  0  0  0  0
  187.3320  178.5070  135.4240 O   0  0  0  0  0  0  0  0  0  0  0  0
  184.7950  177.2270  135.0930 C   0  0  0  0  0  2  0  0  0  0  0  0
  184.3760  176.6890  136.4550 C   0  0  2  0  0  3  0  0  0  0  0  0
  183.6770  174.5760  135.5890 O   0  0  0  0  0  0  0  0  0  0  0  0
  184.4030  175.1910  136.4180 C   0  0  0  0  0  0  0  0  0  0  0  0
  185.1580  174.4690  137.3350 O   0  0  0  0  0  1  0  0  0  0  0  0
  183.0360  177.1810  136.7950 N   0  0  0  0  0  2  0  0  0  0  0  0
  181.8510  176.7610  138.8970 C   0  0  1  0  0  3  0  0  0  0  0  0
  181.6970  179.4530  137.2880 F   0  0  0  0  0  0  0  0  0  0  0  0
  182.9510  177.5960  138.2030 C   0  0  2  0  0  0  0  0  0  0  0  0
  179.6050  178.6560  141.4710 C   0  0  0  0  0  3  0  0  0  0  0  0
  183.5790  179.9340  138.4590 F   0  0  0  0  0  0  0  0  0  0  0  0
  182.5030  179.0680  138.3520 C   0  0  0  0  0  0  0  0  0  0  0  0
  182.3840  175.8900  139.8580 O   0  0  0  0  0  1  0  0  0  0  0  0
  179.8330  179.9110  141.0290 C   0  0  0  0  0  3  0  0  0  0  0  0
  180.7390  180.2130  139.8560 C   0  0  0  0  0  2  0  0  0  0  0  0
  180.9010  177.7760  139.5250 C   0  0  2  0  0  3  0  0  0  0  0  0
  181.7000  179.0480  139.6320 C   0  0  1  0  0  3  0  0  0  0  0  0
  180.3040  177.4430  140.8920 C   0  0  0  0  0  2  0  0  0  0  0  0
  184.1820  177.3960  138.8540 O   0  0  0  0  0  1  0  0  0  0  0  0
  192.5520  175.9560  137.5770 C   0  0  0  0  0  2  0  0  0  0  0  0
  192.6360  176.8830  138.7750 C   0  0  0  0  0  2  0  0  0  0  0  0
  191.4250  176.6770  139.6570 C   0  0  0  0  0  2  0  0  0  0  0  0
  191.4030  177.7020  140.6960 N   0  0  0  0  0  2  0  0  0  0  0  0
  189.9100  178.7770  142.2530 C   0  0  0  0  0  2  0  0  0  0  0  0
  188.2160  177.9790  140.7000 C   0  0  1  0  0  3  0  0  0  0  0  0
  190.3740  177.4450  141.7180 C   0  0  1  0  0  0  0  0  0  0  0  0
  189.1050  176.8250  141.1420 C   0  0  0  0  0  2  0  0  0  0  0  0
  188.7930  179.2340  141.3350 C   0  0  0  0  0  2  0  0  0  0  0  0
  188.1850  178.1180  139.2010 C   0  0  0  0  0  0  0  0  0  0  0  0
  188.9510  179.0970  138.5770 O   0  0  0  0  0  1  0  0  0  0  0  0
  187.4470  177.3740  138.5020 O   0  0  0  0  0  0  0  0  0  0  0  0
  190.9340  176.6420  142.8950 C   0  0  0  0  0  2  0  0  0  0  0  0
  189.8560  175.9360  143.7200 C   0  0  0  0  0  2  0  0  0  0  0  0
  189.6560  176.5900  145.0900 C   0  0  1  0  0  3  0  0  0  0  0  0
  191.1040  176.8980  147.0920 C   0  0  0  0  0  2  0  0  0  0  0  0
  190.9460  177.2140  145.6150 C   0  0  0  0  0  3  0  0  0  0  0  0
  191.8790  176.1140  146.0640 C   0  0  0  0  0  2  0  0  0  0  0  0
  188.5460  177.6270  145.0580 C   0  0  0  0  0  2  0  0  0  0  0  0
  187.1970  176.9320  145.0590 C   0  0  0  0  0  2  0  0  0  0  0  0
  186.3920  177.4160  143.8660 C   0  0  0  0  0  2  0  0  0  0  0  0
  184.9650  179.4320  143.1780 C   0  0  0  0  0  2  0  0  0  0  0  0
  185.4750  178.5670  144.2600 C   0  0  1  0  0  0  0  0  0  0  0  0
  184.1640  178.4300  143.7710 O   0  0  0  0  0  0  0  0  0  0  0  0
  185.5040  179.1310  145.6710 C   0  0  0  0  0  2  0  0  0  0  0  0
  184.5050  178.4070  146.5530 C   0  0  0  0  0  1  0  0  0  0  0  0
  1  5  1  0  0  0  0
  2  7  1  6  0  0  0
  2  3  1  0  0  0  0
  3  5  1  0  0  0  0
  4  1  1  0  0  0  0
  5 30  1  6  0  0  0
  6  2  1  0  0  0  0
  6  4  1  0  0  0  0
  7  9  1  0  0  0  0
  8  9  1  0  0  0  0
  8 11  1  0  0  0  0
  9 10  2  0  0  0  0
 12 11  1  6  0  0  0
 12 16  1  0  0  0  0
 13 14  2  0  0  0  0
 14 12  1  0  0  0  0
 14 15  1  0  0  0  0
 16 19  1  0  0  0  0
 17 26  1  0  0  0  0
 17 23  1  1  0  0  0
 18 22  1  0  0  0  0
 19 22  1  0  0  0  0
 19 29  1  1  0  0  0
 19 17  1  0  0  0  0
 22 21  1  0  0  0  0
 22 27  1  0  0  0  0
 24 20  2  0  0  0  0
 25 24  1  0  0  0  0
 26 27  1  0  0  0  0
 26 28  1  1  0  0  0
 27 25  1  6  0  0  0
 28 20  1  0  0  0  0
 30 31  1  0  0  0  0
 31 32  1  0  0  0  0
 32 33  1  0  0  0  0
 33 36  1  0  0  0  0
 35 39  1  6  0  0  0
 35 37  1  0  0  0  0
 35 38  1  0  0  0  0
 36 34  1  0  0  0  0
 36 42  1  1  0  0  0
 37 36  1  0  0  0  0
 38 34  1  0  0  0  0
 40 39  1  0  0  0  0
 41 39  2  0  0  0  0
 42 43  1  0  0  0  0
 44 43  1  6  0  0  0
 44 46  1  0  0  0  0
 46 47  1  0  0  0  0
 46 45  1  0  0  0  0
 47 45  1  0  0  0  0
 48 49  1  0  0  0  0
 48 44  1  0  0  0  0
 50 49  1  0  0  0  0
 51 53  1  0  0  0  0
 51 52  1  0  0  0  0
 52 50  1  6  0  0  0
 52 54  1  0  0  0  0
 53 52  1  0  0  0  0
 54 55  1  0  0  0  0
M  END
>  <MODEL>
4

>  <REMARK>
 VINA RESULT:      -6.5      2.770      7.401
  Name = 
  22 active torsions:
  status: ('A' for Active; 'I' for Inactive)
    1  A    between atoms: C_2  and  C_28
    2  A    between atoms: C_2  and  C_44
    3  A    between atoms: C_5  and  C_19
    4  A    between atoms: C_6  and  N_46
    5  A    between atoms: C_8  and  CA_22
    6  A    between atoms: C_8  and  N_35
    7  A    between atoms: C_10  and  C_32
    8  A    between atoms: C_15  and  C_17
    9  A    between atoms: C_16  and  C_17
   10  A    between atoms: C_16  and  C_26
   11  A    between atoms: C_17  and  C_36
   12  A    between atoms: C_19  and  C_45
   13  A    between atoms: C_20  and  CA_22
   14  A    between atoms: CA_22  and  N_46
   15  A    between atoms: C_26  and  C_45
   16  A    between atoms: C_27  and  C_54
   17  A    between atoms: C_28  and  C_33
   18  A    between atoms: C_33  and  N_49
   19  A    between atoms: C_34  and  N_49
   20  A    between atoms: C_34  and  C_52
   21  A    between atoms: C_36  and  C_52
   22  A    between atoms: C_43  and  C_54
                            x       y       z     vdW  Elec       q    Type
                         _______ _______ _______ _____ _____    ______ ____

>  <TORSDO>
F 22

$$$$
=
 OpenBabel10262420293D

 55 60  0  0  1  0  0  0  0  0999 V2000
  185.0500  178.6330  143.7460 C   0  0  0  0  0  2  0  0  0  0  0  0
  182.1840  179.1240  143.3160 C   0  0  2  0  0  3  0  0  0  0  0  0
  183.0520  178.4620  142.2510 C   0  0  0  0  0  2  0  0  0  0  0  0
  184.1950  179.3070  144.8140 C   0  0  0  0  0  2  0  0  0  0  0  0
  184.4950  178.9560  142.3610 C   0  0  2  0  0  3  0  0  0  0  0  0
  182.7490  178.8300  144.7110 C   0  0  0  0  0  2  0  0  0  0  0  0
  180.7660  178.5890  143.1970 C   0  0  0  0  0  2  0  0  0  0  0  0
  180.4700  180.4210  141.4840 N   0  0  0  0  0  2  0  0  0  0  0  0
  180.0990  179.1320  141.9800 C   0  0  0  0  0  0  0  0  0  0  0  0
  179.2340  178.4390  141.3810 O   0  0  0  0  0  0  0  0  0  0  0  0
  179.9660  180.9520  140.2260 C   0  0  0  0  0  2  0  0  0  0  0  0
  180.7860  180.4310  139.0530 C   0  0  2  0  0  3  0  0  0  0  0  0
  182.6650  181.8770  138.7650 O   0  0  0  0  0  1  0  0  0  0  0  0
  181.4930  181.5820  138.4020 C   0  0  0  0  0  0  0  0  0  0  0  0
  180.8470  182.3750  137.4600 O   0  0  0  0  0  0  0  0  0  0  0  0
  179.9120  179.7430  138.0980 N   0  0  0  0  0  2  0  0  0  0  0  0
  181.6400  178.1010  138.6620 C   0  0  1  0  0  3  0  0  0  0  0  0
  181.4170  179.5490  135.8840 F   0  0  0  0  0  0  0  0  0  0  0  0
  180.4160  178.4020  137.7670 C   0  0  2  0  0  0  0  0  0  0  0  0
  184.6000  176.2010  136.9640 C   0  0  0  0  0  3  0  0  0  0  0  0
  179.9730  177.8590  135.4360 F   0  0  0  0  0  0  0  0  0  0  0  0
  180.9400  178.3170  136.3150 C   0  0  0  0  0  0  0  0  0  0  0  0
  181.3770  177.0710  139.5770 O   0  0  0  0  0  1  0  0  0  0  0  0
  184.2980  176.4940  135.6800 C   0  0  0  0  0  3  0  0  0  0  0  0
  183.1030  177.3360  135.2940 C   0  0  0  0  0  2  0  0  0  0  0  0
  182.7660  177.7270  137.7040 C   0  0  2  0  0  3  0  0  0  0  0  0
  182.0780  177.3290  136.4240 C   0  0  1  0  0  3  0  0  0  0  0  0
  183.7210  176.6110  138.1270 C   0  0  0  0  0  2  0  0  0  0  0  0
  179.4200  177.4320  137.9800 O   0  0  0  0  0  1  0  0  0  0  0  0
  185.3530  178.2880  141.3010 C   0  0  0  0  0  2  0  0  0  0  0  0
  186.7670  178.8380  141.3490 C   0  0  0  0  0  2  0  0  0  0  0  0
  187.6440  177.9040  142.1510 C   0  0  0  0  0  2  0  0  0  0  0  0
  189.0360  178.3230  142.0280 N   0  0  0  0  0  2  0  0  0  0  0  0
  191.3570  177.6910  141.8650 C   0  0  0  0  0  2  0  0  0  0  0  0
  190.8250  176.4080  143.8640 C   0  0  1  0  0  3  0  0  0  0  0  0
  189.9370  177.1980  141.7260 C   0  0  1  0  0  0  0  0  0  0  0  0
  189.8450  176.0700  142.7480 C   0  0  0  0  0  2  0  0  0  0  0  0
  191.7230  177.5100  143.3260 C   0  0  0  0  0  2  0  0  0  0  0  0
  190.1170  176.8720  145.1090 C   0  0  0  0  0  0  0  0  0  0  0  0
  190.8510  177.2960  146.2100 O   0  0  0  0  0  1  0  0  0  0  0  0
  188.8590  176.8520  145.1760 O   0  0  0  0  0  0  0  0  0  0  0  0
  189.7590  176.6990  140.2890 C   0  0  0  0  0  2  0  0  0  0  0  0
  189.9640  177.7890  139.2350 C   0  0  0  0  0  2  0  0  0  0  0  0
  189.7430  177.2650  137.8130 C   0  0  1  0  0  3  0  0  0  0  0  0
  187.8630  177.5910  136.2130 C   0  0  0  0  0  2  0  0  0  0  0  0
  189.0040  178.2780  136.9430 C   0  0  0  0  0  3  0  0  0  0  0  0
  187.5850  178.4170  137.4440 C   0  0  0  0  0  2  0  0  0  0  0  0
  191.0530  176.8640  137.1550 C   0  0  0  0  0  2  0  0  0  0  0  0
  190.7690  176.1600  135.8400 C   0  0  0  0  0  2  0  0  0  0  0  0
  191.8980  175.1870  135.5500 C   0  0  0  0  0  2  0  0  0  0  0  0
  192.5230  172.7210  135.8660 C   0  0  0  0  0  2  0  0  0  0  0  0
  191.6660  173.8570  136.2560 C   0  0  1  0  0  0  0  0  0  0  0  0
  192.7490  173.4510  137.0550 O   0  0  0  0  0  0  0  0  0  0  0  0
  190.3270  173.5510  136.9070 C   0  0  0  0  0  2  0  0  0  0  0  0
  189.2880  173.2170  135.8540 C   0  0  0  0  0  1  0  0  0  0  0  0
  1  4  1  0  0  0  0
  2  7  1  1  0  0  0
  2  6  1  0  0  0  0
  3  5  1  0  0  0  0
  3  2  1  0  0  0  0
  5 30  1  6  0  0  0
  5  1  1  0  0  0  0
  6  4  1  0  0  0  0
  8  9  1  0  0  0  0
  9  7  1  0  0  0  0
 10  9  2  0  0  0  0
 11  8  1  0  0  0  0
 12 11  1  1  0  0  0
 14 13  1  0  0  0  0
 14 12  1  0  0  0  0
 15 14  2  0  0  0  0
 16 12  1  0  0  0  0
 17 23  1  1  0  0  0
 18 22  1  0  0  0  0
 19 29  1  1  0  0  0
 19 16  1  0  0  0  0
 19 17  1  0  0  0  0
 20 28  1  0  0  0  0
 21 22  1  0  0  0  0
 22 27  1  0  0  0  0
 22 19  1  0  0  0  0
 24 20  2  0  0  0  0
 25 24  1  0  0  0  0
 26 28  1  1  0  0  0
 26 17  1  0  0  0  0
 27 25  1  6  0  0  0
 27 26  1  0  0  0  0
 30 31  1  0  0  0  0
 31 32  1  0  0  0  0
 33 32  1  0  0  0  0
 34 38  1  0  0  0  0
 35 39  1  1  0  0  0
 36 42  1  6  0  0  0
 36 34  1  0  0  0  0
 36 33  1  0  0  0  0
 36 37  1  0  0  0  0
 37 35  1  0  0  0  0
 38 35  1  0  0  0  0
 39 41  2  0  0  0  0
 39 40  1  0  0  0  0
 43 42  1  0  0  0  0
 44 48  1  6  0  0  0
 44 43  1  0  0  0  0
 45 46  1  0  0  0  0
 45 47  1  0  0  0  0
 46 47  1  0  0  0  0
 46 44  1  0  0  0  0
 49 48  1  0  0  0  0
 50 49  1  0  0  0  0
 51 52  1  0  0  0  0
 51 53  1  0  0  0  0
 52 50  1  6  0  0  0
 52 54  1  0  0  0  0
 52 53  1  0  0  0  0
 55 54  1  0  0  0  0
M  END
>  <MODEL>
5

>  <REMARK>
 VINA RESULT:      -6.3      2.020      3.177
  Name = 
  22 active torsions:
  status: ('A' for Active; 'I' for Inactive)
    1  A    between atoms: C_2  and  C_28
    2  A    between atoms: C_2  and  C_44
    3  A    between atoms: C_5  and  C_19
    4  A    between atoms: C_6  and  N_46
    5  A    between atoms: C_8  and  CA_22
    6  A    between atoms: C_8  and  N_35
    7  A    between atoms: C_10  and  C_32
    8  A    between atoms: C_15  and  C_17
    9  A    between atoms: C_16  and  C_17
   10  A    between atoms: C_16  and  C_26
   11  A    between atoms: C_17  and  C_36
   12  A    between atoms: C_19  and  C_45
   13  A    between atoms: C_20  and  CA_22
   14  A    between atoms: CA_22  and  N_46
   15  A    between atoms: C_26  and  C_45
   16  A    between atoms: C_27  and  C_54
   17  A    between atoms: C_28  and  C_33
   18  A    between atoms: C_33  and  N_49
   19  A    between atoms: C_34  and  N_49
   20  A    between atoms: C_34  and  C_52
   21  A    between atoms: C_36  and  C_52
   22  A    between atoms: C_43  and  C_54
                            x       y       z     vdW  Elec       q    Type
                         _______ _______ _______ _____ _____    ______ ____

>  <TORSDO>
F 22

$$$$
=
 OpenBabel10262420293D

 55 60  0  0  1  0  0  0  0  0999 V2000
  184.4010  178.6300  144.0940 C   0  0  0  0  0  2  0  0  0  0  0  0
  182.0260  179.1360  142.4360 C   0  0  2  0  0  3  0  0  0  0  0  0
  183.3490  178.6860  141.8240 C   0  0  0  0  0  2  0  0  0  0  0  0
  183.0860  179.0910  144.7150 C   0  0  0  0  0  2  0  0  0  0  0  0
  184.5210  179.1790  142.6740 C   0  0  2  0  0  3  0  0  0  0  0  0
  181.9070  178.6130  143.8730 C   0  0  0  0  0  2  0  0  0  0  0  0
  180.8860  178.6030  141.5830 C   0  0  0  0  0  2  0  0  0  0  0  0
  181.2250  178.8530  139.0930 N   0  0  0  0  0  2  0  0  0  0  0  0
  180.7510  179.3960  140.3280 C   0  0  0  0  0  0  0  0  0  0  0  0
  180.1960  180.5260  140.3600 O   0  0  0  0  0  0  0  0  0  0  0  0
  181.0010  179.5050  137.8120 C   0  0  0  0  0  2  0  0  0  0  0  0
  181.2770  178.5450  136.6620 C   0  0  2  0  0  3  0  0  0  0  0  0
  179.3480  177.8190  135.4560 O   0  0  0  0  0  1  0  0  0  0  0  0
  180.2180  178.7190  135.6150 C   0  0  0  0  0  0  0  0  0  0  0  0
  180.2280  179.8200  134.7670 O   0  0  0  0  0  0  0  0  0  0  0  0
  181.3020  177.1650  137.1580 N   0  0  0  0  0  2  0  0  0  0  0  0
  181.6900  175.0450  135.9940 C   0  0  1  0  0  3  0  0  0  0  0  0
  182.9900  175.8140  138.7470 F   0  0  0  0  0  0  0  0  0  0  0  0
  182.3330  176.3630  136.4830 C   0  0  2  0  0  0  0  0  0  0  0  0
  183.8740  171.8240  136.3370 C   0  0  0  0  0  3  0  0  0  0  0  0
  184.5340  176.8120  137.4200 F   0  0  0  0  0  0  0  0  0  0  0  0
  183.4640  175.9350  137.4470 C   0  0  0  0  0  0  0  0  0  0  0  0
  181.6390  174.9770  134.5940 O   0  0  0  0  0  1  0  0  0  0  0  0
  184.7260  172.2760  137.2810 C   0  0  0  0  0  3  0  0  0  0  0  0
  184.6360  173.6690  137.8650 C   0  0  0  0  0  2  0  0  0  0  0  0
  182.5490  173.9280  136.5790 C   0  0  2  0  0  3  0  0  0  0  0  0
  183.8660  174.5800  136.9120 C   0  0  1  0  0  3  0  0  0  0  0  0
  182.8050  172.6970  135.7100 C   0  0  0  0  0  2  0  0  0  0  0  0
  182.8700  177.0660  135.3890 O   0  0  0  0  0  1  0  0  0  0  0  0
  185.8340  178.7230  142.0630 C   0  0  0  0  0  2  0  0  0  0  0  0
  185.6350  178.3690  140.6010 C   0  0  0  0  0  2  0  0  0  0  0  0
  186.9240  178.6020  139.8460 C   0  0  0  0  0  2  0  0  0  0  0  0
  187.5650  177.3190  139.5750 N   0  0  0  0  0  2  0  0  0  0  0  0
  189.2670  176.3080  138.2000 C   0  0  0  0  0  2  0  0  0  0  0  0
  188.8420  178.2470  136.7920 C   0  0  1  0  0  3  0  0  0  0  0  0
  188.9530  177.4710  139.1090 C   0  0  1  0  0  0  0  0  0  0  0  0
  189.1520  178.6910  138.2160 C   0  0  0  0  0  2  0  0  0  0  0  0
  188.8220  176.7280  136.8120 C   0  0  0  0  0  2  0  0  0  0  0  0
  187.5180  178.7820  136.3160 C   0  0  0  0  0  0  0  0  0  0  0  0
  187.2170  180.1310  136.4680 O   0  0  0  0  0  1  0  0  0  0  0  0
  186.6610  178.0120  135.8050 O   0  0  0  0  0  0  0  0  0  0  0  0
  189.9480  177.4310  140.2720 C   0  0  0  0  0  2  0  0  0  0  0  0
  189.3630  177.9320  141.5940 C   0  0  0  0  0  2  0  0  0  0  0  0
  189.7210  177.0160  142.7680 C   0  0  1  0  0  3  0  0  0  0  0  0
  191.6010  176.8240  144.3890 C   0  0  0  0  0  2  0  0  0  0  0  0
  190.5320  177.7490  143.8330 C   0  0  0  0  0  3  0  0  0  0  0  0
  191.9640  177.8710  143.3660 C   0  0  0  0  0  2  0  0  0  0  0  0
  188.4820  176.3920  143.3880 C   0  0  0  0  0  2  0  0  0  0  0  0
  187.7850  177.4090  144.2720 C   0  0  0  0  0  2  0  0  0  0  0  0
  187.4400  176.7550  145.5980 C   0  0  0  0  0  2  0  0  0  0  0  0
  188.1840  177.2360  148.0040 C   0  0  0  0  0  2  0  0  0  0  0  0
  187.5940  177.7410  146.7490 C   0  0  1  0  0  0  0  0  0  0  0  0
  188.9330  178.0050  147.0850 O   0  0  0  0  0  0  0  0  0  0  0  0
  186.7300  178.9900  146.8170 C   0  0  0  0  0  2  0  0  0  0  0  0
  185.3310  178.6410  147.2880 C   0  0  0  0  0  1  0  0  0  0  0  0
  1  4  1  0  0  0  0
  2  7  1  6  0  0  0
  2  6  1  0  0  0  0
  3  2  1  0  0  0  0
  3  5  1  0  0  0  0
  5 30  1  6  0  0  0
  5  1  1  0  0  0  0
  6  4  1  0  0  0  0
  8  9  1  0  0  0  0
  9 10  2  0  0  0  0
  9  7  1  0  0  0  0
 11  8  1  0  0  0  0
 12 16  1  0  0  0  0
 12 11  1  1  0  0  0
 13 14  1  0  0  0  0
 14 12  1  0  0  0  0
 15 14  2  0  0  0  0
 17 23  1  6  0  0  0
 17 19  1  0  0  0  0
 17 26  1  0  0  0  0
 19 29  1  6  0  0  0
 19 16  1  0  0  0  0
 19 22  1  0  0  0  0
 20 24  2  0  0  0  0
 21 22  1  0  0  0  0
 22 18  1  0  0  0  0
 24 25  1  0  0  0  0
 26 28  1  6  0  0  0
 26 27  1  0  0  0  0
 27 22  1  0  0  0  0
 27 25  1  1  0  0  0
 28 20  1  0  0  0  0
 31 30  1  0  0  0  0
 32 31  1  0  0  0  0
 33 32  1  0  0  0  0
 34 36  1  0  0  0  0
 35 39  1  1  0  0  0
 35 38  1  0  0  0  0
 35 37  1  0  0  0  0
 36 33  1  0  0  0  0
 36 42  1  1  0  0  0
 37 36  1  0  0  0  0
 38 34  1  0  0  0  0
 39 40  1  0  0  0  0
 41 39  2  0  0  0  0
 42 43  1  0  0  0  0
 44 43  1  6  0  0  0
 44 48  1  0  0  0  0
 44 46  1  0  0  0  0
 46 45  1  0  0  0  0
 47 46  1  0  0  0  0
 47 45  1  0  0  0  0
 48 49  1  0  0  0  0
 49 50  1  0  0  0  0
 52 50  1  6  0  0  0
 52 54  1  0  0  0  0
 52 53  1  0  0  0  0
 52 51  1  0  0  0  0
 53 51  1  0  0  0  0
 54 55  1  0  0  0  0
M  END
>  <MODEL>
6

>  <REMARK>
 VINA RESULT:      -6.2      2.187      5.719
  Name = 
  22 active torsions:
  status: ('A' for Active; 'I' for Inactive)
    1  A    between atoms: C_2  and  C_28
    2  A    between atoms: C_2  and  C_44
    3  A    between atoms: C_5  and  C_19
    4  A    between atoms: C_6  and  N_46
    5  A    between atoms: C_8  and  CA_22
    6  A    between atoms: C_8  and  N_35
    7  A    between atoms: C_10  and  C_32
    8  A    between atoms: C_15  and  C_17
    9  A    between atoms: C_16  and  C_17
   10  A    between atoms: C_16  and  C_26
   11  A    between atoms: C_17  and  C_36
   12  A    between atoms: C_19  and  C_45
   13  A    between atoms: C_20  and  CA_22
   14  A    between atoms: CA_22  and  N_46
   15  A    between atoms: C_26  and  C_45
   16  A    between atoms: C_27  and  C_54
   17  A    between atoms: C_28  and  C_33
   18  A    between atoms: C_33  and  N_49
   19  A    between atoms: C_34  and  N_49
   20  A    between atoms: C_34  and  C_52
   21  A    between atoms: C_36  and  C_52
   22  A    between atoms: C_43  and  C_54
                            x       y       z     vdW  Elec       q    Type
                         _______ _______ _______ _____ _____    ______ ____

>  <TORSDO>
F 22

$$$$
=
 OpenBabel10262420293D

 55 60  0  0  1  0  0  0  0  0999 V2000
  184.8610  178.4360  144.4760 C   0  0  0  0  0  2  0  0  0  0  0  0
  182.5220  178.9350  142.7660 C   0  0  2  0  0  3  0  0  0  0  0  0
  183.7590  178.2130  142.2410 C   0  0  0  0  0  2  0  0  0  0  0  0
  183.6340  179.1700  145.0090 C   0  0  0  0  0  2  0  0  0  0  0  0
  185.0080  178.6960  142.9790 C   0  0  2  0  0  3  0  0  0  0  0  0
  182.3800  178.7030  144.2750 C   0  0  0  0  0  2  0  0  0  0  0  0
  181.2990  178.4090  142.0330 C   0  0  0  0  0  2  0  0  0  0  0  0
  181.4560  178.9820  139.5790 N   0  0  0  0  0  2  0  0  0  0  0  0
  180.9540  179.2910  140.8820 C   0  0  0  0  0  0  0  0  0  0  0  0
  180.2020  180.2850  141.0600 O   0  0  0  0  0  0  0  0  0  0  0  0
  181.0480  179.7130  138.3880 C   0  0  0  0  0  2  0  0  0  0  0  0
  181.6890  179.1150  137.1420 C   0  0  2  0  0  3  0  0  0  0  0  0
  180.0720  180.5030  136.0640 O   0  0  0  0  0  1  0  0  0  0  0  0
  180.9730  179.6290  135.9300 C   0  0  0  0  0  0  0  0  0  0  0  0
  181.2320  179.1010  134.6710 O   0  0  0  0  0  0  0  0  0  0  0  0
  181.6320  177.6510  137.2040 N   0  0  0  0  0  2  0  0  0  0  0  0
  183.2710  176.5320  135.7690 C   0  0  1  0  0  3  0  0  0  0  0  0
  181.8410  175.1720  138.2110 F   0  0  0  0  0  0  0  0  0  0  0  0
  182.9750  177.0530  137.1940 C   0  0  2  0  0  0  0  0  0  0  0  0
  185.1840  173.1340  135.5310 C   0  0  0  0  0  3  0  0  0  0  0  0
  183.5330  176.1310  139.3760 F   0  0  0  0  0  0  0  0  0  0  0  0
  183.0700  175.8120  138.1110 C   0  0  0  0  0  0  0  0  0  0  0  0
  184.2960  177.2620  135.1480 O   0  0  0  0  0  1  0  0  0  0  0  0
  184.8970  172.6730  136.7670 C   0  0  0  0  0  3  0  0  0  0  0  0
  184.0570  173.4500  137.7560 C   0  0  0  0  0  2  0  0  0  0  0  0
  183.6520  175.0650  135.9390 C   0  0  2  0  0  3  0  0  0  0  0  0
  184.0570  174.9300  137.3840 C   0  0  1  0  0  3  0  0  0  0  0  0
  184.7660  174.5100  135.0520 C   0  0  0  0  0  2  0  0  0  0  0  0
  183.9430  178.0040  137.5640 O   0  0  0  0  0  1  0  0  0  0  0  0
  186.2340  177.9690  142.4540 C   0  0  0  0  0  2  0  0  0  0  0  0
  186.9040  178.7890  141.3680 C   0  0  0  0  0  2  0  0  0  0  0  0
  188.4050  178.6590  141.4910 C   0  0  0  0  0  2  0  0  0  0  0  0
  188.7230  177.7540  142.5910 N   0  0  0  0  0  2  0  0  0  0  0  0
  191.0780  178.2660  142.5750 C   0  0  0  0  0  2  0  0  0  0  0  0
  191.0320  177.0840  144.7020 C   0  0  1  0  0  3  0  0  0  0  0  0
  190.0620  177.1560  142.4580 C   0  0  1  0  0  0  0  0  0  0  0  0
  190.4140  176.2210  143.6090 C   0  0  0  0  0  2  0  0  0  0  0  0
  191.3630  178.4200  144.0570 C   0  0  0  0  0  2  0  0  0  0  0  0
  190.0880  177.2820  145.8590 C   0  0  0  0  0  0  0  0  0  0  0  0
  188.9900  178.1240  145.7240 O   0  0  0  0  0  0  0  0  0  0  0  0
  190.2980  176.7130  146.9630 O   0  0  0  0  0  1  0  0  0  0  0  0
  190.2540  176.4960  141.0900 C   0  0  0  0  0  2  0  0  0  0  0  0
  191.1080  177.3230  140.1270 C   0  0  0  0  0  2  0  0  0  0  0  0
  191.4230  176.5620  138.8350 C   0  0  1  0  0  3  0  0  0  0  0  0
  189.5600  176.0950  137.2510 C   0  0  0  0  0  2  0  0  0  0  0  0
  190.6260  177.1000  137.6510 C   0  0  0  0  0  3  0  0  0  0  0  0
  189.1890  177.3030  138.0730 C   0  0  0  0  0  2  0  0  0  0  0  0
  192.9100  176.5830  138.5220 C   0  0  0  0  0  2  0  0  0  0  0  0
  193.1950  175.6780  137.3380 C   0  0  0  0  0  2  0  0  0  0  0  0
  194.1230  174.5620  137.7840 C   0  0  0  0  0  2  0  0  0  0  0  0
  196.0080  173.8910  136.1800 C   0  0  0  0  0  2  0  0  0  0  0  0
  194.5980  173.7400  136.5920 C   0  0  1  0  0  0  0  0  0  0  0  0
  195.5650  172.7760  136.9280 O   0  0  0  0  0  0  0  0  0  0  0  0
  193.6060  173.2230  135.5640 C   0  0  0  0  0  2  0  0  0  0  0  0
  193.1100  171.8430  135.9520 C   0  0  0  0  0  1  0  0  0  0  0  0
  1  4  1  0  0  0  0
  2  7  1  6  0  0  0
  2  6  1  0  0  0  0
  3  2  1  0  0  0  0
  3  5  1  0  0  0  0
  5 30  1  6  0  0  0
  5  1  1  0  0  0  0
  6  4  1  0  0  0  0
  8  9  1  0  0  0  0
  9 10  2  0  0  0  0
  9  7  1  0  0  0  0
 11  8  1  0  0  0  0
 12 16  1  0  0  0  0
 12 11  1  1  0  0  0
 14 13  1  0  0  0  0
 14 12  1  0  0  0  0
 15 14  2  0  0  0  0
 17 23  1  1  0  0  0
 17 26  1  0  0  0  0
 17 19  1  0  0  0  0
 19 16  1  0  0  0  0
 19 29  1  1  0  0  0
 19 22  1  0  0  0  0
 20 24  2  0  0  0  0
 22 18  1  0  0  0  0
 22 21  1  0  0  0  0
 24 25  1  0  0  0  0
 26 28  1  6  0  0  0
 26 27  1  0  0  0  0
 27 25  1  1  0  0  0
 27 22  1  0  0  0  0
 28 20  1  0  0  0  0
 31 32  1  0  0  0  0
 31 30  1  0  0  0  0
 32 33  1  0  0  0  0
 34 38  1  0  0  0  0
 35 39  1  1  0  0  0
 36 42  1  6  0  0  0
 36 34  1  0  0  0  0
 36 33  1  0  0  0  0
 36 37  1  0  0  0  0
 37 35  1  0  0  0  0
 38 35  1  0  0  0  0
 39 41  1  0  0  0  0
 40 39  2  0  0  0  0
 43 42  1  0  0  0  0
 44 48  1  6  0  0  0
 44 43  1  0  0  0  0
 45 46  1  0  0  0  0
 45 47  1  0  0  0  0
 46 47  1  0  0  0  0
 46 44  1  0  0  0  0
 49 50  1  0  0  0  0
 49 48  1  0  0  0  0
 51 52  1  0  0  0  0
 51 53  1  0  0  0  0
 52 54  1  6  0  0  0
 52 53  1  0  0  0  0
 52 50  1  0  0  0  0
 54 55  1  0  0  0  0
M  END
>  <MODEL>
7

>  <REMARK>
 VINA RESULT:      -6.1      2.536      3.939
  Name = 
  22 active torsions:
  status: ('A' for Active; 'I' for Inactive)
    1  A    between atoms: C_2  and  C_28
    2  A    between atoms: C_2  and  C_44
    3  A    between atoms: C_5  and  C_19
    4  A    between atoms: C_6  and  N_46
    5  A    between atoms: C_8  and  CA_22
    6  A    between atoms: C_8  and  N_35
    7  A    between atoms: C_10  and  C_32
    8  A    between atoms: C_15  and  C_17
    9  A    between atoms: C_16  and  C_17
   10  A    between atoms: C_16  and  C_26
   11  A    between atoms: C_17  and  C_36
   12  A    between atoms: C_19  and  C_45
   13  A    between atoms: C_20  and  CA_22
   14  A    between atoms: CA_22  and  N_46
   15  A    between atoms: C_26  and  C_45
   16  A    between atoms: C_27  and  C_54
   17  A    between atoms: C_28  and  C_33
   18  A    between atoms: C_33  and  N_49
   19  A    between atoms: C_34  and  N_49
   20  A    between atoms: C_34  and  C_52
   21  A    between atoms: C_36  and  C_52
   22  A    between atoms: C_43  and  C_54
                            x       y       z     vdW  Elec       q    Type
                         _______ _______ _______ _____ _____    ______ ____

>  <TORSDO>
F 22

$$$$
=
 OpenBabel10262420293D

 55 60  0  0  1  0  0  0  0  0999 V2000
  189.2020  177.2330  143.9150 C   0  0  0  0  0  2  0  0  0  0  0  0
  186.5350  178.2380  144.6370 C   0  0  2  0  0  3  0  0  0  0  0  0
  186.8530  177.7500  143.2270 C   0  0  0  0  0  2  0  0  0  0  0  0
  188.8990  177.7300  145.3260 C   0  0  0  0  0  2  0  0  0  0  0  0
  188.3310  177.9790  142.9080 C   0  0  2  0  0  3  0  0  0  0  0  0
  187.4250  177.5150  145.6560 C   0  0  0  0  0  2  0  0  0  0  0  0
  185.0680  177.9680  144.9300 C   0  0  0  0  0  2  0  0  0  0  0  0
  182.8900  178.6210  143.8330 N   0  0  0  0  0  2  0  0  0  0  0  0
  184.2020  178.9850  144.2700 C   0  0  0  0  0  0  0  0  0  0  0  0
  184.6220  180.1630  144.1270 O   0  0  0  0  0  0  0  0  0  0  0  0
  181.9400  179.5930  143.3110 C   0  0  0  0  0  2  0  0  0  0  0  0
  180.7040  178.8960  142.7580 C   0  0  2  0  0  3  0  0  0  0  0  0
  179.7120  177.2550  144.1820 O   0  0  0  0  0  0  0  0  0  0  0  0
  179.8250  178.4800  143.9000 C   0  0  0  0  0  0  0  0  0  0  0  0
  179.0740  179.4170  144.5990 O   0  0  0  0  0  1  0  0  0  0  0  0
  181.1020  177.7360  141.9530 N   0  0  0  0  0  2  0  0  0  0  0  0
  181.0160  176.5870  139.7920 C   0  0  1  0  0  3  0  0  0  0  0  0
  181.7660  179.6150  140.1560 F   0  0  0  0  0  0  0  0  0  0  0  0
  180.3870  177.6930  140.6700 C   0  0  2  0  0  0  0  0  0  0  0  0
  181.3650  177.3910  135.9850 C   0  0  0  0  0  3  0  0  0  0  0  0
  179.5160  179.8900  140.0870 F   0  0  0  0  0  0  0  0  0  0  0  0
  180.5540  179.0020  139.8640 C   0  0  0  0  0  0  0  0  0  0  0  0
  180.1320  175.5190  139.5830 O   0  0  0  0  0  1  0  0  0  0  0  0
  181.2990  178.7370  136.0720 C   0  0  0  0  0  3  0  0  0  0  0  0
  181.1350  179.4640  137.3870 C   0  0  0  0  0  2  0  0  0  0  0  0
  181.3910  177.2700  138.4800 C   0  0  2  0  0  3  0  0  0  0  0  0
  180.5490  178.5180  138.4320 C   0  0  1  0  0  3  0  0  0  0  0  0
  181.1930  176.4820  137.1850 C   0  0  0  0  0  2  0  0  0  0  0  0
  179.0220  177.4210  140.8720 O   0  0  0  0  0  1  0  0  0  0  0  0
  188.6410  177.4870  141.5050 C   0  0  0  0  0  2  0  0  0  0  0  0
  188.4830  178.6180  140.5060 C   0  0  0  0  0  2  0  0  0  0  0  0
  188.7950  178.1110  139.1170 C   0  0  0  0  0  2  0  0  0  0  0  0
  187.7970  177.1190  138.7280 N   0  0  0  0  0  2  0  0  0  0  0  0
  186.2110  176.3120  137.1030 C   0  0  0  0  0  2  0  0  0  0  0  0
  185.0360  178.3600  137.6920 C   0  0  1  0  0  3  0  0  0  0  0  0
  187.2500  177.3690  137.3840 C   0  0  1  0  0  0  0  0  0  0  0  0
  186.4710  178.6760  137.2910 C   0  0  0  0  0  2  0  0  0  0  0  0
  184.9070  176.8460  137.6630 C   0  0  0  0  0  2  0  0  0  0  0  0
  184.7110  178.8880  139.0650 C   0  0  0  0  0  0  0  0  0  0  0  0
  184.5480  178.0060  140.1270 O   0  0  0  0  0  1  0  0  0  0  0  0
  184.5540  180.1220  139.2570 O   0  0  0  0  0  0  0  0  0  0  0  0
  188.3300  177.2540  136.3040 C   0  0  0  0  0  2  0  0  0  0  0  0
  188.2260  175.9760  135.4690 C   0  0  0  0  0  2  0  0  0  0  0  0
  189.4840  175.1100  135.5800 C   0  0  1  0  0  3  0  0  0  0  0  0
  188.9610  172.9120  136.6250 C   0  0  0  0  0  2  0  0  0  0  0  0
  189.1850  173.6380  135.3100 C   0  0  0  0  0  3  0  0  0  0  0  0
  187.7840  173.3250  135.7790 C   0  0  0  0  0  2  0  0  0  0  0  0
  190.5850  175.6020  134.6540 C   0  0  0  0  0  2  0  0  0  0  0  0
  191.8400  174.7760  134.8700 C   0  0  0  0  0  2  0  0  0  0  0  0
  192.9910  175.7080  135.2030 C   0  0  0  0  0  2  0  0  0  0  0  0
  194.3050  174.8080  137.2120 C   0  0  0  0  0  2  0  0  0  0  0  0
  193.2640  175.7220  136.7020 C   0  0  1  0  0  0  0  0  0  0  0  0
  194.5480  176.1890  137.0320 O   0  0  0  0  0  0  0  0  0  0  0  0
  192.2070  176.2150  137.6760 C   0  0  0  0  0  2  0  0  0  0  0  0
  192.8540  176.9460  138.8360 C   0  0  0  0  0  1  0  0  0  0  0  0
  1  4  1  0  0  0  0
  2  7  1  1  0  0  0
  2  6  1  0  0  0  0
  3  2  1  0  0  0  0
  4  6  1  0  0  0  0
  5 30  1  6  0  0  0
  5  3  1  0  0  0  0
  5  1  1  0  0  0  0
  8  9  1  0  0  0  0
  9  7  1  0  0  0  0
 10  9  2  0  0  0  0
 11  8  1  0  0  0  0
 12 11  1  1  0  0  0
 12 14  1  0  0  0  0
 14 13  2  0  0  0  0
 14 15  1  0  0  0  0
 16 12  1  0  0  0  0
 17 23  1  6  0  0  0
 17 19  1  0  0  0  0
 19 29  1  1  0  0  0
 19 16  1  0  0  0  0
 20 24  2  0  0  0  0
 20 28  1  0  0  0  0
 22 21  1  0  0  0  0
 22 18  1  0  0  0  0
 22 19  1  0  0  0  0
 24 25  1  0  0  0  0
 26 28  1  6  0  0  0
 26 17  1  0  0  0  0
 27 25  1  6  0  0  0
 27 26  1  0  0  0  0
 27 22  1  0  0  0  0
 31 30  1  0  0  0  0
 32 31  1  0  0  0  0
 33 32  1  0  0  0  0
 34 36  1  0  0  0  0
 34 38  1  0  0  0  0
 35 39  1  1  0  0  0
 36 42  1  6  0  0  0
 36 33  1  0  0  0  0
 37 36  1  0  0  0  0
 37 35  1  0  0  0  0
 38 35  1  0  0  0  0
 39 41  2  0  0  0  0
 39 40  1  0  0  0  0
 43 44  1  0  0  0  0
 43 42  1  0  0  0  0
 44 48  1  6  0  0  0
 46 44  1  0  0  0  0
 46 47  1  0  0  0  0
 46 45  1  0  0  0  0
 47 45  1  0  0  0  0
 48 49  1  0  0  0  0
 49 50  1  0  0  0  0
 52 50  1  6  0  0  0
 52 53  1  0  0  0  0
 52 51  1  0  0  0  0
 52 54  1  0  0  0  0
 53 51  1  0  0  0  0
 54 55  1  0  0  0  0
M  END
>  <MODEL>
8

>  <REMARK>
 VINA RESULT:      -6.0      2.445      5.268
  Name = 
  22 active torsions:
  status: ('A' for Active; 'I' for Inactive)
    1  A    between atoms: C_2  and  C_28
    2  A    between atoms: C_2  and  C_44
    3  A    between atoms: C_5  and  C_19
    4  A    between atoms: C_6  and  N_46
    5  A    between atoms: C_8  and  CA_22
    6  A    between atoms: C_8  and  N_35
    7  A    between atoms: C_10  and  C_32
    8  A    between atoms: C_15  and  C_17
    9  A    between atoms: C_16  and  C_17
   10  A    between atoms: C_16  and  C_26
   11  A    between atoms: C_17  and  C_36
   12  A    between atoms: C_19  and  C_45
   13  A    between atoms: C_20  and  CA_22
   14  A    between atoms: CA_22  and  N_46
   15  A    between atoms: C_26  and  C_45
   16  A    between atoms: C_27  and  C_54
   17  A    between atoms: C_28  and  C_33
   18  A    between atoms: C_33  and  N_49
   19  A    between atoms: C_34  and  N_49
   20  A    between atoms: C_34  and  C_52
   21  A    between atoms: C_36  and  C_52
   22  A    between atoms: C_43  and  C_54
                            x       y       z     vdW  Elec       q    Type
                         _______ _______ _______ _____ _____    ______ ____

>  <TORSDO>
F 22

$$$$
=
 OpenBabel10262420293D

 55 60  0  0  1  0  0  0  0  0999 V2000
  188.6620  178.6620  139.1930 C   0  0  0  0  0  2  0  0  0  0  0  0
  189.7230  176.5580  140.9510 C   0  0  2  0  0  3  0  0  0  0  0  0
  190.2580  176.7660  139.5370 C   0  0  0  0  0  2  0  0  0  0  0  0
  188.1110  178.4550  140.6010 C   0  0  0  0  0  2  0  0  0  0  0  0
  189.1610  177.3320  138.6340 C   0  0  2  0  0  3  0  0  0  0  0  0
  189.1930  177.8830  141.5120 C   0  0  0  0  0  2  0  0  0  0  0  0
  190.8460  176.0240  141.8260 C   0  0  0  0  0  2  0  0  0  0  0  0
  191.1670  176.6210  144.2580 N   0  0  0  0  0  2  0  0  0  0  0  0
  191.2050  177.0110  142.8830 C   0  0  0  0  0  0  0  0  0  0  0  0
  191.5650  178.1720  142.5560 O   0  0  0  0  0  0  0  0  0  0  0  0
  191.6390  177.4840  145.3310 C   0  0  0  0  0  2  0  0  0  0  0  0
  191.0110  177.0850  146.6600 C   0  0  2  0  0  3  0  0  0  0  0  0
  192.5630  176.2730  148.2830 O   0  0  0  0  0  1  0  0  0  0  0  0
  191.8380  176.0030  147.2860 C   0  0  0  0  0  0  0  0  0  0  0  0
  191.8760  174.7270  146.7370 O   0  0  0  0  0  0  0  0  0  0  0  0
  189.6320  176.6350  146.4460 N   0  0  0  0  0  2  0  0  0  0  0  0
  187.4840  177.4900  147.2570 C   0  0  1  0  0  3  0  0  0  0  0  0
  188.0550  176.6860  144.2760 F   0  0  0  0  0  0  0  0  0  0  0  0
  188.7000  177.7680  146.3430 C   0  0  2  0  0  0  0  0  0  0  0  0
  183.9930  178.5540  145.8640 C   0  0  0  0  0  3  0  0  0  0  0  0
  188.8390  178.8100  144.1480 F   0  0  0  0  0  0  0  0  0  0  0  0
  188.1160  177.9160  144.9190 C   0  0  0  0  0  0  0  0  0  0  0  0
  187.4310  178.3800  148.3390 O   0  0  0  0  0  1  0  0  0  0  0  0
  184.3200  178.5970  144.5550 C   0  0  0  0  0  3  0  0  0  0  0  0
  185.7090  178.2780  144.0480 C   0  0  0  0  0  2  0  0  0  0  0  0
  186.2580  177.6230  146.3600 C   0  0  2  0  0  3  0  0  0  0  0  0
  186.7210  178.4360  145.1790 C   0  0  1  0  0  3  0  0  0  0  0  0
  185.0070  178.2700  146.9540 C   0  0  0  0  0  2  0  0  0  0  0  0
  189.3270  178.9630  146.7360 O   0  0  0  0  0  1  0  0  0  0  0  0
  189.7020  177.5410  137.2310 C   0  0  0  0  0  2  0  0  0  0  0  0
  188.6420  177.1910  136.2030 C   0  0  0  0  0  2  0  0  0  0  0  0
  187.6510  176.2250  136.8110 C   0  0  0  0  0  2  0  0  0  0  0  0
  186.7760  175.7060  135.7650 N   0  0  0  0  0  2  0  0  0  0  0  0
  184.9650  174.2370  135.1550 C   0  0  0  0  0  2  0  0  0  0  0  0
  186.3340  172.5830  136.2990 C   0  0  1  0  0  3  0  0  0  0  0  0
  185.6480  174.9300  136.3080 C   0  0  1  0  0  0  0  0  0  0  0  0
  186.0940  173.7820  137.2070 C   0  0  0  0  0  2  0  0  0  0  0  0
  185.6950  172.9220  134.9630 C   0  0  0  0  0  2  0  0  0  0  0  0
  187.8030  172.3030  136.1210 C   0  0  0  0  0  0  0  0  0  0  0  0
  188.7400  172.9920  136.8830 O   0  0  0  0  0  1  0  0  0  0  0  0
  188.1980  171.4690  135.2630 O   0  0  0  0  0  0  0  0  0  0  0  0
  184.6130  175.8340  136.9840 C   0  0  0  0  0  2  0  0  0  0  0  0
  183.6110  175.0710  137.8520 C   0  0  0  0  0  2  0  0  0  0  0  0
  182.1740  175.2240  137.3450 C   0  0  1  0  0  3  0  0  0  0  0  0
  181.3680  173.2790  136.0160 C   0  0  0  0  0  2  0  0  0  0  0  0
  181.4080  173.9050  137.3990 C   0  0  0  0  0  3  0  0  0  0  0  0
  182.3470  172.7750  137.0460 C   0  0  0  0  0  2  0  0  0  0  0  0
  181.4220  176.3000  138.1120 C   0  0  0  0  0  2  0  0  0  0  0  0
  181.9560  176.3840  139.5300 C   0  0  0  0  0  2  0  0  0  0  0  0
  181.0150  177.2380  140.3600 C   0  0  0  0  0  2  0  0  0  0  0  0
  180.8230  179.6890  141.0890 C   0  0  0  0  0  2  0  0  0  0  0  0
  181.6920  178.5340  140.7890 C   0  0  1  0  0  0  0  0  0  0  0  0
  181.4020  178.9050  142.1130 O   0  0  0  0  0  0  0  0  0  0  0  0
  183.1410  178.8080  140.4210 C   0  0  0  0  0  2  0  0  0  0  0  0
  183.2230  179.5520  139.1020 C   0  0  0  0  0  1  0  0  0  0  0  0
  1  4  1  0  0  0  0
  2  6  1  0  0  0  0
  2  7  1  1  0  0  0
  3  2  1  0  0  0  0
  4  6  1  0  0  0  0
  5 30  1  6  0  0  0
  5  1  1  0  0  0  0
  5  3  1  0  0  0  0
  7  9  1  0  0  0  0
  8 11  1  0  0  0  0
  9  8  1  0  0  0  0
 10  9  2  0  0  0  0
 12 11  1  6  0  0  0
 12 14  1  0  0  0  0
 14 13  1  0  0  0  0
 15 14  2  0  0  0  0
 16 12  1  0  0  0  0
 17 23  1  1  0  0  0
 18 22  1  0  0  0  0
 19 16  1  0  0  0  0
 19 29  1  1  0  0  0
 19 17  1  0  0  0  0
 20 28  1  0  0  0  0
 21 22  1  0  0  0  0
 22 27  1  0  0  0  0
 22 19  1  0  0  0  0
 24 20  2  0  0  0  0
 25 24  1  0  0  0  0
 26 28  1  1  0  0  0
 26 17  1  0  0  0  0
 27 25  1  6  0  0  0
 27 26  1  0  0  0  0
 31 32  1  0  0  0  0
 31 30  1  0  0  0  0
 33 36  1  0  0  0  0
 33 32  1  0  0  0  0
 34 36  1  0  0  0  0
 35 39  1  6  0  0  0
 35 37  1  0  0  0  0
 36 42  1  1  0  0  0
 36 37  1  0  0  0  0
 38 34  1  0  0  0  0
 38 35  1  0  0  0  0
 39 40  1  0  0  0  0
 41 39  2  0  0  0  0
 42 43  1  0  0  0  0
 44 46  1  0  0  0  0
 44 43  1  1  0  0  0
 44 48  1  0  0  0  0
 45 47  1  0  0  0  0
 45 46  1  0  0  0  0
 47 46  1  0  0  0  0
 48 49  1  0  0  0  0
 49 50  1  0  0  0  0
 51 53  1  0  0  0  0
 52 50  1  6  0  0  0
 52 51  1  0  0  0  0
 52 53  1  0  0  0  0
 54 52  1  0  0  0  0
 55 54  1  0  0  0  0
M  END
>  <MODEL>
9

>  <REMARK>
 VINA RESULT:      -6.0      3.376      9.932
  Name = 
  22 active torsions:
  status: ('A' for Active; 'I' for Inactive)
    1  A    between atoms: C_2  and  C_28
    2  A    between atoms: C_2  and  C_44
    3  A    between atoms: C_5  and  C_19
    4  A    between atoms: C_6  and  N_46
    5  A    between atoms: C_8  and  CA_22
    6  A    between atoms: C_8  and  N_35
    7  A    between atoms: C_10  and  C_32
    8  A    between atoms: C_15  and  C_17
    9  A    between atoms: C_16  and  C_17
   10  A    between atoms: C_16  and  C_26
   11  A    between atoms: C_17  and  C_36
   12  A    between atoms: C_19  and  C_45
   13  A    between atoms: C_20  and  CA_22
   14  A    between atoms: CA_22  and  N_46
   15  A    between atoms: C_26  and  C_45
   16  A    between atoms: C_27  and  C_54
   17  A    between atoms: C_28  and  C_33
   18  A    between atoms: C_33  and  N_49
   19  A    between atoms: C_34  and  N_49
   20  A    between atoms: C_34  and  C_52
   21  A    between atoms: C_36  and  C_52
   22  A    between atoms: C_43  and  C_54
                            x       y       z     vdW  Elec       q    Type
                         _______ _______ _______ _____ _____    ______ ____

>  <TORSDO>
F 22

$$$$
