=
 OpenBabel10262419493D

 25 29  0  0  1  0  0  0  0  0999 V2000
  187.2190  177.9550  145.7570 C   0  0  0  0  0  0  0  0  0  0  0  0
  188.5380  177.6560  145.4270 C   0  0  0  0  0  0  0  0  0  0  0  0
  187.6640  177.7200  148.0770 N   0  0  0  0  0  0  0  0  0  0  0  0
  186.1030  178.2810  145.0230 C   0  0  0  0  0  0  0  0  0  0  0  0
  190.3090  176.9470  143.7640 C   0  0  2  0  0  0  0  0  0  0  0  0
  183.5590  178.9620  144.1720 C   0  0  0  0  0  3  0  0  0  0  0  0
  188.9400  177.4310  147.7910 N   0  0  0  0  0  0  0  0  0  0  0  0
  185.0930  178.4730  145.9470 C   0  0  0  0  0  0  0  0  0  0  0  0
  183.8020  178.8160  145.5510 C   0  0  0  0  0  3  0  0  0  0  0  0
  190.8170  177.0420  146.2450 C   0  0  0  0  0  0  0  0  0  0  0  0
  191.6480  177.0690  147.1910 O   0  0  0  0  0  0  0  0  0  0  0  0
  189.0280  177.7480  144.0140 C   0  0  0  0  0  2  0  0  0  0  0  0
  184.5960  178.7650  143.2320 C   0  0  0  0  0  3  0  0  0  0  0  0
  186.8060  177.9800  147.0650 C   0  0  0  0  0  0  0  0  0  0  0  0
  185.5300  178.2880  147.1770 O   0  0  0  0  0  0  0  0  0  0  0  0
  191.2810  176.5950  144.8890 C   0  0  2  0  0  3  0  0  0  0  0  0
  185.8910  178.4180  143.6530 C   0  0  0  0  0  3  0  0  0  0  0  0
  191.5420  177.7960  143.9920 C   0  0  0  0  0  2  0  0  0  0  0  0
  189.4110  177.3880  146.5030 C   0  0  0  0  0  0  0  0  0  0  0  0
  190.4180  176.1310  142.4920 C   0  0  0  0  0  2  0  0  0  0  0  0
  190.9190  177.0010  141.3510 C   0  0  0  0  0  2  0  0  0  0  0  0
  189.0150  177.5150  139.7670 C   0  0  0  0  0  0  0  0  0  0  0  0
  188.6460  178.4950  140.4680 O   0  0  0  0  0  0  0  0  0  0  0  0
  188.2650  177.1700  138.5320 C   0  0  0  0  0  1  0  0  0  0  0  0
  190.1500  176.7340  140.1450 N   0  0  0  0  0  2  0  0  0  0  0  0
  1 14  1  0  0  0  0
  2  1  2  0  0  0  0
  2 19  1  0  0  0  0
  4  1  1  0  0  0  0
  4  8  1  0  0  0  0
  5 20  1  6  0  0  0
  5 18  1  0  0  0  0
  5 12  1  0  0  0  0
  5 16  1  0  0  0  0
  6  9  1  0  0  0  0
  7  3  1  0  0  0  0
  8 15  1  0  0  0  0
  9  8  2  0  0  0  0
 10 19  1  0  0  0  0
 10 11  2  0  0  0  0
 12  2  1  0  0  0  0
 13 17  1  0  0  0  0
 13  6  2  0  0  0  0
 14 15  1  0  0  0  0
 14  3  2  0  0  0  0
 16 18  1  6  0  0  0
 16 10  1  0  0  0  0
 17  4  2  0  0  0  0
 19  7  2  0  0  0  0
 21 20  1  0  0  0  0
 22 25  1  0  0  0  0
 22 23  2  0  0  0  0
 24 22  1  0  0  0  0
 25 21  1  0  0  0  0
M  END
>  <MODEL>
1

>  <REMARK>
 VINA RESULT:     -10.6      0.000      0.000
  Name = 
  3 active torsions:
  status: ('A' for Active; 'I' for Inactive)
    1  A    between atoms: C_6  and  C_15
    2  A    between atoms: C_15  and  C_25
    3  A    between atoms: N_21  and  C_25
                            x       y       z     vdW  Elec       q    Type
                         _______ _______ _______ _____ _____    ______ ____

>  <TORSDO>
F 3

$$$$
=
 OpenBabel10262419493D

 25 29  0  0  1  0  0  0  0  0999 V2000
  187.9080  177.7920  145.8920 C   0  0  0  0  0  0  0  0  0  0  0  0
  186.8460  178.0920  145.0430 C   0  0  0  0  0  0  0  0  0  0  0  0
  186.6800  178.4800  147.8020 N   0  0  0  0  0  0  0  0  0  0  0  0
  189.1680  177.2780  145.6960 C   0  0  0  0  0  0  0  0  0  0  0  0
  185.8990  178.5660  142.7450 C   0  0  2  0  0  0  0  0  0  0  0  0
  191.7480  176.3200  145.9910 C   0  0  0  0  0  3  0  0  0  0  0  0
  185.6390  178.7760  147.0130 N   0  0  0  0  0  0  0  0  0  0  0  0
  189.7420  177.2100  146.9520 C   0  0  0  0  0  0  0  0  0  0  0  0
  191.0380  176.7330  147.1340 C   0  0  0  0  0  3  0  0  0  0  0  0
  184.5150  178.9640  144.8300 C   0  0  0  0  0  0  0  0  0  0  0  0
  183.3990  179.1580  145.3810 O   0  0  0  0  0  0  0  0  0  0  0  0
  186.8970  177.7610  143.5820 C   0  0  0  0  0  2  0  0  0  0  0  0
  191.1570  176.3900  144.7090 C   0  0  0  0  0  3  0  0  0  0  0  0
  187.8110  177.9920  147.2450 C   0  0  0  0  0  0  0  0  0  0  0  0
  188.9120  177.6440  147.8790 O   0  0  0  0  0  0  0  0  0  0  0  0
  184.6340  179.1730  143.3480 C   0  0  2  0  0  3  0  0  0  0  0  0
  189.8470  176.8760  144.5480 C   0  0  0  0  0  3  0  0  0  0  0  0
  184.5770  177.8400  142.6160 C   0  0  0  0  0  2  0  0  0  0  0  0
  185.6790  178.6010  145.6520 C   0  0  0  0  0  0  0  0  0  0  0  0
  186.3600  179.1340  141.4170 C   0  0  0  0  0  2  0  0  0  0  0  0
  187.6950  178.5270  141.0210 C   0  0  0  0  0  2  0  0  0  0  0  0
  189.0950  178.2500  138.9330 C   0  0  0  0  0  0  0  0  0  0  0  0
  190.0730  177.8170  139.6000 O   0  0  0  0  0  0  0  0  0  0  0  0
  189.2120  178.3830  137.4580 C   0  0  0  0  0  1  0  0  0  0  0  0
  187.8730  178.6100  139.5800 N   0  0  0  0  0  2  0  0  0  0  0  0
  1 14  1  0  0  0  0
  2 19  1  0  0  0  0
  2  1  2  0  0  0  0
  4  1  1  0  0  0  0
  4  8  1  0  0  0  0
  5 20  1  6  0  0  0
  5 16  1  0  0  0  0
  5 12  1  0  0  0  0
  6  9  1  0  0  0  0
  7  3  1  0  0  0  0
  8  9  2  0  0  0  0
  8 15  1  0  0  0  0
 10 11  2  0  0  0  0
 10 19  1  0  0  0  0
 12  2  1  0  0  0  0
 13  6  2  0  0  0  0
 14  3  2  0  0  0  0
 14 15  1  0  0  0  0
 16 18  1  6  0  0  0
 16 10  1  0  0  0  0
 17 13  1  0  0  0  0
 17  4  2  0  0  0  0
 18  5  1  0  0  0  0
 19  7  2  0  0  0  0
 21 20  1  0  0  0  0
 22 25  1  0  0  0  0
 22 23  2  0  0  0  0
 24 22  1  0  0  0  0
 25 21  1  0  0  0  0
M  END
>  <MODEL>
2

>  <REMARK>
 VINA RESULT:     -10.5      1.664      4.893
  Name = 
  3 active torsions:
  status: ('A' for Active; 'I' for Inactive)
    1  A    between atoms: C_6  and  C_15
    2  A    between atoms: C_15  and  C_25
    3  A    between atoms: N_21  and  C_25
                            x       y       z     vdW  Elec       q    Type
                         _______ _______ _______ _____ _____    ______ ____

>  <TORSDO>
F 3

$$$$
=
 OpenBabel10262419493D

 25 29  0  0  1  0  0  0  0  0999 V2000
  185.5500  178.3460  144.9460 C   0  0  0  0  0  0  0  0  0  0  0  0
  186.9010  178.0320  145.0650 C   0  0  0  0  0  0  0  0  0  0  0  0
  185.3300  178.6360  147.2920 N   0  0  0  0  0  0  0  0  0  0  0  0
  184.6890  178.4630  143.8800 C   0  0  0  0  0  0  0  0  0  0  0  0
  189.0450  177.0470  144.1500 C   0  0  2  0  0  0  0  0  0  0  0  0
  182.4970  178.8480  142.2350 C   0  0  0  0  0  3  0  0  0  0  0  0
  186.6270  178.3400  147.4390 N   0  0  0  0  0  0  0  0  0  0  0  0
  183.4670  178.8130  144.4250 C   0  0  0  0  0  0  0  0  0  0  0  0
  182.3450  179.0140  143.6250 C   0  0  0  0  0  3  0  0  0  0  0  0
  188.8490  177.6960  146.5920 C   0  0  0  0  0  0  0  0  0  0  0  0
  189.3870  177.9580  147.7000 O   0  0  0  0  0  0  0  0  0  0  0  0
  187.7650  177.8340  143.8570 C   0  0  0  0  0  2  0  0  0  0  0  0
  183.7480  178.4900  141.6830 C   0  0  0  0  0  3  0  0  0  0  0  0
  184.7920  178.6380  146.0510 C   0  0  0  0  0  0  0  0  0  0  0  0
  183.5430  178.9160  145.7370 O   0  0  0  0  0  0  0  0  0  0  0  0
  189.6580  176.9830  145.5480 C   0  0  2  0  0  3  0  0  0  0  0  0
  184.8680  178.2920  142.5090 C   0  0  0  0  0  3  0  0  0  0  0  0
  190.1870  177.9700  144.5180 C   0  0  0  0  0  2  0  0  0  0  0  0
  187.4350  178.0360  146.3710 C   0  0  0  0  0  0  0  0  0  0  0  0
  189.4810  175.9790  143.1670 C   0  0  0  0  0  2  0  0  0  0  0  0
  190.5370  176.5320  142.2250 C   0  0  0  0  0  2  0  0  0  0  0  0
  189.3140  177.2880  140.1440 C   0  0  0  0  0  0  0  0  0  0  0  0
  188.9410  178.3540  140.7030 O   0  0  0  0  0  0  0  0  0  0  0  0
  188.9110  177.0140  138.7400 C   0  0  0  0  0  1  0  0  0  0  0  0
  190.1230  176.3410  140.8430 N   0  0  0  0  0  2  0  0  0  0  0  0
  1  2  2  0  0  0  0
  1 14  1  0  0  0  0
  2 19  1  0  0  0  0
  3  7  1  0  0  0  0
  4  8  1  0  0  0  0
  4  1  1  0  0  0  0
  5 20  1  6  0  0  0
  5 18  1  0  0  0  0
  5 16  1  0  0  0  0
  6  9  1  0  0  0  0
  8 15  1  0  0  0  0
  9  8  2  0  0  0  0
 10 11  2  0  0  0  0
 12  5  1  0  0  0  0
 12  2  1  0  0  0  0
 13  6  2  0  0  0  0
 13 17  1  0  0  0  0
 14  3  2  0  0  0  0
 15 14  1  0  0  0  0
 16 18  1  6  0  0  0
 16 10  1  0  0  0  0
 17  4  2  0  0  0  0
 19 10  1  0  0  0  0
 19  7  2  0  0  0  0
 21 20  1  0  0  0  0
 22 23  2  0  0  0  0
 22 25  1  0  0  0  0
 24 22  1  0  0  0  0
 25 21  1  0  0  0  0
M  END
>  <MODEL>
3

>  <REMARK>
 VINA RESULT:     -10.4      1.305      1.835
  Name = 
  3 active torsions:
  status: ('A' for Active; 'I' for Inactive)
    1  A    between atoms: C_6  and  C_15
    2  A    between atoms: C_15  and  C_25
    3  A    between atoms: N_21  and  C_25
                            x       y       z     vdW  Elec       q    Type
                         _______ _______ _______ _____ _____    ______ ____

>  <TORSDO>
F 3

$$$$
=
 OpenBabel10262419493D

 25 29  0  0  1  0  0  0  0  0999 V2000
  186.8660  178.0750  145.7330 C   0  0  0  0  0  0  0  0  0  0  0  0
  185.9520  178.2520  144.6980 C   0  0  0  0  0  0  0  0  0  0  0  0
  185.2620  178.7050  147.3640 N   0  0  0  0  0  0  0  0  0  0  0  0
  188.1800  177.6720  145.7850 C   0  0  0  0  0  0  0  0  0  0  0  0
  185.3970  178.5710  142.2490 C   0  0  2  0  0  0  0  0  0  0  0  0
  190.7360  176.9610  146.5730 C   0  0  0  0  0  3  0  0  0  0  0  0
  184.3590  178.8820  146.3920 N   0  0  0  0  0  0  0  0  0  0  0  0
  188.5230  177.6930  147.1240 C   0  0  0  0  0  0  0  0  0  0  0  0
  189.8000  177.3420  147.5530 C   0  0  0  0  0  3  0  0  0  0  0  0
  183.6320  178.9030  144.0380 C   0  0  0  0  0  0  0  0  0  0  0  0
  182.4230  179.0110  144.3750 O   0  0  0  0  0  0  0  0  0  0  0  0
  186.2920  177.8850  143.2850 C   0  0  0  0  0  2  0  0  0  0  0  0
  190.3800  176.9390  145.2050 C   0  0  0  0  0  3  0  0  0  0  0  0
  186.5110  178.3050  147.0370 C   0  0  0  0  0  0  0  0  0  0  0  0
  187.5060  178.0780  147.8710 O   0  0  0  0  0  0  0  0  0  0  0  0
  183.9970  179.0780  142.5920 C   0  0  2  0  0  3  0  0  0  0  0  0
  189.0850  177.2990  144.7940 C   0  0  0  0  0  3  0  0  0  0  0  0
  184.1850  177.7240  141.9230 C   0  0  0  0  0  2  0  0  0  0  0  0
  184.6560  178.6710  145.0680 C   0  0  0  0  0  0  0  0  0  0  0  0
  186.0380  179.1390  140.9990 C   0  0  0  0  0  2  0  0  0  0  0  0
  187.3490  178.4260  140.7120 C   0  0  0  0  0  2  0  0  0  0  0  0
  188.9990  178.3000  138.7990 C   0  0  0  0  0  0  0  0  0  0  0  0
  189.9260  177.9370  139.5720 O   0  0  0  0  0  0  0  0  0  0  0  0
  189.2740  178.4660  137.3480 C   0  0  0  0  0  1  0  0  0  0  0  0
  187.6850  178.5490  139.3020 N   0  0  0  0  0  2  0  0  0  0  0  0
  1  4  1  0  0  0  0
  1 14  1  0  0  0  0
  2 19  1  0  0  0  0
  2  1  2  0  0  0  0
  4  8  1  0  0  0  0
  5 20  1  6  0  0  0
  5 16  1  0  0  0  0
  5 12  1  0  0  0  0
  6  9  1  0  0  0  0
  7  3  1  0  0  0  0
  8  9  2  0  0  0  0
  8 15  1  0  0  0  0
 10 11  2  0  0  0  0
 10 19  1  0  0  0  0
 12  2  1  0  0  0  0
 13  6  2  0  0  0  0
 14  3  2  0  0  0  0
 14 15  1  0  0  0  0
 16 18  1  6  0  0  0
 16 10  1  0  0  0  0
 17 13  1  0  0  0  0
 17  4  2  0  0  0  0
 18  5  1  0  0  0  0
 19  7  2  0  0  0  0
 21 20  1  0  0  0  0
 22 25  1  0  0  0  0
 22 23  2  0  0  0  0
 24 22  1  0  0  0  0
 25 21  1  0  0  0  0
M  END
>  <MODEL>
4

>  <REMARK>
 VINA RESULT:     -10.2      1.948      5.011
  Name = 
  3 active torsions:
  status: ('A' for Active; 'I' for Inactive)
    1  A    between atoms: C_6  and  C_15
    2  A    between atoms: C_15  and  C_25
    3  A    between atoms: N_21  and  C_25
                            x       y       z     vdW  Elec       q    Type
                         _______ _______ _______ _____ _____    ______ ____

>  <TORSDO>
F 3

$$$$
=
 OpenBabel10262419493D

 25 29  0  0  1  0  0  0  0  0999 V2000
  186.6900  178.2870  142.5950 C   0  0  0  0  0  0  0  0  0  0  0  0
  188.0020  177.8230  142.5770 C   0  0  0  0  0  0  0  0  0  0  0  0
  186.7040  178.6530  140.2500 N   0  0  0  0  0  0  0  0  0  0  0  0
  185.7490  178.4480  143.5850 C   0  0  0  0  0  0  0  0  0  0  0  0
  190.1770  177.2550  143.7400 C   0  0  2  0  0  0  0  0  0  0  0  0
  183.4690  179.0060  145.0500 C   0  0  0  0  0  3  0  0  0  0  0  0
  187.9670  178.2100  140.2000 N   0  0  0  0  0  0  0  0  0  0  0  0
  184.6260  178.9480  142.9530 C   0  0  0  0  0  0  0  0  0  0  0  0
  183.4620  179.2390  143.6620 C   0  0  0  0  0  3  0  0  0  0  0  0
  190.0360  177.3360  141.2110 C   0  0  0  0  0  0  0  0  0  0  0  0
  190.5130  177.0550  140.0800 O   0  0  0  0  0  0  0  0  0  0  0  0
  188.6470  177.2610  143.8080 C   0  0  0  0  0  2  0  0  0  0  0  0
  184.6190  178.4940  145.6910 C   0  0  0  0  0  3  0  0  0  0  0  0
  186.0680  178.6940  141.4420 C   0  0  0  0  0  0  0  0  0  0  0  0
  184.8310  179.0920  141.6590 O   0  0  0  0  0  0  0  0  0  0  0  0
  190.9330  177.2550  142.4120 C   0  0  2  0  0  3  0  0  0  0  0  0
  185.7830  178.2080  144.9570 C   0  0  0  0  0  3  0  0  0  0  0  0
  190.6970  175.9540  143.1660 C   0  0  0  0  0  2  0  0  0  0  0  0
  188.6420  177.7930  141.3200 C   0  0  0  0  0  0  0  0  0  0  0  0
  190.9590  177.6790  144.9670 C   0  0  0  0  0  2  0  0  0  0  0  0
  190.6870  176.7250  146.1180 C   0  0  0  0  0  2  0  0  0  0  0  0
  188.8200  177.4050  147.6830 C   0  0  0  0  0  0  0  0  0  0  0  0
  187.9890  176.6850  147.0670 O   0  0  0  0  0  0  0  0  0  0  0  0
  188.3750  178.2020  148.8550 C   0  0  0  0  0  1  0  0  0  0  0  0
  190.1860  177.4610  147.2690 N   0  0  0  0  0  2  0  0  0  0  0  0
  1  4  1  0  0  0  0
  2  1  2  0  0  0  0
  2 12  1  0  0  0  0
  3 14  2  0  0  0  0
  4 17  1  0  0  0  0
  5 12  1  0  0  0  0
  5 20  1  1  0  0  0
  6 13  1  0  0  0  0
  7  3  1  0  0  0  0
  7 19  2  0  0  0  0
  8  4  2  0  0  0  0
  8  9  1  0  0  0  0
  9  6  2  0  0  0  0
 10 19  1  0  0  0  0
 10 16  1  0  0  0  0
 11 10  2  0  0  0  0
 14 15  1  0  0  0  0
 14  1  1  0  0  0  0
 15  8  1  0  0  0  0
 16 18  1  6  0  0  0
 16  5  1  0  0  0  0
 17 13  2  0  0  0  0
 18  5  1  0  0  0  0
 19  2  1  0  0  0  0
 20 21  1  0  0  0  0
 21 25  1  0  0  0  0
 22 24  1  0  0  0  0
 23 22  2  0  0  0  0
 25 22  1  0  0  0  0
M  END
>  <MODEL>
5

>  <REMARK>
 VINA RESULT:      -9.9      1.799      5.089
  Name = 
  3 active torsions:
  status: ('A' for Active; 'I' for Inactive)
    1  A    between atoms: C_6  and  C_15
    2  A    between atoms: C_15  and  C_25
    3  A    between atoms: N_21  and  C_25
                            x       y       z     vdW  Elec       q    Type
                         _______ _______ _______ _____ _____    ______ ____

>  <TORSDO>
F 3

$$$$
=
 OpenBabel10262419493D

 25 29  0  0  1  0  0  0  0  0999 V2000
  187.8060  177.7610  145.8210 C   0  0  0  0  0  0  0  0  0  0  0  0
  186.7200  178.0830  145.0100 C   0  0  0  0  0  0  0  0  0  0  0  0
  186.5990  178.3100  147.7900 N   0  0  0  0  0  0  0  0  0  0  0  0
  189.0740  177.2900  145.5730 C   0  0  0  0  0  0  0  0  0  0  0  0
  185.7190  178.6640  142.7600 C   0  0  2  0  0  0  0  0  0  0  0  0
  191.6800  176.3800  145.7660 C   0  0  0  0  0  3  0  0  0  0  0  0
  185.5370  178.6250  147.0370 N   0  0  0  0  0  0  0  0  0  0  0  0
  189.6730  177.1650  146.8130 C   0  0  0  0  0  0  0  0  0  0  0  0
  190.9830  176.7110  146.9440 C   0  0  0  0  0  3  0  0  0  0  0  0
  184.3660  178.9090  144.8890 C   0  0  0  0  0  0  0  0  0  0  0  0
  183.2570  179.0440  145.4700 O   0  0  0  0  0  0  0  0  0  0  0  0
  186.7510  177.8370  143.5320 C   0  0  0  0  0  2  0  0  0  0  0  0
  191.0630  176.5090  144.5010 C   0  0  0  0  0  3  0  0  0  0  0  0
  187.7300  177.8820  147.1850 C   0  0  0  0  0  0  0  0  0  0  0  0
  188.8510  177.5260  147.7780 O   0  0  0  0  0  0  0  0  0  0  0  0
  184.4510  179.2040  143.4200 C   0  0  2  0  0  3  0  0  0  0  0  0
  189.7390  176.9710  144.3920 C   0  0  0  0  0  3  0  0  0  0  0  0
  184.4120  177.9130  142.6140 C   0  0  0  0  0  2  0  0  0  0  0  0
  185.5540  178.5280  145.6680 C   0  0  0  0  0  0  0  0  0  0  0  0
  186.1400  179.3170  141.4590 C   0  0  0  0  0  2  0  0  0  0  0  0
  185.3610  178.7230  140.2970 C   0  0  0  0  0  2  0  0  0  0  0  0
  183.1610  179.5840  139.3940 C   0  0  0  0  0  0  0  0  0  0  0  0
  182.5640  178.5280  139.7320 O   0  0  0  0  0  0  0  0  0  0  0  0
  182.4060  180.6710  138.7170 C   0  0  0  0  0  1  0  0  0  0  0  0
  184.5550  179.7520  139.6580 N   0  0  0  0  0  2  0  0  0  0  0  0
  1 14  1  0  0  0  0
  2 19  1  0  0  0  0
  2  1  2  0  0  0  0
  4  1  1  0  0  0  0
  4  8  1  0  0  0  0
  5 20  1  6  0  0  0
  5 16  1  0  0  0  0
  5 12  1  0  0  0  0
  6  9  1  0  0  0  0
  7  3  1  0  0  0  0
  8  9  2  0  0  0  0
  8 15  1  0  0  0  0
 10 11  2  0  0  0  0
 10 19  1  0  0  0  0
 12  2  1  0  0  0  0
 13  6  2  0  0  0  0
 14 15  1  0  0  0  0
 14  3  2  0  0  0  0
 16 18  1  6  0  0  0
 16 10  1  0  0  0  0
 17 13  1  0  0  0  0
 17  4  2  0  0  0  0
 18  5  1  0  0  0  0
 19  7  2  0  0  0  0
 21 20  1  0  0  0  0
 22 25  1  0  0  0  0
 22 23  2  0  0  0  0
 24 22  1  0  0  0  0
 25 21  1  0  0  0  0
M  END
>  <MODEL>
6

>  <REMARK>
 VINA RESULT:      -9.9      2.635      5.559
  Name = 
  3 active torsions:
  status: ('A' for Active; 'I' for Inactive)
    1  A    between atoms: C_6  and  C_15
    2  A    between atoms: C_15  and  C_25
    3  A    between atoms: N_21  and  C_25
                            x       y       z     vdW  Elec       q    Type
                         _______ _______ _______ _____ _____    ______ ____

>  <TORSDO>
F 3

$$$$
=
 OpenBabel10262419493D

 25 29  0  0  1  0  0  0  0  0999 V2000
  186.3850  178.4150  142.4410 C   0  0  0  0  0  0  0  0  0  0  0  0
  187.6710  178.0430  142.0580 C   0  0  0  0  0  0  0  0  0  0  0  0
  185.7640  178.8700  140.1960 N   0  0  0  0  0  0  0  0  0  0  0  0
  185.7290  178.4730  143.6480 C   0  0  0  0  0  0  0  0  0  0  0  0
  190.1030  177.5810  142.5850 C   0  0  2  0  0  0  0  0  0  0  0  0
  183.8850  178.8170  145.6820 C   0  0  0  0  0  3  0  0  0  0  0  0
  186.9920  178.5160  139.7960 N   0  0  0  0  0  0  0  0  0  0  0  0
  184.4530  178.9180  143.3570 C   0  0  0  0  0  0  0  0  0  0  0  0
  183.5020  179.1020  144.3580 C   0  0  0  0  0  3  0  0  0  0  0  0
  189.3000  177.7490  140.1870 C   0  0  0  0  0  0  0  0  0  0  0  0
  189.4780  177.5440  138.9570 O   0  0  0  0  0  0  0  0  0  0  0  0
  188.6470  177.4800  143.0470 C   0  0  0  0  0  2  0  0  0  0  0  0
  185.1900  178.3610  145.9750 C   0  0  0  0  0  3  0  0  0  0  0  0
  185.4610  178.8220  141.5130 C   0  0  0  0  0  0  0  0  0  0  0  0
  184.3040  179.1250  142.0640 O   0  0  0  0  0  0  0  0  0  0  0  0
  190.4830  177.6840  141.1090 C   0  0  2  0  0  3  0  0  0  0  0  0
  186.1350  178.1840  144.9490 C   0  0  0  0  0  3  0  0  0  0  0  0
  190.5260  176.3420  141.8250 C   0  0  0  0  0  2  0  0  0  0  0  0
  187.9590  178.1050  140.6790 C   0  0  0  0  0  0  0  0  0  0  0  0
  191.1540  178.0110  143.5890 C   0  0  0  0  0  2  0  0  0  0  0  0
  190.6610  177.7600  145.0040 C   0  0  0  0  0  2  0  0  0  0  0  0
  191.4700  176.5980  147.1000 C   0  0  0  0  0  0  0  0  0  0  0  0
  190.5390  177.1010  147.7850 O   0  0  0  0  0  0  0  0  0  0  0  0
  192.4600  175.7020  147.7520 C   0  0  0  0  0  1  0  0  0  0  0  0
  191.5810  176.8760  145.7030 N   0  0  0  0  0  2  0  0  0  0  0  0
  1  4  1  0  0  0  0
  2  1  2  0  0  0  0
  2 12  1  0  0  0  0
  3 14  2  0  0  0  0
  4 17  1  0  0  0  0
  5 12  1  0  0  0  0
  5 20  1  1  0  0  0
  6 13  1  0  0  0  0
  7  3  1  0  0  0  0
  7 19  2  0  0  0  0
  8  4  2  0  0  0  0
  8  9  1  0  0  0  0
  9  6  2  0  0  0  0
 10 19  1  0  0  0  0
 10 16  1  0  0  0  0
 11 10  2  0  0  0  0
 14 15  1  0  0  0  0
 14  1  1  0  0  0  0
 15  8  1  0  0  0  0
 16 18  1  6  0  0  0
 16  5  1  0  0  0  0
 17 13  2  0  0  0  0
 18  5  1  0  0  0  0
 19  2  1  0  0  0  0
 20 21  1  0  0  0  0
 21 25  1  0  0  0  0
 22 24  1  0  0  0  0
 22 23  2  0  0  0  0
 25 22  1  0  0  0  0
M  END
>  <MODEL>
7

>  <REMARK>
 VINA RESULT:      -9.9      2.057      5.282
  Name = 
  3 active torsions:
  status: ('A' for Active; 'I' for Inactive)
    1  A    between atoms: C_6  and  C_15
    2  A    between atoms: C_15  and  C_25
    3  A    between atoms: N_21  and  C_25
                            x       y       z     vdW  Elec       q    Type
                         _______ _______ _______ _____ _____    ______ ____

>  <TORSDO>
F 3

$$$$
=
 OpenBabel10262419493D

 25 29  0  0  1  0  0  0  0  0999 V2000
  187.8000  177.7820  145.7970 C   0  0  0  0  0  0  0  0  0  0  0  0
  186.7120  178.1060  144.9920 C   0  0  0  0  0  0  0  0  0  0  0  0
  186.5960  178.3080  147.7730 N   0  0  0  0  0  0  0  0  0  0  0  0
  189.0690  177.3180  145.5420 C   0  0  0  0  0  0  0  0  0  0  0  0
  185.7040  178.7050  142.7490 C   0  0  2  0  0  0  0  0  0  0  0  0
  191.6800  176.4160  145.7220 C   0  0  0  0  0  3  0  0  0  0  0  0
  185.5310  178.6250  147.0260 N   0  0  0  0  0  0  0  0  0  0  0  0
  189.6720  177.1830  146.7800 C   0  0  0  0  0  0  0  0  0  0  0  0
  190.9840  176.7330  146.9040 C   0  0  0  0  0  3  0  0  0  0  0  0
  184.3550  178.9250  144.8830 C   0  0  0  0  0  0  0  0  0  0  0  0
  183.2460  179.0500  145.4680 O   0  0  0  0  0  0  0  0  0  0  0  0
  186.7410  177.8750  143.5110 C   0  0  0  0  0  2  0  0  0  0  0  0
  191.0590  176.5540  144.4590 C   0  0  0  0  0  3  0  0  0  0  0  0
  187.7270  177.8890  147.1620 C   0  0  0  0  0  0  0  0  0  0  0  0
  188.8510  177.5320  147.7500 O   0  0  0  0  0  0  0  0  0  0  0  0
  184.4350  179.2340  143.4160 C   0  0  2  0  0  3  0  0  0  0  0  0
  189.7340  177.0120  144.3570 C   0  0  0  0  0  3  0  0  0  0  0  0
  184.3990  177.9510  142.5980 C   0  0  0  0  0  2  0  0  0  0  0  0
  185.5460  178.5410  145.6560 C   0  0  0  0  0  0  0  0  0  0  0  0
  186.1200  179.3720  141.4530 C   0  0  0  0  0  2  0  0  0  0  0  0
  185.5430  178.6180  140.2660 C   0  0  0  0  0  2  0  0  0  0  0  0
  186.1290  178.2300  137.8370 C   0  0  0  0  0  0  0  0  0  0  0  0
  184.9520  177.8700  137.5700 O   0  0  0  0  0  0  0  0  0  0  0  0
  187.1550  178.2460  136.7620 C   0  0  0  0  0  1  0  0  0  0  0  0
  186.4890  178.6290  139.1610 N   0  0  0  0  0  2  0  0  0  0  0  0
  1 14  1  0  0  0  0
  2 19  1  0  0  0  0
  2  1  2  0  0  0  0
  4  1  1  0  0  0  0
  4  8  1  0  0  0  0
  5 20  1  6  0  0  0
  5 16  1  0  0  0  0
  5 12  1  0  0  0  0
  6  9  1  0  0  0  0
  7  3  1  0  0  0  0
  8  9  2  0  0  0  0
  8 15  1  0  0  0  0
 10 11  2  0  0  0  0
 10 19  1  0  0  0  0
 12  2  1  0  0  0  0
 13  6  2  0  0  0  0
 14 15  1  0  0  0  0
 14  3  2  0  0  0  0
 16 18  1  6  0  0  0
 16 10  1  0  0  0  0
 17 13  1  0  0  0  0
 17  4  2  0  0  0  0
 18  5  1  0  0  0  0
 19  7  2  0  0  0  0
 21 20  1  0  0  0  0
 22 25  1  0  0  0  0
 23 22  2  0  0  0  0
 24 22  1  0  0  0  0
 25 21  1  0  0  0  0
M  END
>  <MODEL>
8

>  <REMARK>
 VINA RESULT:      -9.6      2.079      5.162
  Name = 
  3 active torsions:
  status: ('A' for Active; 'I' for Inactive)
    1  A    between atoms: C_6  and  C_15
    2  A    between atoms: C_15  and  C_25
    3  A    between atoms: N_21  and  C_25
                            x       y       z     vdW  Elec       q    Type
                         _______ _______ _______ _____ _____    ______ ____

>  <TORSDO>
F 3

$$$$
=
 OpenBabel10262419493D

 25 29  0  0  1  0  0  0  0  0999 V2000
  186.0600  178.1370  144.9370 C   0  0  0  0  0  0  0  0  0  0  0  0
  185.1440  178.2850  143.9000 C   0  0  0  0  0  0  0  0  0  0  0  0
  184.4690  178.8460  146.5500 N   0  0  0  0  0  0  0  0  0  0  0  0
  187.3700  177.7230  145.0000 C   0  0  0  0  0  0  0  0  0  0  0  0
  184.5830  178.5170  141.4430 C   0  0  2  0  0  0  0  0  0  0  0  0
  189.9210  177.0150  145.8050 C   0  0  0  0  0  3  0  0  0  0  0  0
  183.5640  178.9950  145.5740 N   0  0  0  0  0  0  0  0  0  0  0  0
  187.7180  177.7910  146.3370 C   0  0  0  0  0  0  0  0  0  0  0  0
  188.9940  177.4420  146.7740 C   0  0  0  0  0  3  0  0  0  0  0  0
  182.8290  178.9350  143.2240 C   0  0  0  0  0  0  0  0  0  0  0  0
  181.6220  179.0680  143.5600 O   0  0  0  0  0  0  0  0  0  0  0  0
  185.4750  177.8610  142.5010 C   0  0  0  0  0  2  0  0  0  0  0  0
  189.5600  176.9450  144.4410 C   0  0  0  0  0  3  0  0  0  0  0  0
  185.7130  178.4200  146.2340 C   0  0  0  0  0  0  0  0  0  0  0  0
  186.7080  178.2140  147.0710 O   0  0  0  0  0  0  0  0  0  0  0  0
  183.1890  179.0510  141.7710 C   0  0  2  0  0  3  0  0  0  0  0  0
  188.2670  177.3030  144.0210 C   0  0  0  0  0  3  0  0  0  0  0  0
  183.3610  177.6720  141.1530 C   0  0  0  0  0  2  0  0  0  0  0  0
  183.8540  178.7320  144.2590 C   0  0  0  0  0  0  0  0  0  0  0  0
  185.2250  179.0310  140.1700 C   0  0  0  0  0  2  0  0  0  0  0  0
  186.5430  178.3160  139.9220 C   0  0  0  0  0  2  0  0  0  0  0  0
  186.6420  177.8540  137.4380 C   0  0  0  0  0  0  0  0  0  0  0  0
  185.8340  176.8930  137.5450 O   0  0  0  0  0  0  0  0  0  0  0  0
  187.1960  178.2040  136.1040 C   0  0  0  0  0  1  0  0  0  0  0  0
  187.0290  178.6150  138.5840 N   0  0  0  0  0  2  0  0  0  0  0  0
  1  4  1  0  0  0  0
  1 14  1  0  0  0  0
  2 19  1  0  0  0  0
  2  1  2  0  0  0  0
  4  8  1  0  0  0  0
  5 20  1  6  0  0  0
  5 16  1  0  0  0  0
  5 12  1  0  0  0  0
  6  9  1  0  0  0  0
  7  3  1  0  0  0  0
  8  9  2  0  0  0  0
  8 15  1  0  0  0  0
 10 11  2  0  0  0  0
 10 19  1  0  0  0  0
 12  2  1  0  0  0  0
 13  6  2  0  0  0  0
 14  3  2  0  0  0  0
 14 15  1  0  0  0  0
 16 18  1  6  0  0  0
 16 10  1  0  0  0  0
 17 13  1  0  0  0  0
 17  4  2  0  0  0  0
 18  5  1  0  0  0  0
 19  7  2  0  0  0  0
 21 20  1  0  0  0  0
 22 23  2  0  0  0  0
 22 25  1  0  0  0  0
 24 22  1  0  0  0  0
 25 21  1  0  0  0  0
M  END
>  <MODEL>
9

>  <REMARK>
 VINA RESULT:      -9.2      2.492      5.493
  Name = 
  3 active torsions:
  status: ('A' for Active; 'I' for Inactive)
    1  A    between atoms: C_6  and  C_15
    2  A    between atoms: C_15  and  C_25
    3  A    between atoms: N_21  and  C_25
                            x       y       z     vdW  Elec       q    Type
                         _______ _______ _______ _____ _____    ______ ____

>  <TORSDO>
F 3

$$$$
