=
 OpenBabel10262419523D

 25 28  0  0  1  0  0  0  0  0999 V2000
  189.3230  176.9230  144.5310 C   0  0  0  0  0  0  0  0  0  0  0  0
  188.3950  177.3470  145.4990 C   0  0  0  0  0  0  0  0  0  0  0  0
  191.0430  176.8180  146.2170 C   0  0  0  0  0  3  0  0  0  0  0  0
  189.0400  176.6880  143.0800 C   0  0  2  0  0  3  0  0  0  0  0  0
  189.7820  177.5360  140.3770 C   0  0  0  0  0  2  0  0  0  0  0  0
  190.1510  177.2660  147.1410 N   0  0  0  0  0  0  0  0  0  0  0  0
  190.4030  176.4770  142.4770 C   0  0  0  0  0  0  0  0  0  0  0  0
  190.7070  176.8700  141.2830 N   0  0  0  0  0  0  0  0  0  0  0  0
  187.9070  177.9870  147.8400 C   0  0  0  0  0  0  0  0  0  0  0  0
  188.2870  178.1650  149.0270 O   0  0  0  0  0  0  0  0  0  0  0  0
  186.9500  177.5890  145.1390 C   0  0  0  0  0  2  0  0  0  0  0  0
  188.3490  177.6160  140.9160 C   0  0  0  0  0  2  0  0  0  0  0  0
  190.6300  176.6320  144.9010 C   0  0  0  0  0  0  0  0  0  0  0  0
  191.6800  175.9620  143.6220 S   0  0  0  0  0  0  0  0  0  0  0  0
  186.5470  178.2420  147.4830 N   0  0  0  0  0  0  0  0  0  0  0  0
  188.3690  177.8800  142.4110 C   0  0  0  0  0  2  0  0  0  0  0  0
  186.0850  178.0660  146.2790 C   0  0  0  0  0  0  0  0  0  0  0  0
  188.8510  177.5240  146.8180 C   0  0  0  0  0  0  0  0  0  0  0  0
  184.6550  178.3730  145.9950 C   0  0  0  0  0  2  0  0  0  0  0  0
  184.5500  179.5090  144.9940 C   0  0  0  0  0  2  0  0  0  0  0  0
  184.1700  178.9630  143.6640 C   0  0  0  0  0  3  0  0  0  0  0  0
  184.8930  179.2630  142.5930 C   0  0  0  0  0  3  0  0  0  0  0  0
  184.5550  178.7480  141.2620 C   0  0  0  0  0  0  0  0  0  0  0  0
  185.1480  179.3400  140.1130 N   0  0  0  0  0  1  0  0  0  0  0  0
  183.7490  177.7900  141.1250 O   0  0  0  0  0  0  0  0  0  0  0  0
  1 13  2  0  0  0  0
  1  2  1  0  0  0  0
  2 18  2  0  0  0  0
  3  6  2  0  0  0  0
  4 16  1  6  0  0  0
  4  1  1  0  0  0  0
  5 12  1  0  0  0  0
  5  8  1  0  0  0  0
  7  4  1  0  0  0  0
  7 14  1  0  0  0  0
  8  7  2  0  0  0  0
  9 10  2  0  0  0  0
 11  2  1  0  0  0  0
 11 17  1  0  0  0  0
 12 16  1  0  0  0  0
 13  3  1  0  0  0  0
 14 13  1  0  0  0  0
 15  9  1  0  0  0  0
 17 15  2  0  0  0  0
 18  6  1  0  0  0  0
 18  9  1  0  0  0  0
 19 17  1  0  0  0  0
 20 19  1  0  0  0  0
 21 20  1  0  0  0  0
 22 21  2  0  0  0  0
 23 22  1  0  0  0  0
 24 23  1  0  0  0  0
 25 23  2  0  0  0  0
M  END
>  <MODEL>
1

>  <REMARK>
 VINA RESULT:      -9.5      0.000      0.000
  Name = 
  4 active torsions:
  status: ('A' for Active; 'I' for Inactive)
    1  A    between atoms: C_2  and  C_25
    2  A    between atoms: C_6  and  C_15
    3  A    between atoms: C_6  and  C_23
    4  A    between atoms: C_15  and  C_21
                            x       y       z     vdW  Elec       q    Type
                         _______ _______ _______ _____ _____    ______ ____

>  <TORSDO>
F 4

$$$$
=
 OpenBabel10262419523D

 25 28  0  0  1  0  0  0  0  0999 V2000
  186.1290  178.1500  143.1300 C   0  0  0  0  0  0  0  0  0  0  0  0
  187.2360  177.9150  142.2950 C   0  0  0  0  0  0  0  0  0  0  0  0
  184.9790  179.2350  141.3090 C   0  0  0  0  0  3  0  0  0  0  0  0
  186.0000  177.7350  144.5620 C   0  0  2  0  0  3  0  0  0  0  0  0
  185.6020  178.7620  147.2760 C   0  0  0  0  0  2  0  0  0  0  0  0
  186.0690  179.0390  140.5190 N   0  0  0  0  0  0  0  0  0  0  0  0
  184.7440  178.4260  145.0250 C   0  0  0  0  0  0  0  0  0  0  0  0
  184.5990  178.8780  146.2270 N   0  0  0  0  0  0  0  0  0  0  0  0
  188.3310  178.1790  140.0910 C   0  0  0  0  0  0  0  0  0  0  0  0
  188.3150  178.6010  138.9050 O   0  0  0  0  0  0  0  0  0  0  0  0
  188.4430  177.1600  142.7970 C   0  0  0  0  0  2  0  0  0  0  0  0
  186.8190  177.9230  146.8680 C   0  0  0  0  0  2  0  0  0  0  0  0
  184.9990  178.7790  142.6240 C   0  0  0  0  0  0  0  0  0  0  0  0
  183.6000  178.8920  143.7280 S   0  0  0  0  0  0  0  0  0  0  0  0
  189.4810  177.4880  140.5830 N   0  0  0  0  0  0  0  0  0  0  0  0
  187.1740  178.1940  145.4160 C   0  0  0  0  0  2  0  0  0  0  0  0
  189.5600  177.0130  141.7930 C   0  0  0  0  0  0  0  0  0  0  0  0
  187.1800  178.3910  140.9730 C   0  0  0  0  0  0  0  0  0  0  0  0
  190.8060  176.3210  142.2260 C   0  0  0  0  0  2  0  0  0  0  0  0
  191.5800  177.1900  143.1990 C   0  0  0  0  0  2  0  0  0  0  0  0
  191.5040  176.5970  144.5600 C   0  0  0  0  0  3  0  0  0  0  0  0
  190.9930  177.3000  145.5620 C   0  0  0  0  0  3  0  0  0  0  0  0
  190.8980  176.7560  146.9200 C   0  0  0  0  0  0  0  0  0  0  0  0
  192.0820  176.5870  147.6900 N   0  0  0  0  0  1  0  0  0  0  0  0
  189.7830  176.4370  147.4130 O   0  0  0  0  0  0  0  0  0  0  0  0
  1  4  1  0  0  0  0
  2 11  1  0  0  0  0
  2  1  2  0  0  0  0
  3 13  2  0  0  0  0
  4  7  1  0  0  0  0
  4 16  1  1  0  0  0
  6 18  2  0  0  0  0
  6  3  1  0  0  0  0
  7  8  2  0  0  0  0
  8  5  1  0  0  0  0
  9 15  1  0  0  0  0
  9 18  1  0  0  0  0
 10  9  2  0  0  0  0
 12  5  1  0  0  0  0
 13  1  1  0  0  0  0
 13 14  1  0  0  0  0
 14  7  1  0  0  0  0
 15 17  2  0  0  0  0
 16 12  1  0  0  0  0
 17 19  1  0  0  0  0
 17 11  1  0  0  0  0
 18  2  1  0  0  0  0
 19 20  1  0  0  0  0
 20 21  1  0  0  0  0
 21 22  2  0  0  0  0
 22 23  1  0  0  0  0
 23 25  2  0  0  0  0
 23 24  1  0  0  0  0
M  END
>  <MODEL>
2

>  <REMARK>
 VINA RESULT:      -9.4      2.422      7.203
  Name = 
  4 active torsions:
  status: ('A' for Active; 'I' for Inactive)
    1  A    between atoms: C_2  and  C_25
    2  A    between atoms: C_6  and  C_15
    3  A    between atoms: C_6  and  C_23
    4  A    between atoms: C_15  and  C_21
                            x       y       z     vdW  Elec       q    Type
                         _______ _______ _______ _____ _____    ______ ____

>  <TORSDO>
F 4

$$$$
=
 OpenBabel10262419523D

 25 28  0  0  1  0  0  0  0  0999 V2000
  189.1810  177.0120  144.4350 C   0  0  0  0  0  0  0  0  0  0  0  0
  188.2570  177.4590  145.3960 C   0  0  0  0  0  0  0  0  0  0  0  0
  190.8800  176.8480  146.1380 C   0  0  0  0  0  3  0  0  0  0  0  0
  188.9050  176.7920  142.9800 C   0  0  2  0  0  3  0  0  0  0  0  0
  189.7000  177.6280  140.2890 C   0  0  0  0  0  2  0  0  0  0  0  0
  189.9920  177.3190  147.0540 N   0  0  0  0  0  0  0  0  0  0  0  0
  190.2680  176.5420  142.3900 C   0  0  0  0  0  0  0  0  0  0  0  0
  190.5950  176.9300  141.2010 N   0  0  0  0  0  0  0  0  0  0  0  0
  187.7650  178.1050  147.7340 C   0  0  0  0  0  0  0  0  0  0  0  0
  188.1370  178.2660  148.9260 O   0  0  0  0  0  0  0  0  0  0  0  0
  186.8220  177.7460  145.0220 C   0  0  0  0  0  2  0  0  0  0  0  0
  188.2640  177.7490  140.8130 C   0  0  0  0  0  2  0  0  0  0  0  0
  190.4750  176.6810  144.8170 C   0  0  0  0  0  0  0  0  0  0  0  0
  191.5160  175.9840  143.5450 S   0  0  0  0  0  0  0  0  0  0  0  0
  186.4160  178.4020  147.3660 N   0  0  0  0  0  0  0  0  0  0  0  0
  188.2770  178.0070  142.3100 C   0  0  0  0  0  2  0  0  0  0  0  0
  185.9610  178.2450  146.1560 C   0  0  0  0  0  0  0  0  0  0  0  0
  188.7040  177.6180  146.7200 C   0  0  0  0  0  0  0  0  0  0  0  0
  184.5440  178.5960  145.8580 C   0  0  0  0  0  2  0  0  0  0  0  0
  184.3490  178.7770  144.3650 C   0  0  0  0  0  2  0  0  0  0  0  0
  183.0110  179.3700  144.1090 C   0  0  0  0  0  3  0  0  0  0  0  0
  181.9880  178.5870  143.7900 C   0  0  0  0  0  3  0  0  0  0  0  0
  180.6510  179.1270  143.5290 C   0  0  0  0  0  0  0  0  0  0  0  0
  179.5070  178.4130  143.9820 N   0  0  0  0  0  1  0  0  0  0  0  0
  180.5020  180.2150  142.9100 O   0  0  0  0  0  0  0  0  0  0  0  0
  1 13  2  0  0  0  0
  1  2  1  0  0  0  0
  2 18  2  0  0  0  0
  3  6  2  0  0  0  0
  4 16  1  6  0  0  0
  4  1  1  0  0  0  0
  5 12  1  0  0  0  0
  5  8  1  0  0  0  0
  7  4  1  0  0  0  0
  7 14  1  0  0  0  0
  8  7  2  0  0  0  0
  9 10  2  0  0  0  0
 11  2  1  0  0  0  0
 11 17  1  0  0  0  0
 12 16  1  0  0  0  0
 13  3  1  0  0  0  0
 14 13  1  0  0  0  0
 15  9  1  0  0  0  0
 17 15  2  0  0  0  0
 18  6  1  0  0  0  0
 18  9  1  0  0  0  0
 19 17  1  0  0  0  0
 20 19  1  0  0  0  0
 21 20  1  0  0  0  0
 22 21  2  0  0  0  0
 23 22  1  0  0  0  0
 23 24  1  0  0  0  0
 25 23  2  0  0  0  0
M  END
>  <MODEL>
3

>  <REMARK>
 VINA RESULT:      -9.3      1.872      2.016
  Name = 
  4 active torsions:
  status: ('A' for Active; 'I' for Inactive)
    1  A    between atoms: C_2  and  C_25
    2  A    between atoms: C_6  and  C_15
    3  A    between atoms: C_6  and  C_23
    4  A    between atoms: C_15  and  C_21
                            x       y       z     vdW  Elec       q    Type
                         _______ _______ _______ _____ _____    ______ ____

>  <TORSDO>
F 4

$$$$
=
 OpenBabel10262419523D

 25 28  0  0  1  0  0  0  0  0999 V2000
  187.6710  178.0720  145.6770 C   0  0  0  0  0  0  0  0  0  0  0  0
  188.9970  177.6810  145.4140 C   0  0  0  0  0  0  0  0  0  0  0  0
  187.9300  177.4180  147.9830 C   0  0  0  0  0  3  0  0  0  0  0  0
  186.7140  178.6640  144.6900 C   0  0  2  0  0  3  0  0  0  0  0  0
  184.1150  178.2530  143.4040 C   0  0  0  0  0  2  0  0  0  0  0  0
  189.1980  177.0060  147.7130 N   0  0  0  0  0  0  0  0  0  0  0  0
  185.4000  178.6740  145.4260 C   0  0  0  0  0  0  0  0  0  0  0  0
  184.2670  178.4810  144.8350 N   0  0  0  0  0  0  0  0  0  0  0  0
  191.1210  176.6960  146.2140 C   0  0  0  0  0  0  0  0  0  0  0  0
  191.8140  176.1910  147.1360 O   0  0  0  0  0  0  0  0  0  0  0  0
  189.6050  177.8630  144.0440 C   0  0  0  0  0  2  0  0  0  0  0  0
  185.4240  178.3970  142.6200 C   0  0  0  0  0  2  0  0  0  0  0  0
  187.1580  177.9660  146.9630 C   0  0  0  0  0  0  0  0  0  0  0  0
  185.5180  178.6270  147.2120 S   0  0  0  0  0  0  0  0  0  0  0  0
  191.6800  176.8450  144.9070 N   0  0  0  0  0  0  0  0  0  0  0  0
  186.5790  177.8280  143.4250 C   0  0  0  0  0  2  0  0  0  0  0  0
  191.0250  177.3710  143.9130 C   0  0  0  0  0  0  0  0  0  0  0  0
  189.7450  177.1310  146.4700 C   0  0  0  0  0  0  0  0  0  0  0  0
  191.6810  177.4710  142.5790 C   0  0  0  0  0  2  0  0  0  0  0  0
  190.9340  176.6320  141.5600 C   0  0  0  0  0  2  0  0  0  0  0  0
  190.2940  177.5230  140.5580 C   0  0  0  0  0  3  0  0  0  0  0  0
  188.9750  177.5320  140.4230 C   0  0  0  0  0  3  0  0  0  0  0  0
  188.3010  178.3940  139.4480 C   0  0  0  0  0  0  0  0  0  0  0  0
  189.0540  178.9780  138.3930 N   0  0  0  0  0  1  0  0  0  0  0  0
  187.0650  178.6250  139.5340 O   0  0  0  0  0  0  0  0  0  0  0  0
  1 13  1  0  0  0  0
  2  1  2  0  0  0  0
  2 18  1  0  0  0  0
  4 16  1  6  0  0  0
  4  7  1  0  0  0  0
  4  1  1  0  0  0  0
  5  8  1  0  0  0  0
  6  3  1  0  0  0  0
  7 14  1  0  0  0  0
  8  7  2  0  0  0  0
  9 18  1  0  0  0  0
  9 10  2  0  0  0  0
 11  2  1  0  0  0  0
 12  5  1  0  0  0  0
 12 16  1  0  0  0  0
 13 14  1  0  0  0  0
 13  3  2  0  0  0  0
 15  9  1  0  0  0  0
 17 11  1  0  0  0  0
 17 15  2  0  0  0  0
 18  6  2  0  0  0  0
 19 17  1  0  0  0  0
 20 19  1  0  0  0  0
 21 20  1  0  0  0  0
 22 21  2  0  0  0  0
 23 25  2  0  0  0  0
 23 22  1  0  0  0  0
 24 23  1  0  0  0  0
M  END
>  <MODEL>
4

>  <REMARK>
 VINA RESULT:      -8.7      2.511      4.969
  Name = 
  4 active torsions:
  status: ('A' for Active; 'I' for Inactive)
    1  A    between atoms: C_2  and  C_25
    2  A    between atoms: C_6  and  C_15
    3  A    between atoms: C_6  and  C_23
    4  A    between atoms: C_15  and  C_21
                            x       y       z     vdW  Elec       q    Type
                         _______ _______ _______ _____ _____    ______ ____

>  <TORSDO>
F 4

$$$$
=
 OpenBabel10262419523D

 25 28  0  0  1  0  0  0  0  0999 V2000
  186.5130  178.0710  144.4410 C   0  0  0  0  0  0  0  0  0  0  0  0
  186.6780  178.1910  143.0490 C   0  0  0  0  0  0  0  0  0  0  0  0
  184.3950  179.2130  144.2940 C   0  0  0  0  0  3  0  0  0  0  0  0
  187.4610  177.4040  145.3870 C   0  0  2  0  0  3  0  0  0  0  0  0
  189.1380  177.8660  147.7430 C   0  0  0  0  0  2  0  0  0  0  0  0
  184.5790  179.3610  142.9540 N   0  0  0  0  0  0  0  0  0  0  0  0
  186.9210  177.7600  146.7470 C   0  0  0  0  0  0  0  0  0  0  0  0
  187.6850  177.9670  147.7690 N   0  0  0  0  0  0  0  0  0  0  0  0
  185.8420  179.0220  140.8720 C   0  0  0  0  0  0  0  0  0  0  0  0
  184.9710  179.6280  140.1940 O   0  0  0  0  0  0  0  0  0  0  0  0
  187.8800  177.6000  142.3540 C   0  0  0  0  0  2  0  0  0  0  0  0
  189.6910  177.3500  146.4100 C   0  0  0  0  0  2  0  0  0  0  0  0
  185.3610  178.5540  145.0480 C   0  0  0  0  0  0  0  0  0  0  0  0
  185.1900  178.2160  146.7920 S   0  0  0  0  0  0  0  0  0  0  0  0
  186.9980  178.4850  140.2270 N   0  0  0  0  0  0  0  0  0  0  0  0
  188.8870  177.9230  145.2560 C   0  0  0  0  0  2  0  0  0  0  0  0
  187.9290  177.8360  140.8640 C   0  0  0  0  0  0  0  0  0  0  0  0
  185.6810  178.8640  142.3200 C   0  0  0  0  0  0  0  0  0  0  0  0
  189.1080  177.3260  140.1110 C   0  0  0  0  0  2  0  0  0  0  0  0
  190.3600  177.4260  140.9630 C   0  0  0  0  0  2  0  0  0  0  0  0
  191.5570  177.2030  140.1110 C   0  0  0  0  0  3  0  0  0  0  0  0
  191.4210  176.6790  138.9000 C   0  0  0  0  0  3  0  0  0  0  0  0
  192.5740  176.4410  138.0250 C   0  0  0  0  0  0  0  0  0  0  0  0
  192.3570  176.0970  136.6620 N   0  0  0  0  0  1  0  0  0  0  0  0
  193.7500  176.5380  138.4640 O   0  0  0  0  0  0  0  0  0  0  0  0
  1 13  1  0  0  0  0
  1  4  1  0  0  0  0
  2  1  2  0  0  0  0
  3 13  2  0  0  0  0
  4 16  1  1  0  0  0
  4  7  1  0  0  0  0
  5  8  1  0  0  0  0
  6  3  1  0  0  0  0
  7 14  1  0  0  0  0
  7  8  2  0  0  0  0
  9 18  1  0  0  0  0
 10  9  2  0  0  0  0
 11  2  1  0  0  0  0
 12  5  1  0  0  0  0
 13 14  1  0  0  0  0
 15 17  2  0  0  0  0
 15  9  1  0  0  0  0
 16 12  1  0  0  0  0
 17 11  1  0  0  0  0
 18  6  2  0  0  0  0
 18  2  1  0  0  0  0
 19 17  1  0  0  0  0
 19 20  1  0  0  0  0
 21 20  1  0  0  0  0
 22 21  2  0  0  0  0
 23 25  2  0  0  0  0
 23 22  1  0  0  0  0
 24 23  1  0  0  0  0
M  END
>  <MODEL>
5

>  <REMARK>
 VINA RESULT:      -8.6      3.153      6.870
  Name = 
  4 active torsions:
  status: ('A' for Active; 'I' for Inactive)
    1  A    between atoms: C_2  and  C_25
    2  A    between atoms: C_6  and  C_15
    3  A    between atoms: C_6  and  C_23
    4  A    between atoms: C_15  and  C_21
                            x       y       z     vdW  Elec       q    Type
                         _______ _______ _______ _____ _____    ______ ____

>  <TORSDO>
F 4

$$$$
=
 OpenBabel10262419523D

 25 28  0  0  1  0  0  0  0  0999 V2000
  189.5200  177.4970  144.1880 C   0  0  0  0  0  0  0  0  0  0  0  0
  188.9110  177.7050  142.9370 C   0  0  0  0  0  0  0  0  0  0  0  0
  191.3490  176.3520  143.1140 C   0  0  0  0  0  3  0  0  0  0  0  0
  188.9960  177.9590  145.5120 C   0  0  2  0  0  3  0  0  0  0  0  0
  188.1130  177.0230  148.1420 C   0  0  0  0  0  2  0  0  0  0  0  0
  190.7360  176.5220  141.9120 N   0  0  0  0  0  0  0  0  0  0  0  0
  189.8980  177.2840  146.5110 C   0  0  0  0  0  0  0  0  0  0  0  0
  189.4790  176.8720  147.6630 N   0  0  0  0  0  0  0  0  0  0  0  0
  188.9220  177.3680  140.4850 C   0  0  0  0  0  0  0  0  0  0  0  0
  189.4640  176.9070  139.4470 O   0  0  0  0  0  0  0  0  0  0  0  0
  187.6190  178.4760  142.8190 C   0  0  0  0  0  2  0  0  0  0  0  0
  187.2230  177.8480  147.2050 C   0  0  0  0  0  2  0  0  0  0  0  0
  190.7470  176.8510  144.2650 C   0  0  0  0  0  0  0  0  0  0  0  0
  191.4960  176.7750  145.8840 S   0  0  0  0  0  0  0  0  0  0  0  0
  187.6840  178.0750  140.3860 N   0  0  0  0  0  0  0  0  0  0  0  0
  187.5560  177.5290  145.7580 C   0  0  0  0  0  2  0  0  0  0  0  0
  187.0770  178.5900  141.4150 C   0  0  0  0  0  0  0  0  0  0  0  0
  189.5490  177.1850  141.7970 C   0  0  0  0  0  0  0  0  0  0  0  0
  185.7800  179.2970  141.2200 C   0  0  0  0  0  2  0  0  0  0  0  0
  184.6730  178.2980  140.9370 C   0  0  0  0  0  2  0  0  0  0  0  0
  183.7960  178.1810  142.1310 C   0  0  0  0  0  3  0  0  0  0  0  0
  184.0010  178.9610  143.1840 C   0  0  0  0  0  3  0  0  0  0  0  0
  183.1610  178.8810  144.3840 C   0  0  0  0  0  0  0  0  0  0  0  0
  183.7630  178.9960  145.6670 N   0  0  0  0  0  1  0  0  0  0  0  0
  181.9160  178.7120  144.2910 O   0  0  0  0  0  0  0  0  0  0  0  0
  1 13  1  0  0  0  0
  1  4  1  0  0  0  0
  2  1  2  0  0  0  0
  3 13  2  0  0  0  0
  4 16  1  1  0  0  0
  4  7  1  0  0  0  0
  6  3  1  0  0  0  0
  7  8  2  0  0  0  0
  8  5  1  0  0  0  0
  9 18  1  0  0  0  0
 10  9  2  0  0  0  0
 11  2  1  0  0  0  0
 12  5  1  0  0  0  0
 13 14  1  0  0  0  0
 14  7  1  0  0  0  0
 15  9  1  0  0  0  0
 15 17  2  0  0  0  0
 16 12  1  0  0  0  0
 17 11  1  0  0  0  0
 18  6  2  0  0  0  0
 18  2  1  0  0  0  0
 19 17  1  0  0  0  0
 20 19  1  0  0  0  0
 20 21  1  0  0  0  0
 21 22  2  0  0  0  0
 22 23  1  0  0  0  0
 23 24  1  0  0  0  0
 25 23  2  0  0  0  0
M  END
>  <MODEL>
6

>  <REMARK>
 VINA RESULT:      -8.5      2.242      4.900
  Name = 
  4 active torsions:
  status: ('A' for Active; 'I' for Inactive)
    1  A    between atoms: C_2  and  C_25
    2  A    between atoms: C_6  and  C_15
    3  A    between atoms: C_6  and  C_23
    4  A    between atoms: C_15  and  C_21
                            x       y       z     vdW  Elec       q    Type
                         _______ _______ _______ _____ _____    ______ ____

>  <TORSDO>
F 4

$$$$
=
 OpenBabel10262419523D

 25 28  0  0  1  0  0  0  0  0999 V2000
  187.9390  177.5840  145.2090 C   0  0  0  0  0  0  0  0  0  0  0  0
  186.6790  177.9560  144.7050 C   0  0  0  0  0  0  0  0  0  0  0  0
  187.1560  177.9600  147.4580 C   0  0  0  0  0  3  0  0  0  0  0  0
  189.1170  177.1410  144.3990 C   0  0  2  0  0  3  0  0  0  0  0  0
  191.9020  177.7860  143.7620 C   0  0  0  0  0  2  0  0  0  0  0  0
  185.9530  178.3560  146.9620 N   0  0  0  0  0  0  0  0  0  0  0  0
  190.2420  177.0920  145.3990 C   0  0  0  0  0  0  0  0  0  0  0  0
  191.4620  177.3910  145.0930 N   0  0  0  0  0  0  0  0  0  0  0  0
  184.3790  178.7700  145.1190 C   0  0  0  0  0  0  0  0  0  0  0  0
  183.4770  179.1420  145.9150 O   0  0  0  0  0  0  0  0  0  0  0  0
  186.3890  177.9110  143.2240 C   0  0  0  0  0  2  0  0  0  0  0  0
  190.8010  177.6870  142.7000 C   0  0  0  0  0  2  0  0  0  0  0  0
  188.1580  177.5590  146.5800 C   0  0  0  0  0  0  0  0  0  0  0  0
  189.7420  176.9310  147.1110 S   0  0  0  0  0  0  0  0  0  0  0  0
  184.1220  178.7520  143.7140 N   0  0  0  0  0  0  0  0  0  0  0  0
  189.4700  178.1210  143.2880 C   0  0  0  0  0  2  0  0  0  0  0  0
  185.0030  178.3650  142.8370 C   0  0  0  0  0  0  0  0  0  0  0  0
  185.6910  178.3560  145.6230 C   0  0  0  0  0  0  0  0  0  0  0  0
  184.6540  178.3960  141.3890 C   0  0  0  0  0  2  0  0  0  0  0  0
  183.3420  177.6720  141.1490 C   0  0  0  0  0  2  0  0  0  0  0  0
  182.3090  178.6490  140.7180 C   0  0  0  0  0  3  0  0  0  0  0  0
  181.3550  179.0210  141.5610 C   0  0  0  0  0  3  0  0  0  0  0  0
  180.3160  179.9820  141.1790 C   0  0  0  0  0  0  0  0  0  0  0  0
  179.7020  180.7830  142.1820 N   0  0  0  0  0  1  0  0  0  0  0  0
  179.9600  180.1070  139.9770 O   0  0  0  0  0  0  0  0  0  0  0  0
  1 13  1  0  0  0  0
  2  1  2  0  0  0  0
  2 18  1  0  0  0  0
  4 16  1  6  0  0  0
  4  1  1  0  0  0  0
  4  7  1  0  0  0  0
  5  8  1  0  0  0  0
  6  3  1  0  0  0  0
  7 14  1  0  0  0  0
  8  7  2  0  0  0  0
  9 18  1  0  0  0  0
  9 10  2  0  0  0  0
 11  2  1  0  0  0  0
 12 16  1  0  0  0  0
 12  5  1  0  0  0  0
 13 14  1  0  0  0  0
 13  3  2  0  0  0  0
 15  9  1  0  0  0  0
 17 11  1  0  0  0  0
 17 15  2  0  0  0  0
 18  6  2  0  0  0  0
 19 17  1  0  0  0  0
 20 19  1  0  0  0  0
 21 20  1  0  0  0  0
 21 22  2  0  0  0  0
 23 22  1  0  0  0  0
 23 24  1  0  0  0  0
 25 23  2  0  0  0  0
M  END
>  <MODEL>
7

>  <REMARK>
 VINA RESULT:      -8.3      2.643      3.852
  Name = 
  4 active torsions:
  status: ('A' for Active; 'I' for Inactive)
    1  A    between atoms: C_2  and  C_25
    2  A    between atoms: C_6  and  C_15
    3  A    between atoms: C_6  and  C_23
    4  A    between atoms: C_15  and  C_21
                            x       y       z     vdW  Elec       q    Type
                         _______ _______ _______ _____ _____    ______ ____

>  <TORSDO>
F 4

$$$$
=
 OpenBabel10262419523D

 25 28  0  0  1  0  0  0  0  0999 V2000
  188.6980  177.3030  144.5040 C   0  0  0  0  0  0  0  0  0  0  0  0
  187.3470  177.6920  144.5350 C   0  0  0  0  0  0  0  0  0  0  0  0
  188.8700  177.6900  146.8770 C   0  0  0  0  0  3  0  0  0  0  0  0
  189.4570  176.8430  143.2980 C   0  0  2  0  0  3  0  0  0  0  0  0
  191.7730  177.4480  141.6120 C   0  0  0  0  0  2  0  0  0  0  0  0
  187.5740  178.1030  146.8940 N   0  0  0  0  0  0  0  0  0  0  0  0
  190.8840  176.7780  143.7750 C   0  0  0  0  0  0  0  0  0  0  0  0
  191.8880  177.0600  143.0110 N   0  0  0  0  0  0  0  0  0  0  0  0
  185.4070  178.5390  145.8180 C   0  0  0  0  0  0  0  0  0  0  0  0
  184.8970  178.9240  146.9030 O   0  0  0  0  0  0  0  0  0  0  0  0
  186.4960  177.6510  143.2890 C   0  0  0  0  0  2  0  0  0  0  0  0
  190.3420  177.3650  141.0700 C   0  0  0  0  0  2  0  0  0  0  0  0
  189.4400  177.2750  145.6780 C   0  0  0  0  0  0  0  0  0  0  0  0
  191.0980  176.6250  145.5460 S   0  0  0  0  0  0  0  0  0  0  0  0
  184.6170  178.5240  144.6270 N   0  0  0  0  0  0  0  0  0  0  0  0
  189.3560  177.8180  142.1320 C   0  0  0  0  0  2  0  0  0  0  0  0
  185.0760  178.1250  143.4770 C   0  0  0  0  0  0  0  0  0  0  0  0
  186.8060  178.1070  145.7660 C   0  0  0  0  0  0  0  0  0  0  0  0
  184.1850  178.1600  142.2830 C   0  0  0  0  0  2  0  0  0  0  0  0
  184.6290  179.2500  141.3260 C   0  0  0  0  0  2  0  0  0  0  0  0
  184.7440  178.6880  139.9550 C   0  0  0  0  0  3  0  0  0  0  0  0
  185.9280  178.6320  139.3580 C   0  0  0  0  0  3  0  0  0  0  0  0
  186.0880  178.0860  138.0070 C   0  0  0  0  0  0  0  0  0  0  0  0
  187.0530  178.6580  137.1320 N   0  0  0  0  0  1  0  0  0  0  0  0
  185.3840  177.1190  137.6120 O   0  0  0  0  0  0  0  0  0  0  0  0
  1  2  2  0  0  0  0
  1 13  1  0  0  0  0
  2 18  1  0  0  0  0
  3  6  1  0  0  0  0
  4 16  1  6  0  0  0
  4  7  1  0  0  0  0
  4  1  1  0  0  0  0
  5  8  1  0  0  0  0
  7 14  1  0  0  0  0
  8  7  2  0  0  0  0
  9 10  2  0  0  0  0
 11 17  1  0  0  0  0
 11  2  1  0  0  0  0
 12  5  1  0  0  0  0
 12 16  1  0  0  0  0
 13  3  2  0  0  0  0
 14 13  1  0  0  0  0
 15  9  1  0  0  0  0
 17 15  2  0  0  0  0
 18  9  1  0  0  0  0
 18  6  2  0  0  0  0
 19 17  1  0  0  0  0
 20 19  1  0  0  0  0
 21 20  1  0  0  0  0
 22 21  2  0  0  0  0
 23 22  1  0  0  0  0
 24 23  1  0  0  0  0
 25 23  2  0  0  0  0
M  END
>  <MODEL>
8

>  <REMARK>
 VINA RESULT:      -8.2      2.054      2.779
  Name = 
  4 active torsions:
  status: ('A' for Active; 'I' for Inactive)
    1  A    between atoms: C_2  and  C_25
    2  A    between atoms: C_6  and  C_15
    3  A    between atoms: C_6  and  C_23
    4  A    between atoms: C_15  and  C_21
                            x       y       z     vdW  Elec       q    Type
                         _______ _______ _______ _____ _____    ______ ____

>  <TORSDO>
F 4

$$$$
=
 OpenBabel10262419523D

 25 28  0  0  1  0  0  0  0  0999 V2000
  186.2640  178.1270  144.4430 C   0  0  0  0  0  0  0  0  0  0  0  0
  186.5440  178.2200  143.0670 C   0  0  0  0  0  0  0  0  0  0  0  0
  184.1610  179.2540  144.0950 C   0  0  0  0  0  3  0  0  0  0  0  0
  187.1320  177.4860  145.4790 C   0  0  2  0  0  3  0  0  0  0  0  0
  188.6030  178.0050  147.9570 C   0  0  0  0  0  2  0  0  0  0  0  0
  184.4560  179.3760  142.7730 N   0  0  0  0  0  0  0  0  0  0  0  0
  186.4780  177.8660  146.7810 C   0  0  0  0  0  0  0  0  0  0  0  0
  187.1530  178.0980  147.8590 N   0  0  0  0  0  0  0  0  0  0  0  0
  185.8900  179.0020  140.8120 C   0  0  0  0  0  0  0  0  0  0  0  0
  185.0770  179.5890  140.0510 O   0  0  0  0  0  0  0  0  0  0  0  0
  187.8030  177.6230  142.4880 C   0  0  0  0  0  2  0  0  0  0  0  0
  189.2690  177.4650  146.6860 C   0  0  0  0  0  2  0  0  0  0  0  0
  185.0630  178.6170  144.9410 C   0  0  0  0  0  0  0  0  0  0  0  0
  184.7480  178.3130  146.6720 S   0  0  0  0  0  0  0  0  0  0  0  0
  187.0990  178.4590  140.2770 N   0  0  0  0  0  0  0  0  0  0  0  0
  188.5610  178.0100  145.4570 C   0  0  0  0  0  2  0  0  0  0  0  0
  187.9760  177.8290  141.0030 C   0  0  0  0  0  0  0  0  0  0  0  0
  185.6090  178.8730  142.2440 C   0  0  0  0  0  0  0  0  0  0  0  0
  189.2160  177.3100  140.3630 C   0  0  0  0  0  2  0  0  0  0  0  0
  190.4320  177.6810  141.1920 C   0  0  0  0  0  2  0  0  0  0  0  0
  190.6350  176.6630  142.2550 C   0  0  0  0  0  3  0  0  0  0  0  0
  191.5790  176.8380  143.1700 C   0  0  0  0  0  3  0  0  0  0  0  0
  191.8150  175.8600  144.2370 C   0  0  0  0  0  0  0  0  0  0  0  0
  191.7850  176.2850  145.5940 N   0  0  0  0  0  1  0  0  0  0  0  0
  192.0450  174.6510  143.9670 O   0  0  0  0  0  0  0  0  0  0  0  0
  1 13  1  0  0  0  0
  1  4  1  0  0  0  0
  2  1  2  0  0  0  0
  3 13  2  0  0  0  0
  4 16  1  1  0  0  0
  4  7  1  0  0  0  0
  6  3  1  0  0  0  0
  7  8  2  0  0  0  0
  8  5  1  0  0  0  0
  9 18  1  0  0  0  0
 10  9  2  0  0  0  0
 11  2  1  0  0  0  0
 12  5  1  0  0  0  0
 13 14  1  0  0  0  0
 14  7  1  0  0  0  0
 15  9  1  0  0  0  0
 15 17  2  0  0  0  0
 16 12  1  0  0  0  0
 17 11  1  0  0  0  0
 18  6  2  0  0  0  0
 18  2  1  0  0  0  0
 19 17  1  0  0  0  0
 19 20  1  0  0  0  0
 20 21  1  0  0  0  0
 21 22  2  0  0  0  0
 22 23  1  0  0  0  0
 23 24  1  0  0  0  0
 25 23  2  0  0  0  0
M  END
>  <MODEL>
9

>  <REMARK>
 VINA RESULT:      -8.1      2.598      6.802
  Name = 
  4 active torsions:
  status: ('A' for Active; 'I' for Inactive)
    1  A    between atoms: C_2  and  C_25
    2  A    between atoms: C_6  and  C_15
    3  A    between atoms: C_6  and  C_23
    4  A    between atoms: C_15  and  C_21
                            x       y       z     vdW  Elec       q    Type
                         _______ _______ _______ _____ _____    ______ ____

>  <TORSDO>
F 4

$$$$
