=
 OpenBabel10262420043D

 27 31  0  0  1  0  0  0  0  0999 V2000
  186.8290  177.9760  141.8270 N   0  0  0  0  0  0  0  0  0  0  0  0
  187.5020  177.6660  144.3050 C   0  0  1  0  0  3  0  0  0  0  0  0
  189.8240  176.5700  142.8600 S   0  0  0  0  0  0  0  0  0  0  0  0
  189.7340  176.9070  147.6520 N   0  0  0  0  0  0  0  0  0  0  0  0
  192.0280  175.9190  147.7880 C   0  0  0  0  0  1  0  0  0  0  0  0
  186.9300  177.9190  145.6780 C   0  0  0  0  0  3  0  0  0  0  0  0
  190.8630  176.4770  145.6230 N   0  0  0  0  0  0  0  0  0  0  0  0
  190.7120  177.3910  139.1610 C   0  0  0  0  0  3  0  0  0  0  0  0
  191.9800  176.9380  144.9500 C   0  0  0  0  0  1  0  0  0  0  0  0
  189.8610  178.0200  138.3310 C   0  0  0  0  0  3  0  0  0  0  0  0
  189.7580  177.4340  145.4220 C   0  0  2  0  0  3  0  0  0  0  0  0
  186.5380  177.9390  143.1250 C   0  0  0  0  0  0  0  0  0  0  0  0
  191.0600  176.8210  146.9930 C   0  0  1  0  0  3  0  0  0  0  0  0
  189.0000  177.3630  146.6580 C   0  0  0  0  0  0  0  0  0  0  0  0
  188.0080  177.8340  141.0300 C   0  0  0  0  0  0  0  0  0  0  0  0
  188.8040  177.2280  144.1870 C   0  0  1  0  0  3  0  0  0  0  0  0
  190.2570  176.6210  140.3710 C   0  0  0  0  0  2  0  0  0  0  0  0
  187.6080  177.7170  146.8000 N   0  0  0  0  0  0  0  0  0  0  0  0
  188.4620  178.3500  138.4980 C   0  0  0  0  0  3  0  0  0  0  0  0
  187.6850  178.3260  139.6200 C   0  0  0  0  0  3  0  0  0  0  0  0
  189.1850  177.2440  141.2850 C   0  0  0  0  0  0  0  0  0  0  0  0
  182.4860  179.0310  143.9400 C   0  0  0  0  0  3  0  0  0  0  0  0
  185.1150  178.3040  143.4320 C   0  0  0  0  0  0  0  0  0  0  0  0
  184.1850  178.3700  142.3730 C   0  0  0  0  0  3  0  0  0  0  0  0
  182.8790  178.7100  142.6360 C   0  0  0  0  0  3  0  0  0  0  0  0
  183.4220  179.0370  144.9890 C   0  0  0  0  0  3  0  0  0  0  0  0
  184.7280  178.6730  144.7330 C   0  0  0  0  0  3  0  0  0  0  0  0
  1 12  2  0  0  0  0
  2  6  1  6  0  0  0
  6 18  2  0  0  0  0
  7 13  1  0  0  0  0
  8 17  1  0  0  0  0
  9  7  1  0  0  0  0
 10 19  1  0  0  0  0
 10  8  2  0  0  0  0
 11  7  1  0  0  0  0
 11 14  1  1  0  0  0
 12 23  1  0  0  0  0
 12  2  1  0  0  0  0
 13  4  1  0  0  0  0
 13  5  1  1  0  0  0
 14 18  1  0  0  0  0
 14  4  2  0  0  0  0
 15 21  2  0  0  0  0
 15  1  1  0  0  0  0
 16  3  1  6  0  0  0
 16  2  1  0  0  0  0
 16 11  1  0  0  0  0
 17 21  1  0  0  0  0
 19 20  2  0  0  0  0
 20 15  1  0  0  0  0
 21  3  1  0  0  0  0
 22 26  1  0  0  0  0
 23 27  1  0  0  0  0
 24 25  1  0  0  0  0
 24 23  2  0  0  0  0
 25 22  2  0  0  0  0
 27 26  2  0  0  0  0
M  END
>  <MODEL>
1

>  <REMARK>
 VINA RESULT:     -10.6      0.000      0.000
  Name = 
  1 active torsions:
  status: ('A' for Active; 'I' for Inactive)
    1  A    between atoms: C_9  and  C_15
                            x       y       z     vdW  Elec       q    Type
                         _______ _______ _______ _____ _____    ______ ____

>  <TORSDO>
F 1

$$$$
=
 OpenBabel10262420043D

 27 31  0  0  1  0  0  0  0  0999 V2000
  189.6390  177.3420  142.8280 N   0  0  0  0  0  0  0  0  0  0  0  0
  187.4430  177.8260  144.1030 C   0  0  1  0  0  3  0  0  0  0  0  0
  186.7850  178.6360  141.3480 S   0  0  0  0  0  0  0  0  0  0  0  0
  183.5260  178.7320  144.8770 N   0  0  0  0  0  0  0  0  0  0  0  0
  181.7920  179.5770  143.2840 C   0  0  0  0  0  1  0  0  0  0  0  0
  186.9000  177.7340  145.5080 C   0  0  0  0  0  3  0  0  0  0  0  0
  184.1230  178.9060  142.5990 N   0  0  0  0  0  0  0  0  0  0  0  0
  188.6940  177.4330  138.1770 C   0  0  0  0  0  3  0  0  0  0  0  0
  183.7760  178.3160  141.3970 C   0  0  0  0  0  1  0  0  0  0  0  0
  189.8740  176.7900  138.2390 C   0  0  0  0  0  3  0  0  0  0  0  0
  185.0450  178.0090  143.3220 C   0  0  2  0  0  3  0  0  0  0  0  0
  188.9510  177.5140  143.9530 C   0  0  0  0  0  0  0  0  0  0  0  0
  183.0270  178.6730  143.4810 C   0  0  1  0  0  3  0  0  0  0  0  0
  184.7370  178.2390  144.7210 C   0  0  0  0  0  0  0  0  0  0  0  0
  189.3440  177.3360  141.4280 C   0  0  0  0  0  0  0  0  0  0  0  0
  186.5920  178.1670  143.0730 C   0  0  1  0  0  3  0  0  0  0  0  0
  188.1950  178.3360  139.2730 C   0  0  0  0  0  2  0  0  0  0  0  0
  185.6380  177.9910  145.8220 N   0  0  0  0  0  0  0  0  0  0  0  0
  190.7620  176.5690  139.3590 C   0  0  0  0  0  3  0  0  0  0  0  0
  190.5460  176.7430  140.6950 C   0  0  0  0  0  3  0  0  0  0  0  0
  188.3260  177.8680  140.7340 C   0  0  0  0  0  0  0  0  0  0  0  0
  191.2670  176.7470  147.4640 C   0  0  0  0  0  3  0  0  0  0  0  0
  189.7590  177.2700  145.1930 C   0  0  0  0  0  0  0  0  0  0  0  0
  191.0300  176.6690  145.0720 C   0  0  0  0  0  3  0  0  0  0  0  0
  191.7800  176.4320  146.2000 C   0  0  0  0  0  3  0  0  0  0  0  0
  189.9740  177.2810  147.5980 C   0  0  0  0  0  3  0  0  0  0  0  0
  189.2280  177.5420  146.4680 C   0  0  0  0  0  3  0  0  0  0  0  0
  1 12  2  0  0  0  0
  2  6  1  6  0  0  0
  6 18  2  0  0  0  0
  7 11  1  0  0  0  0
  7 13  1  0  0  0  0
  8 10  2  0  0  0  0
  8 17  1  0  0  0  0
  9  7  1  0  0  0  0
 10 19  1  0  0  0  0
 11 14  1  1  0  0  0
 12  2  1  0  0  0  0
 12 23  1  0  0  0  0
 13  5  1  1  0  0  0
 13  4  1  0  0  0  0
 14  4  2  0  0  0  0
 14 18  1  0  0  0  0
 15  1  1  0  0  0  0
 16  3  1  6  0  0  0
 16 11  1  0  0  0  0
 16  2  1  0  0  0  0
 17 21  1  0  0  0  0
 19 20  2  0  0  0  0
 20 15  1  0  0  0  0
 21  3  1  0  0  0  0
 21 15  2  0  0  0  0
 22 26  1  0  0  0  0
 23 27  1  0  0  0  0
 24 23  2  0  0  0  0
 24 25  1  0  0  0  0
 25 22  2  0  0  0  0
 27 26  2  0  0  0  0
M  END
>  <MODEL>
2

>  <REMARK>
 VINA RESULT:     -10.3      1.644      5.760
  Name = 
  1 active torsions:
  status: ('A' for Active; 'I' for Inactive)
    1  A    between atoms: C_9  and  C_15
                            x       y       z     vdW  Elec       q    Type
                         _______ _______ _______ _____ _____    ______ ____

>  <TORSDO>
F 1

$$$$
=
 OpenBabel10262420043D

 27 31  0  0  1  0  0  0  0  0999 V2000
  190.4610  177.0250  143.0230 N   0  0  0  0  0  0  0  0  0  0  0  0
  188.5030  177.6810  141.4670 C   0  0  1  0  0  3  0  0  0  0  0  0
  187.1550  177.2150  144.0450 S   0  0  0  0  0  0  0  0  0  0  0  0
  184.7760  178.7770  140.1740 N   0  0  0  0  0  0  0  0  0  0  0  0
  182.6410  178.8240  141.4750 C   0  0  0  0  0  1  0  0  0  0  0  0
  188.2750  178.0560  140.0230 C   0  0  0  0  0  3  0  0  0  0  0  0
  184.8890  178.2820  142.4790 N   0  0  0  0  0  0  0  0  0  0  0  0
  188.9290  177.2800  147.5080 C   0  0  0  0  0  3  0  0  0  0  0  0
  184.6920  178.9360  143.6830 C   0  0  0  0  0  1  0  0  0  0  0  0
  190.2680  177.2820  147.6400 C   0  0  0  0  0  2  0  0  0  0  0  0
  186.2170  178.6470  141.9500 C   0  0  2  0  0  3  0  0  0  0  0  0
  189.9420  177.2310  141.8160 C   0  0  0  0  0  0  0  0  0  0  0  0
  184.1700  179.0330  141.5030 C   0  0  1  0  0  3  0  0  0  0  0  0
  186.0400  178.6280  140.5100 C   0  0  0  0  0  0  0  0  0  0  0  0
  190.0060  177.1360  144.3740 C   0  0  0  0  0  0  0  0  0  0  0  0
  187.4540  177.7630  142.3590 C   0  0  1  0  0  3  0  0  0  0  0  0
  188.2280  176.7530  146.2850 C   0  0  0  0  0  3  0  0  0  0  0  0
  187.0990  178.4430  139.5460 N   0  0  0  0  0  0  0  0  0  0  0  0
  191.3060  177.0800  146.6520 C   0  0  0  0  0  3  0  0  0  0  0  0
  191.2270  177.0640  145.2900 C   0  0  0  0  0  3  0  0  0  0  0  0
  188.7710  177.1380  144.8970 C   0  0  0  0  0  0  0  0  0  0  0  0
  192.7600  176.7530  138.6370 C   0  0  0  0  0  3  0  0  0  0  0  0
  190.9380  177.0900  140.7020 C   0  0  0  0  0  0  0  0  0  0  0  0
  190.5430  176.4410  139.5130 C   0  0  0  0  0  3  0  0  0  0  0  0
  191.4460  176.2970  138.4860 C   0  0  0  0  0  3  0  0  0  0  0  0
  193.1810  177.3360  139.8440 C   0  0  0  0  0  3  0  0  0  0  0  0
  192.2720  177.5040  140.8680 C   0  0  0  0  0  3  0  0  0  0  0  0
  1 15  1  0  0  0  0
  2  6  1  1  0  0  0
  2 12  1  0  0  0  0
  2 16  1  0  0  0  0
  3 21  1  0  0  0  0
  4 14  2  0  0  0  0
  4 13  1  0  0  0  0
  7  9  1  0  0  0  0
  8 10  1  0  0  0  0
 11 14  1  6  0  0  0
 11 16  1  0  0  0  0
 11  7  1  0  0  0  0
 12  1  2  0  0  0  0
 13  5  1  6  0  0  0
 13  7  1  0  0  0  0
 15 21  2  0  0  0  0
 15 20  1  0  0  0  0
 16  3  1  1  0  0  0
 17  8  2  0  0  0  0
 18  6  2  0  0  0  0
 18 14  1  0  0  0  0
 19 10  1  0  0  0  0
 20 19  2  0  0  0  0
 21 17  1  0  0  0  0
 22 26  1  0  0  0  0
 23 27  1  0  0  0  0
 23 12  1  0  0  0  0
 24 23  2  0  0  0  0
 25 22  2  0  0  0  0
 25 24  1  0  0  0  0
 26 27  2  0  0  0  0
M  END
>  <MODEL>
3

>  <REMARK>
 VINA RESULT:     -10.1      1.945      7.463
  Name = 
  1 active torsions:
  status: ('A' for Active; 'I' for Inactive)
    1  A    between atoms: C_9  and  C_15
                            x       y       z     vdW  Elec       q    Type
                         _______ _______ _______ _____ _____    ______ ____

>  <TORSDO>
F 1

$$$$
=
 OpenBabel10262420043D

 27 31  0  0  1  0  0  0  0  0999 V2000
  188.3570  177.3260  145.7500 N   0  0  0  0  0  0  0  0  0  0  0  0
  189.9700  177.1160  143.7400 C   0  0  1  0  0  3  0  0  0  0  0  0
  187.3370  177.3460  142.4380 S   0  0  0  0  0  0  0  0  0  0  0  0
  191.4170  177.1340  139.9100 N   0  0  0  0  0  0  0  0  0  0  0  0
  190.1290  177.2920  137.7720 C   0  0  0  0  0  1  0  0  0  0  0  0
  191.4460  176.9440  143.4800 C   0  0  0  0  0  3  0  0  0  0  0  0
  189.0850  177.4670  140.0600 N   0  0  0  0  0  0  0  0  0  0  0  0
  184.1630  178.8390  144.1230 C   0  0  0  0  0  3  0  0  0  0  0  0
  188.1630  178.4490  139.7440 C   0  0  0  0  0  1  0  0  0  0  0  0
  184.0890  179.0890  145.4430 C   0  0  0  0  0  2  0  0  0  0  0  0
  189.7540  177.8290  141.3240 C   0  0  2  0  0  3  0  0  0  0  0  0
  189.5440  177.0330  145.2250 C   0  0  0  0  0  0  0  0  0  0  0  0
  190.2290  177.7270  139.2490 C   0  0  1  0  0  3  0  0  0  0  0  0
  191.0970  177.3000  141.1760 C   0  0  0  0  0  0  0  0  0  0  0  0
  187.1050  177.8150  145.2610 C   0  0  0  0  0  0  0  0  0  0  0  0
  189.1190  177.3330  142.6770 C   0  0  1  0  0  3  0  0  0  0  0  0
  185.1120  177.8320  143.5320 C   0  0  0  0  0  3  0  0  0  0  0  0
  191.9820  176.9640  142.2670 N   0  0  0  0  0  0  0  0  0  0  0  0
  184.9890  178.7260  146.5160 C   0  0  0  0  0  3  0  0  0  0  0  0
  186.2630  178.2420  146.4630 C   0  0  0  0  0  3  0  0  0  0  0  0
  186.5680  177.8050  144.0320 C   0  0  0  0  0  0  0  0  0  0  0  0
  192.5180  176.0970  148.1500 C   0  0  0  0  0  3  0  0  0  0  0  0
  190.5810  176.6780  146.2490 C   0  0  0  0  0  0  0  0  0  0  0  0
  190.6190  177.4010  147.4600 C   0  0  0  0  0  3  0  0  0  0  0  0
  191.5690  177.0930  148.4060 C   0  0  0  0  0  3  0  0  0  0  0  0
  192.5310  175.4210  146.9180 C   0  0  0  0  0  3  0  0  0  0  0  0
  191.5660  175.7100  145.9760 C   0  0  0  0  0  3  0  0  0  0  0  0
  2  6  1  1  0  0  0
  2 12  1  0  0  0  0
  3 21  1  0  0  0  0
  4 14  2  0  0  0  0
  7 11  1  0  0  0  0
  8 10  1  0  0  0  0
  9  7  1  0  0  0  0
 10 19  1  0  0  0  0
 11 14  1  6  0  0  0
 11 16  1  0  0  0  0
 12  1  2  0  0  0  0
 12 23  1  0  0  0  0
 13  5  1  6  0  0  0
 13  4  1  0  0  0  0
 13  7  1  0  0  0  0
 14 18  1  0  0  0  0
 15  1  1  0  0  0  0
 15 20  1  0  0  0  0
 16  3  1  1  0  0  0
 16  2  1  0  0  0  0
 17 21  1  0  0  0  0
 17  8  2  0  0  0  0
 18  6  2  0  0  0  0
 20 19  2  0  0  0  0
 21 15  2  0  0  0  0
 22 25  1  0  0  0  0
 23 24  1  0  0  0  0
 24 25  2  0  0  0  0
 26 22  2  0  0  0  0
 27 23  2  0  0  0  0
 27 26  1  0  0  0  0
M  END
>  <MODEL>
4

>  <REMARK>
 VINA RESULT:     -10.1      1.726      7.020
  Name = 
  1 active torsions:
  status: ('A' for Active; 'I' for Inactive)
    1  A    between atoms: C_9  and  C_15
                            x       y       z     vdW  Elec       q    Type
                         _______ _______ _______ _____ _____    ______ ____

>  <TORSDO>
F 1

$$$$
=
 OpenBabel10262420043D

 27 31  0  0  1  0  0  0  0  0999 V2000
  188.5050  177.7520  143.5050 N   0  0  0  0  0  0  0  0  0  0  0  0
  186.0010  178.2490  143.9160 C   0  0  1  0  0  3  0  0  0  0  0  0
  186.2920  178.7300  141.0240 S   0  0  0  0  0  0  0  0  0  0  0  0
  182.0380  179.0220  143.2380 N   0  0  0  0  0  0  0  0  0  0  0  0
  180.9250  179.6020  141.0740 C   0  0  0  0  0  1  0  0  0  0  0  0
  185.0210  178.2760  145.0630 C   0  0  0  0  0  3  0  0  0  0  0  0
  183.3610  178.9880  141.2830 N   0  0  0  0  0  0  0  0  0  0  0  0
  189.1710  177.3050  138.8270 C   0  0  0  0  0  3  0  0  0  0  0  0
  183.4460  178.2570  140.1110 C   0  0  0  0  0  1  0  0  0  0  0  0
  190.2710  176.7360  139.3500 C   0  0  0  0  0  3  0  0  0  0  0  0
  184.0010  178.2220  142.3690 C   0  0  2  0  0  3  0  0  0  0  0  0
  187.4770  178.0030  144.3110 C   0  0  0  0  0  0  0  0  0  0  0  0
  182.0360  178.7900  141.7730 C   0  0  1  0  0  3  0  0  0  0  0  0
  183.2380  178.5800  143.5510 C   0  0  0  0  0  0  0  0  0  0  0  0
  188.6950  177.5830  142.0970 C   0  0  0  0  0  0  0  0  0  0  0  0
  185.5390  178.4340  142.6300 C   0  0  1  0  0  3  0  0  0  0  0  0
  188.3200  178.2900  139.5830 C   0  0  0  0  0  2  0  0  0  0  0  0
  183.7220  178.4970  144.9080 N   0  0  0  0  0  0  0  0  0  0  0  0
  190.7360  176.6800  140.7190 C   0  0  0  0  0  3  0  0  0  0  0  0
  190.0820  176.9810  141.8780 C   0  0  0  0  0  3  0  0  0  0  0  0
  187.9610  177.9850  141.0490 C   0  0  0  0  0  0  0  0  0  0  0  0
  188.4860  177.7310  148.4560 C   0  0  0  0  0  3  0  0  0  0  0  0
  187.8260  177.9350  145.7680 C   0  0  0  0  0  0  0  0  0  0  0  0
  189.0100  177.2710  146.1550 C   0  0  0  0  0  3  0  0  0  0  0  0
  189.3410  177.1930  147.4880 C   0  0  0  0  0  3  0  0  0  0  0  0
  187.2710  178.3310  148.0840 C   0  0  0  0  0  3  0  0  0  0  0  0
  186.9470  178.4330  146.7470 C   0  0  0  0  0  3  0  0  0  0  0  0
  1 12  2  0  0  0  0
  2 12  1  0  0  0  0
  2  6  1  6  0  0  0
  3 21  1  0  0  0  0
  4 14  2  0  0  0  0
  7 13  1  0  0  0  0
  7 11  1  0  0  0  0
  8 10  2  0  0  0  0
  8 17  1  0  0  0  0
  9  7  1  0  0  0  0
 10 19  1  0  0  0  0
 11 16  1  0  0  0  0
 11 14  1  1  0  0  0
 12 23  1  0  0  0  0
 13  5  1  6  0  0  0
 13  4  1  0  0  0  0
 14 18  1  0  0  0  0
 15  1  1  0  0  0  0
 16  3  1  6  0  0  0
 16  2  1  0  0  0  0
 17 21  1  0  0  0  0
 18  6  2  0  0  0  0
 19 20  2  0  0  0  0
 20 15  1  0  0  0  0
 21 15  2  0  0  0  0
 23 24  2  0  0  0  0
 23 27  1  0  0  0  0
 24 25  1  0  0  0  0
 25 22  2  0  0  0  0
 26 22  1  0  0  0  0
 27 26  2  0  0  0  0
M  END
>  <MODEL>
5

>  <REMARK>
 VINA RESULT:     -10.0      2.110      5.984
  Name = 
  1 active torsions:
  status: ('A' for Active; 'I' for Inactive)
    1  A    between atoms: C_9  and  C_15
                            x       y       z     vdW  Elec       q    Type
                         _______ _______ _______ _____ _____    ______ ____

>  <TORSDO>
F 1

$$$$
=
 OpenBabel10262420043D

 27 31  0  0  1  0  0  0  0  0999 V2000
  189.1390  177.7230  141.2940 N   0  0  0  0  0  0  0  0  0  0  0  0
  186.6230  178.2530  141.0250 C   0  0  1  0  0  3  0  0  0  0  0  0
  186.8250  177.4830  143.8620 S   0  0  0  0  0  0  0  0  0  0  0  0
  182.7000  179.0060  141.9250 N   0  0  0  0  0  0  0  0  0  0  0  0
  181.5400  178.7350  144.1240 C   0  0  0  0  0  1  0  0  0  0  0  0
  185.6620  178.6880  139.9470 C   0  0  0  0  0  3  0  0  0  0  0  0
  184.0130  178.3860  143.7860 N   0  0  0  0  0  0  0  0  0  0  0  0
  190.1180  177.5300  145.9340 C   0  0  0  0  0  3  0  0  0  0  0  0
  184.4220  178.9380  144.9870 C   0  0  0  0  0  1  0  0  0  0  0  0
  191.3310  177.6730  145.3700 C   0  0  0  0  0  2  0  0  0  0  0  0
  184.8540  178.9270  142.7020 C   0  0  2  0  0  3  0  0  0  0  0  0
  188.0620  177.9440  140.5470 C   0  0  0  0  0  0  0  0  0  0  0  0
  182.8490  179.1100  143.3970 C   0  0  1  0  0  3  0  0  0  0  0  0
  183.9640  178.9770  141.5570 C   0  0  0  0  0  0  0  0  0  0  0  0
  189.4380  177.7000  142.6930 C   0  0  0  0  0  0  0  0  0  0  0  0
  186.1790  178.1630  142.3280 C   0  0  1  0  0  3  0  0  0  0  0  0
  188.9230  177.0050  145.1860 C   0  0  0  0  0  3  0  0  0  0  0  0
  184.3860  178.9700  140.1760 N   0  0  0  0  0  0  0  0  0  0  0  0
  191.7240  177.6490  143.9780 C   0  0  0  0  0  3  0  0  0  0  0  0
  190.9580  177.7080  142.8510 C   0  0  0  0  0  3  0  0  0  0  0  0
  188.6500  177.5330  143.7650 C   0  0  0  0  0  0  0  0  0  0  0  0
  188.9230  177.9870  136.3590 C   0  0  0  0  0  3  0  0  0  0  0  0
  188.3500  177.9830  139.0750 C   0  0  0  0  0  0  0  0  0  0  0  0
  188.1280  176.8210  138.3060 C   0  0  0  0  0  3  0  0  0  0  0  0
  188.3950  176.8370  136.9570 C   0  0  0  0  0  3  0  0  0  0  0  0
  189.2140  179.1250  137.1310 C   0  0  0  0  0  3  0  0  0  0  0  0
  188.9250  179.1210  138.4800 C   0  0  0  0  0  3  0  0  0  0  0  0
  1 15  1  0  0  0  0
  2  6  1  1  0  0  0
  2 16  1  0  0  0  0
  4 13  1  0  0  0  0
  6 18  2  0  0  0  0
  7  9  1  0  0  0  0
 10  8  1  0  0  0  0
 11 14  1  6  0  0  0
 11  7  1  0  0  0  0
 12  2  1  0  0  0  0
 12  1  2  0  0  0  0
 13  7  1  0  0  0  0
 13  5  1  1  0  0  0
 14  4  2  0  0  0  0
 15 20  1  0  0  0  0
 15 21  2  0  0  0  0
 16 11  1  0  0  0  0
 16  3  1  1  0  0  0
 17  8  2  0  0  0  0
 18 14  1  0  0  0  0
 19 10  1  0  0  0  0
 20 19  2  0  0  0  0
 21  3  1  0  0  0  0
 21 17  1  0  0  0  0
 22 25  2  0  0  0  0
 22 26  1  0  0  0  0
 23 12  1  0  0  0  0
 24 23  2  0  0  0  0
 25 24  1  0  0  0  0
 26 27  2  0  0  0  0
 27 23  1  0  0  0  0
M  END
>  <MODEL>
6

>  <REMARK>
 VINA RESULT:      -9.9      2.353      6.737
  Name = 
  1 active torsions:
  status: ('A' for Active; 'I' for Inactive)
    1  A    between atoms: C_9  and  C_15
                            x       y       z     vdW  Elec       q    Type
                         _______ _______ _______ _____ _____    ______ ____

>  <TORSDO>
F 1

$$$$
=
 OpenBabel10262420043D

 27 31  0  0  1  0  0  0  0  0999 V2000
  187.0990  178.1730  141.6850 N   0  0  0  0  0  0  0  0  0  0  0  0
  189.2980  177.4210  142.8200 C   0  0  1  0  0  3  0  0  0  0  0  0
  187.6900  178.3820  145.0940 S   0  0  0  0  0  0  0  0  0  0  0  0
  192.0270  176.4040  145.6970 N   0  0  0  0  0  0  0  0  0  0  0  0
  191.8510  176.7160  148.1730 C   0  0  0  0  0  1  0  0  0  0  0  0
  190.6360  176.8400  142.4330 C   0  0  0  0  0  3  0  0  0  0  0  0
  189.9940  177.2470  146.5520 N   0  0  0  0  0  0  0  0  0  0  0  0
  183.8150  178.7370  145.0650 C   0  0  0  0  0  3  0  0  0  0  0  0
  188.9520  176.8070  147.3480 C   0  0  0  0  0  1  0  0  0  0  0  0
  183.0860  178.6590  143.9380 C   0  0  0  0  0  3  0  0  0  0  0  0
  189.8140  176.7090  145.1900 C   0  0  2  0  0  3  0  0  0  0  0  0
  188.3800  177.8160  141.6380 C   0  0  0  0  0  0  0  0  0  0  0  0
  191.1040  176.4050  146.8580 C   0  0  1  0  0  3  0  0  0  0  0  0
  191.1680  176.5140  144.7060 C   0  0  0  0  0  0  0  0  0  0  0  0
  186.1020  178.3080  142.7030 C   0  0  0  0  0  0  0  0  0  0  0  0
  188.9820  177.5560  144.1550 C   0  0  1  0  0  3  0  0  0  0  0  0
  185.2720  179.1130  145.0740 C   0  0  0  0  0  2  0  0  0  0  0  0
  191.5530  176.4690  143.3150 N   0  0  0  0  0  0  0  0  0  0  0  0
  183.5030  178.6290  142.5530 C   0  0  0  0  0  3  0  0  0  0  0  0
  184.7430  178.4350  142.0170 C   0  0  0  0  0  3  0  0  0  0  0  0
  186.2070  178.4770  144.0290 C   0  0  0  0  0  0  0  0  0  0  0  0
  189.8520  177.5270  137.6350 C   0  0  0  0  0  3  0  0  0  0  0  0
  188.9220  177.7090  140.2430 C   0  0  0  0  0  0  0  0  0  0  0  0
  188.6210  178.7280  139.3150 C   0  0  0  0  0  3  0  0  0  0  0  0
  189.1040  178.6420  138.0300 C   0  0  0  0  0  3  0  0  0  0  0  0
  190.0960  176.4740  138.5330 C   0  0  0  0  0  3  0  0  0  0  0  0
  189.6340  176.5680  139.8290 C   0  0  0  0  0  3  0  0  0  0  0  0
  1 15  1  0  0  0  0
  2  6  1  6  0  0  0
  2 16  1  0  0  0  0
  4 13  1  0  0  0  0
  6 18  2  0  0  0  0
  7 13  1  0  0  0  0
  7  9  1  0  0  0  0
  8 17  1  0  0  0  0
 10  8  2  0  0  0  0
 11 14  1  6  0  0  0
 11  7  1  0  0  0  0
 12  1  2  0  0  0  0
 12  2  1  0  0  0  0
 13  5  1  1  0  0  0
 14  4  2  0  0  0  0
 15 21  2  0  0  0  0
 16  3  1  6  0  0  0
 16 11  1  0  0  0  0
 18 14  1  0  0  0  0
 19 10  1  0  0  0  0
 20 19  2  0  0  0  0
 20 15  1  0  0  0  0
 21 17  1  0  0  0  0
 21  3  1  0  0  0  0
 22 25  2  0  0  0  0
 22 26  1  0  0  0  0
 23 12  1  0  0  0  0
 24 23  2  0  0  0  0
 25 24  1  0  0  0  0
 26 27  2  0  0  0  0
 27 23  1  0  0  0  0
M  END
>  <MODEL>
7

>  <REMARK>
 VINA RESULT:      -9.8      1.241      5.331
  Name = 
  1 active torsions:
  status: ('A' for Active; 'I' for Inactive)
    1  A    between atoms: C_9  and  C_15
                            x       y       z     vdW  Elec       q    Type
                         _______ _______ _______ _____ _____    ______ ____

>  <TORSDO>
F 1

$$$$
=
 OpenBabel10262420043D

 27 31  0  0  1  0  0  0  0  0999 V2000
  187.1860  178.0980  144.4880 N   0  0  0  0  0  0  0  0  0  0  0  0
  186.8390  178.3540  141.9380 C   0  0  1  0  0  3  0  0  0  0  0  0
  189.7730  178.2500  142.1860 S   0  0  0  0  0  0  0  0  0  0  0  0
  187.5850  178.4660  137.9140 N   0  0  0  0  0  0  0  0  0  0  0  0
  189.7990  178.4360  136.7510 C   0  0  0  0  0  1  0  0  0  0  0  0
  185.7040  178.4980  140.9540 C   0  0  0  0  0  3  0  0  0  0  0  0
  189.5150  178.1880  139.2440 N   0  0  0  0  0  0  0  0  0  0  0  0
  191.6800  176.7670  145.2360 C   0  0  0  0  0  3  0  0  0  0  0  0
  190.5100  177.2450  139.4290 C   0  0  0  0  0  1  0  0  0  0  0  0
  191.0720  176.4610  146.3960 C   0  0  0  0  0  2  0  0  0  0  0  0
  188.3060  177.7530  139.9680 C   0  0  2  0  0  3  0  0  0  0  0  0
  186.4310  178.3820  143.4310 C   0  0  0  0  0  0  0  0  0  0  0  0
  188.9690  177.9340  137.9520 C   0  0  1  0  0  3  0  0  0  0  0  0
  187.2100  178.2530  139.1580 C   0  0  0  0  0  0  0  0  0  0  0  0
  188.5310  177.6630  144.7070 C   0  0  0  0  0  0  0  0  0  0  0  0
  188.1260  178.2060  141.4660 C   0  0  1  0  0  3  0  0  0  0  0  0
  191.1300  177.7740  144.2630 C   0  0  0  0  0  3  0  0  0  0  0  0
  185.8750  178.5170  139.6390 N   0  0  0  0  0  0  0  0  0  0  0  0
  189.7310  176.7530  146.8550 C   0  0  0  0  0  3  0  0  0  0  0  0
  188.6480  177.2060  146.1610 C   0  0  0  0  0  3  0  0  0  0  0  0
  189.6260  177.7410  143.9350 C   0  0  0  0  0  0  0  0  0  0  0  0
  182.3500  179.1280  144.4660 C   0  0  0  0  0  3  0  0  0  0  0  0
  184.9980  178.6650  143.7760 C   0  0  0  0  0  0  0  0  0  0  0  0
  184.6290  178.7510  145.1350 C   0  0  0  0  0  3  0  0  0  0  0  0
  183.3190  179.0030  145.4690 C   0  0  0  0  0  3  0  0  0  0  0  0
  182.6970  178.9730  143.1130 C   0  0  0  0  0  3  0  0  0  0  0  0
  184.0150  178.7450  142.7730 C   0  0  0  0  0  3  0  0  0  0  0  0
  1 15  1  0  0  0  0
  2  6  1  6  0  0  0
  2 12  1  0  0  0  0
  3 21  1  0  0  0  0
  4 13  1  0  0  0  0
  4 14  2  0  0  0  0
  7  9  1  0  0  0  0
  7 11  1  0  0  0  0
  8 10  1  0  0  0  0
 10 19  1  0  0  0  0
 11 14  1  6  0  0  0
 11 16  1  0  0  0  0
 12 23  1  0  0  0  0
 12  1  2  0  0  0  0
 13  5  1  6  0  0  0
 13  7  1  0  0  0  0
 14 18  1  0  0  0  0
 15 20  1  0  0  0  0
 16  2  1  0  0  0  0
 16  3  1  1  0  0  0
 17  8  2  0  0  0  0
 18  6  2  0  0  0  0
 20 19  2  0  0  0  0
 21 17  1  0  0  0  0
 21 15  2  0  0  0  0
 22 25  1  0  0  0  0
 23 24  1  0  0  0  0
 24 25  2  0  0  0  0
 26 22  2  0  0  0  0
 27 26  1  0  0  0  0
 27 23  2  0  0  0  0
M  END
>  <MODEL>
8

>  <REMARK>
 VINA RESULT:      -9.6      1.606      5.734
  Name = 
  1 active torsions:
  status: ('A' for Active; 'I' for Inactive)
    1  A    between atoms: C_9  and  C_15
                            x       y       z     vdW  Elec       q    Type
                         _______ _______ _______ _____ _____    ______ ____

>  <TORSDO>
F 1

$$$$
=
 OpenBabel10262420043D

 27 31  0  0  1  0  0  0  0  0999 V2000
  190.7290  176.9320  140.1120 N   0  0  0  0  0  0  0  0  0  0  0  0
  188.4690  177.9080  140.9040 C   0  0  1  0  0  3  0  0  0  0  0  0
  188.3020  178.1750  137.9740 S   0  0  0  0  0  0  0  0  0  0  0  0
  184.6450  179.3710  140.8530 N   0  0  0  0  0  0  0  0  0  0  0  0
  183.2710  180.0350  138.8710 C   0  0  0  0  0  1  0  0  0  0  0  0
  187.7370  178.1780  142.1950 C   0  0  0  0  0  3  0  0  0  0  0  0
  185.5590  178.9880  138.7100 N   0  0  0  0  0  0  0  0  0  0  0  0
  190.4330  176.1250  135.4450 C   0  0  0  0  0  3  0  0  0  0  0  0
  185.2980  178.1950  137.6070 C   0  0  0  0  0  1  0  0  0  0  0  0
  191.4940  175.3880  135.8170 C   0  0  0  0  0  3  0  0  0  0  0  0
  186.2450  178.1750  139.7310 C   0  0  2  0  0  3  0  0  0  0  0  0
  189.9270  177.4120  141.0590 C   0  0  0  0  0  0  0  0  0  0  0  0
  184.3340  179.0680  139.4350 C   0  0  1  0  0  3  0  0  0  0  0  0
  185.7870  178.7300  140.9910 C   0  0  0  0  0  0  0  0  0  0  0  0
  190.6240  176.6570  138.7120 C   0  0  0  0  0  0  0  0  0  0  0  0
  187.8180  178.1090  139.7050 C   0  0  1  0  0  3  0  0  0  0  0  0
  189.9210  177.2890  136.2490 C   0  0  0  0  0  2  0  0  0  0  0  0
  186.4910  178.6280  142.2480 N   0  0  0  0  0  0  0  0  0  0  0  0
  192.1870  175.3180  137.0860 C   0  0  0  0  0  3  0  0  0  0  0  0
  191.8200  175.7960  138.3100 C   0  0  0  0  0  3  0  0  0  0  0  0
  189.7910  177.1340  137.7760 C   0  0  0  0  0  0  0  0  0  0  0  0
  191.6820  177.2930  144.9550 C   0  0  0  0  0  3  0  0  0  0  0  0
  190.5220  177.3560  142.4350 C   0  0  0  0  0  0  0  0  0  0  0  0
  190.9890  178.5490  143.0250 C   0  0  0  0  0  3  0  0  0  0  0  0
  191.5430  178.5130  144.2830 C   0  0  0  0  0  3  0  0  0  0  0  0
  191.2840  176.0910  144.3450 C   0  0  0  0  0  3  0  0  0  0  0  0
  190.7060  176.1260  143.0930 C   0  0  0  0  0  3  0  0  0  0  0  0
  1 12  2  0  0  0  0
  2 12  1  0  0  0  0
  2  6  1  1  0  0  0
  4 14  2  0  0  0  0
  6 18  2  0  0  0  0
  7 13  1  0  0  0  0
  7 11  1  0  0  0  0
  8 10  2  0  0  0  0
  8 17  1  0  0  0  0
  9  7  1  0  0  0  0
 10 19  1  0  0  0  0
 11 14  1  1  0  0  0
 12 23  1  0  0  0  0
 13  5  1  6  0  0  0
 13  4  1  0  0  0  0
 14 18  1  0  0  0  0
 15  1  1  0  0  0  0
 16  3  1  6  0  0  0
 16 11  1  0  0  0  0
 16  2  1  0  0  0  0
 17 21  1  0  0  0  0
 19 20  2  0  0  0  0
 20 15  1  0  0  0  0
 21  3  1  0  0  0  0
 21 15  2  0  0  0  0
 23 24  2  0  0  0  0
 23 27  1  0  0  0  0
 24 25  1  0  0  0  0
 25 22  2  0  0  0  0
 26 22  1  0  0  0  0
 27 26  2  0  0  0  0
M  END
>  <MODEL>
9

>  <REMARK>
 VINA RESULT:      -9.3      3.135      6.805
  Name = 
  1 active torsions:
  status: ('A' for Active; 'I' for Inactive)
    1  A    between atoms: C_9  and  C_15
                            x       y       z     vdW  Elec       q    Type
                         _______ _______ _______ _____ _____    ______ ____

>  <TORSDO>
F 1

$$$$
