=
 OpenBabel10262420373D

 55 62  0  0  1  0  0  0  0  0999 V2000
  192.3350  176.4680  138.2940 C   0  0  0  0  0  2  0  0  0  0  0  0
  188.5240  179.3220  137.2020 C   0  0  0  0  0  2  0  0  0  0  0  0
  188.3180  178.2100  134.5940 O   0  0  0  0  0  0  0  0  0  0  0  0
  189.9110  176.4800  134.9420 C   0  0  0  0  0  2  0  0  0  0  0  0
  191.9490  176.5110  140.7590 C   0  0  0  0  0  3  0  0  0  0  0  0
  189.2500  177.0160  140.3320 C   0  0  0  0  0  0  0  0  0  0  0  0
  192.0740  175.1530  137.5820 C   0  0  0  0  0  2  0  0  0  0  0  0
  190.1010  176.8450  139.2820 N   0  0  0  0  0  0  0  0  0  0  0  0
  188.4700  179.3570  138.7230 C   0  0  0  0  0  2  0  0  0  0  0  0
  189.2030  178.1180  136.7510 N   0  0  0  0  0  2  0  0  0  0  0  0
  189.0860  177.6360  135.4100 C   0  0  0  0  0  0  0  0  0  0  0  0
  191.0920  176.6580  141.8500 C   0  0  0  0  0  3  0  0  0  0  0  0
  187.4090  178.3980  139.2770 C   0  0  2  0  0  0  0  0  0  0  0  0
  191.4290  176.6100  139.4660 C   0  0  0  0  0  0  0  0  0  0  0  0
  190.2470  175.5240  136.0830 C   0  0  2  0  0  3  0  0  0  0  0  0
  191.7120  175.4140  136.1960 N   0  0  0  0  0  0  0  0  0  0  0  0
  187.3640  178.4850  140.7430 N   0  0  0  0  0  2  0  0  0  0  0  0
  187.7810  177.2260  140.1010 C   0  0  2  0  0  3  0  0  0  0  0  0
  189.7360  176.9090  141.6400 C   0  0  0  0  0  3  0  0  0  0  0  0
  188.6840  174.0740  134.6510 C   0  0  0  0  0  2  0  0  0  0  0  0
  187.5490  175.0960  134.6410 C   0  0  0  0  0  2  0  0  0  0  0  0
  188.5720  173.9040  137.1640 C   0  0  2  0  0  3  0  0  0  0  0  0
  187.2020  174.5280  137.0440 C   0  0  0  0  0  3  0  0  0  0  0  0
  186.7240  175.0280  135.8960 C   0  0  0  0  0  3  0  0  0  0  0  0
  189.4860  174.1770  135.9560 C   0  0  2  0  0  3  0  0  0  0  0  0
  188.4320  172.4090  137.3790 C   0  0  0  0  0  1  0  0  0  0  0  0
  185.6200  177.5940  137.5510 C   0  0  0  0  0  2  0  0  0  0  0  0
  185.9850  178.4600  138.7010 C   0  0  2  0  0  0  0  0  0  0  0  0
  186.0100  178.9370  137.3750 O   0  0  0  0  0  0  0  0  0  0  0  0
  183.5460  178.3180  139.6600 C   0  0  2  0  0  0  0  0  0  0  0  0
  183.1170  180.4160  139.0660 C   0  0  0  0  0  2  0  0  0  0  0  0
  182.5740  179.1210  139.0660 O   0  0  0  0  0  0  0  0  0  0  0  0
  184.8500  179.1060  139.5290 C   0  0  2  0  0  3  0  0  0  0  0  0
  184.5170  180.3700  139.0390 O   0  0  0  0  0  0  0  0  0  0  0  0
  183.5470  176.9680  138.9420 C   0  0  0  0  0  1  0  0  0  0  0  0
  183.1940  178.1320  141.1530 C   0  0  2  0  0  3  0  0  0  0  0  0
  181.7390  178.3280  141.4590 C   0  0  0  0  0  0  0  0  0  0  0  0
  181.3270  179.4100  141.9560 O   0  0  0  0  0  1  0  0  0  0  0  0
  180.8350  177.3130  141.1770 O   0  0  0  0  0  0  0  0  0  0  0  0
  183.9800  178.9620  141.9660 O   0  0  0  0  0  0  0  0  0  0  0  0
  185.6440  177.8410  143.2590 C   0  0  0  0  0  1  0  0  0  0  0  0
  184.1800  178.2400  143.1460 C   0  0  1  0  0  3  0  0  0  0  0  0
  183.6870  180.4250  144.0400 O   0  0  0  0  0  1  0  0  0  0  0  0
  183.7170  179.0640  144.3470 C   0  0  2  0  0  3  0  0  0  0  0  0
  184.6090  178.8230  145.5510 C   0  0  0  0  0  1  0  0  0  0  0  0
  192.2560  174.3470  135.3600 C   0  0  0  0  0  2  0  0  0  0  0  0
  194.2150  173.1830  136.3910 C   0  0  0  0  0  3  0  0  0  0  0  0
  196.4740  174.0170  136.0830 C   0  0  0  0  0  0  0  0  0  0  0  0
  194.6020  175.1520  135.0340 C   0  0  0  0  0  3  0  0  0  0  0  0
  195.9750  175.0470  135.2730 C   0  0  0  0  0  3  0  0  0  0  0  0
  195.5880  173.0770  136.6300 C   0  0  0  0  0  3  0  0  0  0  0  0
  193.7210  174.2190  135.5910 C   0  0  0  0  0  0  0  0  0  0  0  0
  197.9500  173.8810  136.2990 C   0  0  1  0  0  3  0  0  0  0  0  0
  198.6820  174.8610  135.4990 C   0  0  0  0  0  2  0  0  0  0  0  0
  198.4800  175.1000  136.9320 N   0  0  0  0  0  2  0  0  0  0  0  0
  1 14  1  0  0  0  0
  2  9  1  0  0  0  0
  3 11  2  0  0  0  0
  4 11  1  0  0  0  0
  5 12  1  0  0  0  0
  6 19  1  0  0  0  0
  7  1  1  0  0  0  0
  8 14  1  0  0  0  0
  8  6  2  0  0  0  0
 10  2  1  0  0  0  0
 11 10  1  0  0  0  0
 13  9  1  6  0  0  0
 13 18  1  0  0  0  0
 13 17  1  0  0  0  0
 14  5  2  0  0  0  0
 15  4  1  6  0  0  0
 15 16  1  0  0  0  0
 16  7  1  0  0  0  0
 18  6  1  1  0  0  0
 18 17  1  0  0  0  0
 19 12  2  0  0  0  0
 21 20  1  0  0  0  0
 21 24  1  0  0  0  0
 22 26  1  6  0  0  0
 23 22  1  0  0  0  0
 24 23  2  0  0  0  0
 25 20  1  6  0  0  0
 25 15  1  0  0  0  0
 25 22  1  0  0  0  0
 28 27  1  6  0  0  0
 28 13  1  0  0  0  0
 28 33  1  0  0  0  0
 29 27  1  0  0  0  0
 29 28  1  0  0  0  0
 30 35  1  6  0  0  0
 30 36  1  0  0  0  0
 32 31  1  0  0  0  0
 32 30  1  0  0  0  0
 33 34  1  6  0  0  0
 33 30  1  0  0  0  0
 34 31  1  0  0  0  0
 36 37  1  6  0  0  0
 36 40  1  0  0  0  0
 37 38  1  0  0  0  0
 39 37  2  0  0  0  0
 40 42  1  0  0  0  0
 42 41  1  1  0  0  0
 42 44  1  0  0  0  0
 43 44  1  0  0  0  0
 44 45  1  1  0  0  0
 46 52  1  0  0  0  0
 46 16  1  0  0  0  0
 47 51  1  0  0  0  0
 48 51  2  0  0  0  0
 49 50  2  0  0  0  0
 49 52  1  0  0  0  0
 50 48  1  0  0  0  0
 52 47  2  0  0  0  0
 53 48  1  6  0  0  0
 53 55  1  0  0  0  0
 54 53  1  0  0  0  0
 54 55  1  0  0  0  0
M  END
>  <MODEL>
1

>  <REMARK>
 VINA RESULT:      -5.4      0.000      0.000
  Name = 
  11 active torsions:
  status: ('A' for Active; 'I' for Inactive)
    1  A    between atoms: C_1  and  C_53
    2  A    between atoms: C_6  and  C_53
    3  A    between atoms: C_8  and  C_20
    4  A    between atoms: C_8  and  C_43
    5  A    between atoms: C_10  and  C_32
    6  A    between atoms: C_11  and  C_29
    7  A    between atoms: C_11  and  O_38
    8  A    between atoms: C_26  and  C_45
    9  A    between atoms: C_33  and  N_49
   10  A    between atoms: C_33  and  C_52
   11  A    between atoms: O_38  and  C_53
                            x       y       z     vdW  Elec       q    Type
                         _______ _______ _______ _____ _____    ______ ____

>  <TORSDO>
F 11

$$$$
=
 OpenBabel10262420373D

 55 62  0  0  1  0  0  0  0  0999 V2000
  192.0940  176.6290  138.7840 C   0  0  0  0  0  2  0  0  0  0  0  0
  188.2570  179.1160  137.0660 C   0  0  0  0  0  2  0  0  0  0  0  0
  188.3330  177.7100  134.5960 O   0  0  0  0  0  0  0  0  0  0  0  0
  189.9730  176.1260  135.2700 C   0  0  0  0  0  2  0  0  0  0  0  0
  191.4940  176.9230  141.1890 C   0  0  0  0  0  3  0  0  0  0  0  0
  188.8210  177.2190  140.4910 C   0  0  0  0  0  0  0  0  0  0  0  0
  191.9610  175.2310  138.2110 C   0  0  0  0  0  2  0  0  0  0  0  0
  189.7670  176.9820  139.5400 N   0  0  0  0  0  0  0  0  0  0  0  0
  188.0690  179.3160  138.5640 C   0  0  0  0  0  2  0  0  0  0  0  0
  189.0300  177.9110  136.8150 N   0  0  0  0  0  2  0  0  0  0  0  0
  189.0540  177.2760  135.5330 C   0  0  0  0  0  0  0  0  0  0  0  0
  190.5400  177.1410  142.1830 C   0  0  0  0  0  3  0  0  0  0  0  0
  187.0130  178.3640  139.1380 C   0  0  2  0  0  0  0  0  0  0  0  0
  191.0840  176.8470  139.8560 C   0  0  0  0  0  0  0  0  0  0  0  0
  190.2540  175.3240  136.5370 C   0  0  2  0  0  3  0  0  0  0  0  0
  191.7080  175.3140  136.7800 N   0  0  0  0  0  0  0  0  0  0  0  0
  186.8370  178.6100  140.5760 N   0  0  0  0  0  2  0  0  0  0  0  0
  187.3690  177.3140  140.1190 C   0  0  2  0  0  3  0  0  0  0  0  0
  189.1960  177.2860  141.8370 C   0  0  0  0  0  3  0  0  0  0  0  0
  189.0740  173.5480  135.1060 C   0  0  0  0  0  2  0  0  0  0  0  0
  187.9410  174.4760  134.6740 C   0  0  0  0  0  2  0  0  0  0  0  0
  188.4310  173.8110  137.5290 C   0  0  2  0  0  3  0  0  0  0  0  0
  187.1020  174.3150  137.0170 C   0  0  0  0  0  3  0  0  0  0  0  0
  186.8680  174.5750  135.7230 C   0  0  0  0  0  3  0  0  0  0  0  0
  189.5750  173.9290  136.5060 C   0  0  2  0  0  3  0  0  0  0  0  0
  188.2880  172.3710  137.9810 C   0  0  0  0  0  1  0  0  0  0  0  0
  185.4400  177.3110  137.3370 C   0  0  0  0  0  2  0  0  0  0  0  0
  185.6420  178.2770  138.4460 C   0  0  2  0  0  0  0  0  0  0  0  0
  185.7470  178.6650  137.0950 O   0  0  0  0  0  0  0  0  0  0  0  0
  183.0310  178.3510  138.7030 C   0  0  2  0  0  0  0  0  0  0  0  0
  183.0220  180.5730  138.6760 C   0  0  0  0  0  2  0  0  0  0  0  0
  182.3620  179.4460  138.1590 O   0  0  0  0  0  0  0  0  0  0  0  0
  184.3980  178.8880  139.1300 C   0  0  2  0  0  3  0  0  0  0  0  0
  184.3580  180.2750  138.9740 O   0  0  0  0  0  0  0  0  0  0  0  0
  183.0870  177.2550  137.6370 C   0  0  0  0  0  1  0  0  0  0  0  0
  182.2520  177.8550  139.9420 C   0  0  2  0  0  3  0  0  0  0  0  0
  181.1690  176.8690  139.6180 C   0  0  0  0  0  0  0  0  0  0  0  0
  181.3790  175.6300  139.7120 O   0  0  0  0  0  1  0  0  0  0  0  0
  179.9180  177.3260  139.2280 O   0  0  0  0  0  0  0  0  0  0  0  0
  181.7310  178.9310  140.6750 O   0  0  0  0  0  0  0  0  0  0  0  0
  183.2050  179.0620  142.5480 C   0  0  0  0  0  1  0  0  0  0  0  0
  181.8690  178.5630  142.0170 C   0  0  1  0  0  3  0  0  0  0  0  0
  181.0560  180.2510  143.5350 O   0  0  0  0  0  1  0  0  0  0  0  0
  180.6930  179.1030  142.8300 C   0  0  2  0  0  3  0  0  0  0  0  0
  180.1630  178.0520  143.7870 C   0  0  0  0  0  1  0  0  0  0  0  0
  192.3740  174.1940  136.1190 C   0  0  0  0  0  2  0  0  0  0  0  0
  194.4670  175.3760  135.4280 C   0  0  0  0  0  3  0  0  0  0  0  0
  196.6380  174.6660  136.2490 C   0  0  0  0  0  0  0  0  0  0  0  0
  194.6260  173.5180  136.9740 C   0  0  0  0  0  3  0  0  0  0  0  0
  196.0150  173.6690  137.0130 C   0  0  0  0  0  3  0  0  0  0  0  0
  195.8560  175.5280  135.4670 C   0  0  0  0  0  3  0  0  0  0  0  0
  193.8510  174.3730  136.1830 C   0  0  0  0  0  0  0  0  0  0  0  0
  198.1220  174.8540  136.3300 C   0  0  1  0  0  3  0  0  0  0  0  0
  198.6640  174.1900  137.5140 C   0  0  0  0  0  2  0  0  0  0  0  0
  198.8010  173.5540  136.2000 N   0  0  0  0  0  2  0  0  0  0  0  0
  1 14  1  0  0  0  0
  2  9  1  0  0  0  0
  3 11  2  0  0  0  0
  4 11  1  0  0  0  0
  5 12  1  0  0  0  0
  6 19  1  0  0  0  0
  7  1  1  0  0  0  0
  8 14  1  0  0  0  0
  8  6  2  0  0  0  0
 10  2  1  0  0  0  0
 11 10  1  0  0  0  0
 13  9  1  6  0  0  0
 13 18  1  0  0  0  0
 13 17  1  0  0  0  0
 14  5  2  0  0  0  0
 15  4  1  6  0  0  0
 15 16  1  0  0  0  0
 16  7  1  0  0  0  0
 18  6  1  1  0  0  0
 18 17  1  0  0  0  0
 19 12  2  0  0  0  0
 21 20  1  0  0  0  0
 21 24  1  0  0  0  0
 22 26  1  6  0  0  0
 23 22  1  0  0  0  0
 24 23  2  0  0  0  0
 25 20  1  6  0  0  0
 25 15  1  0  0  0  0
 25 22  1  0  0  0  0
 28 27  1  6  0  0  0
 28 33  1  0  0  0  0
 28 13  1  0  0  0  0
 29 27  1  0  0  0  0
 29 28  1  0  0  0  0
 30 35  1  6  0  0  0
 30 33  1  0  0  0  0
 30 36  1  0  0  0  0
 31 34  1  0  0  0  0
 32 31  1  0  0  0  0
 32 30  1  0  0  0  0
 33 34  1  6  0  0  0
 36 37  1  6  0  0  0
 36 40  1  0  0  0  0
 37 38  1  0  0  0  0
 39 37  2  0  0  0  0
 40 42  1  0  0  0  0
 42 41  1  1  0  0  0
 42 44  1  0  0  0  0
 44 43  1  0  0  0  0
 44 45  1  1  0  0  0
 46 52  1  0  0  0  0
 46 16  1  0  0  0  0
 47 51  2  0  0  0  0
 47 52  1  0  0  0  0
 48 50  2  0  0  0  0
 49 50  1  0  0  0  0
 51 48  1  0  0  0  0
 52 49  2  0  0  0  0
 53 48  1  1  0  0  0
 53 54  1  0  0  0  0
 55 53  1  0  0  0  0
 55 54  1  0  0  0  0
M  END
>  <MODEL>
2

>  <REMARK>
 VINA RESULT:      -3.5      1.116      1.616
  Name = 
  11 active torsions:
  status: ('A' for Active; 'I' for Inactive)
    1  A    between atoms: C_1  and  C_53
    2  A    between atoms: C_6  and  C_53
    3  A    between atoms: C_8  and  C_20
    4  A    between atoms: C_8  and  C_43
    5  A    between atoms: C_10  and  C_32
    6  A    between atoms: C_11  and  C_29
    7  A    between atoms: C_11  and  O_38
    8  A    between atoms: C_26  and  C_45
    9  A    between atoms: C_33  and  N_49
   10  A    between atoms: C_33  and  C_52
   11  A    between atoms: O_38  and  C_53
                            x       y       z     vdW  Elec       q    Type
                         _______ _______ _______ _____ _____    ______ ____

>  <TORSDO>
F 11

$$$$
=
 OpenBabel10262420373D

 55 62  0  0  1  0  0  0  0  0999 V2000
  192.3150  176.4610  138.9160 C   0  0  0  0  0  2  0  0  0  0  0  0
  188.6900  179.1710  137.0790 C   0  0  0  0  0  2  0  0  0  0  0  0
  188.7690  177.7700  134.6070 O   0  0  0  0  0  0  0  0  0  0  0  0
  190.2900  176.0920  135.3290 C   0  0  0  0  0  2  0  0  0  0  0  0
  191.6510  176.7830  141.3000 C   0  0  0  0  0  3  0  0  0  0  0  0
  189.0250  177.2360  140.5120 C   0  0  0  0  0  0  0  0  0  0  0  0
  192.1210  175.0740  138.3320 C   0  0  0  0  0  2  0  0  0  0  0  0
  189.9870  176.9470  139.5930 N   0  0  0  0  0  0  0  0  0  0  0  0
  188.4630  179.3790  138.5700 C   0  0  0  0  0  2  0  0  0  0  0  0
  189.4010  177.9240  136.8480 N   0  0  0  0  0  2  0  0  0  0  0  0
  189.4310  177.2930  135.5650 C   0  0  0  0  0  0  0  0  0  0  0  0
  190.6770  177.0530  142.2620 C   0  0  0  0  0  3  0  0  0  0  0  0
  187.3340  178.4880  139.1040 C   0  0  2  0  0  0  0  0  0  0  0  0
  191.2840  176.7350  139.9530 C   0  0  0  0  0  0  0  0  0  0  0  0
  190.4810  175.2710  136.6000 C   0  0  2  0  0  3  0  0  0  0  0  0
  191.9230  175.1760  136.8930 N   0  0  0  0  0  0  0  0  0  0  0  0
  187.1230  178.7400  140.5350 N   0  0  0  0  0  2  0  0  0  0  0  0
  187.5950  177.4170  140.0910 C   0  0  2  0  0  3  0  0  0  0  0  0
  189.3570  177.2780  141.8700 C   0  0  0  0  0  3  0  0  0  0  0  0
  189.2830  173.5530  135.1160 C   0  0  0  0  0  2  0  0  0  0  0  0
  188.2330  174.5420  134.6130 C   0  0  0  0  0  2  0  0  0  0  0  0
  188.5180  173.8780  137.4960 C   0  0  2  0  0  3  0  0  0  0  0  0
  187.2530  174.4540  136.9040 C   0  0  0  0  0  3  0  0  0  0  0  0
  187.1090  174.7140  135.5970 C   0  0  0  0  0  3  0  0  0  0  0  0
  189.7230  173.9180  136.5400 C   0  0  2  0  0  3  0  0  0  0  0  0
  188.2630  172.4540  137.9490 C   0  0  0  0  0  1  0  0  0  0  0  0
  185.8740  177.8090  137.0460 C   0  0  0  0  0  2  0  0  0  0  0  0
  185.9860  178.4830  138.3640 C   0  0  2  0  0  0  0  0  0  0  0  0
  186.0840  179.1990  137.1540 O   0  0  0  0  0  0  0  0  0  0  0  0
  183.3740  178.3040  138.5480 C   0  0  2  0  0  0  0  0  0  0  0  0
  183.1920  180.4610  139.0510 C   0  0  0  0  0  2  0  0  0  0  0  0
  182.6290  179.4460  138.2600 O   0  0  0  0  0  0  0  0  0  0  0  0
  184.6880  178.8200  139.1340 C   0  0  2  0  0  3  0  0  0  0  0  0
  184.5430  180.1980  139.3110 O   0  0  0  0  0  0  0  0  0  0  0  0
  183.5290  177.5030  137.2550 C   0  0  0  0  0  1  0  0  0  0  0  0
  182.6190  177.4710  139.6080 C   0  0  2  0  0  3  0  0  0  0  0  0
  182.8470  177.9360  141.0160 C   0  0  0  0  0  0  0  0  0  0  0  0
  182.0200  178.6990  141.5820 O   0  0  0  0  0  0  0  0  0  0  0  0
  183.9720  177.5080  141.7070 O   0  0  0  0  0  1  0  0  0  0  0  0
  182.9210  176.1070  139.4900 O   0  0  0  0  0  0  0  0  0  0  0  0
  180.5640  176.4640  139.6040 C   0  0  0  0  0  1  0  0  0  0  0  0
  181.6860  175.4660  139.3560 C   0  0  1  0  0  3  0  0  0  0  0  0
  180.4790  173.9630  137.9060 O   0  0  0  0  0  1  0  0  0  0  0  0
  181.5800  174.8180  137.9760 C   0  0  2  0  0  3  0  0  0  0  0  0
  182.8480  174.0610  137.6280 C   0  0  0  0  0  1  0  0  0  0  0  0
  192.5450  174.0210  136.2510 C   0  0  0  0  0  2  0  0  0  0  0  0
  194.5340  175.4590  135.7680 C   0  0  0  0  0  3  0  0  0  0  0  0
  196.7890  174.5780  135.9340 C   0  0  0  0  0  0  0  0  0  0  0  0
  194.8860  173.1610  136.4480 C   0  0  0  0  0  3  0  0  0  0  0  0
  196.2680  173.3410  136.3410 C   0  0  0  0  0  3  0  0  0  0  0  0
  195.9150  175.6400  135.6610 C   0  0  0  0  0  3  0  0  0  0  0  0
  194.0180  174.2210  136.1650 C   0  0  0  0  0  0  0  0  0  0  0  0
  198.2720  174.7800  135.8660 C   0  0  1  0  0  3  0  0  0  0  0  0
  198.9020  174.4180  137.1340 C   0  0  0  0  0  2  0  0  0  0  0  0
  198.9620  173.4870  136.0030 N   0  0  0  0  0  2  0  0  0  0  0  0
  1 14  1  0  0  0  0
  2  9  1  0  0  0  0
  3 11  2  0  0  0  0
  4 11  1  0  0  0  0
  5 12  1  0  0  0  0
  6 19  1  0  0  0  0
  7  1  1  0  0  0  0
  8 14  1  0  0  0  0
  8  6  2  0  0  0  0
 10  2  1  0  0  0  0
 11 10  1  0  0  0  0
 13  9  1  6  0  0  0
 13 18  1  0  0  0  0
 13 17  1  0  0  0  0
 14  5  2  0  0  0  0
 15  4  1  6  0  0  0
 15 16  1  0  0  0  0
 16  7  1  0  0  0  0
 18  6  1  1  0  0  0
 18 17  1  0  0  0  0
 19 12  2  0  0  0  0
 21 20  1  0  0  0  0
 21 24  1  0  0  0  0
 22 26  1  6  0  0  0
 23 22  1  0  0  0  0
 24 23  2  0  0  0  0
 25 20  1  6  0  0  0
 25 15  1  0  0  0  0
 25 22  1  0  0  0  0
 27 29  1  0  0  0  0
 28 27  1  6  0  0  0
 28 13  1  0  0  0  0
 28 33  1  0  0  0  0
 29 28  1  0  0  0  0
 30 35  1  6  0  0  0
 30 33  1  0  0  0  0
 30 36  1  0  0  0  0
 31 34  1  0  0  0  0
 32 30  1  0  0  0  0
 32 31  1  0  0  0  0
 33 34  1  6  0  0  0
 36 40  1  1  0  0  0
 36 37  1  0  0  0  0
 37 38  2  0  0  0  0
 37 39  1  0  0  0  0
 42 40  1  0  0  0  0
 42 41  1  6  0  0  0
 43 44  1  0  0  0  0
 44 45  1  1  0  0  0
 44 42  1  0  0  0  0
 46 16  1  0  0  0  0
 47 52  1  0  0  0  0
 48 50  2  0  0  0  0
 50 49  1  0  0  0  0
 51 47  2  0  0  0  0
 51 48  1  0  0  0  0
 52 46  1  0  0  0  0
 52 49  2  0  0  0  0
 53 48  1  1  0  0  0
 53 55  1  0  0  0  0
 53 54  1  0  0  0  0
 55 54  1  0  0  0  0
M  END
>  <MODEL>
3

>  <REMARK>
 VINA RESULT:      -3.0      1.339      2.661
  Name = 
  11 active torsions:
  status: ('A' for Active; 'I' for Inactive)
    1  A    between atoms: C_1  and  C_53
    2  A    between atoms: C_6  and  C_53
    3  A    between atoms: C_8  and  C_20
    4  A    between atoms: C_8  and  C_43
    5  A    between atoms: C_10  and  C_32
    6  A    between atoms: C_11  and  C_29
    7  A    between atoms: C_11  and  O_38
    8  A    between atoms: C_26  and  C_45
    9  A    between atoms: C_33  and  N_49
   10  A    between atoms: C_33  and  C_52
   11  A    between atoms: O_38  and  C_53
                            x       y       z     vdW  Elec       q    Type
                         _______ _______ _______ _____ _____    ______ ____

>  <TORSDO>
F 11

$$$$
=
 OpenBabel10262420373D

 55 62  0  0  1  0  0  0  0  0999 V2000
  192.3140  176.9140  137.8900 C   0  0  0  0  0  2  0  0  0  0  0  0
  188.2240  179.5090  137.2580 C   0  0  0  0  0  2  0  0  0  0  0  0
  187.9240  178.5640  134.5940 O   0  0  0  0  0  0  0  0  0  0  0  0
  189.6680  176.9530  134.7110 C   0  0  0  0  0  2  0  0  0  0  0  0
  192.0990  176.7560  140.3710 C   0  0  0  0  0  3  0  0  0  0  0  0
  189.3460  177.0630  140.1570 C   0  0  0  0  0  0  0  0  0  0  0  0
  192.1080  175.6340  137.1020 C   0  0  0  0  0  2  0  0  0  0  0  0
  190.1310  177.0350  139.0450 N   0  0  0  0  0  0  0  0  0  0  0  0
  188.2740  179.4350  138.7780 C   0  0  0  0  0  2  0  0  0  0  0  0
  188.9620  178.3990  136.6780 N   0  0  0  0  0  2  0  0  0  0  0  0
  188.7890  178.0010  135.3150 C   0  0  0  0  0  0  0  0  0  0  0  0
  191.3120  176.7570  141.5230 C   0  0  0  0  0  3  0  0  0  0  0  0
  187.3330  178.3560  139.3270 C   0  0  2  0  0  0  0  0  0  0  0  0
  191.4840  176.9000  139.1250 C   0  0  0  0  0  0  0  0  0  0  0  0
  190.1570  175.9520  135.7540 C   0  0  2  0  0  3  0  0  0  0  0  0
  191.6300  175.9570  135.7650 N   0  0  0  0  0  0  0  0  0  0  0  0
  187.3840  178.3380  140.7950 N   0  0  0  0  0  2  0  0  0  0  0  0
  187.8530  177.1650  140.0370 C   0  0  2  0  0  3  0  0  0  0  0  0
  189.9290  176.9080  141.4200 C   0  0  0  0  0  3  0  0  0  0  0  0
  188.2850  174.5950  134.6370 C   0  0  0  0  0  2  0  0  0  0  0  0
  187.1560  175.4180  135.2530 C   0  0  0  0  0  2  0  0  0  0  0  0
  189.1060  173.9210  136.9230 C   0  0  2  0  0  3  0  0  0  0  0  0
  187.7460  174.3450  137.4260 C   0  0  0  0  0  3  0  0  0  0  0  0
  186.8500  174.9840  136.6600 C   0  0  0  0  0  3  0  0  0  0  0  0
  189.4970  174.5580  135.5780 C   0  0  2  0  0  3  0  0  0  0  0  0
  189.1560  172.4090  136.8130 C   0  0  0  0  0  1  0  0  0  0  0  0
  185.4040  177.2480  137.9550 C   0  0  0  0  0  2  0  0  0  0  0  0
  185.8710  178.3380  138.8490 C   0  0  2  0  0  0  0  0  0  0  0  0
  185.8080  178.5010  137.4510 O   0  0  0  0  0  0  0  0  0  0  0  0
  183.4710  178.5350  139.8920 C   0  0  2  0  0  0  0  0  0  0  0  0
  183.1480  180.5200  138.9460 C   0  0  0  0  0  2  0  0  0  0  0  0
  182.5260  179.2850  139.1940 O   0  0  0  0  0  0  0  0  0  0  0  0
  184.8150  179.1960  139.5830 C   0  0  2  0  0  3  0  0  0  0  0  0
  184.5400  180.3740  138.8850 O   0  0  0  0  0  0  0  0  0  0  0  0
  183.3580  177.0830  139.4270 C   0  0  0  0  0  1  0  0  0  0  0  0
  183.1710  178.6390  141.4040 C   0  0  2  0  0  3  0  0  0  0  0  0
  184.4010  178.6340  142.2650 C   0  0  0  0  0  0  0  0  0  0  0  0
  184.9590  177.5490  142.5790 O   0  0  0  0  0  0  0  0  0  0  0  0
  184.9360  179.8360  142.7050 O   0  0  0  0  0  1  0  0  0  0  0  0
  182.2830  177.6340  141.8150 O   0  0  0  0  0  0  0  0  0  0  0  0
  181.6300  179.5710  143.0470 C   0  0  0  0  0  1  0  0  0  0  0  0
  181.1730  178.3110  142.3270 C   0  0  1  0  0  3  0  0  0  0  0  0
  179.0800  179.3250  141.6840 O   0  0  0  0  0  1  0  0  0  0  0  0
  180.1860  178.6230  141.2020 C   0  0  2  0  0  3  0  0  0  0  0  0
  179.7330  177.3540  140.5050 C   0  0  0  0  0  1  0  0  0  0  0  0
  192.1970  174.9990  134.8190 C   0  0  0  0  0  2  0  0  0  0  0  0
  194.5330  175.8760  134.9910 C   0  0  0  0  0  3  0  0  0  0  0  0
  196.3820  174.4140  135.5680 C   0  0  0  0  0  0  0  0  0  0  0  0
  194.1230  173.5330  135.4490 C   0  0  0  0  0  3  0  0  0  0  0  0
  195.4860  173.3410  135.6890 C   0  0  0  0  0  3  0  0  0  0  0  0
  195.8960  175.6860  135.2310 C   0  0  0  0  0  3  0  0  0  0  0  0
  193.6450  174.8010  135.1030 C   0  0  0  0  0  0  0  0  0  0  0  0
  197.8350  174.2150  135.8710 C   0  0  1  0  0  3  0  0  0  0  0  0
  198.1330  174.5940  137.2510 C   0  0  0  0  0  2  0  0  0  0  0  0
  197.9960  173.1760  136.9030 N   0  0  0  0  0  2  0  0  0  0  0  0
  1 14  1  0  0  0  0
  2  9  1  0  0  0  0
  3 11  2  0  0  0  0
  4 11  1  0  0  0  0
  5 12  1  0  0  0  0
  6 19  1  0  0  0  0
  7  1  1  0  0  0  0
  8 14  1  0  0  0  0
  8  6  2  0  0  0  0
 10  2  1  0  0  0  0
 11 10  1  0  0  0  0
 13  9  1  6  0  0  0
 13 18  1  0  0  0  0
 13 17  1  0  0  0  0
 14  5  2  0  0  0  0
 15  4  1  6  0  0  0
 15 16  1  0  0  0  0
 16  7  1  0  0  0  0
 18  6  1  6  0  0  0
 18 17  1  0  0  0  0
 19 12  2  0  0  0  0
 20 21  1  0  0  0  0
 21 24  1  0  0  0  0
 22 26  1  6  0  0  0
 22 23  1  0  0  0  0
 24 23  2  0  0  0  0
 25 20  1  6  0  0  0
 25 15  1  0  0  0  0
 25 22  1  0  0  0  0
 28 27  1  1  0  0  0
 28 13  1  0  0  0  0
 28 33  1  0  0  0  0
 29 27  1  0  0  0  0
 29 28  1  0  0  0  0
 30 35  1  6  0  0  0
 30 36  1  0  0  0  0
 31 32  1  0  0  0  0
 32 30  1  0  0  0  0
 33 34  1  6  0  0  0
 33 30  1  0  0  0  0
 34 31  1  0  0  0  0
 36 40  1  1  0  0  0
 36 37  1  0  0  0  0
 37 38  2  0  0  0  0
 37 39  1  0  0  0  0
 40 42  1  0  0  0  0
 42 41  1  6  0  0  0
 44 45  1  1  0  0  0
 44 43  1  0  0  0  0
 44 42  1  0  0  0  0
 46 52  1  0  0  0  0
 46 16  1  0  0  0  0
 47 52  2  0  0  0  0
 47 51  1  0  0  0  0
 48 50  1  0  0  0  0
 49 50  2  0  0  0  0
 51 48  2  0  0  0  0
 52 49  1  0  0  0  0
 53 48  1  1  0  0  0
 53 55  1  0  0  0  0
 53 54  1  0  0  0  0
 55 54  1  0  0  0  0
M  END
>  <MODEL>
4

>  <REMARK>
 VINA RESULT:      -2.9      0.978      2.038
  Name = 
  11 active torsions:
  status: ('A' for Active; 'I' for Inactive)
    1  A    between atoms: C_1  and  C_53
    2  A    between atoms: C_6  and  C_53
    3  A    between atoms: C_8  and  C_20
    4  A    between atoms: C_8  and  C_43
    5  A    between atoms: C_10  and  C_32
    6  A    between atoms: C_11  and  C_29
    7  A    between atoms: C_11  and  O_38
    8  A    between atoms: C_26  and  C_45
    9  A    between atoms: C_33  and  N_49
   10  A    between atoms: C_33  and  C_52
   11  A    between atoms: O_38  and  C_53
                            x       y       z     vdW  Elec       q    Type
                         _______ _______ _______ _____ _____    ______ ____

>  <TORSDO>
F 11

$$$$
