=
 OpenBabel10262419493D

 25 28  0  0  1  0  0  0  0  0999 V2000
  187.3710  177.9030  145.5280 C   0  0  0  0  0  0  0  0  0  0  0  0
  188.7060  177.5460  145.2460 C   0  0  0  0  0  0  0  0  0  0  0  0
  187.8320  177.9210  147.9260 C   0  0  0  0  0  3  0  0  0  0  0  0
  186.3120  178.1220  144.6250 C   0  0  0  0  0  0  0  0  0  0  0  0
  184.0160  178.6260  143.1780 N   0  0  0  0  0  0  0  0  0  0  0  0
  189.1580  177.5670  147.6550 C   0  0  0  0  0  3  0  0  0  0  0  0
  185.1240  178.4600  145.2610 C   0  0  0  0  0  0  0  0  0  0  0  0
  183.9650  178.7150  144.5370 C   0  0  0  0  0  3  0  0  0  0  0  0
  190.9950  177.0240  146.0510 C   0  0  0  0  0  0  0  0  0  0  0  0
  191.8130  176.8390  146.9920 O   0  0  0  0  0  0  0  0  0  0  0  0
  189.1700  177.3110  143.8300 C   0  0  0  0  0  2  0  0  0  0  0  0
  185.1660  178.2960  142.5180 C   0  0  0  0  0  3  0  0  0  0  0  0
  186.9640  178.0820  146.8520 C   0  0  0  0  0  0  0  0  0  0  0  0
  185.3320  178.5020  146.9310 S   0  0  0  0  0  0  0  0  0  0  0  0
  191.4390  176.9000  144.6990 N   0  0  0  0  0  0  0  0  0  0  0  0
  186.3480  178.0350  143.2300 C   0  0  0  0  0  3  0  0  0  0  0  0
  190.6470  177.0450  143.6780 C   0  0  0  0  0  0  0  0  0  0  0  0
  189.5980  177.3800  146.3300 C   0  0  0  0  0  0  0  0  0  0  0  0
  191.3140  176.8710  142.0310 S   0  0  0  0  0  0  0  0  0  0  0  0
  189.7650  177.4350  141.2630 C   0  0  0  0  0  2  0  0  0  0  0  0
  189.9940  177.7810  139.8010 C   0  0  1  0  0  3  0  0  0  0  0  0
  190.2370  176.5220  138.9870 C   0  0  0  0  0  1  0  0  0  0  0  0
  188.8220  178.5290  139.2570 C   0  0  0  0  0  0  0  0  0  0  0  0
  188.9660  179.2770  138.0970 O   0  0  0  0  0  0  0  0  0  0  0  0
  187.7060  178.4880  139.8400 O   0  0  0  0  0  1  0  0  0  0  0  0
  1 13  1  0  0  0  0
  2  1  2  0  0  0  0
  2 18  1  0  0  0  0
  4  7  1  0  0  0  0
  4  1  1  0  0  0  0
  5  8  1  0  0  0  0
  6  3  1  0  0  0  0
  7 14  1  0  0  0  0
  8  7  2  0  0  0  0
  9 18  1  0  0  0  0
  9 10  2  0  0  0  0
 11  2  1  0  0  0  0
 12  5  2  0  0  0  0
 12 16  1  0  0  0  0
 13 14  1  0  0  0  0
 13  3  2  0  0  0  0
 15  9  1  0  0  0  0
 16  4  2  0  0  0  0
 17 11  1  0  0  0  0
 17 15  2  0  0  0  0
 18  6  2  0  0  0  0
 19 17  1  0  0  0  0
 20 19  1  0  0  0  0
 21 22  1  6  0  0  0
 21 20  1  0  0  0  0
 23 21  1  0  0  0  0
 23 25  1  0  0  0  0
 24 23  2  0  0  0  0
M  END
>  <MODEL>
1

>  <REMARK>
 VINA RESULT:     -10.0      0.000      0.000
  Name = 
  4 active torsions:
  status: ('A' for Active; 'I' for Inactive)
    1  A    between atoms: C_2  and  C_21
    2  A    between atoms: S_6  and  C_15
    3  A    between atoms: S_6  and  C_23
    4  A    between atoms: C_15  and  C_21
                            x       y       z     vdW  Elec       q    Type
                         _______ _______ _______ _____ _____    ______ ____

>  <TORSDO>
F 4

$$$$
=
 OpenBabel10262419493D

 25 28  0  0  1  0  0  0  0  0999 V2000
  188.0040  177.6820  145.3280 C   0  0  0  0  0  0  0  0  0  0  0  0
  187.4020  177.9940  144.0910 C   0  0  0  0  0  0  0  0  0  0  0  0
  185.8920  178.0420  146.4990 C   0  0  0  0  0  3  0  0  0  0  0  0
  189.3410  177.3230  145.5870 C   0  0  0  0  0  0  0  0  0  0  0  0
  191.8500  176.5910  146.4770 N   0  0  0  0  0  0  0  0  0  0  0  0
  185.2880  178.3520  145.2760 C   0  0  0  0  0  3  0  0  0  0  0  0
  189.5820  177.0850  146.9350 C   0  0  0  0  0  0  0  0  0  0  0  0
  190.8440  176.7160  147.3880 C   0  0  0  0  0  3  0  0  0  0  0  0
  185.3860  178.6430  142.7970 C   0  0  0  0  0  0  0  0  0  0  0  0
  184.1710  178.9750  142.7510 O   0  0  0  0  0  0  0  0  0  0  0  0
  188.2040  178.0060  142.8130 C   0  0  0  0  0  2  0  0  0  0  0  0
  191.6500  176.8180  145.1440 C   0  0  0  0  0  3  0  0  0  0  0  0
  187.2420  177.7110  146.4990 C   0  0  0  0  0  0  0  0  0  0  0  0
  188.1800  177.3040  147.8400 S   0  0  0  0  0  0  0  0  0  0  0  0
  186.1390  178.5550  141.5870 N   0  0  0  0  0  0  0  0  0  0  0  0
  190.3840  177.1900  144.6650 C   0  0  0  0  0  3  0  0  0  0  0  0
  187.4020  178.2500  141.5590 C   0  0  0  0  0  0  0  0  0  0  0  0
  186.0290  178.3310  144.0800 C   0  0  0  0  0  0  0  0  0  0  0  0
  188.2400  178.1660  139.9850 S   0  0  0  0  0  0  0  0  0  0  0  0
  189.5180  177.0500  140.6390 C   0  0  0  0  0  2  0  0  0  0  0  0
  190.8860  177.4410  140.1080 C   0  0  1  0  0  3  0  0  0  0  0  0
  191.9100  177.4560  141.2300 C   0  0  0  0  0  1  0  0  0  0  0  0
  191.3130  176.4960  139.0340 C   0  0  0  0  0  0  0  0  0  0  0  0
  192.5230  176.6990  138.3830 O   0  0  0  0  0  0  0  0  0  0  0  0
  190.5880  175.5170  138.7120 O   0  0  0  0  0  1  0  0  0  0  0  0
  1  4  1  0  0  0  0
  1 13  2  0  0  0  0
  2  1  1  0  0  0  0
  4  7  1  0  0  0  0
  5  8  1  0  0  0  0
  6  3  2  0  0  0  0
  7  8  2  0  0  0  0
  7 14  1  0  0  0  0
  9 18  1  0  0  0  0
 10  9  2  0  0  0  0
 11  2  1  0  0  0  0
 12  5  2  0  0  0  0
 13  3  1  0  0  0  0
 13 14  1  0  0  0  0
 15  9  1  0  0  0  0
 16 12  1  0  0  0  0
 16  4  2  0  0  0  0
 17 15  2  0  0  0  0
 17 11  1  0  0  0  0
 18  2  2  0  0  0  0
 18  6  1  0  0  0  0
 19 20  1  0  0  0  0
 19 17  1  0  0  0  0
 21 20  1  0  0  0  0
 21 22  1  1  0  0  0
 23 21  1  0  0  0  0
 24 23  2  0  0  0  0
 25 23  1  0  0  0  0
M  END
>  <MODEL>
2

>  <REMARK>
 VINA RESULT:      -9.5      2.566      4.735
  Name = 
  4 active torsions:
  status: ('A' for Active; 'I' for Inactive)
    1  A    between atoms: C_2  and  C_21
    2  A    between atoms: S_6  and  C_15
    3  A    between atoms: S_6  and  C_23
    4  A    between atoms: C_15  and  C_21
                            x       y       z     vdW  Elec       q    Type
                         _______ _______ _______ _____ _____    ______ ____

>  <TORSDO>
F 4

$$$$
=
 OpenBabel10262419493D

 25 28  0  0  1  0  0  0  0  0999 V2000
  189.4320  177.3930  144.2960 C   0  0  0  0  0  0  0  0  0  0  0  0
  188.4440  177.6820  145.2610 C   0  0  0  0  0  0  0  0  0  0  0  0
  191.0400  176.8290  146.0450 C   0  0  0  0  0  3  0  0  0  0  0  0
  189.3350  177.4650  142.8930 C   0  0  0  0  0  0  0  0  0  0  0  0
  189.5260  177.4830  140.1380 N   0  0  0  0  0  0  0  0  0  0  0  0
  190.0660  177.1130  147.0070 C   0  0  0  0  0  3  0  0  0  0  0  0
  190.5160  177.1060  142.2530 C   0  0  0  0  0  0  0  0  0  0  0  0
  190.6170  177.1130  140.8670 C   0  0  0  0  0  3  0  0  0  0  0  0
  187.7550  177.8190  147.6410 C   0  0  0  0  0  0  0  0  0  0  0  0
  188.0230  177.7280  148.8690 O   0  0  0  0  0  0  0  0  0  0  0  0
  187.0750  178.1700  144.8550 C   0  0  0  0  0  2  0  0  0  0  0  0
  188.3480  177.8420  140.7330 C   0  0  0  0  0  3  0  0  0  0  0  0
  190.7010  176.9750  144.7040 C   0  0  0  0  0  0  0  0  0  0  0  0
  191.7010  176.6930  143.3750 S   0  0  0  0  0  0  0  0  0  0  0  0
  186.4360  178.1860  147.2340 N   0  0  0  0  0  0  0  0  0  0  0  0
  188.2250  177.8420  142.1310 C   0  0  0  0  0  3  0  0  0  0  0  0
  186.0940  178.3310  145.9890 C   0  0  0  0  0  0  0  0  0  0  0  0
  188.7780  177.5370  146.6260 C   0  0  0  0  0  0  0  0  0  0  0  0
  184.4130  178.7900  145.5990 S   0  0  0  0  0  0  0  0  0  0  0  0
  184.8450  179.2040  143.8810 C   0  0  0  0  0  2  0  0  0  0  0  0
  183.9230  178.4810  142.9140 C   0  0  1  0  0  3  0  0  0  0  0  0
  182.4870  178.9390  143.1020 C   0  0  0  0  0  1  0  0  0  0  0  0
  184.3600  178.7200  141.5060 C   0  0  0  0  0  0  0  0  0  0  0  0
  183.7660  178.0070  140.4740 O   0  0  0  0  0  0  0  0  0  0  0  0
  185.2620  179.5610  141.2470 O   0  0  0  0  0  1  0  0  0  0  0  0
  1 13  1  0  0  0  0
  1  2  2  0  0  0  0
  2 18  1  0  0  0  0
  3  6  1  0  0  0  0
  4  1  1  0  0  0  0
  5 12  2  0  0  0  0
  5  8  1  0  0  0  0
  7  4  1  0  0  0  0
  7 14  1  0  0  0  0
  8  7  2  0  0  0  0
  9 10  2  0  0  0  0
 11  2  1  0  0  0  0
 11 17  1  0  0  0  0
 12 16  1  0  0  0  0
 13  3  2  0  0  0  0
 14 13  1  0  0  0  0
 15  9  1  0  0  0  0
 16  4  2  0  0  0  0
 17 15  2  0  0  0  0
 18  6  2  0  0  0  0
 18  9  1  0  0  0  0
 19 17  1  0  0  0  0
 20 19  1  0  0  0  0
 21 22  1  6  0  0  0
 21 20  1  0  0  0  0
 23 21  1  0  0  0  0
 24 23  2  0  0  0  0
 25 23  1  0  0  0  0
M  END
>  <MODEL>
3

>  <REMARK>
 VINA RESULT:      -9.3      2.256      5.167
  Name = 
  4 active torsions:
  status: ('A' for Active; 'I' for Inactive)
    1  A    between atoms: C_2  and  C_21
    2  A    between atoms: S_6  and  C_15
    3  A    between atoms: S_6  and  C_23
    4  A    between atoms: C_15  and  C_21
                            x       y       z     vdW  Elec       q    Type
                         _______ _______ _______ _____ _____    ______ ____

>  <TORSDO>
F 4

$$$$
=
 OpenBabel10262419493D

 25 28  0  0  1  0  0  0  0  0999 V2000
  187.8480  177.7690  145.6600 C   0  0  0  0  0  0  0  0  0  0  0  0
  187.1380  178.0600  144.4750 C   0  0  0  0  0  0  0  0  0  0  0  0
  185.8500  178.1560  147.0080 C   0  0  0  0  0  3  0  0  0  0  0  0
  189.2030  177.4100  145.8040 C   0  0  0  0  0  0  0  0  0  0  0  0
  191.7810  176.6890  146.4790 N   0  0  0  0  0  0  0  0  0  0  0  0
  185.1390  178.4450  145.8390 C   0  0  0  0  0  3  0  0  0  0  0  0
  189.5640  177.1970  147.1290 C   0  0  0  0  0  0  0  0  0  0  0  0
  190.8600  176.8330  147.4740 C   0  0  0  0  0  3  0  0  0  0  0  0
  185.0150  178.6900  143.3560 C   0  0  0  0  0  0  0  0  0  0  0  0
  183.8010  179.0250  143.4120 O   0  0  0  0  0  0  0  0  0  0  0  0
  187.8220  178.0460  143.1310 C   0  0  0  0  0  2  0  0  0  0  0  0
  191.4620  176.8910  145.1660 C   0  0  0  0  0  3  0  0  0  0  0  0
  187.1950  177.8220  146.8930 C   0  0  0  0  0  0  0  0  0  0  0  0
  188.2490  177.4370  148.1520 S   0  0  0  0  0  0  0  0  0  0  0  0
  185.6560  178.5780  142.0850 N   0  0  0  0  0  0  0  0  0  0  0  0
  190.1580  177.2580  144.7950 C   0  0  0  0  0  3  0  0  0  0  0  0
  186.9110  178.2680  141.9500 C   0  0  0  0  0  0  0  0  0  0  0  0
  185.7710  178.4000  144.5810 C   0  0  0  0  0  0  0  0  0  0  0  0
  187.6040  178.1530  140.3080 S   0  0  0  0  0  0  0  0  0  0  0  0
  189.1290  177.3770  140.9260 C   0  0  0  0  0  2  0  0  0  0  0  0
  190.0530  177.0300  139.7700 C   0  0  1  0  0  3  0  0  0  0  0  0
  189.7380  177.8900  138.5580 C   0  0  0  0  0  1  0  0  0  0  0  0
  191.4780  177.2110  140.1740 C   0  0  0  0  0  0  0  0  0  0  0  0
  192.4880  176.9740  139.2510 O   0  0  0  0  0  0  0  0  0  0  0  0
  191.7740  177.5770  141.3430 O   0  0  0  0  0  1  0  0  0  0  0  0
  1  4  1  0  0  0  0
  1 13  2  0  0  0  0
  2 18  2  0  0  0  0
  2  1  1  0  0  0  0
  4  7  1  0  0  0  0
  5  8  1  0  0  0  0
  6  3  2  0  0  0  0
  7  8  2  0  0  0  0
  7 14  1  0  0  0  0
  9 10  2  0  0  0  0
  9 18  1  0  0  0  0
 11  2  1  0  0  0  0
 12  5  2  0  0  0  0
 13  3  1  0  0  0  0
 13 14  1  0  0  0  0
 15  9  1  0  0  0  0
 16 12  1  0  0  0  0
 16  4  2  0  0  0  0
 17 15  2  0  0  0  0
 17 11  1  0  0  0  0
 18  6  1  0  0  0  0
 19 20  1  0  0  0  0
 19 17  1  0  0  0  0
 21 22  1  6  0  0  0
 21 23  1  0  0  0  0
 21 20  1  0  0  0  0
 23 25  1  0  0  0  0
 24 23  2  0  0  0  0
M  END
>  <MODEL>
4

>  <REMARK>
 VINA RESULT:      -9.2      2.242      4.718
  Name = 
  4 active torsions:
  status: ('A' for Active; 'I' for Inactive)
    1  A    between atoms: C_2  and  C_21
    2  A    between atoms: S_6  and  C_15
    3  A    between atoms: S_6  and  C_23
    4  A    between atoms: C_15  and  C_21
                            x       y       z     vdW  Elec       q    Type
                         _______ _______ _______ _____ _____    ______ ____

>  <TORSDO>
F 4

$$$$
=
 OpenBabel10262419493D

 25 28  0  0  1  0  0  0  0  0999 V2000
  187.0590  177.9230  144.5610 C   0  0  0  0  0  0  0  0  0  0  0  0
  188.2160  177.5310  143.8550 C   0  0  0  0  0  0  0  0  0  0  0  0
  188.2390  177.7370  146.6900 C   0  0  0  0  0  3  0  0  0  0  0  0
  185.7900  178.2560  144.0480 C   0  0  0  0  0  0  0  0  0  0  0  0
  183.1960  178.9690  143.4250 N   0  0  0  0  0  0  0  0  0  0  0  0
  189.3900  177.3480  145.9980 C   0  0  0  0  0  3  0  0  0  0  0  0
  184.8810  178.5960  145.0440 C   0  0  0  0  0  0  0  0  0  0  0  0
  183.5740  178.9560  144.7350 C   0  0  0  0  0  3  0  0  0  0  0  0
  190.6020  176.8480  143.8710 C   0  0  0  0  0  0  0  0  0  0  0  0
  191.6560  176.5560  144.4960 O   0  0  0  0  0  0  0  0  0  0  0  0
  188.2030  177.3840  142.3530 C   0  0  0  0  0  2  0  0  0  0  0  0
  184.0630  178.6400  142.4210 C   0  0  0  0  0  3  0  0  0  0  0  0
  187.0940  178.0180  145.9540 C   0  0  0  0  0  0  0  0  0  0  0  0
  185.5970  178.5020  146.5640 S   0  0  0  0  0  0  0  0  0  0  0  0
  190.5960  176.8080  142.4430 N   0  0  0  0  0  0  0  0  0  0  0  0
  185.3870  178.2740  142.7100 C   0  0  0  0  0  3  0  0  0  0  0  0
  189.5390  177.0660  141.7320 C   0  0  0  0  0  0  0  0  0  0  0  0
  189.3860  177.2430  144.5930 C   0  0  0  0  0  0  0  0  0  0  0  0
  189.6520  176.9890  139.9520 S   0  0  0  0  0  0  0  0  0  0  0  0
  188.3110  178.1990  139.7390 C   0  0  0  0  0  2  0  0  0  0  0  0
  187.5570  177.9330  138.4470 C   0  0  1  0  0  3  0  0  0  0  0  0
  186.0810  178.2480  138.6170 C   0  0  0  0  0  1  0  0  0  0  0  0
  188.1330  178.7470  137.3360 C   0  0  0  0  0  0  0  0  0  0  0  0
  189.0590  179.7400  137.6220 O   0  0  0  0  0  1  0  0  0  0  0  0
  187.7880  178.5400  136.1410 O   0  0  0  0  0  0  0  0  0  0  0  0
  1 13  1  0  0  0  0
  2  1  2  0  0  0  0
  2 18  1  0  0  0  0
  4  1  1  0  0  0  0
  4  7  1  0  0  0  0
  5  8  1  0  0  0  0
  6  3  1  0  0  0  0
  7 14  1  0  0  0  0
  8  7  2  0  0  0  0
  9 10  2  0  0  0  0
  9 18  1  0  0  0  0
 11  2  1  0  0  0  0
 12 16  1  0  0  0  0
 12  5  2  0  0  0  0
 13 14  1  0  0  0  0
 13  3  2  0  0  0  0
 15  9  1  0  0  0  0
 16  4  2  0  0  0  0
 17 11  1  0  0  0  0
 17 15  2  0  0  0  0
 18  6  2  0  0  0  0
 19 17  1  0  0  0  0
 20 19  1  0  0  0  0
 21 22  1  1  0  0  0
 21 20  1  0  0  0  0
 23 24  1  0  0  0  0
 23 21  1  0  0  0  0
 25 23  2  0  0  0  0
M  END
>  <MODEL>
5

>  <REMARK>
 VINA RESULT:      -9.1      1.447      2.002
  Name = 
  4 active torsions:
  status: ('A' for Active; 'I' for Inactive)
    1  A    between atoms: C_2  and  C_21
    2  A    between atoms: S_6  and  C_15
    3  A    between atoms: S_6  and  C_23
    4  A    between atoms: C_15  and  C_21
                            x       y       z     vdW  Elec       q    Type
                         _______ _______ _______ _____ _____    ______ ____

>  <TORSDO>
F 4

$$$$
=
 OpenBabel10262419493D

 25 28  0  0  1  0  0  0  0  0999 V2000
  187.9370  177.7520  145.4160 C   0  0  0  0  0  0  0  0  0  0  0  0
  186.7900  178.1370  144.6890 C   0  0  0  0  0  0  0  0  0  0  0  0
  186.7580  178.0640  147.5310 C   0  0  0  0  0  3  0  0  0  0  0  0
  189.1990  177.3680  144.9230 C   0  0  0  0  0  0  0  0  0  0  0  0
  191.7760  176.5670  144.3410 N   0  0  0  0  0  0  0  0  0  0  0  0
  185.6170  178.4470  146.8180 C   0  0  0  0  0  3  0  0  0  0  0  0
  190.0980  177.0530  145.9350 C   0  0  0  0  0  0  0  0  0  0  0  0
  191.3970  176.6500  145.6470 C   0  0  0  0  0  3  0  0  0  0  0  0
  184.4200  178.8730  144.6680 C   0  0  0  0  0  0  0  0  0  0  0  0
  183.3720  179.2180  145.2760 O   0  0  0  0  0  0  0  0  0  0  0  0
  186.8090  178.2130  143.1830 C   0  0  0  0  0  2  0  0  0  0  0  0
  190.9190  176.8690  143.3190 C   0  0  0  0  0  3  0  0  0  0  0  0
  187.8970  177.7230  146.8120 C   0  0  0  0  0  0  0  0  0  0  0  0
  189.3820  177.2350  147.4470 S   0  0  0  0  0  0  0  0  0  0  0  0
  184.4280  178.8460  143.2390 N   0  0  0  0  0  0  0  0  0  0  0  0
  189.6030  177.2780  143.5880 C   0  0  0  0  0  3  0  0  0  0  0  0
  185.4810  178.5320  142.5440 C   0  0  0  0  0  0  0  0  0  0  0  0
  185.6260  178.4850  145.4110 C   0  0  0  0  0  0  0  0  0  0  0  0
  185.3720  178.5290  140.7610 S   0  0  0  0  0  0  0  0  0  0  0  0
  187.1820  178.5290  140.5770 C   0  0  0  0  0  2  0  0  0  0  0  0
  187.5780  177.9200  139.2420 C   0  0  1  0  0  3  0  0  0  0  0  0
  186.5130  178.1920  138.1940 C   0  0  0  0  0  1  0  0  0  0  0  0
  188.8940  178.4660  138.7950 C   0  0  0  0  0  0  0  0  0  0  0  0
  190.0670  177.9440  139.3220 O   0  0  0  0  0  1  0  0  0  0  0  0
  188.9490  179.3940  137.9440 O   0  0  0  0  0  0  0  0  0  0  0  0
  1 13  2  0  0  0  0
  2 18  2  0  0  0  0
  2  1  1  0  0  0  0
  4  1  1  0  0  0  0
  4  7  1  0  0  0  0
  5  8  1  0  0  0  0
  6  3  2  0  0  0  0
  7 14  1  0  0  0  0
  8  7  2  0  0  0  0
  9 10  2  0  0  0  0
  9 18  1  0  0  0  0
 11  2  1  0  0  0  0
 12 16  1  0  0  0  0
 12  5  2  0  0  0  0
 13 14  1  0  0  0  0
 13  3  1  0  0  0  0
 15  9  1  0  0  0  0
 16  4  2  0  0  0  0
 17 11  1  0  0  0  0
 17 15  2  0  0  0  0
 18  6  1  0  0  0  0
 19 17  1  0  0  0  0
 20 19  1  0  0  0  0
 21 22  1  6  0  0  0
 21 20  1  0  0  0  0
 23 21  1  0  0  0  0
 23 24  1  0  0  0  0
 25 23  2  0  0  0  0
M  END
>  <MODEL>
6

>  <REMARK>
 VINA RESULT:      -9.0      2.388      4.773
  Name = 
  4 active torsions:
  status: ('A' for Active; 'I' for Inactive)
    1  A    between atoms: C_2  and  C_21
    2  A    between atoms: S_6  and  C_15
    3  A    between atoms: S_6  and  C_23
    4  A    between atoms: C_15  and  C_21
                            x       y       z     vdW  Elec       q    Type
                         _______ _______ _______ _____ _____    ______ ____

>  <TORSDO>
F 4

$$$$
=
 OpenBabel10262419493D

 25 28  0  0  1  0  0  0  0  0999 V2000
  189.5290  177.4530  143.9490 C   0  0  0  0  0  0  0  0  0  0  0  0
  188.8200  177.7710  142.7720 C   0  0  0  0  0  0  0  0  0  0  0  0
  191.5890  177.1320  142.6790 C   0  0  0  0  0  3  0  0  0  0  0  0
  189.0490  177.3940  145.2730 C   0  0  0  0  0  0  0  0  0  0  0  0
  188.4830  177.1810  147.9660 N   0  0  0  0  0  0  0  0  0  0  0  0
  190.8940  177.4460  141.5060 C   0  0  0  0  0  3  0  0  0  0  0  0
  190.0360  177.0440  146.1870 C   0  0  0  0  0  0  0  0  0  0  0  0
  189.7560  176.9350  147.5440 C   0  0  0  0  0  3  0  0  0  0  0  0
  188.8020  178.1080  140.3120 C   0  0  0  0  0  0  0  0  0  0  0  0
  189.3860  178.0850  139.1970 O   0  0  0  0  0  0  0  0  0  0  0  0
  187.3430  178.0770  142.8070 C   0  0  0  0  0  2  0  0  0  0  0  0
  187.4880  177.5280  147.0960 C   0  0  0  0  0  3  0  0  0  0  0  0
  190.8890  177.1420  143.8800 C   0  0  0  0  0  0  0  0  0  0  0  0
  191.5090  176.7980  145.4110 S   0  0  0  0  0  0  0  0  0  0  0  0
  187.4260  178.4880  140.3790 N   0  0  0  0  0  0  0  0  0  0  0  0
  187.7490  177.6430  145.7210 C   0  0  0  0  0  3  0  0  0  0  0  0
  186.7490  178.5060  141.4890 C   0  0  0  0  0  0  0  0  0  0  0  0
  189.5220  177.7640  141.5450 C   0  0  0  0  0  0  0  0  0  0  0  0
  185.0350  179.0030  141.4500 S   0  0  0  0  0  0  0  0  0  0  0  0
  184.7070  178.2630  143.0790 C   0  0  0  0  0  2  0  0  0  0  0  0
  183.9110  179.2230  143.9470 C   0  0  1  0  0  3  0  0  0  0  0  0
  182.4510  178.8080  144.0030 C   0  0  0  0  0  1  0  0  0  0  0  0
  184.4860  179.2730  145.3240 C   0  0  0  0  0  0  0  0  0  0  0  0
  183.9540  178.4630  146.3180 O   0  0  0  0  0  1  0  0  0  0  0  0
  185.4480  180.0420  145.5930 O   0  0  0  0  0  0  0  0  0  0  0  0
  1  4  1  0  0  0  0
  2 11  1  0  0  0  0
  2  1  1  0  0  0  0
  3 13  1  0  0  0  0
  4 16  2  0  0  0  0
  4  7  1  0  0  0  0
  6 18  1  0  0  0  0
  6  3  2  0  0  0  0
  7  8  2  0  0  0  0
  8  5  1  0  0  0  0
  9 15  1  0  0  0  0
  9 18  1  0  0  0  0
 10  9  2  0  0  0  0
 12  5  2  0  0  0  0
 13  1  2  0  0  0  0
 13 14  1  0  0  0  0
 14  7  1  0  0  0  0
 15 17  2  0  0  0  0
 16 12  1  0  0  0  0
 17 11  1  0  0  0  0
 18  2  2  0  0  0  0
 19 17  1  0  0  0  0
 19 20  1  0  0  0  0
 20 21  1  0  0  0  0
 21 22  1  1  0  0  0
 21 23  1  0  0  0  0
 23 25  2  0  0  0  0
 23 24  1  0  0  0  0
M  END
>  <MODEL>
7

>  <REMARK>
 VINA RESULT:      -9.0      2.816      6.107
  Name = 
  4 active torsions:
  status: ('A' for Active; 'I' for Inactive)
    1  A    between atoms: C_2  and  C_21
    2  A    between atoms: S_6  and  C_15
    3  A    between atoms: S_6  and  C_23
    4  A    between atoms: C_15  and  C_21
                            x       y       z     vdW  Elec       q    Type
                         _______ _______ _______ _____ _____    ______ ____

>  <TORSDO>
F 4

$$$$
=
 OpenBabel10262419493D

 25 28  0  0  1  0  0  0  0  0999 V2000
  186.1030  178.3240  144.4600 C   0  0  0  0  0  0  0  0  0  0  0  0
  186.0800  178.4600  143.0550 C   0  0  0  0  0  0  0  0  0  0  0  0
  183.7450  178.9380  144.6050 C   0  0  0  0  0  3  0  0  0  0  0  0
  187.1840  177.9610  145.2870 C   0  0  0  0  0  0  0  0  0  0  0  0
  189.0440  177.2880  147.2130 N   0  0  0  0  0  0  0  0  0  0  0  0
  183.7130  179.0750  143.2140 C   0  0  0  0  0  3  0  0  0  0  0  0
  186.8420  177.9290  146.6340 C   0  0  0  0  0  0  0  0  0  0  0  0
  187.7750  177.5910  147.6070 C   0  0  0  0  0  3  0  0  0  0  0  0
  184.8220  178.9700  140.9780 C   0  0  0  0  0  0  0  0  0  0  0  0
  183.7660  179.3340  140.3950 O   0  0  0  0  0  0  0  0  0  0  0  0
  187.3230  178.2420  142.2280 C   0  0  0  0  0  2  0  0  0  0  0  0
  189.4160  177.3100  145.8980 C   0  0  0  0  0  3  0  0  0  0  0  0
  184.9440  178.5630  145.2010 C   0  0  0  0  0  0  0  0  0  0  0  0
  185.2240  178.3380  146.8490 S   0  0  0  0  0  0  0  0  0  0  0  0
  185.9840  178.6660  140.2040 N   0  0  0  0  0  0  0  0  0  0  0  0
  188.4900  177.6480  144.8990 C   0  0  0  0  0  3  0  0  0  0  0  0
  187.1170  178.3150  140.7360 C   0  0  0  0  0  0  0  0  0  0  0  0
  184.8660  178.8400  142.4400 C   0  0  0  0  0  0  0  0  0  0  0  0
  188.5020  177.9560  139.6680 S   0  0  0  0  0  0  0  0  0  0  0  0
  189.6900  178.0920  141.0390 C   0  0  0  0  0  2  0  0  0  0  0  0
  190.6900  176.9490  140.9890 C   0  0  1  0  0  3  0  0  0  0  0  0
  192.0130  177.4230  140.4130 C   0  0  0  0  0  1  0  0  0  0  0  0
  190.8950  176.3810  142.3540 C   0  0  0  0  0  0  0  0  0  0  0  0
  190.0860  175.3410  142.7930 O   0  0  0  0  0  0  0  0  0  0  0  0
  191.7940  176.8350  143.1110 O   0  0  0  0  0  1  0  0  0  0  0  0
  1 13  2  0  0  0  0
  1  4  1  0  0  0  0
  2  1  1  0  0  0  0
  3 13  1  0  0  0  0
  4  7  1  0  0  0  0
  5  8  1  0  0  0  0
  6  3  2  0  0  0  0
  7 14  1  0  0  0  0
  7  8  2  0  0  0  0
  9 18  1  0  0  0  0
 10  9  2  0  0  0  0
 11  2  1  0  0  0  0
 12  5  2  0  0  0  0
 13 14  1  0  0  0  0
 15 17  2  0  0  0  0
 15  9  1  0  0  0  0
 16  4  2  0  0  0  0
 16 12  1  0  0  0  0
 17 11  1  0  0  0  0
 18  2  2  0  0  0  0
 18  6  1  0  0  0  0
 19 17  1  0  0  0  0
 19 20  1  0  0  0  0
 21 22  1  1  0  0  0
 21 20  1  0  0  0  0
 21 23  1  0  0  0  0
 23 24  2  0  0  0  0
 23 25  1  0  0  0  0
M  END
>  <MODEL>
8

>  <REMARK>
 VINA RESULT:      -9.0      2.232      5.026
  Name = 
  4 active torsions:
  status: ('A' for Active; 'I' for Inactive)
    1  A    between atoms: C_2  and  C_21
    2  A    between atoms: S_6  and  C_15
    3  A    between atoms: S_6  and  C_23
    4  A    between atoms: C_15  and  C_21
                            x       y       z     vdW  Elec       q    Type
                         _______ _______ _______ _____ _____    ______ ____

>  <TORSDO>
F 4

$$$$
=
 OpenBabel10262419493D

 25 28  0  0  1  0  0  0  0  0999 V2000
  187.9860  177.7690  145.0310 C   0  0  0  0  0  0  0  0  0  0  0  0
  188.6930  177.6290  143.8180 C   0  0  0  0  0  0  0  0  0  0  0  0
  189.9830  177.2010  146.3150 C   0  0  0  0  0  3  0  0  0  0  0  0
  186.6330  178.1140  145.2220 C   0  0  0  0  0  0  0  0  0  0  0  0
  184.0600  178.7580  145.9890 N   0  0  0  0  0  0  0  0  0  0  0  0
  190.6910  177.0600  145.1170 C   0  0  0  0  0  3  0  0  0  0  0  0
  186.2750  178.1580  146.5640 C   0  0  0  0  0  0  0  0  0  0  0  0
  184.9810  178.4820  146.9550 C   0  0  0  0  0  3  0  0  0  0  0  0
  190.8120  177.1360  142.6230 C   0  0  0  0  0  0  0  0  0  0  0  0
  192.0230  176.7890  142.6340 O   0  0  0  0  0  0  0  0  0  0  0  0
  188.0080  177.8200  142.4870 C   0  0  0  0  0  2  0  0  0  0  0  0
  184.3770  178.7250  144.6590 C   0  0  0  0  0  3  0  0  0  0  0  0
  188.6400  177.5550  146.2450 C   0  0  0  0  0  0  0  0  0  0  0  0
  187.5890  177.7800  147.5460 S   0  0  0  0  0  0  0  0  0  0  0  0
  190.1700  177.4140  141.3780 N   0  0  0  0  0  0  0  0  0  0  0  0
  185.6780  178.4010  144.2430 C   0  0  0  0  0  3  0  0  0  0  0  0
  188.9160  177.7460  141.2860 C   0  0  0  0  0  0  0  0  0  0  0  0
  190.0590  177.2700  143.8760 C   0  0  0  0  0  0  0  0  0  0  0  0
  188.2230  178.0750  139.6740 S   0  0  0  0  0  0  0  0  0  0  0  0
  189.8340  177.8670  138.8560 C   0  0  0  0  0  2  0  0  0  0  0  0
  189.8170  176.6430  137.9550 C   0  0  1  0  0  3  0  0  0  0  0  0
  189.7140  177.0550  136.4970 C   0  0  0  0  0  1  0  0  0  0  0  0
  191.0460  175.8230  138.1740 C   0  0  0  0  0  0  0  0  0  0  0  0
  190.9990  174.4510  137.9690 O   0  0  0  0  0  0  0  0  0  0  0  0
  192.1230  176.3640  138.5420 O   0  0  0  0  0  1  0  0  0  0  0  0
  1  4  1  0  0  0  0
  1 13  2  0  0  0  0
  2 18  2  0  0  0  0
  2  1  1  0  0  0  0
  4  7  1  0  0  0  0
  5  8  1  0  0  0  0
  6  3  2  0  0  0  0
  7  8  2  0  0  0  0
  7 14  1  0  0  0  0
  9 10  2  0  0  0  0
  9 18  1  0  0  0  0
 11  2  1  0  0  0  0
 12  5  2  0  0  0  0
 13  3  1  0  0  0  0
 13 14  1  0  0  0  0
 15  9  1  0  0  0  0
 16 12  1  0  0  0  0
 16  4  2  0  0  0  0
 17 15  2  0  0  0  0
 17 11  1  0  0  0  0
 18  6  1  0  0  0  0
 19 17  1  0  0  0  0
 20 19  1  0  0  0  0
 21 22  1  6  0  0  0
 21 23  1  0  0  0  0
 21 20  1  0  0  0  0
 23 25  1  0  0  0  0
 24 23  2  0  0  0  0
M  END
>  <MODEL>
9

>  <REMARK>
 VINA RESULT:      -8.9      2.305      2.950
  Name = 
  4 active torsions:
  status: ('A' for Active; 'I' for Inactive)
    1  A    between atoms: C_2  and  C_21
    2  A    between atoms: S_6  and  C_15
    3  A    between atoms: S_6  and  C_23
    4  A    between atoms: C_15  and  C_21
                            x       y       z     vdW  Elec       q    Type
                         _______ _______ _______ _____ _____    ______ ____

>  <TORSDO>
F 4

$$$$
