=
 OpenBabel10262422093D

 43 49  0  0  1  0  0  0  0  0999 V2000
  191.0520  176.1600  146.9010 N   0  0  0  0  0  0  0  0  0  0  0  0
  189.0300  177.5670  142.5120 C   0  0  0  0  0  0  0  0  0  0  0  0
  186.2860  177.8370  142.7650 C   0  0  2  0  0  3  0  0  0  0  0  0
  190.7500  176.9270  144.5990 C   0  0  0  0  0  0  0  0  0  0  0  0
  190.0510  177.1410  147.3100 C   0  0  0  0  0  2  0  0  0  0  0  0
  192.0480  176.1140  147.9560 C   0  0  0  0  0  1  0  0  0  0  0  0
  189.4050  177.2320  144.8860 C   0  0  0  0  0  0  0  0  0  0  0  0
  191.7290  176.6680  145.7080 C   0  0  0  0  0  2  0  0  0  0  0  0
  188.9010  177.1510  146.3050 C   0  0  0  0  0  2  0  0  0  0  0  0
  187.0770  177.8440  144.0820 C   0  0  0  0  0  2  0  0  0  0  0  0
  188.5280  177.5240  143.8280 C   0  0  0  0  0  0  0  0  0  0  0  0
  190.3350  177.2620  142.2720 N   0  0  0  0  0  0  0  0  0  0  0  0
  188.0690  177.8160  141.3710 C   0  0  1  0  0  3  0  0  0  0  0  0
  186.9730  178.5940  141.8000 O   0  0  0  0  0  0  0  0  0  0  0  0
  191.1960  176.9590  143.2780 C   0  0  0  0  0  3  0  0  0  0  0  0
  184.8760  178.3870  142.9430 C   0  0  1  0  0  3  0  0  0  0  0  0
  184.7510  179.1370  144.2600 C   0  0  0  0  0  1  0  0  0  0  0  0
  184.5280  179.2350  141.8500 O   0  0  0  0  0  0  0  0  0  0  0  0
  184.0290  178.7630  140.6280 C   0  0  0  0  0  0  0  0  0  0  0  0
  184.4340  179.2740  139.4670 C   0  0  0  0  0  2  0  0  0  0  0  0
  183.0470  177.6350  140.6190 C   0  0  2  0  0  3  0  0  0  0  0  0
  182.6200  177.3330  139.1950 C   0  0  2  0  0  3  0  0  0  0  0  0
  180.6760  176.0150  139.5960 O   0  0  0  0  0  0  0  0  0  0  0  0
  181.7020  178.1030  140.0950 C   0  0  1  0  0  3  0  0  0  0  0  0
  182.0000  175.9540  139.1330 C   0  0  1  0  0  3  0  0  0  0  0  0
  180.6290  177.1080  140.4750 C   0  0  0  0  0  2  0  0  0  0  0  0
  182.0390  175.4310  137.7690 N   0  0  0  0  0  0  0  0  0  0  0  0
  181.3260  176.1480  136.7160 C   0  0  0  0  0  1  0  0  0  0  0  0
  182.8150  174.2570  137.4600 C   0  0  0  0  0  0  0  0  0  0  0  0
  182.9760  172.0180  136.5160 C   0  0  0  0  0  3  0  0  0  0  0  0
  184.9300  173.0510  137.4990 C   0  0  0  0  0  3  0  0  0  0  0  0
  184.3300  171.9650  136.8580 C   0  0  0  0  0  3  0  0  0  0  0  0
  184.1770  174.1890  137.7980 C   0  0  0  0  0  3  0  0  0  0  0  0
  182.2240  173.1570  136.8150 C   0  0  0  0  0  3  0  0  0  0  0  0
  188.7640  178.5200  140.2100 C   0  0  0  0  0  2  0  0  0  0  0  0
  187.3040  176.9810  137.0720 C   0  0  0  0  0  3  0  0  0  0  0  0
  188.3710  176.1940  136.6300 C   0  0  0  0  0  0  0  0  0  0  0  0
  189.7000  176.9330  138.5140 C   0  0  0  0  0  3  0  0  0  0  0  0
  187.4350  177.7450  138.2360 C   0  0  0  0  0  3  0  0  0  0  0  0
  188.6340  177.7250  138.9560 C   0  0  0  0  0  0  0  0  0  0  0  0
  189.5690  176.1690  137.3500 C   0  0  0  0  0  3  0  0  0  0  0  0
  186.7100  174.9360  135.0970 O   0  0  0  0  0  0  0  0  0  0  0  0
  188.2040  175.2240  135.1570 S   0  0  0  0  0  3  0  0  0  0  0  0
  1  5  1  0  0  0  0
  1  6  1  0  0  0  0
  2 11  1  0  0  0  0
  3 16  1  1  0  0  0
  3 10  1  0  0  0  0
  4  7  1  0  0  0  0
  4  8  1  0  0  0  0
  7  9  1  0  0  0  0
  8  1  1  0  0  0  0
  9  5  1  0  0  0  0
 11 10  1  0  0  0  0
 11  7  2  0  0  0  0
 12  2  2  0  0  0  0
 12 15  1  0  0  0  0
 13 35  1  6  0  0  0
 13 14  1  0  0  0  0
 13  2  1  0  0  0  0
 14  3  1  0  0  0  0
 15  4  2  0  0  0  0
 16 17  1  1  0  0  0
 18 16  1  0  0  0  0
 19 18  1  0  0  0  0
 20 19  2  0  0  0  0
 21 19  1  6  0  0  0
 22 24  1  0  0  0  0
 22 21  1  0  0  0  0
 23 26  1  0  0  0  0
 24 26  1  0  0  0  0
 24 21  1  0  0  0  0
 25 22  1  0  0  0  0
 25 23  1  0  0  0  0
 27 25  1  0  0  0  0
 28 27  1  0  0  0  0
 29 27  1  0  0  0  0
 29 33  1  0  0  0  0
 30 34  1  0  0  0  0
 30 32  2  0  0  0  0
 31 33  2  0  0  0  0
 32 31  1  0  0  0  0
 34 29  2  0  0  0  0
 36 39  1  0  0  0  0
 37 36  2  0  0  0  0
 37 41  1  0  0  0  0
 38 40  1  0  0  0  0
 39 40  2  0  0  0  0
 40 35  1  0  0  0  0
 41 38  2  0  0  0  0
 42 43  2  0  0  0  0
 43 37  1  0  0  0  0
M  END
>  <MODEL>
1

>  <REMARK>
 VINA RESULT:      -9.2      0.000      0.000
  Name = 
  9 active torsions:
  status: ('A' for Active; 'I' for Inactive)
    1  A    between atoms: C_1  and  C_34
    2  A    between atoms: C_1  and  C_35
    3  A    between atoms: C_2  and  O_6
    4  A    between atoms: C_2  and  C_13
    5  A    between atoms: C_3  and  C_12
    6  A    between atoms: O_6  and  C_12
    7  A    between atoms: C_11  and  N_14
    8  A    between atoms: N_14  and  C_22
    9  A    between atoms: C_19  and  S_37
                            x       y       z     vdW  Elec       q    Type
                         _______ _______ _______ _____ _____    ______ ____

>  <TORSDO>
F 9

$$$$
=
 OpenBabel10262422093D

 43 49  0  0  1  0  0  0  0  0999 V2000
  193.4630  175.0760  135.5170 N   0  0  0  0  0  0  0  0  0  0  0  0
  189.0330  176.8620  137.1020 C   0  0  0  0  0  0  0  0  0  0  0  0
  189.0960  177.2910  139.8360 C   0  0  2  0  0  3  0  0  0  0  0  0
  191.1980  175.9930  135.5910 C   0  0  0  0  0  0  0  0  0  0  0  0
  193.8580  176.0930  136.4880 C   0  0  0  0  0  2  0  0  0  0  0  0
  194.5850  174.9040  134.6120 C   0  0  0  0  0  1  0  0  0  0  0  0
  191.4020  176.3660  136.9350 C   0  0  0  0  0  0  0  0  0  0  0  0
  192.3590  175.6080  134.7200 C   0  0  0  0  0  2  0  0  0  0  0  0
  192.7710  176.2350  137.5530 C   0  0  0  0  0  2  0  0  0  0  0  0
  190.4660  177.1720  139.1520 C   0  0  0  0  0  2  0  0  0  0  0  0
  190.3020  176.7750  137.7070 C   0  0  0  0  0  0  0  0  0  0  0  0
  188.8730  176.4890  135.8020 N   0  0  0  0  0  0  0  0  0  0  0  0
  187.8410  177.2390  137.9530 C   0  0  1  0  0  3  0  0  0  0  0  0
  188.2350  178.0580  139.0310 O   0  0  0  0  0  0  0  0  0  0  0  0
  189.9190  176.0740  135.0420 C   0  0  0  0  0  3  0  0  0  0  0  0
  189.2030  177.9190  141.2210 C   0  0  1  0  0  3  0  0  0  0  0  0
  187.9320  178.6780  141.5690 C   0  0  0  0  0  1  0  0  0  0  0  0
  189.4730  176.9210  142.2030 O   0  0  0  0  0  0  0  0  0  0  0  0
  190.6510  176.8770  142.9620 C   0  0  0  0  0  0  0  0  0  0  0  0
  191.8190  177.2720  142.4580 C   0  0  0  0  0  2  0  0  0  0  0  0
  190.5960  176.4100  144.3810 C   0  0  2  0  0  3  0  0  0  0  0  0
  189.8980  177.4470  145.2400 C   0  0  2  0  0  3  0  0  0  0  0  0
  190.5430  176.7160  147.4140 O   0  0  0  0  0  0  0  0  0  0  0  0
  191.3920  177.3390  145.2800 C   0  0  1  0  0  3  0  0  0  0  0  0
  189.4500  176.8130  146.5390 C   0  0  1  0  0  3  0  0  0  0  0  0
  191.6820  176.6540  146.5960 C   0  0  0  0  0  2  0  0  0  0  0  0
  188.3750  177.5910  147.1500 N   0  0  0  0  0  0  0  0  0  0  0  0
  188.5450  178.0820  148.5140 C   0  0  0  0  0  1  0  0  0  0  0  0
  187.1890  177.9150  146.3980 C   0  0  0  0  0  0  0  0  0  0  0  0
  185.0080  178.9870  146.2480 C   0  0  0  0  0  3  0  0  0  0  0  0
  185.8910  177.7890  144.3410 C   0  0  0  0  0  3  0  0  0  0  0  0
  184.8750  178.5440  144.9300 C   0  0  0  0  0  3  0  0  0  0  0  0
  187.0410  177.4760  145.0720 C   0  0  0  0  0  3  0  0  0  0  0  0
  186.1580  178.6740  146.9780 C   0  0  0  0  0  3  0  0  0  0  0  0
  186.7820  177.9630  137.1280 C   0  0  0  0  0  2  0  0  0  0  0  0
  183.6070  178.3930  139.1490 C   0  0  0  0  0  3  0  0  0  0  0  0
  182.8890  177.2510  138.7790 C   0  0  0  0  0  0  0  0  0  0  0  0
  184.7040  176.5800  137.3230 C   0  0  0  0  0  3  0  0  0  0  0  0
  184.8730  178.6270  138.6050 C   0  0  0  0  0  3  0  0  0  0  0  0
  185.4210  177.7240  137.6880 C   0  0  0  0  0  0  0  0  0  0  0  0
  183.4370  176.3450  137.8660 C   0  0  0  0  0  3  0  0  0  0  0  0
  181.1150  178.0940  140.4620 O   0  0  0  0  0  0  0  0  0  0  0  0
  181.2870  176.9520  139.4700 S   0  0  0  0  0  3  0  0  0  0  0  0
  1  5  1  0  0  0  0
  2 11  1  0  0  0  0
  2 13  1  0  0  0  0
  3 16  1  1  0  0  0
  4  7  1  0  0  0  0
  5  9  1  0  0  0  0
  6  1  1  0  0  0  0
  7  9  1  0  0  0  0
  7 11  2  0  0  0  0
  8  1  1  0  0  0  0
  8  4  1  0  0  0  0
 10  3  1  0  0  0  0
 11 10  1  0  0  0  0
 12  2  2  0  0  0  0
 13 35  1  6  0  0  0
 13 14  1  0  0  0  0
 14  3  1  0  0  0  0
 15  4  2  0  0  0  0
 15 12  1  0  0  0  0
 16 17  1  1  0  0  0
 16 18  1  0  0  0  0
 18 19  1  0  0  0  0
 20 19  2  0  0  0  0
 21 19  1  6  0  0  0
 21 22  1  0  0  0  0
 21 24  1  0  0  0  0
 22 24  1  0  0  0  0
 22 25  1  0  0  0  0
 24 26  1  0  0  0  0
 25 27  1  0  0  0  0
 25 23  1  0  0  0  0
 26 23  1  0  0  0  0
 27 28  1  0  0  0  0
 29 34  1  0  0  0  0
 29 27  1  0  0  0  0
 30 34  2  0  0  0  0
 31 32  2  0  0  0  0
 31 33  1  0  0  0  0
 32 30  1  0  0  0  0
 33 29  2  0  0  0  0
 35 40  1  0  0  0  0
 37 36  1  0  0  0  0
 37 43  1  0  0  0  0
 38 40  2  0  0  0  0
 38 41  1  0  0  0  0
 39 36  2  0  0  0  0
 40 39  1  0  0  0  0
 41 37  2  0  0  0  0
 43 42  2  0  0  0  0
M  END
>  <MODEL>
2

>  <REMARK>
 VINA RESULT:      -9.2      3.061      8.713
  Name = 
  9 active torsions:
  status: ('A' for Active; 'I' for Inactive)
    1  A    between atoms: C_1  and  C_34
    2  A    between atoms: C_1  and  C_35
    3  A    between atoms: C_2  and  O_6
    4  A    between atoms: C_2  and  C_13
    5  A    between atoms: C_3  and  C_12
    6  A    between atoms: O_6  and  C_12
    7  A    between atoms: C_11  and  N_14
    8  A    between atoms: N_14  and  C_22
    9  A    between atoms: C_19  and  S_37
                            x       y       z     vdW  Elec       q    Type
                         _______ _______ _______ _____ _____    ______ ____

>  <TORSDO>
F 9

$$$$
=
 OpenBabel10262422093D

 43 49  0  0  1  0  0  0  0  0999 V2000
  191.2940  177.0960  146.9230 N   0  0  0  0  0  0  0  0  0  0  0  0
  187.5120  177.8890  143.7000 C   0  0  0  0  0  0  0  0  0  0  0  0
  188.5020  178.3590  141.1570 C   0  0  2  0  0  3  0  0  0  0  0  0
  189.0750  177.2660  145.9110 C   0  0  0  0  0  0  0  0  0  0  0  0
  191.7310  176.3700  145.7340 C   0  0  0  0  0  2  0  0  0  0  0  0
  191.9790  176.4960  148.0530 C   0  0  0  0  0  1  0  0  0  0  0  0
  189.6680  177.2870  144.6330 C   0  0  0  0  0  0  0  0  0  0  0  0
  189.8670  176.8430  147.1150 C   0  0  0  0  0  2  0  0  0  0  0  0
  191.1470  177.0320  144.4860 C   0  0  0  0  0  2  0  0  0  0  0  0
  189.4760  177.6830  142.1330 C   0  0  0  0  0  2  0  0  0  0  0  0
  188.8850  177.6330  143.5190 C   0  0  0  0  0  0  0  0  0  0  0  0
  186.9730  177.8640  144.9500 N   0  0  0  0  0  0  0  0  0  0  0  0
  186.6870  178.3260  142.5090 C   0  0  1  0  0  3  0  0  0  0  0  0
  187.2200  177.8030  141.3120 O   0  0  0  0  0  0  0  0  0  0  0  0
  187.7160  177.5490  146.0430 C   0  0  0  0  0  3  0  0  0  0  0  0
  188.9550  178.2150  139.7090 C   0  0  1  0  0  3  0  0  0  0  0  0
  189.7880  176.9570  139.5260 C   0  0  0  0  0  1  0  0  0  0  0  0
  187.8300  178.2010  138.8320 O   0  0  0  0  0  0  0  0  0  0  0  0
  187.9030  178.5170  137.4680 C   0  0  0  0  0  0  0  0  0  0  0  0
  188.8770  179.2850  136.9830 C   0  0  0  0  0  2  0  0  0  0  0  0
  186.8880  177.9540  136.5260 C   0  0  2  0  0  3  0  0  0  0  0  0
  186.3430  176.6480  137.0730 C   0  0  2  0  0  3  0  0  0  0  0  0
  185.3100  175.7560  135.1200 O   0  0  0  0  0  0  0  0  0  0  0  0
  187.3580  176.6210  135.9700 C   0  0  1  0  0  3  0  0  0  0  0  0
  185.0410  176.3110  136.3810 C   0  0  1  0  0  3  0  0  0  0  0  0
  186.5590  176.2700  134.7360 C   0  0  0  0  0  2  0  0  0  0  0  0
  184.2520  175.3830  137.1880 N   0  0  0  0  0  0  0  0  0  0  0  0
  184.7870  174.0530  137.4630 C   0  0  0  0  0  1  0  0  0  0  0  0
  182.9900  175.7950  137.7490 C   0  0  0  0  0  0  0  0  0  0  0  0
  181.4990  176.0170  139.6620 C   0  0  0  0  0  3  0  0  0  0  0  0
  180.7780  176.7770  137.4820 C   0  0  0  0  0  3  0  0  0  0  0  0
  180.5260  176.5960  138.8440 C   0  0  0  0  0  3  0  0  0  0  0  0
  182.0020  176.3780  136.9390 C   0  0  0  0  0  3  0  0  0  0  0  0
  182.7230  175.6180  139.1180 C   0  0  0  0  0  3  0  0  0  0  0  0
  185.2350  177.8810  142.6520 C   0  0  0  0  0  2  0  0  0  0  0  0
  182.2210  179.1990  140.7750 C   0  0  0  0  0  3  0  0  0  0  0  0
  182.7950  179.5590  139.5520 C   0  0  0  0  0  0  0  0  0  0  0  0
  184.9620  178.8380  140.3540 C   0  0  0  0  0  3  0  0  0  0  0  0
  183.0180  178.6580  141.7880 C   0  0  0  0  0  3  0  0  0  0  0  0
  184.3910  178.4810  141.5800 C   0  0  0  0  0  0  0  0  0  0  0  0
  184.1650  179.3790  139.3410 C   0  0  0  0  0  3  0  0  0  0  0  0
  181.4960  181.6530  138.7630 O   0  0  0  0  0  0  0  0  0  0  0  0
  181.7840  180.2420  138.2680 S   0  0  0  0  0  3  0  0  0  0  0  0
  1  8  1  0  0  0  0
  1  6  1  0  0  0  0
  2 12  1  0  0  0  0
  3 16  1  6  0  0  0
  3 14  1  0  0  0  0
  3 10  1  0  0  0  0
  4 15  1  0  0  0  0
  4  8  1  0  0  0  0
  5  1  1  0  0  0  0
  7  4  2  0  0  0  0
  9  7  1  0  0  0  0
  9  5  1  0  0  0  0
 10 11  1  0  0  0  0
 11  2  2  0  0  0  0
 11  7  1  0  0  0  0
 12 15  2  0  0  0  0
 13 35  1  1  0  0  0
 13  2  1  0  0  0  0
 14 13  1  0  0  0  0
 16 17  1  1  0  0  0
 18 16  1  0  0  0  0
 19 18  1  0  0  0  0
 20 19  2  0  0  0  0
 21 22  1  0  0  0  0
 21 19  1  1  0  0  0
 23 25  1  0  0  0  0
 24 21  1  0  0  0  0
 24 22  1  0  0  0  0
 25 22  1  0  0  0  0
 25 27  1  0  0  0  0
 26 23  1  0  0  0  0
 26 24  1  0  0  0  0
 27 28  1  0  0  0  0
 27 29  1  0  0  0  0
 29 34  1  0  0  0  0
 31 32  2  0  0  0  0
 32 30  1  0  0  0  0
 33 31  1  0  0  0  0
 33 29  2  0  0  0  0
 34 30  2  0  0  0  0
 36 39  1  0  0  0  0
 37 36  2  0  0  0  0
 38 40  1  0  0  0  0
 40 39  2  0  0  0  0
 40 35  1  0  0  0  0
 41 37  1  0  0  0  0
 41 38  2  0  0  0  0
 43 42  2  0  0  0  0
 43 37  1  0  0  0  0
M  END
>  <MODEL>
3

>  <REMARK>
 VINA RESULT:      -9.0      2.186      4.880
  Name = 
  9 active torsions:
  status: ('A' for Active; 'I' for Inactive)
    1  A    between atoms: C_1  and  C_34
    2  A    between atoms: C_1  and  C_35
    3  A    between atoms: C_2  and  O_6
    4  A    between atoms: C_2  and  C_13
    5  A    between atoms: C_3  and  C_12
    6  A    between atoms: O_6  and  C_12
    7  A    between atoms: C_11  and  N_14
    8  A    between atoms: N_14  and  C_22
    9  A    between atoms: C_19  and  S_37
                            x       y       z     vdW  Elec       q    Type
                         _______ _______ _______ _____ _____    ______ ____

>  <TORSDO>
F 9

$$$$
=
 OpenBabel10262422093D

 43 49  0  0  1  0  0  0  0  0999 V2000
  180.6110  178.8590  140.8790 N   0  0  0  0  0  0  0  0  0  0  0  0
  184.9400  178.3810  143.4020 C   0  0  0  0  0  0  0  0  0  0  0  0
  187.0350  177.9710  141.6400 C   0  0  2  0  0  3  0  0  0  0  0  0
  182.3060  178.8370  142.6420 C   0  0  0  0  0  0  0  0  0  0  0  0
  181.5490  179.6130  140.0520 C   0  0  0  0  0  2  0  0  0  0  0  0
  179.2870  179.3790  140.5900 C   0  0  0  0  0  1  0  0  0  0  0  0
  183.3160  178.8410  141.6600 C   0  0  0  0  0  0  0  0  0  0  0  0
  180.8870  179.1710  142.2810 C   0  0  0  0  0  2  0  0  0  0  0  0
  182.9530  179.0320  140.2080 C   0  0  0  0  0  2  0  0  0  0  0  0
  185.7570  178.5600  141.0240 C   0  0  0  0  0  2  0  0  0  0  0  0
  184.6430  178.5790  142.0400 C   0  0  0  0  0  0  0  0  0  0  0  0
  183.9370  178.3790  144.3240 N   0  0  0  0  0  0  0  0  0  0  0  0
  186.3580  178.0330  143.7990 C   0  0  1  0  0  3  0  0  0  0  0  0
  187.2810  178.5800  142.8830 O   0  0  0  0  0  0  0  0  0  0  0  0
  182.6450  178.6130  143.9760 C   0  0  0  0  0  3  0  0  0  0  0  0
  188.2440  178.1540  140.7290 C   0  0  1  0  0  3  0  0  0  0  0  0
  189.4960  177.5760  141.3700 C   0  0  0  0  0  1  0  0  0  0  0  0
  188.0080  177.5480  139.4590 O   0  0  0  0  0  0  0  0  0  0  0  0
  188.0300  178.2520  138.2470 C   0  0  0  0  0  0  0  0  0  0  0  0
  189.0950  178.9580  137.8710 C   0  0  0  0  0  2  0  0  0  0  0  0
  186.8490  178.1820  137.3330 C   0  0  2  0  0  3  0  0  0  0  0  0
  186.2450  176.7910  137.3740 C   0  0  2  0  0  3  0  0  0  0  0  0
  184.8810  176.8530  135.4210 O   0  0  0  0  0  0  0  0  0  0  0  0
  187.1000  177.1920  136.2100 C   0  0  1  0  0  3  0  0  0  0  0  0
  184.8360  176.8330  136.8240 C   0  0  1  0  0  3  0  0  0  0  0  0
  186.1160  177.4300  135.0870 C   0  0  0  0  0  2  0  0  0  0  0  0
  184.0640  175.6840  137.2930 N   0  0  0  0  0  0  0  0  0  0  0  0
  184.6820  174.3610  137.2710 C   0  0  0  0  0  1  0  0  0  0  0  0
  182.7350  175.8620  137.8190 C   0  0  0  0  0  0  0  0  0  0  0  0
  180.4230  176.5680  137.5270 C   0  0  0  0  0  3  0  0  0  0  0  0
  181.1490  175.6840  139.6580 C   0  0  0  0  0  3  0  0  0  0  0  0
  180.1420  176.2130  138.8490 C   0  0  0  0  0  3  0  0  0  0  0  0
  182.4380  175.5110  139.1460 C   0  0  0  0  0  3  0  0  0  0  0  0
  181.7120  176.3940  137.0160 C   0  0  0  0  0  3  0  0  0  0  0  0
  186.6770  178.5400  145.2010 C   0  0  0  0  0  2  0  0  0  0  0  0
  189.1100  176.7570  147.4930 C   0  0  0  0  0  3  0  0  0  0  0  0
  190.2730  176.7650  146.7190 C   0  0  0  0  0  0  0  0  0  0  0  0
  189.0890  177.9180  144.9490 C   0  0  0  0  0  3  0  0  0  0  0  0
  187.9350  177.3300  146.9960 C   0  0  0  0  0  3  0  0  0  0  0  0
  187.9230  177.9070  145.7210 C   0  0  0  0  0  0  0  0  0  0  0  0
  190.2630  177.3450  145.4460 C   0  0  0  0  0  3  0  0  0  0  0  0
  192.2920  177.1080  148.2990 O   0  0  0  0  0  0  0  0  0  0  0  0
  191.7610  176.0420  147.3500 S   0  0  0  0  0  3  0  0  0  0  0  0
  1  8  1  0  0  0  0
  2 13  1  0  0  0  0
  2 12  1  0  0  0  0
  3 16  1  6  0  0  0
  3 14  1  0  0  0  0
  4 15  1  0  0  0  0
  5  9  1  0  0  0  0
  5  1  1  0  0  0  0
  6  1  1  0  0  0  0
  7 11  1  0  0  0  0
  7  4  2  0  0  0  0
  8  4  1  0  0  0  0
  9  7  1  0  0  0  0
 10  3  1  0  0  0  0
 10 11  1  0  0  0  0
 11  2  2  0  0  0  0
 13 35  1  1  0  0  0
 14 13  1  0  0  0  0
 15 12  2  0  0  0  0
 16 17  1  1  0  0  0
 18 16  1  0  0  0  0
 19 18  1  0  0  0  0
 20 19  2  0  0  0  0
 21 22  1  0  0  0  0
 21 19  1  1  0  0  0
 23 25  1  0  0  0  0
 24 21  1  0  0  0  0
 24 22  1  0  0  0  0
 25 27  1  0  0  0  0
 25 22  1  0  0  0  0
 26 23  1  0  0  0  0
 26 24  1  0  0  0  0
 27 29  1  0  0  0  0
 28 27  1  0  0  0  0
 29 33  1  0  0  0  0
 30 32  2  0  0  0  0
 32 31  1  0  0  0  0
 33 31  2  0  0  0  0
 34 30  1  0  0  0  0
 34 29  2  0  0  0  0
 35 40  1  0  0  0  0
 37 43  1  0  0  0  0
 37 36  2  0  0  0  0
 38 41  2  0  0  0  0
 38 40  1  0  0  0  0
 39 36  1  0  0  0  0
 40 39  2  0  0  0  0
 41 37  1  0  0  0  0
 43 42  2  0  0  0  0
M  END
>  <MODEL>
4

>  <REMARK>
 VINA RESULT:      -8.9      3.103      7.368
  Name = 
  9 active torsions:
  status: ('A' for Active; 'I' for Inactive)
    1  A    between atoms: C_1  and  C_34
    2  A    between atoms: C_1  and  C_35
    3  A    between atoms: C_2  and  O_6
    4  A    between atoms: C_2  and  C_13
    5  A    between atoms: C_3  and  C_12
    6  A    between atoms: O_6  and  C_12
    7  A    between atoms: C_11  and  N_14
    8  A    between atoms: N_14  and  C_22
    9  A    between atoms: C_19  and  S_37
                            x       y       z     vdW  Elec       q    Type
                         _______ _______ _______ _____ _____    ______ ____

>  <TORSDO>
F 9

$$$$
=
 OpenBabel10262422093D

 43 49  0  0  1  0  0  0  0  0999 V2000
  190.8860  176.3520  146.9490 N   0  0  0  0  0  0  0  0  0  0  0  0
  189.3080  177.5190  142.3150 C   0  0  0  0  0  0  0  0  0  0  0  0
  186.5640  177.8900  142.3030 C   0  0  2  0  0  3  0  0  0  0  0  0
  190.8140  176.9700  144.5850 C   0  0  0  0  0  0  0  0  0  0  0  0
  189.8890  177.3890  147.2030 C   0  0  0  0  0  2  0  0  0  0  0  0
  191.7830  176.3470  148.0900 C   0  0  0  0  0  1  0  0  0  0  0  0
  189.4610  177.3350  144.7290 C   0  0  0  0  0  0  0  0  0  0  0  0
  191.6820  176.7570  145.7920 C   0  0  0  0  0  2  0  0  0  0  0  0
  188.8320  177.3660  146.1000 C   0  0  0  0  0  2  0  0  0  0  0  0
  187.2360  177.9630  143.6820 C   0  0  0  0  0  2  0  0  0  0  0  0
  188.6910  177.5820  143.5810 C   0  0  0  0  0  0  0  0  0  0  0  0
  190.6160  177.1590  142.2130 N   0  0  0  0  0  0  0  0  0  0  0  0
  188.4600  177.7200  141.0780 C   0  0  1  0  0  3  0  0  0  0  0  0
  187.3600  178.5590  141.3560 O   0  0  0  0  0  0  0  0  0  0  0  0
  191.3750  176.8990  143.3100 C   0  0  0  0  0  3  0  0  0  0  0  0
  185.1650  178.4940  142.3180 C   0  0  1  0  0  3  0  0  0  0  0  0
  184.9420  179.3100  143.5820 C   0  0  0  0  0  1  0  0  0  0  0  0
  184.9550  179.3000  141.1600 O   0  0  0  0  0  0  0  0  0  0  0  0
  184.0340  178.9870  140.1510 C   0  0  0  0  0  0  0  0  0  0  0  0
  182.7530  178.7500  140.4270 C   0  0  0  0  0  2  0  0  0  0  0  0
  184.4850  178.9530  138.7260 C   0  0  2  0  0  3  0  0  0  0  0  0
  184.5340  177.5190  138.2330 C   0  0  2  0  0  3  0  0  0  0  0  0
  185.8480  177.7810  136.2630 O   0  0  0  0  0  0  0  0  0  0  0  0
  185.8070  178.2180  138.6020 C   0  0  1  0  0  3  0  0  0  0  0  0
  184.5510  177.5030  136.7200 C   0  0  1  0  0  3  0  0  0  0  0  0
  186.4530  178.5440  137.2750 C   0  0  0  0  0  2  0  0  0  0  0  0
  184.0990  176.2090  136.2130 N   0  0  0  0  0  0  0  0  0  0  0  0
  182.9560  176.1650  135.3060 C   0  0  0  0  0  1  0  0  0  0  0  0
  184.8050  175.0010  136.5590 C   0  0  0  0  0  0  0  0  0  0  0  0
  184.9410  172.9170  137.8110 C   0  0  0  0  0  3  0  0  0  0  0  0
  186.7430  173.5450  136.3240 C   0  0  0  0  0  3  0  0  0  0  0  0
  186.1850  172.6460  137.2360 C   0  0  0  0  0  3  0  0  0  0  0  0
  186.0570  174.7160  135.9890 C   0  0  0  0  0  3  0  0  0  0  0  0
  184.2550  174.0870  137.4750 C   0  0  0  0  0  3  0  0  0  0  0  0
  189.2790  178.3220  139.9420 C   0  0  0  0  0  2  0  0  0  0  0  0
  189.6370  175.3760  137.5870 C   0  0  0  0  0  3  0  0  0  0  0  0
  191.0250  175.2030  137.5710 C   0  0  0  0  0  0  0  0  0  0  0  0
  191.2760  177.0720  139.0900 C   0  0  0  0  0  3  0  0  0  0  0  0
  189.0690  176.3970  138.3550 C   0  0  0  0  0  3  0  0  0  0  0  0
  189.8880  177.2490  139.1040 C   0  0  0  0  0  0  0  0  0  0  0  0
  191.8440  176.0510  138.3230 C   0  0  0  0  0  3  0  0  0  0  0  0
  193.1900  173.8780  137.0770 O   0  0  0  0  0  0  0  0  0  0  0  0
  191.7440  173.9080  136.6010 S   0  0  0  0  0  3  0  0  0  0  0  0
  1  5  1  0  0  0  0
  1  6  1  0  0  0  0
  2 11  1  0  0  0  0
  3 16  1  1  0  0  0
  3 10  1  0  0  0  0
  4  7  1  0  0  0  0
  4  8  1  0  0  0  0
  7  9  1  0  0  0  0
  8  1  1  0  0  0  0
  9  5  1  0  0  0  0
 11 10  1  0  0  0  0
 11  7  2  0  0  0  0
 12  2  2  0  0  0  0
 12 15  1  0  0  0  0
 13 35  1  6  0  0  0
 13 14  1  0  0  0  0
 13  2  1  0  0  0  0
 14  3  1  0  0  0  0
 15  4  2  0  0  0  0
 16 17  1  1  0  0  0
 18 16  1  0  0  0  0
 19 20  2  0  0  0  0
 19 18  1  0  0  0  0
 21 19  1  1  0  0  0
 22 24  1  0  0  0  0
 22 21  1  0  0  0  0
 23 25  1  0  0  0  0
 23 26  1  0  0  0  0
 24 21  1  0  0  0  0
 25 22  1  0  0  0  0
 26 24  1  0  0  0  0
 27 29  1  0  0  0  0
 27 25  1  0  0  0  0
 28 27  1  0  0  0  0
 29 34  1  0  0  0  0
 31 32  2  0  0  0  0
 32 30  1  0  0  0  0
 33 31  1  0  0  0  0
 33 29  2  0  0  0  0
 34 30  2  0  0  0  0
 36 39  1  0  0  0  0
 37 36  2  0  0  0  0
 37 41  1  0  0  0  0
 38 40  1  0  0  0  0
 39 40  2  0  0  0  0
 40 35  1  0  0  0  0
 41 38  2  0  0  0  0
 43 42  2  0  0  0  0
 43 37  1  0  0  0  0
M  END
>  <MODEL>
5

>  <REMARK>
 VINA RESULT:      -8.7      1.798      2.562
  Name = 
  9 active torsions:
  status: ('A' for Active; 'I' for Inactive)
    1  A    between atoms: C_1  and  C_34
    2  A    between atoms: C_1  and  C_35
    3  A    between atoms: C_2  and  O_6
    4  A    between atoms: C_2  and  C_13
    5  A    between atoms: C_3  and  C_12
    6  A    between atoms: O_6  and  C_12
    7  A    between atoms: C_11  and  N_14
    8  A    between atoms: N_14  and  C_22
    9  A    between atoms: C_19  and  S_37
                            x       y       z     vdW  Elec       q    Type
                         _______ _______ _______ _____ _____    ______ ____

>  <TORSDO>
F 9

$$$$
=
 OpenBabel10262422093D

 43 49  0  0  1  0  0  0  0  0999 V2000
  191.3520  176.9760  146.9260 N   0  0  0  0  0  0  0  0  0  0  0  0
  187.4950  177.8780  143.8210 C   0  0  0  0  0  0  0  0  0  0  0  0
  188.4200  178.3300  141.2510 C   0  0  2  0  0  3  0  0  0  0  0  0
  189.1080  177.2070  145.9830 C   0  0  0  0  0  0  0  0  0  0  0  0
  191.7330  176.2420  145.7220 C   0  0  0  0  0  2  0  0  0  0  0  0
  192.0540  176.3540  148.0340 C   0  0  0  0  0  1  0  0  0  0  0  0
  189.6630  177.2160  144.6870 C   0  0  0  0  0  0  0  0  0  0  0  0
  189.9250  176.7590  147.1610 C   0  0  0  0  0  2  0  0  0  0  0  0
  191.1290  176.9230  144.4940 C   0  0  0  0  0  2  0  0  0  0  0  0
  189.4050  177.6250  142.1950 C   0  0  0  0  0  2  0  0  0  0  0  0
  188.8560  177.5860  143.5990 C   0  0  0  0  0  0  0  0  0  0  0  0
  186.9950  177.8630  145.0870 N   0  0  0  0  0  0  0  0  0  0  0  0
  186.6470  178.3400  142.6570 C   0  0  1  0  0  3  0  0  0  0  0  0
  187.1290  177.8070  141.4440 O   0  0  0  0  0  0  0  0  0  0  0  0
  187.7620  177.5250  146.1560 C   0  0  0  0  0  3  0  0  0  0  0  0
  188.8240  178.1790  139.7890 C   0  0  1  0  0  3  0  0  0  0  0  0
  189.8310  177.0510  139.6210 C   0  0  0  0  0  1  0  0  0  0  0  0
  187.6770  177.9500  138.9740 O   0  0  0  0  0  0  0  0  0  0  0  0
  187.6090  178.2890  137.6150 C   0  0  0  0  0  0  0  0  0  0  0  0
  188.6180  178.9010  136.9990 C   0  0  0  0  0  2  0  0  0  0  0  0
  186.3920  177.9240  136.8250 C   0  0  2  0  0  3  0  0  0  0  0  0
  185.8650  176.5760  137.2800 C   0  0  2  0  0  3  0  0  0  0  0  0
  184.4130  176.0450  135.4670 O   0  0  0  0  0  0  0  0  0  0  0  0
  186.6440  176.6730  136.0030 C   0  0  1  0  0  3  0  0  0  0  0  0
  184.4330  176.4110  136.8220 C   0  0  1  0  0  3  0  0  0  0  0  0
  185.6000  176.5540  134.9170 C   0  0  0  0  0  2  0  0  0  0  0  0
  183.7450  175.4070  137.6310 N   0  0  0  0  0  0  0  0  0  0  0  0
  183.0520  175.8310  138.8440 C   0  0  0  0  0  1  0  0  0  0  0  0
  183.7050  174.0300  137.2090 C   0  0  0  0  0  0  0  0  0  0  0  0
  184.8230  171.8980  136.8440 C   0  0  0  0  0  3  0  0  0  0  0  0
  182.4700  172.1240  136.3300 C   0  0  0  0  0  3  0  0  0  0  0  0
  183.6270  171.3430  136.3820 C   0  0  0  0  0  3  0  0  0  0  0  0
  182.5100  173.4590  136.7410 C   0  0  0  0  0  3  0  0  0  0  0  0
  184.8620  173.2330  137.2550 C   0  0  0  0  0  3  0  0  0  0  0  0
  185.1890  177.9330  142.8440 C   0  0  0  0  0  2  0  0  0  0  0  0
  184.1820  179.4800  139.5360 C   0  0  0  0  0  3  0  0  0  0  0  0
  182.7890  179.3830  139.6000 C   0  0  0  0  0  0  0  0  0  0  0  0
  182.9600  178.3290  141.7730 C   0  0  0  0  0  3  0  0  0  0  0  0
  184.9640  179.0010  140.5910 C   0  0  0  0  0  3  0  0  0  0  0  0
  184.3550  178.4210  141.7080 C   0  0  0  0  0  0  0  0  0  0  0  0
  182.1780  178.8070  140.7170 C   0  0  0  0  0  3  0  0  0  0  0  0
  180.4010  179.4940  138.6110 O   0  0  0  0  0  0  0  0  0  0  0  0
  181.7980  179.9930  138.2650 S   0  0  0  0  0  3  0  0  0  0  0  0
  1  8  1  0  0  0  0
  1  6  1  0  0  0  0
  2 12  1  0  0  0  0
  3 16  1  6  0  0  0
  3 14  1  0  0  0  0
  3 10  1  0  0  0  0
  4 15  1  0  0  0  0
  4  8  1  0  0  0  0
  5  1  1  0  0  0  0
  7  4  2  0  0  0  0
  9  7  1  0  0  0  0
  9  5  1  0  0  0  0
 10 11  1  0  0  0  0
 11  2  2  0  0  0  0
 11  7  1  0  0  0  0
 12 15  2  0  0  0  0
 13 35  1  1  0  0  0
 13  2  1  0  0  0  0
 14 13  1  0  0  0  0
 16 17  1  1  0  0  0
 18 16  1  0  0  0  0
 19 18  1  0  0  0  0
 20 19  2  0  0  0  0
 21 22  1  0  0  0  0
 21 19  1  1  0  0  0
 23 25  1  0  0  0  0
 24 21  1  0  0  0  0
 24 22  1  0  0  0  0
 25 22  1  0  0  0  0
 25 27  1  0  0  0  0
 26 23  1  0  0  0  0
 26 24  1  0  0  0  0
 27 28  1  0  0  0  0
 29 34  1  0  0  0  0
 29 27  1  0  0  0  0
 30 34  2  0  0  0  0
 31 32  2  0  0  0  0
 31 33  1  0  0  0  0
 32 30  1  0  0  0  0
 33 29  2  0  0  0  0
 36 37  2  0  0  0  0
 36 39  1  0  0  0  0
 37 41  1  0  0  0  0
 39 40  2  0  0  0  0
 40 38  1  0  0  0  0
 40 35  1  0  0  0  0
 41 38  2  0  0  0  0
 43 42  2  0  0  0  0
 43 37  1  0  0  0  0
M  END
>  <MODEL>
6

>  <REMARK>
 VINA RESULT:      -8.6      1.996      4.474
  Name = 
  9 active torsions:
  status: ('A' for Active; 'I' for Inactive)
    1  A    between atoms: C_1  and  C_34
    2  A    between atoms: C_1  and  C_35
    3  A    between atoms: C_2  and  O_6
    4  A    between atoms: C_2  and  C_13
    5  A    between atoms: C_3  and  C_12
    6  A    between atoms: O_6  and  C_12
    7  A    between atoms: C_11  and  N_14
    8  A    between atoms: N_14  and  C_22
    9  A    between atoms: C_19  and  S_37
                            x       y       z     vdW  Elec       q    Type
                         _______ _______ _______ _____ _____    ______ ____

>  <TORSDO>
F 9

$$$$
=
 OpenBabel10262422093D

 43 49  0  0  1  0  0  0  0  0999 V2000
  191.4260  176.7710  146.5240 N   0  0  0  0  0  0  0  0  0  0  0  0
  186.8430  178.0040  144.8500 C   0  0  0  0  0  0  0  0  0  0  0  0
  186.8980  178.3950  142.1090 C   0  0  2  0  0  3  0  0  0  0  0  0
  189.0220  177.1900  146.3700 C   0  0  0  0  0  0  0  0  0  0  0  0
  191.3280  176.0160  145.2780 C   0  0  0  0  0  2  0  0  0  0  0  0
  192.4040  176.0870  147.3510 C   0  0  0  0  0  1  0  0  0  0  0  0
  189.1160  177.1620  144.9650 C   0  0  0  0  0  0  0  0  0  0  0  0
  190.1450  176.6700  147.2220 C   0  0  0  0  0  2  0  0  0  0  0  0
  190.4080  176.7510  144.3040 C   0  0  0  0  0  2  0  0  0  0  0  0
  188.0810  177.6060  142.6900 C   0  0  0  0  0  2  0  0  0  0  0  0
  188.0260  177.6040  144.1960 C   0  0  0  0  0  0  0  0  0  0  0  0
  186.7900  178.0220  146.2100 N   0  0  0  0  0  0  0  0  0  0  0  0
  185.6970  178.5410  144.0220 C   0  0  1  0  0  3  0  0  0  0  0  0
  185.7070  177.9780  142.7280 O   0  0  0  0  0  0  0  0  0  0  0  0
  187.8390  177.6160  146.9720 C   0  0  0  0  0  3  0  0  0  0  0  0
  186.7830  178.2210  140.5990 C   0  0  1  0  0  3  0  0  0  0  0  0
  185.5980  179.0020  140.0540 C   0  0  0  0  0  1  0  0  0  0  0  0
  187.9880  178.6280  139.9550 O   0  0  0  0  0  0  0  0  0  0  0  0
  188.7140  177.8120  139.0760 C   0  0  0  0  0  0  0  0  0  0  0  0
  188.1030  176.9790  138.2350 C   0  0  0  0  0  2  0  0  0  0  0  0
  190.2060  177.9010  139.0500 C   0  0  2  0  0  3  0  0  0  0  0  0
  190.8010  176.5310  138.7850 C   0  0  2  0  0  3  0  0  0  0  0  0
  193.0620  176.9060  139.4350 O   0  0  0  0  0  0  0  0  0  0  0  0
  190.8090  177.0820  140.1780 C   0  0  1  0  0  3  0  0  0  0  0  0
  192.2350  176.6810  138.3240 C   0  0  1  0  0  3  0  0  0  0  0  0
  192.2430  177.5020  140.4060 C   0  0  0  0  0  2  0  0  0  0  0  0
  192.6700  175.4900  137.5970 N   0  0  0  0  0  0  0  0  0  0  0  0
  191.7550  174.3590  137.4780 C   0  0  0  0  0  1  0  0  0  0  0  0
  193.9630  175.4550  136.9610 C   0  0  0  0  0  0  0  0  0  0  0  0
  196.1750  174.4660  136.7210 C   0  0  0  0  0  3  0  0  0  0  0  0
  195.5430  176.3460  135.3350 C   0  0  0  0  0  3  0  0  0  0  0  0
  196.4860  175.3900  135.7200 C   0  0  0  0  0  3  0  0  0  0  0  0
  194.2890  176.3780  135.9530 C   0  0  0  0  0  3  0  0  0  0  0  0
  194.9220  174.4990  137.3380 C   0  0  0  0  0  3  0  0  0  0  0  0
  184.3550  178.2530  144.6880 C   0  0  0  0  0  2  0  0  0  0  0  0
  180.9230  179.3330  143.5030 C   0  0  0  0  0  3  0  0  0  0  0  0
  181.0940  179.3180  142.1150 C   0  0  0  0  0  0  0  0  0  0  0  0
  183.3960  178.6230  142.4040 C   0  0  0  0  0  3  0  0  0  0  0  0
  181.9890  178.9920  144.3410 C   0  0  0  0  0  3  0  0  0  0  0  0
  183.2270  178.6400  143.7930 C   0  0  0  0  0  0  0  0  0  0  0  0
  182.3300  178.9640  141.5660 C   0  0  0  0  0  3  0  0  0  0  0  0
  179.6210  181.2540  141.2370 O   0  0  0  0  0  0  0  0  0  0  0  0
  179.7440  179.7480  141.0530 S   0  0  0  0  0  3  0  0  0  0  0  0
  1  8  1  0  0  0  0
  1  6  1  0  0  0  0
  2 12  1  0  0  0  0
  3 16  1  6  0  0  0
  3 10  1  0  0  0  0
  3 14  1  0  0  0  0
  4 15  1  0  0  0  0
  4  8  1  0  0  0  0
  5  1  1  0  0  0  0
  7  4  2  0  0  0  0
  9  7  1  0  0  0  0
  9  5  1  0  0  0  0
 10 11  1  0  0  0  0
 11  2  2  0  0  0  0
 11  7  1  0  0  0  0
 12 15  2  0  0  0  0
 13 35  1  1  0  0  0
 13  2  1  0  0  0  0
 14 13  1  0  0  0  0
 16 17  1  6  0  0  0
 18 16  1  0  0  0  0
 19 18  1  0  0  0  0
 20 19  2  0  0  0  0
 21 19  1  1  0  0  0
 21 24  1  0  0  0  0
 22 21  1  0  0  0  0
 22 24  1  0  0  0  0
 23 26  1  0  0  0  0
 24 26  1  0  0  0  0
 25 22  1  0  0  0  0
 25 23  1  0  0  0  0
 27 25  1  0  0  0  0
 28 27  1  0  0  0  0
 29 34  1  0  0  0  0
 29 27  1  0  0  0  0
 30 34  2  0  0  0  0
 31 32  2  0  0  0  0
 31 33  1  0  0  0  0
 32 30  1  0  0  0  0
 33 29  2  0  0  0  0
 36 39  1  0  0  0  0
 37 36  2  0  0  0  0
 38 40  1  0  0  0  0
 40 39  2  0  0  0  0
 40 35  1  0  0  0  0
 41 37  1  0  0  0  0
 41 38  2  0  0  0  0
 43 42  2  0  0  0  0
 43 37  1  0  0  0  0
M  END
>  <MODEL>
7

>  <REMARK>
 VINA RESULT:      -8.5      3.903      7.817
  Name = 
  9 active torsions:
  status: ('A' for Active; 'I' for Inactive)
    1  A    between atoms: C_1  and  C_34
    2  A    between atoms: C_1  and  C_35
    3  A    between atoms: C_2  and  O_6
    4  A    between atoms: C_2  and  C_13
    5  A    between atoms: C_3  and  C_12
    6  A    between atoms: O_6  and  C_12
    7  A    between atoms: C_11  and  N_14
    8  A    between atoms: N_14  and  C_22
    9  A    between atoms: C_19  and  S_37
                            x       y       z     vdW  Elec       q    Type
                         _______ _______ _______ _____ _____    ______ ____

>  <TORSDO>
F 9

$$$$
=
 OpenBabel10262422093D

 43 49  0  0  1  0  0  0  0  0999 V2000
  185.6500  178.8960  145.8250 N   0  0  0  0  0  0  0  0  0  0  0  0
  182.5340  178.6280  141.8810 C   0  0  0  0  0  0  0  0  0  0  0  0
  183.9770  178.2930  139.5420 C   0  0  2  0  0  3  0  0  0  0  0  0
  183.6530  178.7300  144.4230 C   0  0  0  0  0  0  0  0  0  0  0  0
  186.2500  177.8390  145.0140 C   0  0  0  0  0  2  0  0  0  0  0  0
  186.0940  178.6800  147.1890 C   0  0  0  0  0  1  0  0  0  0  0  0
  184.4610  178.3580  143.3300 C   0  0  0  0  0  0  0  0  0  0  0  0
  184.2000  178.7060  145.8220 C   0  0  0  0  0  2  0  0  0  0  0  0
  185.9280  178.0780  143.5400 C   0  0  0  0  0  2  0  0  0  0  0  0
  184.7290  177.9580  140.8380 C   0  0  0  0  0  2  0  0  0  0  0  0
  183.9030  178.3370  142.0410 C   0  0  0  0  0  0  0  0  0  0  0  0
  181.7850  178.9890  142.9590 N   0  0  0  0  0  0  0  0  0  0  0  0
  181.9540  178.6700  140.4850 C   0  0  1  0  0  3  0  0  0  0  0  0
  182.6610  177.8050  139.6230 O   0  0  0  0  0  0  0  0  0  0  0  0
  182.3080  179.0320  144.2120 C   0  0  0  0  0  3  0  0  0  0  0  0
  184.6680  177.7100  138.3150 C   0  0  1  0  0  3  0  0  0  0  0  0
  183.6800  177.5320  137.1720 C   0  0  0  0  0  1  0  0  0  0  0  0
  185.7540  178.5410  137.9110 O   0  0  0  0  0  0  0  0  0  0  0  0
  186.8620  178.0750  137.1890 C   0  0  0  0  0  0  0  0  0  0  0  0
  186.9600  178.2520  135.8730 C   0  0  0  0  0  2  0  0  0  0  0  0
  187.9800  177.3950  137.9120 C   0  0  2  0  0  3  0  0  0  0  0  0
  188.3910  178.2180  139.1190 C   0  0  2  0  0  3  0  0  0  0  0  0
  190.5020  177.2320  139.6180 O   0  0  0  0  0  0  0  0  0  0  0  0
  189.2350  178.2500  137.8800 C   0  0  1  0  0  3  0  0  0  0  0  0
  189.1820  177.3550  140.0770 C   0  0  1  0  0  3  0  0  0  0  0  0
  190.4400  177.4050  138.2260 C   0  0  0  0  0  2  0  0  0  0  0  0
  189.1610  177.9240  141.4230 N   0  0  0  0  0  0  0  0  0  0  0  0
  188.2230  179.0030  141.7200 C   0  0  0  0  0  1  0  0  0  0  0  0
  190.0140  177.3920  142.4550 C   0  0  0  0  0  0  0  0  0  0  0  0
  191.5170  177.7330  144.3400 C   0  0  0  0  0  3  0  0  0  0  0  0
  191.0160  175.4870  143.5940 C   0  0  0  0  0  3  0  0  0  0  0  0
  191.6800  176.3510  144.4670 C   0  0  0  0  0  3  0  0  0  0  0  0
  190.1880  176.0050  142.5940 C   0  0  0  0  0  3  0  0  0  0  0  0
  190.6890  178.2500  143.3400 C   0  0  0  0  0  3  0  0  0  0  0  0
  180.4790  178.2830  140.4900 C   0  0  0  0  0  2  0  0  0  0  0  0
  179.6840  176.0840  137.5090 C   0  0  0  0  0  3  0  0  0  0  0  0
  179.7590  174.8100  138.0800 C   0  0  0  0  0  0  0  0  0  0  0  0
  180.3160  175.7990  140.2190 C   0  0  0  0  0  3  0  0  0  0  0  0
  179.9260  177.2160  138.2940 C   0  0  0  0  0  3  0  0  0  0  0  0
  180.2460  177.0740  139.6490 C   0  0  0  0  0  0  0  0  0  0  0  0
  180.0750  174.6670  139.4340 C   0  0  0  0  0  3  0  0  0  0  0  0
  180.0430  172.2450  137.9140 O   0  0  0  0  0  0  0  0  0  0  0  0
  179.4510  173.3770  137.0860 S   0  0  0  0  0  3  0  0  0  0  0  0
  1  6  1  0  0  0  0
  2 11  2  0  0  0  0
  2 12  1  0  0  0  0
  3 16  1  6  0  0  0
  3 14  1  0  0  0  0
  3 10  1  0  0  0  0
  4  8  1  0  0  0  0
  5  1  1  0  0  0  0
  7  9  1  0  0  0  0
  7  4  2  0  0  0  0
  8  1  1  0  0  0  0
  9  5  1  0  0  0  0
 10 11  1  0  0  0  0
 11  7  1  0  0  0  0
 12 15  2  0  0  0  0
 13 35  1  1  0  0  0
 13  2  1  0  0  0  0
 14 13  1  0  0  0  0
 15  4  1  0  0  0  0
 16 17  1  6  0  0  0
 18 16  1  0  0  0  0
 19 18  1  0  0  0  0
 20 19  2  0  0  0  0
 21 19  1  6  0  0  0
 21 22  1  0  0  0  0
 22 25  1  0  0  0  0
 23 25  1  0  0  0  0
 24 21  1  0  0  0  0
 24 26  1  0  0  0  0
 24 22  1  0  0  0  0
 25 27  1  0  0  0  0
 26 23  1  0  0  0  0
 27 28  1  0  0  0  0
 27 29  1  0  0  0  0
 29 33  2  0  0  0  0
 29 34  1  0  0  0  0
 30 32  1  0  0  0  0
 31 32  2  0  0  0  0
 33 31  1  0  0  0  0
 34 30  2  0  0  0  0
 36 37  2  0  0  0  0
 36 39  1  0  0  0  0
 37 41  1  0  0  0  0
 39 40  2  0  0  0  0
 40 38  1  0  0  0  0
 40 35  1  0  0  0  0
 41 38  2  0  0  0  0
 43 42  2  0  0  0  0
 43 37  1  0  0  0  0
M  END
>  <MODEL>
8

>  <REMARK>
 VINA RESULT:      -8.2      3.066      7.754
  Name = 
  9 active torsions:
  status: ('A' for Active; 'I' for Inactive)
    1  A    between atoms: C_1  and  C_34
    2  A    between atoms: C_1  and  C_35
    3  A    between atoms: C_2  and  O_6
    4  A    between atoms: C_2  and  C_13
    5  A    between atoms: C_3  and  C_12
    6  A    between atoms: O_6  and  C_12
    7  A    between atoms: C_11  and  N_14
    8  A    between atoms: N_14  and  C_22
    9  A    between atoms: C_19  and  S_37
                            x       y       z     vdW  Elec       q    Type
                         _______ _______ _______ _____ _____    ______ ____

>  <TORSDO>
F 9

$$$$
=
 OpenBabel10262422093D

 43 49  0  0  1  0  0  0  0  0999 V2000
  187.8590  177.1710  147.0930 N   0  0  0  0  0  0  0  0  0  0  0  0
  187.9510  178.0350  142.1360 C   0  0  0  0  0  0  0  0  0  0  0  0
  185.3720  178.2710  141.1570 C   0  0  2  0  0  3  0  0  0  0  0  0
  188.5930  177.6700  144.8150 C   0  0  0  0  0  0  0  0  0  0  0  0
  186.8070  178.1690  146.9230 C   0  0  0  0  0  2  0  0  0  0  0  0
  188.3050  177.2640  148.4710 C   0  0  0  0  0  1  0  0  0  0  0  0
  187.2640  177.9750  144.4620 C   0  0  0  0  0  0  0  0  0  0  0  0
  188.9950  177.5580  146.2580 C   0  0  0  0  0  2  0  0  0  0  0  0
  186.1990  178.0420  145.5280 C   0  0  0  0  0  2  0  0  0  0  0  0
  185.5220  178.4430  142.6760 C   0  0  0  0  0  2  0  0  0  0  0  0
  186.9330  178.1290  143.1060 C   0  0  0  0  0  0  0  0  0  0  0  0
  189.2240  177.7340  142.5140 N   0  0  0  0  0  0  0  0  0  0  0  0
  187.5780  178.1350  140.6730 C   0  0  1  0  0  3  0  0  0  0  0  0
  186.4270  178.9310  140.5030 O   0  0  0  0  0  0  0  0  0  0  0  0
  189.5630  177.5650  143.8180 C   0  0  0  0  0  3  0  0  0  0  0  0
  184.0370  178.8070  140.6520 C   0  0  1  0  0  3  0  0  0  0  0  0
  184.1650  179.3170  139.2260 C   0  0  0  0  0  1  0  0  0  0  0  0
  183.0300  177.8000  140.7340 O   0  0  0  0  0  0  0  0  0  0  0  0
  181.6570  178.0620  140.6270 C   0  0  0  0  0  0  0  0  0  0  0  0
  181.0710  179.0090  141.3570 C   0  0  0  0  0  2  0  0  0  0  0  0
  180.8340  177.2900  139.6480 C   0  0  2  0  0  3  0  0  0  0  0  0
  181.6910  176.8710  138.4680 C   0  0  2  0  0  3  0  0  0  0  0  0
  180.0040  176.2760  136.8950 O   0  0  0  0  0  0  0  0  0  0  0  0
  180.7480  178.0270  138.3230 C   0  0  1  0  0  3  0  0  0  0  0  0
  181.0090  175.7470  137.7180 C   0  0  1  0  0  3  0  0  0  0  0  0
  179.6040  177.4760  137.5030 C   0  0  0  0  0  2  0  0  0  0  0  0
  181.9780  174.9950  136.9230 N   0  0  0  0  0  0  0  0  0  0  0  0
  181.6440  173.6390  136.4990 C   0  0  0  0  0  1  0  0  0  0  0  0
  183.2190  175.6040  136.5160 C   0  0  0  0  0  0  0  0  0  0  0  0
  184.4630  177.0820  135.0350 C   0  0  0  0  0  3  0  0  0  0  0  0
  185.6180  175.9070  136.8060 C   0  0  0  0  0  3  0  0  0  0  0  0
  185.6430  176.7890  135.7230 C   0  0  0  0  0  3  0  0  0  0  0  0
  184.4130  175.3180  137.1990 C   0  0  0  0  0  3  0  0  0  0  0  0
  183.2590  176.4930  135.4280 C   0  0  0  0  0  3  0  0  0  0  0  0
  188.7230  178.7200  139.8530 C   0  0  0  0  0  2  0  0  0  0  0  0
  189.3530  175.8710  137.4370 C   0  0  0  0  0  3  0  0  0  0  0  0
  189.3060  176.5370  136.2090 C   0  0  0  0  0  0  0  0  0  0  0  0
  188.8650  178.6240  137.3550 C   0  0  0  0  0  3  0  0  0  0  0  0
  189.1560  176.5820  138.6250 C   0  0  0  0  0  3  0  0  0  0  0  0
  188.9080  177.9580  138.5850 C   0  0  0  0  0  0  0  0  0  0  0  0
  189.0610  177.9130  136.1670 C   0  0  0  0  0  3  0  0  0  0  0  0
  188.3140  174.7620  134.6090 O   0  0  0  0  0  0  0  0  0  0  0  0
  189.5570  175.6370  134.7050 S   0  0  0  0  0  3  0  0  0  0  0  0
  1  6  1  0  0  0  0
  2 12  2  0  0  0  0
  2 11  1  0  0  0  0
  3 16  1  6  0  0  0
  3 10  1  0  0  0  0
  4  8  1  0  0  0  0
  5  1  1  0  0  0  0
  7  4  1  0  0  0  0
  7  9  1  0  0  0  0
  8  1  1  0  0  0  0
  9  5  1  0  0  0  0
 10 11  1  0  0  0  0
 11  7  2  0  0  0  0
 12 15  1  0  0  0  0
 13 35  1  6  0  0  0
 13  2  1  0  0  0  0
 14 13  1  0  0  0  0
 14  3  1  0  0  0  0
 15  4  2  0  0  0  0
 16 17  1  6  0  0  0
 16 18  1  0  0  0  0
 19 18  1  0  0  0  0
 19 20  2  0  0  0  0
 21 19  1  1  0  0  0
 22 21  1  0  0  0  0
 23 26  1  0  0  0  0
 23 25  1  0  0  0  0
 24 22  1  0  0  0  0
 24 21  1  0  0  0  0
 25 22  1  0  0  0  0
 26 24  1  0  0  0  0
 27 25  1  0  0  0  0
 28 27  1  0  0  0  0
 29 27  1  0  0  0  0
 29 33  1  0  0  0  0
 30 34  1  0  0  0  0
 30 32  2  0  0  0  0
 31 33  2  0  0  0  0
 32 31  1  0  0  0  0
 34 29  2  0  0  0  0
 36 39  1  0  0  0  0
 37 36  2  0  0  0  0
 38 40  1  0  0  0  0
 40 39  2  0  0  0  0
 40 35  1  0  0  0  0
 41 37  1  0  0  0  0
 41 38  2  0  0  0  0
 42 43  2  0  0  0  0
 43 37  1  0  0  0  0
M  END
>  <MODEL>
9

>  <REMARK>
 VINA RESULT:      -8.2      1.639      2.625
  Name = 
  9 active torsions:
  status: ('A' for Active; 'I' for Inactive)
    1  A    between atoms: C_1  and  C_34
    2  A    between atoms: C_1  and  C_35
    3  A    between atoms: C_2  and  O_6
    4  A    between atoms: C_2  and  C_13
    5  A    between atoms: C_3  and  C_12
    6  A    between atoms: O_6  and  C_12
    7  A    between atoms: C_11  and  N_14
    8  A    between atoms: N_14  and  C_22
    9  A    between atoms: C_19  and  S_37
                            x       y       z     vdW  Elec       q    Type
                         _______ _______ _______ _____ _____    ______ ____

>  <TORSDO>
F 9

$$$$
