=
 OpenBabel10262419093D

 34 39  0  0  1  0  0  0  0  0999 V2000
  186.5640  176.1620  136.9690 C   0  0  2  0  0  3  0  0  0  0  0  0
  187.9250  178.2590  136.4440 C   0  0  1  0  0  3  0  0  0  0  0  0
  187.1190  177.7680  138.7750 C   0  0  0  0  0  0  0  0  0  0  0  0
  187.3790  178.3500  141.0990 C   0  0  0  0  0  0  0  0  0  0  0  0
  187.1710  176.7560  134.5940 C   0  0  0  0  0  2  0  0  0  0  0  0
  188.3000  177.6420  135.1010 C   0  0  0  0  0  2  0  0  0  0  0  0
  189.2020  177.3280  139.8670 C   0  0  0  0  0  3  0  0  0  0  0  0
  187.6200  177.1660  137.4850 C   0  0  1  0  0  3  0  0  0  0  0  0
  190.0000  177.3710  141.0120 C   0  0  0  0  0  3  0  0  0  0  0  0
  188.1860  178.3900  142.2390 C   0  0  0  0  0  3  0  0  0  0  0  0
  186.9190  175.6220  135.5830 C   0  0  0  0  0  2  0  0  0  0  0  0
  185.6880  178.2640  138.7590 C   0  0  2  0  0  3  0  0  0  0  0  0
  185.1540  176.7670  136.9870 C   0  0  0  0  0  2  0  0  0  0  0  0
  189.0740  179.1390  136.9050 C   0  0  0  0  0  1  0  0  0  0  0  0
  186.1360  178.8220  141.1840 C   0  0  0  0  0  3  0  0  0  0  0  0
  185.2560  178.8060  140.0500 N   0  0  0  0  0  0  0  0  0  0  0  0
  189.4940  177.9040  142.2060 C   0  0  0  0  0  0  0  0  0  0  0  0
  187.8840  177.8160  139.8880 C   0  0  0  0  0  0  0  0  0  0  0  0
  184.7980  177.1760  138.3460 N   0  0  0  0  0  2  0  0  0  0  0  0
  181.5690  178.9710  140.8650 C   0  0  0  0  0  0  0  0  0  0  0  0
  181.1370  179.7310  139.7710 O   0  0  0  0  0  0  0  0  0  0  0  0
  183.9270  179.4040  140.1470 C   0  0  2  0  0  3  0  0  0  0  0  0
  182.0440  180.4390  138.9270 C   0  0  0  0  0  2  0  0  0  0  0  0
  182.9930  178.5150  140.9700 C   0  0  0  0  0  2  0  0  0  0  0  0
  183.3500  179.6750  138.7620 C   0  0  0  0  0  2  0  0  0  0  0  0
  180.7110  178.5760  141.7440 N   0  0  0  0  0  2  0  0  0  0  0  0
  190.2670  177.9600  143.3690 O   0  0  0  0  0  0  0  0  0  0  0  0
  189.7910  178.5340  144.5790 C   0  0  0  0  0  2  0  0  0  0  0  0
  186.6380  177.2540  145.2170 C   0  0  0  0  0  1  0  0  0  0  0  0
  187.7620  177.9920  145.9150 C   0  0  2  0  0  3  0  0  0  0  0  0
  188.9110  176.8520  147.7290 C   0  0  0  0  0  2  0  0  0  0  0  0
  189.9200  177.1530  146.6470 C   0  0  0  0  0  2  0  0  0  0  0  0
  189.0980  177.4740  145.4160 C   0  0  2  0  0  3  0  0  0  0  0  0
  187.7080  177.7130  147.4070 C   0  0  0  0  0  2  0  0  0  0  0  0
  1 11  1  6  0  0  0
  1 13  1  0  0  0  0
  1  8  1  0  0  0  0
  2 14  1  1  0  0  0
  2  8  1  0  0  0  0
  3 18  2  0  0  0  0
  4 15  2  0  0  0  0
  4 10  1  0  0  0  0
  5  6  1  0  0  0  0
  5 11  1  0  0  0  0
  6  2  1  0  0  0  0
  7 18  1  0  0  0  0
  7  9  2  0  0  0  0
  8  3  1  1  0  0  0
  9 17  1  0  0  0  0
 12 19  1  1  0  0  0
 12  3  1  0  0  0  0
 12 16  1  0  0  0  0
 13 19  1  0  0  0  0
 16 22  1  0  0  0  0
 16 15  1  0  0  0  0
 17 10  2  0  0  0  0
 17 27  1  0  0  0  0
 18  4  1  0  0  0  0
 20 24  1  0  0  0  0
 20 26  2  0  0  0  0
 21 20  1  0  0  0  0
 22 25  1  6  0  0  0
 22 24  1  0  0  0  0
 23 21  1  0  0  0  0
 25 23  1  0  0  0  0
 27 28  1  0  0  0  0
 30 29  1  6  0  0  0
 30 34  1  0  0  0  0
 32 31  1  0  0  0  0
 33 28  1  1  0  0  0
 33 30  1  0  0  0  0
 33 32  1  0  0  0  0
 34 31  1  0  0  0  0
M  END
>  <MODEL>
1

>  <REMARK>
 VINA RESULT:      -9.0      0.000      0.000
  Name = 
  4 active torsions:
  status: ('A' for Active; 'I' for Inactive)
    1  A    between atoms: O_3  and  C_13
    2  A    between atoms: O_3  and  C_29
    3  A    between atoms: C_12  and  N_28
    4  A    between atoms: C_13  and  C_33
                            x       y       z     vdW  Elec       q    Type
                         _______ _______ _______ _____ _____    ______ ____

>  <TORSDO>
F 4

$$$$
=
 OpenBabel10262419093D

 34 39  0  0  1  0  0  0  0  0999 V2000
  181.4850  180.7000  139.6600 C   0  0  2  0  0  3  0  0  0  0  0  0
  180.7600  178.2670  139.9420 C   0  0  1  0  0  3  0  0  0  0  0  0
  183.0100  179.0650  140.7340 C   0  0  0  0  0  0  0  0  0  0  0  0
  184.9100  178.5120  142.1090 C   0  0  0  0  0  0  0  0  0  0  0  0
  179.3250  179.8650  138.6620 C   0  0  0  0  0  2  0  0  0  0  0  0
  179.3290  178.6900  139.6290 C   0  0  0  0  0  2  0  0  0  0  0  0
  182.7260  178.8740  143.1020 C   0  0  0  0  0  3  0  0  0  0  0  0
  181.5590  179.4370  140.5470 C   0  0  1  0  0  3  0  0  0  0  0  0
  183.2600  178.6260  144.3670 C   0  0  0  0  0  3  0  0  0  0  0  0
  185.4350  178.2640  143.3800 C   0  0  0  0  0  3  0  0  0  0  0  0
  180.0460  181.0540  139.2890 C   0  0  0  0  0  2  0  0  0  0  0  0
  183.8510  179.0380  139.4730 C   0  0  2  0  0  3  0  0  0  0  0  0
  182.3650  180.5640  138.4100 C   0  0  0  0  0  2  0  0  0  0  0  0
  180.7140  177.0900  140.9010 C   0  0  0  0  0  1  0  0  0  0  0  0
  185.7300  178.4530  141.0610 C   0  0  0  0  0  3  0  0  0  0  0  0
  185.2540  178.7020  139.7300 N   0  0  0  0  0  0  0  0  0  0  0  0
  184.6200  178.3180  144.5120 C   0  0  0  0  0  0  0  0  0  0  0  0
  183.5370  178.8200  141.9540 C   0  0  0  0  0  0  0  0  0  0  0  0
  183.7580  180.3340  138.7960 N   0  0  0  0  0  2  0  0  0  0  0  0
  186.5410  177.2610  136.4820 C   0  0  0  0  0  0  0  0  0  0  0  0
  187.9140  177.3020  136.7530 O   0  0  0  0  0  0  0  0  0  0  0  0
  186.1550  178.5510  138.5900 C   0  0  2  0  0  3  0  0  0  0  0  0
  188.4560  178.0490  137.8410 C   0  0  0  0  0  2  0  0  0  0  0  0
  185.5380  177.6380  137.5300 C   0  0  0  0  0  2  0  0  0  0  0  0
  187.5170  178.0330  139.0390 C   0  0  0  0  0  2  0  0  0  0  0  0
  186.1310  176.8000  135.3480 N   0  0  0  0  0  2  0  0  0  0  0  0
  185.1850  178.0650  145.7650 O   0  0  0  0  0  0  0  0  0  0  0  0
  185.6810  179.0990  146.6060 C   0  0  0  0  0  2  0  0  0  0  0  0
  188.5290  177.7950  145.1330 C   0  0  0  0  0  1  0  0  0  0  0  0
  187.5990  177.5440  146.3030 C   0  0  2  0  0  3  0  0  0  0  0  0
  188.5110  177.7750  148.5450 C   0  0  0  0  0  2  0  0  0  0  0  0
  187.3930  178.7760  148.3840 C   0  0  0  0  0  2  0  0  0  0  0  0
  187.1530  178.8690  146.8920 C   0  0  2  0  0  3  0  0  0  0  0  0
  188.3440  176.8000  147.3980 C   0  0  0  0  0  2  0  0  0  0  0  0
  1 13  1  6  0  0  0
  1  8  1  0  0  0  0
  2  8  1  0  0  0  0
  2 14  1  1  0  0  0
  3 18  2  0  0  0  0
  4 10  1  0  0  0  0
  5 11  1  0  0  0  0
  5  6  1  0  0  0  0
  6  2  1  0  0  0  0
  7  9  2  0  0  0  0
  8  3  1  6  0  0  0
  9 17  1  0  0  0  0
 10 17  2  0  0  0  0
 11  1  1  0  0  0  0
 12 19  1  1  0  0  0
 12 16  1  0  0  0  0
 12  3  1  0  0  0  0
 13 19  1  0  0  0  0
 15  4  2  0  0  0  0
 16 15  1  0  0  0  0
 17 27  1  0  0  0  0
 18  4  1  0  0  0  0
 18  7  1  0  0  0  0
 20 21  1  0  0  0  0
 20 24  1  0  0  0  0
 21 23  1  0  0  0  0
 22 24  1  6  0  0  0
 22 25  1  0  0  0  0
 22 16  1  0  0  0  0
 23 25  1  0  0  0  0
 26 20  2  0  0  0  0
 27 28  1  0  0  0  0
 30 29  1  6  0  0  0
 30 33  1  0  0  0  0
 30 34  1  0  0  0  0
 32 31  1  0  0  0  0
 33 28  1  1  0  0  0
 33 32  1  0  0  0  0
 34 31  1  0  0  0  0
M  END
>  <MODEL>
2

>  <REMARK>
 VINA RESULT:      -8.5      2.323      5.792
  Name = 
  4 active torsions:
  status: ('A' for Active; 'I' for Inactive)
    1  A    between atoms: O_3  and  C_13
    2  A    between atoms: O_3  and  C_29
    3  A    between atoms: C_12  and  N_28
    4  A    between atoms: C_13  and  C_33
                            x       y       z     vdW  Elec       q    Type
                         _______ _______ _______ _____ _____    ______ ____

>  <TORSDO>
F 4

$$$$
=
 OpenBabel10262419093D

 34 39  0  0  1  0  0  0  0  0999 V2000
  186.9530  176.2880  136.7400 C   0  0  2  0  0  3  0  0  0  0  0  0
  188.1930  178.5220  136.6960 C   0  0  1  0  0  3  0  0  0  0  0  0
  186.6560  177.9110  138.5920 C   0  0  0  0  0  0  0  0  0  0  0  0
  186.0020  178.4760  140.8410 C   0  0  0  0  0  0  0  0  0  0  0  0
  188.3100  176.9810  134.7300 C   0  0  0  0  0  2  0  0  0  0  0  0
  189.0850  177.9690  135.5910 C   0  0  0  0  0  2  0  0  0  0  0  0
  188.2400  177.6660  140.3680 C   0  0  0  0  0  3  0  0  0  0  0  0
  187.6450  177.3850  137.5800 C   0  0  1  0  0  3  0  0  0  0  0  0
  188.5640  177.7700  141.7220 C   0  0  0  0  0  3  0  0  0  0  0  0
  186.3360  178.5780  142.1940 C   0  0  0  0  0  3  0  0  0  0  0  0
  187.8350  175.8120  135.5860 C   0  0  0  0  0  2  0  0  0  0  0  0
  185.2840  178.2590  138.0510 C   0  0  2  0  0  3  0  0  0  0  0  0
  185.5780  176.7470  136.2370 C   0  0  0  0  0  2  0  0  0  0  0  0
  189.0040  179.5060  137.5210 C   0  0  0  0  0  1  0  0  0  0  0  0
  184.7710  178.8180  140.4640 C   0  0  0  0  0  3  0  0  0  0  0  0
  184.3640  178.7320  139.0900 N   0  0  0  0  0  0  0  0  0  0  0  0
  187.6110  178.2280  142.6430 C   0  0  0  0  0  0  0  0  0  0  0  0
  186.9600  178.0180  139.9040 C   0  0  0  0  0  0  0  0  0  0  0  0
  184.7170  177.0930  137.3690 N   0  0  0  0  0  2  0  0  0  0  0  0
  181.5640  181.2060  138.5180 C   0  0  0  0  0  0  0  0  0  0  0  0
  180.4810  180.3990  138.8900 O   0  0  0  0  0  0  0  0  0  0  0  0
  183.0360  179.1890  138.6900 C   0  0  2  0  0  3  0  0  0  0  0  0
  180.5990  178.9860  139.0460 C   0  0  0  0  0  2  0  0  0  0  0  0
  182.9730  180.7170  138.6680 C   0  0  0  0  0  2  0  0  0  0  0  0
  181.9630  178.6070  139.6050 C   0  0  0  0  0  2  0  0  0  0  0  0
  181.3510  182.4190  138.1340 N   0  0  0  0  0  2  0  0  0  0  0  0
  187.9040  178.3420  144.0050 O   0  0  0  0  0  0  0  0  0  0  0  0
  188.3590  177.2450  144.7870 C   0  0  0  0  0  2  0  0  0  0  0  0
  191.5880  178.3660  144.2390 C   0  0  0  0  0  1  0  0  0  0  0  0
  190.8460  177.1690  144.7970 C   0  0  2  0  0  3  0  0  0  0  0  0
  191.1060  176.6770  147.1630 C   0  0  0  0  0  2  0  0  0  0  0  0
  189.6470  176.9560  146.8970 C   0  0  0  0  0  2  0  0  0  0  0  0
  189.6120  177.6380  145.5460 C   0  0  2  0  0  3  0  0  0  0  0  0
  191.7250  176.4450  145.8010 C   0  0  0  0  0  2  0  0  0  0  0  0
  1 11  1  6  0  0  0
  1  8  1  0  0  0  0
  2 14  1  1  0  0  0
  2  8  1  0  0  0  0
  3 18  2  0  0  0  0
  4 10  1  0  0  0  0
  5 11  1  0  0  0  0
  5  6  1  0  0  0  0
  6  2  1  0  0  0  0
  7  9  2  0  0  0  0
  8  3  1  1  0  0  0
  9 17  1  0  0  0  0
 10 17  2  0  0  0  0
 12 19  1  1  0  0  0
 12  3  1  0  0  0  0
 12 16  1  0  0  0  0
 13  1  1  0  0  0  0
 13 19  1  0  0  0  0
 15  4  2  0  0  0  0
 16 15  1  0  0  0  0
 17 27  1  0  0  0  0
 18  7  1  0  0  0  0
 18  4  1  0  0  0  0
 20 24  1  0  0  0  0
 20 21  1  0  0  0  0
 21 23  1  0  0  0  0
 22 24  1  1  0  0  0
 22 16  1  0  0  0  0
 22 25  1  0  0  0  0
 23 25  1  0  0  0  0
 26 20  2  0  0  0  0
 27 28  1  0  0  0  0
 30 29  1  1  0  0  0
 30 33  1  0  0  0  0
 30 34  1  0  0  0  0
 32 31  1  0  0  0  0
 33 28  1  6  0  0  0
 33 32  1  0  0  0  0
 34 31  1  0  0  0  0
M  END
>  <MODEL>
3

>  <REMARK>
 VINA RESULT:      -8.5      1.451      2.173
  Name = 
  4 active torsions:
  status: ('A' for Active; 'I' for Inactive)
    1  A    between atoms: O_3  and  C_13
    2  A    between atoms: O_3  and  C_29
    3  A    between atoms: C_12  and  N_28
    4  A    between atoms: C_13  and  C_33
                            x       y       z     vdW  Elec       q    Type
                         _______ _______ _______ _____ _____    ______ ____

>  <TORSDO>
F 4

$$$$
=
 OpenBabel10262419093D

 34 39  0  0  1  0  0  0  0  0999 V2000
  188.7900  178.2810  137.0210 C   0  0  2  0  0  3  0  0  0  0  0  0
  187.6170  176.0140  137.1370 C   0  0  1  0  0  3  0  0  0  0  0  0
  187.0480  177.8700  138.7380 C   0  0  0  0  0  0  0  0  0  0  0  0
  185.4330  178.6320  140.3550 C   0  0  0  0  0  0  0  0  0  0  0  0
  189.5280  176.3610  135.5620 C   0  0  0  0  0  2  0  0  0  0  0  0
  188.1750  175.6900  135.7560 C   0  0  0  0  0  2  0  0  0  0  0  0
  184.8270  178.3920  138.0190 C   0  0  0  0  0  3  0  0  0  0  0  0
  187.4720  177.5360  137.3280 C   0  0  1  0  0  3  0  0  0  0  0  0
  183.5320  178.8240  138.3100 C   0  0  0  0  0  3  0  0  0  0  0  0
  184.1340  179.0620  140.6380 C   0  0  0  0  0  3  0  0  0  0  0  0
  189.3740  177.8750  135.6680 C   0  0  0  0  0  2  0  0  0  0  0  0
  188.1290  177.7610  139.7930 C   0  0  2  0  0  3  0  0  0  0  0  0
  189.8160  178.0990  138.1480 C   0  0  0  0  0  2  0  0  0  0  0  0
  186.2750  175.3190  137.2890 C   0  0  0  0  0  1  0  0  0  0  0  0
  186.3090  178.5590  141.3560 C   0  0  0  0  0  3  0  0  0  0  0  0
  187.6600  178.1290  141.1320 N   0  0  0  0  0  0  0  0  0  0  0  0
  183.1780  179.1610  139.6240 C   0  0  0  0  0  0  0  0  0  0  0  0
  185.7960  178.2860  139.0310 C   0  0  0  0  0  0  0  0  0  0  0  0
  189.2710  178.5960  139.4120 N   0  0  0  0  0  2  0  0  0  0  0  0
  190.2510  176.4440  143.3070 C   0  0  0  0  0  0  0  0  0  0  0  0
  189.7800  176.8500  144.5620 O   0  0  0  0  0  0  0  0  0  0  0  0
  188.5770  177.9800  142.2580 C   0  0  2  0  0  3  0  0  0  0  0  0
  188.8160  177.8900  144.7170 C   0  0  0  0  0  2  0  0  0  0  0  0
  189.4890  176.7680  142.0580 C   0  0  0  0  0  2  0  0  0  0  0  0
  187.8110  177.8820  143.5740 C   0  0  0  0  0  2  0  0  0  0  0  0
  191.3020  175.6990  143.2330 N   0  0  0  0  0  2  0  0  0  0  0  0
  181.8910  179.5970  139.9490 O   0  0  0  0  0  0  0  0  0  0  0  0
  180.9690  178.7960  140.6760 C   0  0  0  0  0  2  0  0  0  0  0  0
  182.3920  178.9950  143.8250 C   0  0  0  0  0  1  0  0  0  0  0  0
  181.1610  178.4460  143.1320 C   0  0  2  0  0  3  0  0  0  0  0  0
  179.0060  179.4020  143.7260 C   0  0  0  0  0  2  0  0  0  0  0  0
  179.2410  179.6430  142.2540 C   0  0  0  0  0  2  0  0  0  0  0  0
  180.7210  179.4070  142.0420 C   0  0  2  0  0  3  0  0  0  0  0  0
  180.0160  178.3470  144.1250 C   0  0  0  0  0  2  0  0  0  0  0  0
  1 11  1  6  0  0  0
  1  8  1  0  0  0  0
  1 13  1  0  0  0  0
  2 14  1  6  0  0  0
  2  8  1  0  0  0  0
  3 18  2  0  0  0  0
  4 10  1  0  0  0  0
  4 15  2  0  0  0  0
  5 11  1  0  0  0  0
  5  6  1  0  0  0  0
  6  2  1  0  0  0  0
  7  9  2  0  0  0  0
  7 18  1  0  0  0  0
  8  3  1  1  0  0  0
  9 17  1  0  0  0  0
 12  3  1  6  0  0  0
 12 16  1  0  0  0  0
 13 19  1  0  0  0  0
 16 15  1  0  0  0  0
 17 27  1  0  0  0  0
 17 10  2  0  0  0  0
 18  4  1  0  0  0  0
 19 12  1  0  0  0  0
 20 21  1  0  0  0  0
 21 23  1  0  0  0  0
 22 16  1  6  0  0  0
 22 25  1  0  0  0  0
 24 22  1  0  0  0  0
 24 20  1  0  0  0  0
 25 23  1  0  0  0  0
 26 20  2  0  0  0  0
 27 28  1  0  0  0  0
 30 29  1  1  0  0  0
 30 34  1  0  0  0  0
 31 34  1  0  0  0  0
 32 31  1  0  0  0  0
 33 28  1  6  0  0  0
 33 32  1  0  0  0  0
 33 30  1  0  0  0  0
M  END
>  <MODEL>
4

>  <REMARK>
 VINA RESULT:      -8.2      2.192      6.566
  Name = 
  4 active torsions:
  status: ('A' for Active; 'I' for Inactive)
    1  A    between atoms: O_3  and  C_13
    2  A    between atoms: O_3  and  C_29
    3  A    between atoms: C_12  and  N_28
    4  A    between atoms: C_13  and  C_33
                            x       y       z     vdW  Elec       q    Type
                         _______ _______ _______ _____ _____    ______ ____

>  <TORSDO>
F 4

$$$$
=
 OpenBabel10262419093D

 34 39  0  0  1  0  0  0  0  0999 V2000
  191.0930  174.2870  137.5980 C   0  0  2  0  0  3  0  0  0  0  0  0
  192.5950  176.3500  137.4870 C   0  0  1  0  0  3  0  0  0  0  0  0
  190.3850  176.3990  138.6880 C   0  0  0  0  0  0  0  0  0  0  0  0
  189.0360  177.6380  140.2530 C   0  0  0  0  0  0  0  0  0  0  0  0
  193.1940  174.2900  136.2030 C   0  0  0  0  0  2  0  0  0  0  0  0
  193.7360  175.4550  137.0190 C   0  0  0  0  0  2  0  0  0  0  0  0
  191.1290  176.6280  140.9500 C   0  0  0  0  0  3  0  0  0  0  0  0
  191.5840  175.5540  138.3340 C   0  0  1  0  0  3  0  0  0  0  0  0
  190.9350  177.1170  142.2430 C   0  0  0  0  0  3  0  0  0  0  0  0
  188.8510  178.1240  141.5500 C   0  0  0  0  0  3  0  0  0  0  0  0
  192.2540  173.4500  137.0630 C   0  0  0  0  0  2  0  0  0  0  0  0
  189.3880  176.6290  137.5700 C   0  0  2  0  0  3  0  0  0  0  0  0
  190.0960  174.6330  136.4840 C   0  0  0  0  0  2  0  0  0  0  0  0
  193.1830  177.5000  138.2870 C   0  0  0  0  0  1  0  0  0  0  0  0
  188.1060  177.9040  139.3370 C   0  0  0  0  0  3  0  0  0  0  0  0
  188.2350  177.4300  137.9890 N   0  0  0  0  0  0  0  0  0  0  0  0
  189.7930  177.8700  142.5500 C   0  0  0  0  0  0  0  0  0  0  0  0
  190.1890  176.8800  139.9350 C   0  0  0  0  0  0  0  0  0  0  0  0
  188.9410  175.3380  137.0410 N   0  0  0  0  0  2  0  0  0  0  0  0
  185.0650  177.1310  135.9530 C   0  0  0  0  0  0  0  0  0  0  0  0
  185.5540  177.5810  134.7200 O   0  0  0  0  0  0  0  0  0  0  0  0
  187.2430  177.8040  136.9840 C   0  0  2  0  0  3  0  0  0  0  0  0
  186.8060  178.2520  134.5940 C   0  0  0  0  0  2  0  0  0  0  0  0
  185.9830  176.9480  137.1230 C   0  0  0  0  0  2  0  0  0  0  0  0
  187.8260  177.7010  135.5790 C   0  0  0  0  0  2  0  0  0  0  0  0
  183.8280  176.7770  136.0550 N   0  0  0  0  0  2  0  0  0  0  0  0
  189.5690  178.3730  143.8340 O   0  0  0  0  0  0  0  0  0  0  0  0
  190.1750  177.8150  144.9930 C   0  0  0  0  0  2  0  0  0  0  0  0
  186.7830  177.1280  145.0330 C   0  0  0  0  0  1  0  0  0  0  0  0
  187.8310  177.8860  145.8230 C   0  0  2  0  0  3  0  0  0  0  0  0
  188.3060  177.1330  148.0860 C   0  0  0  0  0  2  0  0  0  0  0  0
  189.5740  177.0190  147.2730 C   0  0  0  0  0  2  0  0  0  0  0  0
  189.1290  177.1000  145.8280 C   0  0  2  0  0  3  0  0  0  0  0  0
  187.3860  178.0160  147.2700 C   0  0  0  0  0  2  0  0  0  0  0  0
  1 13  1  6  0  0  0
  1  8  1  0  0  0  0
  2 14  1  1  0  0  0
  2  8  1  0  0  0  0
  3 18  2  0  0  0  0
  4 10  1  0  0  0  0
  5  6  1  0  0  0  0
  5 11  1  0  0  0  0
  6  2  1  0  0  0  0
  7  9  2  0  0  0  0
  8  3  1  6  0  0  0
  9 17  1  0  0  0  0
 10 17  2  0  0  0  0
 11  1  1  0  0  0  0
 12 19  1  1  0  0  0
 12 16  1  0  0  0  0
 12  3  1  0  0  0  0
 13 19  1  0  0  0  0
 15  4  2  0  0  0  0
 16 15  1  0  0  0  0
 17 27  1  0  0  0  0
 18  4  1  0  0  0  0
 18  7  1  0  0  0  0
 20 26  2  0  0  0  0
 20 24  1  0  0  0  0
 21 20  1  0  0  0  0
 22 25  1  6  0  0  0
 22 24  1  0  0  0  0
 22 16  1  0  0  0  0
 23 21  1  0  0  0  0
 23 25  1  0  0  0  0
 27 28  1  0  0  0  0
 30 29  1  6  0  0  0
 30 33  1  0  0  0  0
 30 34  1  0  0  0  0
 32 31  1  0  0  0  0
 33 28  1  6  0  0  0
 33 32  1  0  0  0  0
 34 31  1  0  0  0  0
M  END
>  <MODEL>
5

>  <REMARK>
 VINA RESULT:      -8.0      2.926      4.208
  Name = 
  4 active torsions:
  status: ('A' for Active; 'I' for Inactive)
    1  A    between atoms: O_3  and  C_13
    2  A    between atoms: O_3  and  C_29
    3  A    between atoms: C_12  and  N_28
    4  A    between atoms: C_13  and  C_33
                            x       y       z     vdW  Elec       q    Type
                         _______ _______ _______ _____ _____    ______ ____

>  <TORSDO>
F 4

$$$$
=
 OpenBabel10262419093D

 34 39  0  0  1  0  0  0  0  0999 V2000
  192.7640  176.7530  137.7630 C   0  0  2  0  0  3  0  0  0  0  0  0
  191.5060  174.5360  137.5930 C   0  0  1  0  0  3  0  0  0  0  0  0
  190.4340  176.5790  138.5940 C   0  0  0  0  0  0  0  0  0  0  0  0
  188.3380  177.5560  139.2720 C   0  0  0  0  0  0  0  0  0  0  0  0
  193.9240  174.6600  136.9670 C   0  0  0  0  0  2  0  0  0  0  0  0
  192.5760  174.0390  136.6270 C   0  0  0  0  0  2  0  0  0  0  0  0
  188.7700  177.0460  136.9390 C   0  0  0  0  0  3  0  0  0  0  0  0
  191.3940  176.0720  137.5460 C   0  0  1  0  0  3  0  0  0  0  0  0
  187.5060  177.5310  136.5990 C   0  0  0  0  0  3  0  0  0  0  0  0
  187.0740  178.0380  138.9210 C   0  0  0  0  0  3  0  0  0  0  0  0
  193.8410  176.1780  136.8430 C   0  0  0  0  0  2  0  0  0  0  0  0
  190.9530  176.5810  140.0170 C   0  0  2  0  0  3  0  0  0  0  0  0
  193.1980  176.6920  139.2340 C   0  0  0  0  0  2  0  0  0  0  0  0
  190.1850  173.8860  137.2210 C   0  0  0  0  0  1  0  0  0  0  0  0
  188.6970  177.5910  140.5540 C   0  0  0  0  0  3  0  0  0  0  0  0
  189.9840  177.1150  140.9780 N   0  0  0  0  0  0  0  0  0  0  0  0
  186.6500  178.0290  137.5910 C   0  0  0  0  0  0  0  0  0  0  0  0
  189.2070  177.0480  138.2760 C   0  0  0  0  0  0  0  0  0  0  0  0
  192.2000  177.3460  140.0810 N   0  0  0  0  0  2  0  0  0  0  0  0
  189.3730  177.3270  144.7020 C   0  0  0  0  0  0  0  0  0  0  0  0
  190.5580  177.9710  145.0810 O   0  0  0  0  0  0  0  0  0  0  0  0
  190.3210  177.0880  142.3980 C   0  0  2  0  0  3  0  0  0  0  0  0
  191.6800  178.0820  144.2070 C   0  0  0  0  0  2  0  0  0  0  0  0
  189.0550  177.0910  143.2560 C   0  0  0  0  0  2  0  0  0  0  0  0
  191.2360  178.2530  142.7620 C   0  0  0  0  0  2  0  0  0  0  0  0
  188.5010  177.0200  145.6010 N   0  0  0  0  0  2  0  0  0  0  0  0
  185.3790  178.5220  137.2830 O   0  0  0  0  0  0  0  0  0  0  0  0
  184.2420  177.6800  137.1430 C   0  0  0  0  0  2  0  0  0  0  0  0
  182.6320  180.3090  138.7170 C   0  0  0  0  0  1  0  0  0  0  0  0
  183.6460  179.2210  139.0040 C   0  0  2  0  0  3  0  0  0  0  0  0
  183.0390  177.5030  140.6140 C   0  0  0  0  0  2  0  0  0  0  0  0
  183.2910  176.8360  139.2830 C   0  0  0  0  0  2  0  0  0  0  0  0
  183.2560  177.9550  138.2640 C   0  0  2  0  0  3  0  0  0  0  0  0
  183.6350  178.8890  140.4860 C   0  0  0  0  0  2  0  0  0  0  0  0
  1 11  1  6  0  0  0
  1 13  1  0  0  0  0
  2 14  1  6  0  0  0
  4 15  2  0  0  0  0
  6  5  1  0  0  0  0
  6  2  1  0  0  0  0
  7 18  1  0  0  0  0
  8  2  1  0  0  0  0
  8  1  1  0  0  0  0
  8  3  1  1  0  0  0
  9  7  2  0  0  0  0
  9 17  1  0  0  0  0
 10  4  1  0  0  0  0
 11  5  1  0  0  0  0
 12  3  1  6  0  0  0
 12 19  1  0  0  0  0
 12 16  1  0  0  0  0
 13 19  1  0  0  0  0
 15 16  1  0  0  0  0
 17 10  2  0  0  0  0
 18  3  2  0  0  0  0
 18  4  1  0  0  0  0
 20 21  1  0  0  0  0
 20 26  2  0  0  0  0
 22 16  1  6  0  0  0
 22 25  1  0  0  0  0
 22 24  1  0  0  0  0
 23 21  1  0  0  0  0
 24 20  1  0  0  0  0
 25 23  1  0  0  0  0
 27 17  1  0  0  0  0
 28 27  1  0  0  0  0
 30 29  1  1  0  0  0
 30 34  1  0  0  0  0
 32 31  1  0  0  0  0
 33 28  1  6  0  0  0
 33 30  1  0  0  0  0
 33 32  1  0  0  0  0
 34 31  1  0  0  0  0
M  END
>  <MODEL>
6

>  <REMARK>
 VINA RESULT:      -7.9      3.291      7.152
  Name = 
  4 active torsions:
  status: ('A' for Active; 'I' for Inactive)
    1  A    between atoms: O_3  and  C_13
    2  A    between atoms: O_3  and  C_29
    3  A    between atoms: C_12  and  N_28
    4  A    between atoms: C_13  and  C_33
                            x       y       z     vdW  Elec       q    Type
                         _______ _______ _______ _____ _____    ______ ____

>  <TORSDO>
F 4

$$$$
=
 OpenBabel10262419093D

 34 39  0  0  1  0  0  0  0  0999 V2000
  192.7840  176.7530  137.5030 C   0  0  2  0  0  3  0  0  0  0  0  0
  191.4680  174.5640  137.5940 C   0  0  1  0  0  3  0  0  0  0  0  0
  190.5510  176.6880  138.5810 C   0  0  0  0  0  0  0  0  0  0  0  0
  188.5600  177.7570  139.4170 C   0  0  0  0  0  0  0  0  0  0  0  0
  193.8080  174.5880  136.7130 C   0  0  0  0  0  2  0  0  0  0  0  0
  192.4190  173.9860  136.5520 C   0  0  0  0  0  2  0  0  0  0  0  0
  188.7310  177.1080  137.0860 C   0  0  0  0  0  3  0  0  0  0  0  0
  191.3840  176.0980  137.4700 C   0  0  1  0  0  3  0  0  0  0  0  0
  187.4490  177.6070  136.8520 C   0  0  0  0  0  3  0  0  0  0  0  0
  187.2760  178.2530  139.1730 C   0  0  0  0  0  3  0  0  0  0  0  0
  193.7440  176.0980  136.5100 C   0  0  0  0  0  2  0  0  0  0  0  0
  191.2180  176.7550  139.9400 C   0  0  2  0  0  3  0  0  0  0  0  0
  193.3690  176.7610  138.9210 C   0  0  0  0  0  2  0  0  0  0  0  0
  190.1020  173.9310  137.4000 C   0  0  0  0  0  1  0  0  0  0  0  0
  189.0540  177.8530  140.6500 C   0  0  0  0  0  3  0  0  0  0  0  0
  190.3670  177.3670  140.9650 N   0  0  0  0  0  0  0  0  0  0  0  0
  186.7130  178.1820  137.8970 C   0  0  0  0  0  0  0  0  0  0  0  0
  189.3080  177.1710  138.3670 C   0  0  0  0  0  0  0  0  0  0  0  0
  192.4810  177.4880  139.8290 N   0  0  0  0  0  2  0  0  0  0  0  0
  191.4330  175.9920  144.3200 C   0  0  0  0  0  0  0  0  0  0  0  0
  190.9070  176.9950  145.1440 O   0  0  0  0  0  0  0  0  0  0  0  0
  190.8530  177.4100  142.3410 C   0  0  2  0  0  3  0  0  0  0  0  0
  190.4670  178.2530  144.6320 C   0  0  0  0  0  2  0  0  0  0  0  0
  191.1850  176.0030  142.8420 C   0  0  0  0  0  2  0  0  0  0  0  0
  189.8410  178.0950  143.2540 C   0  0  0  0  0  2  0  0  0  0  0  0
  192.0560  174.9950  144.8510 N   0  0  0  0  0  2  0  0  0  0  0  0
  185.4280  178.6910  137.6960 O   0  0  0  0  0  0  0  0  0  0  0  0
  184.2600  178.0450  138.1870 C   0  0  0  0  0  2  0  0  0  0  0  0
  184.3740  178.4650  141.6210 C   0  0  0  0  0  1  0  0  0  0  0  0
  183.4200  178.0250  140.5290 C   0  0  2  0  0  3  0  0  0  0  0  0
  181.4460  179.3880  140.1350 C   0  0  0  0  0  2  0  0  0  0  0  0
  182.2700  179.3740  138.8710 C   0  0  0  0  0  2  0  0  0  0  0  0
  183.6370  178.8770  139.2920 C   0  0  2  0  0  3  0  0  0  0  0  0
  181.9880  178.2540  140.9800 C   0  0  0  0  0  2  0  0  0  0  0  0
  1 11  1  6  0  0  0
  1 13  1  0  0  0  0
  2 14  1  6  0  0  0
  4 15  2  0  0  0  0
  6  5  1  0  0  0  0
  6  2  1  0  0  0  0
  7 18  1  0  0  0  0
  8  1  1  0  0  0  0
  8  2  1  0  0  0  0
  8  3  1  1  0  0  0
  9  7  2  0  0  0  0
  9 17  1  0  0  0  0
 10  4  1  0  0  0  0
 11  5  1  0  0  0  0
 12  3  1  6  0  0  0
 12 16  1  0  0  0  0
 13 19  1  0  0  0  0
 15 16  1  0  0  0  0
 17 10  2  0  0  0  0
 18  3  2  0  0  0  0
 18  4  1  0  0  0  0
 19 12  1  0  0  0  0
 20 26  2  0  0  0  0
 20 21  1  0  0  0  0
 22 16  1  6  0  0  0
 22 24  1  0  0  0  0
 22 25  1  0  0  0  0
 23 21  1  0  0  0  0
 24 20  1  0  0  0  0
 25 23  1  0  0  0  0
 27 17  1  0  0  0  0
 27 28  1  0  0  0  0
 30 34  1  0  0  0  0
 30 29  1  1  0  0  0
 31 34  1  0  0  0  0
 32 33  1  0  0  0  0
 32 31  1  0  0  0  0
 33 28  1  6  0  0  0
 33 30  1  0  0  0  0
M  END
>  <MODEL>
7

>  <REMARK>
 VINA RESULT:      -7.9      3.520      7.338
  Name = 
  4 active torsions:
  status: ('A' for Active; 'I' for Inactive)
    1  A    between atoms: O_3  and  C_13
    2  A    between atoms: O_3  and  C_29
    3  A    between atoms: C_12  and  N_28
    4  A    between atoms: C_13  and  C_33
                            x       y       z     vdW  Elec       q    Type
                         _______ _______ _______ _____ _____    ______ ____

>  <TORSDO>
F 4

$$$$
=
 OpenBabel10262419093D

 34 39  0  0  1  0  0  0  0  0999 V2000
  185.3240  179.4880  144.4100 C   0  0  2  0  0  3  0  0  0  0  0  0
  186.3440  177.1450  144.4280 C   0  0  1  0  0  3  0  0  0  0  0  0
  185.7360  178.2950  142.2750 C   0  0  0  0  0  0  0  0  0  0  0  0
  186.0280  178.2530  139.8840 C   0  0  0  0  0  0  0  0  0  0  0  0
  185.7180  178.2590  146.5770 C   0  0  0  0  0  2  0  0  0  0  0  0
  186.7340  177.3600  145.8860 C   0  0  0  0  0  2  0  0  0  0  0  0
  187.9130  178.6650  141.3550 C   0  0  0  0  0  3  0  0  0  0  0  0
  186.2510  178.4890  143.6810 C   0  0  1  0  0  3  0  0  0  0  0  0
  188.7540  178.7780  140.2460 C   0  0  0  0  0  3  0  0  0  0  0  0
  186.8780  178.3660  138.7800 C   0  0  0  0  0  3  0  0  0  0  0  0
  185.6810  179.6210  145.8910 C   0  0  0  0  0  2  0  0  0  0  0  0
  184.2500  178.0300  142.1480 C   0  0  2  0  0  3  0  0  0  0  0  0
  183.8450  179.1230  144.2240 C   0  0  0  0  0  2  0  0  0  0  0  0
  187.3790  176.2390  143.7840 C   0  0  0  0  0  1  0  0  0  0  0  0
  184.7370  178.0080  139.6680 C   0  0  0  0  0  3  0  0  0  0  0  0
  183.8120  177.8840  140.7580 N   0  0  0  0  0  0  0  0  0  0  0  0
  188.2400  178.6280  138.9510 C   0  0  0  0  0  0  0  0  0  0  0  0
  186.5420  178.4000  141.1950 C   0  0  0  0  0  0  0  0  0  0  0  0
  183.5040  179.1100  142.8010 N   0  0  0  0  0  2  0  0  0  0  0  0
  180.9330  175.9970  139.1970 C   0  0  0  0  0  0  0  0  0  0  0  0
  180.0350  177.0590  139.0400 O   0  0  0  0  0  0  0  0  0  0  0  0
  182.4180  177.5340  140.4980 C   0  0  2  0  0  3  0  0  0  0  0  0
  180.2190  178.3170  139.6870 C   0  0  0  0  0  2  0  0  0  0  0  0
  182.3260  176.2350  139.6960 C   0  0  0  0  0  2  0  0  0  0  0  0
  181.6950  178.6730  139.7860 C   0  0  0  0  0  2  0  0  0  0  0  0
  180.5910  174.8130  138.8160 N   0  0  0  0  0  2  0  0  0  0  0  0
  189.0540  178.7360  137.8210 O   0  0  0  0  0  0  0  0  0  0  0  0
  189.2720  177.6540  136.9250 C   0  0  0  0  0  2  0  0  0  0  0  0
  191.6800  176.7520  139.2420 C   0  0  0  0  0  1  0  0  0  0  0  0
  191.2860  176.4870  137.8030 C   0  0  2  0  0  3  0  0  0  0  0  0
  190.5880  174.2330  137.2180 C   0  0  0  0  0  2  0  0  0  0  0  0
  189.4370  175.1700  136.9430 C   0  0  0  0  0  2  0  0  0  0  0  0
  189.7730  176.4440  137.6900 C   0  0  2  0  0  3  0  0  0  0  0  0
  191.8020  175.1240  137.3750 C   0  0  0  0  0  2  0  0  0  0  0  0
  1 13  1  1  0  0  0
  1 11  1  0  0  0  0
  2 14  1  6  0  0  0
  2  6  1  0  0  0  0
  4 18  1  0  0  0  0
  6  5  1  0  0  0  0
  8  3  1  6  0  0  0
  8  1  1  0  0  0  0
  8  2  1  0  0  0  0
  9  7  2  0  0  0  0
 10 17  2  0  0  0  0
 10  4  1  0  0  0  0
 11  5  1  0  0  0  0
 12  3  1  6  0  0  0
 12 19  1  0  0  0  0
 15  4  2  0  0  0  0
 15 16  1  0  0  0  0
 16 12  1  0  0  0  0
 17  9  1  0  0  0  0
 18  7  1  0  0  0  0
 18  3  2  0  0  0  0
 19 13  1  0  0  0  0
 20 24  1  0  0  0  0
 21 20  1  0  0  0  0
 21 23  1  0  0  0  0
 22 24  1  6  0  0  0
 22 16  1  0  0  0  0
 23 25  1  0  0  0  0
 25 22  1  0  0  0  0
 26 20  2  0  0  0  0
 27 17  1  0  0  0  0
 28 27  1  0  0  0  0
 30 29  1  1  0  0  0
 31 34  1  0  0  0  0
 32 31  1  0  0  0  0
 32 33  1  0  0  0  0
 33 28  1  6  0  0  0
 33 30  1  0  0  0  0
 34 30  1  0  0  0  0
M  END
>  <MODEL>
8

>  <REMARK>
 VINA RESULT:      -7.7      2.544      6.641
  Name = 
  4 active torsions:
  status: ('A' for Active; 'I' for Inactive)
    1  A    between atoms: O_3  and  C_13
    2  A    between atoms: O_3  and  C_29
    3  A    between atoms: C_12  and  N_28
    4  A    between atoms: C_13  and  C_33
                            x       y       z     vdW  Elec       q    Type
                         _______ _______ _______ _____ _____    ______ ____

>  <TORSDO>
F 4

$$$$
=
 OpenBabel10262419093D

 34 39  0  0  1  0  0  0  0  0999 V2000
  188.1340  178.0800  135.6050 C   0  0  2  0  0  3  0  0  0  0  0  0
  187.1580  175.9150  136.5470 C   0  0  1  0  0  3  0  0  0  0  0  0
  189.3340  176.8510  137.3930 C   0  0  0  0  0  0  0  0  0  0  0  0
  190.9600  176.7280  139.1670 C   0  0  0  0  0  0  0  0  0  0  0  0
  186.0720  177.0360  134.5940 C   0  0  0  0  0  2  0  0  0  0  0  0
  185.8310  176.2600  135.8810 C   0  0  0  0  0  2  0  0  0  0  0  0
  188.6980  177.4850  139.6100 C   0  0  0  0  0  3  0  0  0  0  0  0
  187.9650  177.1900  136.8570 C   0  0  1  0  0  3  0  0  0  0  0  0
  189.0200  177.6610  140.9570 C   0  0  0  0  0  3  0  0  0  0  0  0
  191.2720  176.9060  140.5180 C   0  0  0  0  0  3  0  0  0  0  0  0
  186.8000  178.3400  134.9050 C   0  0  0  0  0  2  0  0  0  0  0  0
  190.3410  176.3670  136.3690 C   0  0  2  0  0  3  0  0  0  0  0  0
  189.1680  177.4950  134.6330 C   0  0  0  0  0  2  0  0  0  0  0  0
  186.8690  175.1360  137.8190 C   0  0  0  0  0  1  0  0  0  0  0  0
  191.9130  176.2860  138.3490 C   0  0  0  0  0  3  0  0  0  0  0  0
  191.6570  176.0860  136.9500 N   0  0  0  0  0  0  0  0  0  0  0  0
  190.3110  177.3710  141.4180 C   0  0  0  0  0  0  0  0  0  0  0  0
  189.6560  177.0150  138.6950 C   0  0  0  0  0  0  0  0  0  0  0  0
  190.4640  177.3590  135.2980 N   0  0  0  0  0  2  0  0  0  0  0  0
  193.9360  173.4240  135.5350 C   0  0  0  0  0  0  0  0  0  0  0  0
  195.0860  174.1990  135.3460 O   0  0  0  0  0  0  0  0  0  0  0  0
  192.6940  175.5240  136.0900 C   0  0  2  0  0  3  0  0  0  0  0  0
  195.0630  175.6250  135.3910 C   0  0  0  0  0  2  0  0  0  0  0  0
  192.7220  173.9990  136.1990 C   0  0  0  0  0  2  0  0  0  0  0  0
  194.0570  176.1240  136.4190 C   0  0  0  0  0  2  0  0  0  0  0  0
  193.9540  172.1720  135.2230 N   0  0  0  0  0  2  0  0  0  0  0  0
  190.6660  177.5380  142.7600 O   0  0  0  0  0  0  0  0  0  0  0  0
  189.8730  178.2800  143.6770 C   0  0  0  0  0  2  0  0  0  0  0  0
  186.7750  177.1260  144.7030 C   0  0  0  0  0  1  0  0  0  0  0  0
  187.9490  177.9350  145.2160 C   0  0  2  0  0  3  0  0  0  0  0  0
  189.2280  177.0220  147.0710 C   0  0  0  0  0  2  0  0  0  0  0  0
  190.1530  177.1720  145.8880 C   0  0  0  0  0  2  0  0  0  0  0  0
  189.2430  177.3420  144.6900 C   0  0  2  0  0  3  0  0  0  0  0  0
  188.0050  177.8480  146.7310 C   0  0  0  0  0  2  0  0  0  0  0  0
  1 13  1  6  0  0  0
  1  8  1  0  0  0  0
  2  8  1  0  0  0  0
  2 14  1  1  0  0  0
  3 18  2  0  0  0  0
  4 10  1  0  0  0  0
  5 11  1  0  0  0  0
  5  6  1  0  0  0  0
  6  2  1  0  0  0  0
  7  9  2  0  0  0  0
  8  3  1  6  0  0  0
  9 17  1  0  0  0  0
 10 17  2  0  0  0  0
 11  1  1  0  0  0  0
 12 19  1  6  0  0  0
 12 16  1  0  0  0  0
 12  3  1  0  0  0  0
 13 19  1  0  0  0  0
 15  4  2  0  0  0  0
 16 15  1  0  0  0  0
 17 27  1  0  0  0  0
 18  4  1  0  0  0  0
 18  7  1  0  0  0  0
 20 24  1  0  0  0  0
 21 23  1  0  0  0  0
 21 20  1  0  0  0  0
 22 24  1  1  0  0  0
 22 25  1  0  0  0  0
 22 16  1  0  0  0  0
 23 25  1  0  0  0  0
 26 20  2  0  0  0  0
 27 28  1  0  0  0  0
 30 29  1  6  0  0  0
 30 34  1  0  0  0  0
 32 31  1  0  0  0  0
 33 28  1  6  0  0  0
 33 30  1  0  0  0  0
 33 32  1  0  0  0  0
 34 31  1  0  0  0  0
M  END
>  <MODEL>
9

>  <REMARK>
 VINA RESULT:      -7.7      4.031      6.879
  Name = 
  4 active torsions:
  status: ('A' for Active; 'I' for Inactive)
    1  A    between atoms: O_3  and  C_13
    2  A    between atoms: O_3  and  C_29
    3  A    between atoms: C_12  and  N_28
    4  A    between atoms: C_13  and  C_33
                            x       y       z     vdW  Elec       q    Type
                         _______ _______ _______ _____ _____    ______ ____

>  <TORSDO>
F 4

$$$$
