=
 OpenBabel10262421363D

 32 37  0  0  1  0  0  0  0  0999 V2000
  188.4010  177.3770  145.2320 C   0  0  0  0  0  0  0  0  0  0  0  0
  191.2900  177.4020  141.1620 C   0  0  0  0  0  0  0  0  0  0  0  0
  188.1840  178.3460  137.4640 C   0  0  0  0  0  3  0  0  0  0  0  0
  189.0600  177.7970  136.5270 C   0  0  0  0  0  3  0  0  0  0  0  0
  190.5100  177.2560  143.3910 C   0  0  0  0  0  0  0  0  0  0  0  0
  188.9620  177.6760  141.6190 N   0  0  0  0  0  0  0  0  0  0  0  0
  188.1460  177.5660  143.8650 C   0  0  0  0  0  3  0  0  0  0  0  0
  188.4890  178.2860  138.8240 C   0  0  0  0  0  3  0  0  0  0  0  0
  189.9760  177.6200  140.7100 C   0  0  0  0  0  0  0  0  0  0  0  0
  189.6770  177.6860  139.2620 C   0  0  0  0  0  0  0  0  0  0  0  0
  191.8140  176.4070  138.7970 C   0  0  2  0  0  3  0  0  0  0  0  0
  189.7070  177.1240  145.6690 C   0  0  0  0  0  3  0  0  0  0  0  0
  189.1960  177.5080  142.9460 C   0  0  0  0  0  0  0  0  0  0  0  0
  190.7610  177.0650  144.7520 C   0  0  0  0  0  3  0  0  0  0  0  0
  190.2420  177.1860  136.9500 C   0  0  0  0  0  3  0  0  0  0  0  0
  190.5690  177.1270  138.3160 C   0  0  0  0  0  0  0  0  0  0  0  0
  191.5230  177.2120  142.4880 N   0  0  0  0  0  0  0  0  0  0  0  0
  192.6740  177.4410  140.0190 S   0  0  0  0  0  0  0  0  0  0  0  0
  187.8120  177.3900  147.5300 O   0  0  0  0  0  1  0  0  0  0  0  0
  187.2920  177.4250  146.2350 C   0  0  1  0  0  3  0  0  0  0  0  0
  186.4440  178.6740  146.0490 C   0  0  0  0  0  3  0  0  0  0  0  0
  185.0560  178.2780  145.5830 C   0  0  0  0  0  2  0  0  0  0  0  0
  185.2910  178.6510  147.0310 C   0  0  0  0  0  2  0  0  0  0  0  0
  192.7920  176.0420  137.6840 C   0  0  0  0  0  2  0  0  0  0  0  0
  193.0970  174.6110  137.7230 N   0  0  0  0  0  0  0  0  0  0  0  0
  192.2910  173.9260  136.7910 N   0  0  0  0  0  2  0  0  0  0  0  0
  190.9210  173.6630  136.9850 C   0  0  0  0  0  0  0  0  0  0  0  0
  189.7960  173.4470  137.1440 N   0  0  0  0  0  0  0  0  0  0  0  0
  194.5200  174.3390  137.4670 C   0  0  0  0  0  2  0  0  0  0  0  0
  195.2820  173.8310  138.6900 C   0  0  1  0  0  3  0  0  0  0  0  0
  196.7140  174.1730  138.5640 C   0  0  0  0  0  2  0  0  0  0  0  0
  195.8420  174.9310  139.3640 O   0  0  0  0  0  0  0  0  0  0  0  0
  1 12  1  0  0  0  0
  1 20  1  0  0  0  0
  2 17  1  0  0  0  0
  3  8  1  0  0  0  0
  4 15  1  0  0  0  0
  4  3  2  0  0  0  0
  5 14  1  0  0  0  0
  6 13  2  0  0  0  0
  7  1  2  0  0  0  0
  8 10  2  0  0  0  0
  9  2  2  0  0  0  0
  9  6  1  0  0  0  0
 10  9  1  0  0  0  0
 11 24  1  6  0  0  0
 11 18  1  0  0  0  0
 13  5  1  0  0  0  0
 13  7  1  0  0  0  0
 14 12  2  0  0  0  0
 15 16  2  0  0  0  0
 16 11  1  0  0  0  0
 16 10  1  0  0  0  0
 17  5  2  0  0  0  0
 18  2  1  0  0  0  0
 20 19  1  1  0  0  0
 21 20  1  0  0  0  0
 21 23  1  0  0  0  0
 22 21  1  0  0  0  0
 22 23  1  0  0  0  0
 24 25  1  0  0  0  0
 26 27  1  0  0  0  0
 26 25  1  0  0  0  0
 27 28  3  0  0  0  0
 29 25  1  0  0  0  0
 30 29  1  6  0  0  0
 30 32  1  0  0  0  0
 31 30  1  0  0  0  0
 31 32  1  0  0  0  0
M  END
>  <MODEL>
1

>  <REMARK>
 VINA RESULT:      -8.3      0.000      0.000
  Name = 
  8 active torsions:
  status: ('A' for Active; 'I' for Inactive)
    1  A    between atoms: C_1  and  C_24
    2  A    between atoms: C_2  and  C_24
    3  A    between atoms: C_6  and  N_7
    4  A    between atoms: N_7  and  N_32
    5  A    between atoms: C_11  and  C_22
    6  A    between atoms: C_16  and  C_27
    7  A    between atoms: C_22  and  N_32
    8  A    between atoms: C_27  and  N_32
                            x       y       z     vdW  Elec       q    Type
                         _______ _______ _______ _____ _____    ______ ____

>  <TORSDO>
F 8

$$$$
=
 OpenBabel10262421363D

 32 37  0  0  1  0  0  0  0  0999 V2000
  189.7700  177.1120  145.1690 C   0  0  0  0  0  0  0  0  0  0  0  0
  189.0350  177.9500  140.3040 C   0  0  0  0  0  0  0  0  0  0  0  0
  184.2920  179.2240  139.9860 C   0  0  0  0  0  3  0  0  0  0  0  0
  184.2440  178.8850  138.6340 C   0  0  0  0  0  3  0  0  0  0  0  0
  190.0070  177.4150  142.3930 C   0  0  0  0  0  0  0  0  0  0  0  0
  187.6910  177.9900  142.2770 N   0  0  0  0  0  0  0  0  0  0  0  0
  188.6510  177.4860  144.4090 C   0  0  0  0  0  3  0  0  0  0  0  0
  185.4500  178.9810  140.7270 C   0  0  0  0  0  3  0  0  0  0  0  0
  187.7870  178.1420  140.9270 C   0  0  0  0  0  0  0  0  0  0  0  0
  186.5750  178.4050  140.1210 C   0  0  0  0  0  0  0  0  0  0  0  0
  187.7190  177.3610  138.1170 C   0  0  2  0  0  3  0  0  0  0  0  0
  190.9990  176.8860  144.5360 C   0  0  0  0  0  3  0  0  0  0  0  0
  188.7680  177.6410  143.0260 C   0  0  0  0  0  0  0  0  0  0  0  0
  191.1190  177.0390  143.1510 C   0  0  0  0  0  3  0  0  0  0  0  0
  185.3530  178.3000  138.0210 C   0  0  0  0  0  3  0  0  0  0  0  0
  186.5310  178.0580  138.7490 C   0  0  0  0  0  0  0  0  0  0  0  0
  190.1090  177.5780  141.0500 N   0  0  0  0  0  0  0  0  0  0  0  0
  189.2420  178.2560  138.5470 S   0  0  0  0  0  0  0  0  0  0  0  0
  190.9350  177.0060  147.2330 O   0  0  0  0  0  1  0  0  0  0  0  0
  189.6680  176.9310  146.6500 C   0  0  1  0  0  3  0  0  0  0  0  0
  188.7510  177.9770  147.2650 C   0  0  0  0  0  3  0  0  0  0  0  0
  188.0050  177.3710  148.4370 C   0  0  0  0  0  2  0  0  0  0  0  0
  189.1980  178.2700  148.6820 C   0  0  0  0  0  2  0  0  0  0  0  0
  187.6340  177.2360  136.5980 C   0  0  0  0  0  2  0  0  0  0  0  0
  187.7350  175.8340  136.1960 N   0  0  0  0  0  0  0  0  0  0  0  0
  189.0860  175.4960  135.9750 N   0  0  0  0  0  2  0  0  0  0  0  0
  189.8360  174.6680  136.8330 C   0  0  0  0  0  0  0  0  0  0  0  0
  190.4510  173.9870  137.5370 N   0  0  0  0  0  0  0  0  0  0  0  0
  187.1350  174.9260  137.1860 C   0  0  0  0  0  2  0  0  0  0  0  0
  185.9370  174.1400  136.6580 C   0  0  1  0  0  3  0  0  0  0  0  0
  185.6190  173.0320  137.5820 C   0  0  0  0  0  2  0  0  0  0  0  0
  184.8880  174.2320  137.5910 O   0  0  0  0  0  0  0  0  0  0  0  0
  1 20  1  0  0  0  0
  2  9  2  0  0  0  0
  2 17  1  0  0  0  0
  3  8  1  0  0  0  0
  4  3  2  0  0  0  0
  5 13  1  0  0  0  0
  5 14  1  0  0  0  0
  6 13  2  0  0  0  0
  7  1  2  0  0  0  0
  9  6  1  0  0  0  0
 10  8  2  0  0  0  0
 10  9  1  0  0  0  0
 11 24  1  6  0  0  0
 11 18  1  0  0  0  0
 11 16  1  0  0  0  0
 12  1  1  0  0  0  0
 13  7  1  0  0  0  0
 14 12  2  0  0  0  0
 15  4  1  0  0  0  0
 15 16  2  0  0  0  0
 16 10  1  0  0  0  0
 17  5  2  0  0  0  0
 18  2  1  0  0  0  0
 20 19  1  1  0  0  0
 20 21  1  0  0  0  0
 21 22  1  0  0  0  0
 21 23  1  0  0  0  0
 22 23  1  0  0  0  0
 25 24  1  0  0  0  0
 25 29  1  0  0  0  0
 26 25  1  0  0  0  0
 26 27  1  0  0  0  0
 27 28  3  0  0  0  0
 30 29  1  1  0  0  0
 30 31  1  0  0  0  0
 30 32  1  0  0  0  0
 31 32  1  0  0  0  0
M  END
>  <MODEL>
2

>  <REMARK>
 VINA RESULT:      -7.9      3.215      4.717
  Name = 
  8 active torsions:
  status: ('A' for Active; 'I' for Inactive)
    1  A    between atoms: C_1  and  C_24
    2  A    between atoms: C_2  and  C_24
    3  A    between atoms: C_6  and  N_7
    4  A    between atoms: N_7  and  N_32
    5  A    between atoms: C_11  and  C_22
    6  A    between atoms: C_16  and  C_27
    7  A    between atoms: C_22  and  N_32
    8  A    between atoms: C_27  and  N_32
                            x       y       z     vdW  Elec       q    Type
                         _______ _______ _______ _____ _____    ______ ____

>  <TORSDO>
F 8

$$$$
=
 OpenBabel10262421363D

 32 37  0  0  1  0  0  0  0  0999 V2000
  188.0750  177.5650  144.9490 C   0  0  0  0  0  0  0  0  0  0  0  0
  184.8410  178.6670  141.3120 C   0  0  0  0  0  0  0  0  0  0  0  0
  180.4960  179.0030  143.5980 C   0  0  0  0  0  3  0  0  0  0  0  0
  179.8020  178.7820  142.4090 C   0  0  0  0  0  3  0  0  0  0  0  0
  186.8090  178.1530  142.5200 C   0  0  0  0  0  0  0  0  0  0  0  0
  184.7130  178.2670  143.6620 N   0  0  0  0  0  0  0  0  0  0  0  0
  186.6890  177.7770  144.9180 C   0  0  0  0  0  3  0  0  0  0  0  0
  181.8900  178.9290  143.6180 C   0  0  0  0  0  3  0  0  0  0  0  0
  184.0800  178.5540  142.4900 C   0  0  0  0  0  0  0  0  0  0  0  0
  182.6040  178.6420  142.4460 C   0  0  0  0  0  0  0  0  0  0  0  0
  182.6730  178.0260  139.9900 C   0  0  2  0  0  3  0  0  0  0  0  0
  188.8190  177.6430  143.7660 C   0  0  0  0  0  3  0  0  0  0  0  0
  186.0550  178.0730  143.7090 C   0  0  0  0  0  0  0  0  0  0  0  0
  188.1890  177.9380  142.5530 C   0  0  0  0  0  3  0  0  0  0  0  0
  180.5000  178.4840  141.2370 C   0  0  0  0  0  3  0  0  0  0  0  0
  181.9040  178.4160  141.2370 C   0  0  0  0  0  0  0  0  0  0  0  0
  186.1830  178.4510  141.3530 N   0  0  0  0  0  0  0  0  0  0  0  0
  184.0740  179.1630  139.7660 S   0  0  0  0  0  0  0  0  0  0  0  0
  190.1570  177.2280  146.0370 O   0  0  0  0  0  1  0  0  0  0  0  0
  188.7750  177.2370  146.2310 C   0  0  1  0  0  3  0  0  0  0  0  0
  188.4100  178.2340  147.3200 C   0  0  0  0  0  3  0  0  0  0  0  0
  187.9730  177.4870  148.5640 C   0  0  0  0  0  2  0  0  0  0  0  0
  189.3640  178.0780  148.4870 C   0  0  0  0  0  2  0  0  0  0  0  0
  181.8340  178.0220  138.7150 C   0  0  0  0  0  2  0  0  0  0  0  0
  181.8300  176.6890  138.1120 N   0  0  0  0  0  0  0  0  0  0  0  0
  182.8260  175.8910  138.7110 N   0  0  0  0  0  2  0  0  0  0  0  0
  183.6040  174.9510  138.0070 C   0  0  0  0  0  0  0  0  0  0  0  0
  184.2420  174.1790  137.4280 N   0  0  0  0  0  0  0  0  0  0  0  0
  180.5170  176.0330  138.2180 C   0  0  0  0  0  2  0  0  0  0  0  0
  180.3380  175.2100  139.4930 C   0  0  1  0  0  3  0  0  0  0  0  0
  178.9550  175.3530  139.9900 C   0  0  0  0  0  2  0  0  0  0  0  0
  179.3640  174.2230  139.2620 O   0  0  0  0  0  0  0  0  0  0  0  0
  1 20  1  0  0  0  0
  2 17  2  0  0  0  0
  2  9  1  0  0  0  0
  3  8  1  0  0  0  0
  4  3  2  0  0  0  0
  5 14  2  0  0  0  0
  5 13  1  0  0  0  0
  6 13  1  0  0  0  0
  7  1  1  0  0  0  0
  9  6  2  0  0  0  0
 10  9  1  0  0  0  0
 10  8  2  0  0  0  0
 11 24  1  6  0  0  0
 11 16  1  0  0  0  0
 12  1  2  0  0  0  0
 13  7  2  0  0  0  0
 14 12  1  0  0  0  0
 15  4  1  0  0  0  0
 16 15  2  0  0  0  0
 16 10  1  0  0  0  0
 17  5  1  0  0  0  0
 18 11  1  0  0  0  0
 18  2  1  0  0  0  0
 20 19  1  6  0  0  0
 20 21  1  0  0  0  0
 21 23  1  0  0  0  0
 21 22  1  0  0  0  0
 23 22  1  0  0  0  0
 25 29  1  0  0  0  0
 25 26  1  0  0  0  0
 25 24  1  0  0  0  0
 27 26  1  0  0  0  0
 28 27  3  0  0  0  0
 30 29  1  6  0  0  0
 30 31  1  0  0  0  0
 32 30  1  0  0  0  0
 32 31  1  0  0  0  0
M  END
>  <MODEL>
3

>  <REMARK>
 VINA RESULT:      -7.8      5.509      8.667
  Name = 
  8 active torsions:
  status: ('A' for Active; 'I' for Inactive)
    1  A    between atoms: C_1  and  C_24
    2  A    between atoms: C_2  and  C_24
    3  A    between atoms: C_6  and  N_7
    4  A    between atoms: N_7  and  N_32
    5  A    between atoms: C_11  and  C_22
    6  A    between atoms: C_16  and  C_27
    7  A    between atoms: C_22  and  N_32
    8  A    between atoms: C_27  and  N_32
                            x       y       z     vdW  Elec       q    Type
                         _______ _______ _______ _____ _____    ______ ____

>  <TORSDO>
F 8

$$$$
=
 OpenBabel10262421363D

 32 37  0  0  1  0  0  0  0  0999 V2000
  189.9150  177.1150  145.3450 C   0  0  0  0  0  0  0  0  0  0  0  0
  189.3620  177.7910  140.4310 C   0  0  0  0  0  0  0  0  0  0  0  0
  184.6590  179.1430  139.9050 C   0  0  0  0  0  3  0  0  0  0  0  0
  184.6500  178.7560  138.5650 C   0  0  0  0  0  3  0  0  0  0  0  0
  190.2520  177.3130  142.5700 C   0  0  0  0  0  0  0  0  0  0  0  0
  187.9530  177.9280  142.3550 N   0  0  0  0  0  0  0  0  0  0  0  0
  188.8310  177.4830  144.5350 C   0  0  0  0  0  3  0  0  0  0  0  0
  185.7860  178.9040  140.6940 C   0  0  0  0  0  3  0  0  0  0  0  0
  188.0980  178.0290  141.0030 C   0  0  0  0  0  0  0  0  0  0  0  0
  186.9190  178.2850  140.1470 C   0  0  0  0  0  0  0  0  0  0  0  0
  188.1090  177.1480  138.2220 C   0  0  2  0  0  3  0  0  0  0  0  0
  191.1600  176.8440  144.7630 C   0  0  0  0  0  3  0  0  0  0  0  0
  188.9970  177.5860  143.1520 C   0  0  0  0  0  0  0  0  0  0  0  0
  191.3300  176.9440  143.3790 C   0  0  0  0  0  3  0  0  0  0  0  0
  185.7670  178.1280  138.0120 C   0  0  0  0  0  3  0  0  0  0  0  0
  186.9140  177.8900  138.7880 C   0  0  0  0  0  0  0  0  0  0  0  0
  190.4020  177.4260  141.2260 N   0  0  0  0  0  0  0  0  0  0  0  0
  189.6340  178.0290  138.6730 S   0  0  0  0  0  0  0  0  0  0  0  0
  191.0050  177.0840  147.4530 O   0  0  0  0  0  1  0  0  0  0  0  0
  189.7600  176.9900  146.8280 C   0  0  1  0  0  3  0  0  0  0  0  0
  188.8260  178.0620  147.3690 C   0  0  0  0  0  3  0  0  0  0  0  0
  187.9270  177.4590  148.4310 C   0  0  0  0  0  2  0  0  0  0  0  0
  189.1230  178.2940  148.8370 C   0  0  0  0  0  2  0  0  0  0  0  0
  188.0720  176.9700  136.7070 C   0  0  0  0  0  2  0  0  0  0  0  0
  188.0720  175.5490  136.3610 N   0  0  0  0  0  0  0  0  0  0  0  0
  187.1350  175.3070  135.3350 N   0  0  0  0  0  2  0  0  0  0  0  0
  185.7420  175.2680  135.5410 C   0  0  0  0  0  0  0  0  0  0  0  0
  184.5980  175.2350  135.7090 N   0  0  0  0  0  0  0  0  0  0  0  0
  189.4050  175.0740  135.9580 C   0  0  0  0  0  2  0  0  0  0  0  0
  189.9580  173.9600  136.8460 C   0  0  1  0  0  3  0  0  0  0  0  0
  191.4150  174.1330  137.0150 C   0  0  0  0  0  2  0  0  0  0  0  0
  190.5050  174.5350  138.0070 O   0  0  0  0  0  0  0  0  0  0  0  0
  1 20  1  0  0  0  0
  2  9  2  0  0  0  0
  2 17  1  0  0  0  0
  3  8  1  0  0  0  0
  4  3  2  0  0  0  0
  5 13  1  0  0  0  0
  5 14  1  0  0  0  0
  6 13  2  0  0  0  0
  7  1  2  0  0  0  0
  9  6  1  0  0  0  0
 10  8  2  0  0  0  0
 10  9  1  0  0  0  0
 11 24  1  6  0  0  0
 11 18  1  0  0  0  0
 11 16  1  0  0  0  0
 12  1  1  0  0  0  0
 13  7  1  0  0  0  0
 14 12  2  0  0  0  0
 15  4  1  0  0  0  0
 15 16  2  0  0  0  0
 16 10  1  0  0  0  0
 17  5  2  0  0  0  0
 18  2  1  0  0  0  0
 20 21  1  0  0  0  0
 20 19  1  1  0  0  0
 21 22  1  0  0  0  0
 21 23  1  0  0  0  0
 22 23  1  0  0  0  0
 25 24  1  0  0  0  0
 26 27  1  0  0  0  0
 26 25  1  0  0  0  0
 27 28  3  0  0  0  0
 29 25  1  0  0  0  0
 30 29  1  6  0  0  0
 30 31  1  0  0  0  0
 30 32  1  0  0  0  0
 31 32  1  0  0  0  0
M  END
>  <MODEL>
4

>  <REMARK>
 VINA RESULT:      -7.8      2.786      3.856
  Name = 
  8 active torsions:
  status: ('A' for Active; 'I' for Inactive)
    1  A    between atoms: C_1  and  C_24
    2  A    between atoms: C_2  and  C_24
    3  A    between atoms: C_6  and  N_7
    4  A    between atoms: N_7  and  N_32
    5  A    between atoms: C_11  and  C_22
    6  A    between atoms: C_16  and  C_27
    7  A    between atoms: C_22  and  N_32
    8  A    between atoms: C_27  and  N_32
                            x       y       z     vdW  Elec       q    Type
                         _______ _______ _______ _____ _____    ______ ____

>  <TORSDO>
F 8

$$$$
=
 OpenBabel10262421363D

 32 37  0  0  1  0  0  0  0  0999 V2000
  188.0030  177.5120  144.8820 C   0  0  0  0  0  0  0  0  0  0  0  0
  184.6370  178.6550  141.3800 C   0  0  0  0  0  0  0  0  0  0  0  0
  180.3920  179.0360  143.8410 C   0  0  0  0  0  3  0  0  0  0  0  0
  179.6470  178.8240  142.6810 C   0  0  0  0  0  3  0  0  0  0  0  0
  186.6450  178.1170  142.5070 C   0  0  0  0  0  0  0  0  0  0  0  0
  184.5990  178.2530  143.7330 N   0  0  0  0  0  0  0  0  0  0  0  0
  186.6190  177.7390  144.9080 C   0  0  0  0  0  3  0  0  0  0  0  0
  181.7840  178.9460  143.8040 C   0  0  0  0  0  3  0  0  0  0  0  0
  183.9230  178.5490  142.5880 C   0  0  0  0  0  0  0  0  0  0  0  0
  182.4470  178.6530  142.6030 C   0  0  0  0  0  0  0  0  0  0  0  0
  182.4090  178.0400  140.1460 C   0  0  2  0  0  3  0  0  0  0  0  0
  188.6990  177.5840  143.6690 C   0  0  0  0  0  3  0  0  0  0  0  0
  185.9400  178.0440  143.7260 C   0  0  0  0  0  0  0  0  0  0  0  0
  188.0230  177.8870  142.4830 C   0  0  0  0  0  3  0  0  0  0  0  0
  180.2940  178.5200  141.4810 C   0  0  0  0  0  3  0  0  0  0  0  0
  181.6960  178.4370  141.4240 C   0  0  0  0  0  0  0  0  0  0  0  0
  185.9760  178.4240  141.3670 N   0  0  0  0  0  0  0  0  0  0  0  0
  183.8120  179.1620  139.8670 S   0  0  0  0  0  0  0  0  0  0  0  0
  190.1200  177.1070  145.8740 O   0  0  0  0  0  1  0  0  0  0  0  0
  188.7500  177.1750  146.1340 C   0  0  1  0  0  3  0  0  0  0  0  0
  188.4780  178.2010  147.2230 C   0  0  0  0  0  3  0  0  0  0  0  0
  187.9310  177.5030  148.4520 C   0  0  0  0  0  2  0  0  0  0  0  0
  189.3820  177.9300  148.4080 C   0  0  0  0  0  2  0  0  0  0  0  0
  181.5190  178.0470  138.9070 C   0  0  0  0  0  2  0  0  0  0  0  0
  182.0520  178.9670  137.9020 N   0  0  0  0  0  0  0  0  0  0  0  0
  182.3860  178.2550  136.7310 N   0  0  0  0  0  2  0  0  0  0  0  0
  183.3610  177.2400  136.6840 C   0  0  0  0  0  0  0  0  0  0  0  0
  184.1620  176.4070  136.6450 N   0  0  0  0  0  0  0  0  0  0  0  0
  181.1120  180.0540  137.5880 C   0  0  0  0  0  2  0  0  0  0  0  0
  181.3890  181.3490  138.3500 C   0  0  1  0  0  3  0  0  0  0  0  0
  180.1990  182.2230  138.3000 C   0  0  0  0  0  2  0  0  0  0  0  0
  180.4920  181.4400  139.4290 O   0  0  0  0  0  0  0  0  0  0  0  0
  1  7  1  0  0  0  0
  1 20  1  0  0  0  0
  2  9  1  0  0  0  0
  4  3  2  0  0  0  0
  5 13  1  0  0  0  0
  8  3  1  0  0  0  0
  9 10  1  0  0  0  0
  9  6  2  0  0  0  0
 10  8  2  0  0  0  0
 11 24  1  6  0  0  0
 11 16  1  0  0  0  0
 12  1  2  0  0  0  0
 13  6  1  0  0  0  0
 13  7  2  0  0  0  0
 14  5  2  0  0  0  0
 14 12  1  0  0  0  0
 15  4  1  0  0  0  0
 16 15  2  0  0  0  0
 16 10  1  0  0  0  0
 17  2  2  0  0  0  0
 17  5  1  0  0  0  0
 18 11  1  0  0  0  0
 18  2  1  0  0  0  0
 20 19  1  6  0  0  0
 20 21  1  0  0  0  0
 21 23  1  0  0  0  0
 21 22  1  0  0  0  0
 23 22  1  0  0  0  0
 25 24  1  0  0  0  0
 26 25  1  0  0  0  0
 27 26  1  0  0  0  0
 28 27  3  0  0  0  0
 29 25  1  0  0  0  0
 30 29  1  6  0  0  0
 30 32  1  0  0  0  0
 31 30  1  0  0  0  0
 31 32  1  0  0  0  0
M  END
>  <MODEL>
5

>  <REMARK>
 VINA RESULT:      -7.6      5.577      8.971
  Name = 
  8 active torsions:
  status: ('A' for Active; 'I' for Inactive)
    1  A    between atoms: C_1  and  C_24
    2  A    between atoms: C_2  and  C_24
    3  A    between atoms: C_6  and  N_7
    4  A    between atoms: N_7  and  N_32
    5  A    between atoms: C_11  and  C_22
    6  A    between atoms: C_16  and  C_27
    7  A    between atoms: C_22  and  N_32
    8  A    between atoms: C_27  and  N_32
                            x       y       z     vdW  Elec       q    Type
                         _______ _______ _______ _____ _____    ______ ____

>  <TORSDO>
F 8

$$$$
=
 OpenBabel10262421363D

 32 37  0  0  1  0  0  0  0  0999 V2000
  188.1230  177.2840  144.7620 C   0  0  0  0  0  0  0  0  0  0  0  0
  190.7470  177.2400  140.5170 C   0  0  0  0  0  0  0  0  0  0  0  0
  187.5160  178.6190  137.0690 C   0  0  0  0  0  3  0  0  0  0  0  0
  188.2800  178.0390  136.0560 C   0  0  0  0  0  3  0  0  0  0  0  0
  190.0950  177.0620  142.7830 C   0  0  0  0  0  0  0  0  0  0  0  0
  188.4850  177.6960  141.1350 N   0  0  0  0  0  0  0  0  0  0  0  0
  187.8030  177.5560  143.4230 C   0  0  0  0  0  3  0  0  0  0  0  0
  187.8980  178.4710  138.4030 C   0  0  0  0  0  3  0  0  0  0  0  0
  189.4320  177.5930  140.1600 C   0  0  0  0  0  0  0  0  0  0  0  0
  189.0520  177.7500  138.7380 C   0  0  0  0  0  0  0  0  0  0  0  0
  191.0320  176.3110  138.0840 C   0  0  2  0  0  3  0  0  0  0  0  0
  189.4250  176.8980  145.1030 C   0  0  0  0  0  3  0  0  0  0  0  0
  188.7840  177.4490  142.4360 C   0  0  0  0  0  0  0  0  0  0  0  0
  190.4110  176.7880  144.1160 C   0  0  0  0  0  3  0  0  0  0  0  0
  189.4260  177.3080  136.3760 C   0  0  0  0  0  3  0  0  0  0  0  0
  189.8300  177.1580  137.7140 C   0  0  0  0  0  0  0  0  0  0  0  0
  191.0420  176.9700  141.8160 N   0  0  0  0  0  0  0  0  0  0  0  0
  192.0550  177.2100  139.2880 S   0  0  0  0  0  0  0  0  0  0  0  0
  187.6940  177.3870  147.0930 O   0  0  0  0  0  1  0  0  0  0  0  0
  187.0860  177.3830  145.8360 C   0  0  1  0  0  3  0  0  0  0  0  0
  186.2420  178.6370  145.6640 C   0  0  0  0  0  3  0  0  0  0  0  0
  184.7960  178.3220  145.9910 C   0  0  0  0  0  2  0  0  0  0  0  0
  185.6610  179.0410  147.0030 C   0  0  0  0  0  2  0  0  0  0  0  0
  191.9030  175.9120  136.8970 C   0  0  0  0  0  2  0  0  0  0  0  0
  191.9750  174.4560  136.7830 N   0  0  0  0  0  0  0  0  0  0  0  0
  193.0000  173.9610  137.6150 N   0  0  0  0  0  2  0  0  0  0  0  0
  194.2670  174.5630  137.7380 C   0  0  0  0  0  0  0  0  0  0  0  0
  195.3080  175.0580  137.8380 N   0  0  0  0  0  0  0  0  0  0  0  0
  190.6940  173.8080  137.1100 C   0  0  0  0  0  2  0  0  0  0  0  0
  189.9670  173.2310  135.8970 C   0  0  1  0  0  3  0  0  0  0  0  0
  188.6480  172.7080  136.3070 C   0  0  0  0  0  2  0  0  0  0  0  0
  188.7840  173.9610  135.6870 O   0  0  0  0  0  0  0  0  0  0  0  0
  1 12  1  0  0  0  0
  1 20  1  0  0  0  0
  2 17  1  0  0  0  0
  3  8  1  0  0  0  0
  4 15  1  0  0  0  0
  4  3  2  0  0  0  0
  5 14  1  0  0  0  0
  6 13  2  0  0  0  0
  7  1  2  0  0  0  0
  8 10  2  0  0  0  0
  9  2  2  0  0  0  0
  9  6  1  0  0  0  0
 10  9  1  0  0  0  0
 11 24  1  6  0  0  0
 11 18  1  0  0  0  0
 13  5  1  0  0  0  0
 13  7  1  0  0  0  0
 14 12  2  0  0  0  0
 15 16  2  0  0  0  0
 16 11  1  0  0  0  0
 16 10  1  0  0  0  0
 17  5  2  0  0  0  0
 18  2  1  0  0  0  0
 20 19  1  1  0  0  0
 21 20  1  0  0  0  0
 21 22  1  0  0  0  0
 21 23  1  0  0  0  0
 22 23  1  0  0  0  0
 25 24  1  0  0  0  0
 25 29  1  0  0  0  0
 25 26  1  0  0  0  0
 26 27  1  0  0  0  0
 27 28  3  0  0  0  0
 30 31  1  0  0  0  0
 30 29  1  1  0  0  0
 32 30  1  0  0  0  0
 32 31  1  0  0  0  0
M  END
>  <MODEL>
6

>  <REMARK>
 VINA RESULT:      -7.5      1.718      2.806
  Name = 
  8 active torsions:
  status: ('A' for Active; 'I' for Inactive)
    1  A    between atoms: C_1  and  C_24
    2  A    between atoms: C_2  and  C_24
    3  A    between atoms: C_6  and  N_7
    4  A    between atoms: N_7  and  N_32
    5  A    between atoms: C_11  and  C_22
    6  A    between atoms: C_16  and  C_27
    7  A    between atoms: C_22  and  N_32
    8  A    between atoms: C_27  and  N_32
                            x       y       z     vdW  Elec       q    Type
                         _______ _______ _______ _____ _____    ______ ____

>  <TORSDO>
F 8

$$$$
=
 OpenBabel10262421363D

 32 37  0  0  1  0  0  0  0  0999 V2000
  191.0500  176.7180  138.1970 C   0  0  0  0  0  0  0  0  0  0  0  0
  187.2600  178.4910  140.9150 C   0  0  0  0  0  0  0  0  0  0  0  0
  188.5300  177.5130  145.5690 C   0  0  0  0  0  3  0  0  0  0  0  0
  187.2040  177.5940  145.9950 C   0  0  0  0  0  3  0  0  0  0  0  0
  188.6740  177.8790  139.1210 C   0  0  0  0  0  0  0  0  0  0  0  0
  189.3090  177.3500  141.3630 N   0  0  0  0  0  0  0  0  0  0  0  0
  190.7760  176.7460  139.5720 C   0  0  0  0  0  3  0  0  0  0  0  0
  188.8340  177.6180  144.2100 C   0  0  0  0  0  3  0  0  0  0  0  0
  188.1580  177.9100  141.8300 C   0  0  0  0  0  0  0  0  0  0  0  0
  187.8160  177.8150  143.2660 C   0  0  0  0  0  0  0  0  0  0  0  0
  185.3650  178.0280  142.6640 C   0  0  2  0  0  3  0  0  0  0  0  0
  190.1330  177.2660  137.2910 C   0  0  0  0  0  3  0  0  0  0  0  0
  189.5940  177.3270  140.0350 C   0  0  0  0  0  0  0  0  0  0  0  0
  188.9470  177.8470  137.7510 C   0  0  0  0  0  3  0  0  0  0  0  0
  186.1800  177.7780  145.0650 C   0  0  0  0  0  3  0  0  0  0  0  0
  186.4700  177.8970  143.6940 C   0  0  0  0  0  0  0  0  0  0  0  0
  187.5330  178.4490  139.5840 N   0  0  0  0  0  0  0  0  0  0  0  0
  185.7910  179.3490  141.4900 S   0  0  0  0  0  0  0  0  0  0  0  0
  193.4130  176.5850  138.3690 O   0  0  0  0  0  1  0  0  0  0  0  0
  192.3060  176.0930  137.6750 C   0  0  1  0  0  3  0  0  0  0  0  0
  192.2500  174.5780  137.7950 C   0  0  0  0  0  3  0  0  0  0  0  0
  191.8950  173.9770  136.4490 C   0  0  0  0  0  2  0  0  0  0  0  0
  193.3300  173.9630  136.9280 C   0  0  0  0  0  2  0  0  0  0  0  0
  183.9900  178.3210  143.2580 C   0  0  0  0  0  2  0  0  0  0  0  0
  183.0720  178.7770  142.2150 N   0  0  0  0  0  0  0  0  0  0  0  0
  182.7780  177.7130  141.3380 N   0  0  0  0  0  2  0  0  0  0  0  0
  181.7620  177.7590  140.3640 C   0  0  0  0  0  0  0  0  0  0  0  0
  180.9270  177.7970  139.5640 N   0  0  0  0  0  0  0  0  0  0  0  0
  181.8310  179.3380  142.7730 C   0  0  0  0  0  2  0  0  0  0  0  0
  181.2040  178.4800  143.8700 C   0  0  1  0  0  3  0  0  0  0  0  0
  179.9140  179.0680  144.2890 C   0  0  0  0  0  2  0  0  0  0  0  0
  179.9760  177.9760  143.4060 O   0  0  0  0  0  0  0  0  0  0  0  0
  1  7  1  0  0  0  0
  2 18  1  0  0  0  0
  2  9  1  0  0  0  0
  3  4  1  0  0  0  0
  5 17  1  0  0  0  0
  5 13  1  0  0  0  0
  6  9  2  0  0  0  0
  7 13  2  0  0  0  0
  8  3  2  0  0  0  0
  9 10  1  0  0  0  0
 10 16  2  0  0  0  0
 10  8  1  0  0  0  0
 11 24  1  1  0  0  0
 11 16  1  0  0  0  0
 12 14  1  0  0  0  0
 12  1  2  0  0  0  0
 13  6  1  0  0  0  0
 14  5  2  0  0  0  0
 15  4  2  0  0  0  0
 16 15  1  0  0  0  0
 17  2  2  0  0  0  0
 18 11  1  0  0  0  0
 20 21  1  0  0  0  0
 20  1  1  0  0  0  0
 20 19  1  1  0  0  0
 22 23  1  0  0  0  0
 22 21  1  0  0  0  0
 23 21  1  0  0  0  0
 25 29  1  0  0  0  0
 25 24  1  0  0  0  0
 26 25  1  0  0  0  0
 27 26  1  0  0  0  0
 28 27  3  0  0  0  0
 30 29  1  6  0  0  0
 30 31  1  0  0  0  0
 32 30  1  0  0  0  0
 32 31  1  0  0  0  0
M  END
>  <MODEL>
7

>  <REMARK>
 VINA RESULT:      -7.5      3.692      9.807
  Name = 
  8 active torsions:
  status: ('A' for Active; 'I' for Inactive)
    1  A    between atoms: C_1  and  C_24
    2  A    between atoms: C_2  and  C_24
    3  A    between atoms: C_6  and  N_7
    4  A    between atoms: N_7  and  N_32
    5  A    between atoms: C_11  and  C_22
    6  A    between atoms: C_16  and  C_27
    7  A    between atoms: C_22  and  N_32
    8  A    between atoms: C_27  and  N_32
                            x       y       z     vdW  Elec       q    Type
                         _______ _______ _______ _____ _____    ______ ____

>  <TORSDO>
F 8

$$$$
=
 OpenBabel10262421363D

 32 37  0  0  1  0  0  0  0  0999 V2000
  188.6150  177.5520  144.2650 C   0  0  0  0  0  0  0  0  0  0  0  0
  185.0820  178.7990  140.9680 C   0  0  0  0  0  0  0  0  0  0  0  0
  180.9200  178.8430  143.5940 C   0  0  0  0  0  3  0  0  0  0  0  0
  180.1410  178.6820  142.4470 C   0  0  0  0  0  3  0  0  0  0  0  0
  187.1500  178.2640  141.9860 C   0  0  0  0  0  0  0  0  0  0  0  0
  185.1460  178.2360  143.2880 N   0  0  0  0  0  0  0  0  0  0  0  0
  187.2250  177.7220  144.3530 C   0  0  0  0  0  3  0  0  0  0  0  0
  182.3130  178.8110  143.5020 C   0  0  0  0  0  3  0  0  0  0  0  0
  184.4180  178.5820  142.1890 C   0  0  0  0  0  0  0  0  0  0  0  0
  182.9410  178.6270  142.2630 C   0  0  0  0  0  0  0  0  0  0  0  0
  182.8350  178.1820  139.7710 C   0  0  2  0  0  3  0  0  0  0  0  0
  189.2630  177.7340  143.0370 C   0  0  0  0  0  3  0  0  0  0  0  0
  186.4930  178.0800  143.2190 C   0  0  0  0  0  0  0  0  0  0  0  0
  188.5330  178.0910  141.8990 C   0  0  0  0  0  3  0  0  0  0  0  0
  180.7540  178.4860  141.2080 C   0  0  0  0  0  3  0  0  0  0  0  0
  182.1550  178.4620  141.0970 C   0  0  0  0  0  0  0  0  0  0  0  0
  186.4280  178.6210  140.8930 N   0  0  0  0  0  0  0  0  0  0  0  0
  184.1850  179.3740  139.5230 S   0  0  0  0  0  0  0  0  0  0  0  0
  190.7720  177.4300  145.2460 O   0  0  0  0  0  1  0  0  0  0  0  0
  189.4200  177.1600  145.4640 C   0  0  1  0  0  3  0  0  0  0  0  0
  188.9370  177.8930  146.7070 C   0  0  0  0  0  3  0  0  0  0  0  0
  188.4720  176.8850  147.7390 C   0  0  0  0  0  2  0  0  0  0  0  0
  189.8300  177.5390  147.8790 C   0  0  0  0  0  2  0  0  0  0  0  0
  181.9000  178.2380  138.5660 C   0  0  0  0  0  2  0  0  0  0  0  0
  181.8550  176.9390  137.8960 N   0  0  0  0  0  0  0  0  0  0  0  0
  180.5190  176.4980  137.7990 N   0  0  0  0  0  2  0  0  0  0  0  0
  179.8950  175.6760  138.7580 C   0  0  0  0  0  0  0  0  0  0  0  0
  179.3830  175.0010  139.5450 N   0  0  0  0  0  0  0  0  0  0  0  0
  182.4780  176.9780  136.5630 C   0  0  0  0  0  2  0  0  0  0  0  0
  183.7150  176.0910  136.4340 C   0  0  1  0  0  3  0  0  0  0  0  0
  184.7900  176.8310  135.7410 C   0  0  0  0  0  2  0  0  0  0  0  0
  184.7760  176.6870  137.1380 O   0  0  0  0  0  0  0  0  0  0  0  0
  1  7  1  0  0  0  0
  1 20  1  0  0  0  0
  2  9  1  0  0  0  0
  4  3  2  0  0  0  0
  5 13  1  0  0  0  0
  8  3  1  0  0  0  0
  9 10  1  0  0  0  0
  9  6  2  0  0  0  0
 10  8  2  0  0  0  0
 11 24  1  6  0  0  0
 11 16  1  0  0  0  0
 12  1  2  0  0  0  0
 13  6  1  0  0  0  0
 13  7  2  0  0  0  0
 14  5  2  0  0  0  0
 14 12  1  0  0  0  0
 15  4  1  0  0  0  0
 16 15  2  0  0  0  0
 16 10  1  0  0  0  0
 17  2  2  0  0  0  0
 17  5  1  0  0  0  0
 18 11  1  0  0  0  0
 18  2  1  0  0  0  0
 20 19  1  6  0  0  0
 20 21  1  0  0  0  0
 21 22  1  0  0  0  0
 21 23  1  0  0  0  0
 22 23  1  0  0  0  0
 25 24  1  0  0  0  0
 26 25  1  0  0  0  0
 26 27  1  0  0  0  0
 27 28  3  0  0  0  0
 29 25  1  0  0  0  0
 30 29  1  1  0  0  0
 30 32  1  0  0  0  0
 31 30  1  0  0  0  0
 31 32  1  0  0  0  0
M  END
>  <MODEL>
8

>  <REMARK>
 VINA RESULT:      -7.4      5.359      8.178
  Name = 
  8 active torsions:
  status: ('A' for Active; 'I' for Inactive)
    1  A    between atoms: C_1  and  C_24
    2  A    between atoms: C_2  and  C_24
    3  A    between atoms: C_6  and  N_7
    4  A    between atoms: N_7  and  N_32
    5  A    between atoms: C_11  and  C_22
    6  A    between atoms: C_16  and  C_27
    7  A    between atoms: C_22  and  N_32
    8  A    between atoms: C_27  and  N_32
                            x       y       z     vdW  Elec       q    Type
                         _______ _______ _______ _____ _____    ______ ____

>  <TORSDO>
F 8

$$$$
=
 OpenBabel10262421363D

 32 37  0  0  1  0  0  0  0  0999 V2000
  185.7970  178.3710  144.7640 C   0  0  0  0  0  0  0  0  0  0  0  0
  181.9080  178.8260  141.6700 C   0  0  0  0  0  0  0  0  0  0  0  0
  183.5630  177.1110  137.3650 C   0  0  0  0  0  3  0  0  0  0  0  0
  182.5790  177.8030  136.6590 C   0  0  0  0  0  3  0  0  0  0  0  0
  183.3120  178.8790  143.5730 C   0  0  0  0  0  0  0  0  0  0  0  0
  184.1670  178.0760  141.4910 N   0  0  0  0  0  0  0  0  0  0  0  0
  185.6030  178.0860  143.4050 C   0  0  0  0  0  3  0  0  0  0  0  0
  183.6830  177.2820  138.7450 C   0  0  0  0  0  3  0  0  0  0  0  0
  182.9660  178.3160  140.8960 C   0  0  0  0  0  0  0  0  0  0  0  0
  182.8130  178.1380  139.4350 C   0  0  0  0  0  0  0  0  0  0  0  0
  180.9270  179.8290  139.4580 C   0  0  2  0  0  3  0  0  0  0  0  0
  184.7490  178.9130  145.5190 C   0  0  0  0  0  3  0  0  0  0  0  0
  184.3650  178.3350  142.8090 C   0  0  0  0  0  0  0  0  0  0  0  0
  183.5080  179.1660  144.9260 C   0  0  0  0  0  3  0  0  0  0  0  0
  181.7130  178.6670  137.3310 C   0  0  0  0  0  3  0  0  0  0  0  0
  181.8130  178.8420  138.7220 C   0  0  0  0  0  0  0  0  0  0  0  0
  182.1110  179.1080  142.9850 N   0  0  0  0  0  0  0  0  0  0  0  0
  180.2720  179.0450  140.9620 S   0  0  0  0  0  0  0  0  0  0  0  0
  186.9280  177.5390  146.6770 O   0  0  0  0  0  1  0  0  0  0  0  0
  187.1170  178.1220  145.4220 C   0  0  1  0  0  3  0  0  0  0  0  0
  187.9940  177.2250  144.5610 C   0  0  0  0  0  3  0  0  0  0  0  0
  189.2450  177.9790  144.1570 C   0  0  0  0  0  2  0  0  0  0  0  0
  189.3030  176.9620  145.2760 C   0  0  0  0  0  2  0  0  0  0  0  0
  179.7600  180.3570  138.6290 C   0  0  0  0  0  2  0  0  0  0  0  0
  179.9450  181.7780  138.3350 N   0  0  0  0  0  0  0  0  0  0  0  0
  181.3210  182.0770  138.2730 N   0  0  0  0  0  2  0  0  0  0  0  0
  181.8320  183.3370  137.9040 C   0  0  0  0  0  0  0  0  0  0  0  0
  182.2520  184.3710  137.6000 N   0  0  0  0  0  0  0  0  0  0  0  0
  179.2770  182.1790  137.0860 C   0  0  0  0  0  2  0  0  0  0  0  0
  179.9530  181.6440  135.8250 C   0  0  1  0  0  3  0  0  0  0  0  0
  178.9420  181.0280  134.9400 C   0  0  0  0  0  2  0  0  0  0  0  0
  179.4330  182.3240  134.7090 O   0  0  0  0  0  0  0  0  0  0  0  0
  1 20  1  0  0  0  0
  1 12  1  0  0  0  0
  2 17  1  0  0  0  0
  3  8  1  0  0  0  0
  4 15  1  0  0  0  0
  4  3  2  0  0  0  0
  5 14  1  0  0  0  0
  6 13  2  0  0  0  0
  7  1  2  0  0  0  0
  8 10  2  0  0  0  0
  9  6  1  0  0  0  0
  9  2  2  0  0  0  0
 10  9  1  0  0  0  0
 11 24  1  6  0  0  0
 11 18  1  0  0  0  0
 13  7  1  0  0  0  0
 13  5  1  0  0  0  0
 14 12  2  0  0  0  0
 15 16  2  0  0  0  0
 16 10  1  0  0  0  0
 16 11  1  0  0  0  0
 17  5  2  0  0  0  0
 18  2  1  0  0  0  0
 20 19  1  1  0  0  0
 21 23  1  0  0  0  0
 21 20  1  0  0  0  0
 22 21  1  0  0  0  0
 22 23  1  0  0  0  0
 25 24  1  0  0  0  0
 26 25  1  0  0  0  0
 27 26  1  0  0  0  0
 28 27  3  0  0  0  0
 29 25  1  0  0  0  0
 30 29  1  1  0  0  0
 31 30  1  0  0  0  0
 32 31  1  0  0  0  0
 32 30  1  0  0  0  0
M  END
>  <MODEL>
9

>  <REMARK>
 VINA RESULT:      -7.0      6.950     10.217
  Name = 
  8 active torsions:
  status: ('A' for Active; 'I' for Inactive)
    1  A    between atoms: C_1  and  C_24
    2  A    between atoms: C_2  and  C_24
    3  A    between atoms: C_6  and  N_7
    4  A    between atoms: N_7  and  N_32
    5  A    between atoms: C_11  and  C_22
    6  A    between atoms: C_16  and  C_27
    7  A    between atoms: C_22  and  N_32
    8  A    between atoms: C_27  and  N_32
                            x       y       z     vdW  Elec       q    Type
                         _______ _______ _______ _____ _____    ______ ____

>  <TORSDO>
F 8

$$$$
