=
 OpenBabel10262420523D

 28 31  0  0  1  0  0  0  0  0999 V2000
  186.1130  178.1520  142.3530 C   0  0  0  0  0  2  0  0  0  0  0  0
  187.8630  177.8680  147.8920 C   0  0  0  0  0  1  0  0  0  0  0  0
  184.2320  178.5560  144.8790 C   0  0  2  0  0  3  0  0  0  0  0  0
  185.6650  178.1990  144.8680 C   0  0  0  0  0  0  0  0  0  0  0  0
  183.7570  179.1040  142.4470 C   0  0  2  0  0  3  0  0  0  0  0  0
  186.5180  177.9420  143.7850 C   0  0  0  0  0  0  0  0  0  0  0  0
  184.9970  178.5760  147.0330 C   0  0  0  0  0  2  0  0  0  0  0  0
  183.9550  179.6580  143.8650 C   0  0  0  0  0  2  0  0  0  0  0  0
  187.8520  177.6160  144.0710 C   0  0  0  0  0  3  0  0  0  0  0  0
  183.9260  178.9890  146.1950 O   0  0  0  0  0  0  0  0  0  0  0  0
  187.4230  177.8310  146.4660 C   0  0  0  0  0  0  0  0  0  0  0  0
  182.0470  178.6800  142.2040 Cl  0  0  0  0  0  0  0  0  0  0  0  0
  184.6300  177.8910  142.1040 C   0  0  0  0  0  2  0  0  0  0  0  0
  186.1020  178.1630  146.1450 C   0  0  0  0  0  0  0  0  0  0  0  0
  188.3170  177.5290  145.4030 C   0  0  0  0  0  0  0  0  0  0  0  0
  190.6600  176.8660  144.5980 C   0  0  2  0  0  3  0  0  0  0  0  0
  189.6930  177.1800  145.6410 N   0  0  0  0  0  0  0  0  0  0  0  0
  191.4350  176.2650  146.7650 C   0  0  0  0  0  3  0  0  0  0  0  0
  190.2110  176.7440  146.8870 C   0  0  0  0  0  3  0  0  0  0  0  0
  191.8890  176.3420  145.3450 C   0  0  0  0  0  2  0  0  0  0  0  0
  190.9630  178.0830  143.7110 C   0  0  2  0  0  3  0  0  0  0  0  0
  190.8330  179.2720  144.4290 O   0  0  0  0  0  1  0  0  0  0  0  0
  190.2080  178.1350  142.3750 C   0  0  0  0  0  2  0  0  0  0  0  0
  190.0920  176.8270  140.2260 C   0  0  0  0  0  0  0  0  0  0  0  0
  192.3020  177.3370  141.2730 C   0  0  0  0  0  1  0  0  0  0  0  0
  190.8490  177.3450  141.3290 N   0  0  0  0  0  0  0  0  0  0  0  0
  188.7390  177.1200  140.1000 O   0  0  0  0  0  1  0  0  0  0  0  0
  190.6510  176.1120  139.3510 O   0  0  0  0  0  0  0  0  0  0  0  0
  1  6  1  0  0  0  0
  3  8  1  6  0  0  0
  3 10  1  0  0  0  0
  4  3  1  0  0  0  0
  4 14  1  0  0  0  0
  5 12  1  1  0  0  0
  5  8  1  0  0  0  0
  6  9  1  0  0  0  0
  6  4  2  0  0  0  0
  9 15  2  0  0  0  0
 10  7  1  0  0  0  0
 11  2  1  0  0  0  0
 13  1  1  0  0  0  0
 13  5  1  0  0  0  0
 14 11  2  0  0  0  0
 14  7  1  0  0  0  0
 15 17  1  0  0  0  0
 15 11  1  0  0  0  0
 16 21  1  1  0  0  0
 16 20  1  0  0  0  0
 16 17  1  0  0  0  0
 17 19  1  0  0  0  0
 18 19  2  0  0  0  0
 20 18  1  0  0  0  0
 21 22  1  1  0  0  0
 23 21  1  0  0  0  0
 24 26  1  0  0  0  0
 25 26  1  0  0  0  0
 26 23  1  0  0  0  0
 27 24  1  0  0  0  0
 28 24  2  0  0  0  0
M  END
>  <MODEL>
1

>  <REMARK>
 VINA RESULT:     -10.0      0.000      0.000
  Name = 
  4 active torsions:
  status: ('A' for Active; 'I' for Inactive)
    1  A    between atoms: C_1  and  C_2
    2  A    between atoms: C_2  and  C_3
    3  A    between atoms: C_3  and  N_11
    4  A    between atoms: N_16  and  C_27
                            x       y       z     vdW  Elec       q    Type
                         _______ _______ _______ _____ _____    ______ ____

>  <TORSDO>
F 4

$$$$
=
 OpenBabel10262420523D

 28 31  0  0  1  0  0  0  0  0999 V2000
  189.4830  176.7760  144.3780 C   0  0  0  0  0  2  0  0  0  0  0  0
  184.1490  179.0440  144.8620 C   0  0  0  0  0  1  0  0  0  0  0  0
  188.2320  177.9300  147.0590 C   0  0  2  0  0  3  0  0  0  0  0  0
  187.6290  177.9240  145.7110 C   0  0  0  0  0  0  0  0  0  0  0  0
  190.3070  176.5000  146.7670 C   0  0  2  0  0  3  0  0  0  0  0  0
  188.1660  177.4930  144.4890 C   0  0  0  0  0  0  0  0  0  0  0  0
  186.0790  178.6800  147.2270 C   0  0  0  0  0  2  0  0  0  0  0  0
  188.8890  176.5880  147.3490 C   0  0  0  0  0  2  0  0  0  0  0  0
  187.3600  177.6100  143.3480 C   0  0  0  0  0  3  0  0  0  0  0  0
  187.1820  178.1890  147.9780 O   0  0  0  0  0  0  0  0  0  0  0  0
  185.5480  178.5540  144.6850 C   0  0  0  0  0  0  0  0  0  0  0  0
  191.4770  177.1390  147.9460 Cl  0  0  0  0  0  0  0  0  0  0  0  0
  190.4980  177.2210  145.4280 C   0  0  0  0  0  2  0  0  0  0  0  0
  186.3750  178.4140  145.8050 C   0  0  0  0  0  0  0  0  0  0  0  0
  186.0610  178.1620  143.4190 C   0  0  0  0  0  0  0  0  0  0  0  0
  185.6860  179.0110  141.0280 C   0  0  2  0  0  3  0  0  0  0  0  0
  185.2800  178.2700  142.2150 N   0  0  0  0  0  0  0  0  0  0  0  0
  183.3870  178.4020  140.9760 C   0  0  0  0  0  3  0  0  0  0  0  0
  183.8920  177.9930  142.1240 C   0  0  0  0  0  3  0  0  0  0  0  0
  184.4480  179.0240  140.1280 C   0  0  0  0  0  2  0  0  0  0  0  0
  186.9190  178.3900  140.3560 C   0  0  2  0  0  3  0  0  0  0  0  0
  188.0360  179.2130  140.5000 O   0  0  0  0  0  1  0  0  0  0  0  0
  186.7250  177.9330  138.9030 C   0  0  0  0  0  2  0  0  0  0  0  0
  188.3820  178.6400  137.1430 C   0  0  0  0  0  0  0  0  0  0  0  0
  188.9570  176.8220  138.7580 C   0  0  0  0  0  1  0  0  0  0  0  0
  187.9850  177.7460  138.1930 N   0  0  0  0  0  0  0  0  0  0  0  0
  187.5970  179.7400  136.8200 O   0  0  0  0  0  1  0  0  0  0  0  0
  189.4540  178.4430  136.5110 O   0  0  0  0  0  0  0  0  0  0  0  0
  1  6  1  0  0  0  0
  1 13  1  0  0  0  0
  3  8  1  1  0  0  0
  3 10  1  0  0  0  0
  4 14  1  0  0  0  0
  4  3  1  0  0  0  0
  5  8  1  0  0  0  0
  5 12  1  1  0  0  0
  6  4  2  0  0  0  0
  7 10  1  0  0  0  0
  9 15  2  0  0  0  0
  9  6  1  0  0  0  0
 11  2  1  0  0  0  0
 11 14  2  0  0  0  0
 13  5  1  0  0  0  0
 14  7  1  0  0  0  0
 15 11  1  0  0  0  0
 16 21  1  6  0  0  0
 16 17  1  0  0  0  0
 17 15  1  0  0  0  0
 18 19  2  0  0  0  0
 19 17  1  0  0  0  0
 20 18  1  0  0  0  0
 20 16  1  0  0  0  0
 21 22  1  6  0  0  0
 23 21  1  0  0  0  0
 24 26  1  0  0  0  0
 26 25  1  0  0  0  0
 26 23  1  0  0  0  0
 27 24  1  0  0  0  0
 28 24  2  0  0  0  0
M  END
>  <MODEL>
2

>  <REMARK>
 VINA RESULT:      -9.4      3.189      5.608
  Name = 
  4 active torsions:
  status: ('A' for Active; 'I' for Inactive)
    1  A    between atoms: C_1  and  C_2
    2  A    between atoms: C_2  and  C_3
    3  A    between atoms: C_3  and  N_11
    4  A    between atoms: N_16  and  C_27
                            x       y       z     vdW  Elec       q    Type
                         _______ _______ _______ _____ _____    ______ ____

>  <TORSDO>
F 4

$$$$
=
 OpenBabel10262420523D

 28 31  0  0  1  0  0  0  0  0999 V2000
  185.2130  179.1810  142.8630 C   0  0  0  0  0  2  0  0  0  0  0  0
  190.0540  176.7090  140.7930 C   0  0  0  0  0  1  0  0  0  0  0  0
  187.2090  177.3860  144.5600 C   0  0  2  0  0  3  0  0  0  0  0  0
  187.2770  177.6950  143.1170 C   0  0  0  0  0  0  0  0  0  0  0  0
  185.3520  178.9040  145.3870 C   0  0  2  0  0  3  0  0  0  0  0  0
  186.3870  178.4200  142.3110 C   0  0  0  0  0  0  0  0  0  0  0  0
  189.1720  176.5560  143.7340 C   0  0  0  0  0  2  0  0  0  0  0  0
  186.8640  178.6390  145.3520 C   0  0  0  0  0  2  0  0  0  0  0  0
  186.7030  178.5560  140.9520 C   0  0  0  0  0  3  0  0  0  0  0  0
  188.4830  176.8850  144.9330 O   0  0  0  0  0  0  0  0  0  0  0  0
  188.7530  177.2680  141.2690 C   0  0  0  0  0  0  0  0  0  0  0  0
  184.6240  178.0370  146.7590 Cl  0  0  0  0  0  0  0  0  0  0  0  0
  184.6050  178.5280  144.1020 C   0  0  0  0  0  2  0  0  0  0  0  0
  188.4130  177.1610  142.6220 C   0  0  0  0  0  0  0  0  0  0  0  0
  187.8650  177.9650  140.4060 C   0  0  0  0  0  0  0  0  0  0  0  0
  187.9050  177.1000  137.9920 C   0  0  2  0  0  3  0  0  0  0  0  0
  188.1360  178.1240  139.0020 N   0  0  0  0  0  0  0  0  0  0  0  0
  189.2390  178.8930  137.1770 C   0  0  0  0  0  3  0  0  0  0  0  0
  188.9770  179.1240  138.4490 C   0  0  0  0  0  3  0  0  0  0  0  0
  188.5540  177.6470  136.7180 C   0  0  0  0  0  2  0  0  0  0  0  0
  186.4110  176.7850  137.8240 C   0  0  2  0  0  3  0  0  0  0  0  0
  186.2150  175.7640  136.8940 O   0  0  0  0  0  1  0  0  0  0  0  0
  185.5040  177.9930  137.5510 C   0  0  0  0  0  2  0  0  0  0  0  0
  183.8110  179.1050  139.0480 C   0  0  0  0  0  0  0  0  0  0  0  0
  183.3540  176.8430  138.0920 C   0  0  0  0  0  1  0  0  0  0  0  0
  184.2630  177.9560  138.3160 N   0  0  0  0  0  0  0  0  0  0  0  0
  184.5200  180.2990  138.9930 O   0  0  0  0  0  0  0  0  0  0  0  0
  182.7580  179.0460  139.7380 O   0  0  0  0  0  1  0  0  0  0  0  0
  1 13  1  0  0  0  0
  2 11  1  0  0  0  0
  3 10  1  0  0  0  0
  3  8  1  1  0  0  0
  4  3  1  0  0  0  0
  5 12  1  1  0  0  0
  6  1  1  0  0  0  0
  6  4  2  0  0  0  0
  7 10  1  0  0  0  0
  8  5  1  0  0  0  0
  9  6  1  0  0  0  0
 11 14  2  0  0  0  0
 13  5  1  0  0  0  0
 14  4  1  0  0  0  0
 14  7  1  0  0  0  0
 15  9  2  0  0  0  0
 15 11  1  0  0  0  0
 16 21  1  6  0  0  0
 16 17  1  0  0  0  0
 17 15  1  0  0  0  0
 18 19  2  0  0  0  0
 19 17  1  0  0  0  0
 20 18  1  0  0  0  0
 20 16  1  0  0  0  0
 21 22  1  6  0  0  0
 23 21  1  0  0  0  0
 23 26  1  0  0  0  0
 24 28  1  0  0  0  0
 25 26  1  0  0  0  0
 26 24  1  0  0  0  0
 27 24  2  0  0  0  0
M  END
>  <MODEL>
3

>  <REMARK>
 VINA RESULT:      -9.2      3.474      6.345
  Name = 
  4 active torsions:
  status: ('A' for Active; 'I' for Inactive)
    1  A    between atoms: C_1  and  C_2
    2  A    between atoms: C_2  and  C_3
    3  A    between atoms: C_3  and  N_11
    4  A    between atoms: N_16  and  C_27
                            x       y       z     vdW  Elec       q    Type
                         _______ _______ _______ _____ _____    ______ ____

>  <TORSDO>
F 4

$$$$
=
 OpenBabel10262420523D

 28 31  0  0  1  0  0  0  0  0999 V2000
  185.7450  179.0460  141.5640 C   0  0  0  0  0  2  0  0  0  0  0  0
  190.6180  176.4410  143.3800 C   0  0  0  0  0  1  0  0  0  0  0  0
  186.1640  177.7730  144.4420 C   0  0  2  0  0  3  0  0  0  0  0  0
  187.1060  177.7630  143.3050 C   0  0  0  0  0  0  0  0  0  0  0  0
  184.3260  179.3350  143.6540 C   0  0  2  0  0  3  0  0  0  0  0  0
  186.9420  178.2470  141.9990 C   0  0  0  0  0  0  0  0  0  0  0  0
  188.1470  176.8870  145.1550 C   0  0  0  0  0  2  0  0  0  0  0  0
  185.5290  179.1490  144.5900 C   0  0  0  0  0  2  0  0  0  0  0  0
  188.0170  178.0990  141.1110 C   0  0  0  0  0  3  0  0  0  0  0  0
  186.9120  177.4330  145.5990 O   0  0  0  0  0  0  0  0  0  0  0  0
  189.3480  177.0210  142.8520 C   0  0  0  0  0  0  0  0  0  0  0  0
  182.8500  178.7510  144.4550 Cl  0  0  0  0  0  0  0  0  0  0  0  0
  184.4630  178.6490  142.2890 C   0  0  0  0  0  2  0  0  0  0  0  0
  188.2600  177.1940  143.7150 C   0  0  0  0  0  0  0  0  0  0  0  0
  189.2160  177.4660  141.5080 C   0  0  0  0  0  0  0  0  0  0  0  0
  190.2780  176.4010  139.4300 C   0  0  2  0  0  3  0  0  0  0  0  0
  190.2840  177.3290  140.5530 N   0  0  0  0  0  0  0  0  0  0  0  0
  192.4330  177.3250  139.8320 C   0  0  0  0  0  3  0  0  0  0  0  0
  191.6110  177.7900  140.7530 C   0  0  0  0  0  3  0  0  0  0  0  0
  191.6970  176.4600  138.8610 C   0  0  0  0  0  2  0  0  0  0  0  0
  189.1950  176.7540  138.4000 C   0  0  2  0  0  3  0  0  0  0  0  0
  188.7540  175.6150  137.7260 O   0  0  0  0  0  1  0  0  0  0  0  0
  189.5450  177.8940  137.4320 C   0  0  0  0  0  2  0  0  0  0  0  0
  187.4730  178.3500  136.0760 C   0  0  0  0  0  0  0  0  0  0  0  0
  189.5340  177.4710  134.9700 C   0  0  0  0  0  1  0  0  0  0  0  0
  188.8030  177.8220  136.1780 N   0  0  0  0  0  0  0  0  0  0  0  0
  186.8870  178.9960  137.1570 O   0  0  0  0  0  1  0  0  0  0  0  0
  186.8290  178.2450  134.9980 O   0  0  0  0  0  0  0  0  0  0  0  0
  1  6  1  0  0  0  0
  1 13  1  0  0  0  0
  3  8  1  1  0  0  0
  3 10  1  0  0  0  0
  4 14  1  0  0  0  0
  4  3  1  0  0  0  0
  5 12  1  1  0  0  0
  5  8  1  0  0  0  0
  6  4  2  0  0  0  0
  7 10  1  0  0  0  0
  9 15  2  0  0  0  0
  9  6  1  0  0  0  0
 11  2  1  0  0  0  0
 11 14  2  0  0  0  0
 13  5  1  0  0  0  0
 14  7  1  0  0  0  0
 15 11  1  0  0  0  0
 16 21  1  6  0  0  0
 16 17  1  0  0  0  0
 17 19  1  0  0  0  0
 17 15  1  0  0  0  0
 18 19  2  0  0  0  0
 20 16  1  0  0  0  0
 20 18  1  0  0  0  0
 21 22  1  6  0  0  0
 23 21  1  0  0  0  0
 24 26  1  0  0  0  0
 24 27  1  0  0  0  0
 25 26  1  0  0  0  0
 26 23  1  0  0  0  0
 28 24  2  0  0  0  0
M  END
>  <MODEL>
4

>  <REMARK>
 VINA RESULT:      -9.1      2.650      4.641
  Name = 
  4 active torsions:
  status: ('A' for Active; 'I' for Inactive)
    1  A    between atoms: C_1  and  C_2
    2  A    between atoms: C_2  and  C_3
    3  A    between atoms: C_3  and  N_11
    4  A    between atoms: N_16  and  C_27
                            x       y       z     vdW  Elec       q    Type
                         _______ _______ _______ _____ _____    ______ ____

>  <TORSDO>
F 4

$$$$
=
 OpenBabel10262420523D

 28 31  0  0  1  0  0  0  0  0999 V2000
  187.2180  177.7810  143.0820 C   0  0  0  0  0  2  0  0  0  0  0  0
  191.9980  177.2290  139.8150 C   0  0  0  0  0  1  0  0  0  0  0  0
  190.1110  177.0880  144.1920 C   0  0  2  0  0  3  0  0  0  0  0  0
  189.7020  177.2600  142.7840 C   0  0  0  0  0  0  0  0  0  0  0  0
  188.0540  177.8240  145.4830 C   0  0  2  0  0  3  0  0  0  0  0  0
  188.4300  177.4950  142.2400 C   0  0  0  0  0  0  0  0  0  0  0  0
  191.9840  177.0230  142.8830 C   0  0  0  0  0  2  0  0  0  0  0  0
  189.4880  178.1740  145.0590 C   0  0  0  0  0  2  0  0  0  0  0  0
  188.3310  177.6130  140.8470 C   0  0  0  0  0  3  0  0  0  0  0  0
  191.5270  177.1680  144.2210 O   0  0  0  0  0  0  0  0  0  0  0  0
  190.7380  177.2730  140.6140 C   0  0  0  0  0  0  0  0  0  0  0  0
  188.0910  176.8760  146.9880 Cl  0  0  0  0  0  0  0  0  0  0  0  0
  187.2410  177.0630  144.4290 C   0  0  0  0  0  2  0  0  0  0  0  0
  190.8030  177.1710  142.0080 C   0  0  0  0  0  0  0  0  0  0  0  0
  189.4660  177.4780  140.0150 C   0  0  0  0  0  0  0  0  0  0  0  0
  189.9860  176.7630  137.6080 C   0  0  2  0  0  3  0  0  0  0  0  0
  189.3060  177.5970  138.5900 N   0  0  0  0  0  0  0  0  0  0  0  0
  188.9600  178.6700  136.6240 C   0  0  0  0  0  3  0  0  0  0  0  0
  188.7690  178.7310  137.9280 C   0  0  0  0  0  3  0  0  0  0  0  0
  189.6790  177.4140  136.2570 C   0  0  0  0  0  2  0  0  0  0  0  0
  189.5390  175.2960  137.6910 C   0  0  2  0  0  3  0  0  0  0  0  0
  190.6190  174.4590  137.9740 O   0  0  0  0  0  1  0  0  0  0  0  0
  188.7120  174.7850  136.5020 C   0  0  0  0  0  2  0  0  0  0  0  0
  186.9030  173.2050  137.2570 C   0  0  0  0  0  0  0  0  0  0  0  0
  186.4380  175.6520  137.0610 C   0  0  0  0  0  1  0  0  0  0  0  0
  187.3220  174.5160  136.8520 N   0  0  0  0  0  0  0  0  0  0  0  0
  187.8290  172.1760  137.3820 O   0  0  0  0  0  0  0  0  0  0  0  0
  185.6910  172.9770  137.5170 O   0  0  0  0  0  1  0  0  0  0  0  0
  1 13  1  0  0  0  0
  2 11  1  0  0  0  0
  3 10  1  0  0  0  0
  3  8  1  1  0  0  0
  4  3  1  0  0  0  0
  5 12  1  1  0  0  0
  6  4  1  0  0  0  0
  6  1  1  0  0  0  0
  7 10  1  0  0  0  0
  8  5  1  0  0  0  0
  9  6  2  0  0  0  0
 11 14  1  0  0  0  0
 13  5  1  0  0  0  0
 14  4  2  0  0  0  0
 14  7  1  0  0  0  0
 15 11  2  0  0  0  0
 15  9  1  0  0  0  0
 16 21  1  6  0  0  0
 16 17  1  0  0  0  0
 17 15  1  0  0  0  0
 18 19  2  0  0  0  0
 19 17  1  0  0  0  0
 20 18  1  0  0  0  0
 20 16  1  0  0  0  0
 21 22  1  6  0  0  0
 23 26  1  0  0  0  0
 23 21  1  0  0  0  0
 24 27  2  0  0  0  0
 24 28  1  0  0  0  0
 26 25  1  0  0  0  0
 26 24  1  0  0  0  0
M  END
>  <MODEL>
5

>  <REMARK>
 VINA RESULT:      -9.0      3.494      6.800
  Name = 
  4 active torsions:
  status: ('A' for Active; 'I' for Inactive)
    1  A    between atoms: C_1  and  C_2
    2  A    between atoms: C_2  and  C_3
    3  A    between atoms: C_3  and  N_11
    4  A    between atoms: N_16  and  C_27
                            x       y       z     vdW  Elec       q    Type
                         _______ _______ _______ _____ _____    ______ ____

>  <TORSDO>
F 4

$$$$
=
 OpenBabel10262420523D

 28 31  0  0  1  0  0  0  0  0999 V2000
  188.4150  177.2480  144.3520 C   0  0  0  0  0  2  0  0  0  0  0  0
  182.9520  178.9400  143.2920 C   0  0  0  0  0  1  0  0  0  0  0  0
  186.4200  178.4240  146.5250 C   0  0  2  0  0  3  0  0  0  0  0  0
  186.1850  178.2660  145.0750 C   0  0  0  0  0  0  0  0  0  0  0  0
  188.6220  177.2150  146.8860 C   0  0  2  0  0  3  0  0  0  0  0  0
  187.0540  177.8200  144.0680 C   0  0  0  0  0  0  0  0  0  0  0  0
  184.2370  178.9400  146.0860 C   0  0  0  0  0  2  0  0  0  0  0  0
  187.1000  177.1830  147.0870 C   0  0  0  0  0  2  0  0  0  0  0  0
  186.5600  177.7750  142.7560 C   0  0  0  0  0  3  0  0  0  0  0  0
  185.1510  178.6230  147.1270 O   0  0  0  0  0  0  0  0  0  0  0  0
  184.3880  178.5970  143.5130 C   0  0  0  0  0  0  0  0  0  0  0  0
  189.3880  178.0530  148.2560 Cl  0  0  0  0  0  0  0  0  0  0  0  0
  189.0820  177.8670  145.5770 C   0  0  0  0  0  2  0  0  0  0  0  0
  184.9090  178.6190  144.8110 C   0  0  0  0  0  0  0  0  0  0  0  0
  185.2420  178.1840  142.4540 C   0  0  0  0  0  0  0  0  0  0  0  0
  185.4290  178.8160  139.9750 C   0  0  2  0  0  3  0  0  0  0  0  0
  184.7890  178.1290  141.0890 N   0  0  0  0  0  0  0  0  0  0  0  0
  183.2710  177.9900  139.4110 C   0  0  0  0  0  3  0  0  0  0  0  0
  183.4940  177.7160  140.6830 C   0  0  0  0  0  3  0  0  0  0  0  0
  184.4650  178.6450  138.7990 C   0  0  0  0  0  2  0  0  0  0  0  0
  186.8350  178.2660  139.6920 C   0  0  2  0  0  3  0  0  0  0  0  0
  187.8090  179.0240  140.3430 O   0  0  0  0  0  1  0  0  0  0  0  0
  187.1760  178.0420  138.2120 C   0  0  0  0  0  2  0  0  0  0  0  0
  187.0390  175.7180  137.2520 C   0  0  0  0  0  0  0  0  0  0  0  0
  189.1970  176.5750  138.1740 C   0  0  0  0  0  1  0  0  0  0  0  0
  187.7670  176.7330  137.9580 N   0  0  0  0  0  0  0  0  0  0  0  0
  185.7730  175.9840  136.7430 O   0  0  0  0  0  0  0  0  0  0  0  0
  187.5460  174.5780  137.0750 O   0  0  0  0  0  1  0  0  0  0  0  0
  1 13  1  0  0  0  0
  2 11  1  0  0  0  0
  3  8  1  1  0  0  0
  3 10  1  0  0  0  0
  4  3  1  0  0  0  0
  5  8  1  0  0  0  0
  5 12  1  1  0  0  0
  6  1  1  0  0  0  0
  6  4  2  0  0  0  0
  7 10  1  0  0  0  0
  9  6  1  0  0  0  0
 11 14  2  0  0  0  0
 13  5  1  0  0  0  0
 14  4  1  0  0  0  0
 14  7  1  0  0  0  0
 15  9  2  0  0  0  0
 15 11  1  0  0  0  0
 16 21  1  6  0  0  0
 16 17  1  0  0  0  0
 17 15  1  0  0  0  0
 18 19  2  0  0  0  0
 19 17  1  0  0  0  0
 20 18  1  0  0  0  0
 20 16  1  0  0  0  0
 21 22  1  6  0  0  0
 23 21  1  0  0  0  0
 24 26  1  0  0  0  0
 26 25  1  0  0  0  0
 26 23  1  0  0  0  0
 27 24  2  0  0  0  0
 28 24  1  0  0  0  0
M  END
>  <MODEL>
6

>  <REMARK>
 VINA RESULT:      -8.9      3.190      5.680
  Name = 
  4 active torsions:
  status: ('A' for Active; 'I' for Inactive)
    1  A    between atoms: C_1  and  C_2
    2  A    between atoms: C_2  and  C_3
    3  A    between atoms: C_3  and  N_11
    4  A    between atoms: N_16  and  C_27
                            x       y       z     vdW  Elec       q    Type
                         _______ _______ _______ _____ _____    ______ ____

>  <TORSDO>
F 4

$$$$
=
 OpenBabel10262420523D

 28 31  0  0  1  0  0  0  0  0999 V2000
  187.5180  177.2590  143.2690 C   0  0  0  0  0  2  0  0  0  0  0  0
  182.0040  179.0470  143.7370 C   0  0  0  0  0  1  0  0  0  0  0  0
  186.2080  178.4490  145.9060 C   0  0  2  0  0  3  0  0  0  0  0  0
  185.5870  178.3060  144.5730 C   0  0  0  0  0  0  0  0  0  0  0  0
  188.4040  177.2020  145.6510 C   0  0  2  0  0  3  0  0  0  0  0  0
  186.1420  177.8560  143.3670 C   0  0  0  0  0  0  0  0  0  0  0  0
  183.9970  179.0030  146.0770 C   0  0  0  0  0  2  0  0  0  0  0  0
  186.9940  177.1930  146.2580 C   0  0  0  0  0  2  0  0  0  0  0  0
  185.3100  177.8290  142.2380 C   0  0  0  0  0  3  0  0  0  0  0  0
  185.1540  178.6630  146.8300 O   0  0  0  0  0  0  0  0  0  0  0  0
  183.4390  178.6790  143.5580 C   0  0  0  0  0  0  0  0  0  0  0  0
  189.5270  178.0160  146.7650 Cl  0  0  0  0  0  0  0  0  0  0  0  0
  188.5040  177.8580  144.2690 C   0  0  0  0  0  2  0  0  0  0  0  0
  184.2940  178.6820  144.6670 C   0  0  0  0  0  0  0  0  0  0  0  0
  183.9670  178.2610  142.3060 C   0  0  0  0  0  0  0  0  0  0  0  0
  183.1610  179.2520  140.0810 C   0  0  2  0  0  3  0  0  0  0  0  0
  183.1590  178.2250  141.1150 N   0  0  0  0  0  0  0  0  0  0  0  0
  181.3330  177.7450  139.8610 C   0  0  0  0  0  3  0  0  0  0  0  0
  182.0150  177.4060  140.9390 C   0  0  0  0  0  3  0  0  0  0  0  0
  181.9940  178.8870  139.1610 C   0  0  0  0  0  2  0  0  0  0  0  0
  184.5090  179.3290  139.3510 C   0  0  2  0  0  3  0  0  0  0  0  0
  184.5590  180.4390  138.5060 O   0  0  0  0  0  1  0  0  0  0  0  0
  184.9530  178.0440  138.6370 C   0  0  0  0  0  2  0  0  0  0  0  0
  187.4250  178.4910  138.4510 C   0  0  0  0  0  0  0  0  0  0  0  0
  186.1030  177.8560  136.4280 C   0  0  0  0  0  1  0  0  0  0  0  0
  186.1560  178.2280  137.8330 N   0  0  0  0  0  0  0  0  0  0  0  0
  187.5420  178.5160  139.8360 O   0  0  0  0  0  1  0  0  0  0  0  0
  188.4480  178.6880  137.7430 O   0  0  0  0  0  0  0  0  0  0  0  0
  1  6  1  0  0  0  0
  1 13  1  0  0  0  0
  3  8  1  1  0  0  0
  3 10  1  0  0  0  0
  4 14  1  0  0  0  0
  4  3  1  0  0  0  0
  5  8  1  0  0  0  0
  5 12  1  1  0  0  0
  6  4  2  0  0  0  0
  7 10  1  0  0  0  0
  9 15  2  0  0  0  0
  9  6  1  0  0  0  0
 11  2  1  0  0  0  0
 11 14  2  0  0  0  0
 13  5  1  0  0  0  0
 14  7  1  0  0  0  0
 15 11  1  0  0  0  0
 16 21  1  6  0  0  0
 16 17  1  0  0  0  0
 17 15  1  0  0  0  0
 18 19  2  0  0  0  0
 19 17  1  0  0  0  0
 20 18  1  0  0  0  0
 20 16  1  0  0  0  0
 21 22  1  6  0  0  0
 23 21  1  0  0  0  0
 24 27  1  0  0  0  0
 25 26  1  0  0  0  0
 26 24  1  0  0  0  0
 26 23  1  0  0  0  0
 28 24  2  0  0  0  0
M  END
>  <MODEL>
7

>  <REMARK>
 VINA RESULT:      -8.8      3.468      6.383
  Name = 
  4 active torsions:
  status: ('A' for Active; 'I' for Inactive)
    1  A    between atoms: C_1  and  C_2
    2  A    between atoms: C_2  and  C_3
    3  A    between atoms: C_3  and  N_11
    4  A    between atoms: N_16  and  C_27
                            x       y       z     vdW  Elec       q    Type
                         _______ _______ _______ _____ _____    ______ ____

>  <TORSDO>
F 4

$$$$
=
 OpenBabel10262420523D

 28 31  0  0  1  0  0  0  0  0999 V2000
  186.5410  178.4940  143.1600 C   0  0  0  0  0  2  0  0  0  0  0  0
  190.8720  176.6980  139.7180 C   0  0  0  0  0  1  0  0  0  0  0  0
  189.0610  176.8220  144.1280 C   0  0  2  0  0  3  0  0  0  0  0  0
  188.7230  177.2280  142.7490 C   0  0  0  0  0  0  0  0  0  0  0  0
  187.3580  178.0740  145.5310 C   0  0  2  0  0  3  0  0  0  0  0  0
  187.5920  177.9020  142.2630 C   0  0  0  0  0  0  0  0  0  0  0  0
  190.8060  176.2630  142.7610 C   0  0  0  0  0  2  0  0  0  0  0  0
  188.8250  177.9770  145.0910 C   0  0  0  0  0  2  0  0  0  0  0  0
  187.5300  178.1570  140.8860 C   0  0  0  0  0  3  0  0  0  0  0  0
  190.4270  176.4390  144.1200 O   0  0  0  0  0  0  0  0  0  0  0  0
  189.6970  177.0810  140.5560 C   0  0  0  0  0  0  0  0  0  0  0  0
  187.0930  177.0470  146.9600 Cl  0  0  0  0  0  0  0  0  0  0  0  0
  186.3370  177.7020  144.4490 C   0  0  0  0  0  2  0  0  0  0  0  0
  189.7330  176.8520  141.9360 C   0  0  0  0  0  0  0  0  0  0  0  0
  188.5560  177.7310  140.0130 C   0  0  0  0  0  0  0  0  0  0  0  0
  188.0430  177.0310  137.5990 C   0  0  2  0  0  3  0  0  0  0  0  0
  188.4360  178.0090  138.6050 N   0  0  0  0  0  0  0  0  0  0  0  0
  188.9510  179.0080  136.6380 C   0  0  0  0  0  3  0  0  0  0  0  0
  189.0110  179.1280  137.9500 C   0  0  0  0  0  3  0  0  0  0  0  0
  188.2860  177.7260  136.2570 C   0  0  0  0  0  2  0  0  0  0  0  0
  186.5920  176.5650  137.7880 C   0  0  2  0  0  3  0  0  0  0  0  0
  186.3680  175.3470  137.1450 O   0  0  0  0  0  1  0  0  0  0  0  0
  185.5110  177.6020  137.4450 C   0  0  0  0  0  2  0  0  0  0  0  0
  184.1140  178.6770  139.2440 C   0  0  0  0  0  0  0  0  0  0  0  0
  183.3760  176.5380  138.1860 C   0  0  0  0  0  1  0  0  0  0  0  0
  184.3830  177.5720  138.3690 N   0  0  0  0  0  0  0  0  0  0  0  0
  184.8920  179.8270  139.1840 O   0  0  0  0  0  0  0  0  0  0  0  0
  183.1610  178.6210  140.0650 O   0  0  0  0  0  1  0  0  0  0  0  0
  1 13  1  0  0  0  0
  2 11  1  0  0  0  0
  3  8  1  1  0  0  0
  4  3  1  0  0  0  0
  5 12  1  1  0  0  0
  6  4  1  0  0  0  0
  6  1  1  0  0  0  0
  7 10  1  0  0  0  0
  8  5  1  0  0  0  0
  9  6  2  0  0  0  0
 10  3  1  0  0  0  0
 11 14  1  0  0  0  0
 13  5  1  0  0  0  0
 14  4  2  0  0  0  0
 14  7  1  0  0  0  0
 15 11  2  0  0  0  0
 15  9  1  0  0  0  0
 16 21  1  1  0  0  0
 16 17  1  0  0  0  0
 17 15  1  0  0  0  0
 18 19  2  0  0  0  0
 19 17  1  0  0  0  0
 20 18  1  0  0  0  0
 20 16  1  0  0  0  0
 21 22  1  6  0  0  0
 23 21  1  0  0  0  0
 23 26  1  0  0  0  0
 24 28  1  0  0  0  0
 25 26  1  0  0  0  0
 26 24  1  0  0  0  0
 27 24  2  0  0  0  0
M  END
>  <MODEL>
8

>  <REMARK>
 VINA RESULT:      -8.8      3.543      6.876
  Name = 
  4 active torsions:
  status: ('A' for Active; 'I' for Inactive)
    1  A    between atoms: C_1  and  C_2
    2  A    between atoms: C_2  and  C_3
    3  A    between atoms: C_3  and  N_11
    4  A    between atoms: N_16  and  C_27
                            x       y       z     vdW  Elec       q    Type
                         _______ _______ _______ _____ _____    ______ ____

>  <TORSDO>
F 4

$$$$
=
 OpenBabel10262420523D

 28 31  0  0  1  0  0  0  0  0999 V2000
  187.5040  177.4940  142.4830 C   0  0  0  0  0  2  0  0  0  0  0  0
  182.2110  179.0060  144.3590 C   0  0  0  0  0  1  0  0  0  0  0  0
  186.7840  178.2530  145.4810 C   0  0  2  0  0  3  0  0  0  0  0  0
  185.8930  178.2790  144.3030 C   0  0  0  0  0  0  0  0  0  0  0  0
  188.8790  177.1310  144.5900 C   0  0  2  0  0  3  0  0  0  0  0  0
  186.1790  178.0220  142.9540 C   0  0  0  0  0  0  0  0  0  0  0  0
  184.6590  178.7020  146.1940 C   0  0  0  0  0  2  0  0  0  0  0  0
  187.6310  176.9870  145.4730 C   0  0  0  0  0  2  0  0  0  0  0  0
  185.1250  178.1270  142.0350 C   0  0  0  0  0  3  0  0  0  0  0  0
  185.9510  178.2980  146.6280 O   0  0  0  0  0  0  0  0  0  0  0  0
  183.5770  178.7170  143.8300 C   0  0  0  0  0  0  0  0  0  0  0  0
  190.2120  177.8180  145.5480 Cl  0  0  0  0  0  0  0  0  0  0  0  0
  188.6790  177.9780  143.3280 C   0  0  0  0  0  2  0  0  0  0  0  0
  184.6480  178.5940  144.7210 C   0  0  0  0  0  0  0  0  0  0  0  0
  183.8250  178.4990  142.4480 C   0  0  0  0  0  0  0  0  0  0  0  0
  182.8790  179.3790  140.2310 C   0  0  2  0  0  3  0  0  0  0  0  0
  182.7820  178.6030  141.4610 N   0  0  0  0  0  0  0  0  0  0  0  0
  180.6490  178.6960  140.7000 C   0  0  0  0  0  3  0  0  0  0  0  0
  181.4190  178.2830  141.6890 C   0  0  0  0  0  3  0  0  0  0  0  0
  181.4660  179.3670  139.6450 C   0  0  0  0  0  2  0  0  0  0  0  0
  183.9380  178.8100  139.2760 C   0  0  2  0  0  3  0  0  0  0  0  0
  184.9300  179.7530  139.0070 O   0  0  0  0  0  1  0  0  0  0  0  0
  183.3960  178.1650  137.9910 C   0  0  0  0  0  2  0  0  0  0  0  0
  184.9280  176.3480  137.1580 C   0  0  0  0  0  0  0  0  0  0  0  0
  183.0570  175.8010  138.7210 C   0  0  0  0  0  1  0  0  0  0  0  0
  183.7510  176.7560  137.8700 N   0  0  0  0  0  0  0  0  0  0  0  0
  185.7890  177.2970  136.6190 O   0  0  0  0  0  0  0  0  0  0  0  0
  185.2000  175.1250  137.0270 O   0  0  0  0  0  1  0  0  0  0  0  0
  1  6  1  0  0  0  0
  1 13  1  0  0  0  0
  3  8  1  1  0  0  0
  3 10  1  0  0  0  0
  4 14  1  0  0  0  0
  4  3  1  0  0  0  0
  5  8  1  0  0  0  0
  5 12  1  1  0  0  0
  6  4  2  0  0  0  0
  7 10  1  0  0  0  0
  9 15  2  0  0  0  0
  9  6  1  0  0  0  0
 11  2  1  0  0  0  0
 11 14  2  0  0  0  0
 13  5  1  0  0  0  0
 14  7  1  0  0  0  0
 15 11  1  0  0  0  0
 16 21  1  6  0  0  0
 16 17  1  0  0  0  0
 17 19  1  0  0  0  0
 17 15  1  0  0  0  0
 18 19  2  0  0  0  0
 20 16  1  0  0  0  0
 20 18  1  0  0  0  0
 21 22  1  6  0  0  0
 23 21  1  0  0  0  0
 24 26  1  0  0  0  0
 26 23  1  0  0  0  0
 26 25  1  0  0  0  0
 27 24  2  0  0  0  0
 28 24  1  0  0  0  0
M  END
>  <MODEL>
9

>  <REMARK>
 VINA RESULT:      -8.6      3.815      6.824
  Name = 
  4 active torsions:
  status: ('A' for Active; 'I' for Inactive)
    1  A    between atoms: C_1  and  C_2
    2  A    between atoms: C_2  and  C_3
    3  A    between atoms: C_3  and  N_11
    4  A    between atoms: N_16  and  C_27
                            x       y       z     vdW  Elec       q    Type
                         _______ _______ _______ _____ _____    ______ ____

>  <TORSDO>
F 4

$$$$
