=
 OpenBabel10262419553D

 25 28  0  0  1  0  0  0  0  0999 V2000
  187.0590  177.7470  145.5360 C   0  0  0  0  0  0  0  0  0  0  0  0
  188.2230  177.1480  145.3070 C   0  0  0  0  0  0  0  0  0  0  0  0
  187.3190  177.5620  148.0140 C   0  0  0  0  0  3  0  0  0  0  0  0
  186.0220  178.2450  144.6590 C   0  0  0  0  0  0  0  0  0  0  0  0
  189.8760  176.4010  143.7140 N   0  0  0  0  0  0  0  0  0  0  0  0
  183.5400  178.9420  143.4850 C   0  0  0  0  0  2  0  0  0  0  0  0
  188.4740  176.9900  147.8210 N   0  0  0  0  0  0  0  0  0  0  0  0
  185.0490  178.6780  145.4610 C   0  0  0  0  0  0  0  0  0  0  0  0
  183.7910  179.3170  144.9520 C   0  0  0  0  0  2  0  0  0  0  0  0
  190.5270  177.3100  146.4740 C   0  0  0  0  0  0  0  0  0  0  0  0
  191.2750  177.3960  147.7640 C   0  0  0  0  0  1  0  0  0  0  0  0
  188.6050  176.8530  143.9990 O   0  0  0  0  0  0  0  0  0  0  0  0
  184.8190  179.1090  142.6550 C   0  0  0  0  0  2  0  0  0  0  0  0
  186.5570  177.9920  146.8520 C   0  0  0  0  0  0  0  0  0  0  0  0
  185.3830  178.5350  146.8480 N   0  0  0  0  0  0  0  0  0  0  0  0
  191.2510  177.5540  145.3660 C   0  0  0  0  0  3  0  0  0  0  0  0
  185.9220  178.1730  143.1640 C   0  0  0  0  0  2  0  0  0  0  0  0
  190.7830  177.5150  143.9410 C   0  0  0  0  0  2  0  0  0  0  0  0
  189.1060  176.7540  146.4950 C   0  0  2  0  0  3  0  0  0  0  0  0
  189.9400  176.0160  142.2980 C   0  0  0  0  0  2  0  0  0  0  0  0
  188.7430  177.5520  140.7400 C   0  0  0  0  0  1  0  0  0  0  0  0
  190.0930  177.2030  141.3370 C   0  0  2  0  0  3  0  0  0  0  0  0
  191.0750  176.9120  140.2490 C   0  0  0  0  0  0  0  0  0  0  0  0
  190.7440  176.0090  139.2490 O   0  0  0  0  0  0  0  0  0  0  0  0
  192.2020  177.4770  140.2330 O   0  0  0  0  0  1  0  0  0  0  0  0
  1 14  1  0  0  0  0
  2  1  2  0  0  0  0
  4  8  2  0  0  0  0
  4  1  1  0  0  0  0
  5 18  1  0  0  0  0
  5 12  1  0  0  0  0
  6  9  1  0  0  0  0
  7  3  2  0  0  0  0
  8 15  1  0  0  0  0
  9  8  1  0  0  0  0
 10 19  1  0  0  0  0
 10 11  1  0  0  0  0
 12  2  1  0  0  0  0
 13 17  1  0  0  0  0
 13  6  1  0  0  0  0
 14  3  1  0  0  0  0
 15 14  2  0  0  0  0
 16 10  2  0  0  0  0
 17  4  1  0  0  0  0
 18 16  1  0  0  0  0
 19  2  1  6  0  0  0
 19  7  1  0  0  0  0
 20  5  1  0  0  0  0
 22 21  1  6  0  0  0
 22 20  1  0  0  0  0
 23 22  1  0  0  0  0
 24 23  2  0  0  0  0
 25 23  1  0  0  0  0
M  END
>  <MODEL>
1

>  <REMARK>
 VINA RESULT:      -9.2      0.000      0.000
  Name = 
  3 active torsions:
  status: ('A' for Active; 'I' for Inactive)
    1  A    between atoms: C_2  and  C_25
    2  A    between atoms: N_6  and  C_15
    3  A    between atoms: C_15  and  C_25
                            x       y       z     vdW  Elec       q    Type
                         _______ _______ _______ _____ _____    ______ ____

>  <TORSDO>
F 3

$$$$
=
 OpenBabel10262419553D

 25 28  0  0  1  0  0  0  0  0999 V2000
  186.5990  178.3900  142.3840 C   0  0  0  0  0  0  0  0  0  0  0  0
  187.9180  178.2980  142.2610 C   0  0  0  0  0  0  0  0  0  0  0  0
  186.2690  178.6140  139.9170 C   0  0  0  0  0  3  0  0  0  0  0  0
  185.7180  178.4180  143.5320 C   0  0  2  0  0  3  0  0  0  0  0  0
  190.0670  177.9770  143.3160 N   0  0  0  0  0  0  0  0  0  0  0  0
  183.6260  178.9820  145.3550 C   0  0  0  0  0  2  0  0  0  0  0  0
  187.5590  178.5050  139.7640 N   0  0  0  0  0  0  0  0  0  0  0  0
  184.4930  178.6020  143.0410 C   0  0  0  0  0  0  0  0  0  0  0  0
  183.2640  178.6490  143.9010 C   0  0  0  0  0  2  0  0  0  0  0  0
  189.4300  177.0850  140.5470 C   0  0  0  0  0  0  0  0  0  0  0  0
  189.6700  176.7350  139.1140 C   0  0  0  0  0  1  0  0  0  0  0  0
  188.7180  178.2540  143.4020 O   0  0  0  0  0  0  0  0  0  0  0  0
  184.8060  178.1260  145.8310 C   0  0  0  0  0  2  0  0  0  0  0  0
  185.7220  178.5380  141.2630 C   0  0  0  0  0  0  0  0  0  0  0  0
  184.4820  178.6650  141.6080 N   0  0  0  0  0  0  0  0  0  0  0  0
  190.1850  176.4210  141.4400 C   0  0  0  0  0  3  0  0  0  0  0  0
  186.0570  178.4120  144.9920 C   0  0  0  0  0  2  0  0  0  0  0  0
  190.1880  176.5790  142.9330 C   0  0  0  0  0  2  0  0  0  0  0  0
  188.5400  178.2830  140.8610 C   0  0  0  0  0  0  0  0  0  0  0  0
  190.6780  178.1630  144.6380 C   0  0  0  0  0  2  0  0  0  0  0  0
  189.2960  177.6920  146.6590 C   0  0  0  0  0  1  0  0  0  0  0  0
  190.2750  177.0970  145.6650 C   0  0  2  0  0  3  0  0  0  0  0  0
  191.4620  176.5420  146.3850 C   0  0  0  0  0  0  0  0  0  0  0  0
  191.7990  177.0390  147.6360 O   0  0  0  0  0  1  0  0  0  0  0  0
  192.1610  175.6320  145.8640 O   0  0  0  0  0  0  0  0  0  0  0  0
  1  4  1  0  0  0  0
  2  1  1  0  0  0  0
  2 12  1  0  0  0  0
  3 14  1  0  0  0  0
  4 17  1  1  0  0  0
  5 12  1  0  0  0  0
  5 20  1  0  0  0  0
  6 13  1  0  0  0  0
  7  3  2  0  0  0  0
  7 19  1  0  0  0  0
  8  4  1  0  0  0  0
  8  9  1  0  0  0  0
  9  6  1  0  0  0  0
 10 19  1  0  0  0  0
 10 16  2  0  0  0  0
 11 10  1  0  0  0  0
 14 15  1  0  0  0  0
 14  1  2  0  0  0  0
 15  8  2  0  0  0  0
 16 18  1  0  0  0  0
 17 13  1  0  0  0  0
 18  5  1  0  0  0  0
 19  2  2  0  0  0  0
 20 22  1  0  0  0  0
 22 23  1  0  0  0  0
 22 21  1  1  0  0  0
 23 24  1  0  0  0  0
 25 23  2  0  0  0  0
M  END
>  <MODEL>
2

>  <REMARK>
 VINA RESULT:      -8.9      2.315      5.016
  Name = 
  3 active torsions:
  status: ('A' for Active; 'I' for Inactive)
    1  A    between atoms: C_2  and  C_25
    2  A    between atoms: N_6  and  C_15
    3  A    between atoms: C_15  and  C_25
                            x       y       z     vdW  Elec       q    Type
                         _______ _______ _______ _____ _____    ______ ____

>  <TORSDO>
F 3

$$$$
=
 OpenBabel10262419553D

 25 28  0  0  1  0  0  0  0  0999 V2000
  185.9370  178.0570  144.8720 C   0  0  0  0  0  0  0  0  0  0  0  0
  187.1550  177.5280  144.9020 C   0  0  0  0  0  0  0  0  0  0  0  0
  185.7750  178.1130  147.3650 C   0  0  0  0  0  3  0  0  0  0  0  0
  185.0390  178.3960  143.7890 C   0  0  0  0  0  0  0  0  0  0  0  0
  189.1000  176.7670  143.6890 N   0  0  0  0  0  0  0  0  0  0  0  0
  182.7610  178.7980  142.1550 C   0  0  0  0  0  2  0  0  0  0  0  0
  186.9780  177.6140  147.4250 N   0  0  0  0  0  0  0  0  0  0  0  0
  183.9190  178.8250  144.3710 C   0  0  0  0  0  0  0  0  0  0  0  0
  182.7320  179.3200  143.5990 C   0  0  0  0  0  2  0  0  0  0  0  0
  189.2100  177.9650  146.4130 C   0  0  0  0  0  0  0  0  0  0  0  0
  189.7180  178.2210  147.7940 C   0  0  0  0  0  1  0  0  0  0  0  0
  187.7740  177.1470  143.7120 O   0  0  0  0  0  0  0  0  0  0  0  0
  184.1520  178.9850  141.5370 C   0  0  0  0  0  2  0  0  0  0  0  0
  185.2010  178.3800  146.0560 C   0  0  0  0  0  0  0  0  0  0  0  0
  184.0160  178.8320  145.8020 N   0  0  0  0  0  0  0  0  0  0  0  0
  190.0980  178.1630  145.4220 C   0  0  0  0  0  3  0  0  0  0  0  0
  185.2030  178.1840  142.3140 C   0  0  0  0  0  2  0  0  0  0  0  0
  189.8870  177.9620  143.9500 C   0  0  0  0  0  2  0  0  0  0  0  0
  187.8420  177.3080  146.2540 C   0  0  2  0  0  3  0  0  0  0  0  0
  189.4290  176.2640  142.3490 C   0  0  0  0  0  2  0  0  0  0  0  0
  188.5220  177.6860  140.5130 C   0  0  0  0  0  1  0  0  0  0  0  0
  189.7570  177.3660  141.3330 C   0  0  2  0  0  3  0  0  0  0  0  0
  190.8830  176.9750  140.4330 C   0  0  0  0  0  0  0  0  0  0  0  0
  190.6720  176.0230  139.4450 O   0  0  0  0  0  0  0  0  0  0  0  0
  192.0230  177.4970  140.5650 O   0  0  0  0  0  1  0  0  0  0  0  0
  1  2  2  0  0  0  0
  1 14  1  0  0  0  0
  3  7  2  0  0  0  0
  4  8  2  0  0  0  0
  4  1  1  0  0  0  0
  5 12  1  0  0  0  0
  5 18  1  0  0  0  0
  6  9  1  0  0  0  0
  8 15  1  0  0  0  0
  9  8  1  0  0  0  0
 10 11  1  0  0  0  0
 12  2  1  0  0  0  0
 13  6  1  0  0  0  0
 13 17  1  0  0  0  0
 14  3  1  0  0  0  0
 15 14  2  0  0  0  0
 16 10  2  0  0  0  0
 17  4  1  0  0  0  0
 18 16  1  0  0  0  0
 19  2  1  6  0  0  0
 19 10  1  0  0  0  0
 19  7  1  0  0  0  0
 20  5  1  0  0  0  0
 22 21  1  6  0  0  0
 22 20  1  0  0  0  0
 23 25  1  0  0  0  0
 23 22  1  0  0  0  0
 24 23  2  0  0  0  0
M  END
>  <MODEL>
3

>  <REMARK>
 VINA RESULT:      -8.8      1.047      1.261
  Name = 
  3 active torsions:
  status: ('A' for Active; 'I' for Inactive)
    1  A    between atoms: C_2  and  C_25
    2  A    between atoms: N_6  and  C_15
    3  A    between atoms: C_15  and  C_25
                            x       y       z     vdW  Elec       q    Type
                         _______ _______ _______ _____ _____    ______ ____

>  <TORSDO>
F 3

$$$$
=
 OpenBabel10262419553D

 25 28  0  0  1  0  0  0  0  0999 V2000
  186.8700  178.2060  142.1500 C   0  0  0  0  0  0  0  0  0  0  0  0
  188.0090  178.1430  141.4690 C   0  0  0  0  0  0  0  0  0  0  0  0
  185.5350  178.7050  140.0980 C   0  0  0  0  0  3  0  0  0  0  0  0
  186.5610  178.0950  143.5600 C   0  0  2  0  0  3  0  0  0  0  0  0
  190.3870  177.7260  141.4680 N   0  0  0  0  0  0  0  0  0  0  0  0
  185.4630  178.4270  146.1490 C   0  0  0  0  0  2  0  0  0  0  0  0
  186.6330  178.6270  139.4000 N   0  0  0  0  0  0  0  0  0  0  0  0
  185.2510  178.3200  143.6600 C   0  0  0  0  0  0  0  0  0  0  0  0
  184.5060  178.2570  144.9610 C   0  0  0  0  0  2  0  0  0  0  0  0
  188.6020  177.1480  139.1550 C   0  0  0  0  0  0  0  0  0  0  0  0
  188.1980  176.9640  137.7280 C   0  0  0  0  0  1  0  0  0  0  0  0
  189.2140  177.9780  142.1480 O   0  0  0  0  0  0  0  0  0  0  0  0
  186.7000  177.5350  145.9830 C   0  0  0  0  0  2  0  0  0  0  0  0
  185.6080  178.4710  141.5320 C   0  0  0  0  0  0  0  0  0  0  0  0
  184.6370  178.5460  142.3840 N   0  0  0  0  0  0  0  0  0  0  0  0
  189.6390  176.3950  139.5650 C   0  0  0  0  0  3  0  0  0  0  0  0
  187.4870  177.9270  144.7280 C   0  0  0  0  0  2  0  0  0  0  0  0
  190.2800  176.3820  140.9220 C   0  0  0  0  0  2  0  0  0  0  0  0
  187.9760  178.2930  139.9440 C   0  0  0  0  0  0  0  0  0  0  0  0
  191.5080  177.7680  142.4150 C   0  0  0  0  0  2  0  0  0  0  0  0
  191.6800  179.3400  144.3420 C   0  0  0  0  0  1  0  0  0  0  0  0
  191.0860  178.0280  143.8670 C   0  0  2  0  0  3  0  0  0  0  0  0
  191.5050  176.9170  144.7750 C   0  0  0  0  0  0  0  0  0  0  0  0
  191.6810  175.6400  144.2600 O   0  0  0  0  0  0  0  0  0  0  0  0
  191.6970  177.1280  146.0030 O   0  0  0  0  0  1  0  0  0  0  0  0
  1  4  1  0  0  0  0
  2 12  1  0  0  0  0
  2  1  1  0  0  0  0
  3 14  1  0  0  0  0
  4  8  1  0  0  0  0
  4 17  1  1  0  0  0
  5 12  1  0  0  0  0
  5 20  1  0  0  0  0
  7 19  1  0  0  0  0
  7  3  2  0  0  0  0
  8  9  1  0  0  0  0
  9  6  1  0  0  0  0
 10 16  2  0  0  0  0
 10 19  1  0  0  0  0
 11 10  1  0  0  0  0
 13  6  1  0  0  0  0
 14  1  2  0  0  0  0
 14 15  1  0  0  0  0
 15  8  2  0  0  0  0
 16 18  1  0  0  0  0
 17 13  1  0  0  0  0
 18  5  1  0  0  0  0
 19  2  2  0  0  0  0
 20 22  1  0  0  0  0
 22 21  1  1  0  0  0
 22 23  1  0  0  0  0
 23 25  1  0  0  0  0
 24 23  2  0  0  0  0
M  END
>  <MODEL>
4

>  <REMARK>
 VINA RESULT:      -8.6      2.437      5.117
  Name = 
  3 active torsions:
  status: ('A' for Active; 'I' for Inactive)
    1  A    between atoms: C_2  and  C_25
    2  A    between atoms: N_6  and  C_15
    3  A    between atoms: C_15  and  C_25
                            x       y       z     vdW  Elec       q    Type
                         _______ _______ _______ _____ _____    ______ ____

>  <TORSDO>
F 3

$$$$
=
 OpenBabel10262419553D

 25 28  0  0  1  0  0  0  0  0999 V2000
  187.0200  177.7330  144.7870 C   0  0  0  0  0  0  0  0  0  0  0  0
  188.1180  177.3160  144.1650 C   0  0  0  0  0  0  0  0  0  0  0  0
  187.9390  177.1620  147.0390 C   0  0  0  0  0  3  0  0  0  0  0  0
  185.7570  178.2530  144.3080 C   0  0  0  0  0  0  0  0  0  0  0  0
  189.3340  177.0400  142.0980 N   0  0  0  0  0  0  0  0  0  0  0  0
  183.0140  178.8540  143.9450 C   0  0  0  0  0  2  0  0  0  0  0  0
  189.0360  176.7640  146.4590 N   0  0  0  0  0  0  0  0  0  0  0  0
  185.0060  178.4310  145.3950 C   0  0  0  0  0  0  0  0  0  0  0  0
  183.6200  179.0020  145.3480 C   0  0  0  0  0  2  0  0  0  0  0  0
  190.6330  177.5360  144.7310 C   0  0  0  0  0  0  0  0  0  0  0  0
  191.6900  177.4860  145.7870 C   0  0  0  0  0  1  0  0  0  0  0  0
  188.1580  177.2920  142.7720 O   0  0  0  0  0  0  0  0  0  0  0  0
  184.0140  179.3020  142.8720 C   0  0  0  0  0  2  0  0  0  0  0  0
  186.8700  177.6940  146.2090 C   0  0  0  0  0  0  0  0  0  0  0  0
  185.7040  178.0950  146.6020 N   0  0  0  0  0  0  0  0  0  0  0  0
  191.0200  178.0440  143.5470 C   0  0  0  0  0  3  0  0  0  0  0  0
  185.2700  178.4240  142.9010 C   0  0  0  0  0  2  0  0  0  0  0  0
  190.1950  178.1940  142.3030 C   0  0  0  0  0  2  0  0  0  0  0  0
  189.3080  176.8280  144.9980 C   0  0  2  0  0  3  0  0  0  0  0  0
  189.0450  176.9100  140.6640 C   0  0  0  0  0  2  0  0  0  0  0  0
  187.1190  178.2550  139.8300 C   0  0  0  0  0  1  0  0  0  0  0  0
  188.6260  178.2240  139.9920 C   0  0  2  0  0  3  0  0  0  0  0  0
  189.2890  178.4050  138.6650 C   0  0  0  0  0  0  0  0  0  0  0  0
  190.1830  177.4460  138.2080 O   0  0  0  0  0  1  0  0  0  0  0  0
  189.0470  179.4210  137.9590 O   0  0  0  0  0  0  0  0  0  0  0  0
  1 14  1  0  0  0  0
  2  1  2  0  0  0  0
  4  1  1  0  0  0  0
  4  8  2  0  0  0  0
  5 18  1  0  0  0  0
  5 12  1  0  0  0  0
  6  9  1  0  0  0  0
  7  3  2  0  0  0  0
  8 15  1  0  0  0  0
  9  8  1  0  0  0  0
 10 19  1  0  0  0  0
 10 11  1  0  0  0  0
 12  2  1  0  0  0  0
 13 17  1  0  0  0  0
 13  6  1  0  0  0  0
 14 15  2  0  0  0  0
 14  3  1  0  0  0  0
 16 10  2  0  0  0  0
 17  4  1  0  0  0  0
 18 16  1  0  0  0  0
 19  2  1  6  0  0  0
 19  7  1  0  0  0  0
 20  5  1  0  0  0  0
 22 21  1  6  0  0  0
 22 20  1  0  0  0  0
 23 22  1  0  0  0  0
 24 23  1  0  0  0  0
 25 23  2  0  0  0  0
M  END
>  <MODEL>
5

>  <REMARK>
 VINA RESULT:      -8.6      1.404      1.723
  Name = 
  3 active torsions:
  status: ('A' for Active; 'I' for Inactive)
    1  A    between atoms: C_2  and  C_25
    2  A    between atoms: N_6  and  C_15
    3  A    between atoms: C_15  and  C_25
                            x       y       z     vdW  Elec       q    Type
                         _______ _______ _______ _____ _____    ______ ____

>  <TORSDO>
F 3

$$$$
=
 OpenBabel10262419553D

 25 28  0  0  1  0  0  0  0  0999 V2000
  188.6360  177.3470  144.5470 C   0  0  0  0  0  0  0  0  0  0  0  0
  187.9630  177.3110  143.4010 C   0  0  0  0  0  0  0  0  0  0  0  0
  190.6960  176.3960  143.5010 C   0  0  0  0  0  3  0  0  0  0  0  0
  188.2660  177.7310  145.8920 C   0  0  2  0  0  3  0  0  0  0  0  0
  185.9330  177.8010  142.1900 N   0  0  0  0  0  0  0  0  0  0  0  0
  187.9810  177.8920  148.7050 C   0  0  0  0  0  2  0  0  0  0  0  0
  190.0680  176.3690  142.3580 N   0  0  0  0  0  0  0  0  0  0  0  0
  189.3370  177.4840  146.6450 C   0  0  0  0  0  0  0  0  0  0  0  0
  189.3940  177.7830  148.1130 C   0  0  0  0  0  2  0  0  0  0  0  0
  188.6450  177.8370  140.9620 C   0  0  0  0  0  0  0  0  0  0  0  0
  189.6860  177.7130  139.8960 C   0  0  0  0  0  1  0  0  0  0  0  0
  186.6120  177.6520  143.3810 O   0  0  0  0  0  0  0  0  0  0  0  0
  187.0890  178.7740  147.8240 C   0  0  0  0  0  2  0  0  0  0  0  0
  189.9950  176.9180  144.6630 C   0  0  0  0  0  0  0  0  0  0  0  0
  190.4400  176.9840  145.8760 N   0  0  0  0  0  0  0  0  0  0  0  0
  187.6430  178.6930  140.6950 C   0  0  0  0  0  3  0  0  0  0  0  0
  186.9330  178.1640  146.4260 C   0  0  0  0  0  2  0  0  0  0  0  0
  186.4520  179.0020  141.5540 C   0  0  0  0  0  2  0  0  0  0  0  0
  188.6810  176.8540  142.1270 C   0  0  0  0  0  0  0  0  0  0  0  0
  184.5050  177.9920  142.4740 C   0  0  0  0  0  2  0  0  0  0  0  0
  182.3290  179.0040  141.7990 C   0  0  0  0  0  1  0  0  0  0  0  0
  183.7240  178.6450  141.3260 C   0  0  2  0  0  3  0  0  0  0  0  0
  183.6460  177.7530  140.1290 C   0  0  0  0  0  0  0  0  0  0  0  0
  184.2600  178.1380  138.9460 O   0  0  0  0  0  0  0  0  0  0  0  0
  183.0230  176.6580  140.1840 O   0  0  0  0  0  1  0  0  0  0  0  0
  1 14  2  0  0  0  0
  1  4  1  0  0  0  0
  2  1  1  0  0  0  0
  3 14  1  0  0  0  0
  4 17  1  1  0  0  0
  4  8  1  0  0  0  0
  5 20  1  0  0  0  0
  5 12  1  0  0  0  0
  7  3  2  0  0  0  0
  8  9  1  0  0  0  0
  9  6  1  0  0  0  0
 10 19  1  0  0  0  0
 11 10  1  0  0  0  0
 12  2  1  0  0  0  0
 13  6  1  0  0  0  0
 14 15  1  0  0  0  0
 15  8  2  0  0  0  0
 16 10  2  0  0  0  0
 16 18  1  0  0  0  0
 17 13  1  0  0  0  0
 18  5  1  0  0  0  0
 19  7  1  0  0  0  0
 19  2  2  0  0  0  0
 22 21  1  1  0  0  0
 22 20  1  0  0  0  0
 23 25  1  0  0  0  0
 23 22  1  0  0  0  0
 24 23  2  0  0  0  0
M  END
>  <MODEL>
6

>  <REMARK>
 VINA RESULT:      -8.3      2.592      5.646
  Name = 
  3 active torsions:
  status: ('A' for Active; 'I' for Inactive)
    1  A    between atoms: C_2  and  C_25
    2  A    between atoms: N_6  and  C_15
    3  A    between atoms: C_15  and  C_25
                            x       y       z     vdW  Elec       q    Type
                         _______ _______ _______ _____ _____    ______ ____

>  <TORSDO>
F 3

$$$$
=
 OpenBabel10262419553D

 25 28  0  0  1  0  0  0  0  0999 V2000
  185.9310  178.3160  141.9800 C   0  0  0  0  0  0  0  0  0  0  0  0
  186.1270  178.5790  140.6920 C   0  0  0  0  0  0  0  0  0  0  0  0
  183.5160  178.9450  141.8590 C   0  0  0  0  0  3  0  0  0  0  0  0
  186.8180  177.8940  143.0430 C   0  0  2  0  0  3  0  0  0  0  0  0
  187.6260  178.5910  138.7990 N   0  0  0  0  0  0  0  0  0  0  0  0
  188.1270  177.5460  145.5300 C   0  0  0  0  0  2  0  0  0  0  0  0
  183.6730  179.1900  140.5880 N   0  0  0  0  0  0  0  0  0  0  0  0
  186.0700  177.8660  144.1450 C   0  0  0  0  0  0  0  0  0  0  0  0
  186.5970  177.4350  145.4820 C   0  0  0  0  0  2  0  0  0  0  0  0
  184.6890  178.1470  138.5860 C   0  0  0  0  0  0  0  0  0  0  0  0
  183.3260  178.1630  137.9740 C   0  0  0  0  0  1  0  0  0  0  0  0
  187.4130  178.5040  140.1580 O   0  0  0  0  0  0  0  0  0  0  0  0
  188.7560  176.9290  144.2740 C   0  0  0  0  0  2  0  0  0  0  0  0
  184.6600  178.4670  142.6190 C   0  0  0  0  0  0  0  0  0  0  0  0
  184.7020  178.2120  143.8860 N   0  0  0  0  0  0  0  0  0  0  0  0
  185.6400  177.5240  137.8670 C   0  0  0  0  0  3  0  0  0  0  0  0
  188.3020  177.6770  143.0160 C   0  0  0  0  0  2  0  0  0  0  0  0
  187.0930  177.3730  138.2080 C   0  0  0  0  0  2  0  0  0  0  0  0
  184.9360  179.0000  139.8260 C   0  0  0  0  0  0  0  0  0  0  0  0
  189.0700  178.6520  138.5440 C   0  0  0  0  0  2  0  0  0  0  0  0
  190.6450  177.3880  140.0060 C   0  0  0  0  0  1  0  0  0  0  0  0
  189.7960  177.3160  138.7520 C   0  0  2  0  0  3  0  0  0  0  0  0
  190.6460  176.9560  137.5770 C   0  0  0  0  0  0  0  0  0  0  0  0
  192.0000  176.7120  137.7600 O   0  0  0  0  0  1  0  0  0  0  0  0
  190.1470  176.8770  136.4220 O   0  0  0  0  0  0  0  0  0  0  0  0
  1 14  2  0  0  0  0
  1  4  1  0  0  0  0
  2  1  1  0  0  0  0
  3 14  1  0  0  0  0
  4 17  1  1  0  0  0
  4  8  1  0  0  0  0
  5 12  1  0  0  0  0
  7  3  2  0  0  0  0
  8  9  1  0  0  0  0
  9  6  1  0  0  0  0
 10 19  1  0  0  0  0
 11 10  1  0  0  0  0
 12  2  1  0  0  0  0
 13  6  1  0  0  0  0
 14 15  1  0  0  0  0
 15  8  2  0  0  0  0
 16 18  1  0  0  0  0
 16 10  2  0  0  0  0
 17 13  1  0  0  0  0
 18  5  1  0  0  0  0
 19  7  1  0  0  0  0
 19  2  2  0  0  0  0
 20 22  1  0  0  0  0
 20  5  1  0  0  0  0
 22 21  1  1  0  0  0
 23 24  1  0  0  0  0
 23 22  1  0  0  0  0
 25 23  2  0  0  0  0
M  END
>  <MODEL>
7

>  <REMARK>
 VINA RESULT:      -7.9      3.045      5.852
  Name = 
  3 active torsions:
  status: ('A' for Active; 'I' for Inactive)
    1  A    between atoms: C_2  and  C_25
    2  A    between atoms: N_6  and  C_15
    3  A    between atoms: C_15  and  C_25
                            x       y       z     vdW  Elec       q    Type
                         _______ _______ _______ _____ _____    ______ ____

>  <TORSDO>
F 3

$$$$
=
 OpenBabel10262419553D

 25 28  0  0  1  0  0  0  0  0999 V2000
  189.4450  177.6770  140.7390 C   0  0  0  0  0  0  0  0  0  0  0  0
  188.7320  178.1030  141.7760 C   0  0  0  0  0  0  0  0  0  0  0  0
  191.5350  177.5060  142.0990 C   0  0  0  0  0  3  0  0  0  0  0  0
  189.1230  177.4670  139.3440 C   0  0  0  0  0  0  0  0  0  0  0  0
  186.5870  178.7640  142.6670 N   0  0  0  0  0  0  0  0  0  0  0  0
  189.1910  177.3360  136.5160 C   0  0  0  0  0  2  0  0  0  0  0  0
  190.8550  177.9020  143.1390 N   0  0  0  0  0  0  0  0  0  0  0  0
  190.2650  177.1020  138.7610 C   0  0  0  0  0  0  0  0  0  0  0  0
  190.3650  176.7440  137.3080 C   0  0  0  0  0  2  0  0  0  0  0  0
  188.7070  177.4230  144.2720 C   0  0  0  0  0  0  0  0  0  0  0  0
  189.5070  177.0560  145.4800 C   0  0  0  0  0  1  0  0  0  0  0  0
  187.4060  178.4920  141.5910 O   0  0  0  0  0  0  0  0  0  0  0  0
  187.8620  177.0680  137.2330 C   0  0  0  0  0  2  0  0  0  0  0  0
  190.8360  177.3540  140.8320 C   0  0  0  0  0  0  0  0  0  0  0  0
  191.3500  177.0140  139.6950 N   0  0  0  0  0  0  0  0  0  0  0  0
  187.3830  177.2050  144.3660 C   0  0  0  0  0  3  0  0  0  0  0  0
  187.8440  177.7410  138.6100 C   0  0  0  0  0  2  0  0  0  0  0  0
  186.3320  177.4980  143.3350 C   0  0  0  0  0  2  0  0  0  0  0  0
  189.3970  178.1960  143.1530 C   0  0  2  0  0  3  0  0  0  0  0  0
  185.3150  179.3070  142.1740 C   0  0  0  0  0  2  0  0  0  0  0  0
  183.4420  178.0750  141.0840 C   0  0  0  0  0  1  0  0  0  0  0  0
  184.1120  178.3840  142.4080 C   0  0  2  0  0  3  0  0  0  0  0  0
  183.1250  178.9880  143.3540 C   0  0  0  0  0  0  0  0  0  0  0  0
  183.5440  179.4020  144.6110 O   0  0  0  0  0  1  0  0  0  0  0  0
  181.9160  179.1200  143.0230 O   0  0  0  0  0  0  0  0  0  0  0  0
  1 14  1  0  0  0  0
  1  2  2  0  0  0  0
  3  7  2  0  0  0  0
  4  1  1  0  0  0  0
  5 18  1  0  0  0  0
  6 13  1  0  0  0  0
  6  9  1  0  0  0  0
  7 19  1  0  0  0  0
  8  4  2  0  0  0  0
  8 15  1  0  0  0  0
  9  8  1  0  0  0  0
 10 16  2  0  0  0  0
 10 11  1  0  0  0  0
 12  2  1  0  0  0  0
 12  5  1  0  0  0  0
 13 17  1  0  0  0  0
 14  3  1  0  0  0  0
 15 14  2  0  0  0  0
 17  4  1  0  0  0  0
 18 16  1  0  0  0  0
 19  2  1  6  0  0  0
 19 10  1  0  0  0  0
 20 22  1  0  0  0  0
 20  5  1  0  0  0  0
 22 21  1  6  0  0  0
 22 23  1  0  0  0  0
 23 24  1  0  0  0  0
 25 23  2  0  0  0  0
M  END
>  <MODEL>
8

>  <REMARK>
 VINA RESULT:      -7.9      2.856      6.686
  Name = 
  3 active torsions:
  status: ('A' for Active; 'I' for Inactive)
    1  A    between atoms: C_2  and  C_25
    2  A    between atoms: N_6  and  C_15
    3  A    between atoms: C_15  and  C_25
                            x       y       z     vdW  Elec       q    Type
                         _______ _______ _______ _____ _____    ______ ____

>  <TORSDO>
F 3

$$$$
=
 OpenBabel10262419553D

 25 28  0  0  1  0  0  0  0  0999 V2000
  188.6820  177.4030  144.6080 C   0  0  0  0  0  0  0  0  0  0  0  0
  187.9600  177.3180  143.4960 C   0  0  0  0  0  0  0  0  0  0  0  0
  190.7650  176.6490  143.4510 C   0  0  0  0  0  3  0  0  0  0  0  0
  188.3470  177.7400  145.9750 C   0  0  2  0  0  3  0  0  0  0  0  0
  185.8370  177.6380  142.3910 N   0  0  0  0  0  0  0  0  0  0  0  0
  188.1880  177.8480  148.8010 C   0  0  0  0  0  2  0  0  0  0  0  0
  190.0860  176.5770  142.3400 N   0  0  0  0  0  0  0  0  0  0  0  0
  189.4720  177.5820  146.6720 C   0  0  0  0  0  0  0  0  0  0  0  0
  189.5740  177.8710  148.1400 C   0  0  0  0  0  2  0  0  0  0  0  0
  188.4720  177.9260  141.0340 C   0  0  0  0  0  0  0  0  0  0  0  0
  189.4660  177.9050  139.9180 C   0  0  0  0  0  1  0  0  0  0  0  0
  186.5850  177.5380  143.5460 O   0  0  0  0  0  0  0  0  0  0  0  0
  187.1790  178.6560  147.9760 C   0  0  0  0  0  2  0  0  0  0  0  0
  190.0790  177.0960  144.6530 C   0  0  0  0  0  0  0  0  0  0  0  0
  190.5750  177.1890  145.8440 N   0  0  0  0  0  0  0  0  0  0  0  0
  187.3860  178.6920  140.8280 C   0  0  0  0  0  3  0  0  0  0  0  0
  187.0090  178.0480  146.5790 C   0  0  0  0  0  2  0  0  0  0  0  0
  186.2160  178.8860  141.7480 C   0  0  0  0  0  2  0  0  0  0  0  0
  188.6520  176.9390  142.1830 C   0  0  0  0  0  0  0  0  0  0  0  0
  184.4140  177.6980  142.7470 C   0  0  0  0  0  2  0  0  0  0  0  0
  184.5420  179.4210  144.5440 C   0  0  0  0  0  1  0  0  0  0  0  0
  183.9420  179.0890  143.1910 C   0  0  2  0  0  3  0  0  0  0  0  0
  182.4510  179.1740  143.2570 C   0  0  0  0  0  0  0  0  0  0  0  0
  181.7800  178.6260  144.3410 O   0  0  0  0  0  1  0  0  0  0  0  0
  181.7990  179.7360  142.3370 O   0  0  0  0  0  0  0  0  0  0  0  0
  1 14  2  0  0  0  0
  1  4  1  0  0  0  0
  2 12  1  0  0  0  0
  2  1  1  0  0  0  0
  3 14  1  0  0  0  0
  4 17  1  1  0  0  0
  4  8  1  0  0  0  0
  5 20  1  0  0  0  0
  5 12  1  0  0  0  0
  7  3  2  0  0  0  0
  8  9  1  0  0  0  0
  9  6  1  0  0  0  0
 10 19  1  0  0  0  0
 11 10  1  0  0  0  0
 13  6  1  0  0  0  0
 14 15  1  0  0  0  0
 15  8  2  0  0  0  0
 16 10  2  0  0  0  0
 16 18  1  0  0  0  0
 17 13  1  0  0  0  0
 18  5  1  0  0  0  0
 19  7  1  0  0  0  0
 19  2  2  0  0  0  0
 20 22  1  0  0  0  0
 22 23  1  0  0  0  0
 22 21  1  1  0  0  0
 23 24  1  0  0  0  0
 25 23  2  0  0  0  0
M  END
>  <MODEL>
9

>  <REMARK>
 VINA RESULT:      -7.7      2.590      6.115
  Name = 
  3 active torsions:
  status: ('A' for Active; 'I' for Inactive)
    1  A    between atoms: C_2  and  C_25
    2  A    between atoms: N_6  and  C_15
    3  A    between atoms: C_15  and  C_25
                            x       y       z     vdW  Elec       q    Type
                         _______ _______ _______ _____ _____    ______ ____

>  <TORSDO>
F 3

$$$$
