=
 OpenBabel10262420523D

 28 31  0  0  1  0  0  0  0  0999 V2000
  190.4830  176.9210  142.5560 N   0  0  0  0  0  0  0  0  0  0  0  0
  189.9500  177.3230  141.2760 C   0  0  0  0  0  0  0  0  0  0  0  0
  188.7150  177.5230  141.1240 O   0  0  0  0  0  0  0  0  0  0  0  0
  189.3380  177.8210  144.5300 C   0  0  1  0  0  3  0  0  0  0  0  0
  188.3890  175.7890  143.3010 C   0  0  0  0  0  1  0  0  0  0  0  0
  191.7310  178.9930  143.7010 S   0  0  0  0  0  0  0  0  0  0  0  0
  190.6440  178.4250  145.0570 C   0  0  0  0  0  2  0  0  0  0  0  0
  191.8280  177.3540  142.9030 C   0  0  0  0  0  2  0  0  0  0  0  0
  189.6390  176.5670  143.7010 C   0  0  1  0  0  3  0  0  0  0  0  0
  188.9270  176.7840  146.7960 C   0  0  0  0  0  1  0  0  0  0  0  0
  188.4310  177.5290  145.6420 N   0  0  0  0  0  0  0  0  0  0  0  0
  184.4620  178.2070  141.9070 C   0  0  0  0  0  1  0  0  0  0  0  0
  184.3870  178.7440  145.4840 C   0  0  0  0  0  0  0  0  0  0  0  0
  186.3700  177.9760  144.3420 C   0  0  0  0  0  3  0  0  0  0  0  0
  183.0360  178.9230  143.8650 C   0  0  0  0  0  0  0  0  0  0  0  0
  185.0390  178.3820  144.3420 C   0  0  0  0  0  0  0  0  0  0  0  0
  186.3610  178.3240  146.7630 C   0  0  0  0  0  3  0  0  0  0  0  0
  183.1140  179.0930  145.2120 N   0  0  0  0  0  0  0  0  0  0  0  0
  185.0140  178.7290  146.7240 C   0  0  0  0  0  3  0  0  0  0  0  0
  181.7910  179.1900  143.0900 C   0  0  0  0  0  1  0  0  0  0  0  0
  184.1940  178.4910  143.3090 N   0  0  0  0  0  0  0  0  0  0  0  0
  187.0520  177.9450  145.5810 C   0  0  0  0  0  0  0  0  0  0  0  0
  190.8530  177.4980  140.0980 C   0  0  0  0  0  2  0  0  0  0  0  0
  189.5860  177.6320  137.9200 N   0  0  0  0  0  0  0  0  0  0  0  0
  190.3340  175.5990  138.7590 O   0  0  0  0  0  0  0  0  0  0  0  0
  190.2610  176.8470  138.8970 C   0  0  0  0  0  0  0  0  0  0  0  0
  188.8230  177.7910  136.6490 C   0  0  0  0  0  2  0  0  0  0  0  0
  189.0920  178.9300  137.3770 C   0  0  0  0  0  2  0  0  0  0  0  0
  1  8  1  0  0  0  0
  1  9  1  0  0  0  0
  2  1  1  0  0  0  0
  3  2  2  0  0  0  0
  4  7  1  0  0  0  0
  4 11  1  1  0  0  0
  6  7  1  0  0  0  0
  8  6  1  0  0  0  0
  9  5  1  6  0  0  0
  9  4  1  0  0  0  0
 11 10  1  0  0  0  0
 12 21  1  0  0  0  0
 13 19  1  0  0  0  0
 14 16  1  0  0  0  0
 14 22  2  0  0  0  0
 15 18  2  0  0  0  0
 16 13  2  0  0  0  0
 18 13  1  0  0  0  0
 19 17  2  0  0  0  0
 20 15  1  0  0  0  0
 21 15  1  0  0  0  0
 21 16  1  0  0  0  0
 22 11  1  0  0  0  0
 22 17  1  0  0  0  0
 23  2  1  0  0  0  0
 24 26  1  0  0  0  0
 25 26  2  0  0  0  0
 26 23  1  0  0  0  0
 27 28  1  0  0  0  0
 27 24  1  0  0  0  0
 28 24  1  0  0  0  0
M  END
>  <MODEL>
1

>  <REMARK>
 VINA RESULT:      -9.1      0.000      0.000
  Name = 
  4 active torsions:
  status: ('A' for Active; 'I' for Inactive)
    1  A    between atoms: C_2  and  C_3
    2  A    between atoms: C_3  and  C_11
    3  A    between atoms: C_16  and  N_20
    4  A    between atoms: N_20  and  C_25
                            x       y       z     vdW  Elec       q    Type
                         _______ _______ _______ _____ _____    ______ ____

>  <TORSDO>
F 4

$$$$
=
 OpenBabel10262420523D

 28 31  0  0  1  0  0  0  0  0999 V2000
  184.2640  177.8790  137.7280 N   0  0  0  0  0  0  0  0  0  0  0  0
  185.7060  177.8690  137.7600 C   0  0  0  0  0  0  0  0  0  0  0  0
  186.3350  178.3960  138.7160 O   0  0  0  0  0  0  0  0  0  0  0  0
  183.1370  177.7320  139.9020 C   0  0  1  0  0  3  0  0  0  0  0  0
  184.0450  179.9720  139.0670 C   0  0  0  0  0  1  0  0  0  0  0  0
  183.3350  175.4400  138.3230 S   0  0  0  0  0  0  0  0  0  0  0  0
  182.3580  176.4920  139.4560 C   0  0  0  0  0  2  0  0  0  0  0  0
  183.5860  176.7610  137.0890 C   0  0  0  0  0  2  0  0  0  0  0  0
  183.4450  178.6200  138.6920 C   0  0  1  0  0  3  0  0  0  0  0  0
  181.1170  179.0890  140.5790 C   0  0  0  0  0  1  0  0  0  0  0  0
  182.3870  178.4590  140.9300 N   0  0  0  0  0  0  0  0  0  0  0  0
  187.0760  177.5350  143.6350 C   0  0  0  0  0  1  0  0  0  0  0  0
  183.9230  178.8240  144.8490 C   0  0  0  0  0  0  0  0  0  0  0  0
  184.2520  178.2060  142.5390 C   0  0  0  0  0  3  0  0  0  0  0  0
  185.8280  178.3870  145.6580 C   0  0  0  0  0  0  0  0  0  0  0  0
  184.7120  178.3460  143.8460 C   0  0  0  0  0  0  0  0  0  0  0  0
  182.1040  179.0760  143.3190 C   0  0  0  0  0  3  0  0  0  0  0  0
  184.6040  178.8620  146.0110 N   0  0  0  0  0  0  0  0  0  0  0  0
  182.6030  179.2040  144.6280 C   0  0  0  0  0  3  0  0  0  0  0  0
  186.9470  178.2410  146.6320 C   0  0  0  0  0  1  0  0  0  0  0  0
  185.9220  178.0660  144.3450 N   0  0  0  0  0  0  0  0  0  0  0  0
  182.9160  178.5790  142.2650 C   0  0  0  0  0  0  0  0  0  0  0  0
  186.4860  177.2430  136.6490 C   0  0  0  0  0  2  0  0  0  0  0  0
  188.6820  176.3870  137.5530 N   0  0  0  0  0  0  0  0  0  0  0  0
  186.8600  174.9730  137.2650 O   0  0  0  0  0  0  0  0  0  0  0  0
  187.3320  176.1360  137.1770 C   0  0  0  0  0  0  0  0  0  0  0  0
  190.0120  175.9550  138.0690 C   0  0  0  0  0  2  0  0  0  0  0  0
  189.8600  177.2830  137.7320 C   0  0  0  0  0  2  0  0  0  0  0  0
  1  2  1  0  0  0  0
  1  9  1  0  0  0  0
  2  3  2  0  0  0  0
  4 11  1  1  0  0  0
  6  7  1  0  0  0  0
  7  4  1  0  0  0  0
  8  1  1  0  0  0  0
  8  6  1  0  0  0  0
  9  5  1  1  0  0  0
  9  4  1  0  0  0  0
 10 11  1  0  0  0  0
 11 22  1  0  0  0  0
 12 21  1  0  0  0  0
 13 18  1  0  0  0  0
 14 16  1  0  0  0  0
 15 18  2  0  0  0  0
 15 20  1  0  0  0  0
 16 21  1  0  0  0  0
 16 13  2  0  0  0  0
 17 19  2  0  0  0  0
 19 13  1  0  0  0  0
 21 15  1  0  0  0  0
 22 14  2  0  0  0  0
 22 17  1  0  0  0  0
 23 26  1  0  0  0  0
 23  2  1  0  0  0  0
 24 28  1  0  0  0  0
 24 27  1  0  0  0  0
 26 25  2  0  0  0  0
 26 24  1  0  0  0  0
 28 27  1  0  0  0  0
M  END
>  <MODEL>
2

>  <REMARK>
 VINA RESULT:      -7.9      3.241      5.939
  Name = 
  4 active torsions:
  status: ('A' for Active; 'I' for Inactive)
    1  A    between atoms: C_2  and  C_3
    2  A    between atoms: C_3  and  C_11
    3  A    between atoms: C_16  and  N_20
    4  A    between atoms: N_20  and  C_25
                            x       y       z     vdW  Elec       q    Type
                         _______ _______ _______ _____ _____    ______ ____

>  <TORSDO>
F 4

$$$$
=
 OpenBabel10262420523D

 28 31  0  0  1  0  0  0  0  0999 V2000
  183.7810  177.7570  137.7400 N   0  0  0  0  0  0  0  0  0  0  0  0
  185.1980  177.6040  137.5140 C   0  0  0  0  0  0  0  0  0  0  0  0
  186.0360  178.0460  138.3440 O   0  0  0  0  0  0  0  0  0  0  0  0
  183.0480  177.6790  140.0790 C   0  0  1  0  0  3  0  0  0  0  0  0
  184.0150  179.8350  139.1000 C   0  0  0  0  0  1  0  0  0  0  0  0
  182.7300  175.4110  138.4850 S   0  0  0  0  0  0  0  0  0  0  0  0
  182.0800  176.5310  139.7760 C   0  0  0  0  0  2  0  0  0  0  0  0
  182.8910  176.7250  137.2290 C   0  0  0  0  0  2  0  0  0  0  0  0
  183.2250  178.5570  138.8350 C   0  0  1  0  0  3  0  0  0  0  0  0
  181.3200  179.2050  141.1120 C   0  0  0  0  0  1  0  0  0  0  0  0
  182.5690  178.4560  141.2250 N   0  0  0  0  0  0  0  0  0  0  0  0
  187.6190  177.2120  142.9880 C   0  0  0  0  0  1  0  0  0  0  0  0
  184.8210  178.6190  144.7970 C   0  0  0  0  0  0  0  0  0  0  0  0
  184.6830  178.0580  142.4530 C   0  0  0  0  0  3  0  0  0  0  0  0
  186.8160  178.0610  145.2270 C   0  0  0  0  0  0  0  0  0  0  0  0
  185.3840  178.1330  143.6540 C   0  0  0  0  0  0  0  0  0  0  0  0
  182.7680  179.0100  143.6380 C   0  0  0  0  0  3  0  0  0  0  0  0
  185.7070  178.5840  145.8120 N   0  0  0  0  0  0  0  0  0  0  0  0
  183.5070  179.0710  144.8340 C   0  0  0  0  0  3  0  0  0  0  0  0
  188.0860  177.8280  145.9710 C   0  0  0  0  0  1  0  0  0  0  0  0
  186.6480  177.7770  143.9120 N   0  0  0  0  0  0  0  0  0  0  0  0
  183.3420  178.5070  142.4410 C   0  0  0  0  0  0  0  0  0  0  0  0
  185.7020  176.9260  136.2810 C   0  0  0  0  0  2  0  0  0  0  0  0
  185.6770  174.4020  136.2990 N   0  0  0  0  0  0  0  0  0  0  0  0
  187.4260  175.6000  137.2510 O   0  0  0  0  0  0  0  0  0  0  0  0
  186.3310  175.6220  136.6330 C   0  0  0  0  0  0  0  0  0  0  0  0
  185.5850  172.9140  136.2810 C   0  0  0  0  0  2  0  0  0  0  0  0
  184.5550  173.6230  135.7020 C   0  0  0  0  0  2  0  0  0  0  0  0
  1  9  1  0  0  0  0
  2  1  1  0  0  0  0
  2  3  2  0  0  0  0
  4 11  1  1  0  0  0
  6  7  1  0  0  0  0
  7  4  1  0  0  0  0
  8  1  1  0  0  0  0
  8  6  1  0  0  0  0
  9  5  1  1  0  0  0
  9  4  1  0  0  0  0
 10 11  1  0  0  0  0
 11 22  1  0  0  0  0
 12 21  1  0  0  0  0
 13 19  1  0  0  0  0
 13 18  1  0  0  0  0
 14 16  1  0  0  0  0
 15 18  2  0  0  0  0
 15 20  1  0  0  0  0
 16 21  1  0  0  0  0
 16 13  2  0  0  0  0
 17 19  2  0  0  0  0
 21 15  1  0  0  0  0
 22 14  2  0  0  0  0
 22 17  1  0  0  0  0
 23 26  1  0  0  0  0
 23  2  1  0  0  0  0
 24 26  1  0  0  0  0
 26 25  2  0  0  0  0
 27 24  1  0  0  0  0
 28 27  1  0  0  0  0
 28 24  1  0  0  0  0
M  END
>  <MODEL>
3

>  <REMARK>
 VINA RESULT:      -7.4      3.843      6.363
  Name = 
  4 active torsions:
  status: ('A' for Active; 'I' for Inactive)
    1  A    between atoms: C_2  and  C_3
    2  A    between atoms: C_3  and  C_11
    3  A    between atoms: C_16  and  N_20
    4  A    between atoms: N_20  and  C_25
                            x       y       z     vdW  Elec       q    Type
                         _______ _______ _______ _____ _____    ______ ____

>  <TORSDO>
F 4

$$$$
=
 OpenBabel10262420523D

 28 31  0  0  1  0  0  0  0  0999 V2000
  189.2240  177.9560  142.6890 N   0  0  0  0  0  0  0  0  0  0  0  0
  188.5490  176.9700  143.4970 C   0  0  0  0  0  0  0  0  0  0  0  0
  187.6660  176.2210  142.9990 O   0  0  0  0  0  0  0  0  0  0  0  0
  189.5950  177.3540  140.3400 C   0  0  1  0  0  3  0  0  0  0  0  0
  187.3240  178.2530  141.1000 C   0  0  0  0  0  1  0  0  0  0  0  0
  191.7100  177.1250  142.1460 S   0  0  0  0  0  0  0  0  0  0  0  0
  191.1030  177.5800  140.4820 C   0  0  0  0  0  2  0  0  0  0  0  0
  190.6030  178.2840  143.0200 C   0  0  0  0  0  2  0  0  0  0  0  0
  188.8350  178.2660  141.3100 C   0  0  1  0  0  3  0  0  0  0  0  0
  189.0550  178.9390  138.4490 C   0  0  0  0  0  1  0  0  0  0  0  0
  189.1780  177.5740  138.9530 N   0  0  0  0  0  0  0  0  0  0  0  0
  184.8670  175.4920  136.2620 C   0  0  0  0  0  1  0  0  0  0  0  0
  188.2710  174.2840  136.4620 C   0  0  0  0  0  0  0  0  0  0  0  0
  187.5500  176.2860  137.6020 C   0  0  0  0  0  3  0  0  0  0  0  0
  186.4720  173.6880  135.5210 C   0  0  0  0  0  0  0  0  0  0  0  0
  187.3010  175.1870  136.7850 C   0  0  0  0  0  0  0  0  0  0  0  0
  189.8620  175.5050  137.7610 C   0  0  0  0  0  3  0  0  0  0  0  0
  187.7730  173.3210  135.6610 N   0  0  0  0  0  0  0  0  0  0  0  0
  189.5740  174.4050  136.9310 C   0  0  0  0  0  3  0  0  0  0  0  0
  185.4990  172.9100  134.7030 C   0  0  0  0  0  1  0  0  0  0  0  0
  186.1570  174.8210  136.1940 N   0  0  0  0  0  0  0  0  0  0  0  0
  188.8610  176.4520  138.1050 C   0  0  0  0  0  0  0  0  0  0  0  0
  188.8740  176.8240  144.9490 C   0  0  0  0  0  2  0  0  0  0  0  0
  188.1960  177.8810  147.1380 N   0  0  0  0  0  0  0  0  0  0  0  0
  186.8260  177.9960  145.2660 O   0  0  0  0  0  0  0  0  0  0  0  0
  187.9080  177.6050  145.7720 C   0  0  0  0  0  0  0  0  0  0  0  0
  187.8610  178.4680  148.4670 C   0  0  0  0  0  2  0  0  0  0  0  0
  189.0630  177.8030  148.3490 C   0  0  0  0  0  2  0  0  0  0  0  0
  1  8  1  0  0  0  0
  1  2  1  0  0  0  0
  2 23  1  0  0  0  0
  3  2  2  0  0  0  0
  4 11  1  6  0  0  0
  4  7  1  0  0  0  0
  4  9  1  0  0  0  0
  6  8  1  0  0  0  0
  7  6  1  0  0  0  0
  9  5  1  1  0  0  0
  9  1  1  0  0  0  0
 10 11  1  0  0  0  0
 13 16  2  0  0  0  0
 13 19  1  0  0  0  0
 14 22  2  0  0  0  0
 15 18  2  0  0  0  0
 15 21  1  0  0  0  0
 16 14  1  0  0  0  0
 17 22  1  0  0  0  0
 18 13  1  0  0  0  0
 19 17  2  0  0  0  0
 20 15  1  0  0  0  0
 21 12  1  0  0  0  0
 21 16  1  0  0  0  0
 22 11  1  0  0  0  0
 23 26  1  0  0  0  0
 24 28  1  0  0  0  0
 24 27  1  0  0  0  0
 25 26  2  0  0  0  0
 26 24  1  0  0  0  0
 28 27  1  0  0  0  0
M  END
>  <MODEL>
4

>  <REMARK>
 VINA RESULT:      -6.8      2.942      7.835
  Name = 
  4 active torsions:
  status: ('A' for Active; 'I' for Inactive)
    1  A    between atoms: C_2  and  C_3
    2  A    between atoms: C_3  and  C_11
    3  A    between atoms: C_16  and  N_20
    4  A    between atoms: N_20  and  C_25
                            x       y       z     vdW  Elec       q    Type
                         _______ _______ _______ _____ _____    ______ ____

>  <TORSDO>
F 4

$$$$
=
 OpenBabel10262420523D

 28 31  0  0  1  0  0  0  0  0999 V2000
  189.2140  177.9490  142.7030 N   0  0  0  0  0  0  0  0  0  0  0  0
  188.5290  176.9580  143.4980 C   0  0  0  0  0  0  0  0  0  0  0  0
  187.6350  176.2290  142.9920 O   0  0  0  0  0  0  0  0  0  0  0  0
  189.5670  177.3800  140.3430 C   0  0  1  0  0  3  0  0  0  0  0  0
  187.3120  178.2950  141.1270 C   0  0  0  0  0  1  0  0  0  0  0  0
  191.6860  177.0950  142.1370 S   0  0  0  0  0  0  0  0  0  0  0  0
  191.0790  177.5850  140.4830 C   0  0  0  0  0  2  0  0  0  0  0  0
  190.5980  178.2540  143.0330 C   0  0  0  0  0  2  0  0  0  0  0  0
  188.8240  178.2860  141.3310 C   0  0  1  0  0  3  0  0  0  0  0  0
  189.0560  179.0020  138.4760 C   0  0  0  0  0  1  0  0  0  0  0  0
  189.1480  177.6280  138.9620 N   0  0  0  0  0  0  0  0  0  0  0  0
  191.5720  173.3780  136.4680 C   0  0  0  0  0  1  0  0  0  0  0  0
  188.1020  174.3970  136.4470 C   0  0  0  0  0  0  0  0  0  0  0  0
  189.7900  175.6160  137.6690 C   0  0  0  0  0  3  0  0  0  0  0  0
  189.2610  172.8450  135.5970 C   0  0  0  0  0  0  0  0  0  0  0  0
  189.3960  174.5670  136.8420 C   0  0  0  0  0  0  0  0  0  0  0  0
  187.4540  176.3380  137.6830 C   0  0  0  0  0  3  0  0  0  0  0  0
  187.9870  173.3130  135.6560 N   0  0  0  0  0  0  0  0  0  0  0  0
  187.0920  175.2650  136.8470 C   0  0  0  0  0  3  0  0  0  0  0  0
  189.6400  171.6310  134.8200 C   0  0  0  0  0  1  0  0  0  0  0  0
  190.1410  173.5900  136.3110 N   0  0  0  0  0  0  0  0  0  0  0  0
  188.7980  176.5250  138.1020 C   0  0  0  0  0  0  0  0  0  0  0  0
  188.8590  176.7850  144.9460 C   0  0  0  0  0  2  0  0  0  0  0  0
  188.2260  177.8780  147.1310 N   0  0  0  0  0  0  0  0  0  0  0  0
  186.7770  177.8810  145.3150 O   0  0  0  0  0  0  0  0  0  0  0  0
  187.8950  177.5500  145.7860 C   0  0  0  0  0  0  0  0  0  0  0  0
  187.9210  178.4900  148.4560 C   0  0  0  0  0  2  0  0  0  0  0  0
  189.1430  177.8720  148.3070 C   0  0  0  0  0  2  0  0  0  0  0  0
  1  8  1  0  0  0  0
  1  2  1  0  0  0  0
  2 23  1  0  0  0  0
  3  2  2  0  0  0  0
  4 11  1  6  0  0  0
  4  7  1  0  0  0  0
  4  9  1  0  0  0  0
  6  8  1  0  0  0  0
  7  6  1  0  0  0  0
  9  5  1  1  0  0  0
  9  1  1  0  0  0  0
 10 11  1  0  0  0  0
 13 16  2  0  0  0  0
 13 19  1  0  0  0  0
 14 22  2  0  0  0  0
 15 18  2  0  0  0  0
 15 21  1  0  0  0  0
 16 14  1  0  0  0  0
 17 22  1  0  0  0  0
 18 13  1  0  0  0  0
 19 17  2  0  0  0  0
 20 15  1  0  0  0  0
 21 12  1  0  0  0  0
 21 16  1  0  0  0  0
 22 11  1  0  0  0  0
 23 26  1  0  0  0  0
 24 28  1  0  0  0  0
 24 27  1  0  0  0  0
 25 26  2  0  0  0  0
 26 24  1  0  0  0  0
 28 27  1  0  0  0  0
M  END
>  <MODEL>
5

>  <REMARK>
 VINA RESULT:      -6.8      2.949      8.270
  Name = 
  4 active torsions:
  status: ('A' for Active; 'I' for Inactive)
    1  A    between atoms: C_2  and  C_3
    2  A    between atoms: C_3  and  C_11
    3  A    between atoms: C_16  and  N_20
    4  A    between atoms: N_20  and  C_25
                            x       y       z     vdW  Elec       q    Type
                         _______ _______ _______ _____ _____    ______ ____

>  <TORSDO>
F 4

$$$$
=
 OpenBabel10262420523D

 28 31  0  0  1  0  0  0  0  0999 V2000
  189.8000  176.4360  136.8920 N   0  0  0  0  0  0  0  0  0  0  0  0
  189.1220  175.1730  136.7250 C   0  0  0  0  0  0  0  0  0  0  0  0
  189.2810  174.2390  137.5550 O   0  0  0  0  0  0  0  0  0  0  0  0
  190.1570  177.1680  139.2060 C   0  0  1  0  0  3  0  0  0  0  0  0
  191.7340  175.4650  138.1320 C   0  0  0  0  0  1  0  0  0  0  0  0
  188.0610  178.2840  137.7410 S   0  0  0  0  0  0  0  0  0  0  0  0
  189.4270  178.4880  138.9390 C   0  0  0  0  0  2  0  0  0  0  0  0
  189.1340  177.6380  136.4140 C   0  0  0  0  0  2  0  0  0  0  0  0
  190.8210  176.6690  137.9180 C   0  0  1  0  0  3  0  0  0  0  0  0
  192.5460  177.5020  139.9560 C   0  0  0  0  0  1  0  0  0  0  0  0
  191.1330  177.3390  140.2850 N   0  0  0  0  0  0  0  0  0  0  0  0
  186.5110  177.8800  143.2020 C   0  0  0  0  0  1  0  0  0  0  0  0
  189.8910  177.2480  144.3240 C   0  0  0  0  0  0  0  0  0  0  0  0
  189.3410  177.5100  141.9880 C   0  0  0  0  0  3  0  0  0  0  0  0
  187.9880  177.4920  145.2140 C   0  0  0  0  0  0  0  0  0  0  0  0
  188.9820  177.4700  143.3320 C   0  0  0  0  0  0  0  0  0  0  0  0
  191.6400  177.0810  142.7030 C   0  0  0  0  0  3  0  0  0  0  0  0
  189.2890  177.2570  145.5290 N   0  0  0  0  0  0  0  0  0  0  0  0
  191.2400  177.0470  144.0520 C   0  0  0  0  0  3  0  0  0  0  0  0
  186.9140  177.5900  146.2440 C   0  0  0  0  0  1  0  0  0  0  0  0
  187.7720  177.6250  143.8830 N   0  0  0  0  0  0  0  0  0  0  0  0
  190.7030  177.3120  141.6610 C   0  0  0  0  0  0  0  0  0  0  0  0
  188.2230  174.9420  135.5530 C   0  0  0  0  0  2  0  0  0  0  0  0
  186.1420  174.1870  136.7650 N   0  0  0  0  0  0  0  0  0  0  0  0
  186.1760  176.1590  135.5370 O   0  0  0  0  0  0  0  0  0  0  0  0
  186.8010  175.1490  135.9490 C   0  0  0  0  0  0  0  0  0  0  0  0
  184.9520  173.6680  137.4970 C   0  0  0  0  0  2  0  0  0  0  0  0
  186.1060  172.9170  137.5470 C   0  0  0  0  0  2  0  0  0  0  0  0
  1  9  1  0  0  0  0
  2  1  1  0  0  0  0
  2  3  2  0  0  0  0
  4 11  1  1  0  0  0
  6  7  1  0  0  0  0
  7  4  1  0  0  0  0
  8  1  1  0  0  0  0
  8  6  1  0  0  0  0
  9  5  1  1  0  0  0
  9  4  1  0  0  0  0
 10 11  1  0  0  0  0
 11 22  1  0  0  0  0
 12 21  1  0  0  0  0
 13 18  1  0  0  0  0
 14 16  1  0  0  0  0
 15 18  2  0  0  0  0
 15 20  1  0  0  0  0
 16 21  1  0  0  0  0
 16 13  2  0  0  0  0
 17 19  2  0  0  0  0
 19 13  1  0  0  0  0
 21 15  1  0  0  0  0
 22 14  2  0  0  0  0
 22 17  1  0  0  0  0
 23 26  1  0  0  0  0
 23  2  1  0  0  0  0
 24 27  1  0  0  0  0
 24 28  1  0  0  0  0
 25 26  2  0  0  0  0
 26 24  1  0  0  0  0
 27 28  1  0  0  0  0
M  END
>  <MODEL>
6

>  <REMARK>
 VINA RESULT:      -6.6      2.886      5.751
  Name = 
  4 active torsions:
  status: ('A' for Active; 'I' for Inactive)
    1  A    between atoms: C_2  and  C_3
    2  A    between atoms: C_3  and  C_11
    3  A    between atoms: C_16  and  N_20
    4  A    between atoms: N_20  and  C_25
                            x       y       z     vdW  Elec       q    Type
                         _______ _______ _______ _____ _____    ______ ____

>  <TORSDO>
F 4

$$$$
=
 OpenBabel10262420523D

 28 31  0  0  1  0  0  0  0  0999 V2000
  189.0090  178.0760  142.3630 N   0  0  0  0  0  0  0  0  0  0  0  0
  188.2840  177.1640  143.2150 C   0  0  0  0  0  0  0  0  0  0  0  0
  187.2690  176.5510  142.7900 O   0  0  0  0  0  0  0  0  0  0  0  0
  189.0830  177.4970  139.9810 C   0  0  1  0  0  3  0  0  0  0  0  0
  187.0300  178.6640  140.9640 C   0  0  0  0  0  1  0  0  0  0  0  0
  191.3020  176.9420  141.5780 S   0  0  0  0  0  0  0  0  0  0  0  0
  190.6140  177.5200  139.9850 C   0  0  0  0  0  2  0  0  0  0  0  0
  190.4430  178.2110  142.5700 C   0  0  0  0  0  2  0  0  0  0  0  0
  188.5420  178.4740  141.0320 C   0  0  1  0  0  3  0  0  0  0  0  0
  189.0550  179.0050  137.9540 C   0  0  0  0  0  1  0  0  0  0  0  0
  188.5760  177.8090  138.6420 N   0  0  0  0  0  0  0  0  0  0  0  0
  188.0810  172.6450  136.8420 C   0  0  0  0  0  1  0  0  0  0  0  0
  185.6620  175.3340  136.8420 C   0  0  0  0  0  0  0  0  0  0  0  0
  187.8970  175.6170  137.7100 C   0  0  0  0  0  3  0  0  0  0  0  0
  185.7230  173.3110  136.2280 C   0  0  0  0  0  0  0  0  0  0  0  0
  186.9030  174.8410  137.1190 C   0  0  0  0  0  0  0  0  0  0  0  0
  186.2910  177.4610  137.7320 C   0  0  0  0  0  3  0  0  0  0  0  0
  184.8920  174.3850  136.2750 N   0  0  0  0  0  0  0  0  0  0  0  0
  185.3110  176.6470  137.1340 C   0  0  0  0  0  3  0  0  0  0  0  0
  185.3070  171.9930  135.6700 C   0  0  0  0  0  1  0  0  0  0  0  0
  186.9550  173.5600  136.7360 N   0  0  0  0  0  0  0  0  0  0  0  0
  187.5870  176.9600  138.0260 C   0  0  0  0  0  0  0  0  0  0  0  0
  188.7170  176.9370  144.6270 C   0  0  0  0  0  2  0  0  0  0  0  0
  188.1820  177.7920  146.9410 N   0  0  0  0  0  0  0  0  0  0  0  0
  186.7900  178.2400  145.1350 O   0  0  0  0  0  0  0  0  0  0  0  0
  187.8430  177.7000  145.5610 C   0  0  0  0  0  0  0  0  0  0  0  0
  187.9290  178.2510  148.3360 C   0  0  0  0  0  2  0  0  0  0  0  0
  189.0620  177.5010  148.1090 C   0  0  0  0  0  2  0  0  0  0  0  0
  1  8  1  0  0  0  0
  1  2  1  0  0  0  0
  2 23  1  0  0  0  0
  3  2  2  0  0  0  0
  4 11  1  6  0  0  0
  4  7  1  0  0  0  0
  4  9  1  0  0  0  0
  6  8  1  0  0  0  0
  7  6  1  0  0  0  0
  9  5  1  1  0  0  0
  9  1  1  0  0  0  0
 10 11  1  0  0  0  0
 13 16  2  0  0  0  0
 13 19  1  0  0  0  0
 14 22  2  0  0  0  0
 15 18  2  0  0  0  0
 15 21  1  0  0  0  0
 16 14  1  0  0  0  0
 17 22  1  0  0  0  0
 18 13  1  0  0  0  0
 19 17  2  0  0  0  0
 20 15  1  0  0  0  0
 21 12  1  0  0  0  0
 21 16  1  0  0  0  0
 22 11  1  0  0  0  0
 23 26  1  0  0  0  0
 24 28  1  0  0  0  0
 24 27  1  0  0  0  0
 25 26  2  0  0  0  0
 26 24  1  0  0  0  0
 28 27  1  0  0  0  0
M  END
>  <MODEL>
7

>  <REMARK>
 VINA RESULT:      -6.6      3.242      7.608
  Name = 
  4 active torsions:
  status: ('A' for Active; 'I' for Inactive)
    1  A    between atoms: C_2  and  C_3
    2  A    between atoms: C_3  and  C_11
    3  A    between atoms: C_16  and  N_20
    4  A    between atoms: N_20  and  C_25
                            x       y       z     vdW  Elec       q    Type
                         _______ _______ _______ _____ _____    ______ ____

>  <TORSDO>
F 4

$$$$
=
 OpenBabel10262420523D

 28 31  0  0  1  0  0  0  0  0999 V2000
  190.2800  177.5620  140.6920 N   0  0  0  0  0  0  0  0  0  0  0  0
  189.9470  176.6930  141.7950 C   0  0  0  0  0  0  0  0  0  0  0  0
  188.7880  176.2120  141.9110 O   0  0  0  0  0  0  0  0  0  0  0  0
  189.1480  177.0900  138.5680 C   0  0  1  0  0  3  0  0  0  0  0  0
  187.9570  178.4200  140.3980 C   0  0  0  0  0  1  0  0  0  0  0  0
  191.7790  176.2300  138.9200 S   0  0  0  0  0  0  0  0  0  0  0  0
  190.4890  176.9500  137.8420 C   0  0  0  0  0  2  0  0  0  0  0  0
  191.6450  177.5350  140.1880 C   0  0  0  0  0  2  0  0  0  0  0  0
  189.2870  178.0680  139.7400 C   0  0  1  0  0  3  0  0  0  0  0  0
  188.2680  178.7700  136.8990 C   0  0  0  0  0  1  0  0  0  0  0  0
  188.1060  177.5150  137.6300 N   0  0  0  0  0  0  0  0  0  0  0  0
  186.7180  172.2990  136.6160 C   0  0  0  0  0  1  0  0  0  0  0  0
  184.6110  175.1940  137.1310 C   0  0  0  0  0  0  0  0  0  0  0  0
  187.0200  175.3320  137.1940 C   0  0  0  0  0  3  0  0  0  0  0  0
  184.3370  173.1340  136.7370 C   0  0  0  0  0  0  0  0  0  0  0  0
  185.8400  174.6100  137.0390 C   0  0  0  0  0  0  0  0  0  0  0  0
  185.6320  177.3140  137.5500 C   0  0  0  0  0  3  0  0  0  0  0  0
  183.6380  174.2810  136.9440 N   0  0  0  0  0  0  0  0  0  0  0  0
  184.4600  176.5520  137.3880 C   0  0  0  0  0  3  0  0  0  0  0  0
  183.6760  171.8230  136.4800 C   0  0  0  0  0  1  0  0  0  0  0  0
  185.6800  173.3050  136.7900 N   0  0  0  0  0  0  0  0  0  0  0  0
  186.9180  176.7180  137.4560 C   0  0  0  0  0  0  0  0  0  0  0  0
  190.9690  176.3560  142.8320 C   0  0  0  0  0  2  0  0  0  0  0  0
  189.8950  177.4850  144.8180 N   0  0  0  0  0  0  0  0  0  0  0  0
  191.9320  178.2130  143.9700 O   0  0  0  0  0  0  0  0  0  0  0  0
  190.9790  177.3960  143.8990 C   0  0  0  0  0  0  0  0  0  0  0  0
  189.1930  178.1050  145.9780 C   0  0  0  0  0  2  0  0  0  0  0  0
  188.5830  177.0330  145.3640 C   0  0  0  0  0  2  0  0  0  0  0  0
  1  2  1  0  0  0  0
  2  3  2  0  0  0  0
  2 23  1  0  0  0  0
  4 11  1  6  0  0  0
  4  9  1  0  0  0  0
  6  8  1  0  0  0  0
  7  4  1  0  0  0  0
  7  6  1  0  0  0  0
  8  1  1  0  0  0  0
  9  5  1  1  0  0  0
  9  1  1  0  0  0  0
 10 11  1  0  0  0  0
 12 21  1  0  0  0  0
 13 19  1  0  0  0  0
 14 22  2  0  0  0  0
 15 21  1  0  0  0  0
 15 18  2  0  0  0  0
 16 13  2  0  0  0  0
 16 14  1  0  0  0  0
 18 13  1  0  0  0  0
 19 17  2  0  0  0  0
 20 15  1  0  0  0  0
 21 16  1  0  0  0  0
 22 17  1  0  0  0  0
 22 11  1  0  0  0  0
 23 26  1  0  0  0  0
 24 28  1  0  0  0  0
 24 27  1  0  0  0  0
 26 25  2  0  0  0  0
 26 24  1  0  0  0  0
 28 27  1  0  0  0  0
M  END
>  <MODEL>
8

>  <REMARK>
 VINA RESULT:      -6.6      3.754      7.279
  Name = 
  4 active torsions:
  status: ('A' for Active; 'I' for Inactive)
    1  A    between atoms: C_2  and  C_3
    2  A    between atoms: C_3  and  C_11
    3  A    between atoms: C_16  and  N_20
    4  A    between atoms: N_20  and  C_25
                            x       y       z     vdW  Elec       q    Type
                         _______ _______ _______ _____ _____    ______ ____

>  <TORSDO>
F 4

$$$$
=
 OpenBabel10262420523D

 28 31  0  0  1  0  0  0  0  0999 V2000
  187.0600  175.4090  135.8770 N   0  0  0  0  0  0  0  0  0  0  0  0
  187.1410  174.0100  136.2220 C   0  0  0  0  0  0  0  0  0  0  0  0
  187.9930  173.5990  137.0530 O   0  0  0  0  0  0  0  0  0  0  0  0
  187.5920  176.9950  137.6710 C   0  0  1  0  0  3  0  0  0  0  0  0
  189.4660  175.8730  136.3400 C   0  0  0  0  0  1  0  0  0  0  0  0
  184.9170  176.5020  137.0500 S   0  0  0  0  0  0  0  0  0  0  0  0
  186.2330  177.6830  137.5160 C   0  0  0  0  0  2  0  0  0  0  0  0
  185.7570  175.9530  135.5250 C   0  0  0  0  0  2  0  0  0  0  0  0
  188.0370  176.4050  136.3280 C   0  0  1  0  0  3  0  0  0  0  0  0
  189.0110  179.0640  137.3750 C   0  0  0  0  0  1  0  0  0  0  0  0
  188.5800  177.9380  138.2000 N   0  0  0  0  0  0  0  0  0  0  0  0
  186.9550  177.7900  143.4440 C   0  0  0  0  0  1  0  0  0  0  0  0
  190.2550  177.3370  142.0330 C   0  0  0  0  0  0  0  0  0  0  0  0
  188.3210  177.7850  140.6590 C   0  0  0  0  0  3  0  0  0  0  0  0
  189.3840  177.3270  143.9610 C   0  0  0  0  0  0  0  0  0  0  0  0
  188.9190  177.5800  141.8990 C   0  0  0  0  0  0  0  0  0  0  0  0
  190.5350  177.4820  139.6640 C   0  0  0  0  0  3  0  0  0  0  0  0
  190.5780  177.1730  143.3310 N   0  0  0  0  0  0  0  0  0  0  0  0
  191.1050  177.2790  140.9340 C   0  0  0  0  0  3  0  0  0  0  0  0
  189.2350  177.2300  145.4410 C   0  0  0  0  0  1  0  0  0  0  0  0
  188.3560  177.5760  143.1130 N   0  0  0  0  0  0  0  0  0  0  0  0
  189.1460  177.7360  139.5110 C   0  0  0  0  0  0  0  0  0  0  0  0
  186.2220  173.0170  135.5880 C   0  0  0  0  0  2  0  0  0  0  0  0
  184.3430  171.4620  136.2410 N   0  0  0  0  0  0  0  0  0  0  0  0
  185.2390  172.9790  137.7570 O   0  0  0  0  0  0  0  0  0  0  0  0
  185.2600  172.4920  136.5980 C   0  0  0  0  0  0  0  0  0  0  0  0
  183.2280  170.5220  136.5470 C   0  0  0  0  0  2  0  0  0  0  0  0
  183.7530  170.4940  135.2740 C   0  0  0  0  0  2  0  0  0  0  0  0
  1  2  1  0  0  0  0
  1  9  1  0  0  0  0
  2  3  2  0  0  0  0
  4 11  1  6  0  0  0
  6  7  1  0  0  0  0
  7  4  1  0  0  0  0
  8  1  1  0  0  0  0
  8  6  1  0  0  0  0
  9  5  1  1  0  0  0
  9  4  1  0  0  0  0
 10 11  1  0  0  0  0
 11 22  1  0  0  0  0
 13 18  1  0  0  0  0
 14 16  2  0  0  0  0
 15 20  1  0  0  0  0
 16 13  1  0  0  0  0
 16 21  1  0  0  0  0
 17 19  1  0  0  0  0
 18 15  2  0  0  0  0
 19 13  2  0  0  0  0
 21 12  1  0  0  0  0
 21 15  1  0  0  0  0
 22 17  2  0  0  0  0
 22 14  1  0  0  0  0
 23  2  1  0  0  0  0
 23 26  1  0  0  0  0
 24 27  1  0  0  0  0
 24 26  1  0  0  0  0
 26 25  2  0  0  0  0
 28 24  1  0  0  0  0
 28 27  1  0  0  0  0
M  END
>  <MODEL>
9

>  <REMARK>
 VINA RESULT:      -6.5      4.356      7.508
  Name = 
  4 active torsions:
  status: ('A' for Active; 'I' for Inactive)
    1  A    between atoms: C_2  and  C_3
    2  A    between atoms: C_3  and  C_11
    3  A    between atoms: C_16  and  N_20
    4  A    between atoms: N_20  and  C_25
                            x       y       z     vdW  Elec       q    Type
                         _______ _______ _______ _____ _____    ______ ____

>  <TORSDO>
F 4

$$$$
