=
 OpenBabel10262419583D

 25 28  0  0  1  0  0  0  0  0999 V2000
  188.0770  177.9350  143.3430 C   0  0  0  0  0  0  0  0  0  0  0  0
  187.7380  178.3530  141.9340 C   0  0  0  0  0  0  0  0  0  0  0  0
  185.6250  177.4140  143.6190 C   0  0  0  0  0  2  0  0  0  0  0  0
  189.3830  178.0270  143.9130 C   0  0  0  0  0  0  0  0  0  0  0  0
  188.5240  177.3850  139.8010 C   0  0  1  0  0  3  0  0  0  0  0  0
  185.4030  178.6080  142.7010 C   0  0  0  0  0  2  0  0  0  0  0  0
  189.5760  177.6070  145.2430 C   0  0  0  0  0  3  0  0  0  0  0  0
  188.5270  177.1020  146.0040 C   0  0  0  0  0  3  0  0  0  0  0  0
  185.9560  179.0170  140.2570 C   0  0  0  0  0  0  0  0  0  0  0  0
  184.9470  179.7670  140.1810 O   0  0  0  0  0  0  0  0  0  0  0  0
  188.8130  178.3830  140.8970 C   0  0  0  0  0  2  0  0  0  0  0  0
  187.0170  177.4650  144.1560 C   0  0  0  0  0  0  0  0  0  0  0  0
  187.2490  177.0350  145.4620 C   0  0  0  0  0  3  0  0  0  0  0  0
  186.4550  178.4490  139.0360 N   0  0  0  0  0  2  0  0  0  0  0  0
  187.8390  178.1480  138.6960 C   0  0  0  0  0  2  0  0  0  0  0  0
  186.4460  178.6340  141.6120 C   0  0  0  0  0  0  0  0  0  0  0  0
  191.0600  175.3100  137.8230 N   0  0  0  0  0  0  0  0  0  0  0  0
  191.1160  174.3320  136.7500 C   0  0  0  0  0  1  0  0  0  0  0  0
  192.3000  175.6930  138.4780 C   0  0  0  0  0  1  0  0  0  0  0  0
  189.7710  176.8330  139.2990 N   0  0  0  0  0  2  0  0  0  0  0  0
  188.7410  175.5350  137.6590 O   0  0  0  0  0  0  0  0  0  0  0  0
  189.8100  175.8770  138.2350 C   0  0  0  0  0  0  0  0  0  0  0  0
  191.8440  178.3020  143.8460 C   0  0  0  0  0  2  0  0  0  0  0  0
  191.3000  179.7040  143.9920 C   0  0  0  0  0  2  0  0  0  0  0  0
  190.5340  178.6710  143.1720 C   0  0  0  0  0  3  0  0  0  0  0  0
  1  4  2  0  0  0  0
  1 12  1  0  0  0  0
  2  1  1  0  0  0  0
  3 12  1  0  0  0  0
  4  7  1  0  0  0  0
  5 20  1  6  0  0  0
  5 11  1  0  0  0  0
  6  3  1  0  0  0  0
  7  8  2  0  0  0  0
  9 16  1  0  0  0  0
 10  9  2  0  0  0  0
 11  2  1  0  0  0  0
 12 13  2  0  0  0  0
 13  8  1  0  0  0  0
 14  9  1  0  0  0  0
 15 14  1  0  0  0  0
 15  5  1  0  0  0  0
 16  2  2  0  0  0  0
 16  6  1  0  0  0  0
 17 22  1  0  0  0  0
 17 19  1  0  0  0  0
 18 17  1  0  0  0  0
 21 22  2  0  0  0  0
 22 20  1  0  0  0  0
 23 24  1  0  0  0  0
 25 23  1  0  0  0  0
 25  4  1  0  0  0  0
 25 24  1  0  0  0  0
M  END
>  <MODEL>
1

>  <REMARK>
 VINA RESULT:      -8.0      0.000      0.000
  Name = 
  2 active torsions:
  status: ('A' for Active; 'I' for Inactive)
    1  A    between atoms: C_5  and  C_22
    2  A    between atoms: C_6  and  N_15
                            x       y       z     vdW  Elec       q    Type
                         _______ _______ _______ _____ _____    ______ ____

>  <TORSDO>
F 2

$$$$
=
 OpenBabel10262419583D

 25 28  0  0  1  0  0  0  0  0999 V2000
  187.3570  177.6790  142.4270 C   0  0  0  0  0  0  0  0  0  0  0  0
  186.0010  178.3390  142.4620 C   0  0  0  0  0  0  0  0  0  0  0  0
  186.8410  176.8360  144.7470 C   0  0  0  0  0  2  0  0  0  0  0  0
  188.2780  177.7980  141.3420 C   0  0  0  0  0  0  0  0  0  0  0  0
  184.0430  177.9310  141.0110 C   0  0  1  0  0  3  0  0  0  0  0  0
  186.1130  178.1610  144.9240 C   0  0  0  0  0  2  0  0  0  0  0  0
  189.5170  177.1360  141.4260 C   0  0  0  0  0  3  0  0  0  0  0  0
  189.8560  176.3680  142.5350 C   0  0  0  0  0  3  0  0  0  0  0  0
  184.0290  179.1300  143.8450 C   0  0  0  0  0  0  0  0  0  0  0  0
  183.8010  179.7600  144.9110 O   0  0  0  0  0  0  0  0  0  0  0  0
  185.3290  178.7060  141.1790 C   0  0  0  0  0  2  0  0  0  0  0  0
  187.7480  176.9320  143.5650 C   0  0  0  0  0  0  0  0  0  0  0  0
  188.9740  176.2700  143.6040 C   0  0  0  0  0  3  0  0  0  0  0  0
  182.9200  178.8890  142.9660 N   0  0  0  0  0  2  0  0  0  0  0  0
  182.9360  178.8240  141.5110 C   0  0  0  0  0  2  0  0  0  0  0  0
  185.3820  178.5320  143.6590 C   0  0  0  0  0  0  0  0  0  0  0  0
  182.8570  176.2820  137.7680 N   0  0  0  0  0  0  0  0  0  0  0  0
  182.0120  175.1930  137.3060 C   0  0  0  0  0  1  0  0  0  0  0  0
  183.5810  177.0650  136.7790 C   0  0  0  0  0  1  0  0  0  0  0  0
  183.8260  177.6420  139.6040 N   0  0  0  0  0  2  0  0  0  0  0  0
  182.3500  175.8840  140.0130 O   0  0  0  0  0  0  0  0  0  0  0  0
  182.9840  176.5720  139.1650 C   0  0  0  0  0  0  0  0  0  0  0  0
  187.8320  177.8770  138.9060 C   0  0  0  0  0  2  0  0  0  0  0  0
  189.0970  178.6800  139.0960 C   0  0  0  0  0  2  0  0  0  0  0  0
  188.0100  178.7090  140.1640 C   0  0  0  0  0  3  0  0  0  0  0  0
  1  2  1  0  0  0  0
  1 12  1  0  0  0  0
  2 16  2  0  0  0  0
  3  6  1  0  0  0  0
  4  7  1  0  0  0  0
  4  1  2  0  0  0  0
  5 20  1  6  0  0  0
  5 11  1  0  0  0  0
  5 15  1  0  0  0  0
  7  8  2  0  0  0  0
  8 13  1  0  0  0  0
  9 10  2  0  0  0  0
 11  2  1  0  0  0  0
 12 13  2  0  0  0  0
 12  3  1  0  0  0  0
 14  9  1  0  0  0  0
 15 14  1  0  0  0  0
 16  9  1  0  0  0  0
 16  6  1  0  0  0  0
 17 22  1  0  0  0  0
 18 17  1  0  0  0  0
 19 17  1  0  0  0  0
 22 20  1  0  0  0  0
 22 21  2  0  0  0  0
 23 24  1  0  0  0  0
 23 25  1  0  0  0  0
 24 25  1  0  0  0  0
 25  4  1  0  0  0  0
M  END
>  <MODEL>
2

>  <REMARK>
 VINA RESULT:      -7.6      3.358      5.093
  Name = 
  2 active torsions:
  status: ('A' for Active; 'I' for Inactive)
    1  A    between atoms: C_5  and  C_22
    2  A    between atoms: C_6  and  N_15
                            x       y       z     vdW  Elec       q    Type
                         _______ _______ _______ _____ _____    ______ ____

>  <TORSDO>
F 2

$$$$
=
 OpenBabel10262419583D

 25 28  0  0  1  0  0  0  0  0999 V2000
  189.2910  177.5410  145.8110 C   0  0  0  0  0  0  0  0  0  0  0  0
  187.9860  178.1150  145.3210 C   0  0  0  0  0  0  0  0  0  0  0  0
  187.9380  176.3710  147.5880 C   0  0  0  0  0  2  0  0  0  0  0  0
  190.5660  177.8530  145.2470 C   0  0  0  0  0  0  0  0  0  0  0  0
  186.8790  177.7960  143.1350 C   0  0  1  0  0  3  0  0  0  0  0  0
  187.0670  177.6190  147.5600 C   0  0  0  0  0  2  0  0  0  0  0  0
  191.7170  177.2550  145.7940 C   0  0  0  0  0  3  0  0  0  0  0  0
  191.6360  176.3670  146.8610 C   0  0  0  0  0  3  0  0  0  0  0  0
  185.5430  178.6060  145.7850 C   0  0  0  0  0  0  0  0  0  0  0  0
  184.8200  179.0750  146.7040 O   0  0  0  0  0  0  0  0  0  0  0  0
  187.8830  178.6110  143.9150 C   0  0  0  0  0  2  0  0  0  0  0  0
  189.2430  176.6730  146.9290 C   0  0  0  0  0  0  0  0  0  0  0  0
  190.4010  176.0800  147.4300 C   0  0  0  0  0  3  0  0  0  0  0  0
  184.9410  178.4230  144.4950 N   0  0  0  0  0  2  0  0  0  0  0  0
  185.5760  178.5530  143.1910 C   0  0  0  0  0  2  0  0  0  0  0  0
  186.9030  178.1130  146.1450 C   0  0  0  0  0  0  0  0  0  0  0  0
  188.9740  177.0800  140.0140 N   0  0  0  0  0  0  0  0  0  0  0  0
  190.2510  176.5010  139.6280 C   0  0  0  0  0  1  0  0  0  0  0  0
  188.1270  177.6450  138.9760 C   0  0  0  0  0  1  0  0  0  0  0  0
  187.3080  177.6850  141.7510 N   0  0  0  0  0  2  0  0  0  0  0  0
  189.3110  176.6110  142.2770 O   0  0  0  0  0  0  0  0  0  0  0  0
  188.5640  177.1040  141.3870 C   0  0  0  0  0  0  0  0  0  0  0  0
  191.9020  178.5330  143.2750 C   0  0  0  0  0  2  0  0  0  0  0  0
  192.0280  179.6840  144.2450 C   0  0  0  0  0  2  0  0  0  0  0  0
  190.7250  178.8970  144.1630 C   0  0  0  0  0  3  0  0  0  0  0  0
  1 12  1  0  0  0  0
  2  1  1  0  0  0  0
  2 16  2  0  0  0  0
  4  7  1  0  0  0  0
  4  1  2  0  0  0  0
  5 20  1  6  0  0  0
  5 15  1  0  0  0  0
  5 11  1  0  0  0  0
  6  3  1  0  0  0  0
  7  8  2  0  0  0  0
  8 13  1  0  0  0  0
  9 16  1  0  0  0  0
  9 10  2  0  0  0  0
 11  2  1  0  0  0  0
 12 13  2  0  0  0  0
 12  3  1  0  0  0  0
 14  9  1  0  0  0  0
 15 14  1  0  0  0  0
 16  6  1  0  0  0  0
 17 22  1  0  0  0  0
 18 17  1  0  0  0  0
 19 17  1  0  0  0  0
 22 20  1  0  0  0  0
 22 21  2  0  0  0  0
 23 25  1  0  0  0  0
 23 24  1  0  0  0  0
 25 24  1  0  0  0  0
 25  4  1  0  0  0  0
M  END
>  <MODEL>
3

>  <REMARK>
 VINA RESULT:      -7.5      2.506      3.953
  Name = 
  2 active torsions:
  status: ('A' for Active; 'I' for Inactive)
    1  A    between atoms: C_5  and  C_22
    2  A    between atoms: C_6  and  N_15
                            x       y       z     vdW  Elec       q    Type
                         _______ _______ _______ _____ _____    ______ ____

>  <TORSDO>
F 2

$$$$
=
 OpenBabel10262419583D

 25 28  0  0  1  0  0  0  0  0999 V2000
  187.5380  177.9960  142.2720 C   0  0  0  0  0  0  0  0  0  0  0  0
  187.1460  178.4050  140.8750 C   0  0  0  0  0  0  0  0  0  0  0  0
  185.0690  177.9020  142.7770 C   0  0  0  0  0  2  0  0  0  0  0  0
  188.8880  177.8920  142.7280 C   0  0  0  0  0  0  0  0  0  0  0  0
  187.5700  177.2320  138.7420 C   0  0  1  0  0  3  0  0  0  0  0  0
  184.9620  179.0770  141.8140 C   0  0  0  0  0  2  0  0  0  0  0  0
  189.1280  177.5020  144.0590 C   0  0  0  0  0  3  0  0  0  0  0  0
  188.0840  177.2110  144.9300 C   0  0  0  0  0  3  0  0  0  0  0  0
  185.3530  179.2860  139.3140 C   0  0  0  0  0  0  0  0  0  0  0  0
  184.4770  180.1910  139.2800 O   0  0  0  0  0  0  0  0  0  0  0  0
  188.1150  178.2120  139.7540 C   0  0  0  0  0  2  0  0  0  0  0  0
  186.4930  177.7430  143.1950 C   0  0  0  0  0  0  0  0  0  0  0  0
  186.7680  177.3360  144.4990 C   0  0  0  0  0  3  0  0  0  0  0  0
  185.6410  178.5940  138.0910 N   0  0  0  0  0  2  0  0  0  0  0  0
  186.9210  178.0520  137.6560 C   0  0  0  0  0  2  0  0  0  0  0  0
  185.8930  178.8840  140.6440 C   0  0  0  0  0  0  0  0  0  0  0  0
  189.5580  174.4670  136.9960 N   0  0  0  0  0  0  0  0  0  0  0  0
  189.3550  173.2080  136.2980 C   0  0  0  0  0  1  0  0  0  0  0  0
  190.9200  174.9330  137.2030 C   0  0  0  0  0  1  0  0  0  0  0  0
  188.6610  176.4600  138.1720 N   0  0  0  0  0  2  0  0  0  0  0  0
  187.2670  174.8090  137.2930 O   0  0  0  0  0  0  0  0  0  0  0  0
  188.4440  175.2260  137.4800 C   0  0  0  0  0  0  0  0  0  0  0  0
  190.7210  177.0690  141.2790 C   0  0  0  0  0  2  0  0  0  0  0  0
  191.4110  177.8380  142.3810 C   0  0  0  0  0  2  0  0  0  0  0  0
  190.0570  178.3050  141.8610 C   0  0  0  0  0  3  0  0  0  0  0  0
  1  4  2  0  0  0  0
  1 12  1  0  0  0  0
  2  1  1  0  0  0  0
  3 12  1  0  0  0  0
  4  7  1  0  0  0  0
  5 20  1  6  0  0  0
  5 11  1  0  0  0  0
  6  3  1  0  0  0  0
  7  8  2  0  0  0  0
  9 16  1  0  0  0  0
 10  9  2  0  0  0  0
 11  2  1  0  0  0  0
 12 13  2  0  0  0  0
 13  8  1  0  0  0  0
 14  9  1  0  0  0  0
 15 14  1  0  0  0  0
 15  5  1  0  0  0  0
 16  2  2  0  0  0  0
 16  6  1  0  0  0  0
 17 19  1  0  0  0  0
 17 22  1  0  0  0  0
 18 17  1  0  0  0  0
 21 22  2  0  0  0  0
 22 20  1  0  0  0  0
 23 25  1  0  0  0  0
 23 24  1  0  0  0  0
 25 24  1  0  0  0  0
 25  4  1  0  0  0  0
M  END
>  <MODEL>
4

>  <REMARK>
 VINA RESULT:      -7.2      1.305      1.575
  Name = 
  2 active torsions:
  status: ('A' for Active; 'I' for Inactive)
    1  A    between atoms: C_5  and  C_22
    2  A    between atoms: C_6  and  N_15
                            x       y       z     vdW  Elec       q    Type
                         _______ _______ _______ _____ _____    ______ ____

>  <TORSDO>
F 2

$$$$
=
 OpenBabel10262419583D

 25 28  0  0  1  0  0  0  0  0999 V2000
  181.9070  177.4430  140.4650 C   0  0  0  0  0  0  0  0  0  0  0  0
  183.2490  178.1290  140.4180 C   0  0  0  0  0  0  0  0  0  0  0  0
  182.7460  175.9960  138.5780 C   0  0  0  0  0  2  0  0  0  0  0  0
  180.8430  177.8230  141.3390 C   0  0  0  0  0  0  0  0  0  0  0  0
  184.9900  178.2480  142.1670 C   0  0  1  0  0  3  0  0  0  0  0  0
  183.4810  177.2490  138.1210 C   0  0  0  0  0  2  0  0  0  0  0  0
  179.6330  177.1060  141.2890 C   0  0  0  0  0  3  0  0  0  0  0  0
  179.4570  176.0380  140.4170 C   0  0  0  0  0  3  0  0  0  0  0  0
  185.3880  178.5850  139.1360 C   0  0  0  0  0  0  0  0  0  0  0  0
  185.7560  178.8930  137.9710 O   0  0  0  0  0  0  0  0  0  0  0  0
  183.7330  178.8800  141.6160 C   0  0  0  0  0  2  0  0  0  0  0  0
  181.6830  176.3840  139.5520 C   0  0  0  0  0  0  0  0  0  0  0  0
  180.4800  175.6800  139.5460 C   0  0  0  0  0  3  0  0  0  0  0  0
  186.3660  178.6590  140.1840 N   0  0  0  0  0  2  0  0  0  0  0  0
  186.1480  179.0130  141.5800 C   0  0  0  0  0  2  0  0  0  0  0  0
  184.0270  178.0010  139.3080 C   0  0  0  0  0  0  0  0  0  0  0  0
  186.0430  178.0040  145.8390 N   0  0  0  0  0  0  0  0  0  0  0  0
  187.1380  177.5170  146.6610 C   0  0  0  0  0  1  0  0  0  0  0  0
  184.8820  178.5780  146.4980 C   0  0  0  0  0  1  0  0  0  0  0  0
  185.0110  178.3850  143.6140 N   0  0  0  0  0  2  0  0  0  0  0  0
  187.1150  177.4060  143.8500 O   0  0  0  0  0  0  0  0  0  0  0  0
  186.1010  177.9080  144.4100 C   0  0  0  0  0  0  0  0  0  0  0  0
  179.6440  179.2090  143.0070 C   0  0  0  0  0  2  0  0  0  0  0  0
  179.9510  180.1510  141.8660 C   0  0  0  0  0  2  0  0  0  0  0  0
  180.9370  179.0450  142.2260 C   0  0  0  0  0  3  0  0  0  0  0  0
  1  4  1  0  0  0  0
  2  1  1  0  0  0  0
  2 11  1  0  0  0  0
  3 12  1  0  0  0  0
  4 25  1  0  0  0  0
  5 20  1  1  0  0  0
  6  3  1  0  0  0  0
  6 16  1  0  0  0  0
  7  4  2  0  0  0  0
  8  7  1  0  0  0  0
  9 16  1  0  0  0  0
  9 14  1  0  0  0  0
 10  9  2  0  0  0  0
 11  5  1  0  0  0  0
 12  1  2  0  0  0  0
 13 12  1  0  0  0  0
 13  8  2  0  0  0  0
 14 15  1  0  0  0  0
 15  5  1  0  0  0  0
 16  2  2  0  0  0  0
 17 19  1  0  0  0  0
 17 18  1  0  0  0  0
 20 22  1  0  0  0  0
 21 22  2  0  0  0  0
 22 17  1  0  0  0  0
 24 25  1  0  0  0  0
 24 23  1  0  0  0  0
 25 23  1  0  0  0  0
M  END
>  <MODEL>
5

>  <REMARK>
 VINA RESULT:      -7.1      4.243      7.802
  Name = 
  2 active torsions:
  status: ('A' for Active; 'I' for Inactive)
    1  A    between atoms: C_5  and  C_22
    2  A    between atoms: C_6  and  N_15
                            x       y       z     vdW  Elec       q    Type
                         _______ _______ _______ _____ _____    ______ ____

>  <TORSDO>
F 2

$$$$
=
 OpenBabel10262419583D

 25 28  0  0  1  0  0  0  0  0999 V2000
  188.3220  177.9840  144.9690 C   0  0  0  0  0  0  0  0  0  0  0  0
  187.3100  178.5930  144.0330 C   0  0  0  0  0  0  0  0  0  0  0  0
  186.3590  177.0360  146.2360 C   0  0  0  0  0  2  0  0  0  0  0  0
  189.7330  178.1750  144.8580 C   0  0  0  0  0  0  0  0  0  0  0  0
  186.9810  178.1720  141.6200 C   0  0  1  0  0  3  0  0  0  0  0  0
  185.6530  178.3270  145.8460 C   0  0  0  0  0  2  0  0  0  0  0  0
  190.5800  177.5550  145.7960 C   0  0  0  0  0  3  0  0  0  0  0  0
  190.0720  176.7580  146.8170 C   0  0  0  0  0  3  0  0  0  0  0  0
  184.9010  179.2610  143.6080 C   0  0  0  0  0  0  0  0  0  0  0  0
  183.9530  179.8420  144.1990 O   0  0  0  0  0  0  0  0  0  0  0  0
  187.7270  178.9840  142.6520 C   0  0  0  0  0  2  0  0  0  0  0  0
  187.8300  177.2080  146.0470 C   0  0  0  0  0  0  0  0  0  0  0  0
  188.6990  176.5890  146.9440 C   0  0  0  0  0  3  0  0  0  0  0  0
  184.7560  179.0150  142.2010 N   0  0  0  0  0  2  0  0  0  0  0  0
  185.8020  179.0050  141.1880 C   0  0  0  0  0  2  0  0  0  0  0  0
  186.0160  178.7190  144.4360 C   0  0  0  0  0  0  0  0  0  0  0  0
  189.9010  177.0170  139.4320 N   0  0  0  0  0  0  0  0  0  0  0  0
  191.1370  176.2580  139.5200 C   0  0  0  0  0  1  0  0  0  0  0  0
  189.5500  177.6270  138.1600 C   0  0  0  0  0  1  0  0  0  0  0  0
  187.8410  177.9280  140.4740 N   0  0  0  0  0  2  0  0  0  0  0  0
  189.3670  176.6360  141.6740 O   0  0  0  0  0  0  0  0  0  0  0  0
  189.0510  177.1710  140.5750 C   0  0  0  0  0  0  0  0  0  0  0  0
  191.6560  178.5640  143.3450 C   0  0  0  0  0  2  0  0  0  0  0  0
  191.6490  179.7520  144.2780 C   0  0  0  0  0  2  0  0  0  0  0  0
  190.3330  179.1210  143.8400 C   0  0  0  0  0  3  0  0  0  0  0  0
  1 12  1  0  0  0  0
  2 16  2  0  0  0  0
  2  1  1  0  0  0  0
  4  1  2  0  0  0  0
  4  7  1  0  0  0  0
  5 20  1  6  0  0  0
  5 11  1  0  0  0  0
  6  3  1  0  0  0  0
  7  8  2  0  0  0  0
  8 13  1  0  0  0  0
  9 10  2  0  0  0  0
  9 16  1  0  0  0  0
 11  2  1  0  0  0  0
 12  3  1  0  0  0  0
 12 13  2  0  0  0  0
 14  9  1  0  0  0  0
 15  5  1  0  0  0  0
 15 14  1  0  0  0  0
 16  6  1  0  0  0  0
 17 18  1  0  0  0  0
 17 22  1  0  0  0  0
 19 17  1  0  0  0  0
 20 22  1  0  0  0  0
 22 21  2  0  0  0  0
 23 25  1  0  0  0  0
 23 24  1  0  0  0  0
 25 24  1  0  0  0  0
 25  4  1  0  0  0  0
M  END
>  <MODEL>
6

>  <REMARK>
 VINA RESULT:      -6.9      1.815      2.644
  Name = 
  2 active torsions:
  status: ('A' for Active; 'I' for Inactive)
    1  A    between atoms: C_5  and  C_22
    2  A    between atoms: C_6  and  N_15
                            x       y       z     vdW  Elec       q    Type
                         _______ _______ _______ _____ _____    ______ ____

>  <TORSDO>
F 2

$$$$
=
 OpenBabel10262419583D

 25 28  0  0  1  0  0  0  0  0999 V2000
  188.0690  177.5850  143.3140 C   0  0  0  0  0  0  0  0  0  0  0  0
  186.8280  178.2950  143.7930 C   0  0  0  0  0  0  0  0  0  0  0  0
  188.3080  176.7270  145.6740 C   0  0  0  0  0  2  0  0  0  0  0  0
  188.5890  177.6850  141.9880 C   0  0  0  0  0  0  0  0  0  0  0  0
  184.4870  177.9820  143.0630 C   0  0  1  0  0  3  0  0  0  0  0  0
  187.7320  178.0760  146.0820 C   0  0  0  0  0  2  0  0  0  0  0  0
  189.7590  176.9760  141.6600 C   0  0  0  0  0  3  0  0  0  0  0  0
  190.4120  176.1800  142.5950 C   0  0  0  0  0  3  0  0  0  0  0  0
  185.4500  179.1380  145.7470 C   0  0  0  0  0  0  0  0  0  0  0  0
  185.6090  179.7600  146.8300 O   0  0  0  0  0  0  0  0  0  0  0  0
  185.7880  178.7050  142.8020 C   0  0  0  0  0  2  0  0  0  0  0  0
  188.7810  176.8070  144.2600 C   0  0  0  0  0  0  0  0  0  0  0  0
  189.9240  176.0990  143.8950 C   0  0  0  0  0  3  0  0  0  0  0  0
  184.1050  178.9520  145.2790 N   0  0  0  0  0  2  0  0  0  0  0  0
  183.6420  178.9080  143.8990 C   0  0  0  0  0  2  0  0  0  0  0  0
  186.6420  178.4930  145.1270 C   0  0  0  0  0  0  0  0  0  0  0  0
  183.1750  178.3430  139.4860 N   0  0  0  0  0  0  0  0  0  0  0  0
  183.2650  179.2350  138.3430 C   0  0  0  0  0  1  0  0  0  0  0  0
  182.3050  177.1820  139.3930 C   0  0  0  0  0  1  0  0  0  0  0  0
  183.8110  177.7220  141.8030 N   0  0  0  0  0  2  0  0  0  0  0  0
  184.6680  179.6190  140.7510 O   0  0  0  0  0  0  0  0  0  0  0  0
  183.9170  178.6060  140.6830 C   0  0  0  0  0  0  0  0  0  0  0  0
  187.5810  177.8380  139.7300 C   0  0  0  0  0  2  0  0  0  0  0  0
  188.7940  178.7370  139.6760 C   0  0  0  0  0  2  0  0  0  0  0  0
  187.9870  178.6240  140.9640 C   0  0  0  0  0  3  0  0  0  0  0  0
  1  2  1  0  0  0  0
  1 12  1  0  0  0  0
  2 16  2  0  0  0  0
  3  6  1  0  0  0  0
  4  1  2  0  0  0  0
  5 20  1  6  0  0  0
  5 15  1  0  0  0  0
  7  4  1  0  0  0  0
  7  8  2  0  0  0  0
  8 13  1  0  0  0  0
  9 10  2  0  0  0  0
 11  5  1  0  0  0  0
 11  2  1  0  0  0  0
 12  3  1  0  0  0  0
 13 12  2  0  0  0  0
 14  9  1  0  0  0  0
 15 14  1  0  0  0  0
 16  9  1  0  0  0  0
 16  6  1  0  0  0  0
 17 22  1  0  0  0  0
 18 17  1  0  0  0  0
 19 17  1  0  0  0  0
 22 21  2  0  0  0  0
 22 20  1  0  0  0  0
 23 25  1  0  0  0  0
 24 23  1  0  0  0  0
 24 25  1  0  0  0  0
 25  4  1  0  0  0  0
M  END
>  <MODEL>
7

>  <REMARK>
 VINA RESULT:      -6.9      3.353      5.551
  Name = 
  2 active torsions:
  status: ('A' for Active; 'I' for Inactive)
    1  A    between atoms: C_5  and  C_22
    2  A    between atoms: C_6  and  N_15
                            x       y       z     vdW  Elec       q    Type
                         _______ _______ _______ _____ _____    ______ ____

>  <TORSDO>
F 2

$$$$
=
 OpenBabel10262419583D

 25 28  0  0  1  0  0  0  0  0999 V2000
  189.2790  175.5280  137.4980 C   0  0  0  0  0  0  0  0  0  0  0  0
  190.4190  176.2760  138.1410 C   0  0  0  0  0  0  0  0  0  0  0  0
  190.9970  173.8280  136.7770 C   0  0  0  0  0  2  0  0  0  0  0  0
  187.9270  175.9880  137.4790 C   0  0  0  0  0  0  0  0  0  0  0  0
  190.7720  176.8040  140.5290 C   0  0  1  0  0  3  0  0  0  0  0  0
  191.9280  175.0250  136.6380 C   0  0  0  0  0  2  0  0  0  0  0  0
  186.9480  175.2010  136.8430 C   0  0  0  0  0  3  0  0  0  0  0  0
  187.2690  173.9880  136.2430 C   0  0  0  0  0  3  0  0  0  0  0  0
  192.9210  176.6300  138.3360 C   0  0  0  0  0  0  0  0  0  0  0  0
  193.9300  176.7530  137.5910 O   0  0  0  0  0  0  0  0  0  0  0  0
  190.1320  177.2510  139.2360 C   0  0  0  0  0  2  0  0  0  0  0  0
  189.5860  174.3130  136.8360 C   0  0  0  0  0  0  0  0  0  0  0  0
  188.5880  173.5470  136.2370 C   0  0  0  0  0  3  0  0  0  0  0  0
  193.0810  176.9460  139.7270 N   0  0  0  0  0  2  0  0  0  0  0  0
  192.0920  177.5230  140.6270 C   0  0  0  0  0  2  0  0  0  0  0  0
  191.6970  176.0040  137.7600 C   0  0  0  0  0  0  0  0  0  0  0  0
  189.4000  177.2580  144.0730 N   0  0  0  0  0  0  0  0  0  0  0  0
  189.7510  176.9790  145.4560 C   0  0  0  0  0  1  0  0  0  0  0  0
  188.1150  177.8780  143.7950 C   0  0  0  0  0  1  0  0  0  0  0  0
  189.9320  177.1910  141.6500 N   0  0  0  0  0  2  0  0  0  0  0  0
  191.4070  176.3780  143.2630 O   0  0  0  0  0  0  0  0  0  0  0  0
  190.2950  176.9180  143.0070 C   0  0  0  0  0  0  0  0  0  0  0  0
  186.2190  177.7810  137.4040 C   0  0  0  0  0  2  0  0  0  0  0  0
  187.4990  178.4450  136.9540 C   0  0  0  0  0  2  0  0  0  0  0  0
  187.5410  177.3500  138.0140 C   0  0  0  0  0  3  0  0  0  0  0  0
  1  2  1  0  0  0  0
  2 11  1  0  0  0  0
  3 12  1  0  0  0  0
  4  1  1  0  0  0  0
  4 25  1  0  0  0  0
  5 15  1  0  0  0  0
  5 20  1  1  0  0  0
  6  3  1  0  0  0  0
  6 16  1  0  0  0  0
  7  4  2  0  0  0  0
  8  7  1  0  0  0  0
  9 14  1  0  0  0  0
 10  9  2  0  0  0  0
 11  5  1  0  0  0  0
 12  1  2  0  0  0  0
 13  8  2  0  0  0  0
 13 12  1  0  0  0  0
 14 15  1  0  0  0  0
 16  2  2  0  0  0  0
 16  9  1  0  0  0  0
 17 18  1  0  0  0  0
 19 17  1  0  0  0  0
 20 22  1  0  0  0  0
 22 21  2  0  0  0  0
 22 17  1  0  0  0  0
 23 25  1  0  0  0  0
 24 23  1  0  0  0  0
 24 25  1  0  0  0  0
M  END
>  <MODEL>
8

>  <REMARK>
 VINA RESULT:      -6.9      2.859      7.389
  Name = 
  2 active torsions:
  status: ('A' for Active; 'I' for Inactive)
    1  A    between atoms: C_5  and  C_22
    2  A    between atoms: C_6  and  N_15
                            x       y       z     vdW  Elec       q    Type
                         _______ _______ _______ _____ _____    ______ ____

>  <TORSDO>
F 2

$$$$
=
 OpenBabel10262419583D

 25 28  0  0  1  0  0  0  0  0999 V2000
  187.8490  177.8600  145.9720 C   0  0  0  0  0  0  0  0  0  0  0  0
  189.0640  177.1640  145.4140 C   0  0  0  0  0  0  0  0  0  0  0  0
  189.2950  178.4880  147.9400 C   0  0  0  0  0  2  0  0  0  0  0  0
  186.5660  177.8600  145.3430 C   0  0  0  0  0  0  0  0  0  0  0  0
  190.3020  177.6440  143.3290 C   0  0  1  0  0  3  0  0  0  0  0  0
  189.9540  177.1330  147.7180 C   0  0  0  0  0  2  0  0  0  0  0  0
  185.5040  178.5440  145.9640 C   0  0  0  0  0  3  0  0  0  0  0  0
  185.6810  179.2230  147.1650 C   0  0  0  0  0  3  0  0  0  0  0  0
  191.3740  176.2060  145.8290 C   0  0  0  0  0  0  0  0  0  0  0  0
  191.9710  175.4810  146.6680 O   0  0  0  0  0  0  0  0  0  0  0  0
  189.1470  176.8920  143.9470 C   0  0  0  0  0  2  0  0  0  0  0  0
  187.9880  178.5170  147.2190 C   0  0  0  0  0  0  0  0  0  0  0  0
  186.9210  179.2050  147.7930 C   0  0  0  0  0  3  0  0  0  0  0  0
  192.0530  176.4920  144.5970 N   0  0  0  0  0  2  0  0  0  0  0  0
  191.4620  176.6820  143.2800 C   0  0  0  0  0  2  0  0  0  0  0  0
  190.0970  176.8530  146.2440 C   0  0  0  0  0  0  0  0  0  0  0  0
  189.8480  177.6500  139.5290 N   0  0  0  0  0  0  0  0  0  0  0  0
  190.0360  176.7870  138.3750 C   0  0  0  0  0  1  0  0  0  0  0  0
  189.3690  179.0050  139.3110 C   0  0  0  0  0  1  0  0  0  0  0  0
  189.9560  178.0470  141.9770 N   0  0  0  0  0  2  0  0  0  0  0  0
  190.5550  176.0030  141.0270 O   0  0  0  0  0  0  0  0  0  0  0  0
  190.1390  177.1820  140.8520 C   0  0  0  0  0  0  0  0  0  0  0  0
  186.5990  177.8780  142.8660 C   0  0  0  0  0  2  0  0  0  0  0  0
  185.1610  177.5990  143.2340 C   0  0  0  0  0  2  0  0  0  0  0  0
  186.2880  177.0460  144.0980 C   0  0  0  0  0  3  0  0  0  0  0  0
  1 12  1  0  0  0  0
  2  1  1  0  0  0  0
  2 16  2  0  0  0  0
  4  7  1  0  0  0  0
  4  1  2  0  0  0  0
  5 20  1  6  0  0  0
  5 11  1  0  0  0  0
  6  3  1  0  0  0  0
  7  8  2  0  0  0  0
  8 13  1  0  0  0  0
  9 16  1  0  0  0  0
  9 10  2  0  0  0  0
 11  2  1  0  0  0  0
 12 13  2  0  0  0  0
 12  3  1  0  0  0  0
 14  9  1  0  0  0  0
 15  5  1  0  0  0  0
 15 14  1  0  0  0  0
 16  6  1  0  0  0  0
 17 22  1  0  0  0  0
 18 17  1  0  0  0  0
 19 17  1  0  0  0  0
 22 21  2  0  0  0  0
 22 20  1  0  0  0  0
 23 24  1  0  0  0  0
 23 25  1  0  0  0  0
 24 25  1  0  0  0  0
 25  4  1  0  0  0  0
M  END
>  <MODEL>
9

>  <REMARK>
 VINA RESULT:      -6.8      2.939      5.208
  Name = 
  2 active torsions:
  status: ('A' for Active; 'I' for Inactive)
    1  A    between atoms: C_5  and  C_22
    2  A    between atoms: C_6  and  N_15
                            x       y       z     vdW  Elec       q    Type
                         _______ _______ _______ _____ _____    ______ ____

>  <TORSDO>
F 2

$$$$
