=
 OpenBabel10262421003D

 32 36  0  0  1  0  0  0  0  0999 V2000
  187.0880  178.2560  145.7130 C   0  0  1  0  0  3  0  0  0  0  0  0
  189.2880  177.0750  145.3370 C   0  0  0  0  0  0  0  0  0  0  0  0
  186.0470  178.3750  146.8260 C   0  0  0  0  0  2  0  0  0  0  0  0
  188.3830  177.6680  146.2290 C   0  0  0  0  0  0  0  0  0  0  0  0
  190.5230  176.5860  145.8030 C   0  0  0  0  0  0  0  0  0  0  0  0
  190.8190  177.2110  140.9570 C   0  0  0  0  0  2  0  0  0  0  0  0
  188.9230  177.0380  143.8780 C   0  0  2  0  0  3  0  0  0  0  0  0
  191.7770  177.6510  143.2520 C   0  0  0  0  0  2  0  0  0  0  0  0
  191.2710  176.2820  143.4520 N   0  0  1  0  0  0  0  0  0  0  0  0
  188.7140  177.7860  147.5900 C   0  0  0  0  0  0  0  0  0  0  0  0
  191.4660  175.8870  144.8510 C   0  0  0  0  0  2  0  0  0  0  0  0
  189.9280  177.2830  148.0570 C   0  0  0  0  0  3  0  0  0  0  0  0
  187.8190  178.3880  148.4820 O   0  0  0  0  0  0  0  0  0  0  0  0
  187.4700  176.5790  143.7500 C   0  0  0  0  0  2  0  0  0  0  0  0
  186.4910  177.4860  144.5190 C   0  0  2  0  0  3  0  0  0  0  0  0
  189.8550  176.1290  143.0620 C   0  0  2  0  0  3  0  0  0  0  0  0
  190.8310  176.6750  147.1770 C   0  0  0  0  0  0  0  0  0  0  0  0
  186.6630  179.0910  148.0250 C   0  0  0  0  0  2  0  0  0  0  0  0
  191.2890  178.2780  141.9380 C   0  0  0  0  0  2  0  0  0  0  0  0
  189.6730  176.3920  141.5580 C   0  0  0  0  0  2  0  0  0  0  0  0
  192.1270  176.1730  147.7220 C   0  0  0  0  0  2  0  0  0  0  0  0
  192.6140  177.0640  148.6790 O   0  0  0  0  0  1  0  0  0  0  0  0
  185.8060  178.4530  143.5650 C   0  0  0  0  0  2  0  0  0  0  0  0
  185.8010  177.8890  142.1540 C   0  0  0  0  0  2  0  0  0  0  0  0
  186.6370  178.7730  141.2440 C   0  0  0  0  0  2  0  0  0  0  0  0
  184.8870  179.5300  139.8270 O   0  0  0  0  0  0  0  0  0  0  0  0
  186.5800  178.3840  138.7180 N   0  0  0  0  0  2  0  0  0  0  0  0
  185.9870  178.9220  139.9090 C   0  0  0  0  0  0  0  0  0  0  0  0
  187.8850  177.7280  138.6250 C   0  0  1  0  0  3  0  0  0  0  0  0
  187.8240  176.5380  137.6870 C   0  0  0  0  0  1  0  0  0  0  0  0
  188.9770  178.6960  138.1940 C   0  0  0  0  0  2  0  0  0  0  0  0
  188.4660  179.6110  137.2720 O   0  0  0  0  0  1  0  0  0  0  0  0
  1  4  1  0  0  0  0
  1  3  1  1  0  0  0
  2  5  2  0  0  0  0
  2  4  1  0  0  0  0
  3 18  1  0  0  0  0
  4 10  2  0  0  0  0
  5 17  1  0  0  0  0
  6 20  1  0  0  0  0
  6 19  1  0  0  0  0
  7 14  1  1  0  0  0
  7  2  1  0  0  0  0
  9  8  1  1  0  0  0
  9 11  1  0  0  0  0
 10 12  1  0  0  0  0
 10 13  1  0  0  0  0
 11  5  1  0  0  0  0
 14 15  1  0  0  0  0
 15 23  1  6  0  0  0
 15  1  1  0  0  0  0
 16 20  1  6  0  0  0
 16  9  1  0  0  0  0
 16  7  1  0  0  0  0
 17 21  1  0  0  0  0
 17 12  2  0  0  0  0
 18 13  1  0  0  0  0
 19  8  1  0  0  0  0
 21 22  1  0  0  0  0
 24 23  1  0  0  0  0
 25 24  1  0  0  0  0
 26 28  2  0  0  0  0
 27 28  1  0  0  0  0
 28 25  1  0  0  0  0
 29 30  1  6  0  0  0
 29 27  1  0  0  0  0
 31 29  1  0  0  0  0
 32 31  1  0  0  0  0
M  END
>  <MODEL>
1

>  <REMARK>
 VINA RESULT:      -9.2      0.000      0.000
  Name = 
  7 active torsions:
  status: ('A' for Active; 'I' for Inactive)
    1  A    between atoms: CA_3  and  N_19
    2  A    between atoms: CA_3  and  C_22
    3  A    between atoms: C_13  and  C_29
    4  A    between atoms: C_15  and  C_20
    5  A    between atoms: C_15  and  C_26
    6  A    between atoms: C_16  and  C_20
    7  A    between atoms: C_16  and  C_27
                            x       y       z     vdW  Elec       q    Type
                         _______ _______ _______ _____ _____    ______ ____

>  <TORSDO>
F 7

$$$$
=
 OpenBabel10262421003D

 32 36  0  0  1  0  0  0  0  0999 V2000
  185.7720  178.7190  143.3770 C   0  0  1  0  0  3  0  0  0  0  0  0
  187.6010  177.8170  144.8670 C   0  0  0  0  0  0  0  0  0  0  0  0
  184.2440  178.7590  143.3640 C   0  0  0  0  0  2  0  0  0  0  0  0
  186.3030  178.3330  144.7400 C   0  0  0  0  0  0  0  0  0  0  0  0
  188.1230  177.5180  146.1400 C   0  0  0  0  0  0  0  0  0  0  0  0
  191.8430  177.9260  142.9830 C   0  0  0  0  0  2  0  0  0  0  0  0
  188.4240  177.6580  143.6180 C   0  0  2  0  0  3  0  0  0  0  0  0
  190.7880  178.6050  145.1760 C   0  0  0  0  0  2  0  0  0  0  0  0
  190.3690  177.1940  145.1250 N   0  0  1  0  0  0  0  0  0  0  0  0
  185.5240  178.5620  145.8870 C   0  0  0  0  0  0  0  0  0  0  0  0
  189.4960  176.9000  146.2660 C   0  0  0  0  0  2  0  0  0  0  0  0
  186.0320  178.2460  147.1480 C   0  0  0  0  0  3  0  0  0  0  0  0
  184.2320  179.0880  145.7670 O   0  0  0  0  0  0  0  0  0  0  0  0
  187.5560  177.0080  142.5400 C   0  0  0  0  0  2  0  0  0  0  0  0
  186.2820  177.8180  142.2360 C   0  0  2  0  0  3  0  0  0  0  0  0
  189.7010  176.8380  143.8560 C   0  0  2  0  0  3  0  0  0  0  0  0
  187.3200  177.7170  147.2820 C   0  0  0  0  0  0  0  0  0  0  0  0
  183.7460  179.6100  144.5300 C   0  0  0  0  0  2  0  0  0  0  0  0
  191.3880  179.0940  143.8500 C   0  0  0  0  0  2  0  0  0  0  0  0
  190.6670  176.9970  142.6700 C   0  0  0  0  0  2  0  0  0  0  0  0
  187.8260  177.4170  148.6550 C   0  0  0  0  0  2  0  0  0  0  0  0
  188.7080  178.4170  149.0630 O   0  0  0  0  0  1  0  0  0  0  0  0
  186.4660  178.6370  140.9670 C   0  0  0  0  0  2  0  0  0  0  0  0
  187.8100  178.3270  140.3280 C   0  0  0  0  0  2  0  0  0  0  0  0
  187.6200  178.0370  138.8490 C   0  0  0  0  0  2  0  0  0  0  0  0
  188.8950  179.6970  137.7260 O   0  0  0  0  0  0  0  0  0  0  0  0
  189.8500  177.5770  137.6850 N   0  0  0  0  0  2  0  0  0  0  0  0
  188.8080  178.4880  138.0660 C   0  0  0  0  0  0  0  0  0  0  0  0
  189.9450  176.1680  138.0690 C   0  0  1  0  0  3  0  0  0  0  0  0
  189.3320  175.2780  137.0040 C   0  0  0  0  0  1  0  0  0  0  0  0
  191.3800  175.7520  138.3540 C   0  0  0  0  0  2  0  0  0  0  0  0
  191.5990  174.4510  137.9010 O   0  0  0  0  0  1  0  0  0  0  0  0
  1  3  1  1  0  0  0
  1  4  1  0  0  0  0
  2  5  1  0  0  0  0
  3 18  1  0  0  0  0
  4  2  2  0  0  0  0
  4 10  1  0  0  0  0
  5 11  1  0  0  0  0
  5 17  2  0  0  0  0
  6 19  1  0  0  0  0
  7 14  1  6  0  0  0
  7 16  1  0  0  0  0
  7  2  1  0  0  0  0
  9  8  1  6  0  0  0
  9 11  1  0  0  0  0
 10 12  2  0  0  0  0
 12 17  1  0  0  0  0
 13 10  1  0  0  0  0
 15 23  1  6  0  0  0
 15 14  1  0  0  0  0
 15  1  1  0  0  0  0
 16 20  1  6  0  0  0
 16  9  1  0  0  0  0
 17 21  1  0  0  0  0
 18 13  1  0  0  0  0
 19  8  1  0  0  0  0
 20  6  1  0  0  0  0
 21 22  1  0  0  0  0
 24 23  1  0  0  0  0
 25 24  1  0  0  0  0
 26 28  2  0  0  0  0
 27 28  1  0  0  0  0
 27 29  1  0  0  0  0
 28 25  1  0  0  0  0
 29 30  1  6  0  0  0
 29 31  1  0  0  0  0
 32 31  1  0  0  0  0
M  END
>  <MODEL>
2

>  <REMARK>
 VINA RESULT:      -9.0      1.991      3.219
  Name = 
  7 active torsions:
  status: ('A' for Active; 'I' for Inactive)
    1  A    between atoms: CA_3  and  N_19
    2  A    between atoms: CA_3  and  C_22
    3  A    between atoms: C_13  and  C_29
    4  A    between atoms: C_15  and  C_20
    5  A    between atoms: C_15  and  C_26
    6  A    between atoms: C_16  and  C_20
    7  A    between atoms: C_16  and  C_27
                            x       y       z     vdW  Elec       q    Type
                         _______ _______ _______ _____ _____    ______ ____

>  <TORSDO>
F 7

$$$$
=
 OpenBabel10262421003D

 32 36  0  0  1  0  0  0  0  0999 V2000
  187.0460  178.1740  145.2320 C   0  0  1  0  0  3  0  0  0  0  0  0
  189.3070  177.0630  145.0600 C   0  0  0  0  0  0  0  0  0  0  0  0
  185.9010  178.2510  146.2420 C   0  0  0  0  0  2  0  0  0  0  0  0
  188.3040  177.6200  145.8660 C   0  0  0  0  0  0  0  0  0  0  0  0
  190.5070  176.6070  145.6380 C   0  0  0  0  0  0  0  0  0  0  0  0
  191.2420  177.2860  140.8470 C   0  0  0  0  0  2  0  0  0  0  0  0
  189.0840  177.0290  143.5730 C   0  0  2  0  0  3  0  0  0  0  0  0
  191.9640  177.7330  143.2250 C   0  0  0  0  0  2  0  0  0  0  0  0
  191.4840  176.3480  143.3670 N   0  0  1  0  0  0  0  0  0  0  0  0
  188.5000  177.7350  147.2530 C   0  0  0  0  0  0  0  0  0  0  0  0
  191.5570  175.9460  144.7760 C   0  0  0  0  0  2  0  0  0  0  0  0
  189.6800  177.2640  147.8300 C   0  0  0  0  0  3  0  0  0  0  0  0
  187.5060  178.3010  148.0600 O   0  0  0  0  0  0  0  0  0  0  0  0
  187.6650  176.5280  143.3040 C   0  0  0  0  0  2  0  0  0  0  0  0
  186.5900  177.3980  143.9820 C   0  0  2  0  0  3  0  0  0  0  0  0
  190.1160  176.1560  142.8430 C   0  0  2  0  0  3  0  0  0  0  0  0
  190.6800  176.6920  147.0360 C   0  0  0  0  0  0  0  0  0  0  0  0
  186.3780  178.9740  147.5000 C   0  0  0  0  0  2  0  0  0  0  0  0
  191.5840  178.3580  141.8750 C   0  0  0  0  0  2  0  0  0  0  0  0
  190.0710  176.4280  141.3300 C   0  0  0  0  0  2  0  0  0  0  0  0
  191.9330  176.2240  147.6990 C   0  0  0  0  0  2  0  0  0  0  0  0
  192.3990  177.2040  148.5750 O   0  0  0  0  0  1  0  0  0  0  0  0
  185.9690  178.3530  142.9740 C   0  0  0  0  0  2  0  0  0  0  0  0
  184.5980  177.8540  142.5480 C   0  0  0  0  0  2  0  0  0  0  0  0
  183.6420  179.0280  142.4180 C   0  0  0  0  0  2  0  0  0  0  0  0
  182.8490  178.9180  144.6550 O   0  0  0  0  0  0  0  0  0  0  0  0
  181.1690  178.8550  143.0470 N   0  0  0  0  0  2  0  0  0  0  0  0
  182.5500  178.9340  143.4320 C   0  0  0  0  0  0  0  0  0  0  0  0
  180.6490  178.9450  141.6820 C   0  0  1  0  0  3  0  0  0  0  0  0
  179.8290  177.7170  141.3360 C   0  0  0  0  0  1  0  0  0  0  0  0
  179.8340  180.2120  141.4680 C   0  0  0  0  0  2  0  0  0  0  0  0
  179.7870  180.9540  142.6490 O   0  0  0  0  0  1  0  0  0  0  0  0
  1  4  1  0  0  0  0
  1  3  1  1  0  0  0
  2  5  2  0  0  0  0
  2  4  1  0  0  0  0
  3 18  1  0  0  0  0
  4 10  2  0  0  0  0
  5 17  1  0  0  0  0
  6 20  1  0  0  0  0
  6 19  1  0  0  0  0
  7 14  1  1  0  0  0
  7  2  1  0  0  0  0
  9  8  1  1  0  0  0
  9 11  1  0  0  0  0
 10 12  1  0  0  0  0
 10 13  1  0  0  0  0
 11  5  1  0  0  0  0
 14 15  1  0  0  0  0
 15 23  1  6  0  0  0
 15  1  1  0  0  0  0
 16 20  1  6  0  0  0
 16  9  1  0  0  0  0
 16  7  1  0  0  0  0
 17 21  1  0  0  0  0
 17 12  2  0  0  0  0
 18 13  1  0  0  0  0
 19  8  1  0  0  0  0
 21 22  1  0  0  0  0
 24 23  1  0  0  0  0
 25 24  1  0  0  0  0
 25 28  1  0  0  0  0
 27 28  1  0  0  0  0
 28 26  2  0  0  0  0
 29 30  1  1  0  0  0
 29 27  1  0  0  0  0
 31 29  1  0  0  0  0
 31 32  1  0  0  0  0
M  END
>  <MODEL>
3

>  <REMARK>
 VINA RESULT:      -8.9      2.739      3.794
  Name = 
  7 active torsions:
  status: ('A' for Active; 'I' for Inactive)
    1  A    between atoms: CA_3  and  N_19
    2  A    between atoms: CA_3  and  C_22
    3  A    between atoms: C_13  and  C_29
    4  A    between atoms: C_15  and  C_20
    5  A    between atoms: C_15  and  C_26
    6  A    between atoms: C_16  and  C_20
    7  A    between atoms: C_16  and  C_27
                            x       y       z     vdW  Elec       q    Type
                         _______ _______ _______ _____ _____    ______ ____

>  <TORSDO>
F 7

$$$$
=
 OpenBabel10262421003D

 32 36  0  0  1  0  0  0  0  0999 V2000
  187.0210  178.2730  145.3340 C   0  0  1  0  0  3  0  0  0  0  0  0
  189.2520  177.1070  145.1350 C   0  0  0  0  0  0  0  0  0  0  0  0
  185.9000  178.3960  146.3660 C   0  0  0  0  0  2  0  0  0  0  0  0
  188.2790  177.7020  145.9510 C   0  0  0  0  0  0  0  0  0  0  0  0
  190.4530  176.6340  145.6960 C   0  0  0  0  0  0  0  0  0  0  0  0
  191.0990  177.2080  140.8770 C   0  0  0  0  0  2  0  0  0  0  0  0
  188.9950  177.0510  143.6530 C   0  0  2  0  0  3  0  0  0  0  0  0
  191.8820  177.6820  143.2310 C   0  0  0  0  0  2  0  0  0  0  0  0
  191.3740  176.3110  143.4100 N   0  0  1  0  0  0  0  0  0  0  0  0
  188.5080  177.8380  147.3300 C   0  0  0  0  0  0  0  0  0  0  0  0
  191.4690  175.9330  144.8230 C   0  0  0  0  0  2  0  0  0  0  0  0
  189.6890  177.3510  147.8910 C   0  0  0  0  0  3  0  0  0  0  0  0
  187.5450  178.4420  148.1470 O   0  0  0  0  0  0  0  0  0  0  0  0
  187.5600  176.5790  143.4240 C   0  0  0  0  0  2  0  0  0  0  0  0
  186.5200  177.4850  144.1080 C   0  0  2  0  0  3  0  0  0  0  0  0
  189.9910  176.1410  142.9190 C   0  0  2  0  0  3  0  0  0  0  0  0
  190.6580  176.7420  147.0870 C   0  0  0  0  0  0  0  0  0  0  0  0
  186.4200  179.1310  147.5990 C   0  0  0  0  0  2  0  0  0  0  0  0
  191.4880  178.2900  141.8770 C   0  0  0  0  0  2  0  0  0  0  0  0
  189.9190  176.3860  141.4020 C   0  0  0  0  0  2  0  0  0  0  0  0
  191.9150  176.2560  147.7320 C   0  0  0  0  0  2  0  0  0  0  0  0
  192.4040  177.2300  148.6030 O   0  0  0  0  0  1  0  0  0  0  0  0
  185.8990  178.4360  143.0950 C   0  0  0  0  0  2  0  0  0  0  0  0
  184.7120  179.1600  143.7090 C   0  0  0  0  0  2  0  0  0  0  0  0
  183.4570  178.3190  143.5450 C   0  0  0  0  0  2  0  0  0  0  0  0
  181.6740  179.8050  143.0390 O   0  0  0  0  0  0  0  0  0  0  0  0
  182.5110  178.6630  141.1950 N   0  0  0  0  0  2  0  0  0  0  0  0
  182.5060  178.9700  142.5970 C   0  0  0  0  0  0  0  0  0  0  0  0
  183.4610  177.7850  140.5090 C   0  0  1  0  0  3  0  0  0  0  0  0
  182.7370  176.6440  139.8200 C   0  0  0  0  0  1  0  0  0  0  0  0
  184.3250  178.5490  139.5170 C   0  0  0  0  0  2  0  0  0  0  0  0
  184.6750  179.7910  140.0470 O   0  0  0  0  0  1  0  0  0  0  0  0
  1  4  1  0  0  0  0
  1  3  1  1  0  0  0
  2  5  2  0  0  0  0
  2  4  1  0  0  0  0
  3 18  1  0  0  0  0
  4 10  2  0  0  0  0
  5 17  1  0  0  0  0
  6 20  1  0  0  0  0
  6 19  1  0  0  0  0
  7 14  1  1  0  0  0
  7  2  1  0  0  0  0
  9  8  1  1  0  0  0
  9 11  1  0  0  0  0
 10 12  1  0  0  0  0
 10 13  1  0  0  0  0
 11  5  1  0  0  0  0
 14 15  1  0  0  0  0
 15 23  1  6  0  0  0
 15  1  1  0  0  0  0
 16 20  1  6  0  0  0
 16  9  1  0  0  0  0
 16  7  1  0  0  0  0
 17 21  1  0  0  0  0
 17 12  2  0  0  0  0
 18 13  1  0  0  0  0
 19  8  1  0  0  0  0
 21 22  1  0  0  0  0
 23 24  1  0  0  0  0
 25 24  1  0  0  0  0
 27 28  1  0  0  0  0
 28 26  2  0  0  0  0
 28 25  1  0  0  0  0
 29 30  1  6  0  0  0
 29 27  1  0  0  0  0
 31 32  1  0  0  0  0
 31 29  1  0  0  0  0
M  END
>  <MODEL>
4

>  <REMARK>
 VINA RESULT:      -8.8      1.780      2.404
  Name = 
  7 active torsions:
  status: ('A' for Active; 'I' for Inactive)
    1  A    between atoms: CA_3  and  N_19
    2  A    between atoms: CA_3  and  C_22
    3  A    between atoms: C_13  and  C_29
    4  A    between atoms: C_15  and  C_20
    5  A    between atoms: C_15  and  C_26
    6  A    between atoms: C_16  and  C_20
    7  A    between atoms: C_16  and  C_27
                            x       y       z     vdW  Elec       q    Type
                         _______ _______ _______ _____ _____    ______ ____

>  <TORSDO>
F 7

$$$$
=
 OpenBabel10262421003D

 32 36  0  0  1  0  0  0  0  0999 V2000
  185.8650  178.6540  143.4520 C   0  0  1  0  0  3  0  0  0  0  0  0
  187.6850  177.7850  144.9730 C   0  0  0  0  0  0  0  0  0  0  0  0
  184.3380  178.7100  143.4390 C   0  0  0  0  0  2  0  0  0  0  0  0
  186.3920  178.3100  144.8290 C   0  0  0  0  0  0  0  0  0  0  0  0
  188.2040  177.5260  146.2550 C   0  0  0  0  0  0  0  0  0  0  0  0
  191.9260  177.7800  143.0850 C   0  0  0  0  0  2  0  0  0  0  0  0
  188.5050  177.5730  143.7300 C   0  0  2  0  0  3  0  0  0  0  0  0
  190.8810  178.5480  145.2520 C   0  0  0  0  0  2  0  0  0  0  0  0
  190.4460  177.1400  145.2520 N   0  0  1  0  0  0  0  0  0  0  0  0
  185.6180  178.5890  145.9670 C   0  0  0  0  0  0  0  0  0  0  0  0
  189.5710  176.8970  146.4030 C   0  0  0  0  0  2  0  0  0  0  0  0
  186.1230  178.3130  147.2380 C   0  0  0  0  0  3  0  0  0  0  0  0
  184.3310  179.1240  145.8290 O   0  0  0  0  0  0  0  0  0  0  0  0
  187.6290  176.8940  142.6770 C   0  0  0  0  0  2  0  0  0  0  0  0
  186.3640  177.7070  142.3440 C   0  0  2  0  0  3  0  0  0  0  0  0
  189.7730  176.7470  143.9970 C   0  0  2  0  0  3  0  0  0  0  0  0
  187.4050  177.7750  147.3900 C   0  0  0  0  0  0  0  0  0  0  0  0
  183.8500  179.6080  144.5740 C   0  0  0  0  0  2  0  0  0  0  0  0
  191.4850  178.9830  143.9090 C   0  0  0  0  0  2  0  0  0  0  0  0
  190.7400  176.8530  142.8050 C   0  0  0  0  0  2  0  0  0  0  0  0
  187.9080  177.5170  148.7720 C   0  0  0  0  0  2  0  0  0  0  0  0
  188.8910  178.4520  149.0990 O   0  0  0  0  0  1  0  0  0  0  0  0
  186.5560  178.4780  141.0470 C   0  0  0  0  0  2  0  0  0  0  0  0
  188.0240  178.4890  140.6520 C   0  0  0  0  0  2  0  0  0  0  0  0
  188.2130  177.7150  139.3580 C   0  0  0  0  0  2  0  0  0  0  0  0
  188.9370  179.4710  137.9300 O   0  0  0  0  0  0  0  0  0  0  0  0
  186.9000  178.5280  137.3190 N   0  0  0  0  0  2  0  0  0  0  0  0
  188.0490  178.6130  138.1770 C   0  0  0  0  0  0  0  0  0  0  0  0
  185.8260  177.5390  137.4140 C   0  0  1  0  0  3  0  0  0  0  0  0
  184.6030  178.1360  138.0830 C   0  0  0  0  0  1  0  0  0  0  0  0
  185.4650  176.9600  136.0540 C   0  0  0  0  0  2  0  0  0  0  0  0
  186.6130  176.4830  135.4190 O   0  0  0  0  0  1  0  0  0  0  0  0
  1  3  1  1  0  0  0
  1  4  1  0  0  0  0
  2  5  1  0  0  0  0
  3 18  1  0  0  0  0
  4  2  2  0  0  0  0
  4 10  1  0  0  0  0
  5 11  1  0  0  0  0
  5 17  2  0  0  0  0
  6 19  1  0  0  0  0
  7 14  1  6  0  0  0
  7 16  1  0  0  0  0
  7  2  1  0  0  0  0
  9  8  1  6  0  0  0
  9 11  1  0  0  0  0
 10 12  2  0  0  0  0
 12 17  1  0  0  0  0
 13 10  1  0  0  0  0
 15 23  1  6  0  0  0
 15 14  1  0  0  0  0
 15  1  1  0  0  0  0
 16 20  1  6  0  0  0
 16  9  1  0  0  0  0
 17 21  1  0  0  0  0
 18 13  1  0  0  0  0
 19  8  1  0  0  0  0
 20  6  1  0  0  0  0
 21 22  1  0  0  0  0
 24 23  1  0  0  0  0
 25 24  1  0  0  0  0
 26 28  2  0  0  0  0
 27 29  1  0  0  0  0
 27 28  1  0  0  0  0
 28 25  1  0  0  0  0
 29 30  1  6  0  0  0
 31 29  1  0  0  0  0
 32 31  1  0  0  0  0
M  END
>  <MODEL>
5

>  <REMARK>
 VINA RESULT:      -8.6      1.735      3.066
  Name = 
  7 active torsions:
  status: ('A' for Active; 'I' for Inactive)
    1  A    between atoms: CA_3  and  N_19
    2  A    between atoms: CA_3  and  C_22
    3  A    between atoms: C_13  and  C_29
    4  A    between atoms: C_15  and  C_20
    5  A    between atoms: C_15  and  C_26
    6  A    between atoms: C_16  and  C_20
    7  A    between atoms: C_16  and  C_27
                            x       y       z     vdW  Elec       q    Type
                         _______ _______ _______ _____ _____    ______ ____

>  <TORSDO>
F 7

$$$$
=
 OpenBabel10262421003D

 32 36  0  0  1  0  0  0  0  0999 V2000
  185.4530  178.2080  143.6210 C   0  0  1  0  0  3  0  0  0  0  0  0
  183.4550  178.6190  142.1320 C   0  0  0  0  0  0  0  0  0  0  0  0
  185.9920  178.7260  144.9540 C   0  0  0  0  0  2  0  0  0  0  0  0
  184.0050  178.5980  143.4220 C   0  0  0  0  0  0  0  0  0  0  0  0
  182.0920  178.9170  141.9480 C   0  0  0  0  0  0  0  0  0  0  0  0
  183.7510  176.6580  137.9350 C   0  0  0  0  0  2  0  0  0  0  0  0
  184.3480  178.2550  140.9770 C   0  0  2  0  0  3  0  0  0  0  0  0
  182.0370  176.7890  139.7840 C   0  0  0  0  0  2  0  0  0  0  0  0
  182.2780  178.2260  139.5680 N   0  0  1  0  0  0  0  0  0  0  0  0
  183.1900  178.8640  144.5360 C   0  0  0  0  0  0  0  0  0  0  0  0
  181.5190  179.0040  140.5520 C   0  0  0  0  0  2  0  0  0  0  0  0
  181.8440  179.1810  144.3540 C   0  0  0  0  0  3  0  0  0  0  0  0
  183.7320  178.8330  145.8270 O   0  0  0  0  0  0  0  0  0  0  0  0
  185.6800  178.9860  141.1400 C   0  0  0  0  0  2  0  0  0  0  0  0
  186.3780  178.6570  142.4730 C   0  0  2  0  0  3  0  0  0  0  0  0
  183.7110  178.5820  139.6170 C   0  0  2  0  0  3  0  0  0  0  0  0
  181.2910  179.2190  143.0690 C   0  0  0  0  0  0  0  0  0  0  0  0
  185.0420  178.3240  146.0790 C   0  0  0  0  0  2  0  0  0  0  0  0
  183.0560  175.8990  139.0580 C   0  0  0  0  0  2  0  0  0  0  0  0
  184.4840  177.8850  138.4850 C   0  0  0  0  0  2  0  0  0  0  0  0
  179.8390  179.5410  142.9290 C   0  0  0  0  0  2  0  0  0  0  0  0
  179.6810  180.8980  142.6500 O   0  0  0  0  0  1  0  0  0  0  0  0
  187.4760  177.6260  142.2550 C   0  0  0  0  0  2  0  0  0  0  0  0
  188.7100  178.2850  141.6630 C   0  0  0  0  0  2  0  0  0  0  0  0
  189.8480  178.2430  142.6690 C   0  0  0  0  0  2  0  0  0  0  0  0
  190.4800  176.1260  141.7940 O   0  0  0  0  0  0  0  0  0  0  0  0
  190.7430  176.3200  144.0970 N   0  0  0  0  0  2  0  0  0  0  0  0
  190.3700  176.8520  142.8170 C   0  0  0  0  0  0  0  0  0  0  0  0
  190.7560  177.0520  145.3640 C   0  0  1  0  0  3  0  0  0  0  0  0
  189.3530  177.1860  145.9230 C   0  0  0  0  0  1  0  0  0  0  0  0
  191.6810  176.4050  146.3840 C   0  0  0  0  0  2  0  0  0  0  0  0
  191.6540  177.1280  147.5780 O   0  0  0  0  0  1  0  0  0  0  0  0
  1  3  1  1  0  0  0
  2  4  1  0  0  0  0
  3 18  1  0  0  0  0
  4  1  1  0  0  0  0
  4 10  2  0  0  0  0
  5  2  2  0  0  0  0
  5 17  1  0  0  0  0
  6 20  1  0  0  0  0
  6 19  1  0  0  0  0
  7 14  1  1  0  0  0
  7  2  1  0  0  0  0
  9 16  1  0  0  0  0
  9  8  1  1  0  0  0
  9 11  1  0  0  0  0
 10 13  1  0  0  0  0
 11  5  1  0  0  0  0
 12 10  1  0  0  0  0
 13 18  1  0  0  0  0
 14 15  1  0  0  0  0
 15 23  1  6  0  0  0
 15  1  1  0  0  0  0
 16 20  1  6  0  0  0
 16  7  1  0  0  0  0
 17 12  2  0  0  0  0
 19  8  1  0  0  0  0
 21 17  1  0  0  0  0
 22 21  1  0  0  0  0
 24 23  1  0  0  0  0
 24 25  1  0  0  0  0
 25 28  1  0  0  0  0
 26 28  2  0  0  0  0
 27 29  1  0  0  0  0
 28 27  1  0  0  0  0
 29 30  1  1  0  0  0
 29 31  1  0  0  0  0
 31 32  1  0  0  0  0
M  END
>  <MODEL>
6

>  <REMARK>
 VINA RESULT:      -8.4      3.227      7.814
  Name = 
  7 active torsions:
  status: ('A' for Active; 'I' for Inactive)
    1  A    between atoms: CA_3  and  N_19
    2  A    between atoms: CA_3  and  C_22
    3  A    between atoms: C_13  and  C_29
    4  A    between atoms: C_15  and  C_20
    5  A    between atoms: C_15  and  C_26
    6  A    between atoms: C_16  and  C_20
    7  A    between atoms: C_16  and  C_27
                            x       y       z     vdW  Elec       q    Type
                         _______ _______ _______ _____ _____    ______ ____

>  <TORSDO>
F 7

$$$$
=
 OpenBabel10262421003D

 32 36  0  0  1  0  0  0  0  0999 V2000
  187.0450  178.1890  145.5160 C   0  0  1  0  0  3  0  0  0  0  0  0
  189.2810  177.0610  145.1900 C   0  0  0  0  0  0  0  0  0  0  0  0
  185.9760  178.2800  146.6050 C   0  0  0  0  0  2  0  0  0  0  0  0
  188.3410  177.6300  146.0620 C   0  0  0  0  0  0  0  0  0  0  0  0
  190.5160  176.6000  145.6840 C   0  0  0  0  0  0  0  0  0  0  0  0
  190.9100  177.2460  140.8470 C   0  0  0  0  0  2  0  0  0  0  0  0
  188.9510  177.0200  143.7230 C   0  0  2  0  0  3  0  0  0  0  0  0
  191.8030  177.7020  143.1650 C   0  0  0  0  0  2  0  0  0  0  0  0
  191.3260  176.3210  143.3500 N   0  0  1  0  0  0  0  0  0  0  0  0
  188.6370  177.7520  147.4300 C   0  0  0  0  0  0  0  0  0  0  0  0
  191.4980  175.9270  144.7520 C   0  0  0  0  0  2  0  0  0  0  0  0
  189.8520  177.2770  147.9240 C   0  0  0  0  0  3  0  0  0  0  0  0
  187.7070  178.3300  148.3020 O   0  0  0  0  0  0  0  0  0  0  0  0
  187.5130  176.5270  143.5590 C   0  0  0  0  0  2  0  0  0  0  0  0
  186.4950  177.4080  144.3060 C   0  0  2  0  0  3  0  0  0  0  0  0
  189.9230  176.1360  142.9270 C   0  0  2  0  0  3  0  0  0  0  0  0
  190.7890  176.6940  147.0640 C   0  0  0  0  0  0  0  0  0  0  0  0
  186.5460  179.0080  147.8200 C   0  0  0  0  0  2  0  0  0  0  0  0
  191.3320  178.3210  141.8410 C   0  0  0  0  0  2  0  0  0  0  0  0
  189.7710  176.3980  141.4190 C   0  0  0  0  0  2  0  0  0  0  0  0
  192.0840  176.2210  147.6390 C   0  0  0  0  0  2  0  0  0  0  0  0
  192.5210  177.1150  148.6160 O   0  0  0  0  0  1  0  0  0  0  0  0
  185.8100  178.3610  143.3390 C   0  0  0  0  0  2  0  0  0  0  0  0
  186.4900  178.3160  141.9810 C   0  0  0  0  0  2  0  0  0  0  0  0
  185.6000  178.9700  140.9380 C   0  0  0  0  0  2  0  0  0  0  0  0
  187.1620  178.5450  139.1990 O   0  0  0  0  0  0  0  0  0  0  0  0
  184.9670  178.0040  138.6570 N   0  0  0  0  0  2  0  0  0  0  0  0
  185.9590  178.5000  139.5680 C   0  0  0  0  0  0  0  0  0  0  0  0
  183.5470  177.8060  138.9530 C   0  0  1  0  0  3  0  0  0  0  0  0
  182.7090  178.9050  138.3280 C   0  0  0  0  0  1  0  0  0  0  0  0
  183.0580  176.4370  138.5040 C   0  0  0  0  0  2  0  0  0  0  0  0
  184.0100  175.8390  137.6770 O   0  0  0  0  0  1  0  0  0  0  0  0
  1  4  1  0  0  0  0
  1  3  1  1  0  0  0
  2  5  2  0  0  0  0
  2  4  1  0  0  0  0
  3 18  1  0  0  0  0
  4 10  2  0  0  0  0
  5 17  1  0  0  0  0
  6 20  1  0  0  0  0
  6 19  1  0  0  0  0
  7 14  1  1  0  0  0
  7  2  1  0  0  0  0
  9  8  1  1  0  0  0
  9 11  1  0  0  0  0
 10 12  1  0  0  0  0
 10 13  1  0  0  0  0
 11  5  1  0  0  0  0
 14 15  1  0  0  0  0
 15 23  1  6  0  0  0
 15  1  1  0  0  0  0
 16 20  1  6  0  0  0
 16  9  1  0  0  0  0
 16  7  1  0  0  0  0
 17 21  1  0  0  0  0
 17 12  2  0  0  0  0
 18 13  1  0  0  0  0
 19  8  1  0  0  0  0
 21 22  1  0  0  0  0
 24 23  1  0  0  0  0
 25 24  1  0  0  0  0
 26 28  2  0  0  0  0
 27 29  1  0  0  0  0
 27 28  1  0  0  0  0
 28 25  1  0  0  0  0
 29 30  1  6  0  0  0
 31 29  1  0  0  0  0
 32 31  1  0  0  0  0
M  END
>  <MODEL>
7

>  <REMARK>
 VINA RESULT:      -8.4      1.471      2.075
  Name = 
  7 active torsions:
  status: ('A' for Active; 'I' for Inactive)
    1  A    between atoms: CA_3  and  N_19
    2  A    between atoms: CA_3  and  C_22
    3  A    between atoms: C_13  and  C_29
    4  A    between atoms: C_15  and  C_20
    5  A    between atoms: C_15  and  C_26
    6  A    between atoms: C_16  and  C_20
    7  A    between atoms: C_16  and  C_27
                            x       y       z     vdW  Elec       q    Type
                         _______ _______ _______ _____ _____    ______ ____

>  <TORSDO>
F 7

$$$$
=
 OpenBabel10262421003D

 32 36  0  0  1  0  0  0  0  0999 V2000
  185.5270  178.1810  143.6070 C   0  0  1  0  0  3  0  0  0  0  0  0
  183.4990  178.6090  142.1640 C   0  0  0  0  0  0  0  0  0  0  0  0
  186.0910  178.6790  144.9380 C   0  0  0  0  0  2  0  0  0  0  0  0
  184.0740  178.5700  143.4430 C   0  0  0  0  0  0  0  0  0  0  0  0
  182.1320  178.9060  142.0120 C   0  0  0  0  0  0  0  0  0  0  0  0
  183.7180  176.7160  137.9310 C   0  0  0  0  0  2  0  0  0  0  0  0
  184.3700  178.2660  140.9860 C   0  0  2  0  0  3  0  0  0  0  0  0
  182.0400  176.8120  139.8160 C   0  0  0  0  0  2  0  0  0  0  0  0
  182.2730  178.2530  139.6180 N   0  0  1  0  0  0  0  0  0  0  0  0
  183.2810  178.8160  144.5760 C   0  0  0  0  0  0  0  0  0  0  0  0
  181.5320  179.0140  140.6290 C   0  0  0  0  0  2  0  0  0  0  0  0
  181.9300  179.1310  144.4260 C   0  0  0  0  0  3  0  0  0  0  0  0
  183.8480  178.7660  145.8560 O   0  0  0  0  0  0  0  0  0  0  0  0
  185.7040  178.9980  141.1350 C   0  0  0  0  0  2  0  0  0  0  0  0
  186.4280  178.6500  142.4480 C   0  0  2  0  0  3  0  0  0  0  0  0
  183.7060  178.6120  139.6450 C   0  0  2  0  0  3  0  0  0  0  0  0
  181.3520  179.1880  143.1530 C   0  0  0  0  0  0  0  0  0  0  0  0
  185.1640  178.2560  146.0750 C   0  0  0  0  0  2  0  0  0  0  0  0
  183.0470  175.9370  139.0560 C   0  0  0  0  0  2  0  0  0  0  0  0
  184.4580  177.9360  138.4870 C   0  0  0  0  0  2  0  0  0  0  0  0
  179.8980  179.5080  143.0470 C   0  0  0  0  0  2  0  0  0  0  0  0
  179.7290  180.8780  142.8510 O   0  0  0  0  0  1  0  0  0  0  0  0
  187.5240  177.6260  142.1930 C   0  0  0  0  0  2  0  0  0  0  0  0
  188.6660  177.8170  143.1770 C   0  0  0  0  0  2  0  0  0  0  0  0
  189.7440  176.7780  142.9210 C   0  0  0  0  0  2  0  0  0  0  0  0
  191.7960  177.9090  143.3160 O   0  0  0  0  0  0  0  0  0  0  0  0
  191.3370  177.5300  141.0680 N   0  0  0  0  0  2  0  0  0  0  0  0
  191.0060  177.4300  142.4610 C   0  0  0  0  0  0  0  0  0  0  0  0
  190.5760  176.9550  139.9570 C   0  0  1  0  0  3  0  0  0  0  0  0
  189.6350  177.9850  139.3610 C   0  0  0  0  0  1  0  0  0  0  0  0
  191.4860  176.3750  138.8850 C   0  0  0  0  0  2  0  0  0  0  0  0
  190.9110  175.2230  138.3450 O   0  0  0  0  0  1  0  0  0  0  0  0
  1  3  1  1  0  0  0
  2  4  1  0  0  0  0
  3 18  1  0  0  0  0
  4  1  1  0  0  0  0
  4 10  2  0  0  0  0
  5  2  2  0  0  0  0
  5 17  1  0  0  0  0
  6 20  1  0  0  0  0
  6 19  1  0  0  0  0
  7 14  1  1  0  0  0
  7  2  1  0  0  0  0
  9 16  1  0  0  0  0
  9  8  1  1  0  0  0
  9 11  1  0  0  0  0
 10 13  1  0  0  0  0
 11  5  1  0  0  0  0
 12 10  1  0  0  0  0
 13 18  1  0  0  0  0
 14 15  1  0  0  0  0
 15 23  1  6  0  0  0
 15  1  1  0  0  0  0
 16 20  1  6  0  0  0
 16  7  1  0  0  0  0
 17 12  2  0  0  0  0
 19  8  1  0  0  0  0
 21 17  1  0  0  0  0
 22 21  1  0  0  0  0
 23 24  1  0  0  0  0
 25 24  1  0  0  0  0
 27 28  1  0  0  0  0
 28 25  1  0  0  0  0
 28 26  2  0  0  0  0
 29 30  1  6  0  0  0
 29 27  1  0  0  0  0
 31 29  1  0  0  0  0
 32 31  1  0  0  0  0
M  END
>  <MODEL>
8

>  <REMARK>
 VINA RESULT:      -7.9      3.327      7.218
  Name = 
  7 active torsions:
  status: ('A' for Active; 'I' for Inactive)
    1  A    between atoms: CA_3  and  N_19
    2  A    between atoms: CA_3  and  C_22
    3  A    between atoms: C_13  and  C_29
    4  A    between atoms: C_15  and  C_20
    5  A    between atoms: C_15  and  C_26
    6  A    between atoms: C_16  and  C_20
    7  A    between atoms: C_16  and  C_27
                            x       y       z     vdW  Elec       q    Type
                         _______ _______ _______ _____ _____    ______ ____

>  <TORSDO>
F 7

$$$$
=
 OpenBabel10262421003D

 32 36  0  0  1  0  0  0  0  0999 V2000
  185.4330  178.2440  143.6560 C   0  0  1  0  0  3  0  0  0  0  0  0
  183.4460  178.6360  142.1470 C   0  0  0  0  0  0  0  0  0  0  0  0
  185.9580  178.7740  144.9910 C   0  0  0  0  0  2  0  0  0  0  0  0
  183.9850  178.6270  143.4420 C   0  0  0  0  0  0  0  0  0  0  0  0
  182.0830  178.9270  141.9490 C   0  0  0  0  0  0  0  0  0  0  0  0
  183.7860  176.6430  137.9680 C   0  0  0  0  0  2  0  0  0  0  0  0
  184.3500  178.2660  141.0030 C   0  0  2  0  0  3  0  0  0  0  0  0
  182.0550  176.7820  139.8020 C   0  0  0  0  0  2  0  0  0  0  0  0
  182.2930  178.2180  139.5760 N   0  0  1  0  0  0  0  0  0  0  0  0
  183.1590  178.8990  144.5470 C   0  0  0  0  0  0  0  0  0  0  0  0
  181.5230  179.0010  140.5470 C   0  0  0  0  0  2  0  0  0  0  0  0
  181.8140  179.2090  144.3510 C   0  0  0  0  0  3  0  0  0  0  0  0
  183.6900  178.8800  145.8420 O   0  0  0  0  0  0  0  0  0  0  0  0
  185.6790  179.0030  141.1720 C   0  0  0  0  0  2  0  0  0  0  0  0
  186.3660  178.6870  142.5130 C   0  0  2  0  0  3  0  0  0  0  0  0
  183.7240  178.5800  139.6350 C   0  0  2  0  0  3  0  0  0  0  0  0
  181.2720  179.2340  143.0610 C   0  0  0  0  0  0  0  0  0  0  0  0
  184.9990  178.3770  146.1100 C   0  0  0  0  0  2  0  0  0  0  0  0
  183.0840  175.8900  139.0910 C   0  0  0  0  0  2  0  0  0  0  0  0
  184.5100  177.8770  138.5150 C   0  0  0  0  0  2  0  0  0  0  0  0
  179.8200  179.5500  142.9060 C   0  0  0  0  0  2  0  0  0  0  0  0
  179.6600  180.9050  142.6160 O   0  0  0  0  0  1  0  0  0  0  0  0
  187.4690  177.6580  142.3130 C   0  0  0  0  0  2  0  0  0  0  0  0
  188.5440  178.2090  141.3920 C   0  0  0  0  0  2  0  0  0  0  0  0
  189.3490  177.0650  140.7980 C   0  0  0  0  0  2  0  0  0  0  0  0
  191.4500  177.7220  139.9050 O   0  0  0  0  0  0  0  0  0  0  0  0
  191.5130  177.1440  142.1570 N   0  0  0  0  0  2  0  0  0  0  0  0
  190.8120  177.3310  140.9180 C   0  0  0  0  0  0  0  0  0  0  0  0
  190.9120  176.7780  143.4410 C   0  0  1  0  0  3  0  0  0  0  0  0
  191.6790  175.6410  144.0890 C   0  0  0  0  0  1  0  0  0  0  0  0
  190.8170  177.9680  144.3840 C   0  0  0  0  0  2  0  0  0  0  0  0
  191.6810  178.9790  143.9620 O   0  0  0  0  0  1  0  0  0  0  0  0
  1  3  1  1  0  0  0
  2  4  1  0  0  0  0
  3 18  1  0  0  0  0
  4  1  1  0  0  0  0
  4 10  2  0  0  0  0
  5  2  2  0  0  0  0
  5 17  1  0  0  0  0
  6 20  1  0  0  0  0
  6 19  1  0  0  0  0
  7 14  1  1  0  0  0
  7  2  1  0  0  0  0
  9 16  1  0  0  0  0
  9  8  1  1  0  0  0
  9 11  1  0  0  0  0
 10 13  1  0  0  0  0
 11  5  1  0  0  0  0
 12 10  1  0  0  0  0
 13 18  1  0  0  0  0
 14 15  1  0  0  0  0
 15 23  1  6  0  0  0
 15  1  1  0  0  0  0
 16 20  1  6  0  0  0
 16  7  1  0  0  0  0
 17 12  2  0  0  0  0
 19  8  1  0  0  0  0
 21 17  1  0  0  0  0
 22 21  1  0  0  0  0
 24 23  1  0  0  0  0
 25 28  1  0  0  0  0
 25 24  1  0  0  0  0
 26 28  2  0  0  0  0
 27 29  1  0  0  0  0
 28 27  1  0  0  0  0
 29 30  1  1  0  0  0
 29 31  1  0  0  0  0
 32 31  1  0  0  0  0
M  END
>  <MODEL>
9

>  <REMARK>
 VINA RESULT:      -7.9      3.272      7.487
  Name = 
  7 active torsions:
  status: ('A' for Active; 'I' for Inactive)
    1  A    between atoms: CA_3  and  N_19
    2  A    between atoms: CA_3  and  C_22
    3  A    between atoms: C_13  and  C_29
    4  A    between atoms: C_15  and  C_20
    5  A    between atoms: C_15  and  C_26
    6  A    between atoms: C_16  and  C_20
    7  A    between atoms: C_16  and  C_27
                            x       y       z     vdW  Elec       q    Type
                         _______ _______ _______ _____ _____    ______ ____

>  <TORSDO>
F 7

$$$$
