=
 OpenBabel10262419423D

 31 34  0  0  1  0  0  0  0  0999 V2000
  188.1890  177.6020  143.9470 C   0  0  0  0  0  0  0  0  0  0  0  0
  188.7480  177.4470  145.2250 C   0  0  0  0  0  0  0  0  0  0  0  0
  188.6520  177.4810  147.6330 C   0  0  0  0  0  3  0  0  0  0  0  0
  186.8470  177.9300  143.6100 N   0  0  0  0  0  0  0  0  0  0  0  0
  188.0200  177.6480  146.3990 C   0  0  0  0  0  3  0  0  0  0  0  0
  188.1440  177.6240  141.5850 C   0  0  1  0  0  3  0  0  0  0  0  0
  190.8430  176.8940  144.1610 N   0  0  0  0  0  0  0  0  0  0  0  0
  189.9640  177.1270  147.6890 N   0  0  0  0  0  0  0  0  0  0  0  0
  188.9530  177.4260  142.8240 C   0  0  0  0  0  0  0  0  0  0  0  0
  192.0770  176.5610  146.6850 N   0  0  0  0  0  1  0  0  0  0  0  0
  186.7210  177.9150  142.1520 C   0  0  2  0  0  3  0  0  0  0  0  0
  190.2930  177.0530  142.9240 C   0  0  0  0  0  3  0  0  0  0  0  0
  190.1160  177.0850  145.3040 C   0  0  0  0  0  0  0  0  0  0  0  0
  190.7050  176.9260  146.5660 C   0  0  0  0  0  0  0  0  0  0  0  0
  184.7160  178.9100  141.2450 O   0  0  0  0  0  1  0  0  0  0  0  0
  186.0290  179.1830  141.6400 C   0  0  0  0  0  2  0  0  0  0  0  0
  188.7250  178.7510  140.7250 C   0  0  0  0  0  2  0  0  0  0  0  0
  188.3450  176.6460  138.1030 O   0  0  0  0  0  0  0  0  0  0  0  0
  187.6580  178.0710  136.3760 N   0  0  0  0  0  2  0  0  0  0  0  0
  188.2670  177.8790  137.4980 C   0  0  0  0  0  0  0  0  0  0  0  0
  189.0930  176.7130  139.3030 C   0  0  2  0  0  3  0  0  0  0  0  0
  188.9470  178.9420  138.2560 C   0  0  0  0  0  2  0  0  0  0  0  0
  189.4410  178.2020  139.5000 C   0  0  1  0  0  3  0  0  0  0  0  0
  190.3160  175.9360  139.1510 N   0  0  0  0  0  2  0  0  0  0  0  0
  191.4450  176.8330  139.3480 C   0  0  0  0  0  2  0  0  0  0  0  0
  192.5170  176.5480  138.3480 C   0  0  0  0  0  0  0  0  0  0  0  0
  193.6900  176.7210  138.6370 O   0  0  0  0  0  0  0  0  0  0  0  0
  192.1530  176.0680  136.9870 C   0  0  0  0  0  1  0  0  0  0  0  0
  185.6990  177.7940  144.4980 C   0  0  0  0  0  2  0  0  0  0  0  0
  185.1360  179.1610  144.8410 C   0  0  0  0  0  2  0  0  0  0  0  0
  183.6240  179.1100  144.7840 C   0  0  0  0  0  1  0  0  0  0  0  0
  1  2  1  0  0  0  0
  2 13  2  0  0  0  0
  2  5  1  0  0  0  0
  3  8  1  0  0  0  0
  4  1  1  0  0  0  0
  4 29  1  0  0  0  0
  5  3  2  0  0  0  0
  6 17  1  1  0  0  0
  6 11  1  0  0  0  0
  6  9  1  0  0  0  0
  7 13  1  0  0  0  0
  9 12  1  0  0  0  0
  9  1  2  0  0  0  0
 11 16  1  6  0  0  0
 11  4  1  0  0  0  0
 12  7  2  0  0  0  0
 13 14  1  0  0  0  0
 14 10  1  0  0  0  0
 14  8  2  0  0  0  0
 15 16  1  0  0  0  0
 18 21  1  0  0  0  0
 19 20  2  0  0  0  0
 20 18  1  0  0  0  0
 20 22  1  0  0  0  0
 21 24  1  6  0  0  0
 21 23  1  0  0  0  0
 22 23  1  0  0  0  0
 23 17  1  1  0  0  0
 24 25  1  0  0  0  0
 26 27  2  0  0  0  0
 26 25  1  0  0  0  0
 28 26  1  0  0  0  0
 29 30  1  0  0  0  0
 31 30  1  0  0  0  0
M  END
>  <MODEL>
1

>  <REMARK>
 VINA RESULT:      -8.3      0.000      0.000
  Name = 
  8 active torsions:
  status: ('A' for Active; 'I' for Inactive)
    1  A    between atoms: C_1  and  C_24
    2  A    between atoms: C_2  and  C_25
    3  A    between atoms: N_6  and  C_19
    4  A    between atoms: N_6  and  C_24
    5  A    between atoms: N_12  and  C_25
    6  A    between atoms: C_15  and  C_20
    7  A    between atoms: C_20  and  C_23
    8  A    between atoms: C_27  and  C_28
                            x       y       z     vdW  Elec       q    Type
                         _______ _______ _______ _____ _____    ______ ____

>  <TORSDO>
F 8

$$$$
=
 OpenBabel10262419423D

 31 34  0  0  1  0  0  0  0  0999 V2000
  188.0860  177.5350  144.6340 C   0  0  0  0  0  0  0  0  0  0  0  0
  188.6860  177.5320  145.9020 C   0  0  0  0  0  0  0  0  0  0  0  0
  188.6830  177.9070  148.2830 C   0  0  0  0  0  3  0  0  0  0  0  0
  186.7460  177.8760  144.2980 N   0  0  0  0  0  0  0  0  0  0  0  0
  188.0130  177.9300  147.0590 C   0  0  0  0  0  3  0  0  0  0  0  0
  187.9510  177.2290  142.2950 C   0  0  1  0  0  3  0  0  0  0  0  0
  190.7120  176.7360  144.8610 N   0  0  0  0  0  0  0  0  0  0  0  0
  189.9800  177.5020  148.3470 N   0  0  0  0  0  0  0  0  0  0  0  0
  188.7980  177.1670  143.5230 C   0  0  0  0  0  0  0  0  0  0  0  0
  192.0270  176.7000  147.3660 N   0  0  0  0  0  1  0  0  0  0  0  0
  186.5650  177.6640  142.8610 C   0  0  2  0  0  3  0  0  0  0  0  0
  190.1230  176.7480  143.6330 C   0  0  0  0  0  3  0  0  0  0  0  0
  190.0390  177.1190  145.9880 C   0  0  0  0  0  0  0  0  0  0  0  0
  190.6680  177.1100  147.2410 C   0  0  0  0  0  0  0  0  0  0  0  0
  184.7040  178.5240  141.5820 O   0  0  0  0  0  1  0  0  0  0  0  0
  185.9080  178.8800  142.1970 C   0  0  0  0  0  2  0  0  0  0  0  0
  188.5460  178.1950  141.2660 C   0  0  0  0  0  2  0  0  0  0  0  0
  190.1750  178.3330  138.3030 O   0  0  0  0  0  0  0  0  0  0  0  0
  191.7830  176.6440  138.5050 N   0  0  0  0  0  2  0  0  0  0  0  0
  190.6480  177.1580  138.8390 C   0  0  0  0  0  0  0  0  0  0  0  0
  188.8960  178.6510  138.8200 C   0  0  2  0  0  3  0  0  0  0  0  0
  189.7290  176.5550  139.8210 C   0  0  0  0  0  2  0  0  0  0  0  0
  188.5900  177.5720  139.8790 C   0  0  1  0  0  3  0  0  0  0  0  0
  187.9130  178.5840  137.7480 N   0  0  0  0  0  2  0  0  0  0  0  0
  186.9260  177.5760  138.1050 C   0  0  0  0  0  2  0  0  0  0  0  0
  185.5580  178.1760  138.1420 C   0  0  0  0  0  0  0  0  0  0  0  0
  185.4030  179.3300  138.5050 O   0  0  0  0  0  0  0  0  0  0  0  0
  184.3780  177.3560  137.7520 C   0  0  0  0  0  1  0  0  0  0  0  0
  185.6290  177.9200  145.2320 C   0  0  0  0  0  2  0  0  0  0  0  0
  184.9380  179.2700  145.1600 C   0  0  0  0  0  2  0  0  0  0  0  0
  183.4650  179.0660  144.8810 C   0  0  0  0  0  1  0  0  0  0  0  0
  1  2  1  0  0  0  0
  2 13  2  0  0  0  0
  2  5  1  0  0  0  0
  3  8  1  0  0  0  0
  4  1  1  0  0  0  0
  4 29  1  0  0  0  0
  5  3  2  0  0  0  0
  6 17  1  6  0  0  0
  6 11  1  0  0  0  0
  6  9  1  0  0  0  0
  7 13  1  0  0  0  0
  9 12  1  0  0  0  0
  9  1  2  0  0  0  0
 11 16  1  6  0  0  0
 11  4  1  0  0  0  0
 12  7  2  0  0  0  0
 13 14  1  0  0  0  0
 14 10  1  0  0  0  0
 14  8  2  0  0  0  0
 15 16  1  0  0  0  0
 18 21  1  0  0  0  0
 18 20  1  0  0  0  0
 19 20  2  0  0  0  0
 20 22  1  0  0  0  0
 21 24  1  6  0  0  0
 21 23  1  0  0  0  0
 22 23  1  0  0  0  0
 23 17  1  1  0  0  0
 24 25  1  0  0  0  0
 25 26  1  0  0  0  0
 26 27  2  0  0  0  0
 28 26  1  0  0  0  0
 30 29  1  0  0  0  0
 31 30  1  0  0  0  0
M  END
>  <MODEL>
2

>  <REMARK>
 VINA RESULT:      -7.9      1.370      3.049
  Name = 
  8 active torsions:
  status: ('A' for Active; 'I' for Inactive)
    1  A    between atoms: C_1  and  C_24
    2  A    between atoms: C_2  and  C_25
    3  A    between atoms: N_6  and  C_19
    4  A    between atoms: N_6  and  C_24
    5  A    between atoms: N_12  and  C_25
    6  A    between atoms: C_15  and  C_20
    7  A    between atoms: C_20  and  C_23
    8  A    between atoms: C_27  and  C_28
                            x       y       z     vdW  Elec       q    Type
                         _______ _______ _______ _____ _____    ______ ____

>  <TORSDO>
F 8

$$$$
=
 OpenBabel10262419423D

 31 34  0  0  1  0  0  0  0  0999 V2000
  187.6090  178.1890  143.7610 C   0  0  0  0  0  0  0  0  0  0  0  0
  186.4540  178.3370  144.5450 C   0  0  0  0  0  0  0  0  0  0  0  0
  185.2650  178.3450  146.6410 C   0  0  0  0  0  3  0  0  0  0  0  0
  188.9360  177.9230  144.1950 N   0  0  0  0  0  0  0  0  0  0  0  0
  186.4580  178.1910  145.9330 C   0  0  0  0  0  3  0  0  0  0  0  0
  188.8960  178.1320  141.7800 C   0  0  1  0  0  3  0  0  0  0  0  0
  185.2210  178.7700  142.5160 N   0  0  0  0  0  0  0  0  0  0  0  0
  184.1100  178.6360  145.9830 N   0  0  0  0  0  0  0  0  0  0  0  0
  187.5480  178.3100  142.3980 C   0  0  0  0  0  0  0  0  0  0  0  0
  182.8290  179.0820  143.9950 N   0  0  0  0  0  1  0  0  0  0  0  0
  189.8130  177.9210  143.0230 C   0  0  2  0  0  3  0  0  0  0  0  0
  186.3460  178.6180  141.7620 C   0  0  0  0  0  3  0  0  0  0  0  0
  185.2400  178.6330  143.8770 C   0  0  0  0  0  0  0  0  0  0  0  0
  184.0680  178.7830  144.6320 C   0  0  0  0  0  0  0  0  0  0  0  0
  191.9990  177.0040  142.5590 O   0  0  0  0  0  1  0  0  0  0  0  0
  190.7130  176.6810  143.0030 C   0  0  0  0  0  2  0  0  0  0  0  0
  188.8950  176.9650  140.7880 C   0  0  0  0  0  2  0  0  0  0  0  0
  188.4720  176.9820  137.4310 O   0  0  0  0  0  0  0  0  0  0  0  0
  187.6940  179.1490  137.0070 N   0  0  0  0  0  2  0  0  0  0  0  0
  188.3450  178.3150  137.7450 C   0  0  0  0  0  0  0  0  0  0  0  0
  189.2590  176.3030  138.3920 C   0  0  2  0  0  3  0  0  0  0  0  0
  189.0280  178.6840  138.9970 C   0  0  0  0  0  2  0  0  0  0  0  0
  189.5800  177.3440  139.4840 C   0  0  1  0  0  3  0  0  0  0  0  0
  190.4930  175.8460  137.7670 N   0  0  0  0  0  2  0  0  0  0  0  0
  191.6050  176.5120  138.4290 C   0  0  0  0  0  2  0  0  0  0  0  0
  192.9060  176.0310  137.8730 C   0  0  0  0  0  0  0  0  0  0  0  0
  193.8220  176.8150  137.6840 O   0  0  0  0  0  0  0  0  0  0  0  0
  193.0790  174.5930  137.5320 C   0  0  0  0  0  1  0  0  0  0  0  0
  189.4360  178.1290  145.5490 C   0  0  0  0  0  2  0  0  0  0  0  0
  189.6320  176.7940  146.2450 C   0  0  0  0  0  2  0  0  0  0  0  0
  191.0470  176.7080  146.7760 C   0  0  0  0  0  1  0  0  0  0  0  0
  1  4  1  0  0  0  0
  1  2  1  0  0  0  0
  2  5  1  0  0  0  0
  4 29  1  0  0  0  0
  5  3  2  0  0  0  0
  6 17  1  6  0  0  0
  6  9  1  0  0  0  0
  6 11  1  0  0  0  0
  7 13  1  0  0  0  0
  8  3  1  0  0  0  0
  9  1  2  0  0  0  0
 10 14  1  0  0  0  0
 11 16  1  6  0  0  0
 11  4  1  0  0  0  0
 12  9  1  0  0  0  0
 12  7  2  0  0  0  0
 13  2  2  0  0  0  0
 13 14  1  0  0  0  0
 14  8  2  0  0  0  0
 15 16  1  0  0  0  0
 18 20  1  0  0  0  0
 18 21  1  0  0  0  0
 19 20  2  0  0  0  0
 20 22  1  0  0  0  0
 21 24  1  6  0  0  0
 21 23  1  0  0  0  0
 22 23  1  0  0  0  0
 23 17  1  1  0  0  0
 24 25  1  0  0  0  0
 26 25  1  0  0  0  0
 27 26  2  0  0  0  0
 28 26  1  0  0  0  0
 29 30  1  0  0  0  0
 30 31  1  0  0  0  0
M  END
>  <MODEL>
3

>  <REMARK>
 VINA RESULT:      -7.8      1.800      4.133
  Name = 
  8 active torsions:
  status: ('A' for Active; 'I' for Inactive)
    1  A    between atoms: C_1  and  C_24
    2  A    between atoms: C_2  and  C_25
    3  A    between atoms: N_6  and  C_19
    4  A    between atoms: N_6  and  C_24
    5  A    between atoms: N_12  and  C_25
    6  A    between atoms: C_15  and  C_20
    7  A    between atoms: C_20  and  C_23
    8  A    between atoms: C_27  and  C_28
                            x       y       z     vdW  Elec       q    Type
                         _______ _______ _______ _____ _____    ______ ____

>  <TORSDO>
F 8

$$$$
=
 OpenBabel10262419423D

 31 34  0  0  1  0  0  0  0  0999 V2000
  188.5190  177.4030  139.4840 C   0  0  0  0  0  0  0  0  0  0  0  0
  188.9250  176.7480  138.3110 C   0  0  0  0  0  0  0  0  0  0  0  0
  188.6210  176.0460  136.0250 C   0  0  0  0  0  3  0  0  0  0  0  0
  187.3380  178.1660  139.6990 N   0  0  0  0  0  0  0  0  0  0  0  0
  188.1510  176.7270  137.1490 C   0  0  0  0  0  3  0  0  0  0  0  0
  188.6760  178.1460  141.7210 C   0  0  1  0  0  3  0  0  0  0  0  0
  190.9330  176.0770  139.4680 N   0  0  0  0  0  0  0  0  0  0  0  0
  189.8220  175.4080  136.0630 N   0  0  0  0  0  0  0  0  0  0  0  0
  189.2980  177.3670  140.6100 C   0  0  0  0  0  0  0  0  0  0  0  0
  191.8490  174.7160  137.1630 N   0  0  0  0  0  1  0  0  0  0  0  0
  187.3810  178.7080  141.0580 C   0  0  2  0  0  3  0  0  0  0  0  0
  190.5280  176.7110  140.6040 C   0  0  0  0  0  3  0  0  0  0  0  0
  190.1700  176.0720  138.3330 C   0  0  0  0  0  0  0  0  0  0  0  0
  190.6020  175.4050  137.1780 C   0  0  0  0  0  0  0  0  0  0  0  0
  185.3950  179.6490  142.0590 O   0  0  0  0  0  1  0  0  0  0  0  0
  186.0670  178.4510  141.8030 C   0  0  0  0  0  2  0  0  0  0  0  0
  188.4260  177.2550  142.9420 C   0  0  0  0  0  2  0  0  0  0  0  0
  189.5880  176.7440  146.0780 O   0  0  0  0  0  0  0  0  0  0  0  0
  191.8790  177.1790  145.8710 N   0  0  0  0  0  2  0  0  0  0  0  0
  190.6650  177.3390  145.4650 C   0  0  0  0  0  0  0  0  0  0  0  0
  188.3740  177.1110  145.4500 C   0  0  2  0  0  3  0  0  0  0  0  0
  190.2880  178.1720  144.3100 C   0  0  0  0  0  2  0  0  0  0  0  0
  188.7740  177.9750  144.2360 C   0  0  1  0  0  3  0  0  0  0  0  0
  187.5730  177.9000  146.3750 N   0  0  0  0  0  2  0  0  0  0  0  0
  186.1760  177.5380  146.1830 C   0  0  0  0  0  2  0  0  0  0  0  0
  185.3080  178.7510  146.2610 C   0  0  0  0  0  0  0  0  0  0  0  0
  185.5300  179.6140  147.0940 O   0  0  0  0  0  0  0  0  0  0  0  0
  184.1560  178.8990  145.3290 C   0  0  0  0  0  1  0  0  0  0  0  0
  186.5040  178.7410  138.6510 C   0  0  0  0  0  2  0  0  0  0  0  0
  185.1550  178.0460  138.6140 C   0  0  0  0  0  2  0  0  0  0  0  0
  184.0580  179.0690  138.8180 C   0  0  0  0  0  1  0  0  0  0  0  0
  1  4  1  0  0  0  0
  1  9  1  0  0  0  0
  2 13  1  0  0  0  0
  2  1  2  0  0  0  0
  3  8  1  0  0  0  0
  3  5  2  0  0  0  0
  4 11  1  0  0  0  0
  5  2  1  0  0  0  0
  6 17  1  1  0  0  0
  7 12  1  0  0  0  0
  8 14  2  0  0  0  0
  9  6  1  0  0  0  0
 10 14  1  0  0  0  0
 11  6  1  0  0  0  0
 11 16  1  1  0  0  0
 12  9  2  0  0  0  0
 13  7  2  0  0  0  0
 14 13  1  0  0  0  0
 16 15  1  0  0  0  0
 20 19  2  0  0  0  0
 20 18  1  0  0  0  0
 21 18  1  0  0  0  0
 21 24  1  1  0  0  0
 22 20  1  0  0  0  0
 23 17  1  6  0  0  0
 23 22  1  0  0  0  0
 23 21  1  0  0  0  0
 25 26  1  0  0  0  0
 25 24  1  0  0  0  0
 26 27  2  0  0  0  0
 28 26  1  0  0  0  0
 29  4  1  0  0  0  0
 30 29  1  0  0  0  0
 30 31  1  0  0  0  0
M  END
>  <MODEL>
4

>  <REMARK>
 VINA RESULT:      -7.6      2.456      7.463
  Name = 
  8 active torsions:
  status: ('A' for Active; 'I' for Inactive)
    1  A    between atoms: C_1  and  C_24
    2  A    between atoms: C_2  and  C_25
    3  A    between atoms: N_6  and  C_19
    4  A    between atoms: N_6  and  C_24
    5  A    between atoms: N_12  and  C_25
    6  A    between atoms: C_15  and  C_20
    7  A    between atoms: C_20  and  C_23
    8  A    between atoms: C_27  and  C_28
                            x       y       z     vdW  Elec       q    Type
                         _______ _______ _______ _____ _____    ______ ____

>  <TORSDO>
F 8

$$$$
=
 OpenBabel10262419423D

 31 34  0  0  1  0  0  0  0  0999 V2000
  186.7490  178.3070  143.2310 C   0  0  0  0  0  0  0  0  0  0  0  0
  187.6960  177.8520  144.1620 C   0  0  0  0  0  0  0  0  0  0  0  0
  189.8840  177.0620  144.7920 C   0  0  0  0  0  3  0  0  0  0  0  0
  186.9290  178.5430  141.8400 N   0  0  0  0  0  0  0  0  0  0  0  0
  189.0040  177.5140  143.8080 C   0  0  0  0  0  3  0  0  0  0  0  0
  184.6490  179.0760  142.4700 C   0  0  1  0  0  3  0  0  0  0  0  0
  186.0020  178.0420  145.8690 N   0  0  0  0  0  0  0  0  0  0  0  0
  189.4710  176.9510  146.0830 N   0  0  0  0  0  0  0  0  0  0  0  0
  185.4680  178.5940  143.6220 C   0  0  0  0  0  0  0  0  0  0  0  0
  187.8240  177.1270  147.8300 N   0  0  0  0  0  1  0  0  0  0  0  0
  185.6770  179.0730  141.2980 C   0  0  2  0  0  3  0  0  0  0  0  0
  185.0870  178.4760  144.9580 C   0  0  0  0  0  3  0  0  0  0  0  0
  187.2820  177.7230  145.5110 C   0  0  0  0  0  0  0  0  0  0  0  0
  188.2040  177.2680  146.4640 C   0  0  0  0  0  0  0  0  0  0  0  0
  185.5470  179.0830  138.8860 O   0  0  0  0  0  1  0  0  0  0  0  0
  185.2600  178.3260  140.0260 C   0  0  0  0  0  2  0  0  0  0  0  0
  183.4320  178.1720  142.2460 C   0  0  0  0  0  2  0  0  0  0  0  0
  180.0630  177.8710  142.1500 O   0  0  0  0  0  0  0  0  0  0  0  0
  179.4430  178.1530  144.3890 N   0  0  0  0  0  2  0  0  0  0  0  0
  180.2750  178.3470  143.4220 C   0  0  0  0  0  0  0  0  0  0  0  0
  181.1140  178.2510  141.2810 C   0  0  2  0  0  3  0  0  0  0  0  0
  181.5350  179.0960  143.5600 C   0  0  0  0  0  2  0  0  0  0  0  0
  182.1470  178.9810  142.1640 C   0  0  1  0  0  3  0  0  0  0  0  0
  180.5960  179.1630  140.2700 N   0  0  0  0  0  2  0  0  0  0  0  0
  180.7250  178.5160  138.9720 C   0  0  0  0  0  2  0  0  0  0  0  0
  181.8540  179.1170  138.2010 C   0  0  0  0  0  0  0  0  0  0  0  0
  182.3730  178.4970  137.2870 O   0  0  0  0  0  0  0  0  0  0  0  0
  182.3610  180.4700  138.5610 C   0  0  0  0  0  1  0  0  0  0  0  0
  188.2130  178.7310  141.1780 C   0  0  0  0  0  2  0  0  0  0  0  0
  188.5360  177.5280  140.3090 C   0  0  0  0  0  2  0  0  0  0  0  0
  190.0380  177.3820  140.1920 C   0  0  0  0  0  1  0  0  0  0  0  0
  1  9  2  0  0  0  0
  1  2  1  0  0  0  0
  2 13  1  0  0  0  0
  3  8  2  0  0  0  0
  4  1  1  0  0  0  0
  5  2  2  0  0  0  0
  5  3  1  0  0  0  0
  6 17  1  6  0  0  0
  6  9  1  0  0  0  0
  8 14  1  0  0  0  0
  9 12  1  0  0  0  0
 11 16  1  6  0  0  0
 11  4  1  0  0  0  0
 11  6  1  0  0  0  0
 12  7  2  0  0  0  0
 13  7  1  0  0  0  0
 13 14  2  0  0  0  0
 14 10  1  0  0  0  0
 15 16  1  0  0  0  0
 18 20  1  0  0  0  0
 20 22  1  0  0  0  0
 20 19  2  0  0  0  0
 21 24  1  6  0  0  0
 21 18  1  0  0  0  0
 21 23  1  0  0  0  0
 23 17  1  1  0  0  0
 23 22  1  0  0  0  0
 25 24  1  0  0  0  0
 26 28  1  0  0  0  0
 26 25  1  0  0  0  0
 27 26  2  0  0  0  0
 29  4  1  0  0  0  0
 30 29  1  0  0  0  0
 31 30  1  0  0  0  0
M  END
>  <MODEL>
5

>  <REMARK>
 VINA RESULT:      -7.4      3.295      6.822
  Name = 
  8 active torsions:
  status: ('A' for Active; 'I' for Inactive)
    1  A    between atoms: C_1  and  C_24
    2  A    between atoms: C_2  and  C_25
    3  A    between atoms: N_6  and  C_19
    4  A    between atoms: N_6  and  C_24
    5  A    between atoms: N_12  and  C_25
    6  A    between atoms: C_15  and  C_20
    7  A    between atoms: C_20  and  C_23
    8  A    between atoms: C_27  and  C_28
                            x       y       z     vdW  Elec       q    Type
                         _______ _______ _______ _____ _____    ______ ____

>  <TORSDO>
F 8

$$$$
=
 OpenBabel10262419423D

 31 34  0  0  1  0  0  0  0  0999 V2000
  184.6840  178.5850  141.9010 C   0  0  0  0  0  0  0  0  0  0  0  0
  183.3600  178.7110  141.4530 C   0  0  0  0  0  0  0  0  0  0  0  0
  180.9710  178.6650  141.7640 C   0  0  0  0  0  3  0  0  0  0  0  0
  185.1410  178.3100  143.2200 N   0  0  0  0  0  0  0  0  0  0  0  0
  182.2570  178.5300  142.2890 C   0  0  0  0  0  3  0  0  0  0  0  0
  187.0410  178.5790  141.7370 C   0  0  1  0  0  3  0  0  0  0  0  0
  184.2290  179.1930  139.2540 N   0  0  0  0  0  0  0  0  0  0  0  0
  180.7950  178.9700  140.4500 N   0  0  0  0  0  0  0  0  0  0  0  0
  185.7330  178.7390  141.0350 C   0  0  0  0  0  0  0  0  0  0  0  0
  181.6030  179.4640  138.2370 N   0  0  0  0  0  1  0  0  0  0  0  0
  186.6050  178.3380  143.2140 C   0  0  2  0  0  3  0  0  0  0  0  0
  185.5110  179.0620  139.6960 C   0  0  0  0  0  3  0  0  0  0  0  0
  183.1570  179.0220  140.0860 C   0  0  0  0  0  0  0  0  0  0  0  0
  181.8460  179.1510  139.6060 C   0  0  0  0  0  0  0  0  0  0  0  0
  188.0360  177.4660  144.9540 O   0  0  0  0  0  1  0  0  0  0  0  0
  187.1890  177.1000  143.9040 C   0  0  0  0  0  2  0  0  0  0  0  0
  187.8570  177.4370  141.1240 C   0  0  0  0  0  2  0  0  0  0  0  0
  190.8030  176.3360  139.8750 O   0  0  0  0  0  0  0  0  0  0  0  0
  190.6580  176.8970  137.6070 N   0  0  0  0  0  2  0  0  0  0  0  0
  190.3110  177.0880  138.8340 C   0  0  0  0  0  0  0  0  0  0  0  0
  190.2810  176.7760  141.1150 C   0  0  2  0  0  3  0  0  0  0  0  0
  189.3590  178.1260  139.2670 C   0  0  0  0  0  2  0  0  0  0  0  0
  189.2680  177.8870  140.7740 C   0  0  1  0  0  3  0  0  0  0  0  0
  191.3610  177.3240  141.9240 N   0  0  0  0  0  2  0  0  0  0  0  0
  191.2830  176.7200  143.2460 C   0  0  0  0  0  2  0  0  0  0  0  0
  191.3740  177.7700  144.3050 C   0  0  0  0  0  0  0  0  0  0  0  0
  191.6800  177.4670  145.4460 O   0  0  0  0  0  0  0  0  0  0  0  0
  191.0730  179.1880  143.9690 C   0  0  0  0  0  1  0  0  0  0  0  0
  184.3570  178.4830  144.4360 C   0  0  0  0  0  2  0  0  0  0  0  0
  185.1010  179.3710  145.4180 C   0  0  0  0  0  2  0  0  0  0  0  0
  185.2860  178.6290  146.7240 C   0  0  0  0  0  1  0  0  0  0  0  0
  1  4  1  0  0  0  0
  2  1  1  0  0  0  0
  2  5  1  0  0  0  0
  3  5  2  0  0  0  0
  4 29  1  0  0  0  0
  6 17  1  6  0  0  0
  6 11  1  0  0  0  0
  7 12  2  0  0  0  0
  7 13  1  0  0  0  0
  8  3  1  0  0  0  0
  9  6  1  0  0  0  0
  9  1  2  0  0  0  0
 10 14  1  0  0  0  0
 11  4  1  0  0  0  0
 11 16  1  6  0  0  0
 12  9  1  0  0  0  0
 13  2  2  0  0  0  0
 14 13  1  0  0  0  0
 14  8  2  0  0  0  0
 16 15  1  0  0  0  0
 18 21  1  0  0  0  0
 19 20  2  0  0  0  0
 20 22  1  0  0  0  0
 20 18  1  0  0  0  0
 21 24  1  1  0  0  0
 22 23  1  0  0  0  0
 23 21  1  0  0  0  0
 23 17  1  6  0  0  0
 24 25  1  0  0  0  0
 25 26  1  0  0  0  0
 26 27  2  0  0  0  0
 28 26  1  0  0  0  0
 29 30  1  0  0  0  0
 30 31  1  0  0  0  0
M  END
>  <MODEL>
6

>  <REMARK>
 VINA RESULT:      -7.3      3.148      6.069
  Name = 
  8 active torsions:
  status: ('A' for Active; 'I' for Inactive)
    1  A    between atoms: C_1  and  C_24
    2  A    between atoms: C_2  and  C_25
    3  A    between atoms: N_6  and  C_19
    4  A    between atoms: N_6  and  C_24
    5  A    between atoms: N_12  and  C_25
    6  A    between atoms: C_15  and  C_20
    7  A    between atoms: C_20  and  C_23
    8  A    between atoms: C_27  and  C_28
                            x       y       z     vdW  Elec       q    Type
                         _______ _______ _______ _____ _____    ______ ____

>  <TORSDO>
F 8

$$$$
=
 OpenBabel10262419423D

 31 34  0  0  1  0  0  0  0  0999 V2000
  189.5230  177.5700  140.5150 C   0  0  0  0  0  0  0  0  0  0  0  0
  190.1220  177.2020  139.3010 C   0  0  0  0  0  0  0  0  0  0  0  0
  190.0660  176.6510  136.9550 C   0  0  0  0  0  3  0  0  0  0  0  0
  188.1540  177.8650  140.7650 N   0  0  0  0  0  0  0  0  0  0  0  0
  189.3970  177.0270  138.1210 C   0  0  0  0  0  3  0  0  0  0  0  0
  189.4280  178.1140  142.8130 C   0  0  1  0  0  3  0  0  0  0  0  0
  192.2440  177.1480  140.4480 N   0  0  0  0  0  0  0  0  0  0  0  0
  191.4120  176.4570  136.9700 N   0  0  0  0  0  0  0  0  0  0  0  0
  190.2730  177.6980  141.6540 C   0  0  0  0  0  0  0  0  0  0  0  0
  193.5580  176.3940  138.0590 N   0  0  0  0  0  1  0  0  0  0  0  0
  188.0170  178.2630  142.1670 C   0  0  2  0  0  3  0  0  0  0  0  0
  191.6530  177.5000  141.6250 C   0  0  0  0  0  3  0  0  0  0  0  0
  191.5230  176.9890  139.2980 C   0  0  0  0  0  0  0  0  0  0  0  0
  192.1510  176.6160  138.1010 C   0  0  0  0  0  0  0  0  0  0  0  0
  186.2790  178.2940  143.8440 O   0  0  0  0  0  1  0  0  0  0  0  0
  186.8710  177.5080  142.8500 C   0  0  0  0  0  2  0  0  0  0  0  0
  189.5010  177.0830  143.9430 C   0  0  0  0  0  2  0  0  0  0  0  0
  189.8380  176.4620  147.2520 O   0  0  0  0  0  0  0  0  0  0  0  0
  192.1150  175.9620  147.4670 N   0  0  0  0  0  2  0  0  0  0  0  0
  191.1470  176.5370  146.8380 C   0  0  0  0  0  0  0  0  0  0  0  0
  188.9880  177.2070  146.4000 C   0  0  2  0  0  3  0  0  0  0  0  0
  191.3230  177.3390  145.6140 C   0  0  0  0  0  2  0  0  0  0  0  0
  189.8890  177.7320  145.2630 C   0  0  1  0  0  3  0  0  0  0  0  0
  188.4250  178.3260  147.1410 N   0  0  0  0  0  2  0  0  0  0  0  0
  187.1790  177.8810  147.7500 C   0  0  0  0  0  2  0  0  0  0  0  0
  186.0570  178.7870  147.3630 C   0  0  0  0  0  0  0  0  0  0  0  0
  186.0740  179.9630  147.6890 O   0  0  0  0  0  0  0  0  0  0  0  0
  184.9030  178.2500  146.5900 C   0  0  0  0  0  1  0  0  0  0  0  0
  187.1710  178.2170  139.7490 C   0  0  0  0  0  2  0  0  0  0  0  0
  185.9870  178.9220  140.3870 C   0  0  0  0  0  2  0  0  0  0  0  0
  184.7760  178.7820  139.4900 C   0  0  0  0  0  1  0  0  0  0  0  0
  1  4  1  0  0  0  0
  1  9  1  0  0  0  0
  2  1  2  0  0  0  0
  3  8  1  0  0  0  0
  3  5  2  0  0  0  0
  4 11  1  0  0  0  0
  5  2  1  0  0  0  0
  6 17  1  1  0  0  0
  7 12  1  0  0  0  0
  8 14  2  0  0  0  0
  9  6  1  0  0  0  0
 10 14  1  0  0  0  0
 11  6  1  0  0  0  0
 11 16  1  1  0  0  0
 12  9  2  0  0  0  0
 13  2  1  0  0  0  0
 13  7  2  0  0  0  0
 14 13  1  0  0  0  0
 16 15  1  0  0  0  0
 20 18  1  0  0  0  0
 20 19  2  0  0  0  0
 21 24  1  1  0  0  0
 21 18  1  0  0  0  0
 22 20  1  0  0  0  0
 23 17  1  6  0  0  0
 23 22  1  0  0  0  0
 23 21  1  0  0  0  0
 24 25  1  0  0  0  0
 26 27  2  0  0  0  0
 26 25  1  0  0  0  0
 28 26  1  0  0  0  0
 29 30  1  0  0  0  0
 29  4  1  0  0  0  0
 31 30  1  0  0  0  0
M  END
>  <MODEL>
7

>  <REMARK>
 VINA RESULT:      -7.2      2.693      7.521
  Name = 
  8 active torsions:
  status: ('A' for Active; 'I' for Inactive)
    1  A    between atoms: C_1  and  C_24
    2  A    between atoms: C_2  and  C_25
    3  A    between atoms: N_6  and  C_19
    4  A    between atoms: N_6  and  C_24
    5  A    between atoms: N_12  and  C_25
    6  A    between atoms: C_15  and  C_20
    7  A    between atoms: C_20  and  C_23
    8  A    between atoms: C_27  and  C_28
                            x       y       z     vdW  Elec       q    Type
                         _______ _______ _______ _____ _____    ______ ____

>  <TORSDO>
F 8

$$$$
=
 OpenBabel10262419423D

 31 34  0  0  1  0  0  0  0  0999 V2000
  187.4170  178.1820  142.9440 C   0  0  0  0  0  0  0  0  0  0  0  0
  186.4790  178.2530  143.9860 C   0  0  0  0  0  0  0  0  0  0  0  0
  185.8080  178.0550  146.2920 C   0  0  0  0  0  3  0  0  0  0  0  0
  188.8030  177.8730  143.0300 N   0  0  0  0  0  0  0  0  0  0  0  0
  186.8010  177.9700  145.3150 C   0  0  0  0  0  3  0  0  0  0  0  0
  188.2090  178.3200  140.7220 C   0  0  1  0  0  3  0  0  0  0  0  0
  184.8200  178.8840  142.3510 N   0  0  0  0  0  0  0  0  0  0  0  0
  184.5400  178.4100  145.9520 N   0  0  0  0  0  0  0  0  0  0  0  0
  187.0450  178.4360  141.6510 C   0  0  0  0  0  0  0  0  0  0  0  0
  182.8440  179.0510  144.3690 N   0  0  0  0  0  1  0  0  0  0  0  0
  189.3840  177.9850  141.6920 C   0  0  2  0  0  3  0  0  0  0  0  0
  185.7360  178.8070  141.3450 C   0  0  0  0  0  3  0  0  0  0  0  0
  185.1510  178.6140  143.6500 C   0  0  0  0  0  0  0  0  0  0  0  0
  184.1890  178.6890  144.6680 C   0  0  0  0  0  0  0  0  0  0  0  0
  191.5370  177.1170  141.0250 O   0  0  0  0  0  1  0  0  0  0  0  0
  190.2250  176.7530  141.3440 C   0  0  0  0  0  2  0  0  0  0  0  0
  187.9510  177.2560  139.6510 C   0  0  0  0  0  2  0  0  0  0  0  0
  187.6830  176.4700  136.3700 O   0  0  0  0  0  0  0  0  0  0  0  0
  185.5770  177.3160  135.7940 N   0  0  0  0  0  2  0  0  0  0  0  0
  186.6230  177.3280  136.5490 C   0  0  0  0  0  0  0  0  0  0  0  0
  188.7070  176.7180  137.3160 C   0  0  2  0  0  3  0  0  0  0  0  0
  186.8100  178.2530  137.6800 C   0  0  0  0  0  2  0  0  0  0  0  0
  188.1590  177.8150  138.2510 C   0  0  1  0  0  3  0  0  0  0  0  0
  189.8920  177.2060  136.6240 N   0  0  0  0  0  2  0  0  0  0  0  0
  190.6920  176.0540  136.2350 C   0  0  0  0  0  2  0  0  0  0  0  0
  191.5150  175.5790  137.3870 C   0  0  0  0  0  0  0  0  0  0  0  0
  191.2210  174.5480  137.9690 O   0  0  0  0  0  0  0  0  0  0  0  0
  192.6890  176.3760  137.8380 C   0  0  0  0  0  1  0  0  0  0  0  0
  189.6070  177.9440  144.2440 C   0  0  0  0  0  2  0  0  0  0  0  0
  190.6210  179.0690  144.1360 C   0  0  0  0  0  2  0  0  0  0  0  0
  192.0170  178.5030  144.2830 C   0  0  0  0  0  1  0  0  0  0  0  0
  1  4  1  0  0  0  0
  1  2  1  0  0  0  0
  2  5  1  0  0  0  0
  4 29  1  0  0  0  0
  5  3  2  0  0  0  0
  6 17  1  6  0  0  0
  6  9  1  0  0  0  0
  6 11  1  0  0  0  0
  7 13  1  0  0  0  0
  8  3  1  0  0  0  0
  9  1  2  0  0  0  0
 10 14  1  0  0  0  0
 11 16  1  6  0  0  0
 11  4  1  0  0  0  0
 12  9  1  0  0  0  0
 12  7  2  0  0  0  0
 13  2  2  0  0  0  0
 13 14  1  0  0  0  0
 14  8  2  0  0  0  0
 15 16  1  0  0  0  0
 18 20  1  0  0  0  0
 18 21  1  0  0  0  0
 19 20  2  0  0  0  0
 20 22  1  0  0  0  0
 21 24  1  6  0  0  0
 21 23  1  0  0  0  0
 22 23  1  0  0  0  0
 23 17  1  1  0  0  0
 25 24  1  0  0  0  0
 25 26  1  0  0  0  0
 26 28  1  0  0  0  0
 26 27  2  0  0  0  0
 30 29  1  0  0  0  0
 30 31  1  0  0  0  0
M  END
>  <MODEL>
8

>  <REMARK>
 VINA RESULT:      -7.1      2.365      4.306
  Name = 
  8 active torsions:
  status: ('A' for Active; 'I' for Inactive)
    1  A    between atoms: C_1  and  C_24
    2  A    between atoms: C_2  and  C_25
    3  A    between atoms: N_6  and  C_19
    4  A    between atoms: N_6  and  C_24
    5  A    between atoms: N_12  and  C_25
    6  A    between atoms: C_15  and  C_20
    7  A    between atoms: C_20  and  C_23
    8  A    between atoms: C_27  and  C_28
                            x       y       z     vdW  Elec       q    Type
                         _______ _______ _______ _____ _____    ______ ____

>  <TORSDO>
F 8

$$$$
=
 OpenBabel10262419423D

 31 34  0  0  1  0  0  0  0  0999 V2000
  183.1980  178.6700  141.4460 C   0  0  0  0  0  0  0  0  0  0  0  0
  182.3180  178.4830  140.3690 C   0  0  0  0  0  0  0  0  0  0  0  0
  180.1220  178.2620  139.4000 C   0  0  0  0  0  3  0  0  0  0  0  0
  182.8770  178.9070  142.8110 N   0  0  0  0  0  0  0  0  0  0  0  0
  180.9300  178.4620  140.5200 C   0  0  0  0  0  3  0  0  0  0  0  0
  185.2850  178.8880  142.5310 C   0  0  1  0  0  3  0  0  0  0  0  0
  184.2410  178.3000  138.9230 N   0  0  0  0  0  0  0  0  0  0  0  0
  180.6820  178.0870  138.1730 N   0  0  0  0  0  0  0  0  0  0  0  0
  184.5540  178.6480  141.2520 C   0  0  0  0  0  0  0  0  0  0  0  0
  182.5620  177.9050  136.6810 N   0  0  0  0  0  1  0  0  0  0  0  0
  184.1250  179.1040  143.5500 C   0  0  2  0  0  3  0  0  0  0  0  0
  185.0890  178.4760  139.9760 C   0  0  0  0  0  3  0  0  0  0  0  0
  182.8830  178.2920  139.0840 C   0  0  0  0  0  0  0  0  0  0  0  0
  182.0300  178.0980  137.9880 C   0  0  0  0  0  0  0  0  0  0  0  0
  183.8240  179.0030  145.9440 O   0  0  0  0  0  1  0  0  0  0  0  0
  184.1620  178.2460  144.8190 C   0  0  0  0  0  2  0  0  0  0  0  0
  186.2080  177.7110  142.8640 C   0  0  0  0  0  2  0  0  0  0  0  0
  189.3800  176.5560  143.0870 O   0  0  0  0  0  0  0  0  0  0  0  0
  190.1510  176.6980  140.8810 N   0  0  0  0  0  2  0  0  0  0  0  0
  189.3540  177.0860  141.8180 C   0  0  0  0  0  0  0  0  0  0  0  0
  188.4240  177.1820  143.9220 C   0  0  2  0  0  3  0  0  0  0  0  0
  188.3340  178.1350  141.6480 C   0  0  0  0  0  2  0  0  0  0  0  0
  187.6520  178.1630  143.0160 C   0  0  1  0  0  3  0  0  0  0  0  0
  189.1130  177.9180  144.9730 N   0  0  0  0  0  2  0  0  0  0  0  0
  189.0430  177.1280  146.1950 C   0  0  0  0  0  2  0  0  0  0  0  0
  188.0940  177.7510  147.1650 C   0  0  0  0  0  0  0  0  0  0  0  0
  186.9120  177.8610  146.8850 O   0  0  0  0  0  0  0  0  0  0  0  0
  188.5960  178.2570  148.4720 C   0  0  0  0  0  1  0  0  0  0  0  0
  181.5900  179.3830  143.3020 C   0  0  0  0  0  2  0  0  0  0  0  0
  180.8260  178.2460  143.9570 C   0  0  0  0  0  2  0  0  0  0  0  0
  179.3930  178.6740  144.1910 C   0  0  0  0  0  1  0  0  0  0  0  0
  1  4  1  0  0  0  0
  2  5  1  0  0  0  0
  2  1  2  0  0  0  0
  3  5  2  0  0  0  0
  4 29  1  0  0  0  0
  4 11  1  0  0  0  0
  6 17  1  1  0  0  0
  6 11  1  0  0  0  0
  7 13  2  0  0  0  0
  7 12  1  0  0  0  0
  8  3  1  0  0  0  0
  9  1  1  0  0  0  0
  9  6  1  0  0  0  0
 10 14  1  0  0  0  0
 11 16  1  1  0  0  0
 12  9  2  0  0  0  0
 13  2  1  0  0  0  0
 14  8  2  0  0  0  0
 14 13  1  0  0  0  0
 16 15  1  0  0  0  0
 18 21  1  0  0  0  0
 19 20  2  0  0  0  0
 20 18  1  0  0  0  0
 21 24  1  1  0  0  0
 22 20  1  0  0  0  0
 22 23  1  0  0  0  0
 23 17  1  6  0  0  0
 23 21  1  0  0  0  0
 24 25  1  0  0  0  0
 25 26  1  0  0  0  0
 26 28  1  0  0  0  0
 27 26  2  0  0  0  0
 29 30  1  0  0  0  0
 30 31  1  0  0  0  0
M  END
>  <MODEL>
9

>  <REMARK>
 VINA RESULT:      -6.9      3.588      7.618
  Name = 
  8 active torsions:
  status: ('A' for Active; 'I' for Inactive)
    1  A    between atoms: C_1  and  C_24
    2  A    between atoms: C_2  and  C_25
    3  A    between atoms: N_6  and  C_19
    4  A    between atoms: N_6  and  C_24
    5  A    between atoms: N_12  and  C_25
    6  A    between atoms: C_15  and  C_20
    7  A    between atoms: C_20  and  C_23
    8  A    between atoms: C_27  and  C_28
                            x       y       z     vdW  Elec       q    Type
                         _______ _______ _______ _____ _____    ______ ____

>  <TORSDO>
F 8

$$$$
