=
 OpenBabel10252414503D

 34 39  0  0  1  0  0  0  0  0999 V2000
  190.2460  177.1420  145.3970 C   0  0  0  0  0  0  0  0  0  0  0  0
  188.0910  178.2980  145.8140 C   0  0  0  0  0  3  0  0  0  0  0  0
  188.9150  177.7430  143.4280 C   0  0  0  0  0  0  0  0  0  0  0  0
  187.5560  177.9840  141.4450 C   0  0  0  0  0  0  0  0  0  0  0  0
  189.5430  176.2800  147.6070 C   0  0  0  0  0  3  0  0  0  0  0  0
  188.2720  176.6650  147.7020 C   0  0  0  0  0  3  0  0  0  0  0  0
  186.4520  178.3150  143.4550 C   0  0  0  0  0  3  0  0  0  0  0  0
  189.1170  177.7060  144.9160 C   0  0  0  0  0  0  0  0  0  0  0  0
  185.9880  178.3180  140.9530 S   0  0  0  0  0  0  0  0  0  0  0  0
  190.5590  177.0750  146.8580 C   0  0  0  0  0  2  0  0  0  0  0  0
  190.0030  177.4210  142.5710 C   0  0  0  0  0  0  0  0  0  0  0  0
  191.1970  176.6230  144.5170 O   0  0  0  0  0  0  0  0  0  0  0  0
  187.7140  177.8430  147.0160 C   0  0  0  0  0  3  0  0  0  0  0  0
  188.5970  177.6970  140.6350 N   0  0  0  0  0  0  0  0  0  0  0  0
  189.8290  177.4270  141.1540 C   0  0  0  0  0  0  0  0  0  0  0  0
  185.4270  178.5110  142.5360 C   0  0  0  0  0  0  0  0  0  0  0  0
  187.6700  178.0190  142.8230 C   0  0  0  0  0  0  0  0  0  0  0  0
  191.3370  177.1120  143.1880 C   0  0  0  0  0  2  0  0  0  0  0  0
  191.7670  176.1120  138.1550 C   0  0  0  0  0  0  0  0  0  0  0  0
  193.0590  176.5440  138.4610 C   0  0  0  0  0  3  0  0  0  0  0  0
  190.9270  177.1380  140.1950 C   0  0  0  0  0  0  0  0  0  0  0  0
  193.2920  177.2660  139.6340 C   0  0  0  0  0  3  0  0  0  0  0  0
  190.7090  176.4010  139.0200 C   0  0  0  0  0  3  0  0  0  0  0  0
  192.2330  177.5560  140.4990 C   0  0  0  0  0  3  0  0  0  0  0  0
  191.5400  175.4060  137.0200 F   0  0  0  0  0  0  0  0  0  0  0  0
  183.1320  178.7040  142.0670 N   0  0  0  0  0  0  0  0  0  0  0  0
  184.0830  178.8240  142.9000 N   0  0  0  0  0  0  0  0  0  0  0  0
  180.8330  178.9970  140.1330 C   0  0  0  0  0  1  0  0  0  0  0  0
  181.7680  179.0270  142.4520 C   0  0  1  0  0  3  0  0  0  0  0  0
  180.7800  178.3440  141.5010 C   0  0  1  0  0  3  0  0  0  0  0  0
  179.2920  177.8800  143.3360 O   0  0  0  0  0  0  0  0  0  0  0  0
  180.0250  178.7050  144.2070 C   0  0  0  0  0  2  0  0  0  0  0  0
  181.5160  178.5880  143.8960 C   0  0  0  0  0  2  0  0  0  0  0  0
  179.3640  178.4750  142.0630 C   0  0  0  0  0  2  0  0  0  0  0  0
  1 10  1  0  0  0  0
  2 13  2  0  0  0  0
  3  8  1  0  0  0  0
  4 17  2  0  0  0  0
  5  6  2  0  0  0  0
  8  1  2  0  0  0  0
  8  2  1  0  0  0  0
  9  4  1  0  0  0  0
  9 16  1  0  0  0  0
 10  5  1  0  0  0  0
 11 18  1  0  0  0  0
 11  3  2  0  0  0  0
 12  1  1  0  0  0  0
 13  6  1  0  0  0  0
 14 15  2  0  0  0  0
 14  4  1  0  0  0  0
 15 11  1  0  0  0  0
 16 27  1  0  0  0  0
 16  7  2  0  0  0  0
 17  3  1  0  0  0  0
 17  7  1  0  0  0  0
 18 12  1  0  0  0  0
 19 20  2  0  0  0  0
 19 23  1  0  0  0  0
 20 22  1  0  0  0  0
 21 24  1  0  0  0  0
 21 15  1  0  0  0  0
 22 24  2  0  0  0  0
 23 21  2  0  0  0  0
 25 19  1  0  0  0  0
 26 27  2  0  0  0  0
 29 26  1  6  0  0  0
 29 33  1  0  0  0  0
 30 28  1  6  0  0  0
 30 34  1  0  0  0  0
 30 29  1  0  0  0  0
 31 32  1  0  0  0  0
 33 32  1  0  0  0  0
 34 31  1  0  0  0  0
M  END
>  <MODEL>
1

>  <REMARK>
 VINA RESULT:     -10.1      0.000      0.000
  Name = 
  3 active torsions:
  status: ('A' for Active; 'I' for Inactive)
    1  A    between atoms: N_3  and  C_13
    2  A    between atoms: C_12  and  C_28
    3  A    between atoms: N_17  and  C_29
                            x       y       z     vdW  Elec       q    Type
                         _______ _______ _______ _____ _____    ______ ____

>  <TORSDO>
F 3

$$$$
=
 OpenBabel10252414503D

 34 39  0  0  1  0  0  0  0  0999 V2000
  184.3440  178.5180  142.3080 C   0  0  0  0  0  0  0  0  0  0  0  0
  185.4740  178.8220  140.1210 C   0  0  0  0  0  3  0  0  0  0  0  0
  186.7750  178.2120  142.2680 C   0  0  0  0  0  0  0  0  0  0  0  0
  189.1040  177.5650  142.2920 C   0  0  0  0  0  0  0  0  0  0  0  0
  182.6160  177.8570  140.6650 C   0  0  0  0  0  3  0  0  0  0  0  0
  183.2960  177.7410  139.5270 C   0  0  0  0  0  3  0  0  0  0  0  0
  188.1570  177.8000  140.1910 C   0  0  0  0  0  3  0  0  0  0  0  0
  185.4790  178.5170  141.5760 C   0  0  0  0  0  0  0  0  0  0  0  0
  190.3780  177.1850  141.2710 S   0  0  0  0  0  0  0  0  0  0  0  0
  183.0030  178.8330  141.7250 C   0  0  0  0  0  2  0  0  0  0  0  0
  186.8140  178.1820  143.6890 C   0  0  0  0  0  0  0  0  0  0  0  0
  184.3960  178.2530  143.6780 O   0  0  0  0  0  0  0  0  0  0  0  0
  184.5360  178.4780  139.2280 C   0  0  0  0  0  3  0  0  0  0  0  0
  189.1400  177.5580  143.6420 N   0  0  0  0  0  0  0  0  0  0  0  0
  188.0300  177.8720  144.3700 C   0  0  0  0  0  0  0  0  0  0  0  0
  189.4580  177.4260  139.8720 C   0  0  0  0  0  0  0  0  0  0  0  0
  187.9620  177.8830  141.5790 C   0  0  0  0  0  0  0  0  0  0  0  0
  185.5630  178.5170  144.4500 C   0  0  0  0  0  2  0  0  0  0  0  0
  189.4880  177.6860  147.8800 C   0  0  0  0  0  0  0  0  0  0  0  0
  188.3290  177.7470  148.6550 C   0  0  0  0  0  3  0  0  0  0  0  0
  188.1570  177.8580  145.8500 C   0  0  0  0  0  0  0  0  0  0  0  0
  187.0810  177.8550  148.0340 C   0  0  0  0  0  3  0  0  0  0  0  0
  189.4020  177.7340  146.4860 C   0  0  0  0  0  3  0  0  0  0  0  0
  186.9960  177.9040  146.6400 C   0  0  0  0  0  3  0  0  0  0  0  0
  190.6980  177.5740  148.4800 F   0  0  0  0  0  0  0  0  0  0  0  0
  190.9480  176.5420  138.2840 N   0  0  0  0  0  0  0  0  0  0  0  0
  189.9340  177.2640  138.5370 N   0  0  0  0  0  0  0  0  0  0  0  0
  193.6860  175.5210  137.5290 C   0  0  0  0  0  1  0  0  0  0  0  0
  191.4210  176.3860  136.9180 C   0  0  1  0  0  3  0  0  0  0  0  0
  192.3800  175.1960  136.8300 C   0  0  1  0  0  3  0  0  0  0  0  0
  191.4660  174.5820  134.6890 O   0  0  0  0  0  0  0  0  0  0  0  0
  190.7460  175.7860  134.5940 C   0  0  0  0  0  2  0  0  0  0  0  0
  190.2320  176.1910  135.9740 C   0  0  0  0  0  2  0  0  0  0  0  0
  192.6660  174.8830  135.3600 C   0  0  0  0  0  2  0  0  0  0  0  0
  1 12  1  0  0  0  0
  2  8  1  0  0  0  0
  3 11  1  0  0  0  0
  4 14  2  0  0  0  0
  5 10  1  0  0  0  0
  6  5  2  0  0  0  0
  7 17  1  0  0  0  0
  8  3  1  0  0  0  0
  8  1  2  0  0  0  0
  9  4  1  0  0  0  0
 10  1  1  0  0  0  0
 11 15  2  0  0  0  0
 11 18  1  0  0  0  0
 12 18  1  0  0  0  0
 13  6  1  0  0  0  0
 13  2  2  0  0  0  0
 14 15  1  0  0  0  0
 15 21  1  0  0  0  0
 16  7  2  0  0  0  0
 16  9  1  0  0  0  0
 17  3  2  0  0  0  0
 17  4  1  0  0  0  0
 19 25  1  0  0  0  0
 19 20  1  0  0  0  0
 21 23  1  0  0  0  0
 21 24  2  0  0  0  0
 22 20  2  0  0  0  0
 23 19  2  0  0  0  0
 24 22  1  0  0  0  0
 26 27  2  0  0  0  0
 27 16  1  0  0  0  0
 29 26  1  1  0  0  0
 30 29  1  0  0  0  0
 30 28  1  1  0  0  0
 31 34  1  0  0  0  0
 32 31  1  0  0  0  0
 32 33  1  0  0  0  0
 33 29  1  0  0  0  0
 34 30  1  0  0  0  0
M  END
>  <MODEL>
2

>  <REMARK>
 VINA RESULT:      -9.7      3.442      8.975
  Name = 
  3 active torsions:
  status: ('A' for Active; 'I' for Inactive)
    1  A    between atoms: N_3  and  C_13
    2  A    between atoms: C_12  and  C_28
    3  A    between atoms: N_17  and  C_29
                            x       y       z     vdW  Elec       q    Type
                         _______ _______ _______ _____ _____    ______ ____

>  <TORSDO>
F 3

$$$$
=
 OpenBabel10252414503D

 34 39  0  0  1  0  0  0  0  0999 V2000
  188.5840  177.1290  145.3750 C   0  0  0  0  0  0  0  0  0  0  0  0
  190.2010  176.3920  143.6450 C   0  0  0  0  0  3  0  0  0  0  0  0
  187.9190  177.4420  143.0360 C   0  0  0  0  0  0  0  0  0  0  0  0
  187.2960  178.1010  140.7960 C   0  0  0  0  0  0  0  0  0  0  0  0
  190.7810  177.4230  146.4720 C   0  0  0  0  0  3  0  0  0  0  0  0
  191.6490  177.3090  145.4680 C   0  0  0  0  0  3  0  0  0  0  0  0
  189.4980  177.4310  141.0610 C   0  0  0  0  0  3  0  0  0  0  0  0
  188.9090  176.9890  144.0710 C   0  0  0  0  0  0  0  0  0  0  0  0
  187.9200  178.2730  139.2500 S   0  0  0  0  0  0  0  0  0  0  0  0
  189.4830  176.6890  146.4860 C   0  0  0  0  0  2  0  0  0  0  0  0
  186.5930  177.7630  143.4360 C   0  0  0  0  0  0  0  0  0  0  0  0
  187.3470  177.6700  145.7320 O   0  0  0  0  0  0  0  0  0  0  0  0
  191.3920  176.5370  144.2400 C   0  0  0  0  0  3  0  0  0  0  0  0
  186.0320  178.3850  141.1780 N   0  0  0  0  0  0  0  0  0  0  0  0
  185.6410  178.2170  142.4730 C   0  0  0  0  0  0  0  0  0  0  0  0
  189.4600  177.7430  139.7060 C   0  0  0  0  0  0  0  0  0  0  0  0
  188.2530  177.6330  141.6780 C   0  0  0  0  0  0  0  0  0  0  0  0
  186.2120  177.5800  144.8770 C   0  0  0  0  0  2  0  0  0  0  0  0
  181.9060  178.8810  142.1710 C   0  0  0  0  0  0  0  0  0  0  0  0
  181.5900  179.2340  143.4840 C   0  0  0  0  0  3  0  0  0  0  0  0
  184.2300  178.5360  142.8090 C   0  0  0  0  0  0  0  0  0  0  0  0
  182.5890  179.2470  144.4610 C   0  0  0  0  0  3  0  0  0  0  0  0
  183.2190  178.5410  141.8340 C   0  0  0  0  0  3  0  0  0  0  0  0
  183.9020  178.9050  144.1240 C   0  0  0  0  0  3  0  0  0  0  0  0
  180.9400  178.8730  141.2200 F   0  0  0  0  0  0  0  0  0  0  0  0
  190.7420  176.6100  138.0940 N   0  0  0  0  0  0  0  0  0  0  0  0
  190.5830  177.6310  138.8330 N   0  0  0  0  0  0  0  0  0  0  0  0
  193.6140  176.5750  139.0190 C   0  0  0  0  0  1  0  0  0  0  0  0
  191.8910  176.5100  137.2100 C   0  0  1  0  0  3  0  0  0  0  0  0
  193.0190  175.7390  137.9020 C   0  0  1  0  0  3  0  0  0  0  0  0
  193.5800  174.6440  135.8340 O   0  0  0  0  0  0  0  0  0  0  0  0
  192.7390  175.4950  135.0950 C   0  0  0  0  0  2  0  0  0  0  0  0
  191.4860  175.8150  135.9070 C   0  0  0  0  0  2  0  0  0  0  0  0
  194.1120  175.4150  136.8830 C   0  0  0  0  0  2  0  0  0  0  0  0
  1 12  1  0  0  0  0
  1 10  1  0  0  0  0
  2  8  1  0  0  0  0
  2 13  2  0  0  0  0
  3 11  1  0  0  0  0
  3  8  1  0  0  0  0
  4 14  2  0  0  0  0
  4 17  1  0  0  0  0
  5 10  1  0  0  0  0
  6  5  2  0  0  0  0
  7 17  1  0  0  0  0
  8  1  2  0  0  0  0
  9 16  1  0  0  0  0
  9  4  1  0  0  0  0
 11 18  1  0  0  0  0
 13  6  1  0  0  0  0
 14 15  1  0  0  0  0
 15 21  1  0  0  0  0
 15 11  2  0  0  0  0
 16  7  2  0  0  0  0
 17  3  2  0  0  0  0
 18 12  1  0  0  0  0
 19 20  1  0  0  0  0
 20 22  2  0  0  0  0
 21 24  2  0  0  0  0
 23 19  2  0  0  0  0
 23 21  1  0  0  0  0
 24 22  1  0  0  0  0
 25 19  1  0  0  0  0
 26 27  2  0  0  0  0
 27 16  1  0  0  0  0
 29 30  1  0  0  0  0
 29 26  1  1  0  0  0
 30 28  1  1  0  0  0
 31 34  1  0  0  0  0
 32 31  1  0  0  0  0
 32 33  1  0  0  0  0
 33 29  1  0  0  0  0
 34 30  1  0  0  0  0
M  END
>  <MODEL>
3

>  <REMARK>
 VINA RESULT:      -9.6      3.110      8.643
  Name = 
  3 active torsions:
  status: ('A' for Active; 'I' for Inactive)
    1  A    between atoms: N_3  and  C_13
    2  A    between atoms: C_12  and  C_28
    3  A    between atoms: N_17  and  C_29
                            x       y       z     vdW  Elec       q    Type
                         _______ _______ _______ _____ _____    ______ ____

>  <TORSDO>
F 3

$$$$
=
 OpenBabel10252414503D

 34 39  0  0  1  0  0  0  0  0999 V2000
  185.8940  178.4460  144.7900 C   0  0  0  0  0  0  0  0  0  0  0  0
  185.8550  179.1290  142.4060 C   0  0  0  0  0  3  0  0  0  0  0  0
  187.8940  177.9470  143.4650 C   0  0  0  0  0  0  0  0  0  0  0  0
  189.7740  177.1120  142.1960 C   0  0  0  0  0  0  0  0  0  0  0  0
  183.4980  178.3180  144.1890 C   0  0  0  0  0  3  0  0  0  0  0  0
  183.5040  178.3990  142.8600 C   0  0  0  0  0  3  0  0  0  0  0  0
  187.9890  177.8880  140.9380 C   0  0  0  0  0  3  0  0  0  0  0  0
  186.5080  178.5090  143.5890 C   0  0  0  0  0  0  0  0  0  0  0  0
  190.2960  176.8600  140.6220 S   0  0  0  0  0  0  0  0  0  0  0  0
  184.5250  178.9970  145.0310 C   0  0  0  0  0  2  0  0  0  0  0  0
  188.6120  177.5990  144.6420 C   0  0  0  0  0  0  0  0  0  0  0  0
  186.5540  177.8800  145.8830 O   0  0  0  0  0  0  0  0  0  0  0  0
  184.5570  179.0740  142.0810 C   0  0  0  0  0  3  0  0  0  0  0  0
  190.4590  176.8020  143.3180 N   0  0  0  0  0  0  0  0  0  0  0  0
  189.9230  177.0420  144.5490 C   0  0  0  0  0  0  0  0  0  0  0  0
  188.8770  177.4840  139.9470 C   0  0  0  0  0  0  0  0  0  0  0  0
  188.5120  177.6780  142.2240 C   0  0  0  0  0  0  0  0  0  0  0  0
  187.9750  177.8640  145.9760 C   0  0  0  0  0  2  0  0  0  0  0  0
  191.5410  177.1260  147.9920 C   0  0  0  0  0  0  0  0  0  0  0  0
  192.3920  176.0220  147.9140 C   0  0  0  0  0  3  0  0  0  0  0  0
  190.7460  176.6880  145.7330 C   0  0  0  0  0  0  0  0  0  0  0  0
  192.4310  175.2530  146.7480 C   0  0  0  0  0  3  0  0  0  0  0  0
  190.7290  177.4610  146.9050 C   0  0  0  0  0  3  0  0  0  0  0  0
  191.6160  175.5880  145.6630 C   0  0  0  0  0  3  0  0  0  0  0  0
  191.5080  177.8780  149.1190 F   0  0  0  0  0  0  0  0  0  0  0  0
  188.0000  176.6520  137.9310 N   0  0  0  0  0  0  0  0  0  0  0  0
  188.6050  177.5820  138.5490 N   0  0  0  0  0  0  0  0  0  0  0  0
  187.1460  174.3590  136.1640 C   0  0  0  0  0  1  0  0  0  0  0  0
  187.7290  176.7650  136.5070 C   0  0  1  0  0  3  0  0  0  0  0  0
  186.6270  175.7820  136.1040 C   0  0  1  0  0  3  0  0  0  0  0  0
  185.6890  177.4070  134.5960 O   0  0  0  0  0  0  0  0  0  0  0  0
  186.8060  178.2530  134.7310 C   0  0  0  0  0  2  0  0  0  0  0  0
  187.3210  178.2010  136.1680 C   0  0  0  0  0  2  0  0  0  0  0  0
  186.1720  176.0880  134.6760 C   0  0  0  0  0  2  0  0  0  0  0  0
  1 10  1  0  0  0  0
  1 12  1  0  0  0  0
  2  8  1  0  0  0  0
  3  8  1  0  0  0  0
  3 11  1  0  0  0  0
  4 17  1  0  0  0  0
  4 14  2  0  0  0  0
  5 10  1  0  0  0  0
  6  5  2  0  0  0  0
  7 17  1  0  0  0  0
  8  1  2  0  0  0  0
  9  4  1  0  0  0  0
 11 18  1  0  0  0  0
 12 18  1  0  0  0  0
 13  2  2  0  0  0  0
 13  6  1  0  0  0  0
 14 15  1  0  0  0  0
 15 11  2  0  0  0  0
 15 21  1  0  0  0  0
 16  9  1  0  0  0  0
 16  7  2  0  0  0  0
 17  3  2  0  0  0  0
 19 25  1  0  0  0  0
 20 19  1  0  0  0  0
 21 23  1  0  0  0  0
 22 20  2  0  0  0  0
 23 19  2  0  0  0  0
 24 21  2  0  0  0  0
 24 22  1  0  0  0  0
 26 27  2  0  0  0  0
 27 16  1  0  0  0  0
 29 26  1  1  0  0  0
 30 28  1  6  0  0  0
 30 29  1  0  0  0  0
 31 34  1  0  0  0  0
 31 32  1  0  0  0  0
 32 33  1  0  0  0  0
 33 29  1  0  0  0  0
 34 30  1  0  0  0  0
M  END
>  <MODEL>
4

>  <REMARK>
 VINA RESULT:      -9.2      4.022      6.953
  Name = 
  3 active torsions:
  status: ('A' for Active; 'I' for Inactive)
    1  A    between atoms: N_3  and  C_13
    2  A    between atoms: C_12  and  C_28
    3  A    between atoms: N_17  and  C_29
                            x       y       z     vdW  Elec       q    Type
                         _______ _______ _______ _____ _____    ______ ____

>  <TORSDO>
F 3

$$$$
=
 OpenBabel10252414503D

 34 39  0  0  1  0  0  0  0  0999 V2000
  185.1200  178.5580  140.5780 C   0  0  0  0  0  0  0  0  0  0  0  0
  186.8620  178.5930  138.8120 C   0  0  0  0  0  3  0  0  0  0  0  0
  187.4150  178.0580  141.2790 C   0  0  0  0  0  0  0  0  0  0  0  0
  189.5600  177.2340  142.0290 C   0  0  0  0  0  0  0  0  0  0  0  0
  183.8880  177.9040  138.5350 C   0  0  0  0  0  3  0  0  0  0  0  0
  184.8560  177.6420  137.6580 C   0  0  0  0  0  3  0  0  0  0  0  0
  189.2940  177.3710  139.7310 C   0  0  0  0  0  3  0  0  0  0  0  0
  186.4130  178.4080  140.2170 C   0  0  0  0  0  0  0  0  0  0  0  0
  191.0320  176.6740  141.4540 S   0  0  0  0  0  0  0  0  0  0  0  0
  184.0460  178.9290  139.6070 C   0  0  0  0  0  2  0  0  0  0  0  0
  187.0360  178.1410  142.6470 C   0  0  0  0  0  0  0  0  0  0  0  0
  184.7460  178.4010  141.9140 O   0  0  0  0  0  0  0  0  0  0  0  0
  186.1950  178.2530  137.7020 C   0  0  0  0  0  3  0  0  0  0  0  0
  189.2010  177.3340  143.3270 N   0  0  0  0  0  0  0  0  0  0  0  0
  187.9650  177.7920  143.6740 C   0  0  0  0  0  0  0  0  0  0  0  0
  190.5870  176.8720  139.8350 C   0  0  0  0  0  0  0  0  0  0  0  0
  188.7130  177.5820  140.9920 C   0  0  0  0  0  0  0  0  0  0  0  0
  185.6580  178.6340  142.9820 C   0  0  0  0  0  2  0  0  0  0  0  0
  186.1040  178.3070  146.9540 C   0  0  0  0  0  0  0  0  0  0  0  0
  187.1390  178.1440  147.8770 C   0  0  0  0  0  3  0  0  0  0  0  0
  187.6530  177.8880  145.1230 C   0  0  0  0  0  0  0  0  0  0  0  0
  188.4330  177.8620  147.4300 C   0  0  0  0  0  3  0  0  0  0  0  0
  186.3610  178.1870  145.5860 C   0  0  0  0  0  3  0  0  0  0  0  0
  188.6880  177.7400  146.0610 C   0  0  0  0  0  3  0  0  0  0  0  0
  184.8500  178.5870  147.3850 F   0  0  0  0  0  0  0  0  0  0  0  0
  191.5700  175.3680  138.3200 N   0  0  0  0  0  0  0  0  0  0  0  0
  191.4120  176.5660  138.7120 N   0  0  0  0  0  0  0  0  0  0  0  0
  190.7060  175.6460  135.4410 C   0  0  0  0  0  1  0  0  0  0  0  0
  192.4140  175.0700  137.1740 C   0  0  1  0  0  3  0  0  0  0  0  0
  192.0660  176.0030  136.0110 C   0  0  1  0  0  3  0  0  0  0  0  0
  194.3930  176.1820  135.4210 O   0  0  0  0  0  0  0  0  0  0  0  0
  194.7490  175.1450  136.3020 C   0  0  0  0  0  2  0  0  0  0  0  0
  193.8880  175.2180  137.5610 C   0  0  0  0  0  2  0  0  0  0  0  0
  193.1210  175.8600  134.9130 C   0  0  0  0  0  2  0  0  0  0  0  0
  1 12  1  0  0  0  0
  2  8  1  0  0  0  0
  3 11  1  0  0  0  0
  4 14  2  0  0  0  0
  5 10  1  0  0  0  0
  6 13  1  0  0  0  0
  6  5  2  0  0  0  0
  7 16  2  0  0  0  0
  7 17  1  0  0  0  0
  8  1  2  0  0  0  0
  8  3  1  0  0  0  0
  9  4  1  0  0  0  0
 10  1  1  0  0  0  0
 11 18  1  0  0  0  0
 11 15  2  0  0  0  0
 12 18  1  0  0  0  0
 13  2  2  0  0  0  0
 14 15  1  0  0  0  0
 15 21  1  0  0  0  0
 16  9  1  0  0  0  0
 17  3  2  0  0  0  0
 17  4  1  0  0  0  0
 19 25  1  0  0  0  0
 19 20  1  0  0  0  0
 21 23  1  0  0  0  0
 21 24  2  0  0  0  0
 22 20  2  0  0  0  0
 23 19  2  0  0  0  0
 24 22  1  0  0  0  0
 26 27  2  0  0  0  0
 27 16  1  0  0  0  0
 29 33  1  0  0  0  0
 29 26  1  1  0  0  0
 30 28  1  6  0  0  0
 30 29  1  0  0  0  0
 31 32  1  0  0  0  0
 32 33  1  0  0  0  0
 34 31  1  0  0  0  0
 34 30  1  0  0  0  0
M  END
>  <MODEL>
5

>  <REMARK>
 VINA RESULT:      -9.2      3.879      9.487
  Name = 
  3 active torsions:
  status: ('A' for Active; 'I' for Inactive)
    1  A    between atoms: N_3  and  C_13
    2  A    between atoms: C_12  and  C_28
    3  A    between atoms: N_17  and  C_29
                            x       y       z     vdW  Elec       q    Type
                         _______ _______ _______ _____ _____    ______ ____

>  <TORSDO>
F 3

$$$$
=
 OpenBabel10252414503D

 34 39  0  0  1  0  0  0  0  0999 V2000
  188.4530  177.7400  144.5810 C   0  0  0  0  0  0  0  0  0  0  0  0
  186.3050  178.9670  144.4010 C   0  0  0  0  0  3  0  0  0  0  0  0
  187.6160  178.1760  142.3190 C   0  0  0  0  0  0  0  0  0  0  0  0
  186.7400  178.2530  140.0680 C   0  0  0  0  0  0  0  0  0  0  0  0
  187.2460  177.1010  146.6430 C   0  0  0  0  0  3  0  0  0  0  0  0
  186.0010  177.5160  146.4170 C   0  0  0  0  0  3  0  0  0  0  0  0
  185.2320  178.7910  141.7430 C   0  0  0  0  0  3  0  0  0  0  0  0
  187.4820  178.2760  143.8110 C   0  0  0  0  0  0  0  0  0  0  0  0
  185.3340  178.5670  139.2100 S   0  0  0  0  0  0  0  0  0  0  0  0
  188.4330  177.8040  146.0740 C   0  0  0  0  0  2  0  0  0  0  0  0
  188.8540  177.7560  141.7580 C   0  0  0  0  0  0  0  0  0  0  0  0
  189.5560  177.1230  143.9850 O   0  0  0  0  0  0  0  0  0  0  0  0
  185.6550  178.6340  145.5230 C   0  0  0  0  0  3  0  0  0  0  0  0
  187.9230  177.8740  139.5400 N   0  0  0  0  0  0  0  0  0  0  0  0
  188.9980  177.6320  140.3440 C   0  0  0  0  0  0  0  0  0  0  0  0
  184.4430  178.9170  140.6040 C   0  0  0  0  0  0  0  0  0  0  0  0
  186.5480  178.4160  141.4280 C   0  0  0  0  0  0  0  0  0  0  0  0
  190.0050  177.4840  142.6830 C   0  0  0  0  0  2  0  0  0  0  0  0
  192.7000  177.1280  139.6180 C   0  0  0  0  0  0  0  0  0  0  0  0
  192.6470  176.5420  138.3520 C   0  0  0  0  0  3  0  0  0  0  0  0
  190.2690  177.2350  139.6850 C   0  0  0  0  0  0  0  0  0  0  0  0
  191.4100  176.3070  137.7440 C   0  0  0  0  0  3  0  0  0  0  0  0
  191.5190  177.4790  140.2770 C   0  0  0  0  0  3  0  0  0  0  0  0
  190.2290  176.6570  138.4050 C   0  0  0  0  0  3  0  0  0  0  0  0
  193.8980  177.3620  140.2050 F   0  0  0  0  0  0  0  0  0  0  0  0
  182.2390  178.6920  141.3890 N   0  0  0  0  0  0  0  0  0  0  0  0
  183.0660  179.2870  140.6290 N   0  0  0  0  0  0  0  0  0  0  0  0
  180.4680  178.6080  143.8310 C   0  0  0  0  0  1  0  0  0  0  0  0
  180.8390  179.0790  141.4040 C   0  0  1  0  0  3  0  0  0  0  0  0
  180.4770  179.6850  142.7630 C   0  0  1  0  0  3  0  0  0  0  0  0
  179.0720  181.3210  141.6930 O   0  0  0  0  0  0  0  0  0  0  0  0
  179.1620  180.6620  140.4540 C   0  0  0  0  0  2  0  0  0  0  0  0
  180.5630  180.0790  140.2790 C   0  0  0  0  0  2  0  0  0  0  0  0
  179.0890  180.3200  142.6830 C   0  0  0  0  0  2  0  0  0  0  0  0
  1 10  1  0  0  0  0
  2 13  2  0  0  0  0
  3  8  1  0  0  0  0
  4 17  1  0  0  0  0
  6  5  2  0  0  0  0
  8  2  1  0  0  0  0
  8  1  2  0  0  0  0
  9  4  1  0  0  0  0
  9 16  1  0  0  0  0
 10  5  1  0  0  0  0
 11  3  1  0  0  0  0
 11 18  1  0  0  0  0
 12  1  1  0  0  0  0
 13  6  1  0  0  0  0
 14  4  2  0  0  0  0
 14 15  1  0  0  0  0
 15 11  2  0  0  0  0
 16 27  1  0  0  0  0
 16  7  2  0  0  0  0
 17  7  1  0  0  0  0
 17  3  2  0  0  0  0
 18 12  1  0  0  0  0
 19 25  1  0  0  0  0
 19 23  1  0  0  0  0
 20 19  2  0  0  0  0
 21 23  2  0  0  0  0
 21 15  1  0  0  0  0
 22 20  1  0  0  0  0
 22 24  2  0  0  0  0
 24 21  1  0  0  0  0
 27 26  2  0  0  0  0
 29 26  1  1  0  0  0
 29 30  1  0  0  0  0
 30 28  1  1  0  0  0
 31 34  1  0  0  0  0
 32 31  1  0  0  0  0
 33 32  1  0  0  0  0
 33 29  1  0  0  0  0
 34 30  1  0  0  0  0
M  END
>  <MODEL>
6

>  <REMARK>
 VINA RESULT:      -8.9      1.613      2.422
  Name = 
  3 active torsions:
  status: ('A' for Active; 'I' for Inactive)
    1  A    between atoms: N_3  and  C_13
    2  A    between atoms: C_12  and  C_28
    3  A    between atoms: N_17  and  C_29
                            x       y       z     vdW  Elec       q    Type
                         _______ _______ _______ _____ _____    ______ ____

>  <TORSDO>
F 3

$$$$
=
 OpenBabel10252414503D

 34 39  0  0  1  0  0  0  0  0999 V2000
  189.1600  177.8430  139.8190 C   0  0  0  0  0  0  0  0  0  0  0  0
  186.8710  177.7920  138.8640 C   0  0  0  0  0  3  0  0  0  0  0  0
  187.2960  177.9270  141.4100 C   0  0  0  0  0  0  0  0  0  0  0  0
  185.5650  178.3460  143.0430 C   0  0  0  0  0  0  0  0  0  0  0  0
  189.4310  178.9150  137.6060 C   0  0  0  0  0  3  0  0  0  0  0  0
  188.1790  179.1500  137.2180 C   0  0  0  0  0  3  0  0  0  0  0  0
  184.9130  178.5390  140.8280 C   0  0  0  0  0  3  0  0  0  0  0  0
  187.8220  177.8580  140.0050 C   0  0  0  0  0  0  0  0  0  0  0  0
  183.9470  178.7660  143.1710 S   0  0  0  0  0  0  0  0  0  0  0  0
  189.7890  177.7500  138.4660 C   0  0  0  0  0  2  0  0  0  0  0  0
  188.1900  177.7250  142.4970 C   0  0  0  0  0  0  0  0  0  0  0  0
  190.0180  177.8780  140.9200 O   0  0  0  0  0  0  0  0  0  0  0  0
  187.0170  178.3590  137.6600 C   0  0  0  0  0  3  0  0  0  0  0  0
  186.4130  178.1320  144.0710 N   0  0  0  0  0  0  0  0  0  0  0  0
  187.7180  177.8080  143.8420 C   0  0  0  0  0  0  0  0  0  0  0  0
  183.7300  178.8380  141.4960 C   0  0  0  0  0  0  0  0  0  0  0  0
  185.9580  178.2530  141.7200 C   0  0  0  0  0  0  0  0  0  0  0  0
  189.6220  177.3880  142.1970 C   0  0  0  0  0  2  0  0  0  0  0  0
  190.7340  177.0340  146.0300 C   0  0  0  0  0  0  0  0  0  0  0  0
  190.1540  177.0490  147.3000 C   0  0  0  0  0  3  0  0  0  0  0  0
  188.5830  177.5730  145.0270 C   0  0  0  0  0  0  0  0  0  0  0  0
  188.7890  177.3170  147.4390 C   0  0  0  0  0  3  0  0  0  0  0  0
  189.9510  177.2880  144.9000 C   0  0  0  0  0  3  0  0  0  0  0  0
  188.0080  177.5720  146.3080 C   0  0  0  0  0  3  0  0  0  0  0  0
  192.0550  176.7680  145.8920 F   0  0  0  0  0  0  0  0  0  0  0  0
  182.4110  179.1250  139.5720 N   0  0  0  0  0  0  0  0  0  0  0  0
  182.5080  179.1680  140.8380 N   0  0  0  0  0  0  0  0  0  0  0  0
  181.7960  181.8130  138.3440 C   0  0  0  0  0  1  0  0  0  0  0  0
  181.1600  179.4640  138.9140 C   0  0  1  0  0  3  0  0  0  0  0  0
  181.4170  180.4580  137.7780 C   0  0  1  0  0  3  0  0  0  0  0  0
  179.7760  179.3570  136.4040 O   0  0  0  0  0  0  0  0  0  0  0  0
  179.3170  178.5810  137.4840 C   0  0  0  0  0  2  0  0  0  0  0  0
  180.4940  178.1940  138.3780 C   0  0  0  0  0  2  0  0  0  0  0  0
  180.1490  180.6050  136.9360 C   0  0  0  0  0  2  0  0  0  0  0  0
  1  8  2  0  0  0  0
  1 12  1  0  0  0  0
  2  8  1  0  0  0  0
  3 17  2  0  0  0  0
  3 11  1  0  0  0  0
  4  9  1  0  0  0  0
  4 14  2  0  0  0  0
  5 10  1  0  0  0  0
  6  5  2  0  0  0  0
  6 13  1  0  0  0  0
  7 16  2  0  0  0  0
  7 17  1  0  0  0  0
  8  3  1  0  0  0  0
 10  1  1  0  0  0  0
 11 15  2  0  0  0  0
 12 18  1  0  0  0  0
 13  2  2  0  0  0  0
 15 14  1  0  0  0  0
 15 21  1  0  0  0  0
 16  9  1  0  0  0  0
 17  4  1  0  0  0  0
 18 11  1  0  0  0  0
 19 20  1  0  0  0  0
 20 22  2  0  0  0  0
 21 24  2  0  0  0  0
 23 21  1  0  0  0  0
 23 19  2  0  0  0  0
 24 22  1  0  0  0  0
 25 19  1  0  0  0  0
 26 27  2  0  0  0  0
 27 16  1  0  0  0  0
 29 26  1  6  0  0  0
 30 28  1  1  0  0  0
 30 29  1  0  0  0  0
 31 34  1  0  0  0  0
 31 32  1  0  0  0  0
 32 33  1  0  0  0  0
 33 29  1  0  0  0  0
 34 30  1  0  0  0  0
M  END
>  <MODEL>
7

>  <REMARK>
 VINA RESULT:      -8.9      2.995      6.014
  Name = 
  3 active torsions:
  status: ('A' for Active; 'I' for Inactive)
    1  A    between atoms: N_3  and  C_13
    2  A    between atoms: C_12  and  C_28
    3  A    between atoms: N_17  and  C_29
                            x       y       z     vdW  Elec       q    Type
                         _______ _______ _______ _____ _____    ______ ____

>  <TORSDO>
F 3

$$$$
=
 OpenBabel10252414503D

 34 39  0  0  1  0  0  0  0  0999 V2000
  189.6300  177.5300  140.0190 C   0  0  0  0  0  0  0  0  0  0  0  0
  187.2610  177.6350  139.2930 C   0  0  0  0  0  3  0  0  0  0  0  0
  187.9420  177.7280  141.7850 C   0  0  0  0  0  0  0  0  0  0  0  0
  186.4100  178.2510  143.5800 C   0  0  0  0  0  0  0  0  0  0  0  0
  189.7530  178.5940  137.7890 C   0  0  0  0  0  3  0  0  0  0  0  0
  188.4870  178.9130  137.5250 C   0  0  0  0  0  3  0  0  0  0  0  0
  185.5580  178.4990  141.4390 C   0  0  0  0  0  3  0  0  0  0  0  0
  188.3210  177.6320  140.3350 C   0  0  0  0  0  0  0  0  0  0  0  0
  184.8440  178.7760  143.8660 S   0  0  0  0  0  0  0  0  0  0  0  0
  190.1170  177.4030  138.6110 C   0  0  0  0  0  2  0  0  0  0  0  0
  188.9220  177.4610  142.7790 C   0  0  0  0  0  0  0  0  0  0  0  0
  190.5930  177.5030  141.0300 O   0  0  0  0  0  0  0  0  0  0  0  0
  187.3240  178.1980  138.0800 C   0  0  0  0  0  3  0  0  0  0  0  0
  187.3400  177.9760  144.5200 N   0  0  0  0  0  0  0  0  0  0  0  0
  188.5910  177.5690  144.1640 C   0  0  0  0  0  0  0  0  0  0  0  0
  184.4690  178.8720  142.2200 C   0  0  0  0  0  0  0  0  0  0  0  0
  186.6650  178.1390  142.2250 C   0  0  0  0  0  0  0  0  0  0  0  0
  190.2930  177.0330  142.3400 C   0  0  0  0  0  2  0  0  0  0  0  0
  190.2710  177.4470  147.5770 C   0  0  0  0  0  0  0  0  0  0  0  0
  191.4440  176.7540  147.2720 C   0  0  0  0  0  3  0  0  0  0  0  0
  189.5510  177.2710  145.2580 C   0  0  0  0  0  0  0  0  0  0  0  0
  191.6800  176.3240  145.9640 C   0  0  0  0  0  3  0  0  0  0  0  0
  189.3340  177.7100  146.5740 C   0  0  0  0  0  3  0  0  0  0  0  0
  190.7410  176.5860  144.9620 C   0  0  0  0  0  3  0  0  0  0  0  0
  190.0440  177.8700  148.8440 F   0  0  0  0  0  0  0  0  0  0  0  0
  182.2110  178.5040  141.6840 N   0  0  0  0  0  0  0  0  0  0  0  0
  183.2130  179.2850  141.6850 N   0  0  0  0  0  0  0  0  0  0  0  0
  179.6880  178.8680  143.3000 C   0  0  0  0  0  1  0  0  0  0  0  0
  180.9370  178.9370  141.1350 C   0  0  1  0  0  3  0  0  0  0  0  0
  180.1720  179.7620  142.1750 C   0  0  1  0  0  3  0  0  0  0  0  0
  179.3920  181.2580  140.4580 O   0  0  0  0  0  0  0  0  0  0  0  0
  179.8560  180.4090  139.4360 C   0  0  0  0  0  2  0  0  0  0  0  0
  181.1690  179.7570  139.8640 C   0  0  0  0  0  2  0  0  0  0  0  0
  178.9660  180.4250  141.5090 C   0  0  0  0  0  2  0  0  0  0  0  0
  1  8  2  0  0  0  0
  1 12  1  0  0  0  0
  2  8  1  0  0  0  0
  3 17  2  0  0  0  0
  3 11  1  0  0  0  0
  4  9  1  0  0  0  0
  4 14  2  0  0  0  0
  5 10  1  0  0  0  0
  6  5  2  0  0  0  0
  6 13  1  0  0  0  0
  7 16  2  0  0  0  0
  7 17  1  0  0  0  0
  8  3  1  0  0  0  0
 10  1  1  0  0  0  0
 11 15  2  0  0  0  0
 12 18  1  0  0  0  0
 13  2  2  0  0  0  0
 15 14  1  0  0  0  0
 15 21  1  0  0  0  0
 16  9  1  0  0  0  0
 17  4  1  0  0  0  0
 18 11  1  0  0  0  0
 19 25  1  0  0  0  0
 20 19  1  0  0  0  0
 21 23  1  0  0  0  0
 22 20  2  0  0  0  0
 23 19  2  0  0  0  0
 24 21  2  0  0  0  0
 24 22  1  0  0  0  0
 26 27  2  0  0  0  0
 27 16  1  0  0  0  0
 29 26  1  1  0  0  0
 29 30  1  0  0  0  0
 30 28  1  1  0  0  0
 31 34  1  0  0  0  0
 32 33  1  0  0  0  0
 32 31  1  0  0  0  0
 33 29  1  0  0  0  0
 34 30  1  0  0  0  0
M  END
>  <MODEL>
8

>  <REMARK>
 VINA RESULT:      -8.9      2.848      5.657
  Name = 
  3 active torsions:
  status: ('A' for Active; 'I' for Inactive)
    1  A    between atoms: N_3  and  C_13
    2  A    between atoms: C_12  and  C_28
    3  A    between atoms: N_17  and  C_29
                            x       y       z     vdW  Elec       q    Type
                         _______ _______ _______ _____ _____    ______ ____

>  <TORSDO>
F 3

$$$$
=
 OpenBabel10252414503D

 34 39  0  0  1  0  0  0  0  0999 V2000
  188.6030  177.3700  143.9700 C   0  0  0  0  0  0  0  0  0  0  0  0
  190.4300  176.1550  142.8120 C   0  0  0  0  0  3  0  0  0  0  0  0
  188.5090  177.3070  141.5210 C   0  0  0  0  0  0  0  0  0  0  0  0
  188.4840  177.5950  139.1220 C   0  0  0  0  0  0  0  0  0  0  0  0
  190.5320  177.6320  145.4960 C   0  0  0  0  0  3  0  0  0  0  0  0
  191.5690  177.2410  144.7580 C   0  0  0  0  0  3  0  0  0  0  0  0
  190.4570  176.7580  140.0040 C   0  0  0  0  0  3  0  0  0  0  0  0
  189.1770  176.9550  142.8190 C   0  0  0  0  0  0  0  0  0  0  0  0
  189.4450  177.4070  137.7610 S   0  0  0  0  0  0  0  0  0  0  0  0
  189.1680  177.0540  145.3170 C   0  0  0  0  0  2  0  0  0  0  0  0
  187.1900  177.8350  141.5380 C   0  0  0  0  0  0  0  0  0  0  0  0
  187.4110  178.0960  143.9330 O   0  0  0  0  0  0  0  0  0  0  0  0
  191.4730  176.2830  143.6420 C   0  0  0  0  0  3  0  0  0  0  0  0
  187.2230  178.0780  139.1420 N   0  0  0  0  0  0  0  0  0  0  0  0
  186.5430  178.1980  140.3180 C   0  0  0  0  0  0  0  0  0  0  0  0
  190.7570  176.8120  138.6470 C   0  0  0  0  0  0  0  0  0  0  0  0
  189.1510  177.2030  140.2680 C   0  0  0  0  0  0  0  0  0  0  0  0
  186.4860  177.9680  142.8580 C   0  0  0  0  0  2  0  0  0  0  0  0
  182.9190  178.9700  141.1840 C   0  0  0  0  0  0  0  0  0  0  0  0
  182.5120  179.6600  140.0410 C   0  0  0  0  0  3  0  0  0  0  0  0
  185.1540  178.7220  140.2540 C   0  0  0  0  0  0  0  0  0  0  0  0
  183.4180  179.8770  138.9990 C   0  0  0  0  0  3  0  0  0  0  0  0
  184.2300  178.4980  141.2870 C   0  0  0  0  0  3  0  0  0  0  0  0
  184.7290  179.4050  139.1030 C   0  0  0  0  0  3  0  0  0  0  0  0
  182.0400  178.7530  142.1930 F   0  0  0  0  0  0  0  0  0  0  0  0
  192.1240  175.3620  137.4020 N   0  0  0  0  0  0  0  0  0  0  0  0
  192.0130  176.4210  138.0950 N   0  0  0  0  0  0  0  0  0  0  0  0
  193.0950  176.1220  134.6470 C   0  0  0  0  0  1  0  0  0  0  0  0
  193.4100  174.9750  136.8450 C   0  0  1  0  0  3  0  0  0  0  0  0
  193.9290  176.0730  135.9120 C   0  0  1  0  0  3  0  0  0  0  0  0
  196.1760  175.7230  136.7030 O   0  0  0  0  0  0  0  0  0  0  0  0
  195.8080  174.5500  137.3860 C   0  0  0  0  0  2  0  0  0  0  0  0
  194.4090  174.7130  137.9760 C   0  0  0  0  0  2  0  0  0  0  0  0
  195.3830  175.7780  135.5420 C   0  0  0  0  0  2  0  0  0  0  0  0
  1 10  1  0  0  0  0
  2  8  1  0  0  0  0
  2 13  2  0  0  0  0
  3 11  1  0  0  0  0
  3  8  1  0  0  0  0
  4 14  2  0  0  0  0
  4 17  1  0  0  0  0
  6  5  2  0  0  0  0
  7 17  1  0  0  0  0
  8  1  2  0  0  0  0
  9 16  1  0  0  0  0
  9  4  1  0  0  0  0
 10  5  1  0  0  0  0
 11 18  1  0  0  0  0
 12  1  1  0  0  0  0
 13  6  1  0  0  0  0
 14 15  1  0  0  0  0
 15 11  2  0  0  0  0
 16  7  2  0  0  0  0
 17  3  2  0  0  0  0
 18 12  1  0  0  0  0
 19 23  1  0  0  0  0
 19 25  1  0  0  0  0
 20 19  2  0  0  0  0
 21 15  1  0  0  0  0
 21 23  2  0  0  0  0
 22 24  2  0  0  0  0
 22 20  1  0  0  0  0
 24 21  1  0  0  0  0
 26 27  2  0  0  0  0
 27 16  1  0  0  0  0
 29 26  1  1  0  0  0
 29 33  1  0  0  0  0
 30 28  1  6  0  0  0
 30 29  1  0  0  0  0
 31 32  1  0  0  0  0
 32 33  1  0  0  0  0
 34 30  1  0  0  0  0
 34 31  1  0  0  0  0
M  END
>  <MODEL>
9

>  <REMARK>
 VINA RESULT:      -8.7      3.525      9.126
  Name = 
  3 active torsions:
  status: ('A' for Active; 'I' for Inactive)
    1  A    between atoms: N_3  and  C_13
    2  A    between atoms: C_12  and  C_28
    3  A    between atoms: N_17  and  C_29
                            x       y       z     vdW  Elec       q    Type
                         _______ _______ _______ _____ _____    ______ ____

>  <TORSDO>
F 3

$$$$
