=
 OpenBabel10262419533D

 25 27  0  0  1  0  0  0  0  0999 V2000
  185.7590  178.2260  144.9820 N   0  0  0  0  0  0  0  0  0  0  0  0
  187.0580  177.8220  145.0600 C   0  0  0  0  0  0  0  0  0  0  0  0
  185.6650  178.6680  147.3170 C   0  0  0  0  0  3  0  0  0  0  0  0
  184.8960  178.3230  143.9490 C   0  0  0  0  0  0  0  0  0  0  0  0
  186.9650  178.2670  147.4220 N   0  0  0  0  0  0  0  0  0  0  0  0
  183.7010  178.8070  144.4550 C   0  0  0  0  0  0  0  0  0  0  0  0
  189.0130  177.4320  146.4480 C   0  0  0  0  0  0  0  0  0  0  0  0
  189.7090  177.4350  147.7670 C   0  0  0  0  0  1  0  0  0  0  0  0
  187.7830  177.3880  143.9470 C   0  0  0  0  0  3  0  0  0  0  0  0
  185.0670  178.6390  146.0610 C   0  0  0  0  0  0  0  0  0  0  0  0
  183.7970  179.0060  145.7880 N   0  0  0  0  0  0  0  0  0  0  0  0
  189.6890  177.0170  145.3420 N   0  0  0  0  0  0  0  0  0  0  0  0
  189.1120  176.9910  144.1100 C   0  0  0  0  0  0  0  0  0  0  0  0
  187.6780  177.8460  146.3320 C   0  0  0  0  0  0  0  0  0  0  0  0
  181.5520  179.2990  143.0850 N   0  0  0  0  0  0  0  0  0  0  0  0
  182.5100  179.0790  143.6950 C   0  0  0  0  0  0  0  0  0  0  0  0
  185.6480  179.2970  141.8120 C   0  0  0  0  0  1  0  0  0  0  0  0
  185.2010  178.0300  142.5140 C   0  0  0  0  0  2  0  0  0  0  0  0
  189.8900  176.5070  142.9370 C   0  0  0  0  0  2  0  0  0  0  0  0
  189.0700  176.6750  141.6690 C   0  0  0  0  0  2  0  0  0  0  0  0
  189.7550  177.6420  140.7170 C   0  0  2  0  0  3  0  0  0  0  0  0
  188.7560  178.1430  139.6930 C   0  0  0  0  0  1  0  0  0  0  0  0
  190.9170  176.9970  140.0300 C   0  0  0  0  0  0  0  0  0  0  0  0
  190.7000  175.9160  139.1870 O   0  0  0  0  0  0  0  0  0  0  0  0
  192.0890  177.4210  140.2130 O   0  0  0  0  0  1  0  0  0  0  0  0
  1  2  1  0  0  0  0
  1 10  1  0  0  0  0
  2 14  1  0  0  0  0
  3  5  2  0  0  0  0
  4  6  2  0  0  0  0
  4  1  1  0  0  0  0
  6 11  1  0  0  0  0
  7  8  1  0  0  0  0
  9 13  1  0  0  0  0
  9  2  2  0  0  0  0
 10  3  1  0  0  0  0
 11 10  2  0  0  0  0
 12  7  1  0  0  0  0
 13 12  2  0  0  0  0
 14  7  2  0  0  0  0
 14  5  1  0  0  0  0
 15 16  3  0  0  0  0
 16  6  1  0  0  0  0
 17 18  1  0  0  0  0
 18  4  1  0  0  0  0
 19 13  1  0  0  0  0
 20 19  1  0  0  0  0
 21 22  1  6  0  0  0
 21 20  1  0  0  0  0
 23 25  1  0  0  0  0
 23 21  1  0  0  0  0
 24 23  2  0  0  0  0
M  END
>  <MODEL>
1

>  <REMARK>
 VINA RESULT:      -8.3      0.000      0.000
  Name = 
  6 active torsions:
  status: ('A' for Active; 'I' for Inactive)
    1  A    between atoms: C_2  and  C_21
    2  A    between atoms: C_5  and  C_22
    3  A    between atoms: C_6  and  C_15
    4  A    between atoms: C_6  and  C_23
    5  A    between atoms: C_10  and  C_11
    6  A    between atoms: C_15  and  C_21
                            x       y       z     vdW  Elec       q    Type
                         _______ _______ _______ _____ _____    ______ ____

>  <TORSDO>
F 6

$$$$
=
 OpenBabel10262419533D

 25 27  0  0  1  0  0  0  0  0999 V2000
  188.3150  177.5420  145.7420 N   0  0  0  0  0  0  0  0  0  0  0  0
  187.3800  177.8720  144.8060 C   0  0  0  0  0  0  0  0  0  0  0  0
  186.7900  177.9250  147.5260 C   0  0  0  0  0  3  0  0  0  0  0  0
  189.6020  177.1520  145.6440 C   0  0  0  0  0  0  0  0  0  0  0  0
  185.8370  178.2610  146.6100 N   0  0  0  0  0  0  0  0  0  0  0  0
  190.0670  176.9380  146.9310 C   0  0  0  0  0  0  0  0  0  0  0  0
  185.1110  178.5950  144.3280 C   0  0  0  0  0  0  0  0  0  0  0  0
  183.7420  178.9990  144.7620 C   0  0  0  0  0  1  0  0  0  0  0  0
  187.6460  177.8600  143.4340 C   0  0  0  0  0  3  0  0  0  0  0  0
  188.0500  177.5610  147.0620 C   0  0  0  0  0  0  0  0  0  0  0  0
  189.0950  177.1980  147.8340 N   0  0  0  0  0  0  0  0  0  0  0  0
  185.4050  178.5700  143.0000 N   0  0  0  0  0  0  0  0  0  0  0  0
  186.6330  178.2100  142.5380 C   0  0  0  0  0  0  0  0  0  0  0  0
  186.0950  178.2450  145.2650 C   0  0  0  0  0  0  0  0  0  0  0  0
  192.4490  176.1380  147.5790 N   0  0  0  0  0  0  0  0  0  0  0  0
  191.3880  176.4950  147.2910 C   0  0  0  0  0  0  0  0  0  0  0  0
  191.2190  178.1310  144.0600 C   0  0  0  0  0  1  0  0  0  0  0  0
  190.3610  176.9220  144.3750 C   0  0  0  0  0  2  0  0  0  0  0  0
  186.9090  178.2210  141.0760 C   0  0  0  0  0  2  0  0  0  0  0  0
  188.3680  178.5650  140.8270 C   0  0  0  0  0  2  0  0  0  0  0  0
  189.0050  177.5440  139.8990 C   0  0  2  0  0  3  0  0  0  0  0  0
  190.2510  176.9720  140.5460 C   0  0  0  0  0  1  0  0  0  0  0  0
  189.3440  178.1520  138.5750 C   0  0  0  0  0  0  0  0  0  0  0  0
  190.0610  177.4120  137.6440 O   0  0  0  0  0  0  0  0  0  0  0  0
  188.9910  179.3290  138.2980 O   0  0  0  0  0  1  0  0  0  0  0  0
  1 10  1  0  0  0  0
  2 14  1  0  0  0  0
  2  1  1  0  0  0  0
  4  1  1  0  0  0  0
  4  6  2  0  0  0  0
  5  3  2  0  0  0  0
  6 16  1  0  0  0  0
  6 11  1  0  0  0  0
  7  8  1  0  0  0  0
  7 14  2  0  0  0  0
  9  2  2  0  0  0  0
 10  3  1  0  0  0  0
 10 11  2  0  0  0  0
 12  7  1  0  0  0  0
 13 12  2  0  0  0  0
 13  9  1  0  0  0  0
 14  5  1  0  0  0  0
 16 15  3  0  0  0  0
 17 18  1  0  0  0  0
 18  4  1  0  0  0  0
 19 13  1  0  0  0  0
 20 19  1  0  0  0  0
 21 22  1  1  0  0  0
 21 20  1  0  0  0  0
 23 21  1  0  0  0  0
 24 23  2  0  0  0  0
 25 23  1  0  0  0  0
M  END
>  <MODEL>
2

>  <REMARK>
 VINA RESULT:      -8.2      1.744      4.952
  Name = 
  6 active torsions:
  status: ('A' for Active; 'I' for Inactive)
    1  A    between atoms: C_2  and  C_21
    2  A    between atoms: C_5  and  C_22
    3  A    between atoms: C_6  and  C_15
    4  A    between atoms: C_6  and  C_23
    5  A    between atoms: C_10  and  C_11
    6  A    between atoms: C_15  and  C_21
                            x       y       z     vdW  Elec       q    Type
                         _______ _______ _______ _____ _____    ______ ____

>  <TORSDO>
F 6

$$$$
=
 OpenBabel10262419533D

 25 27  0  0  1  0  0  0  0  0999 V2000
  186.9930  178.2930  141.8490 N   0  0  0  0  0  0  0  0  0  0  0  0
  186.4700  178.2880  143.1080 C   0  0  0  0  0  0  0  0  0  0  0  0
  184.9120  178.9360  140.8930 C   0  0  0  0  0  3  0  0  0  0  0  0
  188.2280  178.0280  141.3750 C   0  0  0  0  0  0  0  0  0  0  0  0
  184.3650  178.9380  142.1430 N   0  0  0  0  0  0  0  0  0  0  0  0
  188.1880  178.2010  140.0020 C   0  0  0  0  0  0  0  0  0  0  0  0
  184.5330  178.6240  144.5340 C   0  0  0  0  0  0  0  0  0  0  0  0
  183.0960  178.9680  144.7380 C   0  0  0  0  0  1  0  0  0  0  0  0
  187.2240  177.9640  144.2380 C   0  0  0  0  0  3  0  0  0  0  0  0
  186.2570  178.6030  140.7650 C   0  0  0  0  0  0  0  0  0  0  0  0
  186.9460  178.5610  139.6060 N   0  0  0  0  0  0  0  0  0  0  0  0
  185.2980  178.3040  145.6130 N   0  0  0  0  0  0  0  0  0  0  0  0
  186.6150  177.9840  145.4950 C   0  0  0  0  0  0  0  0  0  0  0  0
  185.1030  178.6240  143.2520 C   0  0  0  0  0  0  0  0  0  0  0  0
  190.1840  177.9080  138.3690 N   0  0  0  0  0  0  0  0  0  0  0  0
  189.2940  178.0380  139.0960 C   0  0  0  0  0  0  0  0  0  0  0  0
  189.5500  176.1780  142.3290 C   0  0  0  0  0  1  0  0  0  0  0  0
  189.4320  177.6830  142.1930 C   0  0  0  0  0  2  0  0  0  0  0  0
  187.4010  177.6200  146.7050 C   0  0  0  0  0  2  0  0  0  0  0  0
  188.7640  177.0880  146.2960 C   0  0  0  0  0  2  0  0  0  0  0  0
  189.6850  177.0010  147.5020 C   0  0  2  0  0  3  0  0  0  0  0  0
  189.4450  178.1880  148.4150 C   0  0  0  0  0  1  0  0  0  0  0  0
  191.1210  176.9550  147.0860 C   0  0  0  0  0  0  0  0  0  0  0  0
  192.1060  176.7500  148.0430 O   0  0  0  0  0  1  0  0  0  0  0  0
  191.4460  177.1030  145.8780 O   0  0  0  0  0  0  0  0  0  0  0  0
  1  2  1  0  0  0  0
  2 14  2  0  0  0  0
  2  9  1  0  0  0  0
  3  5  2  0  0  0  0
  4  1  1  0  0  0  0
  4 18  1  0  0  0  0
  5 14  1  0  0  0  0
  6  4  2  0  0  0  0
  7  8  1  0  0  0  0
  7 12  2  0  0  0  0
  9 13  2  0  0  0  0
 10  3  1  0  0  0  0
 10  1  1  0  0  0  0
 11  6  1  0  0  0  0
 11 10  2  0  0  0  0
 13 12  1  0  0  0  0
 13 19  1  0  0  0  0
 14  7  1  0  0  0  0
 15 16  3  0  0  0  0
 16  6  1  0  0  0  0
 18 17  1  0  0  0  0
 20 19  1  0  0  0  0
 20 21  1  0  0  0  0
 21 22  1  1  0  0  0
 23 21  1  0  0  0  0
 23 24  1  0  0  0  0
 25 23  2  0  0  0  0
M  END
>  <MODEL>
3

>  <REMARK>
 VINA RESULT:      -8.0      2.925      5.989
  Name = 
  6 active torsions:
  status: ('A' for Active; 'I' for Inactive)
    1  A    between atoms: C_2  and  C_21
    2  A    between atoms: C_5  and  C_22
    3  A    between atoms: C_6  and  C_15
    4  A    between atoms: C_6  and  C_23
    5  A    between atoms: C_10  and  C_11
    6  A    between atoms: C_15  and  C_21
                            x       y       z     vdW  Elec       q    Type
                         _______ _______ _______ _____ _____    ______ ____

>  <TORSDO>
F 6

$$$$
=
 OpenBabel10262419533D

 25 27  0  0  1  0  0  0  0  0999 V2000
  188.5250  177.4960  145.5120 N   0  0  0  0  0  0  0  0  0  0  0  0
  187.7200  177.7850  144.4500 C   0  0  0  0  0  0  0  0  0  0  0  0
  186.7470  177.8130  147.0580 C   0  0  0  0  0  3  0  0  0  0  0  0
  189.8290  177.1620  145.6000 C   0  0  0  0  0  0  0  0  0  0  0  0
  185.9210  178.1080  146.0130 N   0  0  0  0  0  0  0  0  0  0  0  0
  190.1150  176.9690  146.9420 C   0  0  0  0  0  0  0  0  0  0  0  0
  185.5140  178.4090  143.6490 C   0  0  0  0  0  0  0  0  0  0  0  0
  184.0810  178.7530  143.8810 C   0  0  0  0  0  1  0  0  0  0  0  0
  188.1800  177.7830  143.1300 C   0  0  0  0  0  3  0  0  0  0  0  0
  188.0750  177.5040  146.7800 C   0  0  0  0  0  0  0  0  0  0  0  0
  189.0140  177.1870  147.6960 N   0  0  0  0  0  0  0  0  0  0  0  0
  185.9950  178.3960  142.3760 N   0  0  0  0  0  0  0  0  0  0  0  0
  187.2910  178.0890  142.0970 C   0  0  0  0  0  0  0  0  0  0  0  0
  186.3680  178.1020  144.7190 C   0  0  0  0  0  0  0  0  0  0  0  0
  192.4120  176.2740  147.9280 N   0  0  0  0  0  0  0  0  0  0  0  0
  191.3880  176.5830  147.4890 C   0  0  0  0  0  0  0  0  0  0  0  0
  191.5710  178.2300  144.2200 C   0  0  0  0  0  1  0  0  0  0  0  0
  190.7710  176.9640  144.4540 C   0  0  0  0  0  2  0  0  0  0  0  0
  187.7720  178.1110  140.6890 C   0  0  0  0  0  2  0  0  0  0  0  0
  189.2540  177.7830  140.6430 C   0  0  0  0  0  2  0  0  0  0  0  0
  189.7090  177.5750  139.2080 C   0  0  2  0  0  3  0  0  0  0  0  0
  188.5730  176.9910  138.3920 C   0  0  0  0  0  1  0  0  0  0  0  0
  190.9050  176.6780  139.1420 C   0  0  0  0  0  0  0  0  0  0  0  0
  190.7640  175.3820  138.6640 O   0  0  0  0  0  0  0  0  0  0  0  0
  192.0360  177.0840  139.5210 O   0  0  0  0  0  1  0  0  0  0  0  0
  1  4  1  0  0  0  0
  1 10  1  0  0  0  0
  2 14  1  0  0  0  0
  2  1  1  0  0  0  0
  4  6  2  0  0  0  0
  5  3  2  0  0  0  0
  6 16  1  0  0  0  0
  6 11  1  0  0  0  0
  7  8  1  0  0  0  0
  7 14  2  0  0  0  0
  9  2  2  0  0  0  0
 10  3  1  0  0  0  0
 10 11  2  0  0  0  0
 12  7  1  0  0  0  0
 13 12  2  0  0  0  0
 13  9  1  0  0  0  0
 14  5  1  0  0  0  0
 16 15  3  0  0  0  0
 17 18  1  0  0  0  0
 18  4  1  0  0  0  0
 19 13  1  0  0  0  0
 20 19  1  0  0  0  0
 21 22  1  6  0  0  0
 21 20  1  0  0  0  0
 23 21  1  0  0  0  0
 23 25  1  0  0  0  0
 24 23  2  0  0  0  0
M  END
>  <MODEL>
4

>  <REMARK>
 VINA RESULT:      -7.9      1.600      4.883
  Name = 
  6 active torsions:
  status: ('A' for Active; 'I' for Inactive)
    1  A    between atoms: C_2  and  C_21
    2  A    between atoms: C_5  and  C_22
    3  A    between atoms: C_6  and  C_15
    4  A    between atoms: C_6  and  C_23
    5  A    between atoms: C_10  and  C_11
    6  A    between atoms: C_15  and  C_21
                            x       y       z     vdW  Elec       q    Type
                         _______ _______ _______ _____ _____    ______ ____

>  <TORSDO>
F 6

$$$$
=
 OpenBabel10262419533D

 25 27  0  0  1  0  0  0  0  0999 V2000
  189.8520  177.5730  142.4270 N   0  0  0  0  0  0  0  0  0  0  0  0
  188.8830  177.9090  141.5280 C   0  0  0  0  0  0  0  0  0  0  0  0
  191.4370  177.1730  140.6990 C   0  0  0  0  0  3  0  0  0  0  0  0
  189.8610  177.5080  143.7740 C   0  0  0  0  0  0  0  0  0  0  0  0
  190.4840  177.5030  139.7800 N   0  0  0  0  0  0  0  0  0  0  0  0
  191.1310  177.1160  144.1590 C   0  0  0  0  0  0  0  0  0  0  0  0
  188.2440  178.2050  139.2040 C   0  0  0  0  0  0  0  0  0  0  0  0
  188.5480  178.1750  137.7440 C   0  0  0  0  0  1  0  0  0  0  0  0
  187.5910  178.2780  141.9130 C   0  0  0  0  0  3  0  0  0  0  0  0
  191.0930  177.2150  142.0470 C   0  0  0  0  0  0  0  0  0  0  0  0
  191.9160  176.9240  143.0760 N   0  0  0  0  0  0  0  0  0  0  0  0
  186.9960  178.5610  139.6140 N   0  0  0  0  0  0  0  0  0  0  0  0
  186.6550  178.6090  140.9300 C   0  0  0  0  0  0  0  0  0  0  0  0
  189.2190  177.8690  140.1550 C   0  0  0  0  0  0  0  0  0  0  0  0
  191.9540  176.7930  146.6000 N   0  0  0  0  0  0  0  0  0  0  0  0
  191.5880  176.9370  145.5120 C   0  0  0  0  0  0  0  0  0  0  0  0
  187.7690  176.6980  144.7980 C   0  0  0  0  0  1  0  0  0  0  0  0
  188.7270  177.8670  144.6830 C   0  0  0  0  0  2  0  0  0  0  0  0
  185.2690  178.9840  141.3240 C   0  0  0  0  0  2  0  0  0  0  0  0
  185.2580  179.4920  142.7560 C   0  0  0  0  0  2  0  0  0  0  0  0
  184.2740  178.6930  143.5960 C   0  0  2  0  0  3  0  0  0  0  0  0
  182.8580  178.9920  143.1440 C   0  0  0  0  0  1  0  0  0  0  0  0
  184.4260  179.0030  145.0510 C   0  0  0  0  0  0  0  0  0  0  0  0
  185.6680  179.3790  145.5460 O   0  0  0  0  0  0  0  0  0  0  0  0
  183.4420  178.9220  145.8330 O   0  0  0  0  0  1  0  0  0  0  0  0
  1  4  1  0  0  0  0
  2  9  1  0  0  0  0
  2  1  1  0  0  0  0
  3 10  1  0  0  0  0
  4  6  2  0  0  0  0
  4 18  1  0  0  0  0
  5 14  1  0  0  0  0
  5  3  2  0  0  0  0
  6 16  1  0  0  0  0
  7 12  2  0  0  0  0
  7 14  1  0  0  0  0
  8  7  1  0  0  0  0
 10  1  1  0  0  0  0
 10 11  2  0  0  0  0
 11  6  1  0  0  0  0
 12 13  1  0  0  0  0
 13 19  1  0  0  0  0
 13  9  2  0  0  0  0
 14  2  2  0  0  0  0
 16 15  3  0  0  0  0
 18 17  1  0  0  0  0
 19 20  1  0  0  0  0
 20 21  1  0  0  0  0
 21 22  1  6  0  0  0
 21 23  1  0  0  0  0
 23 24  2  0  0  0  0
 23 25  1  0  0  0  0
M  END
>  <MODEL>
5

>  <REMARK>
 VINA RESULT:      -7.8      3.679      7.270
  Name = 
  6 active torsions:
  status: ('A' for Active; 'I' for Inactive)
    1  A    between atoms: C_2  and  C_21
    2  A    between atoms: C_5  and  C_22
    3  A    between atoms: C_6  and  C_15
    4  A    between atoms: C_6  and  C_23
    5  A    between atoms: C_10  and  C_11
    6  A    between atoms: C_15  and  C_21
                            x       y       z     vdW  Elec       q    Type
                         _______ _______ _______ _____ _____    ______ ____

>  <TORSDO>
F 6

$$$$
=
 OpenBabel10262419533D

 25 27  0  0  1  0  0  0  0  0999 V2000
  186.5090  178.1830  142.4100 N   0  0  0  0  0  0  0  0  0  0  0  0
  187.8150  177.8260  142.2490 C   0  0  0  0  0  0  0  0  0  0  0  0
  186.2540  178.6290  140.0880 C   0  0  0  0  0  3  0  0  0  0  0  0
  185.7100  178.2430  143.4950 C   0  0  0  0  0  0  0  0  0  0  0  0
  187.5590  178.2780  139.9000 N   0  0  0  0  0  0  0  0  0  0  0  0
  184.4630  178.6670  143.0650 C   0  0  0  0  0  0  0  0  0  0  0  0
  189.6950  177.5220  140.7410 C   0  0  0  0  0  0  0  0  0  0  0  0
  190.3090  177.5640  139.3830 C   0  0  0  0  0  1  0  0  0  0  0  0
  188.6260  177.4230  143.3130 C   0  0  0  0  0  3  0  0  0  0  0  0
  185.7370  178.5740  141.3790 C   0  0  0  0  0  0  0  0  0  0  0  0
  184.4710  178.8820  141.7300 N   0  0  0  0  0  0  0  0  0  0  0  0
  190.4550  177.1320  141.8010 N   0  0  0  0  0  0  0  0  0  0  0  0
  189.9540  177.0710  143.0650 C   0  0  0  0  0  0  0  0  0  0  0  0
  188.3530  177.8780  140.9410 C   0  0  0  0  0  0  0  0  0  0  0  0
  182.3670  179.0030  144.5570 N   0  0  0  0  0  0  0  0  0  0  0  0
  183.3010  178.8530  143.8920 C   0  0  0  0  0  0  0  0  0  0  0  0
  185.8210  179.0080  145.8370 C   0  0  0  0  0  1  0  0  0  0  0  0
  186.0830  177.8530  144.8900 C   0  0  0  0  0  2  0  0  0  0  0  0
  190.8350  176.6590  144.1920 C   0  0  0  0  0  2  0  0  0  0  0  0
  190.5670  177.5360  145.4040 C   0  0  0  0  0  2  0  0  0  0  0  0
  190.3540  176.6810  146.6430 C   0  0  2  0  0  3  0  0  0  0  0  0
  189.4060  177.3860  147.5920 C   0  0  0  0  0  1  0  0  0  0  0  0
  191.6510  176.3900  147.3300 C   0  0  0  0  0  0  0  0  0  0  0  0
  192.4080  175.2970  146.9320 O   0  0  0  0  0  0  0  0  0  0  0  0
  192.0600  177.1240  148.2690 O   0  0  0  0  0  1  0  0  0  0  0  0
  1  4  1  0  0  0  0
  2  1  1  0  0  0  0
  2  9  1  0  0  0  0
  3 10  1  0  0  0  0
  4 18  1  0  0  0  0
  5  3  2  0  0  0  0
  5 14  1  0  0  0  0
  6  4  2  0  0  0  0
  6 16  1  0  0  0  0
  7 14  1  0  0  0  0
  7 12  2  0  0  0  0
  8  7  1  0  0  0  0
 10 11  2  0  0  0  0
 10  1  1  0  0  0  0
 11  6  1  0  0  0  0
 12 13  1  0  0  0  0
 13  9  2  0  0  0  0
 13 19  1  0  0  0  0
 14  2  2  0  0  0  0
 16 15  3  0  0  0  0
 18 17  1  0  0  0  0
 19 20  1  0  0  0  0
 20 21  1  0  0  0  0
 21 23  1  0  0  0  0
 21 22  1  1  0  0  0
 23 25  1  0  0  0  0
 24 23  2  0  0  0  0
M  END
>  <MODEL>
6

>  <REMARK>
 VINA RESULT:      -7.6      2.878      5.081
  Name = 
  6 active torsions:
  status: ('A' for Active; 'I' for Inactive)
    1  A    between atoms: C_2  and  C_21
    2  A    between atoms: C_5  and  C_22
    3  A    between atoms: C_6  and  C_15
    4  A    between atoms: C_6  and  C_23
    5  A    between atoms: C_10  and  C_11
    6  A    between atoms: C_15  and  C_21
                            x       y       z     vdW  Elec       q    Type
                         _______ _______ _______ _____ _____    ______ ____

>  <TORSDO>
F 6

$$$$
=
 OpenBabel10262419533D

 25 27  0  0  1  0  0  0  0  0999 V2000
  189.3490  177.3060  143.9960 N   0  0  0  0  0  0  0  0  0  0  0  0
  188.4560  177.6220  144.9780 C   0  0  0  0  0  0  0  0  0  0  0  0
  191.0750  176.8940  145.5790 C   0  0  0  0  0  3  0  0  0  0  0  0
  189.2440  177.2590  142.6520 C   0  0  0  0  0  0  0  0  0  0  0  0
  190.2020  177.2070  146.5790 N   0  0  0  0  0  0  0  0  0  0  0  0
  190.4750  176.8620  142.1570 C   0  0  0  0  0  0  0  0  0  0  0  0
  188.0160  177.8910  147.3500 C   0  0  0  0  0  0  0  0  0  0  0  0
  188.4450  177.8530  148.7790 C   0  0  0  0  0  1  0  0  0  0  0  0
  187.1370  177.9950  144.7080 C   0  0  0  0  0  3  0  0  0  0  0  0
  190.6190  176.9520  144.2650 C   0  0  0  0  0  0  0  0  0  0  0  0
  191.3520  176.6690  143.1680 N   0  0  0  0  0  0  0  0  0  0  0  0
  186.7370  178.2490  147.0510 N   0  0  0  0  0  0  0  0  0  0  0  0
  186.2830  178.3020  145.7700 C   0  0  0  0  0  0  0  0  0  0  0  0
  188.9080  177.5680  146.3170 C   0  0  0  0  0  0  0  0  0  0  0  0
  191.0710  176.5040  139.6570 N   0  0  0  0  0  0  0  0  0  0  0  0
  190.8060  176.6640  140.7710 C   0  0  0  0  0  0  0  0  0  0  0  0
  188.1570  178.8050  141.0680 C   0  0  0  0  0  1  0  0  0  0  0  0
  188.0060  177.5170  141.8530 C   0  0  0  0  0  2  0  0  0  0  0  0
  184.8810  178.7210  145.4960 C   0  0  0  0  0  2  0  0  0  0  0  0
  184.7690  179.2560  144.0790 C   0  0  0  0  0  2  0  0  0  0  0  0
  183.3120  179.3190  143.6480 C   0  0  2  0  0  3  0  0  0  0  0  0
  182.4490  178.5900  144.6590 C   0  0  0  0  0  1  0  0  0  0  0  0
  183.1230  178.7270  142.2870 C   0  0  0  0  0  0  0  0  0  0  0  0
  184.0900  177.8750  141.7700 O   0  0  0  0  0  1  0  0  0  0  0  0
  182.0990  178.9970  141.6050 O   0  0  0  0  0  0  0  0  0  0  0  0
  1 10  1  0  0  0  0
  1  2  1  0  0  0  0
  2 14  1  0  0  0  0
  3  5  2  0  0  0  0
  4  1  1  0  0  0  0
  6  4  2  0  0  0  0
  6 11  1  0  0  0  0
  7  8  1  0  0  0  0
  9  2  2  0  0  0  0
  9 13  1  0  0  0  0
 10  3  1  0  0  0  0
 11 10  2  0  0  0  0
 12  7  1  0  0  0  0
 13 12  2  0  0  0  0
 14  5  1  0  0  0  0
 14  7  2  0  0  0  0
 15 16  3  0  0  0  0
 16  6  1  0  0  0  0
 17 18  1  0  0  0  0
 18  4  1  0  0  0  0
 19 13  1  0  0  0  0
 20 19  1  0  0  0  0
 21 20  1  0  0  0  0
 21 22  1  1  0  0  0
 23 21  1  0  0  0  0
 24 23  1  0  0  0  0
 25 23  2  0  0  0  0
M  END
>  <MODEL>
7

>  <REMARK>
 VINA RESULT:      -7.5      2.948      6.007
  Name = 
  6 active torsions:
  status: ('A' for Active; 'I' for Inactive)
    1  A    between atoms: C_2  and  C_21
    2  A    between atoms: C_5  and  C_22
    3  A    between atoms: C_6  and  C_15
    4  A    between atoms: C_6  and  C_23
    5  A    between atoms: C_10  and  C_11
    6  A    between atoms: C_15  and  C_21
                            x       y       z     vdW  Elec       q    Type
                         _______ _______ _______ _____ _____    ______ ____

>  <TORSDO>
F 6

$$$$
=
 OpenBabel10262419533D

 25 27  0  0  1  0  0  0  0  0999 V2000
  188.9990  177.4340  144.9100 N   0  0  0  0  0  0  0  0  0  0  0  0
  188.3940  177.7280  143.7240 C   0  0  0  0  0  0  0  0  0  0  0  0
  186.9400  177.5640  146.0930 C   0  0  0  0  0  3  0  0  0  0  0  0
  190.2830  177.1760  145.2370 C   0  0  0  0  0  0  0  0  0  0  0  0
  186.3110  177.8600  144.9190 N   0  0  0  0  0  0  0  0  0  0  0  0
  190.3190  176.9330  146.6000 C   0  0  0  0  0  0  0  0  0  0  0  0
  186.3440  178.2560  142.5350 C   0  0  0  0  0  0  0  0  0  0  0  0
  184.8730  178.5010  142.4970 C   0  0  0  0  0  1  0  0  0  0  0  0
  189.0960  177.8210  142.5200 C   0  0  0  0  0  3  0  0  0  0  0  0
  188.3150  177.3510  146.0660 C   0  0  0  0  0  0  0  0  0  0  0  0
  189.0820  177.0450  147.1340 N   0  0  0  0  0  0  0  0  0  0  0  0
  187.0590  178.3380  141.3800 N   0  0  0  0  0  0  0  0  0  0  0  0
  188.4030  178.1240  141.3460 C   0  0  0  0  0  0  0  0  0  0  0  0
  186.9970  177.9480  143.7370 C   0  0  0  0  0  0  0  0  0  0  0  0
  192.4280  176.3280  147.9860 N   0  0  0  0  0  0  0  0  0  0  0  0
  191.4880  176.5980  147.3690 C   0  0  0  0  0  0  0  0  0  0  0  0
  191.6680  175.6530  143.8800 C   0  0  0  0  0  1  0  0  0  0  0  0
  191.4370  177.0940  144.2890 C   0  0  0  0  0  2  0  0  0  0  0  0
  189.1410  178.2470  140.0590 C   0  0  0  0  0  2  0  0  0  0  0  0
  188.7220  177.1340  139.1150 C   0  0  0  0  0  2  0  0  0  0  0  0
  188.3700  177.7000  137.7480 C   0  0  2  0  0  3  0  0  0  0  0  0
  189.0460  179.0440  137.5640 C   0  0  0  0  0  1  0  0  0  0  0  0
  186.8890  177.8420  137.5850 C   0  0  0  0  0  0  0  0  0  0  0  0
  186.1560  176.7940  137.0430 O   0  0  0  0  0  0  0  0  0  0  0  0
  186.3020  178.9020  137.9300 O   0  0  0  0  0  1  0  0  0  0  0  0
  1  4  1  0  0  0  0
  1 10  1  0  0  0  0
  2 14  1  0  0  0  0
  2  1  1  0  0  0  0
  4  6  2  0  0  0  0
  5  3  2  0  0  0  0
  6 11  1  0  0  0  0
  6 16  1  0  0  0  0
  7 14  2  0  0  0  0
  8  7  1  0  0  0  0
  9  2  2  0  0  0  0
 10  3  1  0  0  0  0
 10 11  2  0  0  0  0
 12  7  1  0  0  0  0
 13 12  2  0  0  0  0
 13  9  1  0  0  0  0
 14  5  1  0  0  0  0
 16 15  3  0  0  0  0
 17 18  1  0  0  0  0
 18  4  1  0  0  0  0
 19 13  1  0  0  0  0
 20 19  1  0  0  0  0
 21 22  1  1  0  0  0
 21 20  1  0  0  0  0
 23 21  1  0  0  0  0
 23 25  1  0  0  0  0
 24 23  2  0  0  0  0
M  END
>  <MODEL>
8

>  <REMARK>
 VINA RESULT:      -7.5      2.478      5.473
  Name = 
  6 active torsions:
  status: ('A' for Active; 'I' for Inactive)
    1  A    between atoms: C_2  and  C_21
    2  A    between atoms: C_5  and  C_22
    3  A    between atoms: C_6  and  C_15
    4  A    between atoms: C_6  and  C_23
    5  A    between atoms: C_10  and  C_11
    6  A    between atoms: C_15  and  C_21
                            x       y       z     vdW  Elec       q    Type
                         _______ _______ _______ _____ _____    ______ ____

>  <TORSDO>
F 6

$$$$
=
 OpenBabel10262419533D

 25 27  0  0  1  0  0  0  0  0999 V2000
  189.4530  177.6970  141.1690 N   0  0  0  0  0  0  0  0  0  0  0  0
  188.4050  177.8220  142.0320 C   0  0  0  0  0  0  0  0  0  0  0  0
  188.0920  178.2520  139.2990 C   0  0  0  0  0  3  0  0  0  0  0  0
  190.7510  177.3780  141.3540 C   0  0  0  0  0  0  0  0  0  0  0  0
  187.0280  178.3820  140.1420 N   0  0  0  0  0  0  0  0  0  0  0  0
  191.3640  177.4120  140.1130 C   0  0  0  0  0  0  0  0  0  0  0  0
  186.0480  178.3110  142.3500 C   0  0  0  0  0  0  0  0  0  0  0  0
  184.7010  178.6810  141.8270 C   0  0  0  0  0  1  0  0  0  0  0  0
  188.5290  177.6090  143.4070 C   0  0  0  0  0  3  0  0  0  0  0  0
  189.3230  177.9000  139.8450 C   0  0  0  0  0  0  0  0  0  0  0  0
  190.4700  177.7370  139.1520 N   0  0  0  0  0  0  0  0  0  0  0  0
  186.2050  178.0980  143.6850 N   0  0  0  0  0  0  0  0  0  0  0  0
  187.4070  177.7590  144.2260 C   0  0  0  0  0  0  0  0  0  0  0  0
  187.1480  178.1780  141.4900 C   0  0  0  0  0  0  0  0  0  0  0  0
  193.8720  176.9430  139.6360 N   0  0  0  0  0  0  0  0  0  0  0  0
  192.7540  177.1520  139.8480 C   0  0  0  0  0  0  0  0  0  0  0  0
  191.7030  178.4190  143.3760 C   0  0  0  0  0  1  0  0  0  0  0  0
  191.4170  177.1110  142.6670 C   0  0  0  0  0  2  0  0  0  0  0  0
  187.5200  177.5150  145.6900 C   0  0  0  0  0  2  0  0  0  0  0  0
  188.8600  178.0190  146.1960 C   0  0  0  0  0  2  0  0  0  0  0  0
  189.3640  177.1420  147.3310 C   0  0  2  0  0  3  0  0  0  0  0  0
  189.1680  177.8560  148.6530 C   0  0  0  0  0  1  0  0  0  0  0  0
  190.8060  176.7900  147.1450 C   0  0  0  0  0  0  0  0  0  0  0  0
  191.7270  177.1300  148.1260 O   0  0  0  0  0  1  0  0  0  0  0  0
  191.1940  176.1920  146.1050 O   0  0  0  0  0  0  0  0  0  0  0  0
  1  4  1  0  0  0  0
  1  2  1  0  0  0  0
  2  9  1  0  0  0  0
  3 10  1  0  0  0  0
  3  5  2  0  0  0  0
  4 18  1  0  0  0  0
  5 14  1  0  0  0  0
  6  4  2  0  0  0  0
  7 12  2  0  0  0  0
  8  7  1  0  0  0  0
  9 13  2  0  0  0  0
 10  1  1  0  0  0  0
 11 10  2  0  0  0  0
 11  6  1  0  0  0  0
 12 13  1  0  0  0  0
 13 19  1  0  0  0  0
 14  2  2  0  0  0  0
 14  7  1  0  0  0  0
 15 16  3  0  0  0  0
 16  6  1  0  0  0  0
 18 17  1  0  0  0  0
 19 20  1  0  0  0  0
 20 21  1  0  0  0  0
 21 22  1  1  0  0  0
 23 21  1  0  0  0  0
 23 24  1  0  0  0  0
 25 23  2  0  0  0  0
M  END
>  <MODEL>
9

>  <REMARK>
 VINA RESULT:      -7.5      3.249      7.121
  Name = 
  6 active torsions:
  status: ('A' for Active; 'I' for Inactive)
    1  A    between atoms: C_2  and  C_21
    2  A    between atoms: C_5  and  C_22
    3  A    between atoms: C_6  and  C_15
    4  A    between atoms: C_6  and  C_23
    5  A    between atoms: C_10  and  C_11
    6  A    between atoms: C_15  and  C_21
                            x       y       z     vdW  Elec       q    Type
                         _______ _______ _______ _____ _____    ______ ____

>  <TORSDO>
F 6

$$$$
