=
 OpenBabel10262420093D

 27 32  0  0  0  0  0  0  0  0999 V2000
  188.0020  177.6900  144.5930 C   0  0  0  0  0  0  0  0  0  0  0  0
  188.6410  177.5720  143.3930 C   0  0  0  0  0  0  0  0  0  0  0  0
  186.7080  178.1370  142.1770 N   0  0  0  0  0  0  0  0  0  0  0  0
  191.0060  177.0900  140.0520 C   0  0  0  0  0  3  0  0  0  0  0  0
  190.4680  177.2880  138.7770 C   0  0  0  0  0  0  0  0  0  0  0  0
  189.9480  177.2200  143.5210 C   0  0  0  0  0  0  0  0  0  0  0  0
  191.3000  176.7100  147.0470 C   0  0  0  0  0  0  0  0  0  0  0  0
  188.3060  177.8190  139.7440 C   0  0  0  0  0  3  0  0  0  0  0  0
  189.0160  177.3770  145.6120 C   0  0  0  0  0  0  0  0  0  0  0  0
  183.9490  178.7640  144.5290 C   0  0  0  0  0  0  0  0  0  0  0  0
  191.3690  176.7530  145.6440 C   0  0  0  0  0  3  0  0  0  0  0  0
  189.1250  177.6500  138.6240 C   0  0  0  0  0  3  0  0  0  0  0  0
  182.6070  179.1210  144.4970 O   0  0  0  0  0  1  0  0  0  0  0  0
  188.8270  177.6250  141.0270 C   0  0  0  0  0  0  0  0  0  0  0  0
  190.2100  177.0900  144.9510 C   0  0  0  0  0  0  0  0  0  0  0  0
  191.2510  177.1280  137.6820 F   0  0  0  0  0  0  0  0  0  0  0  0
  190.2070  177.2530  141.1850 C   0  0  0  0  0  0  0  0  0  0  0  0
  186.6510  178.0460  144.6140 C   0  0  0  0  0  0  0  0  0  0  0  0
  188.0300  177.7860  142.1790 C   0  0  0  0  0  0  0  0  0  0  0  0
  184.6600  178.6280  143.3320 C   0  0  0  0  0  3  0  0  0  0  0  0
  190.7450  177.0560  142.4340 N   0  0  0  0  0  0  0  0  0  0  0  0
  184.5820  178.5440  145.7570 C   0  0  0  0  0  3  0  0  0  0  0  0
  192.4300  176.3800  147.7820 O   0  0  0  0  0  1  0  0  0  0  0  0
  185.9320  178.1840  145.8040 C   0  0  0  0  0  3  0  0  0  0  0  0
  190.0910  177.0010  147.7190 C   0  0  0  0  0  3  0  0  0  0  0  0
  186.0100  178.2700  143.3550 C   0  0  0  0  0  0  0  0  0  0  0  0
  188.9300  177.3400  147.0010 C   0  0  0  0  0  3  0  0  0  0  0  0
  1 18  1  0  0  0  0
  1  9  1  0  0  0  0
  2  6  1  0  0  0  0
  2  1  2  0  0  0  0
  3 19  2  0  0  0  0
  3 26  1  0  0  0  0
  4 17  1  0  0  0  0
  5  4  2  0  0  0  0
  6 15  1  0  0  0  0
  7 25  1  0  0  0  0
  7 23  1  0  0  0  0
  8 14  1  0  0  0  0
  9 27  1  0  0  0  0
 10 22  1  0  0  0  0
 11  7  2  0  0  0  0
 12  5  1  0  0  0  0
 12  8  2  0  0  0  0
 13 10  1  0  0  0  0
 14 17  2  0  0  0  0
 14 19  1  0  0  0  0
 15  9  2  0  0  0  0
 15 11  1  0  0  0  0
 16  5  1  0  0  0  0
 17 21  1  0  0  0  0
 18 24  1  0  0  0  0
 19  2  1  0  0  0  0
 20 26  1  0  0  0  0
 20 10  2  0  0  0  0
 21  6  2  0  0  0  0
 22 24  2  0  0  0  0
 26 18  2  0  0  0  0
 27 25  2  0  0  0  0
M  END
>  <MODEL>
1

>  <REMARK>
 VINA RESULT:     -12.8      0.000      0.000
  Name = 
  0 active torsions:
  status: ('A' for Active; 'I' for Inactive)
                            x       y       z     vdW  Elec       q    Type
                         _______ _______ _______ _____ _____    ______ ____

>  <TORSDO>
F 0

$$$$
=
 OpenBabel10262420093D

 27 32  0  0  0  0  0  0  0  0999 V2000
  188.2690  177.5670  144.7090 C   0  0  0  0  0  0  0  0  0  0  0  0
  188.4360  177.6330  143.3560 C   0  0  0  0  0  0  0  0  0  0  0  0
  190.6930  176.9820  143.4880 N   0  0  0  0  0  0  0  0  0  0  0  0
  188.4300  177.9780  139.2490 C   0  0  0  0  0  3  0  0  0  0  0  0
  189.5920  177.7090  138.5200 C   0  0  0  0  0  0  0  0  0  0  0  0
  187.3060  178.0070  142.7000 C   0  0  0  0  0  0  0  0  0  0  0  0
  184.2010  178.7110  144.7940 C   0  0  0  0  0  0  0  0  0  0  0  0
  190.7890  177.1990  140.5690 C   0  0  0  0  0  3  0  0  0  0  0  0
  186.8670  177.9440  144.9510 C   0  0  0  0  0  0  0  0  0  0  0  0
  191.5830  176.4360  147.0160 C   0  0  0  0  0  0  0  0  0  0  0  0
  184.9460  178.5990  143.6070 C   0  0  0  0  0  3  0  0  0  0  0  0
  190.7650  177.3230  139.1770 C   0  0  0  0  0  3  0  0  0  0  0  0
  192.6850  176.0610  147.7720 O   0  0  0  0  0  1  0  0  0  0  0  0
  189.6350  177.4640  141.3140 C   0  0  0  0  0  0  0  0  0  0  0  0
  186.2780  178.2130  143.7160 C   0  0  0  0  0  0  0  0  0  0  0  0
  189.5830  177.8250  137.1700 F   0  0  0  0  0  0  0  0  0  0  0  0
  188.4290  177.8610  140.6400 C   0  0  0  0  0  0  0  0  0  0  0  0
  189.3480  177.1940  145.5120 C   0  0  0  0  0  0  0  0  0  0  0  0
  189.6220  177.3500  142.7200 C   0  0  0  0  0  0  0  0  0  0  0  0
  191.6910  176.5220  145.6240 C   0  0  0  0  0  3  0  0  0  0  0  0
  187.2810  178.1270  141.3480 N   0  0  0  0  0  0  0  0  0  0  0  0
  190.3700  176.7260  147.6510 C   0  0  0  0  0  3  0  0  0  0  0  0
  182.8680  179.0930  144.7360 O   0  0  0  0  0  1  0  0  0  0  0  0
  189.2510  177.1050  146.9040 C   0  0  0  0  0  3  0  0  0  0  0  0
  184.7960  178.4380  146.0460 C   0  0  0  0  0  3  0  0  0  0  0  0
  190.5850  176.8990  144.8570 C   0  0  0  0  0  0  0  0  0  0  0  0
  186.1440  178.0490  146.1360 C   0  0  0  0  0  3  0  0  0  0  0  0
  1  9  1  0  0  0  0
  1 18  1  0  0  0  0
  2  1  2  0  0  0  0
  3 26  1  0  0  0  0
  4 17  1  0  0  0  0
  5 12  1  0  0  0  0
  5  4  2  0  0  0  0
  6  2  1  0  0  0  0
  6 15  1  0  0  0  0
  7 25  1  0  0  0  0
  8 14  1  0  0  0  0
  9 27  1  0  0  0  0
 10 22  1  0  0  0  0
 10 13  1  0  0  0  0
 11 15  1  0  0  0  0
 11  7  2  0  0  0  0
 12  8  2  0  0  0  0
 14 19  1  0  0  0  0
 15  9  2  0  0  0  0
 16  5  1  0  0  0  0
 17 14  2  0  0  0  0
 17 21  1  0  0  0  0
 18 24  1  0  0  0  0
 19  2  1  0  0  0  0
 19  3  2  0  0  0  0
 20 10  2  0  0  0  0
 21  6  2  0  0  0  0
 23  7  1  0  0  0  0
 24 22  2  0  0  0  0
 25 27  2  0  0  0  0
 26 18  2  0  0  0  0
 26 20  1  0  0  0  0
M  END
>  <MODEL>
2

>  <REMARK>
 VINA RESULT:     -12.7      0.653      5.064
  Name = 
  0 active torsions:
  status: ('A' for Active; 'I' for Inactive)
                            x       y       z     vdW  Elec       q    Type
                         _______ _______ _______ _____ _____    ______ ____

>  <TORSDO>
F 0

$$$$
=
 OpenBabel10262420093D

 27 32  0  0  0  0  0  0  0  0999 V2000
  189.3570  177.3510  143.3720 C   0  0  0  0  0  0  0  0  0  0  0  0
  188.0420  177.7080  143.4600 C   0  0  0  0  0  0  0  0  0  0  0  0
  188.0230  177.4950  145.8030 N   0  0  0  0  0  0  0  0  0  0  0  0
  184.0860  178.8320  143.1970 C   0  0  0  0  0  3  0  0  0  0  0  0
  183.3090  178.9410  144.3540 C   0  0  0  0  0  0  0  0  0  0  0  0
  187.4840  177.9770  142.2500 C   0  0  0  0  0  0  0  0  0  0  0  0
  189.7030  177.6470  139.1700 C   0  0  0  0  0  0  0  0  0  0  0  0
  185.2060  178.2860  145.7200 C   0  0  0  0  0  3  0  0  0  0  0  0
  189.6810  177.3950  141.9370 C   0  0  0  0  0  0  0  0  0  0  0  0
  191.3650  176.4590  146.9430 C   0  0  0  0  0  0  0  0  0  0  0  0
  188.5110  177.9140  139.8660 C   0  0  0  0  0  3  0  0  0  0  0  0
  183.8660  178.6690  145.6080 C   0  0  0  0  0  3  0  0  0  0  0  0
  192.0210  176.1650  148.1310 O   0  0  0  0  0  1  0  0  0  0  0  0
  185.9980  178.1730  144.5730 C   0  0  0  0  0  0  0  0  0  0  0  0
  188.5290  177.7800  141.2510 C   0  0  0  0  0  0  0  0  0  0  0  0
  182.0090  179.3110  144.2610 F   0  0  0  0  0  0  0  0  0  0  0  0
  185.4260  178.4520  143.2840 C   0  0  0  0  0  0  0  0  0  0  0  0
  190.0610  177.0470  144.5390 C   0  0  0  0  0  0  0  0  0  0  0  0
  187.3530  177.7890  144.6480 C   0  0  0  0  0  0  0  0  0  0  0  0
  190.0170  176.8310  146.9680 C   0  0  0  0  0  3  0  0  0  0  0  0
  186.1830  178.3480  142.1410 N   0  0  0  0  0  0  0  0  0  0  0  0
  192.0550  176.3800  145.7290 C   0  0  0  0  0  3  0  0  0  0  0  0
  189.7330  177.7680  137.7870 O   0  0  0  0  0  1  0  0  0  0  0  0
  191.4080  176.6730  144.5250 C   0  0  0  0  0  3  0  0  0  0  0  0
  190.8710  177.2580  139.8630 C   0  0  0  0  0  3  0  0  0  0  0  0
  189.3500  177.1280  145.7770 C   0  0  0  0  0  0  0  0  0  0  0  0
  190.8690  177.1280  141.2630 C   0  0  0  0  0  3  0  0  0  0  0  0
  1  2  2  0  0  0  0
  1 18  1  0  0  0  0
  2 19  1  0  0  0  0
  4 17  2  0  0  0  0
  4  5  1  0  0  0  0
  5 12  2  0  0  0  0
  6  2  1  0  0  0  0
  7 25  2  0  0  0  0
  7 11  1  0  0  0  0
  9  1  1  0  0  0  0
 10 20  1  0  0  0  0
 10 13  1  0  0  0  0
 11 15  2  0  0  0  0
 12  8  1  0  0  0  0
 14 19  1  0  0  0  0
 14  8  2  0  0  0  0
 15  9  1  0  0  0  0
 15  6  1  0  0  0  0
 16  5  1  0  0  0  0
 17 14  1  0  0  0  0
 18 26  1  0  0  0  0
 19  3  2  0  0  0  0
 21  6  2  0  0  0  0
 21 17  1  0  0  0  0
 22 10  2  0  0  0  0
 23  7  1  0  0  0  0
 24 18  2  0  0  0  0
 24 22  1  0  0  0  0
 25 27  1  0  0  0  0
 26  3  1  0  0  0  0
 26 20  2  0  0  0  0
 27  9  2  0  0  0  0
M  END
>  <MODEL>
3

>  <REMARK>
 VINA RESULT:     -12.2      3.105      6.676
  Name = 
  0 active torsions:
  status: ('A' for Active; 'I' for Inactive)
                            x       y       z     vdW  Elec       q    Type
                         _______ _______ _______ _____ _____    ______ ____

>  <TORSDO>
F 0

$$$$
=
 OpenBabel10262420093D

 27 32  0  0  0  0  0  0  0  0999 V2000
  187.6480  177.8580  142.3140 C   0  0  0  0  0  0  0  0  0  0  0  0
  188.5660  177.5570  143.2780 C   0  0  0  0  0  0  0  0  0  0  0  0
  187.0150  177.8750  145.0170 N   0  0  0  0  0  0  0  0  0  0  0  0
  191.6840  176.5750  145.7890 C   0  0  0  0  0  3  0  0  0  0  0  0
  191.4890  176.5480  147.1730 C   0  0  0  0  0  0  0  0  0  0  0  0
  189.7900  177.2560  142.7680 C   0  0  0  0  0  0  0  0  0  0  0  0
  190.1980  177.3610  138.9810 C   0  0  0  0  0  0  0  0  0  0  0  0
  189.1650  177.1900  146.8830 C   0  0  0  0  0  3  0  0  0  0  0  0
  188.3660  177.7380  141.0350 C   0  0  0  0  0  0  0  0  0  0  0  0
  183.7680  178.8320  143.5730 C   0  0  0  0  0  0  0  0  0  0  0  0
  190.6190  177.1730  140.3090 C   0  0  0  0  0  3  0  0  0  0  0  0
  190.2360  176.8550  147.7160 C   0  0  0  0  0  3  0  0  0  0  0  0
  182.4870  179.1520  144.0000 O   0  0  0  0  0  1  0  0  0  0  0  0
  189.3420  177.2210  145.4960 C   0  0  0  0  0  0  0  0  0  0  0  0
  189.6800  177.3680  141.3170 C   0  0  0  0  0  0  0  0  0  0  0  0
  192.5170  176.2250  147.9930 F   0  0  0  0  0  0  0  0  0  0  0  0
  190.6290  176.9070  144.9360 C   0  0  0  0  0  0  0  0  0  0  0  0
  186.3440  178.1870  142.6920 C   0  0  0  0  0  0  0  0  0  0  0  0
  188.2860  177.5560  144.6240 C   0  0  0  0  0  0  0  0  0  0  0  0
  184.7540  178.5130  144.5130 C   0  0  0  0  0  3  0  0  0  0  0  0
  190.8310  176.9300  143.5770 N   0  0  0  0  0  0  0  0  0  0  0  0
  184.0670  178.8290  142.2060 C   0  0  0  0  0  3  0  0  0  0  0  0
  191.1000  177.1770  137.9410 O   0  0  0  0  0  1  0  0  0  0  0  0
  185.3530  178.5080  141.7620 C   0  0  0  0  0  3  0  0  0  0  0  0
  188.8670  177.7360  138.6930 C   0  0  0  0  0  3  0  0  0  0  0  0
  186.0460  178.1890  144.0920 C   0  0  0  0  0  0  0  0  0  0  0  0
  187.9320  177.9290  139.7260 C   0  0  0  0  0  3  0  0  0  0  0  0
  1 18  2  0  0  0  0
  1  2  1  0  0  0  0
  2 19  1  0  0  0  0
  4  5  2  0  0  0  0
  5 12  1  0  0  0  0
  5 16  1  0  0  0  0
  6  2  2  0  0  0  0
  6 21  1  0  0  0  0
  7 11  1  0  0  0  0
  8 12  2  0  0  0  0
  9 15  1  0  0  0  0
  9  1  1  0  0  0  0
 10 13  1  0  0  0  0
 10 20  2  0  0  0  0
 11 15  2  0  0  0  0
 14  8  1  0  0  0  0
 15  6  1  0  0  0  0
 17 14  1  0  0  0  0
 17  4  1  0  0  0  0
 18 26  1  0  0  0  0
 19  3  1  0  0  0  0
 19 14  2  0  0  0  0
 21 17  2  0  0  0  0
 22 10  1  0  0  0  0
 23  7  1  0  0  0  0
 24 22  2  0  0  0  0
 24 18  1  0  0  0  0
 25  7  2  0  0  0  0
 25 27  1  0  0  0  0
 26 20  1  0  0  0  0
 26  3  2  0  0  0  0
 27  9  2  0  0  0  0
M  END
>  <MODEL>
4

>  <REMARK>
 VINA RESULT:     -11.7      2.905      5.484
  Name = 
  0 active torsions:
  status: ('A' for Active; 'I' for Inactive)
                            x       y       z     vdW  Elec       q    Type
                         _______ _______ _______ _____ _____    ______ ____

>  <TORSDO>
F 0

$$$$
=
 OpenBabel10262420093D

 27 32  0  0  0  0  0  0  0  0999 V2000
  189.2340  177.4310  143.0150 C   0  0  0  0  0  0  0  0  0  0  0  0
  187.9800  177.7440  143.4530 C   0  0  0  0  0  0  0  0  0  0  0  0
  187.1770  178.0820  141.2680 N   0  0  0  0  0  0  0  0  0  0  0  0
  184.3810  178.6090  145.2660 C   0  0  0  0  0  3  0  0  0  0  0  0
  183.2690  178.9510  144.4910 C   0  0  0  0  0  0  0  0  0  0  0  0
  187.8640  177.6990  144.8070 C   0  0  0  0  0  0  0  0  0  0  0  0
  190.9640  176.7530  146.8110 C   0  0  0  0  0  0  0  0  0  0  0  0
  184.5790  178.7130  142.4610 C   0  0  0  0  0  3  0  0  0  0  0  0
  190.0170  177.1530  144.2300 C   0  0  0  0  0  0  0  0  0  0  0  0
  189.9090  177.4830  138.8770 C   0  0  0  0  0  0  0  0  0  0  0  0
  189.6200  177.1240  146.6320 C   0  0  0  0  0  3  0  0  0  0  0  0
  183.3680  179.0030  143.0970 C   0  0  0  0  0  3  0  0  0  0  0  0
  190.1230  177.5030  137.5050 O   0  0  0  0  0  1  0  0  0  0  0  0
  185.7020  178.3690  143.2210 C   0  0  0  0  0  0  0  0  0  0  0  0
  189.1730  177.3170  145.3280 C   0  0  0  0  0  0  0  0  0  0  0  0
  182.0890  179.2340  145.0930 F   0  0  0  0  0  0  0  0  0  0  0  0
  185.6010  178.3150  144.6540 C   0  0  0  0  0  0  0  0  0  0  0  0
  189.5000  177.4370  141.6440 C   0  0  0  0  0  0  0  0  0  0  0  0
  186.9390  178.0710  142.6150 C   0  0  0  0  0  0  0  0  0  0  0  0
  188.6440  177.7940  139.3880 C   0  0  0  0  0  3  0  0  0  0  0  0
  186.6890  177.9800  145.4250 N   0  0  0  0  0  0  0  0  0  0  0  0
  190.9590  177.1520  139.7400 C   0  0  0  0  0  3  0  0  0  0  0  0
  191.4560  176.5490  148.0930 O   0  0  0  0  0  1  0  0  0  0  0  0
  190.7590  177.1280  141.1240 C   0  0  0  0  0  3  0  0  0  0  0  0
  191.8200  176.5860  145.7000 C   0  0  0  0  0  3  0  0  0  0  0  0
  188.4220  177.7770  140.7670 C   0  0  0  0  0  0  0  0  0  0  0  0
  191.3500  176.7850  144.3900 C   0  0  0  0  0  3  0  0  0  0  0  0
  1  2  1  0  0  0  0
  1  9  1  0  0  0  0
  2  6  1  0  0  0  0
  3 19  1  0  0  0  0
  5 16  1  0  0  0  0
  5  4  2  0  0  0  0
  6 15  1  0  0  0  0
  6 21  2  0  0  0  0
  7 23  1  0  0  0  0
  8 12  2  0  0  0  0
  8 14  1  0  0  0  0
  9 27  2  0  0  0  0
  9 15  1  0  0  0  0
 10 20  2  0  0  0  0
 10 22  1  0  0  0  0
 11  7  1  0  0  0  0
 12  5  1  0  0  0  0
 13 10  1  0  0  0  0
 14 17  2  0  0  0  0
 15 11  2  0  0  0  0
 17  4  1  0  0  0  0
 17 21  1  0  0  0  0
 18  1  2  0  0  0  0
 19 14  1  0  0  0  0
 19  2  2  0  0  0  0
 20 26  1  0  0  0  0
 22 24  2  0  0  0  0
 24 18  1  0  0  0  0
 25  7  2  0  0  0  0
 26  3  2  0  0  0  0
 26 18  1  0  0  0  0
 27 25  1  0  0  0  0
M  END
>  <MODEL>
5

>  <REMARK>
 VINA RESULT:     -11.6      3.200      5.658
  Name = 
  0 active torsions:
  status: ('A' for Active; 'I' for Inactive)
                            x       y       z     vdW  Elec       q    Type
                         _______ _______ _______ _____ _____    ______ ____

>  <TORSDO>
F 0

$$$$
=
 OpenBabel10262420093D

 27 32  0  0  0  0  0  0  0  0999 V2000
  187.5120  177.9430  142.4460 C   0  0  0  0  0  0  0  0  0  0  0  0
  188.2450  177.6190  143.5510 C   0  0  0  0  0  0  0  0  0  0  0  0
  190.1660  177.1420  142.2790 N   0  0  0  0  0  0  0  0  0  0  0  0
  190.0180  176.7500  147.1690 C   0  0  0  0  0  3  0  0  0  0  0  0
  191.3530  176.3360  147.2150 C   0  0  0  0  0  0  0  0  0  0  0  0
  187.5390  177.7330  144.7070 C   0  0  0  0  0  0  0  0  0  0  0  0
  183.9110  178.8720  144.4540 C   0  0  0  0  0  0  0  0  0  0  0  0
  191.5140  176.5020  144.7980 C   0  0  0  0  0  3  0  0  0  0  0  0
  186.1790  178.3080  142.9510 C   0  0  0  0  0  0  0  0  0  0  0  0
  189.4160  177.6890  138.7180 C   0  0  0  0  0  0  0  0  0  0  0  0
  185.0780  178.4540  145.1170 C   0  0  0  0  0  3  0  0  0  0  0  0
  192.0960  176.2120  146.0360 C   0  0  0  0  0  3  0  0  0  0  0  0
  190.0550  177.6020  137.4890 O   0  0  0  0  0  1  0  0  0  0  0  0
  190.1800  176.9180  144.7330 C   0  0  0  0  0  0  0  0  0  0  0  0
  186.1990  178.1790  144.3390 C   0  0  0  0  0  0  0  0  0  0  0  0
  191.9300  176.0520  148.4070 F   0  0  0  0  0  0  0  0  0  0  0  0
  189.4160  177.0450  145.9450 C   0  0  0  0  0  0  0  0  0  0  0  0
  188.1100  177.8720  141.1860 C   0  0  0  0  0  0  0  0  0  0  0  0
  189.5600  177.2180  143.5030 C   0  0  0  0  0  0  0  0  0  0  0  0
  190.1140  177.3700  139.8880 C   0  0  0  0  0  3  0  0  0  0  0  0
  188.1030  177.4520  145.9090 N   0  0  0  0  0  0  0  0  0  0  0  0
  188.0790  178.0960  138.7810 C   0  0  0  0  0  3  0  0  0  0  0  0
  182.7680  179.1580  145.1880 O   0  0  0  0  0  1  0  0  0  0  0  0
  187.4220  178.1870  140.0110 C   0  0  0  0  0  3  0  0  0  0  0  0
  183.8890  179.0040  143.0470 C   0  0  0  0  0  3  0  0  0  0  0  0
  189.4780  177.4550  141.1290 C   0  0  0  0  0  0  0  0  0  0  0  0
  185.0320  178.7210  142.2780 C   0  0  0  0  0  3  0  0  0  0  0  0
  1  9  1  0  0  0  0
  1  2  1  0  0  0  0
  2  6  1  0  0  0  0
  3 19  1  0  0  0  0
  4  5  1  0  0  0  0
  5 16  1  0  0  0  0
  6 21  2  0  0  0  0
  7 11  1  0  0  0  0
  7 23  1  0  0  0  0
  8 12  1  0  0  0  0
  9 15  1  0  0  0  0
 10 22  1  0  0  0  0
 10 20  2  0  0  0  0
 12  5  2  0  0  0  0
 13 10  1  0  0  0  0
 14  8  2  0  0  0  0
 14 17  1  0  0  0  0
 15  6  1  0  0  0  0
 15 11  2  0  0  0  0
 17  4  2  0  0  0  0
 18  1  2  0  0  0  0
 19  2  2  0  0  0  0
 19 14  1  0  0  0  0
 20 26  1  0  0  0  0
 21 17  1  0  0  0  0
 22 24  2  0  0  0  0
 24 18  1  0  0  0  0
 25  7  2  0  0  0  0
 26 18  1  0  0  0  0
 26  3  2  0  0  0  0
 27  9  2  0  0  0  0
 27 25  1  0  0  0  0
M  END
>  <MODEL>
6

>  <REMARK>
 VINA RESULT:     -11.6      3.054      6.470
  Name = 
  0 active torsions:
  status: ('A' for Active; 'I' for Inactive)
                            x       y       z     vdW  Elec       q    Type
                         _______ _______ _______ _____ _____    ______ ____

>  <TORSDO>
F 0

$$$$
=
 OpenBabel10262420093D

 27 32  0  0  0  0  0  0  0  0999 V2000
  188.1400  177.7840  143.9710 C   0  0  0  0  0  0  0  0  0  0  0  0
  186.8100  178.0390  143.8010 C   0  0  0  0  0  0  0  0  0  0  0  0
  186.9750  177.9510  141.4560 N   0  0  0  0  0  0  0  0  0  0  0  0
  182.7640  178.8250  143.8180 C   0  0  0  0  0  3  0  0  0  0  0  0
  182.0640  178.9320  142.6130 C   0  0  0  0  0  0  0  0  0  0  0  0
  186.1450  178.1950  144.9770 C   0  0  0  0  0  0  0  0  0  0  0  0
  188.1590  177.8800  148.1960 C   0  0  0  0  0  0  0  0  0  0  0  0
  184.1020  178.5070  141.3630 C   0  0  0  0  0  3  0  0  0  0  0  0
  188.3560  177.7770  145.4260 C   0  0  0  0  0  0  0  0  0  0  0  0
  190.4660  177.2520  140.5220 C   0  0  0  0  0  0  0  0  0  0  0  0
  187.0020  178.0870  147.4260 C   0  0  0  0  0  3  0  0  0  0  0  0
  182.7310  178.7740  141.3920 C   0  0  0  0  0  3  0  0  0  0  0  0
  191.2270  177.0770  139.3750 O   0  0  0  0  0  1  0  0  0  0  0  0
  184.8180  178.3960  142.5600 C   0  0  0  0  0  0  0  0  0  0  0  0
  187.1300  178.0290  146.0410 C   0  0  0  0  0  0  0  0  0  0  0  0
  180.7350  179.1910  142.6250 F   0  0  0  0  0  0  0  0  0  0  0  0
  184.1340  178.5580  143.8150 C   0  0  0  0  0  0  0  0  0  0  0  0
  188.9490  177.6000  142.8470 C   0  0  0  0  0  0  0  0  0  0  0  0
  186.2020  178.1280  142.5700 C   0  0  0  0  0  0  0  0  0  0  0  0
  189.0960  177.5150  140.4140 C   0  0  0  0  0  3  0  0  0  0  0  0
  184.8130  178.4550  145.0050 N   0  0  0  0  0  0  0  0  0  0  0  0
  191.0720  177.1640  141.7810 C   0  0  0  0  0  3  0  0  0  0  0  0
  188.0810  177.9280  149.5810 O   0  0  0  0  0  1  0  0  0  0  0  0
  190.3170  177.3380  142.9450 C   0  0  0  0  0  3  0  0  0  0  0  0
  189.4020  177.6240  147.5750 C   0  0  0  0  0  3  0  0  0  0  0  0
  188.3230  177.6930  141.5640 C   0  0  0  0  0  0  0  0  0  0  0  0
  189.5120  177.5690  146.1740 C   0  0  0  0  0  3  0  0  0  0  0  0
  1  9  1  0  0  0  0
  2  1  1  0  0  0  0
  2  6  1  0  0  0  0
  3 26  2  0  0  0  0
  3 19  1  0  0  0  0
  5 16  1  0  0  0  0
  5  4  2  0  0  0  0
  6 21  2  0  0  0  0
  6 15  1  0  0  0  0
  7 23  1  0  0  0  0
  8 12  2  0  0  0  0
  8 14  1  0  0  0  0
  9 15  2  0  0  0  0
  9 27  1  0  0  0  0
 10 22  1  0  0  0  0
 11  7  2  0  0  0  0
 12  5  1  0  0  0  0
 13 10  1  0  0  0  0
 14 19  1  0  0  0  0
 14 17  2  0  0  0  0
 15 11  1  0  0  0  0
 17  4  1  0  0  0  0
 17 21  1  0  0  0  0
 18 24  1  0  0  0  0
 18  1  2  0  0  0  0
 19  2  2  0  0  0  0
 20 10  2  0  0  0  0
 20 26  1  0  0  0  0
 22 24  2  0  0  0  0
 25  7  1  0  0  0  0
 26 18  1  0  0  0  0
 27 25  2  0  0  0  0
M  END
>  <MODEL>
7

>  <REMARK>
 VINA RESULT:     -11.4      3.254      5.751
  Name = 
  0 active torsions:
  status: ('A' for Active; 'I' for Inactive)
                            x       y       z     vdW  Elec       q    Type
                         _______ _______ _______ _____ _____    ______ ____

>  <TORSDO>
F 0

$$$$
=
 OpenBabel10262420093D

 27 32  0  0  0  0  0  0  0  0999 V2000
  186.7850  178.1420  144.4540 C   0  0  0  0  0  0  0  0  0  0  0  0
  187.6850  177.9110  143.4540 C   0  0  0  0  0  0  0  0  0  0  0  0
  186.0710  178.2250  141.7720 N   0  0  0  0  0  0  0  0  0  0  0  0
  190.7630  177.1470  140.8210 C   0  0  0  0  0  3  0  0  0  0  0  0
  190.5270  177.1610  139.4430 C   0  0  0  0  0  0  0  0  0  0  0  0
  188.9360  177.6450  143.9170 C   0  0  0  0  0  0  0  0  0  0  0  0
  189.4540  177.6380  147.6920 C   0  0  0  0  0  0  0  0  0  0  0  0
  188.1900  177.6950  139.8230 C   0  0  0  0  0  3  0  0  0  0  0  0
  187.5460  178.0070  145.7060 C   0  0  0  0  0  0  0  0  0  0  0  0
  182.8320  178.9930  143.3420 C   0  0  0  0  0  0  0  0  0  0  0  0
  189.8410  177.5120  146.3470 C   0  0  0  0  0  3  0  0  0  0  0  0
  189.2470  177.4330  138.9470 C   0  0  0  0  0  3  0  0  0  0  0  0
  181.5270  179.2750  142.9650 O   0  0  0  0  0  1  0  0  0  0  0  0
  188.4070  177.6860  141.2040 C   0  0  0  0  0  0  0  0  0  0  0  0
  188.8650  177.7030  145.3740 C   0  0  0  0  0  0  0  0  0  0  0  0
  191.5430  176.9090  138.5830 F   0  0  0  0  0  0  0  0  0  0  0  0
  189.7220  177.4060  141.7150 C   0  0  0  0  0  0  0  0  0  0  0  0
  185.4590  178.4290  144.1250 C   0  0  0  0  0  0  0  0  0  0  0  0
  187.3640  177.9450  142.1170 C   0  0  0  0  0  0  0  0  0  0  0  0
  183.8020  178.7490  142.3640 C   0  0  0  0  0  3  0  0  0  0  0  0
  189.9630  177.3910  143.0680 N   0  0  0  0  0  0  0  0  0  0  0  0
  183.1720  178.9570  144.6990 C   0  0  0  0  0  3  0  0  0  0  0  0
  190.3930  177.4570  148.6990 O   0  0  0  0  0  1  0  0  0  0  0  0
  184.4830  178.6750  145.0950 C   0  0  0  0  0  3  0  0  0  0  0  0
  188.1170  177.9460  148.0320 C   0  0  0  0  0  3  0  0  0  0  0  0
  185.1180  178.4650  142.7360 C   0  0  0  0  0  0  0  0  0  0  0  0
  187.1450  178.1350  147.0340 C   0  0  0  0  0  3  0  0  0  0  0  0
  1  9  1  0  0  0  0
  2  6  1  0  0  0  0
  2  1  2  0  0  0  0
  3 19  2  0  0  0  0
  3 26  1  0  0  0  0
  4 17  1  0  0  0  0
  5  4  2  0  0  0  0
  6 15  1  0  0  0  0
  7 25  1  0  0  0  0
  7 23  1  0  0  0  0
  8 14  1  0  0  0  0
  9 27  1  0  0  0  0
 10 22  1  0  0  0  0
 11  7  2  0  0  0  0
 12  5  1  0  0  0  0
 12  8  2  0  0  0  0
 13 10  1  0  0  0  0
 14 17  2  0  0  0  0
 14 19  1  0  0  0  0
 15  9  2  0  0  0  0
 15 11  1  0  0  0  0
 16  5  1  0  0  0  0
 17 21  1  0  0  0  0
 18  1  1  0  0  0  0
 18 24  1  0  0  0  0
 19  2  1  0  0  0  0
 20 26  1  0  0  0  0
 20 10  2  0  0  0  0
 21  6  2  0  0  0  0
 22 24  2  0  0  0  0
 26 18  2  0  0  0  0
 27 25  2  0  0  0  0
M  END
>  <MODEL>
8

>  <REMARK>
 VINA RESULT:     -11.3      1.118      1.417
  Name = 
  0 active torsions:
  status: ('A' for Active; 'I' for Inactive)
                            x       y       z     vdW  Elec       q    Type
                         _______ _______ _______ _____ _____    ______ ____

>  <TORSDO>
F 0

$$$$
=
 OpenBabel10262420093D

 27 32  0  0  0  0  0  0  0  0999 V2000
  187.8550  177.8810  144.0300 C   0  0  0  0  0  0  0  0  0  0  0  0
  186.6180  178.1080  143.5000 C   0  0  0  0  0  0  0  0  0  0  0  0
  185.6240  178.3290  145.6210 N   0  0  0  0  0  0  0  0  0  0  0  0
  183.1140  178.7430  141.4250 C   0  0  0  0  0  3  0  0  0  0  0  0
  181.9230  178.9800  142.1150 C   0  0  0  0  0  0  0  0  0  0  0  0
  186.6120  178.0890  142.1410 C   0  0  0  0  0  0  0  0  0  0  0  0
  189.9220  177.4340  140.3710 C   0  0  0  0  0  0  0  0  0  0  0  0
  183.0860  178.7910  144.2380 C   0  0  0  0  0  3  0  0  0  0  0  0
  188.7490  177.6940  142.8760 C   0  0  0  0  0  0  0  0  0  0  0  0
  188.2010  177.8770  148.2090 C   0  0  0  0  0  0  0  0  0  0  0  0
  188.5440  177.6970  140.4510 C   0  0  0  0  0  3  0  0  0  0  0  0
  181.9090  179.0030  143.5140 C   0  0  0  0  0  3  0  0  0  0  0  0
  188.3060  177.8780  149.5930 O   0  0  0  0  0  1  0  0  0  0  0  0
  184.2870  178.5520  143.5630 C   0  0  0  0  0  0  0  0  0  0  0  0
  187.9830  177.8230  141.7180 C   0  0  0  0  0  0  0  0  0  0  0  0
  180.7740  179.1880  141.4270 F   0  0  0  0  0  0  0  0  0  0  0  0
  184.3020  178.5280  142.1260 C   0  0  0  0  0  0  0  0  0  0  0  0
  188.0120  177.8720  145.4180 C   0  0  0  0  0  0  0  0  0  0  0  0
  185.4940  178.3330  144.2600 C   0  0  0  0  0  0  0  0  0  0  0  0
  186.9590  178.1040  147.6060 C   0  0  0  0  0  3  0  0  0  0  0  0
  185.4700  178.2960  141.4380 N   0  0  0  0  0  0  0  0  0  0  0  0
  189.3380  177.6500  147.4250 C   0  0  0  0  0  3  0  0  0  0  0  0
  190.5260  177.3010  139.1280 O   0  0  0  0  0  1  0  0  0  0  0  0
  189.2480  177.6460  146.0300 C   0  0  0  0  0  3  0  0  0  0  0  0
  190.7000  177.3040  141.5430 C   0  0  0  0  0  3  0  0  0  0  0  0
  186.8470  178.1050  146.2140 C   0  0  0  0  0  0  0  0  0  0  0  0
  190.1150  177.4340  142.8150 C   0  0  0  0  0  3  0  0  0  0  0  0
  1 18  1  0  0  0  0
  2  1  2  0  0  0  0
  2 19  1  0  0  0  0
  3 26  1  0  0  0  0
  4  5  2  0  0  0  0
  4 17  1  0  0  0  0
  5 12  1  0  0  0  0
  6  2  1  0  0  0  0
  7 11  2  0  0  0  0
  7 25  1  0  0  0  0
  9  1  1  0  0  0  0
 10 13  1  0  0  0  0
 11 15  1  0  0  0  0
 12  8  2  0  0  0  0
 14  8  1  0  0  0  0
 14 19  1  0  0  0  0
 15  6  1  0  0  0  0
 15  9  2  0  0  0  0
 16  5  1  0  0  0  0
 17 14  2  0  0  0  0
 18 24  2  0  0  0  0
 18 26  1  0  0  0  0
 19  3  2  0  0  0  0
 20 10  1  0  0  0  0
 21 17  1  0  0  0  0
 21  6  2  0  0  0  0
 22 10  2  0  0  0  0
 23  7  1  0  0  0  0
 24 22  1  0  0  0  0
 25 27  2  0  0  0  0
 26 20  2  0  0  0  0
 27  9  1  0  0  0  0
M  END
>  <MODEL>
9

>  <REMARK>
 VINA RESULT:     -11.1      3.241      5.947
  Name = 
  0 active torsions:
  status: ('A' for Active; 'I' for Inactive)
                            x       y       z     vdW  Elec       q    Type
                         _______ _______ _______ _____ _____    ______ ____

>  <TORSDO>
F 0

$$$$
