=
 OpenBabel10262419343D

 31 36  0  0  1  0  0  0  0  0999 V2000
  186.6090  177.3480  144.6280 C   0  0  2  0  0  3  0  0  0  0  0  0
  187.4610  177.6330  145.8490 C   0  0  0  0  0  0  0  0  0  0  0  0
  189.5910  177.6630  147.0230 C   0  0  0  0  0  0  0  0  0  0  0  0
  187.3600  177.4740  143.3200 C   0  0  0  0  0  0  0  0  0  0  0  0
  188.6880  177.1910  141.4950 C   0  0  0  0  0  0  0  0  0  0  0  0
  188.8500  177.4310  145.8600 C   0  0  0  0  0  3  0  0  0  0  0  0
  184.7580  178.6730  143.3210 C   0  0  1  0  0  3  0  0  0  0  0  0
  185.3280  178.1630  147.0550 C   0  0  0  0  0  2  0  0  0  0  0  0
  190.9320  177.4770  147.0190 F   0  0  0  0  0  0  0  0  0  0  0  0
  185.8500  179.2220  142.3970 C   0  0  0  0  0  2  0  0  0  0  0  0
  185.3630  178.2350  144.6410 C   0  0  0  0  0  0  0  0  0  0  0  0
  188.5050  176.6320  142.8700 C   0  0  0  0  0  2  0  0  0  0  0  0
  188.9460  178.0760  148.1920 C   0  0  0  0  0  3  0  0  0  0  0  0
  186.9970  178.2650  142.3230 C   0  0  0  0  0  0  0  0  0  0  0  0
  187.8340  178.1120  141.1890 N   0  0  0  0  0  0  0  0  0  0  0  0
  184.8230  178.5900  145.7630 N   0  0  0  0  0  0  0  0  0  0  0  0
  186.8200  178.0400  147.0340 C   0  0  0  0  0  0  0  0  0  0  0  0
  187.5600  178.2570  148.2000 C   0  0  0  0  0  3  0  0  0  0  0  0
  189.7070  176.7540  140.5830 C   0  0  0  0  0  0  0  0  0  0  0  0
  190.5280  176.4010  139.8480 N   0  0  0  0  0  0  0  0  0  0  0  0
  183.6440  179.7020  143.4880 C   0  0  0  0  0  2  0  0  0  0  0  0
  179.8980  177.6850  140.3360 C   0  0  0  0  0  0  0  0  0  0  0  0
  182.1080  178.6620  140.8140 C   0  0  0  0  0  3  0  0  0  0  0  0
  180.3050  178.3130  143.8770 N   0  0  0  0  0  0  0  0  0  0  0  0
  181.4330  178.8500  144.3440 N   0  0  0  0  0  0  0  0  0  0  0  0
  178.9310  177.1630  139.3370 C   0  0  0  0  0  1  0  0  0  0  0  0
  182.3060  179.0630  143.3260 C   0  0  0  0  0  0  0  0  0  0  0  0
  181.1640  178.1570  139.8980 C   0  0  0  0  0  2  0  0  0  0  0  0
  180.4540  178.1860  142.5500 C   0  0  0  0  0  0  0  0  0  0  0  0
  181.7300  178.6630  142.1460 C   0  0  0  0  0  0  0  0  0  0  0  0
  179.5530  177.7080  141.6610 N   0  0  0  0  0  0  0  0  0  0  0  0
  1  4  1  6  0  0  0
  1 11  1  0  0  0  0
  1  2  1  0  0  0  0
  2  6  2  0  0  0  0
  2 17  1  0  0  0  0
  3 13  2  0  0  0  0
  5 12  1  0  0  0  0
  6  3  1  0  0  0  0
  7 21  1  1  0  0  0
  7 11  1  0  0  0  0
  9  3  1  0  0  0  0
 10  7  1  0  0  0  0
 11 16  2  0  0  0  0
 12  4  1  0  0  0  0
 13 18  1  0  0  0  0
 14 10  1  0  0  0  0
 14  4  2  0  0  0  0
 15  5  2  0  0  0  0
 15 14  1  0  0  0  0
 16  8  1  0  0  0  0
 17  8  1  0  0  0  0
 17 18  2  0  0  0  0
 19  5  1  0  0  0  0
 20 19  3  0  0  0  0
 22 31  2  0  0  0  0
 23 30  2  0  0  0  0
 24 25  1  0  0  0  0
 26 22  1  0  0  0  0
 27 21  1  0  0  0  0
 27 25  2  0  0  0  0
 28 22  1  0  0  0  0
 28 23  1  0  0  0  0
 29 24  2  0  0  0  0
 30 29  1  0  0  0  0
 30 27  1  0  0  0  0
 31 29  1  0  0  0  0
M  END
>  <MODEL>
1

>  <REMARK>
 VINA RESULT:     -10.4      0.000      0.000
  Name = 
  3 active torsions:
  status: ('A' for Active; 'I' for Inactive)
    1  A    between atoms: C_2  and  C_13
    2  A    between atoms: C_9  and  C_23
    3  A    between atoms: C_15  and  C_23
                            x       y       z     vdW  Elec       q    Type
                         _______ _______ _______ _____ _____    ______ ____

>  <TORSDO>
F 3

$$$$
=
 OpenBabel10262419343D

 31 36  0  0  1  0  0  0  0  0999 V2000
  187.9720  177.0360  143.8870 C   0  0  2  0  0  3  0  0  0  0  0  0
  186.8410  177.8100  144.5350 C   0  0  0  0  0  0  0  0  0  0  0  0
  185.7010  178.7230  146.4790 C   0  0  0  0  0  0  0  0  0  0  0  0
  189.2760  177.1110  144.6510 C   0  0  0  0  0  0  0  0  0  0  0  0
  190.9970  176.8730  146.1180 C   0  0  0  0  0  0  0  0  0  0  0  0
  186.7870  178.0440  145.9180 C   0  0  0  0  0  3  0  0  0  0  0  0
  189.5350  177.4400  141.8160 C   0  0  1  0  0  3  0  0  0  0  0  0
  185.7790  177.9070  142.2660 C   0  0  0  0  0  2  0  0  0  0  0  0
  185.6660  178.9550  147.8130 F   0  0  0  0  0  0  0  0  0  0  0  0
  190.5550  178.0920  142.7550 C   0  0  0  0  0  2  0  0  0  0  0  0
  188.1510  177.4870  142.4360 C   0  0  0  0  0  0  0  0  0  0  0  0
  189.5340  176.5800  146.0190 C   0  0  0  0  0  2  0  0  0  0  0  0
  184.6500  179.1530  145.6670 C   0  0  0  0  0  3  0  0  0  0  0  0
  190.4210  177.5320  144.1350 C   0  0  0  0  0  0  0  0  0  0  0  0
  191.4950  177.4090  145.0530 N   0  0  0  0  0  0  0  0  0  0  0  0
  187.1320  177.8850  141.7430 N   0  0  0  0  0  0  0  0  0  0  0  0
  185.7720  178.2390  143.7270 C   0  0  0  0  0  0  0  0  0  0  0  0
  184.6810  178.9050  144.2920 C   0  0  0  0  0  3  0  0  0  0  0  0
  191.7930  176.5870  147.2780 C   0  0  0  0  0  0  0  0  0  0  0  0
  192.4350  176.3560  148.2130 N   0  0  0  0  0  0  0  0  0  0  0  0
  189.5930  178.0960  140.4400 C   0  0  0  0  0  2  0  0  0  0  0  0
  187.6200  175.6770  136.1620 C   0  0  0  0  0  0  0  0  0  0  0  0
  187.6270  177.3740  137.9480 C   0  0  0  0  0  3  0  0  0  0  0  0
  190.5480  175.3430  138.2630 N   0  0  0  0  0  0  0  0  0  0  0  0
  190.7380  176.1640  139.2960 N   0  0  0  0  0  0  0  0  0  0  0  0
  186.9430  175.0800  134.9830 C   0  0  0  0  0  1  0  0  0  0  0  0
  189.7250  177.0650  139.3690 C   0  0  0  0  0  0  0  0  0  0  0  0
  187.0180  176.7810  136.8240 C   0  0  0  0  0  2  0  0  0  0  0  0
  189.4030  175.7170  137.6720 C   0  0  0  0  0  0  0  0  0  0  0  0
  188.8310  176.8230  138.3550 C   0  0  0  0  0  0  0  0  0  0  0  0
  188.8080  175.1520  136.5970 N   0  0  0  0  0  0  0  0  0  0  0  0
  1 11  1  6  0  0  0
  1  2  1  0  0  0  0
  1  4  1  0  0  0  0
  2  6  1  0  0  0  0
  3  9  1  0  0  0  0
  4 12  1  0  0  0  0
  5 19  1  0  0  0  0
  6  3  2  0  0  0  0
  7 21  1  6  0  0  0
  7 11  1  0  0  0  0
  7 10  1  0  0  0  0
  8 17  1  0  0  0  0
 10 14  1  0  0  0  0
 12  5  1  0  0  0  0
 13  3  1  0  0  0  0
 14  4  2  0  0  0  0
 14 15  1  0  0  0  0
 15  5  2  0  0  0  0
 16  8  1  0  0  0  0
 16 11  2  0  0  0  0
 17 18  1  0  0  0  0
 17  2  2  0  0  0  0
 18 13  2  0  0  0  0
 19 20  3  0  0  0  0
 22 31  2  0  0  0  0
 22 28  1  0  0  0  0
 23 30  2  0  0  0  0
 24 25  1  0  0  0  0
 25 27  2  0  0  0  0
 26 22  1  0  0  0  0
 27 21  1  0  0  0  0
 28 23  1  0  0  0  0
 29 24  2  0  0  0  0
 29 30  1  0  0  0  0
 30 27  1  0  0  0  0
 31 29  1  0  0  0  0
M  END
>  <MODEL>
2

>  <REMARK>
 VINA RESULT:     -10.2      3.651      6.659
  Name = 
  3 active torsions:
  status: ('A' for Active; 'I' for Inactive)
    1  A    between atoms: C_2  and  C_13
    2  A    between atoms: C_9  and  C_23
    3  A    between atoms: C_15  and  C_23
                            x       y       z     vdW  Elec       q    Type
                         _______ _______ _______ _____ _____    ______ ____

>  <TORSDO>
F 3

$$$$
=
 OpenBabel10262419343D

 31 36  0  0  1  0  0  0  0  0999 V2000
  187.3950  177.2110  143.6110 C   0  0  2  0  0  3  0  0  0  0  0  0
  186.2530  177.8680  144.3610 C   0  0  0  0  0  0  0  0  0  0  0  0
  185.1580  178.5770  146.4130 C   0  0  0  0  0  0  0  0  0  0  0  0
  188.7280  177.3150  144.3200 C   0  0  0  0  0  0  0  0  0  0  0  0
  190.5290  177.0870  145.6890 C   0  0  0  0  0  0  0  0  0  0  0  0
  186.2530  178.0060  145.7580 C   0  0  0  0  0  3  0  0  0  0  0  0
  188.8290  177.8480  141.5060 C   0  0  1  0  0  3  0  0  0  0  0  0
  185.0780  178.0500  142.1540 C   0  0  0  0  0  2  0  0  0  0  0  0
  185.1740  178.7170  147.7590 F   0  0  0  0  0  0  0  0  0  0  0  0
  189.8530  178.4970  142.4420 C   0  0  0  0  0  2  0  0  0  0  0  0
  187.4770  177.7680  142.1890 C   0  0  0  0  0  0  0  0  0  0  0  0
  189.0830  176.7110  145.6350 C   0  0  0  0  0  2  0  0  0  0  0  0
  184.0440  178.9940  145.6800 C   0  0  0  0  0  3  0  0  0  0  0  0
  189.8200  177.8400  143.7850 C   0  0  0  0  0  0  0  0  0  0  0  0
  190.9430  177.7220  144.6420 N   0  0  0  0  0  0  0  0  0  0  0  0
  186.4030  178.1470  141.5710 N   0  0  0  0  0  0  0  0  0  0  0  0
  185.1230  178.2830  143.6330 C   0  0  0  0  0  0  0  0  0  0  0  0
  184.0230  178.8410  144.2910 C   0  0  0  0  0  3  0  0  0  0  0  0
  191.3960  176.7740  146.7900 C   0  0  0  0  0  0  0  0  0  0  0  0
  192.0960  176.5210  147.6760 N   0  0  0  0  0  0  0  0  0  0  0  0
  188.7820  178.5970  140.1770 C   0  0  0  0  0  2  0  0  0  0  0  0
  191.2140  175.1110  137.0200 C   0  0  0  0  0  0  0  0  0  0  0  0
  191.0830  176.6620  138.9280 C   0  0  0  0  0  3  0  0  0  0  0  0
  187.9170  176.5780  137.2780 N   0  0  0  0  0  0  0  0  0  0  0  0
  187.6390  177.4550  138.2440 N   0  0  0  0  0  0  0  0  0  0  0  0
  192.0230  174.1690  136.2040 C   0  0  0  0  0  1  0  0  0  0  0  0
  188.7270  177.6400  139.0340 C   0  0  0  0  0  0  0  0  0  0  0  0
  191.8150  175.7600  138.1310 C   0  0  0  0  0  2  0  0  0  0  0  0
  189.1930  176.2020  137.4470 C   0  0  0  0  0  0  0  0  0  0  0  0
  189.7610  176.8660  138.5670 C   0  0  0  0  0  0  0  0  0  0  0  0
  189.9070  175.3420  136.6860 N   0  0  0  0  0  0  0  0  0  0  0  0
  1 11  1  6  0  0  0
  1  4  1  0  0  0  0
  1  2  1  0  0  0  0
  2  6  1  0  0  0  0
  3  9  1  0  0  0  0
  4 12  1  0  0  0  0
  5 19  1  0  0  0  0
  6  3  2  0  0  0  0
  7 21  1  6  0  0  0
  7 11  1  0  0  0  0
  7 10  1  0  0  0  0
  8 17  1  0  0  0  0
 10 14  1  0  0  0  0
 12  5  1  0  0  0  0
 13  3  1  0  0  0  0
 14  4  2  0  0  0  0
 14 15  1  0  0  0  0
 15  5  2  0  0  0  0
 16  8  1  0  0  0  0
 16 11  2  0  0  0  0
 17 18  1  0  0  0  0
 17  2  2  0  0  0  0
 18 13  2  0  0  0  0
 19 20  3  0  0  0  0
 22 28  1  0  0  0  0
 24 29  2  0  0  0  0
 24 25  1  0  0  0  0
 25 27  2  0  0  0  0
 26 22  1  0  0  0  0
 27 21  1  0  0  0  0
 28 23  1  0  0  0  0
 29 30  1  0  0  0  0
 30 23  2  0  0  0  0
 30 27  1  0  0  0  0
 31 22  2  0  0  0  0
 31 29  1  0  0  0  0
M  END
>  <MODEL>
3

>  <REMARK>
 VINA RESULT:     -10.0      3.433      7.087
  Name = 
  3 active torsions:
  status: ('A' for Active; 'I' for Inactive)
    1  A    between atoms: C_2  and  C_13
    2  A    between atoms: C_9  and  C_23
    3  A    between atoms: C_15  and  C_23
                            x       y       z     vdW  Elec       q    Type
                         _______ _______ _______ _____ _____    ______ ____

>  <TORSDO>
F 3

$$$$
=
 OpenBabel10262419343D

 31 36  0  0  1  0  0  0  0  0999 V2000
  187.5790  176.9670  143.8900 C   0  0  2  0  0  3  0  0  0  0  0  0
  188.4310  177.1640  145.1290 C   0  0  0  0  0  0  0  0  0  0  0  0
  190.5640  177.1330  146.2960 C   0  0  0  0  0  0  0  0  0  0  0  0
  188.3230  177.2140  142.5960 C   0  0  0  0  0  0  0  0  0  0  0  0
  189.6480  177.1070  140.7500 C   0  0  0  0  0  0  0  0  0  0  0  0
  189.8230  176.9860  145.1200 C   0  0  0  0  0  3  0  0  0  0  0  0
  185.7010  178.3640  142.7020 C   0  0  1  0  0  3  0  0  0  0  0  0
  186.2930  177.5560  146.3790 C   0  0  0  0  0  2  0  0  0  0  0  0
  191.9080  176.9720  146.2730 F   0  0  0  0  0  0  0  0  0  0  0  0
  186.7800  179.0070  141.8250 C   0  0  0  0  0  2  0  0  0  0  0  0
  186.3180  177.8280  143.9800 C   0  0  0  0  0  0  0  0  0  0  0  0
  189.4800  176.4320  142.0740 C   0  0  0  0  0  2  0  0  0  0  0  0
  189.9170  177.4360  147.4970 C   0  0  0  0  0  3  0  0  0  0  0  0
  187.9420  178.0790  141.6680 C   0  0  0  0  0  0  0  0  0  0  0  0
  188.7770  178.0350  140.5240 N   0  0  0  0  0  0  0  0  0  0  0  0
  185.7760  178.0790  145.1290 N   0  0  0  0  0  0  0  0  0  0  0  0
  187.7880  177.4600  146.3450 C   0  0  0  0  0  0  0  0  0  0  0  0
  188.5280  177.5920  147.5230 C   0  0  0  0  0  3  0  0  0  0  0  0
  190.6710  176.7650  139.8030 C   0  0  0  0  0  0  0  0  0  0  0  0
  191.4950  176.4890  139.0390 N   0  0  0  0  0  0  0  0  0  0  0  0
  184.5700  179.3570  142.9570 C   0  0  0  0  0  2  0  0  0  0  0  0
  182.0640  178.3600  138.4000 C   0  0  0  0  0  0  0  0  0  0  0  0
  184.0250  178.9330  139.7760 C   0  0  0  0  0  3  0  0  0  0  0  0
  181.2130  178.4200  141.9170 N   0  0  0  0  0  0  0  0  0  0  0  0
  182.1360  178.7180  142.8330 N   0  0  0  0  0  0  0  0  0  0  0  0
  181.4840  178.1270  137.0530 C   0  0  0  0  0  1  0  0  0  0  0  0
  183.3330  178.9440  142.2330 C   0  0  0  0  0  0  0  0  0  0  0  0
  183.4370  178.7020  138.5160 C   0  0  0  0  0  2  0  0  0  0  0  0
  181.8210  178.4600  140.7220 C   0  0  0  0  0  0  0  0  0  0  0  0
  183.1910  178.8010  140.8750 C   0  0  0  0  0  0  0  0  0  0  0  0
  181.2660  178.2460  139.5080 N   0  0  0  0  0  0  0  0  0  0  0  0
  1  4  1  6  0  0  0
  1 11  1  0  0  0  0
  1  2  1  0  0  0  0
  2 17  1  0  0  0  0
  3 13  2  0  0  0  0
  5 12  1  0  0  0  0
  6  2  2  0  0  0  0
  6  3  1  0  0  0  0
  7 21  1  1  0  0  0
  7 11  1  0  0  0  0
  9  3  1  0  0  0  0
 10  7  1  0  0  0  0
 11 16  2  0  0  0  0
 12  4  1  0  0  0  0
 13 18  1  0  0  0  0
 14 10  1  0  0  0  0
 14  4  2  0  0  0  0
 15  5  2  0  0  0  0
 15 14  1  0  0  0  0
 16  8  1  0  0  0  0
 17  8  1  0  0  0  0
 17 18  2  0  0  0  0
 19  5  1  0  0  0  0
 20 19  3  0  0  0  0
 22 28  1  0  0  0  0
 22 31  2  0  0  0  0
 23 30  2  0  0  0  0
 24 25  1  0  0  0  0
 26 22  1  0  0  0  0
 27 25  2  0  0  0  0
 27 21  1  0  0  0  0
 28 23  1  0  0  0  0
 29 30  1  0  0  0  0
 29 24  2  0  0  0  0
 30 27  1  0  0  0  0
 31 29  1  0  0  0  0
M  END
>  <MODEL>
4

>  <REMARK>
 VINA RESULT:      -9.9      1.420      1.737
  Name = 
  3 active torsions:
  status: ('A' for Active; 'I' for Inactive)
    1  A    between atoms: C_2  and  C_13
    2  A    between atoms: C_9  and  C_23
    3  A    between atoms: C_15  and  C_23
                            x       y       z     vdW  Elec       q    Type
                         _______ _______ _______ _____ _____    ______ ____

>  <TORSDO>
F 3

$$$$
=
 OpenBabel10262419343D

 31 36  0  0  1  0  0  0  0  0999 V2000
  187.7940  177.0720  143.9830 C   0  0  2  0  0  3  0  0  0  0  0  0
  186.6530  177.7890  144.6780 C   0  0  0  0  0  0  0  0  0  0  0  0
  185.5380  178.6250  146.6700 C   0  0  0  0  0  0  0  0  0  0  0  0
  189.1170  177.1870  144.7090 C   0  0  0  0  0  0  0  0  0  0  0  0
  190.8900  176.9960  146.1200 C   0  0  0  0  0  0  0  0  0  0  0  0
  186.6320  177.9990  146.0650 C   0  0  0  0  0  3  0  0  0  0  0  0
  189.2750  177.5710  141.8740 C   0  0  1  0  0  3  0  0  0  0  0  0
  185.5190  177.8790  142.4430 C   0  0  0  0  0  2  0  0  0  0  0  0
  185.5340  178.8350  148.0080 F   0  0  0  0  0  0  0  0  0  0  0  0
  190.2970  178.2490  142.7920 C   0  0  0  0  0  2  0  0  0  0  0  0
  187.9100  177.5530  142.5350 C   0  0  0  0  0  0  0  0  0  0  0  0
  189.4370  176.6460  146.0600 C   0  0  0  0  0  2  0  0  0  0  0  0
  184.4450  179.0250  145.8970 C   0  0  0  0  0  3  0  0  0  0  0  0
  190.2280  177.6620  144.1670 C   0  0  0  0  0  0  0  0  0  0  0  0
  191.3330  177.5680  145.0490 N   0  0  0  0  0  0  0  0  0  0  0  0
  186.8550  177.9200  141.8800 N   0  0  0  0  0  0  0  0  0  0  0  0
  185.5440  178.1880  143.9090 C   0  0  0  0  0  0  0  0  0  0  0  0
  184.4450  178.8000  144.5180 C   0  0  0  0  0  3  0  0  0  0  0  0
  191.7320  176.7240  147.2500 C   0  0  0  0  0  0  0  0  0  0  0  0
  192.4110  176.5040  148.1610 N   0  0  0  0  0  0  0  0  0  0  0  0
  189.2660  178.2510  140.5070 C   0  0  0  0  0  2  0  0  0  0  0  0
  190.0530  175.7500  135.9060 C   0  0  0  0  0  0  0  0  0  0  0  0
  188.7150  177.0050  137.5510 C   0  0  0  0  0  3  0  0  0  0  0  0
  192.0250  176.5830  138.8240 N   0  0  0  0  0  0  0  0  0  0  0  0
  191.4830  177.2560  139.8390 N   0  0  0  0  0  0  0  0  0  0  0  0
  190.1270  175.0590  134.5940 C   0  0  0  0  0  1  0  0  0  0  0  0
  190.1860  177.5510  139.5640 C   0  0  0  0  0  0  0  0  0  0  0  0
  188.8270  176.3420  136.3120 C   0  0  0  0  0  2  0  0  0  0  0  0
  191.0690  176.4400  137.8940 C   0  0  0  0  0  0  0  0  0  0  0  0
  189.8600  177.0450  138.3300 C   0  0  0  0  0  0  0  0  0  0  0  0
  191.1640  175.8020  136.7060 N   0  0  0  0  0  0  0  0  0  0  0  0
  1 11  1  6  0  0  0
  1  2  1  0  0  0  0
  1  4  1  0  0  0  0
  2  6  1  0  0  0  0
  3  9  1  0  0  0  0
  4 12  1  0  0  0  0
  5 19  1  0  0  0  0
  6  3  2  0  0  0  0
  7 21  1  6  0  0  0
  7 11  1  0  0  0  0
  7 10  1  0  0  0  0
  8 17  1  0  0  0  0
 10 14  1  0  0  0  0
 12  5  1  0  0  0  0
 13  3  1  0  0  0  0
 14  4  2  0  0  0  0
 14 15  1  0  0  0  0
 15  5  2  0  0  0  0
 16  8  1  0  0  0  0
 16 11  2  0  0  0  0
 17 18  1  0  0  0  0
 17  2  2  0  0  0  0
 18 13  2  0  0  0  0
 19 20  3  0  0  0  0
 22 28  1  0  0  0  0
 22 31  2  0  0  0  0
 23 30  2  0  0  0  0
 24 25  1  0  0  0  0
 26 22  1  0  0  0  0
 27 25  2  0  0  0  0
 27 21  1  0  0  0  0
 28 23  1  0  0  0  0
 29 30  1  0  0  0  0
 29 24  2  0  0  0  0
 30 27  1  0  0  0  0
 31 29  1  0  0  0  0
M  END
>  <MODEL>
5

>  <REMARK>
 VINA RESULT:      -9.6      3.551      7.246
  Name = 
  3 active torsions:
  status: ('A' for Active; 'I' for Inactive)
    1  A    between atoms: C_2  and  C_13
    2  A    between atoms: C_9  and  C_23
    3  A    between atoms: C_15  and  C_23
                            x       y       z     vdW  Elec       q    Type
                         _______ _______ _______ _____ _____    ______ ____

>  <TORSDO>
F 3

$$$$
=
 OpenBabel10262419343D

 31 36  0  0  1  0  0  0  0  0999 V2000
  187.9970  176.8900  143.3620 C   0  0  2  0  0  3  0  0  0  0  0  0
  188.6890  177.0780  144.6980 C   0  0  0  0  0  0  0  0  0  0  0  0
  190.6680  177.0800  146.1110 C   0  0  0  0  0  0  0  0  0  0  0  0
  188.8810  177.1950  142.1720 C   0  0  0  0  0  0  0  0  0  0  0  0
  190.4180  177.1780  140.4960 C   0  0  0  0  0  0  0  0  0  0  0  0
  190.0780  176.9430  144.8510 C   0  0  0  0  0  3  0  0  0  0  0  0
  186.2280  178.2610  141.9910 C   0  0  1  0  0  3  0  0  0  0  0  0
  186.4060  177.3710  145.6930 C   0  0  0  0  0  2  0  0  0  0  0  0
  192.0100  176.9600  146.2440 F   0  0  0  0  0  0  0  0  0  0  0  0
  187.3810  178.9600  141.2650 C   0  0  0  0  0  2  0  0  0  0  0  0
  186.7070  177.7090  143.3200 C   0  0  0  0  0  0  0  0  0  0  0  0
  190.1170  176.4630  141.7740 C   0  0  0  0  0  2  0  0  0  0  0  0
  189.8730  177.3300  147.2320 C   0  0  0  0  0  3  0  0  0  0  0  0
  188.5840  178.0730  141.2260 C   0  0  0  0  0  0  0  0  0  0  0  0
  189.5500  178.0850  140.1890 N   0  0  0  0  0  0  0  0  0  0  0  0
  186.0240  177.9120  144.4020 N   0  0  0  0  0  0  0  0  0  0  0  0
  187.8960  177.3210  145.8350 C   0  0  0  0  0  0  0  0  0  0  0  0
  188.4870  177.4440  147.0960 C   0  0  0  0  0  3  0  0  0  0  0  0
  191.5570  176.8930  139.6690 C   0  0  0  0  0  0  0  0  0  0  0  0
  192.4750  176.6640  139.0040 N   0  0  0  0  0  0  0  0  0  0  0  0
  185.0420  179.2110  142.1330 C   0  0  0  0  0  2  0  0  0  0  0  0
  180.3490  178.4450  139.8030 C   0  0  0  0  0  0  0  0  0  0  0  0
  181.8690  178.6060  141.7350 C   0  0  0  0  0  3  0  0  0  0  0  0
  183.7100  179.2750  138.7480 N   0  0  0  0  0  0  0  0  0  0  0  0
  184.6900  179.4010  139.6450 N   0  0  0  0  0  0  0  0  0  0  0  0
  178.9830  178.1850  139.2820 C   0  0  0  0  0  1  0  0  0  0  0  0
  184.2060  179.1990  140.8970 C   0  0  0  0  0  0  0  0  0  0  0  0
  180.5860  178.3680  141.2010 C   0  0  0  0  0  2  0  0  0  0  0  0
  182.5920  178.9850  139.4300 C   0  0  0  0  0  0  0  0  0  0  0  0
  182.8640  178.9200  140.8230 C   0  0  0  0  0  0  0  0  0  0  0  0
  181.3580  178.7500  138.9290 N   0  0  0  0  0  0  0  0  0  0  0  0
  1  4  1  6  0  0  0
  1  2  1  0  0  0  0
  2  6  2  0  0  0  0
  2 17  1  0  0  0  0
  3  9  1  0  0  0  0
  3 13  2  0  0  0  0
  5 12  1  0  0  0  0
  6  3  1  0  0  0  0
  7 21  1  1  0  0  0
  7 11  1  0  0  0  0
  8 17  1  0  0  0  0
 10  7  1  0  0  0  0
 11  1  1  0  0  0  0
 11 16  2  0  0  0  0
 12  4  1  0  0  0  0
 14 10  1  0  0  0  0
 14  4  2  0  0  0  0
 15  5  2  0  0  0  0
 15 14  1  0  0  0  0
 16  8  1  0  0  0  0
 17 18  2  0  0  0  0
 18 13  1  0  0  0  0
 19  5  1  0  0  0  0
 20 19  3  0  0  0  0
 22 28  1  0  0  0  0
 24 29  2  0  0  0  0
 24 25  1  0  0  0  0
 25 27  2  0  0  0  0
 26 22  1  0  0  0  0
 27 21  1  0  0  0  0
 28 23  1  0  0  0  0
 29 30  1  0  0  0  0
 30 27  1  0  0  0  0
 30 23  2  0  0  0  0
 31 29  1  0  0  0  0
 31 22  2  0  0  0  0
M  END
>  <MODEL>
6

>  <REMARK>
 VINA RESULT:      -9.6      1.861      2.473
  Name = 
  3 active torsions:
  status: ('A' for Active; 'I' for Inactive)
    1  A    between atoms: C_2  and  C_13
    2  A    between atoms: C_9  and  C_23
    3  A    between atoms: C_15  and  C_23
                            x       y       z     vdW  Elec       q    Type
                         _______ _______ _______ _____ _____    ______ ____

>  <TORSDO>
F 3

$$$$
=
 OpenBabel10262419343D

 31 36  0  0  1  0  0  0  0  0999 V2000
  188.8750  178.5480  144.0050 C   0  0  2  0  0  3  0  0  0  0  0  0
  189.4390  177.7590  145.1710 C   0  0  0  0  0  0  0  0  0  0  0  0
  189.2390  176.7320  147.3660 C   0  0  0  0  0  0  0  0  0  0  0  0
  187.3830  178.3780  143.8210 C   0  0  0  0  0  0  0  0  0  0  0  0
  185.1140  178.4530  143.9570 C   0  0  0  0  0  0  0  0  0  0  0  0
  188.6660  177.4210  146.2930 C   0  0  0  0  0  3  0  0  0  0  0  0
  188.9060  178.2610  141.3960 C   0  0  1  0  0  3  0  0  0  0  0  0
  191.6560  177.8680  144.0060 C   0  0  0  0  0  2  0  0  0  0  0  0
  188.4810  176.3990  148.4370 F   0  0  0  0  0  0  0  0  0  0  0  0
  187.5740  177.5100  141.4970 C   0  0  0  0  0  2  0  0  0  0  0  0
  189.6370  178.2050  142.7240 C   0  0  0  0  0  0  0  0  0  0  0  0
  186.3180  178.7940  144.7760 C   0  0  0  0  0  2  0  0  0  0  0  0
  190.5940  176.3960  147.3370 C   0  0  0  0  0  3  0  0  0  0  0  0
  186.8110  177.9650  142.7000 C   0  0  0  0  0  0  0  0  0  0  0  0
  185.3960  177.9870  142.7850 N   0  0  0  0  0  0  0  0  0  0  0  0
  190.8930  177.8910  142.7720 N   0  0  0  0  0  0  0  0  0  0  0  0
  190.8050  177.4240  145.1560 C   0  0  0  0  0  0  0  0  0  0  0  0
  191.3800  176.7480  146.2360 C   0  0  0  0  0  3  0  0  0  0  0  0
  183.7630  178.6260  144.4090 C   0  0  0  0  0  0  0  0  0  0  0  0
  182.6740  178.7660  144.7740 N   0  0  0  0  0  0  0  0  0  0  0  0
  189.7330  177.7110  140.2370 C   0  0  0  0  0  2  0  0  0  0  0  0
  187.3190  176.1380  135.7950 C   0  0  0  0  0  0  0  0  0  0  0  0
  188.3220  175.7930  138.0180 C   0  0  0  0  0  3  0  0  0  0  0  0
  188.4720  179.2670  137.2010 N   0  0  0  0  0  0  0  0  0  0  0  0
  189.0560  179.2970  138.3990 N   0  0  0  0  0  0  0  0  0  0  0  0
  186.6670  175.5560  134.5940 C   0  0  0  0  0  1  0  0  0  0  0  0
  189.0980  178.0470  138.9300 C   0  0  0  0  0  0  0  0  0  0  0  0
  187.6990  175.2810  136.8620 C   0  0  0  0  0  2  0  0  0  0  0  0
  188.1420  177.9890  136.9590 C   0  0  0  0  0  0  0  0  0  0  0  0
  188.5320  177.1620  138.0460 C   0  0  0  0  0  0  0  0  0  0  0  0
  187.5490  177.4860  135.8520 N   0  0  0  0  0  0  0  0  0  0  0  0
  1 11  1  6  0  0  0
  1  2  1  0  0  0  0
  2  6  1  0  0  0  0
  3  9  1  0  0  0  0
  4  1  1  0  0  0  0
  4 12  1  0  0  0  0
  5 19  1  0  0  0  0
  5 12  1  0  0  0  0
  6  3  2  0  0  0  0
  7 21  1  6  0  0  0
  7 10  1  0  0  0  0
  7 11  1  0  0  0  0
  8 17  1  0  0  0  0
 10 14  1  0  0  0  0
 11 16  2  0  0  0  0
 13  3  1  0  0  0  0
 14 15  1  0  0  0  0
 14  4  2  0  0  0  0
 15  5  2  0  0  0  0
 16  8  1  0  0  0  0
 17  2  2  0  0  0  0
 17 18  1  0  0  0  0
 18 13  2  0  0  0  0
 19 20  3  0  0  0  0
 22 31  2  0  0  0  0
 22 28  1  0  0  0  0
 23 30  2  0  0  0  0
 24 25  1  0  0  0  0
 25 27  2  0  0  0  0
 26 22  1  0  0  0  0
 27 21  1  0  0  0  0
 28 23  1  0  0  0  0
 29 24  2  0  0  0  0
 29 30  1  0  0  0  0
 30 27  1  0  0  0  0
 31 29  1  0  0  0  0
M  END
>  <MODEL>
7

>  <REMARK>
 VINA RESULT:      -8.6      2.902      6.370
  Name = 
  3 active torsions:
  status: ('A' for Active; 'I' for Inactive)
    1  A    between atoms: C_2  and  C_13
    2  A    between atoms: C_9  and  C_23
    3  A    between atoms: C_15  and  C_23
                            x       y       z     vdW  Elec       q    Type
                         _______ _______ _______ _____ _____    ______ ____

>  <TORSDO>
F 3

$$$$
=
 OpenBabel10262419343D

 31 36  0  0  1  0  0  0  0  0999 V2000
  187.1310  178.6450  141.2700 C   0  0  2  0  0  3  0  0  0  0  0  0
  186.0410  178.5000  140.2260 C   0  0  0  0  0  0  0  0  0  0  0  0
  185.2900  178.1600  137.9390 C   0  0  0  0  0  0  0  0  0  0  0  0
  188.3970  177.8860  140.9380 C   0  0  0  0  0  0  0  0  0  0  0  0
  190.3780  177.1470  140.1020 C   0  0  0  0  0  0  0  0  0  0  0  0
  186.3240  178.2410  138.8760 C   0  0  0  0  0  3  0  0  0  0  0  0
  187.5410  177.6420  143.6610 C   0  0  1  0  0  3  0  0  0  0  0  0
  184.4070  179.0800  142.0370 C   0  0  0  0  0  2  0  0  0  0  0  0
  185.5730  177.8970  136.6410 F   0  0  0  0  0  0  0  0  0  0  0  0
  188.3500  176.5150  143.0130 C   0  0  0  0  0  2  0  0  0  0  0  0
  186.5920  178.2530  142.6470 C   0  0  0  0  0  0  0  0  0  0  0  0
  189.3020  178.1350  139.7810 C   0  0  0  0  0  3  0  0  0  0  0  0
  183.9670  178.3600  138.3390 C   0  0  0  0  0  3  0  0  0  0  0  0
  188.9560  176.9820  141.7290 C   0  0  1  0  0  3  0  0  0  0  0  0
  190.1800  176.5000  141.2030 N   0  0  0  0  0  0  0  0  0  0  0  0
  185.3490  178.4570  142.9480 N   0  0  0  0  0  0  0  0  0  0  0  0
  184.7060  178.7090  140.6170 C   0  0  0  0  0  0  0  0  0  0  0  0
  183.6740  178.6420  139.6760 C   0  0  0  0  0  3  0  0  0  0  0  0
  191.5350  176.9290  139.2800 C   0  0  0  0  0  0  0  0  0  0  0  0
  192.4670  176.7530  138.6170 N   0  0  0  0  0  0  0  0  0  0  0  0
  186.8280  177.1280  144.9090 C   0  0  0  0  0  2  0  0  0  0  0  0
  191.3050  176.9060  147.7280 C   0  0  0  0  0  0  0  0  0  0  0  0
  189.9110  176.4930  145.7400 C   0  0  0  0  0  3  0  0  0  0  0  0
  187.9790  178.2610  148.1680 N   0  0  0  0  0  0  0  0  0  0  0  0
  187.0630  178.1350  147.2070 N   0  0  0  0  0  0  0  0  0  0  0  0
  192.6140  176.7530  148.4130 C   0  0  0  0  0  1  0  0  0  0  0  0
  187.5940  177.4860  146.1390 C   0  0  0  0  0  0  0  0  0  0  0  0
  191.1370  176.3710  146.4230 C   0  0  0  0  0  2  0  0  0  0  0  0
  189.1020  177.6840  147.7160 C   0  0  0  0  0  0  0  0  0  0  0  0
  188.9000  177.1630  146.4100 C   0  0  0  0  0  0  0  0  0  0  0  0
  190.2820  177.5560  148.3640 N   0  0  0  0  0  0  0  0  0  0  0  0
  1  2  1  6  0  0  0
  1 11  1  0  0  0  0
  2 17  1  0  0  0  0
  3 13  2  0  0  0  0
  3  6  1  0  0  0  0
  4  1  1  0  0  0  0
  4 14  1  0  0  0  0
  5 15  2  0  0  0  0
  6  2  2  0  0  0  0
  7 21  1  1  0  0  0
  8 16  1  0  0  0  0
  9  3  1  0  0  0  0
 10  7  1  0  0  0  0
 11 16  2  0  0  0  0
 11  7  1  0  0  0  0
 12  5  1  0  0  0  0
 12  4  2  0  0  0  0
 13 18  1  0  0  0  0
 14 10  1  6  0  0  0
 15 14  1  0  0  0  0
 17  8  1  0  0  0  0
 18 17  2  0  0  0  0
 19  5  1  0  0  0  0
 20 19  3  0  0  0  0
 21 27  1  0  0  0  0
 22 31  2  0  0  0  0
 22 26  1  0  0  0  0
 23 30  2  0  0  0  0
 23 28  1  0  0  0  0
 25 24  1  0  0  0  0
 27 30  1  0  0  0  0
 27 25  2  0  0  0  0
 28 22  1  0  0  0  0
 29 24  2  0  0  0  0
 29 31  1  0  0  0  0
 30 29  1  0  0  0  0
M  END
>  <MODEL>
8

>  <REMARK>
 VINA RESULT:      -8.4      3.306      7.845
  Name = 
  3 active torsions:
  status: ('A' for Active; 'I' for Inactive)
    1  A    between atoms: C_2  and  C_13
    2  A    between atoms: C_9  and  C_23
    3  A    between atoms: C_15  and  C_23
                            x       y       z     vdW  Elec       q    Type
                         _______ _______ _______ _____ _____    ______ ____

>  <TORSDO>
F 3

$$$$
=
 OpenBabel10262419343D

 31 36  0  0  1  0  0  0  0  0999 V2000
  186.5630  178.7630  140.3370 C   0  0  2  0  0  3  0  0  0  0  0  0
  185.9060  178.2630  139.0660 C   0  0  0  0  0  0  0  0  0  0  0  0
  186.0010  177.3940  136.7960 C   0  0  0  0  0  0  0  0  0  0  0  0
  187.9250  178.1550  140.5970 C   0  0  0  0  0  0  0  0  0  0  0  0
  190.1260  177.5820  140.6110 C   0  0  0  0  0  0  0  0  0  0  0  0
  186.6470  177.8040  137.9660 C   0  0  0  0  0  3  0  0  0  0  0  0
  186.2230  178.2950  142.8980 C   0  0  1  0  0  3  0  0  0  0  0  0
  183.7150  178.9150  140.0960 C   0  0  0  0  0  2  0  0  0  0  0  0
  186.7260  176.9410  135.7470 F   0  0  0  0  0  0  0  0  0  0  0  0
  187.2930  177.2020  142.8060 C   0  0  0  0  0  2  0  0  0  0  0  0
  185.6260  178.5560  141.5280 C   0  0  0  0  0  0  0  0  0  0  0  0
  189.1440  178.3190  139.7560 C   0  0  0  0  0  3  0  0  0  0  0  0
  184.6080  177.4630  136.7070 C   0  0  0  0  0  3  0  0  0  0  0  0
  188.2560  177.5100  141.7050 C   0  0  1  0  0  3  0  0  0  0  0  0
  189.6210  177.1290  141.7110 N   0  0  0  0  0  0  0  0  0  0  0  0
  184.3420  178.6220  141.3710 N   0  0  0  0  0  0  0  0  0  0  0  0
  184.5040  178.3360  138.9620 C   0  0  0  0  0  0  0  0  0  0  0  0
  183.8600  177.9400  137.7860 C   0  0  0  0  0  3  0  0  0  0  0  0
  191.5050  177.3930  140.2620 C   0  0  0  0  0  0  0  0  0  0  0  0
  192.6170  177.2410  139.9810 N   0  0  0  0  0  0  0  0  0  0  0  0
  185.1760  177.9190  143.9420 C   0  0  0  0  0  2  0  0  0  0  0  0
  188.7850  178.0590  147.8140 C   0  0  0  0  0  0  0  0  0  0  0  0
  187.9570  177.4650  145.5720 C   0  0  0  0  0  3  0  0  0  0  0  0
  185.4260  179.3020  147.2980 N   0  0  0  0  0  0  0  0  0  0  0  0
  184.7910  179.0780  146.1470 N   0  0  0  0  0  0  0  0  0  0  0  0
  189.8780  178.0020  148.8190 C   0  0  0  0  0  1  0  0  0  0  0  0
  185.5920  178.3850  145.2970 C   0  0  0  0  0  0  0  0  0  0  0  0
  188.9700  177.4360  146.5510 C   0  0  0  0  0  2  0  0  0  0  0  0
  186.6410  178.7440  147.1880 C   0  0  0  0  0  0  0  0  0  0  0  0
  186.7930  178.1340  145.9140 C   0  0  0  0  0  0  0  0  0  0  0  0
  187.6180  178.7050  148.1220 N   0  0  0  0  0  0  0  0  0  0  0  0
  1  2  1  6  0  0  0
  1  4  1  0  0  0  0
  1 11  1  0  0  0  0
  3  6  1  0  0  0  0
  4 14  1  0  0  0  0
  5 15  2  0  0  0  0
  6  2  2  0  0  0  0
  7 21  1  1  0  0  0
  8 16  1  0  0  0  0
  9  3  1  0  0  0  0
 10  7  1  0  0  0  0
 11  7  1  0  0  0  0
 12  4  2  0  0  0  0
 12  5  1  0  0  0  0
 13  3  2  0  0  0  0
 13 18  1  0  0  0  0
 14 15  1  0  0  0  0
 14 10  1  6  0  0  0
 16 11  2  0  0  0  0
 17  2  1  0  0  0  0
 17  8  1  0  0  0  0
 18 17  2  0  0  0  0
 19  5  1  0  0  0  0
 20 19  3  0  0  0  0
 21 27  1  0  0  0  0
 22 31  2  0  0  0  0
 22 26  1  0  0  0  0
 23 30  2  0  0  0  0
 23 28  1  0  0  0  0
 25 24  1  0  0  0  0
 27 30  1  0  0  0  0
 27 25  2  0  0  0  0
 28 22  1  0  0  0  0
 29 24  2  0  0  0  0
 29 31  1  0  0  0  0
 30 29  1  0  0  0  0
M  END
>  <MODEL>
9

>  <REMARK>
 VINA RESULT:      -8.3      3.239      7.328
  Name = 
  3 active torsions:
  status: ('A' for Active; 'I' for Inactive)
    1  A    between atoms: C_2  and  C_13
    2  A    between atoms: C_9  and  C_23
    3  A    between atoms: C_15  and  C_23
                            x       y       z     vdW  Elec       q    Type
                         _______ _______ _______ _____ _____    ______ ____

>  <TORSDO>
F 3

$$$$
