=
 OpenBabel10262421073D

 32 38  0  0  1  0  0  0  0  0999 V2000
  189.9260  177.2630  142.4130 C   0  0  0  0  0  0  0  0  0  0  0  0
  188.1420  177.8060  143.9970 C   0  0  1  0  0  3  0  0  0  0  0  0
  191.0600  177.9750  142.4140 C   0  0  0  0  0  3  0  0  0  0  0  0
  189.2810  176.8550  143.6950 C   0  0  2  0  0  3  0  0  0  0  0  0
  187.0000  178.6090  146.1480 C   0  0  2  0  0  3  0  0  0  0  0  0
  183.4240  178.6560  142.1930 C   0  0  0  0  0  2  0  0  0  0  0  0
  187.0710  177.6050  142.8850 C   0  0  2  0  0  3  0  0  0  0  0  0
  183.8020  179.1970  144.3390 C   0  0  0  0  0  2  0  0  0  0  0  0
  185.1870  178.5470  144.4100 C   0  0  2  0  0  3  0  0  0  0  0  0
  190.2140  176.7630  144.8910 C   0  0  2  0  0  3  0  0  0  0  0  0
  186.0700  179.4310  145.2680 C   0  0  0  0  0  2  0  0  0  0  0  0
  189.2050  177.0070  146.3780 S   0  0  0  0  0  0  0  0  0  0  0  0
  191.3480  177.7530  144.8360 C   0  0  0  0  0  3  0  0  0  0  0  0
  187.6950  177.9150  141.5010 C   0  0  0  0  0  2  0  0  0  0  0  0
  189.0150  177.1550  141.2250 C   0  0  1  0  0  3  0  0  0  0  0  0
  185.7910  178.4570  142.9990 C   0  0  2  0  0  3  0  0  0  0  0  0
  187.7050  177.4550  145.4190 C   0  0  2  0  0  3  0  0  0  0  0  0
  191.7630  178.2710  143.6770 C   0  0  0  0  0  3  0  0  0  0  0  0
  182.9560  178.4530  143.5010 O   0  0  0  0  0  0  0  0  0  0  0  0
  184.7490  177.9230  142.0060 C   0  0  0  0  0  2  0  0  0  0  0  0
  188.9530  176.6460  137.8780 C   0  0  1  0  0  0  0  0  0  0  0  0
  187.8090  175.8770  137.3640 C   0  0  0  0  0  2  0  0  0  0  0  0
  190.2220  175.9110  138.1500 C   0  0  2  0  0  3  0  0  0  0  0  0
  189.6630  177.5050  139.9470 N   0  0  1  0  0  0  0  0  0  0  0  0
  188.5150  176.8000  136.5520 O   0  0  0  0  0  0  0  0  0  0  0  0
  190.5390  176.3780  139.5680 C   0  0  0  0  0  2  0  0  0  0  0  0
  188.6790  177.7260  138.8770 C   0  0  1  0  0  3  0  0  0  0  0  0
  188.9110  179.0950  138.2590 C   0  0  0  0  0  1  0  0  0  0  0  0
  192.3820  176.7300  137.6630 O   0  0  0  0  0  0  0  0  0  0  0  0
  191.3030  176.3670  137.2220 C   0  0  0  0  0  3  0  0  0  0  0  0
  186.2250  178.0880  147.3490 C   0  0  0  0  0  2  0  0  0  0  0  0
  187.0480  178.2510  148.6120 C   0  0  0  0  0  1  0  0  0  0  0  0
  1  3  2  0  0  0  0
  1  4  1  0  0  0  0
  2 17  1  0  0  0  0
  3 18  1  0  0  0  0
  4  2  1  0  0  0  0
  4 10  1  0  0  0  0
  5 31  1  0  0  0  0
  6 19  1  0  0  0  0
  7 16  1  0  0  0  0
  7  2  1  0  0  0  0
  8  9  1  0  0  0  0
  9 11  1  0  0  0  0
 10 12  1  0  0  0  0
 11  5  1  0  0  0  0
 13 10  1  0  0  0  0
 14  7  1  0  0  0  0
 15 14  1  0  0  0  0
 15  1  1  0  0  0  0
 16  9  1  0  0  0  0
 17  5  1  0  0  0  0
 17 12  1  0  0  0  0
 18 13  2  0  0  0  0
 19  8  1  0  0  0  0
 20  6  1  0  0  0  0
 20 16  1  0  0  0  0
 21 23  1  0  0  0  0
 21 27  1  0  0  0  0
 22 21  1  0  0  0  0
 23 26  1  0  0  0  0
 24 15  1  0  0  0  0
 25 22  1  0  0  0  0
 25 21  1  0  0  0  0
 26 24  1  0  0  0  0
 27 24  1  0  0  0  0
 28 27  1  0  0  0  0
 30 29  2  0  0  0  0
 30 23  1  0  0  0  0
 31 32  1  0  0  0  0
M  END
>  <MODEL>
1

>  <REMARK>
 VINA RESULT:      -9.0      0.000      0.000
  Name = 
  3 active torsions:
  status: ('A' for Active; 'I' for Inactive)
    1  A    between atoms: C_6  and  C_13
    2  A    between atoms: C_15  and  C_26
    3  A    between atoms: N_16  and  C_27
                            x       y       z     vdW  Elec       q    Type
                         _______ _______ _______ _____ _____    ______ ____

>  <TORSDO>
F 3

$$$$
=
 OpenBabel10262421073D

 32 38  0  0  1  0  0  0  0  0999 V2000
  185.8410  178.3540  139.6940 C   0  0  0  0  0  0  0  0  0  0  0  0
  186.4060  178.1730  142.0690 C   0  0  1  0  0  3  0  0  0  0  0  0
  184.8600  177.6020  139.1820 C   0  0  0  0  0  3  0  0  0  0  0  0
  185.6860  179.0050  141.0290 C   0  0  2  0  0  3  0  0  0  0  0  0
  186.1070  177.8030  144.5890 C   0  0  2  0  0  3  0  0  0  0  0  0
  191.2700  177.2450  143.3780 C   0  0  0  0  0  2  0  0  0  0  0  0
  187.9240  178.2300  141.7290 C   0  0  2  0  0  3  0  0  0  0  0  0
  189.7300  177.0620  145.0020 C   0  0  0  0  0  2  0  0  0  0  0  0
  188.5810  177.6500  144.1780 C   0  0  2  0  0  3  0  0  0  0  0  0
  184.2520  179.2560  141.4640 C   0  0  2  0  0  3  0  0  0  0  0  0
  187.3210  176.8860  144.5300 C   0  0  0  0  0  2  0  0  0  0  0  0
  184.2450  179.3180  143.2770 S   0  0  0  0  0  0  0  0  0  0  0  0
  183.2850  178.2210  140.9520 C   0  0  0  0  0  3  0  0  0  0  0  0
  188.1600  177.6590  140.3080 C   0  0  0  0  0  2  0  0  0  0  0  0
  187.2650  178.2990  139.2200 C   0  0  1  0  0  3  0  0  0  0  0  0
  188.8720  177.4700  142.6790 C   0  0  2  0  0  3  0  0  0  0  0  0
  185.9950  178.7810  143.4100 C   0  0  2  0  0  3  0  0  0  0  0  0
  183.5580  177.4940  139.8650 C   0  0  0  0  0  3  0  0  0  0  0  0
  190.9410  177.6900  144.6680 O   0  0  0  0  0  0  0  0  0  0  0  0
  190.3190  177.8730  142.3640 C   0  0  0  0  0  2  0  0  0  0  0  0
  189.3030  176.4530  137.2450 C   0  0  1  0  0  0  0  0  0  0  0  0
  190.4770  175.8610  137.9050 C   0  0  0  0  0  2  0  0  0  0  0  0
  189.4840  177.7500  136.5310 C   0  0  2  0  0  3  0  0  0  0  0  0
  187.4190  177.7070  137.8790 N   0  0  1  0  0  0  0  0  0  0  0  0
  189.9110  175.2930  136.7360 O   0  0  0  0  0  0  0  0  0  0  0  0
  188.3370  178.5730  137.1110 C   0  0  0  0  0  2  0  0  0  0  0  0
  187.9820  176.3500  137.9400 C   0  0  1  0  0  3  0  0  0  0  0  0
  187.0630  175.3920  137.2000 C   0  0  0  0  0  1  0  0  0  0  0  0
  188.1490  177.5590  134.5940 O   0  0  0  0  0  0  0  0  0  0  0  0
  189.2770  177.5740  135.0600 C   0  0  0  0  0  3  0  0  0  0  0  0
  186.1100  178.5570  145.9110 C   0  0  0  0  0  2  0  0  0  0  0  0
  184.8980  178.1710  146.7350 C   0  0  0  0  0  1  0  0  0  0  0  0
  1  4  1  0  0  0  0
  2 17  1  0  0  0  0
  3  1  2  0  0  0  0
  3 18  1  0  0  0  0
  4 10  1  0  0  0  0
  4  2  1  0  0  0  0
  5 31  1  0  0  0  0
  6 19  1  0  0  0  0
  7  2  1  0  0  0  0
  7 16  1  0  0  0  0
  9 11  1  0  0  0  0
  9  8  1  0  0  0  0
 10 12  1  0  0  0  0
 11  5  1  0  0  0  0
 12 17  1  0  0  0  0
 13 10  1  0  0  0  0
 14  7  1  0  0  0  0
 15  1  1  0  0  0  0
 15 14  1  0  0  0  0
 16  9  1  0  0  0  0
 17  5  1  0  0  0  0
 18 13  2  0  0  0  0
 19  8  1  0  0  0  0
 20 16  1  0  0  0  0
 20  6  1  0  0  0  0
 21 22  1  0  0  0  0
 21 27  1  0  0  0  0
 23 26  1  0  0  0  0
 23 21  1  0  0  0  0
 24 27  1  0  0  0  0
 24 15  1  0  0  0  0
 25 21  1  0  0  0  0
 25 22  1  0  0  0  0
 26 24  1  0  0  0  0
 28 27  1  0  0  0  0
 29 30  2  0  0  0  0
 30 23  1  0  0  0  0
 31 32  1  0  0  0  0
M  END
>  <MODEL>
2

>  <REMARK>
 VINA RESULT:      -8.5      2.326      4.790
  Name = 
  3 active torsions:
  status: ('A' for Active; 'I' for Inactive)
    1  A    between atoms: C_6  and  C_13
    2  A    between atoms: C_15  and  C_26
    3  A    between atoms: N_16  and  C_27
                            x       y       z     vdW  Elec       q    Type
                         _______ _______ _______ _____ _____    ______ ____

>  <TORSDO>
F 3

$$$$
=
 OpenBabel10262421073D

 32 38  0  0  1  0  0  0  0  0999 V2000
  183.7340  179.1080  142.6270 C   0  0  0  0  0  0  0  0  0  0  0  0
  185.9130  178.3520  143.4450 C   0  0  1  0  0  3  0  0  0  0  0  0
  182.6150  178.5130  143.0580 C   0  0  0  0  0  3  0  0  0  0  0  0
  184.8460  179.4190  143.5740 C   0  0  2  0  0  3  0  0  0  0  0  0
  187.6810  177.3870  145.0320 C   0  0  2  0  0  3  0  0  0  0  0  0
  189.5180  177.0830  140.0350 C   0  0  0  0  0  2  0  0  0  0  0  0
  186.5110  178.4730  142.0140 C   0  0  2  0  0  3  0  0  0  0  0  0
  189.9070  176.5300  142.1760 C   0  0  0  0  0  2  0  0  0  0  0  0
  188.7200  177.3110  142.7450 C   0  0  2  0  0  3  0  0  0  0  0  0
  184.4350  179.5730  145.0280 C   0  0  2  0  0  3  0  0  0  0  0  0
  188.1320  176.4980  143.8810 C   0  0  0  0  0  2  0  0  0  0  0  0
  185.8920  179.1940  146.0400 S   0  0  0  0  0  0  0  0  0  0  0  0
  183.2670  178.7020  145.4110 C   0  0  0  0  0  3  0  0  0  0  0  0
  185.3920  178.2610  140.9630 C   0  0  0  0  0  2  0  0  0  0  0  0
  184.1480  179.1540  141.1850 C   0  0  1  0  0  3  0  0  0  0  0  0
  187.6500  177.4960  141.6580 C   0  0  2  0  0  3  0  0  0  0  0  0
  186.8770  178.6230  144.6010 C   0  0  2  0  0  3  0  0  0  0  0  0
  182.4030  178.2560  144.4950 C   0  0  0  0  0  3  0  0  0  0  0  0
  190.4540  177.2060  141.0750 O   0  0  0  0  0  0  0  0  0  0  0  0
  188.2990  177.9480  140.3420 C   0  0  0  0  0  2  0  0  0  0  0  0
  183.3530  177.8680  138.1550 C   0  0  1  0  0  0  0  0  0  0  0  0
  184.4320  177.1570  137.4540 C   0  0  0  0  0  2  0  0  0  0  0  0
  183.1230  179.3020  137.8110 C   0  0  2  0  0  3  0  0  0  0  0  0
  183.0420  178.9020  140.2430 N   0  0  1  0  0  0  0  0  0  0  0  0
  183.0650  176.8750  137.2040 O   0  0  0  0  0  0  0  0  0  0  0  0
  183.1020  179.9420  139.1960 C   0  0  0  0  0  2  0  0  0  0  0  0
  183.1530  177.5800  139.6100 C   0  0  1  0  0  3  0  0  0  0  0  0
  181.8600  176.8110  139.8270 C   0  0  0  0  0  1  0  0  0  0  0  0
  180.7830  179.6130  137.8390 O   0  0  0  0  0  0  0  0  0  0  0  0
  181.7870  179.4790  137.1590 C   0  0  0  0  0  3  0  0  0  0  0  0
  188.8940  177.7990  145.8540 C   0  0  0  0  0  2  0  0  0  0  0  0
  188.9140  177.0450  147.1690 C   0  0  0  0  0  1  0  0  0  0  0  0
  1  3  2  0  0  0  0
  1  4  1  0  0  0  0
  2  4  1  0  0  0  0
  2 17  1  0  0  0  0
  3 18  1  0  0  0  0
  4 10  1  0  0  0  0
  5 31  1  0  0  0  0
  6 20  1  0  0  0  0
  6 19  1  0  0  0  0
  7  2  1  0  0  0  0
  8  9  1  0  0  0  0
  9 11  1  0  0  0  0
 10 13  1  0  0  0  0
 10 12  1  0  0  0  0
 11  5  1  0  0  0  0
 14 15  1  0  0  0  0
 14  7  1  0  0  0  0
 15  1  1  0  0  0  0
 16  7  1  0  0  0  0
 16  9  1  0  0  0  0
 17  5  1  0  0  0  0
 17 12  1  0  0  0  0
 18 13  2  0  0  0  0
 19  8  1  0  0  0  0
 20 16  1  0  0  0  0
 21 27  1  0  0  0  0
 22 21  1  0  0  0  0
 23 21  1  0  0  0  0
 23 26  1  0  0  0  0
 24 15  1  0  0  0  0
 25 22  1  0  0  0  0
 25 21  1  0  0  0  0
 26 24  1  0  0  0  0
 27 28  1  0  0  0  0
 27 24  1  0  0  0  0
 30 23  1  0  0  0  0
 30 29  2  0  0  0  0
 31 32  1  0  0  0  0
M  END
>  <MODEL>
3

>  <REMARK>
 VINA RESULT:      -7.6      2.976      6.147
  Name = 
  3 active torsions:
  status: ('A' for Active; 'I' for Inactive)
    1  A    between atoms: C_6  and  C_13
    2  A    between atoms: C_15  and  C_26
    3  A    between atoms: N_16  and  C_27
                            x       y       z     vdW  Elec       q    Type
                         _______ _______ _______ _____ _____    ______ ____

>  <TORSDO>
F 3

$$$$
=
 OpenBabel10262421073D

 32 38  0  0  1  0  0  0  0  0999 V2000
  189.1490  177.3110  141.4870 C   0  0  0  0  0  0  0  0  0  0  0  0
  188.5730  177.4730  143.8590 C   0  0  1  0  0  3  0  0  0  0  0  0
  190.2260  177.9530  141.0150 C   0  0  0  0  0  3  0  0  0  0  0  0
  189.2000  176.5960  142.7960 C   0  0  2  0  0  3  0  0  0  0  0  0
  188.8740  177.7070  146.3950 C   0  0  2  0  0  3  0  0  0  0  0  0
  183.8430  178.9580  145.1480 C   0  0  0  0  0  2  0  0  0  0  0  0
  187.0650  177.6210  143.5000 C   0  0  2  0  0  3  0  0  0  0  0  0
  185.3660  178.8830  146.7950 C   0  0  0  0  0  2  0  0  0  0  0  0
  186.4460  178.1870  145.9620 C   0  0  2  0  0  3  0  0  0  0  0  0
  190.5830  176.1500  143.2380 C   0  0  2  0  0  3  0  0  0  0  0  0
  187.7860  178.7720  146.3590 C   0  0  0  0  0  2  0  0  0  0  0  0
  190.5520  176.0200  145.0470 S   0  0  0  0  0  0  0  0  0  0  0  0
  191.6810  177.0740  142.7790 C   0  0  0  0  0  3  0  0  0  0  0  0
  186.9260  178.2700  142.1000 C   0  0  0  0  0  2  0  0  0  0  0  0
  187.7520  177.5640  140.9980 C   0  0  1  0  0  3  0  0  0  0  0  0
  186.2050  178.4580  144.4680 C   0  0  2  0  0  3  0  0  0  0  0  0
  188.8810  176.7680  145.1800 C   0  0  2  0  0  3  0  0  0  0  0  0
  191.5200  177.8700  141.7180 C   0  0  0  0  0  3  0  0  0  0  0  0
  184.0920  178.4260  146.4230 O   0  0  0  0  0  0  0  0  0  0  0  0
  184.7240  178.2530  144.1200 C   0  0  0  0  0  2  0  0  0  0  0  0
  187.5300  177.0260  137.6620 C   0  0  1  0  0  0  0  0  0  0  0  0
  187.2780  175.6370  137.2490 C   0  0  0  0  0  2  0  0  0  0  0  0
  188.9420  177.5050  137.6760 C   0  0  2  0  0  3  0  0  0  0  0  0
  187.6950  178.2210  139.6790 N   0  0  1  0  0  0  0  0  0  0  0  0
  186.9100  176.7370  136.4350 O   0  0  0  0  0  0  0  0  0  0  0  0
  189.0370  178.1170  139.0710 C   0  0  0  0  0  2  0  0  0  0  0  0
  186.7160  177.5800  138.7900 C   0  0  1  0  0  3  0  0  0  0  0  0
  185.7420  178.6280  138.2790 C   0  0  0  0  0  1  0  0  0  0  0  0
  189.0550  179.7510  136.9570 O   0  0  0  0  0  0  0  0  0  0  0  0
  189.1450  178.5740  136.6480 C   0  0  0  0  0  3  0  0  0  0  0  0
  188.7540  176.9100  147.6860 C   0  0  0  0  0  2  0  0  0  0  0  0
  188.4170  177.8340  148.8400 C   0  0  0  0  0  1  0  0  0  0  0  0
  1  4  1  0  0  0  0
  2 17  1  0  0  0  0
  3  1  2  0  0  0  0
  3 18  1  0  0  0  0
  4 10  1  0  0  0  0
  4  2  1  0  0  0  0
  5 31  1  0  0  0  0
  6 19  1  0  0  0  0
  7  2  1  0  0  0  0
  7 16  1  0  0  0  0
  9 11  1  0  0  0  0
  9  8  1  0  0  0  0
 10 12  1  0  0  0  0
 11  5  1  0  0  0  0
 12 17  1  0  0  0  0
 13 10  1  0  0  0  0
 14  7  1  0  0  0  0
 15  1  1  0  0  0  0
 15 14  1  0  0  0  0
 16  9  1  0  0  0  0
 17  5  1  0  0  0  0
 18 13  2  0  0  0  0
 19  8  1  0  0  0  0
 20 16  1  0  0  0  0
 20  6  1  0  0  0  0
 21 23  1  0  0  0  0
 21 27  1  0  0  0  0
 22 21  1  0  0  0  0
 23 26  1  0  0  0  0
 24 15  1  0  0  0  0
 25 22  1  0  0  0  0
 25 21  1  0  0  0  0
 26 24  1  0  0  0  0
 27 24  1  0  0  0  0
 28 27  1  0  0  0  0
 30 29  2  0  0  0  0
 30 23  1  0  0  0  0
 31 32  1  0  0  0  0
M  END
>  <MODEL>
4

>  <REMARK>
 VINA RESULT:      -7.5      1.726      2.156
  Name = 
  3 active torsions:
  status: ('A' for Active; 'I' for Inactive)
    1  A    between atoms: C_6  and  C_13
    2  A    between atoms: C_15  and  C_26
    3  A    between atoms: N_16  and  C_27
                            x       y       z     vdW  Elec       q    Type
                         _______ _______ _______ _____ _____    ______ ____

>  <TORSDO>
F 3

$$$$
=
 OpenBabel10262421073D

 32 38  0  0  1  0  0  0  0  0999 V2000
  188.4300  177.9430  140.1570 C   0  0  0  0  0  0  0  0  0  0  0  0
  186.0080  178.1550  139.8780 C   0  0  1  0  0  3  0  0  0  0  0  0
  189.0590  176.8440  139.7210 C   0  0  0  0  0  3  0  0  0  0  0  0
  187.3570  178.5830  139.3400 C   0  0  2  0  0  3  0  0  0  0  0  0
  183.6740  177.8820  138.8500 C   0  0  2  0  0  3  0  0  0  0  0  0
  183.1380  179.1990  143.9900 C   0  0  0  0  0  2  0  0  0  0  0  0
  185.8780  178.7480  141.3110 C   0  0  2  0  0  3  0  0  0  0  0  0
  182.0520  178.5740  142.1270 C   0  0  0  0  0  2  0  0  0  0  0  0
  183.2820  178.6310  141.2170 C   0  0  2  0  0  3  0  0  0  0  0  0
  187.4320  178.3130  137.8460 C   0  0  2  0  0  3  0  0  0  0  0  0
  183.1850  177.4810  140.2350 C   0  0  0  0  0  2  0  0  0  0  0  0
  185.7540  178.4970  137.1830 S   0  0  0  0  0  0  0  0  0  0  0  0
  188.0020  176.9590  137.5150 C   0  0  0  0  0  3  0  0  0  0  0  0
  187.0230  178.2060  142.2030 C   0  0  0  0  0  2  0  0  0  0  0  0
  188.4330  178.3870  141.5910 C   0  0  1  0  0  3  0  0  0  0  0  0
  184.5580  178.4650  142.0570 C   0  0  2  0  0  3  0  0  0  0  0  0
  184.9980  178.6620  138.8480 C   0  0  2  0  0  3  0  0  0  0  0  0
  188.7930  176.3090  138.3730 C   0  0  0  0  0  3  0  0  0  0  0  0
  182.1200  179.5810  143.1020 O   0  0  0  0  0  0  0  0  0  0  0  0
  184.4940  179.3540  143.3060 C   0  0  0  0  0  2  0  0  0  0  0  0
  189.3670  177.4610  144.7120 C   0  0  1  0  0  0  0  0  0  0  0  0
  188.3190  177.5190  145.7420 C   0  0  0  0  0  2  0  0  0  0  0  0
  190.2870  178.6290  144.5850 C   0  0  2  0  0  3  0  0  0  0  0  0
  189.5240  177.8000  142.3910 N   0  0  1  0  0  0  0  0  0  0  0  0
  189.4330  176.6500  145.8570 O   0  0  0  0  0  0  0  0  0  0  0  0
  190.2120  178.9070  143.0860 C   0  0  0  0  0  2  0  0  0  0  0  0
  189.0190  176.8490  143.3910 C   0  0  1  0  0  3  0  0  0  0  0  0
  189.7290  175.5160  143.2180 C   0  0  0  0  0  1  0  0  0  0  0  0
  191.8880  177.4690  145.8760 O   0  0  0  0  0  0  0  0  0  0  0  0
  191.6840  178.2390  144.9510 C   0  0  0  0  0  3  0  0  0  0  0  0
  182.5850  178.6760  138.1430 C   0  0  0  0  0  2  0  0  0  0  0  0
  182.0140  177.8690  136.9940 C   0  0  0  0  0  1  0  0  0  0  0  0
  1 15  1  0  0  0  0
  2  7  1  0  0  0  0
  3  1  2  0  0  0  0
  4  2  1  0  0  0  0
  4  1  1  0  0  0  0
  5 11  1  0  0  0  0
  7 16  1  0  0  0  0
  7 14  1  0  0  0  0
  8 19  1  0  0  0  0
  9 16  1  0  0  0  0
  9  8  1  0  0  0  0
 10  4  1  0  0  0  0
 11  9  1  0  0  0  0
 12 10  1  0  0  0  0
 12 17  1  0  0  0  0
 13 10  1  0  0  0  0
 13 18  2  0  0  0  0
 15 14  1  0  0  0  0
 15 24  1  0  0  0  0
 16 20  1  0  0  0  0
 17  5  1  0  0  0  0
 17  2  1  0  0  0  0
 18  3  1  0  0  0  0
 19  6  1  0  0  0  0
 20  6  1  0  0  0  0
 21 22  1  0  0  0  0
 21 25  1  0  0  0  0
 22 25  1  0  0  0  0
 23 21  1  0  0  0  0
 23 30  1  0  0  0  0
 24 26  1  0  0  0  0
 24 27  1  0  0  0  0
 26 23  1  0  0  0  0
 27 21  1  0  0  0  0
 28 27  1  0  0  0  0
 30 29  2  0  0  0  0
 31  5  1  0  0  0  0
 32 31  1  0  0  0  0
M  END
>  <MODEL>
5

>  <REMARK>
 VINA RESULT:      -7.3      3.228      6.276
  Name = 
  3 active torsions:
  status: ('A' for Active; 'I' for Inactive)
    1  A    between atoms: C_6  and  C_13
    2  A    between atoms: C_15  and  C_26
    3  A    between atoms: N_16  and  C_27
                            x       y       z     vdW  Elec       q    Type
                         _______ _______ _______ _____ _____    ______ ____

>  <TORSDO>
F 3

$$$$
=
 OpenBabel10262421073D

 32 38  0  0  1  0  0  0  0  0999 V2000
  187.1890  177.7430  141.7850 C   0  0  0  0  0  0  0  0  0  0  0  0
  188.6780  177.4330  143.7020 C   0  0  1  0  0  3  0  0  0  0  0  0
  187.5410  178.5690  140.7920 C   0  0  0  0  0  3  0  0  0  0  0  0
  188.1890  176.8250  142.4050 C   0  0  2  0  0  3  0  0  0  0  0  0
  190.8490  177.2610  145.0560 C   0  0  2  0  0  3  0  0  0  0  0  0
  186.8040  178.1520  148.4150 C   0  0  0  0  0  2  0  0  0  0  0  0
  187.4620  177.4750  144.6740 C   0  0  2  0  0  3  0  0  0  0  0  0
  189.0330  177.9630  148.2270 C   0  0  0  0  0  2  0  0  0  0  0  0
  189.0190  177.5410  146.7560 C   0  0  2  0  0  3  0  0  0  0  0  0
  189.3710  176.4620  141.5210 C   0  0  2  0  0  3  0  0  0  0  0  0
  190.2070  178.1910  146.0760 C   0  0  0  0  0  2  0  0  0  0  0  0
  190.7460  176.0220  142.6200 S   0  0  0  0  0  0  0  0  0  0  0  0
  189.7650  177.5650  140.5730 C   0  0  0  0  0  3  0  0  0  0  0  0
  186.3310  178.3350  144.0540 C   0  0  0  0  0  2  0  0  0  0  0  0
  185.9490  177.9220  142.6130 C   0  0  1  0  0  3  0  0  0  0  0  0
  187.7280  178.0360  146.0860 C   0  0  2  0  0  3  0  0  0  0  0  0
  189.8490  176.5490  144.1320 C   0  0  2  0  0  3  0  0  0  0  0  0
  188.8940  178.5080  140.2060 C   0  0  0  0  0  3  0  0  0  0  0  0
  187.9150  177.4400  148.8960 O   0  0  0  0  0  0  0  0  0  0  0  0
  186.5150  177.7330  146.9760 C   0  0  0  0  0  2  0  0  0  0  0  0
  183.1940  177.9430  140.6450 C   0  0  1  0  0  0  0  0  0  0  0  0
  182.6280  176.6260  140.3140 C   0  0  0  0  0  2  0  0  0  0  0  0
  184.1250  178.5700  139.6620 C   0  0  2  0  0  3  0  0  0  0  0  0
  184.9340  178.7850  141.9810 N   0  0  1  0  0  0  0  0  0  0  0  0
  181.8350  177.8010  140.3170 O   0  0  0  0  0  0  0  0  0  0  0  0
  185.3020  178.9400  140.5590 C   0  0  0  0  0  2  0  0  0  0  0  0
  183.5880  178.2000  142.0650 C   0  0  1  0  0  3  0  0  0  0  0  0
  182.6450  179.2030  142.7080 C   0  0  0  0  0  1  0  0  0  0  0  0
  184.2330  180.7650  138.8000 O   0  0  0  0  0  0  0  0  0  0  0  0
  183.5240  179.8150  139.0890 C   0  0  0  0  0  3  0  0  0  0  0  0
  191.7220  176.2460  145.7800 C   0  0  0  0  0  2  0  0  0  0  0  0
  191.8950  176.6490  147.2320 C   0  0  0  0  0  1  0  0  0  0  0  0
  1  4  1  0  0  0  0
  1 15  1  0  0  0  0
  2 17  1  0  0  0  0
  2  7  1  0  0  0  0
  3  1  2  0  0  0  0
  4  2  1  0  0  0  0
  5 31  1  0  0  0  0
  5 11  1  0  0  0  0
  6 19  1  0  0  0  0
  7 16  1  0  0  0  0
  8 19  1  0  0  0  0
  9  8  1  0  0  0  0
 10  4  1  0  0  0  0
 10 12  1  0  0  0  0
 11  9  1  0  0  0  0
 12 17  1  0  0  0  0
 13 10  1  0  0  0  0
 14  7  1  0  0  0  0
 15 14  1  0  0  0  0
 16  9  1  0  0  0  0
 16 20  1  0  0  0  0
 17  5  1  0  0  0  0
 18 13  2  0  0  0  0
 18  3  1  0  0  0  0
 20  6  1  0  0  0  0
 21 27  1  0  0  0  0
 22 25  1  0  0  0  0
 22 21  1  0  0  0  0
 23 26  1  0  0  0  0
 23 21  1  0  0  0  0
 24 27  1  0  0  0  0
 24 15  1  0  0  0  0
 25 21  1  0  0  0  0
 26 24  1  0  0  0  0
 27 28  1  0  0  0  0
 29 30  2  0  0  0  0
 30 23  1  0  0  0  0
 31 32  1  0  0  0  0
M  END
>  <MODEL>
6

>  <REMARK>
 VINA RESULT:      -7.3      2.886      5.433
  Name = 
  3 active torsions:
  status: ('A' for Active; 'I' for Inactive)
    1  A    between atoms: C_6  and  C_13
    2  A    between atoms: C_15  and  C_26
    3  A    between atoms: N_16  and  C_27
                            x       y       z     vdW  Elec       q    Type
                         _______ _______ _______ _____ _____    ______ ____

>  <TORSDO>
F 3

$$$$
=
 OpenBabel10262421073D

 32 38  0  0  1  0  0  0  0  0999 V2000
  186.0540  178.3700  143.7810 C   0  0  0  0  0  0  0  0  0  0  0  0
  185.3330  178.4870  141.4450 C   0  0  1  0  0  3  0  0  0  0  0  0
  185.8200  179.3990  144.6050 C   0  0  0  0  0  3  0  0  0  0  0  0
  185.0130  177.9180  142.8110 C   0  0  2  0  0  3  0  0  0  0  0  0
  183.9310  179.1120  139.3910 C   0  0  2  0  0  3  0  0  0  0  0  0
  188.7800  177.6080  137.7600 C   0  0  0  0  0  2  0  0  0  0  0  0
  186.6720  177.8410  140.9830 C   0  0  2  0  0  3  0  0  0  0  0  0
  186.8060  178.4650  137.1190 C   0  0  0  0  0  2  0  0  0  0  0  0
  186.1270  178.2970  138.4810 C   0  0  2  0  0  3  0  0  0  0  0  0
  183.5810  178.2530  143.1930 C   0  0  2  0  0  3  0  0  0  0  0  0
  185.2330  179.5000  138.7040 C   0  0  0  0  0  2  0  0  0  0  0  0
  182.6190  178.3220  141.6570 S   0  0  0  0  0  0  0  0  0  0  0  0
  183.4580  179.5380  143.9690 C   0  0  0  0  0  3  0  0  0  0  0  0
  187.7920  178.1840  141.9980 C   0  0  0  0  0  2  0  0  0  0  0  0
  187.4280  177.8540  143.4660 C   0  0  1  0  0  3  0  0  0  0  0  0
  187.1900  178.2530  139.5900 C   0  0  2  0  0  3  0  0  0  0  0  0
  184.1050  178.1700  140.5910 C   0  0  2  0  0  3  0  0  0  0  0  0
  184.4900  180.0340  144.6580 C   0  0  0  0  0  3  0  0  0  0  0  0
  187.6990  177.4080  136.8860 O   0  0  0  0  0  0  0  0  0  0  0  0
  188.3390  177.3150  139.1910 C   0  0  0  0  0  2  0  0  0  0  0  0
  190.4220  177.0250  144.8130 C   0  0  1  0  0  0  0  0  0  0  0  0
  191.1290  175.9070  144.1720 C   0  0  0  0  0  2  0  0  0  0  0  0
  189.5910  176.7270  146.0160 C   0  0  2  0  0  3  0  0  0  0  0  0
  188.4510  178.2530  144.4500 N   0  0  1  0  0  0  0  0  0  0  0  0
  191.8190  176.9130  144.8930 O   0  0  0  0  0  0  0  0  0  0  0  0
  188.2740  177.4030  145.6450 C   0  0  0  0  0  2  0  0  0  0  0  0
  189.8130  178.0680  143.9300 C   0  0  1  0  0  3  0  0  0  0  0  0
  190.5760  179.3780  144.0480 C   0  0  0  0  0  1  0  0  0  0  0  0
  189.4320  177.8780  148.0720 O   0  0  0  0  0  0  0  0  0  0  0  0
  190.1670  177.3890  147.2290 C   0  0  0  0  0  3  0  0  0  0  0  0
  182.9840  178.5030  138.3670 C   0  0  0  0  0  2  0  0  0  0  0  0
  181.9140  179.5070  137.9850 C   0  0  0  0  0  1  0  0  0  0  0  0
  1  3  2  0  0  0  0
  2  4  1  0  0  0  0
  3 18  1  0  0  0  0
  4 10  1  0  0  0  0
  4  1  1  0  0  0  0
  5 17  1  0  0  0  0
  6 20  1  0  0  0  0
  7  2  1  0  0  0  0
  7 14  1  0  0  0  0
  8  9  1  0  0  0  0
  9 11  1  0  0  0  0
  9 16  1  0  0  0  0
 10 13  1  0  0  0  0
 11  5  1  0  0  0  0
 12 10  1  0  0  0  0
 13 18  2  0  0  0  0
 14 15  1  0  0  0  0
 15  1  1  0  0  0  0
 15 24  1  0  0  0  0
 16  7  1  0  0  0  0
 17  2  1  0  0  0  0
 17 12  1  0  0  0  0
 19  8  1  0  0  0  0
 19  6  1  0  0  0  0
 20 16  1  0  0  0  0
 21 25  1  0  0  0  0
 21 23  1  0  0  0  0
 22 21  1  0  0  0  0
 22 25  1  0  0  0  0
 23 30  1  0  0  0  0
 24 26  1  0  0  0  0
 26 23  1  0  0  0  0
 27 28  1  0  0  0  0
 27 24  1  0  0  0  0
 27 21  1  0  0  0  0
 30 29  2  0  0  0  0
 31  5  1  0  0  0  0
 32 31  1  0  0  0  0
M  END
>  <MODEL>
7

>  <REMARK>
 VINA RESULT:      -6.8      3.096      6.977
  Name = 
  3 active torsions:
  status: ('A' for Active; 'I' for Inactive)
    1  A    between atoms: C_6  and  C_13
    2  A    between atoms: C_15  and  C_26
    3  A    between atoms: N_16  and  C_27
                            x       y       z     vdW  Elec       q    Type
                         _______ _______ _______ _____ _____    ______ ____

>  <TORSDO>
F 3

$$$$
=
 OpenBabel10262421073D

 32 38  0  0  1  0  0  0  0  0999 V2000
  183.5000  179.1030  142.4040 C   0  0  0  0  0  0  0  0  0  0  0  0
  185.7030  178.3930  143.1990 C   0  0  1  0  0  3  0  0  0  0  0  0
  182.4000  178.4670  142.8260 C   0  0  0  0  0  3  0  0  0  0  0  0
  184.6060  179.4260  143.3530 C   0  0  2  0  0  3  0  0  0  0  0  0
  187.5040  177.4480  144.7600 C   0  0  2  0  0  3  0  0  0  0  0  0
  189.3300  177.2970  139.7520 C   0  0  0  0  0  2  0  0  0  0  0  0
  186.2920  178.5610  141.7690 C   0  0  2  0  0  3  0  0  0  0  0  0
  189.7430  176.7120  141.8800 C   0  0  0  0  0  2  0  0  0  0  0  0
  188.5360  177.4480  142.4690 C   0  0  2  0  0  3  0  0  0  0  0  0
  184.1970  179.5390  144.8120 C   0  0  2  0  0  3  0  0  0  0  0  0
  187.9760  176.5960  143.5900 C   0  0  0  0  0  2  0  0  0  0  0  0
  185.6680  179.1820  145.8110 S   0  0  0  0  0  0  0  0  0  0  0  0
  183.0560  178.6280  145.1800 C   0  0  0  0  0  3  0  0  0  0  0  0
  185.1750  178.3380  140.7170 C   0  0  0  0  0  2  0  0  0  0  0  0
  183.9070  179.1900  140.9610 C   0  0  1  0  0  3  0  0  0  0  0  0
  187.4570  177.6240  141.3890 C   0  0  2  0  0  3  0  0  0  0  0  0
  186.6640  178.6680  144.3560 C   0  0  2  0  0  3  0  0  0  0  0  0
  182.2020  178.1760  144.2580 C   0  0  0  0  0  3  0  0  0  0  0  0
  190.2660  177.4270  140.7910 O   0  0  0  0  0  0  0  0  0  0  0  0
  188.0880  178.1210  140.0800 C   0  0  0  0  0  2  0  0  0  0  0  0
  181.8300  180.6020  138.6900 C   0  0  1  0  0  0  0  0  0  0  0  0
  182.1110  182.0030  138.3440 C   0  0  0  0  0  2  0  0  0  0  0  0
  180.8010  180.3340  139.7370 C   0  0  2  0  0  3  0  0  0  0  0  0
  182.8050  178.9260  140.0180 N   0  0  1  0  0  0  0  0  0  0  0  0
  181.4340  181.1340  137.4520 O   0  0  0  0  0  0  0  0  0  0  0  0
  181.5530  179.3770  140.6570 C   0  0  0  0  0  2  0  0  0  0  0  0
  182.9830  179.6500  138.7510 C   0  0  1  0  0  3  0  0  0  0  0  0
  182.9210  178.6630  137.5970 C   0  0  0  0  0  1  0  0  0  0  0  0
  179.5890  178.4140  139.0910 O   0  0  0  0  0  0  0  0  0  0  0  0
  179.6190  179.6330  139.1450 C   0  0  0  0  0  3  0  0  0  0  0  0
  188.7080  177.8780  145.5860 C   0  0  0  0  0  2  0  0  0  0  0  0
  188.7110  177.1560  146.9200 C   0  0  0  0  0  1  0  0  0  0  0  0
  1  3  2  0  0  0  0
  1  4  1  0  0  0  0
  2  4  1  0  0  0  0
  2 17  1  0  0  0  0
  3 18  1  0  0  0  0
  4 10  1  0  0  0  0
  5 31  1  0  0  0  0
  6 20  1  0  0  0  0
  6 19  1  0  0  0  0
  7  2  1  0  0  0  0
  8  9  1  0  0  0  0
  9 11  1  0  0  0  0
 10 13  1  0  0  0  0
 10 12  1  0  0  0  0
 11  5  1  0  0  0  0
 14 15  1  0  0  0  0
 14  7  1  0  0  0  0
 15  1  1  0  0  0  0
 16  7  1  0  0  0  0
 16  9  1  0  0  0  0
 17  5  1  0  0  0  0
 17 12  1  0  0  0  0
 18 13  2  0  0  0  0
 19  8  1  0  0  0  0
 20 16  1  0  0  0  0
 21 27  1  0  0  0  0
 21 23  1  0  0  0  0
 22 21  1  0  0  0  0
 23 26  1  0  0  0  0
 24 26  1  0  0  0  0
 24 15  1  0  0  0  0
 25 22  1  0  0  0  0
 25 21  1  0  0  0  0
 27 24  1  0  0  0  0
 28 27  1  0  0  0  0
 29 30  2  0  0  0  0
 30 23  1  0  0  0  0
 31 32  1  0  0  0  0
M  END
>  <MODEL>
8

>  <REMARK>
 VINA RESULT:      -6.5      3.139      6.838
  Name = 
  3 active torsions:
  status: ('A' for Active; 'I' for Inactive)
    1  A    between atoms: C_6  and  C_13
    2  A    between atoms: C_15  and  C_26
    3  A    between atoms: N_16  and  C_27
                            x       y       z     vdW  Elec       q    Type
                         _______ _______ _______ _____ _____    ______ ____

>  <TORSDO>
F 3

$$$$
=
 OpenBabel10262421073D

 32 38  0  0  1  0  0  0  0  0999 V2000
  186.3290  178.5750  140.9710 C   0  0  0  0  0  0  0  0  0  0  0  0
  188.2390  177.6950  139.7190 C   0  0  1  0  0  3  0  0  0  0  0  0
  185.8270  177.8810  141.9990 C   0  0  0  0  0  3  0  0  0  0  0  0
  187.8050  178.6890  140.7750 C   0  0  2  0  0  3  0  0  0  0  0  0
  190.4190  176.4360  139.2320 C   0  0  2  0  0  3  0  0  0  0  0  0
  187.8590  177.2670  134.6290 C   0  0  0  0  0  2  0  0  0  0  0  0
  187.5850  178.1380  138.3780 C   0  0  2  0  0  3  0  0  0  0  0  0
  189.6160  176.2650  135.6030 C   0  0  0  0  0  2  0  0  0  0  0  0
  189.3860  176.8820  136.9850 C   0  0  2  0  0  3  0  0  0  0  0  0
  188.6410  178.5130  142.0320 C   0  0  2  0  0  3  0  0  0  0  0  0
  189.7200  175.8290  138.0230 C   0  0  0  0  0  2  0  0  0  0  0  0
  190.2830  177.9470  141.5080 S   0  0  0  0  0  0  0  0  0  0  0  0
  188.0280  177.5600  143.0240 C   0  0  0  0  0  3  0  0  0  0  0  0
  186.0420  178.1430  138.5280 C   0  0  0  0  0  2  0  0  0  0  0  0
  185.5350  178.9440  139.7510 C   0  0  1  0  0  3  0  0  0  0  0  0
  187.9100  177.2820  137.1360 C   0  0  2  0  0  3  0  0  0  0  0  0
  189.7670  177.7220  139.7610 C   0  0  2  0  0  3  0  0  0  0  0  0
  186.7160  177.3120  143.0300 C   0  0  0  0  0  3  0  0  0  0  0  0
  189.2590  177.1760  134.5960 O   0  0  0  0  0  0  0  0  0  0  0  0
  187.4270  178.0230  135.8820 C   0  0  0  0  0  2  0  0  0  0  0  0
  182.5760  178.2300  138.2680 C   0  0  1  0  0  0  0  0  0  0  0  0
  182.6560  177.6300  136.9270 C   0  0  0  0  0  2  0  0  0  0  0  0
  182.3820  179.7070  138.3610 C   0  0  2  0  0  3  0  0  0  0  0  0
  184.0760  178.8860  139.9540 N   0  0  1  0  0  0  0  0  0  0  0  0
  181.5360  177.4260  137.7730 O   0  0  0  0  0  0  0  0  0  0  0  0
  183.4910  180.0930  139.3350 C   0  0  0  0  0  2  0  0  0  0  0  0
  183.4830  177.6940  139.3310 C   0  0  1  0  0  3  0  0  0  0  0  0
  182.6870  176.9270  140.3730 C   0  0  0  0  0  1  0  0  0  0  0  0
  180.8980  179.9700  140.1780 O   0  0  0  0  0  0  0  0  0  0  0  0
  181.0520  180.0240  138.9680 C   0  0  0  0  0  3  0  0  0  0  0  0
  191.8840  176.6780  138.8960 C   0  0  0  0  0  2  0  0  0  0  0  0
  192.4230  175.5350  138.0590 C   0  0  0  0  0  1  0  0  0  0  0  0
  1  3  2  0  0  0  0
  2 17  1  0  0  0  0
  2  4  1  0  0  0  0
  3 18  1  0  0  0  0
  4  1  1  0  0  0  0
  4 10  1  0  0  0  0
  5 17  1  0  0  0  0
  6 20  1  0  0  0  0
  7 14  1  0  0  0  0
  7  2  1  0  0  0  0
  8  9  1  0  0  0  0
  9 16  1  0  0  0  0
  9 11  1  0  0  0  0
 10 13  1  0  0  0  0
 11  5  1  0  0  0  0
 12 10  1  0  0  0  0
 13 18  2  0  0  0  0
 14 15  1  0  0  0  0
 15 24  1  0  0  0  0
 15  1  1  0  0  0  0
 16  7  1  0  0  0  0
 17 12  1  0  0  0  0
 19  6  1  0  0  0  0
 19  8  1  0  0  0  0
 20 16  1  0  0  0  0
 21 23  1  0  0  0  0
 21 27  1  0  0  0  0
 22 25  1  0  0  0  0
 22 21  1  0  0  0  0
 23 30  1  0  0  0  0
 23 26  1  0  0  0  0
 25 21  1  0  0  0  0
 26 24  1  0  0  0  0
 27 24  1  0  0  0  0
 27 28  1  0  0  0  0
 30 29  2  0  0  0  0
 31  5  1  0  0  0  0
 32 31  1  0  0  0  0
M  END
>  <MODEL>
9

>  <REMARK>
 VINA RESULT:      -6.4      2.956      7.416
  Name = 
  3 active torsions:
  status: ('A' for Active; 'I' for Inactive)
    1  A    between atoms: C_6  and  C_13
    2  A    between atoms: C_15  and  C_26
    3  A    between atoms: N_16  and  C_27
                            x       y       z     vdW  Elec       q    Type
                         _______ _______ _______ _____ _____    ______ ____

>  <TORSDO>
F 3

$$$$
