=
 OpenBabel10262420583D

 28 29  0  0  1  0  0  0  0  0999 V2000
  186.3110  178.1200  145.4440 C   0  0  0  0  0  2  0  0  0  0  0  0
  185.2090  180.2770  143.8590 C   0  0  0  0  0  1  0  0  0  0  0  0
  184.8850  178.8400  143.4450 C   0  0  1  0  0  0  0  0  0  0  0  0
  188.9390  177.9480  146.4610 C   0  0  0  0  0  2  0  0  0  0  0  0
  186.1630  179.1990  141.3110 C   0  0  0  0  0  2  0  0  0  0  0  0
  187.2770  178.3220  141.8160 C   0  0  0  0  0  0  0  0  0  0  0  0
  184.8070  178.8260  141.9020 C   0  0  1  0  0  3  0  0  0  0  0  0
  189.5440  177.5310  144.0800 C   0  0  0  0  0  2  0  0  0  0  0  0
  187.2570  177.7900  143.0720 C   0  0  0  0  0  0  0  0  0  0  0  0
  187.8920  177.2220  147.0670 O   0  0  0  0  0  0  0  0  0  0  0  0
  188.3330  176.8180  143.4940 C   0  0  0  0  0  2  0  0  0  0  0  0
  189.7800  177.0910  145.5180 C   0  0  0  0  0  2  0  0  0  0  0  0
  186.9430  176.8860  146.0820 C   0  0  0  0  0  2  0  0  0  0  0  0
  186.0090  177.8840  143.9570 C   0  0  1  0  0  3  0  0  0  0  0  0
  183.3690  177.5160  140.5550 O   0  0  0  0  0  0  0  0  0  0  0  0
  184.3280  177.5330  141.3110 C   0  0  0  0  0  3  0  0  0  0  0  0
  183.6220  178.5430  144.0160 O   0  0  0  0  0  0  0  0  0  0  0  0
  183.3910  179.4010  144.9930 O   0  0  0  0  0  1  0  0  0  0  0  0
  188.3960  178.0890  140.8230 C   0  0  1  0  0  3  0  0  0  0  0  0
  190.2370  176.8590  140.6940 C   0  0  0  0  0  1  0  0  0  0  0  0
  188.8580  176.7700  140.8990 O   0  0  0  0  0  0  0  0  0  0  0  0
  188.0040  178.4630  139.3880 C   0  0  2  0  0  3  0  0  0  0  0  0
  187.8220  177.2530  138.5760 C   0  0  0  0  0  0  0  0  0  0  0  0
  187.6750  176.2610  137.9090 C   0  0  0  0  0  0  0  0  0  0  0  0
  187.4970  175.0550  137.1000 C   0  0  0  0  0  1  0  0  0  0  0  0
  188.9980  179.2580  138.8100 O   0  0  0  0  0  0  0  0  0  0  0  0
  188.9070  179.0080  137.4380 C   0  0  0  0  0  2  0  0  0  0  0  0
  187.9270  179.8270  136.8810 O   0  0  0  0  0  1  0  0  0  0  0  0
  1 13  1  0  0  0  0
  3  2  1  1  0  0  0
  3 14  1  0  0  0  0
  3 17  1  0  0  0  0
  4 10  1  0  0  0  0
  5  6  1  0  0  0  0
  5  7  1  0  0  0  0
  6  9  2  0  0  0  0
  7 16  1  6  0  0  0
  7  3  1  0  0  0  0
  8 12  1  0  0  0  0
  9 11  1  0  0  0  0
  9 14  1  0  0  0  0
 11  8  1  0  0  0  0
 12  4  1  0  0  0  0
 13 10  1  0  0  0  0
 14  1  1  1  0  0  0
 15 16  2  0  0  0  0
 17 18  1  0  0  0  0
 19 21  1  6  0  0  0
 19  6  1  0  0  0  0
 20 21  1  0  0  0  0
 22 23  1  6  0  0  0
 22 19  1  0  0  0  0
 24 23  3  0  0  0  0
 25 24  1  0  0  0  0
 26 22  1  0  0  0  0
 27 26  1  0  0  0  0
 28 27  1  0  0  0  0
M  END
>  <MODEL>
1

>  <REMARK>
 VINA RESULT:      -6.5      0.000      0.000
  Name = 
  8 active torsions:
  status: ('A' for Active; 'I' for Inactive)
    1  A    between atoms: C_3  and  O_7
    2  A    between atoms: C_9  and  C_12
    3  A    between atoms: C_9  and  C_13
    4  A    between atoms: C_9  and  O_14
    5  A    between atoms: C_10  and  C_13
    6  A    between atoms: C_11  and  C_22
    7  A    between atoms: C_13  and  O_24
    8  A    between atoms: O_14  and  C_18
                            x       y       z     vdW  Elec       q    Type
                         _______ _______ _______ _____ _____    ______ ____

>  <TORSDO>
F 8

$$$$
=
 OpenBabel10262420583D

 28 29  0  0  1  0  0  0  0  0999 V2000
  185.9660  178.1090  143.2040 C   0  0  0  0  0  2  0  0  0  0  0  0
  187.8870  175.9740  143.5670 C   0  0  0  0  0  1  0  0  0  0  0  0
  188.4150  177.4040  143.4360 C   0  0  1  0  0  0  0  0  0  0  0  0
  183.7030  178.0710  141.5160 C   0  0  0  0  0  2  0  0  0  0  0  0
  189.5350  176.7580  141.2800 C   0  0  0  0  0  2  0  0  0  0  0  0
  188.5170  177.5450  140.5000 C   0  0  0  0  0  0  0  0  0  0  0  0
  189.7610  177.3160  142.6820 C   0  0  1  0  0  3  0  0  0  0  0  0
  185.3940  178.2500  139.6950 C   0  0  0  0  0  2  0  0  0  0  0  0
  187.4670  178.1650  141.1130 C   0  0  0  0  0  0  0  0  0  0  0  0
  183.7530  178.9470  142.6210 O   0  0  0  0  0  0  0  0  0  0  0  0
  186.5400  179.0440  140.3090 C   0  0  0  0  0  2  0  0  0  0  0  0
  184.0550  178.7630  140.2020 C   0  0  0  0  0  2  0  0  0  0  0  0
  185.0930  179.3110  142.8530 C   0  0  0  0  0  2  0  0  0  0  0  0
  187.3850  178.2690  142.6410 C   0  0  1  0  0  3  0  0  0  0  0  0
  191.3650  178.8790  143.4450 O   0  0  0  0  0  0  0  0  0  0  0  0
  190.5220  178.6070  142.6050 C   0  0  0  0  0  3  0  0  0  0  0  0
  188.6080  177.8740  144.7590 O   0  0  0  0  0  0  0  0  0  0  0  0
  189.2020  176.9240  145.4590 O   0  0  0  0  0  1  0  0  0  0  0  0
  188.7600  177.5860  139.0070 C   0  0  1  0  0  3  0  0  0  0  0  0
  189.0370  179.2610  137.5790 C   0  0  0  0  0  1  0  0  0  0  0  0
  189.6310  178.6300  138.6740 O   0  0  0  0  0  0  0  0  0  0  0  0
  189.2530  176.2460  138.4480 C   0  0  2  0  0  3  0  0  0  0  0  0
  190.7170  176.2500  138.3280 C   0  0  0  0  0  0  0  0  0  0  0  0
  191.9170  176.2530  138.2290 C   0  0  0  0  0  0  0  0  0  0  0  0
  193.3750  176.2550  138.1070 C   0  0  0  0  0  1  0  0  0  0  0  0
  188.6910  176.0110  137.1900 O   0  0  0  0  0  0  0  0  0  0  0  0
  187.3140  175.9480  137.4150 C   0  0  0  0  0  2  0  0  0  0  0  0
  186.8740  174.6380  137.2380 O   0  0  0  0  0  1  0  0  0  0  0  0
  3  2  1  1  0  0  0
  3 17  1  0  0  0  0
  4 10  1  0  0  0  0
  5  7  1  0  0  0  0
  6  9  2  0  0  0  0
  6  5  1  0  0  0  0
  7 16  1  6  0  0  0
  7  3  1  0  0  0  0
  8 12  1  0  0  0  0
  8 11  1  0  0  0  0
  9 14  1  0  0  0  0
 10 13  1  0  0  0  0
 11  9  1  0  0  0  0
 12  4  1  0  0  0  0
 13  1  1  0  0  0  0
 14  1  1  1  0  0  0
 14  3  1  0  0  0  0
 16 15  2  0  0  0  0
 17 18  1  0  0  0  0
 19 21  1  1  0  0  0
 19  6  1  0  0  0  0
 20 21  1  0  0  0  0
 22 23  1  6  0  0  0
 22 19  1  0  0  0  0
 24 23  3  0  0  0  0
 25 24  1  0  0  0  0
 26 27  1  0  0  0  0
 26 22  1  0  0  0  0
 28 27  1  0  0  0  0
M  END
>  <MODEL>
2

>  <REMARK>
 VINA RESULT:      -6.4      2.094      4.887
  Name = 
  8 active torsions:
  status: ('A' for Active; 'I' for Inactive)
    1  A    between atoms: C_3  and  O_7
    2  A    between atoms: C_9  and  C_12
    3  A    between atoms: C_9  and  C_13
    4  A    between atoms: C_9  and  O_14
    5  A    between atoms: C_10  and  C_13
    6  A    between atoms: C_11  and  C_22
    7  A    between atoms: C_13  and  O_24
    8  A    between atoms: O_14  and  C_18
                            x       y       z     vdW  Elec       q    Type
                         _______ _______ _______ _____ _____    ______ ____

>  <TORSDO>
F 8

$$$$
=
 OpenBabel10262420583D

 28 29  0  0  1  0  0  0  0  0999 V2000
  179.7330  178.6090  136.7900 C   0  0  0  0  0  2  0  0  0  0  0  0
  181.2270  176.1720  137.2490 C   0  0  0  0  0  1  0  0  0  0  0  0
  180.0150  176.4540  138.1400 C   0  0  1  0  0  0  0  0  0  0  0  0
  180.8060  181.1720  136.2830 C   0  0  0  0  0  2  0  0  0  0  0  0
  181.5540  176.6420  140.1190 C   0  0  0  0  0  2  0  0  0  0  0  0
  181.3540  178.1340  140.1490 C   0  0  0  0  0  0  0  0  0  0  0  0
  180.3520  175.9000  139.5430 C   0  0  1  0  0  3  0  0  0  0  0  0
  181.4180  181.0970  138.6970 C   0  0  0  0  0  2  0  0  0  0  0  0
  180.6030  178.7750  139.2080 C   0  0  0  0  0  0  0  0  0  0  0  0
  179.4930  180.8540  135.8710 O   0  0  0  0  0  0  0  0  0  0  0  0
  180.3280  180.2530  139.3450 C   0  0  0  0  0  2  0  0  0  0  0  0
  180.8370  181.9620  137.5880 C   0  0  0  0  0  2  0  0  0  0  0  0
  178.9480  179.9180  136.7720 C   0  0  0  0  0  2  0  0  0  0  0  0
  179.7560  177.9940  138.1960 C   0  0  1  0  0  3  0  0  0  0  0  0
  179.2030  175.1780  141.4810 O   0  0  0  0  0  0  0  0  0  0  0  0
  179.2130  175.9290  140.5190 C   0  0  0  0  0  3  0  0  0  0  0  0
  178.9310  175.7450  137.5650 O   0  0  0  0  0  0  0  0  0  0  0  0
  179.4150  174.8580  136.7140 O   0  0  0  0  0  1  0  0  0  0  0  0
  182.0450  178.8400  141.2950 C   0  0  1  0  0  3  0  0  0  0  0  0
  180.5630  179.5650  142.7770 C   0  0  0  0  0  1  0  0  0  0  0  0
  181.4430  178.5130  142.5150 O   0  0  0  0  0  0  0  0  0  0  0  0
  183.5560  178.5780  141.3290 C   0  0  2  0  0  3  0  0  0  0  0  0
  184.0580  178.6560  142.7070 C   0  0  0  0  0  0  0  0  0  0  0  0
  184.4680  178.7200  143.8380 C   0  0  0  0  0  0  0  0  0  0  0  0
  184.9650  178.7980  145.2110 C   0  0  0  0  0  1  0  0  0  0  0  0
  184.2260  179.5220  140.5440 O   0  0  0  0  0  0  0  0  0  0  0  0
  184.8890  178.7750  139.5670 C   0  0  0  0  0  2  0  0  0  0  0  0
  186.2590  178.7860  139.8240 O   0  0  0  0  0  1  0  0  0  0  0  0
  3  2  1  6  0  0  0
  3 14  1  0  0  0  0
  3  7  1  0  0  0  0
  4 12  1  0  0  0  0
  5  6  1  0  0  0  0
  6 19  1  0  0  0  0
  7  5  1  0  0  0  0
  7 16  1  1  0  0  0
  8 11  1  0  0  0  0
  9 11  1  0  0  0  0
  9  6  2  0  0  0  0
 10  4  1  0  0  0  0
 10 13  1  0  0  0  0
 12  8  1  0  0  0  0
 13  1  1  0  0  0  0
 14  1  1  6  0  0  0
 14  9  1  0  0  0  0
 16 15  2  0  0  0  0
 17  3  1  0  0  0  0
 18 17  1  0  0  0  0
 19 22  1  0  0  0  0
 19 21  1  1  0  0  0
 21 20  1  0  0  0  0
 22 23  1  1  0  0  0
 23 24  3  0  0  0  0
 24 25  1  0  0  0  0
 26 22  1  0  0  0  0
 27 28  1  0  0  0  0
 27 26  1  0  0  0  0
M  END
>  <MODEL>
3

>  <REMARK>
 VINA RESULT:      -6.4      4.726      8.645
  Name = 
  8 active torsions:
  status: ('A' for Active; 'I' for Inactive)
    1  A    between atoms: C_3  and  O_7
    2  A    between atoms: C_9  and  C_12
    3  A    between atoms: C_9  and  C_13
    4  A    between atoms: C_9  and  O_14
    5  A    between atoms: C_10  and  C_13
    6  A    between atoms: C_11  and  C_22
    7  A    between atoms: C_13  and  O_24
    8  A    between atoms: O_14  and  C_18
                            x       y       z     vdW  Elec       q    Type
                         _______ _______ _______ _____ _____    ______ ____

>  <TORSDO>
F 8

$$$$
=
 OpenBabel10262420583D

 28 29  0  0  1  0  0  0  0  0999 V2000
  191.0260  173.8630  135.9500 C   0  0  0  0  0  2  0  0  0  0  0  0
  188.3600  173.2360  136.8880 C   0  0  0  0  0  1  0  0  0  0  0  0
  188.5180  174.3650  135.8660 C   0  0  1  0  0  0  0  0  0  0  0  0
  193.3650  174.0470  137.5200 C   0  0  0  0  0  2  0  0  0  0  0  0
  187.7110  176.0000  137.5960 C   0  0  0  0  0  2  0  0  0  0  0  0
  189.1040  176.5510  137.7440 C   0  0  0  0  0  0  0  0  0  0  0  0
  187.4500  175.4280  136.2060 C   0  0  1  0  0  3  0  0  0  0  0  0
  192.3270  176.1600  138.3350 C   0  0  0  0  0  2  0  0  0  0  0  0
  190.1620  176.0150  137.0690 C   0  0  0  0  0  0  0  0  0  0  0  0
  193.4550  173.7860  136.1360 O   0  0  0  0  0  0  0  0  0  0  0  0
  191.5180  176.6740  137.1520 C   0  0  0  0  0  2  0  0  0  0  0  0
  193.6200  175.5130  137.8590 C   0  0  0  0  0  2  0  0  0  0  0  0
  192.3730  174.4100  135.4850 C   0  0  0  0  0  2  0  0  0  0  0  0
  189.9570  174.9640  135.9710 C   0  0  1  0  0  3  0  0  0  0  0  0
  186.5910  177.4870  135.4170 O   0  0  0  0  0  0  0  0  0  0  0  0
  187.3330  176.5400  135.2060 C   0  0  0  0  0  3  0  0  0  0  0  0
  188.2660  173.7840  134.5980 O   0  0  0  0  0  0  0  0  0  0  0  0
  187.1940  173.0180  134.6930 O   0  0  0  0  0  1  0  0  0  0  0  0
  189.2200  177.7280  138.6880 C   0  0  1  0  0  3  0  0  0  0  0  0
  188.9750  179.3930  137.2420 C   0  0  0  0  0  1  0  0  0  0  0  0
  188.3450  178.7540  138.3120 O   0  0  0  0  0  0  0  0  0  0  0  0
  189.0220  177.3330  140.1570 C   0  0  2  0  0  3  0  0  0  0  0  0
  187.8540  178.0230  140.7180 C   0  0  0  0  0  0  0  0  0  0  0  0
  186.8950  178.5890  141.1770 C   0  0  0  0  0  0  0  0  0  0  0  0
  185.7290  179.2750  141.7350 C   0  0  0  0  0  1  0  0  0  0  0  0
  190.1550  177.6710  140.9030 O   0  0  0  0  0  0  0  0  0  0  0  0
  190.4390  176.5350  141.6640 C   0  0  0  0  0  2  0  0  0  0  0  0
  191.4530  176.8270  142.5740 O   0  0  0  0  0  1  0  0  0  0  0  0
  3 14  1  0  0  0  0
  3  7  1  0  0  0  0
  3  2  1  1  0  0  0
  4 12  1  0  0  0  0
  5  6  1  0  0  0  0
  6 19  1  0  0  0  0
  7 16  1  6  0  0  0
  7  5  1  0  0  0  0
  9 11  1  0  0  0  0
  9  6  2  0  0  0  0
 10  4  1  0  0  0  0
 11  8  1  0  0  0  0
 12  8  1  0  0  0  0
 13  1  1  0  0  0  0
 13 10  1  0  0  0  0
 14  1  1  1  0  0  0
 14  9  1  0  0  0  0
 16 15  2  0  0  0  0
 17 18  1  0  0  0  0
 17  3  1  0  0  0  0
 19 21  1  6  0  0  0
 19 22  1  0  0  0  0
 20 21  1  0  0  0  0
 22 23  1  1  0  0  0
 22 26  1  0  0  0  0
 23 24  3  0  0  0  0
 24 25  1  0  0  0  0
 26 27  1  0  0  0  0
 27 28  1  0  0  0  0
M  END
>  <MODEL>
4

>  <REMARK>
 VINA RESULT:      -6.3      3.405      7.858
  Name = 
  8 active torsions:
  status: ('A' for Active; 'I' for Inactive)
    1  A    between atoms: C_3  and  O_7
    2  A    between atoms: C_9  and  C_12
    3  A    between atoms: C_9  and  C_13
    4  A    between atoms: C_9  and  O_14
    5  A    between atoms: C_10  and  C_13
    6  A    between atoms: C_11  and  C_22
    7  A    between atoms: C_13  and  O_24
    8  A    between atoms: O_14  and  C_18
                            x       y       z     vdW  Elec       q    Type
                         _______ _______ _______ _____ _____    ______ ____

>  <TORSDO>
F 8

$$$$
=
 OpenBabel10262420583D

 28 29  0  0  1  0  0  0  0  0999 V2000
  185.9540  175.4060  136.1270 C   0  0  0  0  0  2  0  0  0  0  0  0
  183.9700  174.1770  137.8400 C   0  0  0  0  0  1  0  0  0  0  0  0
  183.5100  175.2690  136.8710 C   0  0  1  0  0  0  0  0  0  0  0  0
  188.5520  176.2220  136.8750 C   0  0  0  0  0  2  0  0  0  0  0  0
  182.9220  176.7210  138.8370 C   0  0  0  0  0  2  0  0  0  0  0  0
  184.1080  177.6040  138.5560 C   0  0  0  0  0  0  0  0  0  0  0  0
  182.3790  176.0480  137.5800 C   0  0  1  0  0  3  0  0  0  0  0  0
  187.3430  178.0440  138.0690 C   0  0  0  0  0  2  0  0  0  0  0  0
  184.9920  177.3200  137.5560 C   0  0  0  0  0  0  0  0  0  0  0  0
  188.2550  175.9380  135.5250 O   0  0  0  0  0  0  0  0  0  0  0  0
  186.0970  178.2950  137.2300 C   0  0  0  0  0  2  0  0  0  0  0  0
  188.5320  177.7180  137.1780 C   0  0  0  0  0  2  0  0  0  0  0  0
  186.9030  176.2490  135.2810 C   0  0  0  0  0  2  0  0  0  0  0  0
  184.7120  176.2090  136.5370 C   0  0  1  0  0  3  0  0  0  0  0  0
  180.9710  177.9150  137.2210 O   0  0  0  0  0  0  0  0  0  0  0  0
  181.6780  177.0570  136.7180 C   0  0  0  0  0  3  0  0  0  0  0  0
  183.0160  174.5950  135.7260 O   0  0  0  0  0  0  0  0  0  0  0  0
  182.3740  173.5100  136.1230 O   0  0  0  0  0  1  0  0  0  0  0  0
  184.2270  178.8100  139.4630 C   0  0  1  0  0  3  0  0  0  0  0  0
  182.8990  180.4510  138.7840 C   0  0  0  0  0  1  0  0  0  0  0  0
  182.9720  179.3880  139.6860 O   0  0  0  0  0  0  0  0  0  0  0  0
  184.9390  178.4910  140.7830 C   0  0  2  0  0  3  0  0  0  0  0  0
  184.0110  178.6340  141.9120 C   0  0  0  0  0  0  0  0  0  0  0  0
  183.2490  178.7520  142.8380 C   0  0  0  0  0  0  0  0  0  0  0  0
  182.3250  178.8960  143.9630 C   0  0  0  0  0  1  0  0  0  0  0  0
  186.0210  179.3580  140.9680 O   0  0  0  0  0  0  0  0  0  0  0  0
  186.9110  178.6570  141.7860 C   0  0  0  0  0  2  0  0  0  0  0  0
  188.2110  178.8340  141.3160 O   0  0  0  0  0  1  0  0  0  0  0  0
  3  7  1  0  0  0  0
  3  2  1  1  0  0  0
  4 12  1  0  0  0  0
  6  5  1  0  0  0  0
  6 19  1  0  0  0  0
  7 16  1  6  0  0  0
  7  5  1  0  0  0  0
  9  6  2  0  0  0  0
 10  4  1  0  0  0  0
 11  9  1  0  0  0  0
 11  8  1  0  0  0  0
 12  8  1  0  0  0  0
 13 10  1  0  0  0  0
 13  1  1  0  0  0  0
 14  1  1  1  0  0  0
 14  3  1  0  0  0  0
 14  9  1  0  0  0  0
 16 15  2  0  0  0  0
 17 18  1  0  0  0  0
 17  3  1  0  0  0  0
 19 21  1  1  0  0  0
 19 22  1  0  0  0  0
 20 21  1  0  0  0  0
 22 26  1  0  0  0  0
 22 23  1  1  0  0  0
 23 24  3  0  0  0  0
 24 25  1  0  0  0  0
 26 27  1  0  0  0  0
 28 27  1  0  0  0  0
M  END
>  <MODEL>
5

>  <REMARK>
 VINA RESULT:      -6.3      3.204      7.362
  Name = 
  8 active torsions:
  status: ('A' for Active; 'I' for Inactive)
    1  A    between atoms: C_3  and  O_7
    2  A    between atoms: C_9  and  C_12
    3  A    between atoms: C_9  and  C_13
    4  A    between atoms: C_9  and  O_14
    5  A    between atoms: C_10  and  C_13
    6  A    between atoms: C_11  and  C_22
    7  A    between atoms: C_13  and  O_24
    8  A    between atoms: O_14  and  C_18
                            x       y       z     vdW  Elec       q    Type
                         _______ _______ _______ _____ _____    ______ ____

>  <TORSDO>
F 8

$$$$
=
 OpenBabel10262420583D

 28 29  0  0  1  0  0  0  0  0999 V2000
  189.2170  176.6000  140.0960 C   0  0  0  0  0  2  0  0  0  0  0  0
  187.5360  175.6830  137.9240 C   0  0  0  0  0  1  0  0  0  0  0  0
  188.1320  177.0890  137.8300 C   0  0  1  0  0  0  0  0  0  0  0  0
  188.7390  176.2560  142.8570 C   0  0  0  0  0  2  0  0  0  0  0  0
  185.8110  178.0460  137.9560 C   0  0  0  0  0  2  0  0  0  0  0  0
  186.0690  178.5210  139.3610 C   0  0  0  0  0  0  0  0  0  0  0  0
  187.0830  177.9720  137.1180 C   0  0  1  0  0  3  0  0  0  0  0  0
  186.9680  177.9690  142.4880 C   0  0  0  0  0  2  0  0  0  0  0  0
  187.2400  178.2470  140.0060 C   0  0  0  0  0  0  0  0  0  0  0  0
  190.0500  176.4750  142.3830 O   0  0  0  0  0  0  0  0  0  0  0  0
  187.5060  178.8460  141.3660 C   0  0  0  0  0  2  0  0  0  0  0  0
  188.0950  177.5250  143.4090 C   0  0  0  0  0  2  0  0  0  0  0  0
  189.9870  177.2770  141.2260 C   0  0  0  0  0  2  0  0  0  0  0  0
  188.4310  177.6250  139.2660 C   0  0  1  0  0  3  0  0  0  0  0  0
  188.6140  179.7730  137.2190 O   0  0  0  0  0  0  0  0  0  0  0  0
  187.5560  179.3550  136.7770 C   0  0  0  0  0  3  0  0  0  0  0  0
  189.3050  176.9670  137.0450 O   0  0  0  0  0  0  0  0  0  0  0  0
  189.0320  176.2090  135.9980 O   0  0  0  0  0  1  0  0  0  0  0  0
  184.9370  179.3140  139.9770 C   0  0  1  0  0  3  0  0  0  0  0  0
  183.0830  180.1460  139.0900 C   0  0  0  0  0  1  0  0  0  0  0  0
  184.4720  180.2890  139.0870 O   0  0  0  0  0  0  0  0  0  0  0  0
  183.7940  178.4240  140.4800 C   0  0  2  0  0  3  0  0  0  0  0  0
  183.6360  178.5650  141.9330 C   0  0  0  0  0  0  0  0  0  0  0  0
  183.5070  178.6800  143.1250 C   0  0  0  0  0  0  0  0  0  0  0  0
  183.3520  178.8200  144.5730 C   0  0  0  0  0  1  0  0  0  0  0  0
  184.0570  177.0850  140.1760 O   0  0  0  0  0  0  0  0  0  0  0  0
  182.8200  176.5450  139.8170 C   0  0  0  0  0  2  0  0  0  0  0  0
  182.8820  176.0720  138.5080 O   0  0  0  0  0  1  0  0  0  0  0  0
  1 13  1  0  0  0  0
  3  2  1  1  0  0  0
  3 14  1  0  0  0  0
  4 12  1  0  0  0  0
  5  6  1  0  0  0  0
  6 19  1  0  0  0  0
  6  9  2  0  0  0  0
  7 16  1  1  0  0  0
  7  3  1  0  0  0  0
  7  5  1  0  0  0  0
  8 12  1  0  0  0  0
  9 11  1  0  0  0  0
 10  4  1  0  0  0  0
 11  8  1  0  0  0  0
 13 10  1  0  0  0  0
 14  9  1  0  0  0  0
 14  1  1  1  0  0  0
 16 15  2  0  0  0  0
 17  3  1  0  0  0  0
 18 17  1  0  0  0  0
 19 21  1  6  0  0  0
 19 22  1  0  0  0  0
 21 20  1  0  0  0  0
 22 23  1  1  0  0  0
 23 24  3  0  0  0  0
 24 25  1  0  0  0  0
 26 22  1  0  0  0  0
 27 26  1  0  0  0  0
 28 27  1  0  0  0  0
M  END
>  <MODEL>
6

>  <REMARK>
 VINA RESULT:      -6.2      2.263      6.101
  Name = 
  8 active torsions:
  status: ('A' for Active; 'I' for Inactive)
    1  A    between atoms: C_3  and  O_7
    2  A    between atoms: C_9  and  C_12
    3  A    between atoms: C_9  and  C_13
    4  A    between atoms: C_9  and  O_14
    5  A    between atoms: C_10  and  C_13
    6  A    between atoms: C_11  and  C_22
    7  A    between atoms: C_13  and  O_24
    8  A    between atoms: O_14  and  C_18
                            x       y       z     vdW  Elec       q    Type
                         _______ _______ _______ _____ _____    ______ ____

>  <TORSDO>
F 8

$$$$
=
 OpenBabel10262420583D

 28 29  0  0  1  0  0  0  0  0999 V2000
  186.0720  178.4900  142.4130 C   0  0  0  0  0  2  0  0  0  0  0  0
  188.7550  179.4090  141.8290 C   0  0  0  0  0  1  0  0  0  0  0  0
  188.5340  177.9080  142.0290 C   0  0  1  0  0  0  0  0  0  0  0  0
  184.2330  179.6820  144.1930 C   0  0  0  0  0  2  0  0  0  0  0  0
  189.9740  178.0040  144.0870 C   0  0  0  0  0  2  0  0  0  0  0  0
  188.7600  177.8390  144.9600 C   0  0  0  0  0  0  0  0  0  0  0  0
  189.8040  177.3570  142.7160 C   0  0  1  0  0  3  0  0  0  0  0  0
  185.7500  178.7690  145.9450 C   0  0  0  0  0  2  0  0  0  0  0  0
  187.5020  177.7860  144.4350 C   0  0  0  0  0  0  0  0  0  0  0  0
  183.7760  178.8540  143.1450 O   0  0  0  0  0  0  0  0  0  0  0  0
  186.3240  177.4970  145.3350 C   0  0  0  0  0  2  0  0  0  0  0  0
  184.2970  178.9530  145.5320 C   0  0  0  0  0  2  0  0  0  0  0  0
  184.7550  177.8760  142.8790 C   0  0  0  0  0  2  0  0  0  0  0  0
  187.2730  177.6810  142.9220 C   0  0  1  0  0  3  0  0  0  0  0  0
  190.8220  175.2380  142.4470 O   0  0  0  0  0  0  0  0  0  0  0  0
  189.8500  175.8630  142.8420 C   0  0  0  0  0  3  0  0  0  0  0  0
  188.3830  177.3570  140.7320 O   0  0  0  0  0  0  0  0  0  0  0  0
  189.3320  177.8470  139.9550 O   0  0  0  0  0  1  0  0  0  0  0  0
  189.0560  177.7380  146.4410 C   0  0  1  0  0  3  0  0  0  0  0  0
  188.0050  176.9980  148.2480 C   0  0  0  0  0  1  0  0  0  0  0  0
  188.4590  176.5970  146.9900 O   0  0  0  0  0  0  0  0  0  0  0  0
  190.5580  177.7880  146.7510 C   0  0  2  0  0  3  0  0  0  0  0  0
  191.2280  176.5920  146.2230 C   0  0  0  0  0  0  0  0  0  0  0  0
  191.7770  175.6120  145.7900 C   0  0  0  0  0  0  0  0  0  0  0  0
  192.4430  174.4210  145.2620 C   0  0  0  0  0  1  0  0  0  0  0  0
  190.7630  177.8550  148.1320 O   0  0  0  0  0  0  0  0  0  0  0  0
  191.8370  176.9970  148.3800 C   0  0  0  0  0  2  0  0  0  0  0  0
  192.7230  177.6070  149.2660 O   0  0  0  0  0  1  0  0  0  0  0  0
  1 13  1  0  0  0  0
  3  2  1  6  0  0  0
  3  7  1  0  0  0  0
  3 14  1  0  0  0  0
  4 12  1  0  0  0  0
  5  6  1  0  0  0  0
  6 19  1  0  0  0  0
  7 16  1  1  0  0  0
  7  5  1  0  0  0  0
  9  6  2  0  0  0  0
  9 11  1  0  0  0  0
 10  4  1  0  0  0  0
 11  8  1  0  0  0  0
 12  8  1  0  0  0  0
 13 10  1  0  0  0  0
 14  1  1  6  0  0  0
 14  9  1  0  0  0  0
 15 16  2  0  0  0  0
 17  3  1  0  0  0  0
 18 17  1  0  0  0  0
 19 22  1  0  0  0  0
 19 21  1  6  0  0  0
 21 20  1  0  0  0  0
 22 23  1  1  0  0  0
 22 26  1  0  0  0  0
 24 23  3  0  0  0  0
 25 24  1  0  0  0  0
 26 27  1  0  0  0  0
 27 28  1  0  0  0  0
M  END
>  <MODEL>
7

>  <REMARK>
 VINA RESULT:      -5.9      2.331      6.791
  Name = 
  8 active torsions:
  status: ('A' for Active; 'I' for Inactive)
    1  A    between atoms: C_3  and  O_7
    2  A    between atoms: C_9  and  C_12
    3  A    between atoms: C_9  and  C_13
    4  A    between atoms: C_9  and  O_14
    5  A    between atoms: C_10  and  C_13
    6  A    between atoms: C_11  and  C_22
    7  A    between atoms: C_13  and  O_24
    8  A    between atoms: O_14  and  C_18
                            x       y       z     vdW  Elec       q    Type
                         _______ _______ _______ _____ _____    ______ ____

>  <TORSDO>
F 8

$$$$
=
 OpenBabel10262420583D

 28 29  0  0  1  0  0  0  0  0999 V2000
  186.1100  179.0020  141.2710 C   0  0  0  0  0  2  0  0  0  0  0  0
  188.6800  180.0250  140.4160 C   0  0  0  0  0  1  0  0  0  0  0  0
  188.3400  178.5670  140.0940 C   0  0  1  0  0  0  0  0  0  0  0  0
  184.8650  179.4450  143.7660 C   0  0  0  0  0  2  0  0  0  0  0  0
  190.2070  177.8320  141.6080 C   0  0  0  0  0  2  0  0  0  0  0  0
  189.2090  177.3640  142.6330 C   0  0  0  0  0  0  0  0  0  0  0  0
  189.6610  177.7700  140.1850 C   0  0  1  0  0  3  0  0  0  0  0  0
  186.6220  177.8960  144.6140 C   0  0  0  0  0  2  0  0  0  0  0  0
  187.8670  177.5420  142.4590 C   0  0  0  0  0  0  0  0  0  0  0  0
  184.0940  179.0960  142.6370 O   0  0  0  0  0  0  0  0  0  0  0  0
  186.8960  176.9490  143.4520 C   0  0  0  0  0  2  0  0  0  0  0  0
  185.1450  178.2530  144.6770 C   0  0  0  0  0  2  0  0  0  0  0  0
  184.8700  178.2800  141.7900 C   0  0  0  0  0  2  0  0  0  0  0  0
  187.2950  178.0360  141.1250 C   0  0  1  0  0  3  0  0  0  0  0  0
  190.5550  175.7500  139.3370 O   0  0  0  0  0  0  0  0  0  0  0  0
  189.5640  176.3430  139.7330 C   0  0  0  0  0  3  0  0  0  0  0  0
  187.8410  178.5650  138.7680 O   0  0  0  0  0  0  0  0  0  0  0  0
  188.6580  179.2740  138.0100 O   0  0  0  0  0  1  0  0  0  0  0  0
  189.8160  176.6920  143.8450 C   0  0  1  0  0  3  0  0  0  0  0  0
  191.6800  175.7210  144.5520 C   0  0  0  0  0  1  0  0  0  0  0  0
  190.8080  175.7820  143.4630 O   0  0  0  0  0  0  0  0  0  0  0  0
  190.3450  177.6950  144.8780 C   0  0  2  0  0  3  0  0  0  0  0  0
  189.6180  177.5530  146.1470 C   0  0  0  0  0  0  0  0  0  0  0  0
  189.0240  177.4360  147.1880 C   0  0  0  0  0  0  0  0  0  0  0  0
  188.3020  177.2930  148.4520 C   0  0  0  0  0  1  0  0  0  0  0  0
  190.1870  179.0010  144.4040 O   0  0  0  0  0  0  0  0  0  0  0  0
  191.4090  179.6290  144.6620 C   0  0  0  0  0  2  0  0  0  0  0  0
  192.4300  178.9420  144.0090 O   0  0  0  0  0  1  0  0  0  0  0  0
  1 13  1  0  0  0  0
  3  7  1  0  0  0  0
  3  2  1  1  0  0  0
  3 14  1  0  0  0  0
  4 12  1  0  0  0  0
  5  6  1  0  0  0  0
  6 19  1  0  0  0  0
  7 16  1  1  0  0  0
  7  5  1  0  0  0  0
  8 12  1  0  0  0  0
  9  6  2  0  0  0  0
  9 11  1  0  0  0  0
 10  4  1  0  0  0  0
 11  8  1  0  0  0  0
 13 10  1  0  0  0  0
 14  1  1  1  0  0  0
 14  9  1  0  0  0  0
 15 16  2  0  0  0  0
 17  3  1  0  0  0  0
 18 17  1  0  0  0  0
 19 21  1  6  0  0  0
 19 22  1  0  0  0  0
 21 20  1  0  0  0  0
 22 23  1  1  0  0  0
 23 24  3  0  0  0  0
 24 25  1  0  0  0  0
 26 27  1  0  0  0  0
 26 22  1  0  0  0  0
 28 27  1  0  0  0  0
M  END
>  <MODEL>
8

>  <REMARK>
 VINA RESULT:      -5.9      1.935      5.935
  Name = 
  8 active torsions:
  status: ('A' for Active; 'I' for Inactive)
    1  A    between atoms: C_3  and  O_7
    2  A    between atoms: C_9  and  C_12
    3  A    between atoms: C_9  and  C_13
    4  A    between atoms: C_9  and  O_14
    5  A    between atoms: C_10  and  C_13
    6  A    between atoms: C_11  and  C_22
    7  A    between atoms: C_13  and  O_24
    8  A    between atoms: O_14  and  C_18
                            x       y       z     vdW  Elec       q    Type
                         _______ _______ _______ _____ _____    ______ ____

>  <TORSDO>
F 8

$$$$
=
 OpenBabel10262420583D

 28 29  0  0  1  0  0  0  0  0999 V2000
  187.2820  174.8250  136.1880 C   0  0  0  0  0  2  0  0  0  0  0  0
  185.6620  172.9430  137.6760 C   0  0  0  0  0  1  0  0  0  0  0  0
  185.0950  173.5100  136.3730 C   0  0  1  0  0  0  0  0  0  0  0  0
  188.7860  176.9650  137.2530 C   0  0  0  0  0  2  0  0  0  0  0  0
  183.2870  174.6510  137.6950 C   0  0  0  0  0  2  0  0  0  0  0  0
  183.9400  175.9860  137.4620 C   0  0  0  0  0  0  0  0  0  0  0  0
  183.5700  173.6540  136.5750 C   0  0  1  0  0  3  0  0  0  0  0  0
  186.5500  178.0020  137.6130 C   0  0  0  0  0  2  0  0  0  0  0  0
  185.1280  176.0970  136.7990 C   0  0  0  0  0  0  0  0  0  0  0  0
  189.1210  176.4140  135.9970 O   0  0  0  0  0  0  0  0  0  0  0  0
  185.6870  177.4630  136.4810 C   0  0  0  0  0  2  0  0  0  0  0  0
  187.9720  178.2500  137.1320 C   0  0  0  0  0  2  0  0  0  0  0  0
  187.9460  175.9380  135.3820 C   0  0  0  0  0  2  0  0  0  0  0  0
  185.7530  174.8960  136.0780 C   0  0  1  0  0  3  0  0  0  0  0  0
  181.6280  174.3450  135.4120 O   0  0  0  0  0  0  0  0  0  0  0  0
  182.8080  174.0380  135.3410 C   0  0  0  0  0  3  0  0  0  0  0  0
  185.3820  172.5520  135.3690 O   0  0  0  0  0  0  0  0  0  0  0  0
  185.1360  171.3480  135.8570 O   0  0  0  0  0  1  0  0  0  0  0  0
  183.1760  177.1690  138.0160 C   0  0  1  0  0  3  0  0  0  0  0  0
  181.9390  177.9140  136.3330 C   0  0  0  0  0  1  0  0  0  0  0  0
  181.8660  177.1880  137.5230 O   0  0  0  0  0  0  0  0  0  0  0  0
  183.1980  177.2240  139.5490 C   0  0  2  0  0  3  0  0  0  0  0  0
  181.8350  177.3740  140.0740 C   0  0  0  0  0  0  0  0  0  0  0  0
  180.7160  177.4980  140.5050 C   0  0  0  0  0  0  0  0  0  0  0  0
  179.3580  177.6480  141.0260 C   0  0  0  0  0  1  0  0  0  0  0  0
  183.9760  178.3030  139.9810 O   0  0  0  0  0  0  0  0  0  0  0  0
  183.4230  179.4210  139.3520 C   0  0  0  0  0  2  0  0  0  0  0  0
  184.4300  180.3480  139.0850 O   0  0  0  0  0  1  0  0  0  0  0  0
  3  7  1  0  0  0  0
  3  2  1  1  0  0  0
  6  5  1  0  0  0  0
  6 19  1  0  0  0  0
  7 16  1  6  0  0  0
  7  5  1  0  0  0  0
  9  6  2  0  0  0  0
 10  4  1  0  0  0  0
 11  9  1  0  0  0  0
 11  8  1  0  0  0  0
 12  4  1  0  0  0  0
 12  8  1  0  0  0  0
 13 10  1  0  0  0  0
 13  1  1  0  0  0  0
 14  1  1  1  0  0  0
 14  3  1  0  0  0  0
 14  9  1  0  0  0  0
 16 15  2  0  0  0  0
 17 18  1  0  0  0  0
 17  3  1  0  0  0  0
 19 21  1  1  0  0  0
 19 22  1  0  0  0  0
 20 21  1  0  0  0  0
 22 26  1  0  0  0  0
 22 23  1  6  0  0  0
 23 24  3  0  0  0  0
 24 25  1  0  0  0  0
 27 26  1  0  0  0  0
 28 27  1  0  0  0  0
M  END
>  <MODEL>
9

>  <REMARK>
 VINA RESULT:      -5.8      4.958      8.143
  Name = 
  8 active torsions:
  status: ('A' for Active; 'I' for Inactive)
    1  A    between atoms: C_3  and  O_7
    2  A    between atoms: C_9  and  C_12
    3  A    between atoms: C_9  and  C_13
    4  A    between atoms: C_9  and  O_14
    5  A    between atoms: C_10  and  C_13
    6  A    between atoms: C_11  and  C_22
    7  A    between atoms: C_13  and  O_24
    8  A    between atoms: O_14  and  C_18
                            x       y       z     vdW  Elec       q    Type
                         _______ _______ _______ _____ _____    ______ ____

>  <TORSDO>
F 8

$$$$
