=
 OpenBabel10262422383D

 43 48  0  0  1  0  0  0  0  0999 V2000
  189.0430  177.9260  148.4260 C   0  0  0  0  0  3  0  0  0  0  0  0
  189.3470  177.6710  142.9580 C   0  0  0  0  0  0  0  0  0  0  0  0
  186.6170  177.8760  142.1860 C   0  0  2  0  0  3  0  0  0  0  0  0
  190.1040  177.1520  145.5980 C   0  0  0  0  0  0  0  0  0  0  0  0
  187.9340  177.1640  147.7790 C   0  0  0  0  0  2  0  0  0  0  0  0
  190.3000  177.7490  148.0220 C   0  0  0  0  0  3  0  0  0  0  0  0
  188.7470  177.4970  145.3250 C   0  0  0  0  0  0  0  0  0  0  0  0
  190.6190  176.7530  146.9510 C   0  0  0  0  0  2  0  0  0  0  0  0
  187.6790  177.7220  146.3850 C   0  0  0  0  0  2  0  0  0  0  0  0
  186.9710  178.1740  143.6420 C   0  0  0  0  0  2  0  0  0  0  0  0
  188.3820  177.7510  143.9830 C   0  0  0  0  0  0  0  0  0  0  0  0
  190.6550  177.3180  143.2870 C   0  0  0  0  0  3  0  0  0  0  0  0
  188.9750  177.9090  141.5850 N   0  0  0  0  0  0  0  0  0  0  0  0
  187.6710  178.4850  141.2720 C   0  0  0  0  0  2  0  0  0  0  0  0
  190.9940  177.0670  144.5740 N   0  0  0  0  0  0  0  0  0  0  0  0
  185.2840  178.3760  141.8620 N   0  0  0  0  0  0  0  0  0  0  0  0
  185.0250  178.8700  140.5360 C   0  0  0  0  0  0  0  0  0  0  0  0
  185.9800  179.0650  139.7360 O   0  0  0  0  0  0  0  0  0  0  0  0
  184.2060  178.2550  142.8420 C   0  0  0  0  0  2  0  0  0  0  0  0
  184.0190  179.5660  143.5840 C   0  0  0  0  0  1  0  0  0  0  0  0
  183.6280  179.1180  140.0610 C   0  0  0  0  0  2  0  0  0  0  0  0
  183.1670  177.9860  139.1560 C   0  0  2  0  0  3  0  0  0  0  0  0
  181.7350  177.9700  137.1660 C   0  0  0  0  0  2  0  0  0  0  0  0
  184.0280  177.9080  137.9120 C   0  0  0  0  0  2  0  0  0  0  0  0
  181.7450  178.2460  138.6610 C   0  0  1  0  0  3  0  0  0  0  0  0
  183.1060  177.4260  136.8180 C   0  0  0  0  0  2  0  0  0  0  0  0
  180.7300  177.4280  139.3450 N   0  0  0  0  0  0  0  0  0  0  0  0
  181.3660  176.4520  140.0480 O   0  0  0  0  0  1  0  0  0  0  0  0
  179.9760  178.2650  140.2850 C   0  0  0  0  0  3  0  0  0  0  0  0
  179.7840  180.3910  142.3110 C   0  0  0  0  0  2  0  0  0  0  0  0
  179.6890  178.9170  142.6920 C   0  0  0  0  0  2  0  0  0  0  0  0
  179.2840  180.6010  140.8850 C   0  0  0  0  0  2  0  0  0  0  0  0
  180.4950  178.0670  141.7140 C   0  0  0  0  0  2  0  0  0  0  0  0
  180.0950  179.7480  139.9140 C   0  0  0  0  0  2  0  0  0  0  0  0
  189.7880  177.4070  140.4840 C   0  0  0  0  0  2  0  0  0  0  0  0
  187.6550  176.8090  137.4100 C   0  0  0  0  0  3  0  0  0  0  0  0
  187.8380  178.0050  136.7100 C   0  0  0  0  0  0  0  0  0  0  0  0
  189.2850  178.8160  138.4750 C   0  0  0  0  0  3  0  0  0  0  0  0
  188.2800  176.6190  138.6470 C   0  0  0  0  0  3  0  0  0  0  0  0
  189.0880  177.6260  139.1850 C   0  0  0  0  0  0  0  0  0  0  0  0
  188.6610  179.0050  137.2390 C   0  0  0  0  0  3  0  0  0  0  0  0
  186.0600  177.4150  135.2980 F   0  0  0  0  0  0  0  0  0  0  0  0
  187.1970  178.1960  135.3820 C   0  0  0  0  0  2  0  0  0  0  0  0
  2 12  2  0  0  0  0
  2 11  1  0  0  0  0
  3 16  1  6  0  0  0
  3 10  1  0  0  0  0
  4  8  1  0  0  0  0
  5  1  1  0  0  0  0
  6  1  2  0  0  0  0
  7  4  1  0  0  0  0
  7  9  1  0  0  0  0
  8  6  1  0  0  0  0
  9  5  1  0  0  0  0
 10 11  1  0  0  0  0
 11  7  2  0  0  0  0
 12 15  1  0  0  0  0
 13  2  1  0  0  0  0
 14 13  1  0  0  0  0
 14  3  1  0  0  0  0
 15  4  2  0  0  0  0
 16 19  1  0  0  0  0
 17 16  1  0  0  0  0
 18 17  2  0  0  0  0
 19 20  1  0  0  0  0
 21 17  1  0  0  0  0
 22 21  1  1  0  0  0
 23 25  1  0  0  0  0
 24 22  1  0  0  0  0
 25 22  1  0  0  0  0
 25 27  1  1  0  0  0
 26 23  1  0  0  0  0
 26 24  1  0  0  0  0
 27 28  1  0  0  0  0
 27 29  1  0  0  0  0
 29 33  1  0  0  0  0
 30 31  1  0  0  0  0
 32 30  1  0  0  0  0
 33 31  1  0  0  0  0
 34 29  1  0  0  0  0
 34 32  1  0  0  0  0
 35 13  1  0  0  0  0
 36 39  1  0  0  0  0
 37 41  1  0  0  0  0
 37 36  2  0  0  0  0
 38 40  1  0  0  0  0
 39 40  2  0  0  0  0
 40 35  1  0  0  0  0
 41 38  2  0  0  0  0
 42 43  1  0  0  0  0
 43 37  1  0  0  0  0
M  END
>  <MODEL>
1

>  <REMARK>
 VINA RESULT:      -9.2      0.000      0.000
  Name = 
  9 active torsions:
  status: ('A' for Active; 'I' for Inactive)
    1  A    between atoms: C_1  and  N_34
    2  A    between atoms: C_1  and  C_35
    3  A    between atoms: C_2  and  N_6
    4  A    between atoms: C_3  and  C_4
    5  A    between atoms: C_3  and  C_12
    6  A    between atoms: N_6  and  C_13
    7  A    between atoms: C_11  and  N_14
    8  A    between atoms: N_14  and  C_22
    9  A    between atoms: C_19  and  C_37
                            x       y       z     vdW  Elec       q    Type
                         _______ _______ _______ _____ _____    ______ ____

>  <TORSDO>
F 9

$$$$
=
 OpenBabel10262422383D

 43 48  0  0  1  0  0  0  0  0999 V2000
  195.8560  174.5540  137.1590 C   0  0  0  0  0  3  0  0  0  0  0  0
  190.8120  176.4230  136.1050 C   0  0  0  0  0  0  0  0  0  0  0  0
  189.8590  177.1020  138.6970 C   0  0  2  0  0  3  0  0  0  0  0  0
  193.1030  174.8670  135.7290 C   0  0  0  0  0  0  0  0  0  0  0  0
  194.8320  174.1820  138.1800 C   0  0  0  0  0  2  0  0  0  0  0  0
  195.5700  174.4590  135.8610 C   0  0  0  0  0  3  0  0  0  0  0  0
  192.8260  175.3850  137.0300 C   0  0  0  0  0  0  0  0  0  0  0  0
  194.2400  173.9380  135.4130 C   0  0  0  0  0  2  0  0  0  0  0  0
  193.7520  175.2550  138.2300 C   0  0  0  0  0  2  0  0  0  0  0  0
  191.3460  176.7850  138.5440 C   0  0  0  0  0  2  0  0  0  0  0  0
  191.6600  176.1650  137.2010 C   0  0  0  0  0  0  0  0  0  0  0  0
  191.1300  175.8800  134.8610 C   0  0  0  0  0  3  0  0  0  0  0  0
  189.6100  177.2020  136.2790 N   0  0  0  0  0  0  0  0  0  0  0  0
  189.3940  177.9430  137.5170 C   0  0  0  0  0  2  0  0  0  0  0  0
  192.2440  175.1250  134.7080 N   0  0  0  0  0  0  0  0  0  0  0  0
  189.6010  177.7810  139.9640 N   0  0  0  0  0  0  0  0  0  0  0  0
  188.3290  178.4220  140.1680 C   0  0  0  0  0  0  0  0  0  0  0  0
  187.5370  178.5780  139.2000 O   0  0  0  0  0  0  0  0  0  0  0  0
  190.5800  177.6950  141.0460 C   0  0  0  0  0  2  0  0  0  0  0  0
  190.4280  176.3810  141.7900 C   0  0  0  0  0  1  0  0  0  0  0  0
  187.8980  178.8720  141.5280 C   0  0  0  0  0  2  0  0  0  0  0  0
  186.7060  178.0550  142.0050 C   0  0  2  0  0  3  0  0  0  0  0  0
  184.9800  178.5160  143.6830 C   0  0  0  0  0  2  0  0  0  0  0  0
  185.4360  178.5060  141.3140 C   0  0  0  0  0  2  0  0  0  0  0  0
  186.4700  178.2800  143.4970 C   0  0  1  0  0  3  0  0  0  0  0  0
  184.3360  178.2990  142.3280 C   0  0  0  0  0  2  0  0  0  0  0  0
  186.9240  177.1570  144.3350 N   0  0  0  0  0  0  0  0  0  0  0  0
  187.5460  176.2480  143.5370 O   0  0  0  0  0  1  0  0  0  0  0  0
  187.8890  177.6440  145.3280 C   0  0  0  0  0  3  0  0  0  0  0  0
  189.6460  177.2730  147.6600 C   0  0  0  0  0  2  0  0  0  0  0  0
  188.3190  178.0180  147.7730 C   0  0  0  0  0  2  0  0  0  0  0  0
  190.2110  177.4120  146.2500 C   0  0  0  0  0  2  0  0  0  0  0  0
  187.3260  177.4840  146.7460 C   0  0  0  0  0  2  0  0  0  0  0  0
  189.2120  176.8750  145.2290 C   0  0  0  0  0  2  0  0  0  0  0  0
  188.5070  177.1110  135.3300 C   0  0  0  0  0  2  0  0  0  0  0  0
  185.2110  175.9650  136.8050 C   0  0  0  0  0  3  0  0  0  0  0  0
  185.4410  174.5940  136.9630 C   0  0  0  0  0  0  0  0  0  0  0  0
  187.6670  174.8630  136.0460 C   0  0  0  0  0  3  0  0  0  0  0  0
  186.2060  176.7830  136.2610 C   0  0  0  0  0  3  0  0  0  0  0  0
  187.4310  176.2310  135.8720 C   0  0  0  0  0  0  0  0  0  0  0  0
  186.6730  174.0450  136.5920 C   0  0  0  0  0  3  0  0  0  0  0  0
  184.9890  172.7520  138.3440 F   0  0  0  0  0  0  0  0  0  0  0  0
  184.3950  173.7280  137.5690 C   0  0  0  0  0  2  0  0  0  0  0  0
  1  5  1  0  0  0  0
  2 13  1  0  0  0  0
  2 11  1  0  0  0  0
  3 16  1  1  0  0  0
  4  7  1  0  0  0  0
  5  9  1  0  0  0  0
  6  1  2  0  0  0  0
  7 11  2  0  0  0  0
  7  9  1  0  0  0  0
  8  4  1  0  0  0  0
  8  6  1  0  0  0  0
 10  3  1  0  0  0  0
 11 10  1  0  0  0  0
 12  2  2  0  0  0  0
 13 14  1  0  0  0  0
 14  3  1  0  0  0  0
 15 12  1  0  0  0  0
 15  4  2  0  0  0  0
 16 17  1  0  0  0  0
 16 19  1  0  0  0  0
 17 21  1  0  0  0  0
 18 17  2  0  0  0  0
 19 20  1  0  0  0  0
 22 21  1  6  0  0  0
 22 25  1  0  0  0  0
 24 22  1  0  0  0  0
 24 26  1  0  0  0  0
 25 23  1  0  0  0  0
 25 27  1  1  0  0  0
 26 23  1  0  0  0  0
 27 29  1  0  0  0  0
 28 27  1  0  0  0  0
 29 33  1  0  0  0  0
 30 31  1  0  0  0  0
 32 30  1  0  0  0  0
 33 31  1  0  0  0  0
 34 29  1  0  0  0  0
 34 32  1  0  0  0  0
 35 40  1  0  0  0  0
 35 13  1  0  0  0  0
 36 37  1  0  0  0  0
 37 43  1  0  0  0  0
 38 41  1  0  0  0  0
 39 36  2  0  0  0  0
 40 38  2  0  0  0  0
 40 39  1  0  0  0  0
 41 37  2  0  0  0  0
 43 42  1  0  0  0  0
M  END
>  <MODEL>
2

>  <REMARK>
 VINA RESULT:      -9.2      3.694      7.917
  Name = 
  9 active torsions:
  status: ('A' for Active; 'I' for Inactive)
    1  A    between atoms: C_1  and  N_34
    2  A    between atoms: C_1  and  C_35
    3  A    between atoms: C_2  and  N_6
    4  A    between atoms: C_3  and  C_4
    5  A    between atoms: C_3  and  C_12
    6  A    between atoms: N_6  and  C_13
    7  A    between atoms: C_11  and  N_14
    8  A    between atoms: N_14  and  C_22
    9  A    between atoms: C_19  and  C_37
                            x       y       z     vdW  Elec       q    Type
                         _______ _______ _______ _____ _____    ______ ____

>  <TORSDO>
F 9

$$$$
=
 OpenBabel10262422383D

 43 48  0  0  1  0  0  0  0  0999 V2000
  192.4860  174.7990  136.2520 C   0  0  0  0  0  3  0  0  0  0  0  0
  187.2910  176.5480  136.3590 C   0  0  0  0  0  0  0  0  0  0  0  0
  187.0360  177.5380  139.0130 C   0  0  2  0  0  3  0  0  0  0  0  0
  189.4460  174.9490  135.5760 C   0  0  0  0  0  0  0  0  0  0  0  0
  191.7770  174.5580  137.5440 C   0  0  0  0  0  2  0  0  0  0  0  0
  191.8710  174.5500  135.0970 C   0  0  0  0  0  3  0  0  0  0  0  0
  189.5070  175.6210  136.8330 C   0  0  0  0  0  0  0  0  0  0  0  0
  190.4860  173.9840  135.0810 C   0  0  0  0  0  2  0  0  0  0  0  0
  190.7190  175.6320  137.7520 C   0  0  0  0  0  2  0  0  0  0  0  0
  188.4380  177.1990  138.5090 C   0  0  0  0  0  2  0  0  0  0  0  0
  188.4060  176.4200  137.2140 C   0  0  0  0  0  0  0  0  0  0  0  0
  187.2860  175.8570  135.1480 C   0  0  0  0  0  3  0  0  0  0  0  0
  186.1560  177.3460  136.7530 N   0  0  0  0  0  0  0  0  0  0  0  0
  186.2530  178.2330  137.9080 C   0  0  0  0  0  2  0  0  0  0  0  0
  188.3420  175.0860  134.7940 N   0  0  0  0  0  0  0  0  0  0  0  0
  187.1010  178.3660  140.2140 N   0  0  0  0  0  0  0  0  0  0  0  0
  185.8770  178.7600  140.8590 C   0  0  0  0  0  0  0  0  0  0  0  0
  184.7710  178.5760  140.2830 O   0  0  0  0  0  0  0  0  0  0  0  0
  188.3990  178.6750  140.8120 C   0  0  0  0  0  2  0  0  0  0  0  0
  188.9030  177.4910  141.6170 C   0  0  0  0  0  1  0  0  0  0  0  0
  185.8820  179.3490  142.2350 C   0  0  0  0  0  2  0  0  0  0  0  0
  185.0340  178.5060  143.1760 C   0  0  2  0  0  3  0  0  0  0  0  0
  184.3470  178.8530  145.5030 C   0  0  0  0  0  2  0  0  0  0  0  0
  183.6080  179.0130  143.2120 C   0  0  0  0  0  2  0  0  0  0  0  0
  185.5540  178.6230  144.6080 C   0  0  1  0  0  3  0  0  0  0  0  0
  183.1230  178.7390  144.6170 C   0  0  0  0  0  2  0  0  0  0  0  0
  186.3090  177.4400  145.0520 N   0  0  0  0  0  0  0  0  0  0  0  0
  186.6930  176.7350  143.9540 O   0  0  0  0  0  1  0  0  0  0  0  0
  187.5120  177.8680  145.7750 C   0  0  0  0  0  3  0  0  0  0  0  0
  189.8280  177.3610  147.5200 C   0  0  0  0  0  2  0  0  0  0  0  0
  188.5910  178.0940  148.0310 C   0  0  0  0  0  2  0  0  0  0  0  0
  189.9940  177.5870  146.0210 C   0  0  0  0  0  2  0  0  0  0  0  0
  187.3510  177.6200  147.2800 C   0  0  0  0  0  2  0  0  0  0  0  0
  188.7490  177.1110  145.2770 C   0  0  0  0  0  2  0  0  0  0  0  0
  184.8460  177.1460  136.1460 C   0  0  0  0  0  2  0  0  0  0  0  0
  182.6730  175.9950  139.0290 C   0  0  0  0  0  3  0  0  0  0  0  0
  181.7580  177.0480  139.1220 C   0  0  0  0  0  0  0  0  0  0  0  0
  182.8620  178.1710  137.2810 C   0  0  0  0  0  3  0  0  0  0  0  0
  183.6880  176.0330  138.0670 C   0  0  0  0  0  3  0  0  0  0  0  0
  183.7890  177.1260  137.1980 C   0  0  0  0  0  0  0  0  0  0  0  0
  181.8470  178.1320  138.2420 C   0  0  0  0  0  3  0  0  0  0  0  0
  181.0240  177.7140  141.2490 F   0  0  0  0  0  0  0  0  0  0  0  0
  180.6620  176.9950  140.1260 C   0  0  0  0  0  2  0  0  0  0  0  0
  1  5  1  0  0  0  0
  2 13  1  0  0  0  0
  2 11  1  0  0  0  0
  3 16  1  1  0  0  0
  4  7  1  0  0  0  0
  5  9  1  0  0  0  0
  6  1  2  0  0  0  0
  7 11  2  0  0  0  0
  7  9  1  0  0  0  0
  8  6  1  0  0  0  0
  8  4  1  0  0  0  0
 10  3  1  0  0  0  0
 11 10  1  0  0  0  0
 12  2  2  0  0  0  0
 13 14  1  0  0  0  0
 14  3  1  0  0  0  0
 15 12  1  0  0  0  0
 15  4  2  0  0  0  0
 16 19  1  0  0  0  0
 16 17  1  0  0  0  0
 17 21  1  0  0  0  0
 18 17  2  0  0  0  0
 19 20  1  0  0  0  0
 22 21  1  6  0  0  0
 22 24  1  0  0  0  0
 22 25  1  0  0  0  0
 24 26  1  0  0  0  0
 25 27  1  1  0  0  0
 25 23  1  0  0  0  0
 26 23  1  0  0  0  0
 27 29  1  0  0  0  0
 28 27  1  0  0  0  0
 29 33  1  0  0  0  0
 30 31  1  0  0  0  0
 32 30  1  0  0  0  0
 33 31  1  0  0  0  0
 34 29  1  0  0  0  0
 34 32  1  0  0  0  0
 35 13  1  0  0  0  0
 35 40  1  0  0  0  0
 36 37  1  0  0  0  0
 37 43  1  0  0  0  0
 38 41  1  0  0  0  0
 39 36  2  0  0  0  0
 40 38  2  0  0  0  0
 40 39  1  0  0  0  0
 41 37  2  0  0  0  0
 43 42  1  0  0  0  0
M  END
>  <MODEL>
3

>  <REMARK>
 VINA RESULT:      -9.1      2.876      7.984
  Name = 
  9 active torsions:
  status: ('A' for Active; 'I' for Inactive)
    1  A    between atoms: C_1  and  N_34
    2  A    between atoms: C_1  and  C_35
    3  A    between atoms: C_2  and  N_6
    4  A    between atoms: C_3  and  C_4
    5  A    between atoms: C_3  and  C_12
    6  A    between atoms: N_6  and  C_13
    7  A    between atoms: C_11  and  N_14
    8  A    between atoms: N_14  and  C_22
    9  A    between atoms: C_19  and  C_37
                            x       y       z     vdW  Elec       q    Type
                         _______ _______ _______ _____ _____    ______ ____

>  <TORSDO>
F 9

$$$$
=
 OpenBabel10262422383D

 43 48  0  0  1  0  0  0  0  0999 V2000
  187.1130  176.8820  134.9660 C   0  0  0  0  0  3  0  0  0  0  0  0
  189.9890  177.2000  139.6220 C   0  0  0  0  0  0  0  0  0  0  0  0
  188.0070  177.9740  141.5100 C   0  0  2  0  0  3  0  0  0  0  0  0
  189.5420  177.3380  136.8660 C   0  0  0  0  0  0  0  0  0  0  0  0
  186.7080  178.0010  135.8690 C   0  0  0  0  0  2  0  0  0  0  0  0
  188.4030  176.6290  134.7520 C   0  0  0  0  0  3  0  0  0  0  0  0
  188.4350  177.4910  137.7530 C   0  0  0  0  0  0  0  0  0  0  0  0
  189.4580  177.4900  135.3750 C   0  0  0  0  0  2  0  0  0  0  0  0
  186.9830  177.6110  137.3140 C   0  0  0  0  0  2  0  0  0  0  0  0
  187.5380  177.5230  140.1280 C   0  0  0  0  0  2  0  0  0  0  0  0
  188.6810  177.4230  139.1430 C   0  0  0  0  0  0  0  0  0  0  0  0
  191.0310  177.0700  138.7060 C   0  0  0  0  0  3  0  0  0  0  0  0
  190.2480  177.1510  141.0400 N   0  0  0  0  0  0  0  0  0  0  0  0
  189.1370  177.0700  141.9830 C   0  0  0  0  0  2  0  0  0  0  0  0
  190.7880  177.1450  137.3760 N   0  0  0  0  0  0  0  0  0  0  0  0
  186.8980  177.9740  142.4610 N   0  0  0  0  0  0  0  0  0  0  0  0
  185.7410  178.7830  142.1860 C   0  0  0  0  0  0  0  0  0  0  0  0
  185.7710  179.6340  141.2570 O   0  0  0  0  0  0  0  0  0  0  0  0
  186.9250  177.0650  143.6050 C   0  0  0  0  0  2  0  0  0  0  0  0
  187.4170  177.7920  144.8440 C   0  0  0  0  0  1  0  0  0  0  0  0
  184.4710  178.6040  142.9550 C   0  0  0  0  0  2  0  0  0  0  0  0
  183.2840  179.1020  142.1440 C   0  0  2  0  0  3  0  0  0  0  0  0
  181.4230  177.9130  141.0790 C   0  0  0  0  0  2  0  0  0  0  0  0
  182.0490  179.2130  143.0130 C   0  0  0  0  0  2  0  0  0  0  0  0
  182.9320  178.0990  141.0470 C   0  0  1  0  0  3  0  0  0  0  0  0
  180.8890  178.8990  142.0980 C   0  0  0  0  0  2  0  0  0  0  0  0
  183.3720  178.5220  139.7070 N   0  0  0  0  0  0  0  0  0  0  0  0
  183.8780  177.4390  139.0580 O   0  0  0  0  0  1  0  0  0  0  0  0
  182.2220  179.0260  138.9480 C   0  0  0  0  0  3  0  0  0  0  0  0
  181.0170  180.4020  136.6420 C   0  0  0  0  0  2  0  0  0  0  0  0
  181.1070  181.0710  138.0100 C   0  0  0  0  0  2  0  0  0  0  0  0
  180.9340  178.8870  136.7990 C   0  0  0  0  0  2  0  0  0  0  0  0
  182.3200  180.5460  138.7740 C   0  0  0  0  0  2  0  0  0  0  0  0
  182.1500  178.3710  137.5630 C   0  0  0  0  0  2  0  0  0  0  0  0
  191.5870  177.3790  141.5710 C   0  0  0  0  0  2  0  0  0  0  0  0
  191.7140  175.6580  144.9440 C   0  0  0  0  0  3  0  0  0  0  0  0
  191.5440  176.7400  145.8130 C   0  0  0  0  0  0  0  0  0  0  0  0
  191.4120  178.2410  143.9160 C   0  0  0  0  0  3  0  0  0  0  0  0
  191.7410  175.8680  143.5620 C   0  0  0  0  0  3  0  0  0  0  0  0
  191.5990  177.1610  143.0470 C   0  0  0  0  0  0  0  0  0  0  0  0
  191.3840  178.0310  145.2980 C   0  0  0  0  0  3  0  0  0  0  0  0
  192.5480  175.7200  147.6720 F   0  0  0  0  0  0  0  0  0  0  0  0
  191.4870  176.5140  147.2820 C   0  0  0  0  0  2  0  0  0  0  0  0
  1  5  1  0  0  0  0
  2 13  1  0  0  0  0
  3 14  1  0  0  0  0
  3 16  1  1  0  0  0
  4 15  2  0  0  0  0
  4  7  1  0  0  0  0
  5  9  1  0  0  0  0
  6  1  2  0  0  0  0
  6  8  1  0  0  0  0
  7 11  2  0  0  0  0
  8  4  1  0  0  0  0
  9  7  1  0  0  0  0
 10  3  1  0  0  0  0
 11  2  1  0  0  0  0
 11 10  1  0  0  0  0
 12  2  2  0  0  0  0
 13 35  1  0  0  0  0
 13 14  1  0  0  0  0
 15 12  1  0  0  0  0
 16 19  1  0  0  0  0
 17 16  1  0  0  0  0
 17 21  1  0  0  0  0
 18 17  2  0  0  0  0
 19 20  1  0  0  0  0
 22 21  1  1  0  0  0
 22 24  1  0  0  0  0
 23 26  1  0  0  0  0
 25 27  1  6  0  0  0
 25 23  1  0  0  0  0
 25 22  1  0  0  0  0
 26 24  1  0  0  0  0
 28 27  1  0  0  0  0
 29 27  1  0  0  0  0
 30 32  1  0  0  0  0
 30 31  1  0  0  0  0
 31 33  1  0  0  0  0
 32 34  1  0  0  0  0
 33 29  1  0  0  0  0
 34 29  1  0  0  0  0
 35 40  1  0  0  0  0
 36 37  1  0  0  0  0
 37 43  1  0  0  0  0
 38 41  1  0  0  0  0
 39 36  2  0  0  0  0
 40 39  1  0  0  0  0
 40 38  2  0  0  0  0
 41 37  2  0  0  0  0
 43 42  1  0  0  0  0
M  END
>  <MODEL>
4

>  <REMARK>
 VINA RESULT:      -9.1      2.764      6.787
  Name = 
  9 active torsions:
  status: ('A' for Active; 'I' for Inactive)
    1  A    between atoms: C_1  and  N_34
    2  A    between atoms: C_1  and  C_35
    3  A    between atoms: C_2  and  N_6
    4  A    between atoms: C_3  and  C_4
    5  A    between atoms: C_3  and  C_12
    6  A    between atoms: N_6  and  C_13
    7  A    between atoms: C_11  and  N_14
    8  A    between atoms: N_14  and  C_22
    9  A    between atoms: C_19  and  C_37
                            x       y       z     vdW  Elec       q    Type
                         _______ _______ _______ _____ _____    ______ ____

>  <TORSDO>
F 9

$$$$
=
 OpenBabel10262422383D

 43 48  0  0  1  0  0  0  0  0999 V2000
  191.1750  176.5250  145.4710 C   0  0  0  0  0  3  0  0  0  0  0  0
  186.0100  178.1930  144.6980 C   0  0  0  0  0  0  0  0  0  0  0  0
  185.9260  178.6320  141.8890 C   0  0  2  0  0  3  0  0  0  0  0  0
  188.4210  177.8580  146.0730 C   0  0  0  0  0  0  0  0  0  0  0  0
  191.0180  177.5970  144.4430 C   0  0  0  0  0  2  0  0  0  0  0  0
  190.5180  176.6070  146.6270 C   0  0  0  0  0  3  0  0  0  0  0  0
  188.4280  177.8150  144.6470 C   0  0  0  0  0  0  0  0  0  0  0  0
  189.6540  177.7920  146.9270 C   0  0  0  0  0  2  0  0  0  0  0  0
  189.6450  177.4810  143.7950 C   0  0  0  0  0  2  0  0  0  0  0  0
  187.1400  177.9020  142.4610 C   0  0  0  0  0  2  0  0  0  0  0  0
  187.2010  177.9920  143.9690 C   0  0  0  0  0  0  0  0  0  0  0  0
  186.0700  178.2370  146.0900 C   0  0  0  0  0  3  0  0  0  0  0  0
  184.7580  178.3950  144.0100 N   0  0  0  0  0  0  0  0  0  0  0  0
  184.6630  178.1360  142.5780 C   0  0  0  0  0  2  0  0  0  0  0  0
  187.2520  178.0750  146.7310 N   0  0  0  0  0  0  0  0  0  0  0  0
  185.8450  178.4510  140.4420 N   0  0  0  0  0  0  0  0  0  0  0  0
  187.0610  178.3440  139.6810 C   0  0  0  0  0  0  0  0  0  0  0  0
  188.1690  178.6130  140.2180 O   0  0  0  0  0  0  0  0  0  0  0  0
  184.5420  178.2580  139.8080 C   0  0  0  0  0  2  0  0  0  0  0  0
  184.1420  179.5020  139.0360 C   0  0  0  0  0  1  0  0  0  0  0  0
  187.0460  177.8700  138.2620 C   0  0  0  0  0  2  0  0  0  0  0  0
  188.4650  177.7680  137.7220 C   0  0  2  0  0  3  0  0  0  0  0  0
  189.4440  176.3680  135.9640 C   0  0  0  0  0  2  0  0  0  0  0  0
  188.6160  178.5810  136.4530 C   0  0  0  0  0  2  0  0  0  0  0  0
  188.7830  176.3260  137.3330 C   0  0  1  0  0  3  0  0  0  0  0  0
  189.6290  177.8320  135.6190 C   0  0  0  0  0  2  0  0  0  0  0  0
  189.6500  175.6370  138.3040 N   0  0  0  0  0  0  0  0  0  0  0  0
  190.2020  174.5530  137.6960 O   0  0  0  0  0  1  0  0  0  0  0  0
  190.7290  176.5370  138.7250 C   0  0  0  0  0  3  0  0  0  0  0  0
  193.2170  177.1270  140.1840 C   0  0  0  0  0  2  0  0  0  0  0  0
  191.8630  177.6240  140.6840 C   0  0  0  0  0  2  0  0  0  0  0  0
  193.1980  176.9820  138.6660 C   0  0  0  0  0  2  0  0  0  0  0  0
  190.7580  176.6640  140.2520 C   0  0  0  0  0  2  0  0  0  0  0  0
  192.0910  176.0210  138.2430 C   0  0  0  0  0  2  0  0  0  0  0  0
  183.6310  179.0430  144.6700 C   0  0  0  0  0  2  0  0  0  0  0  0
  180.0710  178.3370  143.5800 C   0  0  0  0  0  3  0  0  0  0  0  0
  180.1320  178.6530  142.2190 C   0  0  0  0  0  0  0  0  0  0  0  0
  182.4720  179.2330  142.4570 C   0  0  0  0  0  3  0  0  0  0  0  0
  181.2080  178.4770  144.3810 C   0  0  0  0  0  3  0  0  0  0  0  0
  182.4080  178.9340  143.8230 C   0  0  0  0  0  0  0  0  0  0  0  0
  181.3350  179.0930  141.6560 C   0  0  0  0  0  3  0  0  0  0  0  0
  179.2910  178.5760  140.0290 F   0  0  0  0  0  0  0  0  0  0  0  0
  178.9310  178.4780  141.3600 C   0  0  0  0  0  2  0  0  0  0  0  0
  1  6  2  0  0  0  0
  2 12  1  0  0  0  0
  3 16  1  6  0  0  0
  3 10  1  0  0  0  0
  3 14  1  0  0  0  0
  4 15  1  0  0  0  0
  4  8  1  0  0  0  0
  5  1  1  0  0  0  0
  6  8  1  0  0  0  0
  7  4  2  0  0  0  0
  9  5  1  0  0  0  0
  9  7  1  0  0  0  0
 10 11  1  0  0  0  0
 11  7  1  0  0  0  0
 11  2  2  0  0  0  0
 12 15  2  0  0  0  0
 13 35  1  0  0  0  0
 13  2  1  0  0  0  0
 14 13  1  0  0  0  0
 17 18  2  0  0  0  0
 17 16  1  0  0  0  0
 19 16  1  0  0  0  0
 20 19  1  0  0  0  0
 21 17  1  0  0  0  0
 22 21  1  6  0  0  0
 23 25  1  0  0  0  0
 24 22  1  0  0  0  0
 25 22  1  0  0  0  0
 25 27  1  1  0  0  0
 26 23  1  0  0  0  0
 26 24  1  0  0  0  0
 27 29  1  0  0  0  0
 28 27  1  0  0  0  0
 29 33  1  0  0  0  0
 30 31  1  0  0  0  0
 32 30  1  0  0  0  0
 33 31  1  0  0  0  0
 34 32  1  0  0  0  0
 34 29  1  0  0  0  0
 36 39  1  0  0  0  0
 37 36  2  0  0  0  0
 38 40  1  0  0  0  0
 40 39  2  0  0  0  0
 40 35  1  0  0  0  0
 41 37  1  0  0  0  0
 41 38  2  0  0  0  0
 42 43  1  0  0  0  0
 43 37  1  0  0  0  0
M  END
>  <MODEL>
5

>  <REMARK>
 VINA RESULT:      -9.0      2.531      7.262
  Name = 
  9 active torsions:
  status: ('A' for Active; 'I' for Inactive)
    1  A    between atoms: C_1  and  N_34
    2  A    between atoms: C_1  and  C_35
    3  A    between atoms: C_2  and  N_6
    4  A    between atoms: C_3  and  C_4
    5  A    between atoms: C_3  and  C_12
    6  A    between atoms: N_6  and  C_13
    7  A    between atoms: C_11  and  N_14
    8  A    between atoms: N_14  and  C_22
    9  A    between atoms: C_19  and  C_37
                            x       y       z     vdW  Elec       q    Type
                         _______ _______ _______ _____ _____    ______ ____

>  <TORSDO>
F 9

$$$$
=
 OpenBabel10262422383D

 43 48  0  0  1  0  0  0  0  0999 V2000
  190.1150  177.3760  147.7620 C   0  0  0  0  0  3  0  0  0  0  0  0
  189.8720  177.5480  142.2880 C   0  0  0  0  0  0  0  0  0  0  0  0
  187.1150  178.0650  141.8170 C   0  0  2  0  0  3  0  0  0  0  0  0
  190.8210  176.7440  144.7910 C   0  0  0  0  0  0  0  0  0  0  0  0
  188.8790  176.7750  147.1780 C   0  0  0  0  0  2  0  0  0  0  0  0
  191.3040  177.1170  147.2200 C   0  0  0  0  0  3  0  0  0  0  0  0
  189.4850  177.2330  144.6850 C   0  0  0  0  0  0  0  0  0  0  0  0
  191.4200  176.1880  146.0520 C   0  0  0  0  0  2  0  0  0  0  0  0
  188.5500  177.4670  145.8630 C   0  0  0  0  0  2  0  0  0  0  0  0
  187.6340  178.2080  143.2470 C   0  0  0  0  0  2  0  0  0  0  0  0
  189.0210  177.6300  143.4100 C   0  0  0  0  0  0  0  0  0  0  0  0
  191.1630  177.0500  142.4550 C   0  0  0  0  0  3  0  0  0  0  0  0
  189.3960  177.9320  140.9820 N   0  0  0  0  0  0  0  0  0  0  0  0
  188.1330  178.6490  140.8470 C   0  0  0  0  0  2  0  0  0  0  0  0
  191.5970  176.6630  143.6780 N   0  0  0  0  0  0  0  0  0  0  0  0
  185.8140  178.7110  141.6690 N   0  0  0  0  0  0  0  0  0  0  0  0
  185.1350  178.6360  140.4030 C   0  0  0  0  0  0  0  0  0  0  0  0
  185.7420  178.2080  139.3840 O   0  0  0  0  0  0  0  0  0  0  0  0
  185.1660  179.3130  142.8340 C   0  0  0  0  0  2  0  0  0  0  0  0
  184.3050  178.2850  143.5460 C   0  0  0  0  0  1  0  0  0  0  0  0
  183.6940  179.0160  140.2730 C   0  0  0  0  0  2  0  0  0  0  0  0
  183.0800  178.3580  139.0470 C   0  0  2  0  0  3  0  0  0  0  0  0
  180.7520  177.8760  138.4470 C   0  0  0  0  0  2  0  0  0  0  0  0
  182.5820  179.4030  138.0700 C   0  0  0  0  0  2  0  0  0  0  0  0
  181.8530  177.5390  139.4410 C   0  0  1  0  0  3  0  0  0  0  0  0
  181.3750  178.7840  137.4060 C   0  0  0  0  0  2  0  0  0  0  0  0
  182.1020  176.0880  139.4630 N   0  0  0  0  0  0  0  0  0  0  0  0
  180.9900  175.4670  139.9410 O   0  0  0  0  0  1  0  0  0  0  0  0
  182.3520  175.6110  138.0980 C   0  0  0  0  0  3  0  0  0  0  0  0
  183.1290  173.5390  136.1570 C   0  0  0  0  0  2  0  0  0  0  0  0
  184.0700  174.6840  136.5190 C   0  0  0  0  0  2  0  0  0  0  0  0
  181.6770  173.9790  136.3160 C   0  0  0  0  0  2  0  0  0  0  0  0
  183.8060  175.1510  137.9480 C   0  0  0  0  0  2  0  0  0  0  0  0
  181.4220  174.4430  137.7470 C   0  0  0  0  0  2  0  0  0  0  0  0
  190.0480  177.4500  139.7690 C   0  0  0  0  0  2  0  0  0  0  0  0
  187.5240  176.5660  137.0850 C   0  0  0  0  0  3  0  0  0  0  0  0
  187.4450  177.7680  136.3740 C   0  0  0  0  0  0  0  0  0  0  0  0
  189.0550  178.7660  137.8830 C   0  0  0  0  0  3  0  0  0  0  0  0
  188.3630  176.4660  138.1990 C   0  0  0  0  0  3  0  0  0  0  0  0
  189.1220  177.5690  138.6060 C   0  0  0  0  0  0  0  0  0  0  0  0
  188.2180  178.8650  136.7690 C   0  0  0  0  0  3  0  0  0  0  0  0
  185.2870  177.4860  135.4970 F   0  0  0  0  0  0  0  0  0  0  0  0
  186.5750  177.8660  135.1720 C   0  0  0  0  0  2  0  0  0  0  0  0
  2 12  2  0  0  0  0
  2 11  1  0  0  0  0
  3 16  1  1  0  0  0
  3 10  1  0  0  0  0
  4  8  1  0  0  0  0
  5  1  1  0  0  0  0
  6  1  2  0  0  0  0
  7  4  1  0  0  0  0
  7  9  1  0  0  0  0
  8  6  1  0  0  0  0
  9  5  1  0  0  0  0
 10 11  1  0  0  0  0
 11  7  2  0  0  0  0
 12 15  1  0  0  0  0
 13  2  1  0  0  0  0
 14 13  1  0  0  0  0
 14  3  1  0  0  0  0
 15  4  2  0  0  0  0
 16 19  1  0  0  0  0
 17 16  1  0  0  0  0
 18 17  2  0  0  0  0
 19 20  1  0  0  0  0
 21 17  1  0  0  0  0
 22 25  1  0  0  0  0
 22 21  1  1  0  0  0
 23 25  1  0  0  0  0
 24 22  1  0  0  0  0
 25 27  1  6  0  0  0
 26 24  1  0  0  0  0
 26 23  1  0  0  0  0
 27 28  1  0  0  0  0
 29 27  1  0  0  0  0
 30 32  1  0  0  0  0
 30 31  1  0  0  0  0
 31 33  1  0  0  0  0
 32 34  1  0  0  0  0
 33 29  1  0  0  0  0
 34 29  1  0  0  0  0
 35 13  1  0  0  0  0
 36 39  1  0  0  0  0
 37 41  1  0  0  0  0
 37 36  2  0  0  0  0
 38 40  1  0  0  0  0
 39 40  2  0  0  0  0
 40 35  1  0  0  0  0
 41 38  2  0  0  0  0
 43 42  1  0  0  0  0
 43 37  1  0  0  0  0
M  END
>  <MODEL>
6

>  <REMARK>
 VINA RESULT:      -8.9      1.563      2.937
  Name = 
  9 active torsions:
  status: ('A' for Active; 'I' for Inactive)
    1  A    between atoms: C_1  and  N_34
    2  A    between atoms: C_1  and  C_35
    3  A    between atoms: C_2  and  N_6
    4  A    between atoms: C_3  and  C_4
    5  A    between atoms: C_3  and  C_12
    6  A    between atoms: N_6  and  C_13
    7  A    between atoms: C_11  and  N_14
    8  A    between atoms: N_14  and  C_22
    9  A    between atoms: C_19  and  C_37
                            x       y       z     vdW  Elec       q    Type
                         _______ _______ _______ _____ _____    ______ ____

>  <TORSDO>
F 9

$$$$
=
 OpenBabel10262422383D

 43 48  0  0  1  0  0  0  0  0999 V2000
  189.3700  175.2290  136.2290 C   0  0  0  0  0  3  0  0  0  0  0  0
  189.7200  177.6940  141.1130 C   0  0  0  0  0  0  0  0  0  0  0  0
  187.0530  178.5870  141.5370 C   0  0  2  0  0  3  0  0  0  0  0  0
  190.6060  176.8140  138.6120 C   0  0  0  0  0  0  0  0  0  0  0  0
  188.5400  176.4640  136.3600 C   0  0  0  0  0  2  0  0  0  0  0  0
  190.6210  175.2140  136.6860 C   0  0  0  0  0  3  0  0  0  0  0  0
  189.2080  177.0000  138.8220 C   0  0  0  0  0  0  0  0  0  0  0  0
  191.2220  176.4420  137.2940 C   0  0  0  0  0  2  0  0  0  0  0  0
  188.1250  176.6440  137.8140 C   0  0  0  0  0  2  0  0  0  0  0  0
  187.3050  177.6140  140.3860 C   0  0  0  0  0  2  0  0  0  0  0  0
  188.7790  177.4510  140.0910 C   0  0  0  0  0  0  0  0  0  0  0  0
  191.0740  177.5040  140.8430 C   0  0  0  0  0  3  0  0  0  0  0  0
  189.2890  178.1740  142.4030 N   0  0  0  0  0  0  0  0  0  0  0  0
  187.8710  178.1640  142.7490 C   0  0  0  0  0  2  0  0  0  0  0  0
  191.4770  177.0810  139.6210 N   0  0  0  0  0  0  0  0  0  0  0  0
  185.6300  178.6540  141.8580 N   0  0  0  0  0  0  0  0  0  0  0  0
  184.6940  179.0030  140.8230 C   0  0  0  0  0  0  0  0  0  0  0  0
  185.1100  179.4480  139.7190 O   0  0  0  0  0  0  0  0  0  0  0  0
  185.1660  178.2480  143.1840 C   0  0  0  0  0  2  0  0  0  0  0  0
  184.8490  179.4700  144.0270 C   0  0  0  0  0  1  0  0  0  0  0  0
  183.2230  178.8050  141.0090 C   0  0  0  0  0  2  0  0  0  0  0  0
  182.5350  178.6400  139.6630 C   0  0  2  0  0  3  0  0  0  0  0  0
  180.3810  177.6460  139.0430 C   0  0  0  0  0  2  0  0  0  0  0  0
  181.5150  179.7380  139.4440 C   0  0  0  0  0  2  0  0  0  0  0  0
  181.7510  177.3290  139.6230 C   0  0  1  0  0  3  0  0  0  0  0  0
  180.4150  179.1020  138.6260 C   0  0  0  0  0  2  0  0  0  0  0  0
  182.4150  176.2760  138.8370 N   0  0  0  0  0  0  0  0  0  0  0  0
  181.4920  175.3280  138.5210 O   0  0  0  0  0  1  0  0  0  0  0  0
  182.9400  176.8490  137.5930 C   0  0  0  0  0  3  0  0  0  0  0  0
  184.2460  176.6270  134.9640 C   0  0  0  0  0  2  0  0  0  0  0  0
  184.9880  177.1790  136.1780 C   0  0  0  0  0  2  0  0  0  0  0  0
  182.7510  176.8990  135.0910 C   0  0  0  0  0  2  0  0  0  0  0  0
  184.4390  176.5560  137.4580 C   0  0  0  0  0  2  0  0  0  0  0  0
  182.2100  176.2730  136.3730 C   0  0  0  0  0  2  0  0  0  0  0  0
  190.2130  178.8560  143.3020 C   0  0  0  0  0  2  0  0  0  0  0  0
  190.2440  177.2100  146.7140 C   0  0  0  0  0  3  0  0  0  0  0  0
  191.3280  176.3360  146.5890 C   0  0  0  0  0  0  0  0  0  0  0  0
  191.6800  177.0970  144.3160 C   0  0  0  0  0  3  0  0  0  0  0  0
  189.8720  178.0220  145.6380 C   0  0  0  0  0  3  0  0  0  0  0  0
  190.5840  177.9600  144.4350 C   0  0  0  0  0  0  0  0  0  0  0  0
  192.0510  176.2860  145.3930 C   0  0  0  0  0  3  0  0  0  0  0  0
  193.1020  175.6220  147.9500 F   0  0  0  0  0  0  0  0  0  0  0  0
  191.7420  175.4930  147.7420 C   0  0  0  0  0  2  0  0  0  0  0  0
  1  5  1  0  0  0  0
  1  6  2  0  0  0  0
  2 13  1  0  0  0  0
  3 16  1  1  0  0  0
  3 14  1  0  0  0  0
  4  7  2  0  0  0  0
  4 15  1  0  0  0  0
  5  9  1  0  0  0  0
  6  8  1  0  0  0  0
  7 11  1  0  0  0  0
  8  4  1  0  0  0  0
  9  7  1  0  0  0  0
 10  3  1  0  0  0  0
 11 10  1  0  0  0  0
 11  2  2  0  0  0  0
 12  2  1  0  0  0  0
 13 14  1  0  0  0  0
 13 35  1  0  0  0  0
 15 12  2  0  0  0  0
 16 19  1  0  0  0  0
 17 21  1  0  0  0  0
 17 16  1  0  0  0  0
 18 17  2  0  0  0  0
 19 20  1  0  0  0  0
 22 21  1  1  0  0  0
 23 25  1  0  0  0  0
 24 22  1  0  0  0  0
 25 27  1  6  0  0  0
 25 22  1  0  0  0  0
 26 23  1  0  0  0  0
 26 24  1  0  0  0  0
 28 27  1  0  0  0  0
 29 27  1  0  0  0  0
 30 32  1  0  0  0  0
 30 31  1  0  0  0  0
 31 33  1  0  0  0  0
 32 34  1  0  0  0  0
 33 29  1  0  0  0  0
 34 29  1  0  0  0  0
 35 40  1  0  0  0  0
 37 36  1  0  0  0  0
 37 43  1  0  0  0  0
 38 40  2  0  0  0  0
 38 41  1  0  0  0  0
 39 36  2  0  0  0  0
 40 39  1  0  0  0  0
 41 37  2  0  0  0  0
 43 42  1  0  0  0  0
M  END
>  <MODEL>
7

>  <REMARK>
 VINA RESULT:      -8.8      2.812      6.681
  Name = 
  9 active torsions:
  status: ('A' for Active; 'I' for Inactive)
    1  A    between atoms: C_1  and  N_34
    2  A    between atoms: C_1  and  C_35
    3  A    between atoms: C_2  and  N_6
    4  A    between atoms: C_3  and  C_4
    5  A    between atoms: C_3  and  C_12
    6  A    between atoms: N_6  and  C_13
    7  A    between atoms: C_11  and  N_14
    8  A    between atoms: N_14  and  C_22
    9  A    between atoms: C_19  and  C_37
                            x       y       z     vdW  Elec       q    Type
                         _______ _______ _______ _____ _____    ______ ____

>  <TORSDO>
F 9

$$$$
=
 OpenBabel10262422383D

 43 48  0  0  1  0  0  0  0  0999 V2000
  189.5200  176.4140  147.7190 C   0  0  0  0  0  3  0  0  0  0  0  0
  186.6210  178.2360  143.4370 C   0  0  0  0  0  0  0  0  0  0  0  0
  188.5070  178.0780  141.3130 C   0  0  2  0  0  3  0  0  0  0  0  0
  187.3890  178.0310  146.1170 C   0  0  0  0  0  0  0  0  0  0  0  0
  190.2960  177.2530  146.7570 C   0  0  0  0  0  2  0  0  0  0  0  0
  188.2950  176.7830  148.0890 C   0  0  0  0  0  3  0  0  0  0  0  0
  188.3310  177.6880  145.1010 C   0  0  0  0  0  0  0  0  0  0  0  0
  187.7020  178.0610  147.5850 C   0  0  0  0  0  2  0  0  0  0  0  0
  189.7100  177.0990  145.3610 C   0  0  0  0  0  2  0  0  0  0  0  0
  188.8640  177.4020  142.6360 C   0  0  0  0  0  2  0  0  0  0  0  0
  187.9260  177.8030  143.7520 C   0  0  0  0  0  0  0  0  0  0  0  0
  185.7510  178.5670  144.4740 C   0  0  0  0  0  3  0  0  0  0  0  0
  186.2110  178.3740  142.0610 N   0  0  0  0  0  0  0  0  0  0  0  0
  187.0410  177.8260  140.9930 C   0  0  0  0  0  2  0  0  0  0  0  0
  186.1490  178.4630  145.7640 N   0  0  0  0  0  0  0  0  0  0  0  0
  189.3720  177.6030  140.2370 N   0  0  0  0  0  0  0  0  0  0  0  0
  189.1610  178.0950  138.9010 C   0  0  0  0  0  0  0  0  0  0  0  0
  188.1220  178.7540  138.6270 O   0  0  0  0  0  0  0  0  0  0  0  0
  190.5090  176.7380  140.5480 C   0  0  0  0  0  2  0  0  0  0  0  0
  191.7330  177.5750  140.8720 C   0  0  0  0  0  1  0  0  0  0  0  0
  190.1800  177.8780  137.8270 C   0  0  0  0  0  2  0  0  0  0  0  0
  189.6970  176.8220  136.8440 C   0  0  2  0  0  3  0  0  0  0  0  0
  187.8100  175.2600  136.9250 C   0  0  0  0  0  2  0  0  0  0  0  0
  188.5610  177.3570  135.9970 C   0  0  0  0  0  2  0  0  0  0  0  0
  189.1280  175.6190  137.5930 C   0  0  1  0  0  3  0  0  0  0  0  0
  187.6790  176.1630  135.7150 C   0  0  0  0  0  2  0  0  0  0  0  0
  190.0340  174.4580  137.6070 N   0  0  0  0  0  0  0  0  0  0  0  0
  189.3690  173.3860  137.0990 O   0  0  0  0  0  1  0  0  0  0  0  0
  191.1970  174.7330  136.7550 C   0  0  0  0  0  3  0  0  0  0  0  0
  193.8160  174.0310  135.6080 C   0  0  0  0  0  2  0  0  0  0  0  0
  193.6830  175.0790  136.7100 C   0  0  0  0  0  2  0  0  0  0  0  0
  192.5390  173.9790  134.7740 C   0  0  0  0  0  2  0  0  0  0  0  0
  192.4800  174.7640  137.5940 C   0  0  0  0  0  2  0  0  0  0  0  0
  191.3420  173.6630  135.6660 C   0  0  0  0  0  2  0  0  0  0  0  0
  185.0840  179.2230  141.6910 C   0  0  0  0  0  2  0  0  0  0  0  0
  183.6710  178.4960  138.2520 C   0  0  0  0  0  3  0  0  0  0  0  0
  182.7800  177.4560  138.5340 C   0  0  0  0  0  0  0  0  0  0  0  0
  183.3980  177.5610  140.8740 C   0  0  0  0  0  3  0  0  0  0  0  0
  184.4320  179.0630  139.2790 C   0  0  0  0  0  3  0  0  0  0  0  0
  184.3030  178.5900  140.5900 C   0  0  0  0  0  0  0  0  0  0  0  0
  182.6370  176.9950  139.8470 C   0  0  0  0  0  3  0  0  0  0  0  0
  182.7330  176.6520  136.3300 F   0  0  0  0  0  0  0  0  0  0  0  0
  181.9500  176.8720  137.4470 C   0  0  0  0  0  2  0  0  0  0  0  0
  1  6  2  0  0  0  0
  2 11  2  0  0  0  0
  2 12  1  0  0  0  0
  3 16  1  6  0  0  0
  3 10  1  0  0  0  0
  4  8  1  0  0  0  0
  5  1  1  0  0  0  0
  7  9  1  0  0  0  0
  7  4  2  0  0  0  0
  8  6  1  0  0  0  0
  9  5  1  0  0  0  0
 10 11  1  0  0  0  0
 11  7  1  0  0  0  0
 12 15  2  0  0  0  0
 13  2  1  0  0  0  0
 14  3  1  0  0  0  0
 14 13  1  0  0  0  0
 15  4  1  0  0  0  0
 16 19  1  0  0  0  0
 17 16  1  0  0  0  0
 18 17  2  0  0  0  0
 19 20  1  0  0  0  0
 21 17  1  0  0  0  0
 22 25  1  0  0  0  0
 22 21  1  1  0  0  0
 23 25  1  0  0  0  0
 24 22  1  0  0  0  0
 25 27  1  6  0  0  0
 26 24  1  0  0  0  0
 26 23  1  0  0  0  0
 28 27  1  0  0  0  0
 29 33  1  0  0  0  0
 29 27  1  0  0  0  0
 30 31  1  0  0  0  0
 31 33  1  0  0  0  0
 32 30  1  0  0  0  0
 32 34  1  0  0  0  0
 34 29  1  0  0  0  0
 35 13  1  0  0  0  0
 36 37  2  0  0  0  0
 36 39  1  0  0  0  0
 37 41  1  0  0  0  0
 39 40  2  0  0  0  0
 40 38  1  0  0  0  0
 40 35  1  0  0  0  0
 41 38  2  0  0  0  0
 42 43  1  0  0  0  0
 43 37  1  0  0  0  0
M  END
>  <MODEL>
8

>  <REMARK>
 VINA RESULT:      -8.7      2.824      7.260
  Name = 
  9 active torsions:
  status: ('A' for Active; 'I' for Inactive)
    1  A    between atoms: C_1  and  N_34
    2  A    between atoms: C_1  and  C_35
    3  A    between atoms: C_2  and  N_6
    4  A    between atoms: C_3  and  C_4
    5  A    between atoms: C_3  and  C_12
    6  A    between atoms: N_6  and  C_13
    7  A    between atoms: C_11  and  N_14
    8  A    between atoms: N_14  and  C_22
    9  A    between atoms: C_19  and  C_37
                            x       y       z     vdW  Elec       q    Type
                         _______ _______ _______ _____ _____    ______ ____

>  <TORSDO>
F 9

$$$$
=
 OpenBabel10262422383D

 43 48  0  0  1  0  0  0  0  0999 V2000
  180.7570  179.7630  139.8680 C   0  0  0  0  0  3  0  0  0  0  0  0
  184.1270  178.7560  144.0730 C   0  0  0  0  0  0  0  0  0  0  0  0
  186.4930  177.8780  142.7610 C   0  0  2  0  0  3  0  0  0  0  0  0
  181.6810  178.9600  142.7360 C   0  0  0  0  0  0  0  0  0  0  0  0
  181.6380  178.5710  139.6840 C   0  0  0  0  0  2  0  0  0  0  0  0
  180.1450  179.9680  141.0340 C   0  0  0  0  0  3  0  0  0  0  0  0
  182.8710  178.7660  141.9720 C   0  0  0  0  0  0  0  0  0  0  0  0
  180.2970  178.9860  142.1530 C   0  0  0  0  0  2  0  0  0  0  0  0
  182.9360  178.7760  140.4520 C   0  0  0  0  0  2  0  0  0  0  0  0
  185.3950  178.5090  141.9060 C   0  0  0  0  0  2  0  0  0  0  0  0
  184.0970  178.6600  142.6660 C   0  0  0  0  0  0  0  0  0  0  0  0
  182.9290  178.9330  144.7640 C   0  0  0  0  0  3  0  0  0  0  0  0
  185.3740  178.6270  144.7870 N   0  0  0  0  0  0  0  0  0  0  0  0
  186.6380  178.6590  144.0590 C   0  0  0  0  0  2  0  0  0  0  0  0
  181.7570  179.0250  144.0910 N   0  0  0  0  0  0  0  0  0  0  0  0
  187.7570  177.8290  142.0300 N   0  0  0  0  0  0  0  0  0  0  0  0
  187.7740  178.1890  140.6380 C   0  0  0  0  0  0  0  0  0  0  0  0
  186.6920  178.3370  140.0090 O   0  0  0  0  0  0  0  0  0  0  0  0
  188.9970  177.5380  142.7470 C   0  0  0  0  0  2  0  0  0  0  0  0
  189.2220  176.0390  142.8220 C   0  0  0  0  0  1  0  0  0  0  0  0
  189.0620  178.4400  139.9190 C   0  0  0  0  0  2  0  0  0  0  0  0
  189.3600  177.3040  138.9520 C   0  0  2  0  0  3  0  0  0  0  0  0
  191.0350  177.0720  137.1760 C   0  0  0  0  0  2  0  0  0  0  0  0
  190.5160  176.4620  139.4520 C   0  0  0  0  0  2  0  0  0  0  0  0
  189.8060  177.8600  137.6000 C   0  0  1  0  0  3  0  0  0  0  0  0
  191.2240  175.9790  138.2090 C   0  0  0  0  0  2  0  0  0  0  0  0
  188.7610  177.7850  136.5660 N   0  0  0  0  0  0  0  0  0  0  0  0
  189.3070  177.2520  135.4400 O   0  0  0  0  0  1  0  0  0  0  0  0
  187.6800  176.9040  137.0220 C   0  0  0  0  0  3  0  0  0  0  0  0
  185.2890  175.2500  136.5600 C   0  0  0  0  0  2  0  0  0  0  0  0
  185.1920  176.6230  137.2180 C   0  0  0  0  0  2  0  0  0  0  0  0
  186.6500  174.6220  136.8450 C   0  0  0  0  0  2  0  0  0  0  0  0
  186.3130  177.5280  136.7150 C   0  0  0  0  0  2  0  0  0  0  0  0
  187.7650  175.5340  136.3390 C   0  0  0  0  0  2  0  0  0  0  0  0
  185.4010  178.2670  146.2000 C   0  0  0  0  0  2  0  0  0  0  0  0
  188.6840  178.3300  148.0900 C   0  0  0  0  0  3  0  0  0  0  0  0
  189.4360  177.3980  147.3670 C   0  0  0  0  0  0  0  0  0  0  0  0
  187.5540  177.0250  145.8890 C   0  0  0  0  0  3  0  0  0  0  0  0
  187.3640  178.6030  147.7170 C   0  0  0  0  0  3  0  0  0  0  0  0
  186.7950  177.9440  146.6220 C   0  0  0  0  0  0  0  0  0  0  0  0
  188.8730  176.7530  146.2610 C   0  0  0  0  0  3  0  0  0  0  0  0
  191.6110  176.9530  146.6070 F   0  0  0  0  0  0  0  0  0  0  0  0
  190.8490  177.1280  147.7460 C   0  0  0  0  0  2  0  0  0  0  0  0
  1  6  2  0  0  0  0
  2 12  1  0  0  0  0
  2 13  1  0  0  0  0
  3 16  1  6  0  0  0
  3 14  1  0  0  0  0
  4 15  1  0  0  0  0
  5  1  1  0  0  0  0
  5  9  1  0  0  0  0
  6  8  1  0  0  0  0
  7 11  1  0  0  0  0
  7  4  2  0  0  0  0
  8  4  1  0  0  0  0
  9  7  1  0  0  0  0
 10 11  1  0  0  0  0
 10  3  1  0  0  0  0
 11  2  2  0  0  0  0
 13 35  1  0  0  0  0
 14 13  1  0  0  0  0
 15 12  2  0  0  0  0
 16 19  1  0  0  0  0
 17 16  1  0  0  0  0
 18 17  2  0  0  0  0
 19 20  1  0  0  0  0
 21 17  1  0  0  0  0
 22 24  1  0  0  0  0
 22 21  1  1  0  0  0
 23 25  1  0  0  0  0
 23 26  1  0  0  0  0
 25 27  1  6  0  0  0
 25 22  1  0  0  0  0
 26 24  1  0  0  0  0
 27 29  1  0  0  0  0
 28 27  1  0  0  0  0
 30 32  1  0  0  0  0
 30 31  1  0  0  0  0
 33 29  1  0  0  0  0
 33 31  1  0  0  0  0
 34 32  1  0  0  0  0
 34 29  1  0  0  0  0
 35 40  1  0  0  0  0
 37 43  1  0  0  0  0
 37 36  2  0  0  0  0
 38 41  2  0  0  0  0
 38 40  1  0  0  0  0
 39 36  1  0  0  0  0
 40 39  2  0  0  0  0
 41 37  1  0  0  0  0
 42 43  1  0  0  0  0
M  END
>  <MODEL>
9

>  <REMARK>
 VINA RESULT:      -8.7      2.753      8.270
  Name = 
  9 active torsions:
  status: ('A' for Active; 'I' for Inactive)
    1  A    between atoms: C_1  and  N_34
    2  A    between atoms: C_1  and  C_35
    3  A    between atoms: C_2  and  N_6
    4  A    between atoms: C_3  and  C_4
    5  A    between atoms: C_3  and  C_12
    6  A    between atoms: N_6  and  C_13
    7  A    between atoms: C_11  and  N_14
    8  A    between atoms: N_14  and  C_22
    9  A    between atoms: C_19  and  C_37
                            x       y       z     vdW  Elec       q    Type
                         _______ _______ _______ _____ _____    ______ ____

>  <TORSDO>
F 9

$$$$
