=
 OpenBabel10262420533D

 28 32  0  0  1  0  0  0  0  0999 V2000
  190.8250  176.6030  144.4620 C   0  0  1  0  0  3  0  0  0  0  0  0
  185.6930  177.4530  143.5080 C   0  0  0  0  0  3  0  0  0  0  0  0
  188.9050  178.2180  148.6490 O   0  0  0  0  0  0  0  0  0  0  0  0
  185.2220  178.9390  145.3640 C   0  0  0  0  0  0  0  0  0  0  0  0
  187.2280  177.3840  145.5100 C   0  0  1  0  0  3  0  0  0  0  0  0
  183.8320  178.9960  143.3810 C   0  0  0  0  0  0  0  0  0  0  0  0
  186.0250  177.9410  144.7810 C   0  0  0  0  0  0  0  0  0  0  0  0
  186.3720  178.6340  147.5570 C   0  0  0  0  0  2  0  0  0  0  0  0
  184.1400  179.4740  144.6570 C   0  0  0  0  0  3  0  0  0  0  0  0
  189.8270  177.2070  146.7070 C   0  0  0  0  0  0  0  0  0  0  0  0
  188.4680  177.4700  144.6080 C   0  0  0  0  0  2  0  0  0  0  0  0
  185.5000  179.4000  146.6840 N   0  0  0  0  0  2  0  0  0  0  0  0
  191.9660  176.0470  146.5960 C   0  0  0  0  0  3  0  0  0  0  0  0
  188.7390  177.8570  147.4510 C   0  0  0  0  0  0  0  0  0  0  0  0
  190.9170  176.7600  147.3370 C   0  0  0  0  0  3  0  0  0  0  0  0
  182.7570  179.5280  142.6820 O   0  0  0  0  0  1  0  0  0  0  0  0
  184.6020  177.9800  142.8100 C   0  0  0  0  0  3  0  0  0  0  0  0
  187.4820  178.0720  146.7910 N   0  0  0  0  0  0  0  0  0  0  0  0
  191.9150  175.9400  145.2670 C   0  0  0  0  0  3  0  0  0  0  0  0
  189.6710  176.9910  145.2900 N   0  0  0  0  0  0  0  0  0  0  0  0
  191.3760  177.7950  143.6640 C   0  0  0  0  0  2  0  0  0  0  0  0
  191.2380  177.6310  142.1820 C   0  0  0  0  0  0  0  0  0  0  0  0
  190.9870  177.2740  139.4170 C   0  0  0  0  0  0  0  0  0  0  0  0
  189.9690  177.5250  141.6010 C   0  0  0  0  0  3  0  0  0  0  0  0
  192.3810  177.5600  141.3770 C   0  0  0  0  0  3  0  0  0  0  0  0
  192.2550  177.3820  139.9960 C   0  0  0  0  0  3  0  0  0  0  0  0
  190.8640  177.1000  138.0800 F   0  0  0  0  0  0  0  0  0  0  0  0
  189.8440  177.3470  140.2200 C   0  0  0  0  0  3  0  0  0  0  0  0
  1 21  1  1  0  0  0
  1 19  1  0  0  0  0
  1 20  1  0  0  0  0
  2  7  1  0  0  0  0
  4 12  1  0  0  0  0
  5 11  1  6  0  0  0
  5 18  1  0  0  0  0
  6  9  2  0  0  0  0
  7  4  2  0  0  0  0
  7  5  1  0  0  0  0
  9  4  1  0  0  0  0
 10 15  2  0  0  0  0
 10 14  1  0  0  0  0
 11 20  1  0  0  0  0
 12  8  1  0  0  0  0
 13 15  1  0  0  0  0
 14  3  2  0  0  0  0
 16  6  1  0  0  0  0
 17  6  1  0  0  0  0
 17  2  2  0  0  0  0
 18 14  1  0  0  0  0
 18  8  1  0  0  0  0
 19 13  2  0  0  0  0
 20 10  1  0  0  0  0
 22 21  1  0  0  0  0
 23 26  2  0  0  0  0
 23 28  1  0  0  0  0
 24 22  1  0  0  0  0
 25 22  2  0  0  0  0
 26 25  1  0  0  0  0
 27 23  1  0  0  0  0
 28 24  2  0  0  0  0
M  END
>  <MODEL>
1

>  <REMARK>
 VINA RESULT:     -10.2      0.000      0.000
  Name = 
  2 active torsions:
  status: ('A' for Active; 'I' for Inactive)
    1  A    between atoms: C_1  and  C_2
    2  A    between atoms: C_2  and  C_3
                            x       y       z     vdW  Elec       q    Type
                         _______ _______ _______ _____ _____    ______ ____

>  <TORSDO>
F 2

$$$$
=
 OpenBabel10262420533D

 28 32  0  0  1  0  0  0  0  0999 V2000
  190.5090  176.5880  143.7450 C   0  0  1  0  0  3  0  0  0  0  0  0
  185.3250  177.5860  143.4210 C   0  0  0  0  0  3  0  0  0  0  0  0
  189.1340  178.1280  148.1680 O   0  0  0  0  0  0  0  0  0  0  0  0
  185.1140  179.0290  145.3560 C   0  0  0  0  0  0  0  0  0  0  0  0
  187.0820  177.4240  145.2260 C   0  0  1  0  0  3  0  0  0  0  0  0
  183.5050  179.1760  143.5520 C   0  0  0  0  0  0  0  0  0  0  0  0
  185.8170  178.0300  144.6580 C   0  0  0  0  0  0  0  0  0  0  0  0
  186.5030  178.6340  147.3910 C   0  0  0  0  0  2  0  0  0  0  0  0
  183.9730  179.6090  144.7950 C   0  0  0  0  0  3  0  0  0  0  0  0
  189.7960  177.1510  146.1060 C   0  0  0  0  0  0  0  0  0  0  0  0
  188.2090  177.5060  144.1880 C   0  0  0  0  0  2  0  0  0  0  0  0
  185.5560  179.4450  146.6460 N   0  0  0  0  0  2  0  0  0  0  0  0
  191.8760  175.9440  145.7150 C   0  0  0  0  0  3  0  0  0  0  0  0
  188.8200  177.8050  146.9890 C   0  0  0  0  0  0  0  0  0  0  0  0
  190.9400  176.6600  146.5920 C   0  0  0  0  0  3  0  0  0  0  0  0
  182.3700  179.7530  142.9990 O   0  0  0  0  0  1  0  0  0  0  0  0
  184.1760  178.1580  142.8690 C   0  0  0  0  0  3  0  0  0  0  0  0
  187.5010  178.0690  146.4860 N   0  0  0  0  0  0  0  0  0  0  0  0
  191.6670  175.8770  144.3990 C   0  0  0  0  0  3  0  0  0  0  0  0
  189.4710  176.9790  144.7120 N   0  0  0  0  0  0  0  0  0  0  0  0
  190.9950  177.7880  142.9180 C   0  0  0  0  0  2  0  0  0  0  0  0
  190.9470  177.5500  141.4400 C   0  0  0  0  0  0  0  0  0  0  0  0
  190.8570  177.1550  138.6710 C   0  0  0  0  0  0  0  0  0  0  0  0
  192.1320  177.3640  140.7200 C   0  0  0  0  0  3  0  0  0  0  0  0
  189.7170  177.5360  140.7740 C   0  0  0  0  0  3  0  0  0  0  0  0
  189.6720  177.3390  139.3900 C   0  0  0  0  0  3  0  0  0  0  0  0
  190.8130  176.9650  137.3310 F   0  0  0  0  0  0  0  0  0  0  0  0
  192.0870  177.1660  139.3360 C   0  0  0  0  0  3  0  0  0  0  0  0
  1 21  1  1  0  0  0
  1 19  1  0  0  0  0
  1 20  1  0  0  0  0
  2  7  1  0  0  0  0
  4 12  1  0  0  0  0
  5 11  1  6  0  0  0
  5 18  1  0  0  0  0
  6  9  2  0  0  0  0
  7  5  1  0  0  0  0
  7  4  2  0  0  0  0
  9  4  1  0  0  0  0
 10 15  2  0  0  0  0
 10 14  1  0  0  0  0
 11 20  1  0  0  0  0
 12  8  1  0  0  0  0
 13 15  1  0  0  0  0
 14  3  2  0  0  0  0
 16  6  1  0  0  0  0
 17  2  2  0  0  0  0
 17  6  1  0  0  0  0
 18 14  1  0  0  0  0
 18  8  1  0  0  0  0
 19 13  2  0  0  0  0
 20 10  1  0  0  0  0
 22 21  1  0  0  0  0
 23 28  2  0  0  0  0
 23 26  1  0  0  0  0
 24 22  2  0  0  0  0
 25 22  1  0  0  0  0
 26 25  2  0  0  0  0
 27 23  1  0  0  0  0
 28 24  1  0  0  0  0
M  END
>  <MODEL>
2

>  <REMARK>
 VINA RESULT:      -9.8      0.585      1.100
  Name = 
  2 active torsions:
  status: ('A' for Active; 'I' for Inactive)
    1  A    between atoms: C_1  and  C_2
    2  A    between atoms: C_2  and  C_3
                            x       y       z     vdW  Elec       q    Type
                         _______ _______ _______ _____ _____    ______ ____

>  <TORSDO>
F 2

$$$$
=
 OpenBabel10262420533D

 28 32  0  0  1  0  0  0  0  0999 V2000
  189.4870  178.0420  142.9250 C   0  0  1  0  0  3  0  0  0  0  0  0
  185.9460  178.5460  139.0290 C   0  0  0  0  0  3  0  0  0  0  0  0
  191.6430  176.3420  138.8890 O   0  0  0  0  0  0  0  0  0  0  0  0
  186.9040  176.9640  137.4640 C   0  0  0  0  0  0  0  0  0  0  0  0
  188.3940  177.9750  139.2580 C   0  0  1  0  0  3  0  0  0  0  0  0
  184.5470  177.5100  137.3480 C   0  0  0  0  0  0  0  0  0  0  0  0
  187.0560  177.8200  138.5700 C   0  0  0  0  0  0  0  0  0  0  0  0
  189.3780  176.6830  137.2970 C   0  0  0  0  0  2  0  0  0  0  0  0
  185.6500  176.7990  136.8680 C   0  0  0  0  0  3  0  0  0  0  0  0
  190.7220  177.3760  140.8190 C   0  0  0  0  0  0  0  0  0  0  0  0
  188.2340  177.7320  140.7660 C   0  0  0  0  0  2  0  0  0  0  0  0
  188.0320  176.2700  136.9370 N   0  0  0  0  0  2  0  0  0  0  0  0
  191.9670  178.0120  142.8140 C   0  0  0  0  0  3  0  0  0  0  0  0
  190.6480  176.8970  139.4320 C   0  0  0  0  0  0  0  0  0  0  0  0
  191.8950  177.4650  141.4520 C   0  0  0  0  0  3  0  0  0  0  0  0
  183.3040  177.3450  136.7530 O   0  0  0  0  0  1  0  0  0  0  0  0
  184.6970  178.3900  138.4220 C   0  0  0  0  0  3  0  0  0  0  0  0
  189.4230  177.0740  138.7040 N   0  0  0  0  0  0  0  0  0  0  0  0
  190.8580  178.3140  143.4920 C   0  0  0  0  0  3  0  0  0  0  0  0
  189.5140  177.8190  141.4700 N   0  0  0  0  0  0  0  0  0  0  0  0
  188.8060  176.8790  143.6640 C   0  0  0  0  0  2  0  0  0  0  0  0
  187.7790  177.3280  144.6560 C   0  0  0  0  0  0  0  0  0  0  0  0
  185.8770  178.2130  146.5090 C   0  0  0  0  0  0  0  0  0  0  0  0
  186.5070  177.7190  144.2230 C   0  0  0  0  0  3  0  0  0  0  0  0
  188.0970  177.3780  146.0180 C   0  0  0  0  0  3  0  0  0  0  0  0
  187.1470  177.8200  146.9440 C   0  0  0  0  0  3  0  0  0  0  0  0
  184.9570  178.6430  147.4060 F   0  0  0  0  0  0  0  0  0  0  0  0
  185.5570  178.1620  145.1490 C   0  0  0  0  0  3  0  0  0  0  0  0
  1 19  1  0  0  0  0
  1 21  1  1  0  0  0
  3 14  2  0  0  0  0
  4  7  2  0  0  0  0
  5 11  1  1  0  0  0
  6 17  1  0  0  0  0
  7  2  1  0  0  0  0
  7  5  1  0  0  0  0
  8 18  1  0  0  0  0
  9  6  2  0  0  0  0
  9  4  1  0  0  0  0
 10 15  2  0  0  0  0
 10 20  1  0  0  0  0
 11 20  1  0  0  0  0
 12  8  1  0  0  0  0
 12  4  1  0  0  0  0
 13 19  2  0  0  0  0
 14 10  1  0  0  0  0
 15 13  1  0  0  0  0
 16  6  1  0  0  0  0
 17  2  2  0  0  0  0
 18  5  1  0  0  0  0
 18 14  1  0  0  0  0
 20  1  1  0  0  0  0
 21 22  1  0  0  0  0
 22 25  1  0  0  0  0
 23 26  1  0  0  0  0
 23 27  1  0  0  0  0
 24 22  2  0  0  0  0
 24 28  1  0  0  0  0
 25 26  2  0  0  0  0
 28 23  2  0  0  0  0
M  END
>  <MODEL>
3

>  <REMARK>
 VINA RESULT:      -9.5      4.425      6.955
  Name = 
  2 active torsions:
  status: ('A' for Active; 'I' for Inactive)
    1  A    between atoms: C_1  and  C_2
    2  A    between atoms: C_2  and  C_3
                            x       y       z     vdW  Elec       q    Type
                         _______ _______ _______ _____ _____    ______ ____

>  <TORSDO>
F 2

$$$$
=
 OpenBabel10262420533D

 28 32  0  0  1  0  0  0  0  0999 V2000
  189.2350  178.1790  143.0800 C   0  0  1  0  0  3  0  0  0  0  0  0
  185.8080  178.6280  139.0770 C   0  0  0  0  0  3  0  0  0  0  0  0
  191.4570  176.3010  139.1600 O   0  0  0  0  0  0  0  0  0  0  0  0
  186.7710  176.9740  137.5900 C   0  0  0  0  0  0  0  0  0  0  0  0
  188.2360  178.0130  139.3900 C   0  0  1  0  0  3  0  0  0  0  0  0
  184.4310  177.5660  137.3940 C   0  0  0  0  0  0  0  0  0  0  0  0
  186.9130  177.8640  138.6720 C   0  0  0  0  0  0  0  0  0  0  0  0
  189.2410  176.6360  137.4990 C   0  0  0  0  0  2  0  0  0  0  0  0
  185.5290  176.8160  136.9670 C   0  0  0  0  0  3  0  0  0  0  0  0
  190.5090  177.4170  141.0310 C   0  0  0  0  0  0  0  0  0  0  0  0
  188.0310  177.8250  140.8990 C   0  0  0  0  0  2  0  0  0  0  0  0
  187.8970  176.2400  137.1160 N   0  0  0  0  0  2  0  0  0  0  0  0
  191.7160  178.0940  143.0360 C   0  0  0  0  0  3  0  0  0  0  0  0
  190.4600  176.8950  139.6580 C   0  0  0  0  0  0  0  0  0  0  0  0
  191.6670  177.5030  141.6920 C   0  0  0  0  0  3  0  0  0  0  0  0
  183.1990  177.4080  136.7720 O   0  0  0  0  0  1  0  0  0  0  0  0
  184.5710  178.4780  138.4420 C   0  0  0  0  0  3  0  0  0  0  0  0
  189.2580  177.0730  138.8930 N   0  0  0  0  0  0  0  0  0  0  0  0
  190.5960  178.4410  143.6740 C   0  0  0  0  0  3  0  0  0  0  0  0
  189.2950  177.9080  141.6340 N   0  0  0  0  0  0  0  0  0  0  0  0
  188.5100  177.0570  143.8380 C   0  0  0  0  0  2  0  0  0  0  0  0
  188.3480  177.3370  145.3000 C   0  0  0  0  0  0  0  0  0  0  0  0
  188.0670  177.9070  148.0260 C   0  0  0  0  0  0  0  0  0  0  0  0
  187.1510  177.8780  145.7840 C   0  0  0  0  0  3  0  0  0  0  0  0
  189.4020  177.0790  146.1830 C   0  0  0  0  0  3  0  0  0  0  0  0
  189.2620  177.3640  147.5450 C   0  0  0  0  0  3  0  0  0  0  0  0
  187.9300  178.1830  149.3450 F   0  0  0  0  0  0  0  0  0  0  0  0
  187.0100  178.1630  147.1450 C   0  0  0  0  0  3  0  0  0  0  0  0
  1 19  1  0  0  0  0
  1 21  1  1  0  0  0
  3 14  2  0  0  0  0
  4  7  2  0  0  0  0
  5 11  1  1  0  0  0
  6 17  1  0  0  0  0
  7  2  1  0  0  0  0
  7  5  1  0  0  0  0
  8 18  1  0  0  0  0
  9  6  2  0  0  0  0
  9  4  1  0  0  0  0
 10 20  1  0  0  0  0
 10 15  2  0  0  0  0
 11 20  1  0  0  0  0
 12  8  1  0  0  0  0
 12  4  1  0  0  0  0
 13 19  2  0  0  0  0
 14 10  1  0  0  0  0
 15 13  1  0  0  0  0
 16  6  1  0  0  0  0
 17  2  2  0  0  0  0
 18  5  1  0  0  0  0
 18 14  1  0  0  0  0
 20  1  1  0  0  0  0
 21 22  1  0  0  0  0
 22 24  2  0  0  0  0
 22 25  1  0  0  0  0
 23 27  1  0  0  0  0
 24 28  1  0  0  0  0
 25 26  2  0  0  0  0
 26 23  1  0  0  0  0
 28 23  2  0  0  0  0
M  END
>  <MODEL>
4

>  <REMARK>
 VINA RESULT:      -9.4      4.424      6.912
  Name = 
  2 active torsions:
  status: ('A' for Active; 'I' for Inactive)
    1  A    between atoms: C_1  and  C_2
    2  A    between atoms: C_2  and  C_3
                            x       y       z     vdW  Elec       q    Type
                         _______ _______ _______ _____ _____    ______ ____

>  <TORSDO>
F 2

$$$$
=
 OpenBabel10262420533D

 28 32  0  0  1  0  0  0  0  0999 V2000
  187.2260  178.5430  146.4220 C   0  0  1  0  0  3  0  0  0  0  0  0
  188.8450  178.7040  141.3900 C   0  0  0  0  0  3  0  0  0  0  0  0
  191.4050  176.0280  146.2500 O   0  0  0  0  0  0  0  0  0  0  0  0
  190.3570  176.8110  141.4370 C   0  0  0  0  0  0  0  0  0  0  0  0
  189.7690  177.9710  143.6220 C   0  0  1  0  0  3  0  0  0  0  0  0
  189.3780  177.5310  139.3420 C   0  0  0  0  0  0  0  0  0  0  0  0
  189.6550  177.8210  142.1210 C   0  0  0  0  0  0  0  0  0  0  0  0
  191.6830  176.2960  143.4870 C   0  0  0  0  0  2  0  0  0  0  0  0
  190.2040  176.6590  140.0560 C   0  0  0  0  0  3  0  0  0  0  0  0
  189.5020  177.4380  146.4250 C   0  0  0  0  0  0  0  0  0  0  0  0
  188.3690  177.9930  144.2500 C   0  0  0  0  0  2  0  0  0  0  0  0
  191.2390  175.9470  142.1490 N   0  0  0  0  0  2  0  0  0  0  0  0
  188.5530  178.2830  148.5040 C   0  0  0  0  0  3  0  0  0  0  0  0
  190.5510  176.7470  145.6620 C   0  0  0  0  0  0  0  0  0  0  0  0
  189.5690  177.5290  147.7570 C   0  0  0  0  0  3  0  0  0  0  0  0
  189.2300  177.3780  137.9700 O   0  0  0  0  0  1  0  0  0  0  0  0
  188.7060  178.5590  140.0070 C   0  0  0  0  0  3  0  0  0  0  0  0
  190.5870  176.9070  144.2360 N   0  0  0  0  0  0  0  0  0  0  0  0
  187.4810  178.7860  147.8890 C   0  0  0  0  0  3  0  0  0  0  0  0
  188.4290  178.0840  145.7100 N   0  0  0  0  0  0  0  0  0  0  0  0
  186.0450  177.5800  146.2210 C   0  0  0  0  0  2  0  0  0  0  0  0
  185.0570  178.0570  145.2030 C   0  0  0  0  0  0  0  0  0  0  0  0
  183.1900  178.9030  143.2970 C   0  0  0  0  0  0  0  0  0  0  0  0
  183.8400  178.6150  145.6120 C   0  0  0  0  0  3  0  0  0  0  0  0
  185.3390  177.9260  143.8390 C   0  0  0  0  0  3  0  0  0  0  0  0
  184.4060  178.3480  142.8860 C   0  0  0  0  0  3  0  0  0  0  0  0
  182.2860  179.3110  142.3750 F   0  0  0  0  0  0  0  0  0  0  0  0
  182.9070  179.0370  144.6600 C   0  0  0  0  0  3  0  0  0  0  0  0
  1 21  1  1  0  0  0
  1 19  1  0  0  0  0
  2  7  1  0  0  0  0
  4  7  2  0  0  0  0
  4 12  1  0  0  0  0
  5 18  1  0  0  0  0
  5 11  1  1  0  0  0
  6 17  1  0  0  0  0
  6  9  2  0  0  0  0
  7  5  1  0  0  0  0
  8 18  1  0  0  0  0
  9  4  1  0  0  0  0
 10 15  2  0  0  0  0
 11 20  1  0  0  0  0
 12  8  1  0  0  0  0
 14  3  2  0  0  0  0
 14 10  1  0  0  0  0
 15 13  1  0  0  0  0
 16  6  1  0  0  0  0
 17  2  2  0  0  0  0
 18 14  1  0  0  0  0
 19 13  2  0  0  0  0
 20  1  1  0  0  0  0
 20 10  1  0  0  0  0
 22 24  1  0  0  0  0
 22 21  1  0  0  0  0
 23 28  1  0  0  0  0
 25 22  2  0  0  0  0
 26 23  2  0  0  0  0
 26 25  1  0  0  0  0
 27 23  1  0  0  0  0
 28 24  2  0  0  0  0
M  END
>  <MODEL>
5

>  <REMARK>
 VINA RESULT:      -9.1      2.889      6.127
  Name = 
  2 active torsions:
  status: ('A' for Active; 'I' for Inactive)
    1  A    between atoms: C_1  and  C_2
    2  A    between atoms: C_2  and  C_3
                            x       y       z     vdW  Elec       q    Type
                         _______ _______ _______ _____ _____    ______ ____

>  <TORSDO>
F 2

$$$$
=
 OpenBabel10262420533D

 28 32  0  0  1  0  0  0  0  0999 V2000
  184.9340  179.0680  142.9170 C   0  0  1  0  0  3  0  0  0  0  0  0
  188.8990  178.5830  139.4500 C   0  0  0  0  0  3  0  0  0  0  0  0
  188.5090  176.7010  145.2510 O   0  0  0  0  0  0  0  0  0  0  0  0
  190.0950  176.7690  140.5220 C   0  0  0  0  0  0  0  0  0  0  0  0
  188.5240  178.2010  141.9170 C   0  0  1  0  0  3  0  0  0  0  0  0
  190.3520  177.1550  138.1450 C   0  0  0  0  0  0  0  0  0  0  0  0
  189.1850  177.8390  140.6050 C   0  0  0  0  0  0  0  0  0  0  0  0
  190.1670  176.5910  143.0100 C   0  0  0  0  0  2  0  0  0  0  0  0
  190.6620  176.4210  139.2920 C   0  0  0  0  0  3  0  0  0  0  0  0
  186.8420  178.0540  144.2330 C   0  0  0  0  0  0  0  0  0  0  0  0
  187.0020  178.2610  141.7330 C   0  0  0  0  0  2  0  0  0  0  0  0
  190.4550  176.0440  141.6950 N   0  0  0  0  0  2  0  0  0  0  0  0
  185.0020  179.1470  145.3970 C   0  0  0  0  0  3  0  0  0  0  0  0
  188.1040  177.3010  144.2160 C   0  0  0  0  0  0  0  0  0  0  0  0
  186.2250  178.3320  145.3850 C   0  0  0  0  0  3  0  0  0  0  0  0
  190.9180  176.8080  136.9260 O   0  0  0  0  0  1  0  0  0  0  0  0
  189.4780  178.2420  138.2250 C   0  0  0  0  0  3  0  0  0  0  0  0
  188.8690  177.2620  143.0020 N   0  0  0  0  0  0  0  0  0  0  0  0
  184.4160  179.5210  144.2590 C   0  0  0  0  0  3  0  0  0  0  0  0
  186.3120  178.5560  142.9900 N   0  0  0  0  0  0  0  0  0  0  0  0
  183.9830  178.0450  142.2760 C   0  0  0  0  0  2  0  0  0  0  0  0
  183.2130  178.5960  141.1160 C   0  0  0  0  0  0  0  0  0  0  0  0
  181.7740  179.6720  138.9700 C   0  0  0  0  0  0  0  0  0  0  0  0
  183.8890  179.0720  139.9870 C   0  0  0  0  0  3  0  0  0  0  0  0
  181.8160  178.6570  141.1680 C   0  0  0  0  0  3  0  0  0  0  0  0
  181.0970  179.1950  140.0960 C   0  0  0  0  0  3  0  0  0  0  0  0
  181.0780  180.1940  137.9320 F   0  0  0  0  0  0  0  0  0  0  0  0
  183.1700  179.6100  138.9150 C   0  0  0  0  0  3  0  0  0  0  0  0
  1 21  1  1  0  0  0
  1 20  1  0  0  0  0
  1 19  1  0  0  0  0
  2  7  1  0  0  0  0
  4  7  2  0  0  0  0
  4 12  1  0  0  0  0
  5 11  1  6  0  0  0
  5 18  1  0  0  0  0
  6 17  1  0  0  0  0
  6  9  2  0  0  0  0
  7  5  1  0  0  0  0
  9  4  1  0  0  0  0
 10 15  2  0  0  0  0
 11 20  1  0  0  0  0
 12  8  1  0  0  0  0
 14 10  1  0  0  0  0
 14  3  2  0  0  0  0
 15 13  1  0  0  0  0
 16  6  1  0  0  0  0
 17  2  2  0  0  0  0
 18  8  1  0  0  0  0
 18 14  1  0  0  0  0
 19 13  2  0  0  0  0
 20 10  1  0  0  0  0
 22 25  1  0  0  0  0
 22 21  1  0  0  0  0
 23 26  1  0  0  0  0
 24 22  2  0  0  0  0
 26 25  2  0  0  0  0
 27 23  1  0  0  0  0
 28 23  2  0  0  0  0
 28 24  1  0  0  0  0
M  END
>  <MODEL>
6

>  <REMARK>
 VINA RESULT:      -9.0      3.659      7.248
  Name = 
  2 active torsions:
  status: ('A' for Active; 'I' for Inactive)
    1  A    between atoms: C_1  and  C_2
    2  A    between atoms: C_2  and  C_3
                            x       y       z     vdW  Elec       q    Type
                         _______ _______ _______ _____ _____    ______ ____

>  <TORSDO>
F 2

$$$$
=
 OpenBabel10262420533D

 28 32  0  0  1  0  0  0  0  0999 V2000
  189.7000  177.8010  141.6880 C   0  0  1  0  0  3  0  0  0  0  0  0
  184.9310  179.5320  143.1790 C   0  0  0  0  0  3  0  0  0  0  0  0
  186.8440  177.5060  137.7410 O   0  0  0  0  0  0  0  0  0  0  0  0
  183.6160  178.5450  141.3990 C   0  0  0  0  0  0  0  0  0  0  0  0
  186.1020  178.9230  141.0280 C   0  0  1  0  0  3  0  0  0  0  0  0
  182.5750  179.0930  143.5160 C   0  0  0  0  0  0  0  0  0  0  0  0
  184.8570  178.9970  141.8840 C   0  0  0  0  0  0  0  0  0  0  0  0
  184.5510  178.3390  139.0950 C   0  0  0  0  0  2  0  0  0  0  0  0
  182.4850  178.5790  142.2200 C   0  0  0  0  0  3  0  0  0  0  0  0
  188.3250  177.8560  139.5650 C   0  0  0  0  0  0  0  0  0  0  0  0
  187.2200  178.2050  141.7970 C   0  0  0  0  0  2  0  0  0  0  0  0
  183.5030  178.0620  140.0630 N   0  0  0  0  0  2  0  0  0  0  0  0
  190.7570  177.8150  139.4410 C   0  0  0  0  0  3  0  0  0  0  0  0
  186.9920  177.8530  138.9460 C   0  0  0  0  0  0  0  0  0  0  0  0
  189.4280  177.7380  138.8210 C   0  0  0  0  0  3  0  0  0  0  0  0
  181.4490  179.1270  144.3280 O   0  0  0  0  0  1  0  0  0  0  0  0
  183.7950  179.5780  143.9920 C   0  0  0  0  0  3  0  0  0  0  0  0
  185.8610  178.2530  139.7350 N   0  0  0  0  0  0  0  0  0  0  0  0
  190.8930  177.8780  140.7670 C   0  0  0  0  0  3  0  0  0  0  0  0
  188.4320  178.0620  140.9880 N   0  0  0  0  0  0  0  0  0  0  0  0
  189.6700  176.4600  142.4380 C   0  0  0  0  0  2  0  0  0  0  0  0
  190.0520  176.5780  143.8810 C   0  0  0  0  0  0  0  0  0  0  0  0
  190.7460  176.7530  146.5860 C   0  0  0  0  0  0  0  0  0  0  0  0
  191.3330  176.2050  144.3010 C   0  0  0  0  0  3  0  0  0  0  0  0
  189.1190  177.0410  144.8160 C   0  0  0  0  0  3  0  0  0  0  0  0
  189.4660  177.1280  146.1680 C   0  0  0  0  0  3  0  0  0  0  0  0
  191.0820  176.8360  147.8960 F   0  0  0  0  0  0  0  0  0  0  0  0
  191.6800  176.2920  145.6530 C   0  0  0  0  0  3  0  0  0  0  0  0
  1 21  1  6  0  0  0
  2 17  1  0  0  0  0
  3 14  2  0  0  0  0
  4  7  1  0  0  0  0
  4  9  2  0  0  0  0
  5 11  1  1  0  0  0
  5  7  1  0  0  0  0
  6 17  2  0  0  0  0
  6 16  1  0  0  0  0
  7  2  2  0  0  0  0
  8 18  1  0  0  0  0
  8 12  1  0  0  0  0
  9  6  1  0  0  0  0
 10 20  1  0  0  0  0
 12  4  1  0  0  0  0
 13 19  2  0  0  0  0
 14 10  1  0  0  0  0
 14 18  1  0  0  0  0
 15 13  1  0  0  0  0
 15 10  2  0  0  0  0
 18  5  1  0  0  0  0
 19  1  1  0  0  0  0
 20  1  1  0  0  0  0
 20 11  1  0  0  0  0
 21 22  1  0  0  0  0
 22 24  2  0  0  0  0
 22 25  1  0  0  0  0
 23 27  1  0  0  0  0
 24 28  1  0  0  0  0
 25 26  2  0  0  0  0
 26 23  1  0  0  0  0
 28 23  2  0  0  0  0
M  END
>  <MODEL>
7

>  <REMARK>
 VINA RESULT:      -8.8      3.435      5.915
  Name = 
  2 active torsions:
  status: ('A' for Active; 'I' for Inactive)
    1  A    between atoms: C_1  and  C_2
    2  A    between atoms: C_2  and  C_3
                            x       y       z     vdW  Elec       q    Type
                         _______ _______ _______ _____ _____    ______ ____

>  <TORSDO>
F 2

$$$$
=
 OpenBabel10262420533D

 28 32  0  0  1  0  0  0  0  0999 V2000
  188.4870  176.8250  138.3290 C   0  0  1  0  0  3  0  0  0  0  0  0
  187.7010  176.6550  143.5560 C   0  0  0  0  0  3  0  0  0  0  0  0
  192.8500  177.5570  140.3920 O   0  0  0  0  0  0  0  0  0  0  0  0
  189.7120  177.8080  144.2610 C   0  0  0  0  0  0  0  0  0  0  0  0
  189.6620  176.7100  141.9680 C   0  0  1  0  0  3  0  0  0  0  0  0
  187.7660  177.7700  145.7020 C   0  0  0  0  0  0  0  0  0  0  0  0
  189.0140  177.0690  143.2870 C   0  0  0  0  0  0  0  0  0  0  0  0
  191.8440  177.5320  142.9940 C   0  0  0  0  0  2  0  0  0  0  0  0
  189.0820  178.1690  145.4560 C   0  0  0  0  0  3  0  0  0  0  0  0
  190.7980  176.9690  139.3490 C   0  0  0  0  0  0  0  0  0  0  0  0
  188.7580  177.1500  140.8080 C   0  0  0  0  0  2  0  0  0  0  0  0
  191.0700  178.1800  144.0390 N   0  0  0  0  0  2  0  0  0  0  0  0
  190.5330  176.3100  137.0190 C   0  0  0  0  0  3  0  0  0  0  0  0
  191.6220  177.2930  140.5220 C   0  0  0  0  0  0  0  0  0  0  0  0
  191.3610  176.7030  138.1670 C   0  0  0  0  0  3  0  0  0  0  0  0
  187.1440  178.1290  146.8900 O   0  0  0  0  0  1  0  0  0  0  0  0
  187.0790  177.0050  144.7570 C   0  0  0  0  0  3  0  0  0  0  0  0
  191.0060  177.3020  141.8190 N   0  0  0  0  0  0  0  0  0  0  0  0
  189.2010  176.3310  137.0950 C   0  0  0  0  0  3  0  0  0  0  0  0
  189.3680  176.8710  139.5070 N   0  0  0  0  0  0  0  0  0  0  0  0
  187.8150  178.1820  138.0700 C   0  0  0  0  0  2  0  0  0  0  0  0
  186.3200  178.1020  138.0120 C   0  0  0  0  0  0  0  0  0  0  0  0
  183.5300  177.9060  137.9240 C   0  0  0  0  0  0  0  0  0  0  0  0
  185.5480  178.6200  139.0580 C   0  0  0  0  0  3  0  0  0  0  0  0
  185.6940  177.4890  136.9210 C   0  0  0  0  0  3  0  0  0  0  0  0
  184.3000  177.3910  136.8780 C   0  0  0  0  0  3  0  0  0  0  0  0
  182.1800  177.8110  137.8830 F   0  0  0  0  0  0  0  0  0  0  0  0
  184.1540  178.5220  139.0150 C   0  0  0  0  0  3  0  0  0  0  0  0
  1 21  1  6  0  0  0
  1 20  1  0  0  0  0
  2 17  1  0  0  0  0
  3 14  2  0  0  0  0
  4  9  2  0  0  0  0
  5 11  1  6  0  0  0
  5  7  1  0  0  0  0
  6 16  1  0  0  0  0
  7  2  2  0  0  0  0
  7  4  1  0  0  0  0
  8 12  1  0  0  0  0
  9  6  1  0  0  0  0
 10 20  1  0  0  0  0
 10 14  1  0  0  0  0
 12  4  1  0  0  0  0
 13 19  2  0  0  0  0
 13 15  1  0  0  0  0
 14 18  1  0  0  0  0
 15 10  2  0  0  0  0
 17  6  2  0  0  0  0
 18  5  1  0  0  0  0
 18  8  1  0  0  0  0
 19  1  1  0  0  0  0
 20 11  1  0  0  0  0
 22 21  1  0  0  0  0
 22 24  1  0  0  0  0
 23 28  1  0  0  0  0
 25 22  2  0  0  0  0
 26 25  1  0  0  0  0
 26 23  2  0  0  0  0
 27 23  1  0  0  0  0
 28 24  2  0  0  0  0
M  END
>  <MODEL>
8

>  <REMARK>
 VINA RESULT:      -8.7      3.791      6.671
  Name = 
  2 active torsions:
  status: ('A' for Active; 'I' for Inactive)
    1  A    between atoms: C_1  and  C_2
    2  A    between atoms: C_2  and  C_3
                            x       y       z     vdW  Elec       q    Type
                         _______ _______ _______ _____ _____    ______ ____

>  <TORSDO>
F 2

$$$$
=
 OpenBabel10262420533D

 28 32  0  0  1  0  0  0  0  0999 V2000
  188.1020  177.2170  143.8650 C   0  0  1  0  0  3  0  0  0  0  0  0
  190.1530  175.9060  139.1690 C   0  0  0  0  0  3  0  0  0  0  0  0
  185.4500  179.5700  140.5100 O   0  0  0  0  0  0  0  0  0  0  0  0
  189.2600  177.7400  137.8610 C   0  0  0  0  0  0  0  0  0  0  0  0
  188.1120  177.1090  140.0400 C   0  0  1  0  0  3  0  0  0  0  0  0
  191.2550  176.5820  137.1240 C   0  0  0  0  0  0  0  0  0  0  0  0
  189.1970  176.9200  139.0030 C   0  0  0  0  0  0  0  0  0  0  0  0
  187.0070  178.6840  138.3720 C   0  0  0  0  0  2  0  0  0  0  0  0
  190.2950  177.5800  136.9360 C   0  0  0  0  0  3  0  0  0  0  0  0
  186.5580  178.2620  142.1550 C   0  0  0  0  0  0  0  0  0  0  0  0
  188.7430  177.2480  141.4320 C   0  0  0  0  0  2  0  0  0  0  0  0
  188.2590  178.7300  137.6360 N   0  0  0  0  0  2  0  0  0  0  0  0
  185.7920  177.9190  144.4420 C   0  0  0  0  0  3  0  0  0  0  0  0
  186.3700  178.7490  140.7810 C   0  0  0  0  0  0  0  0  0  0  0  0
  185.6270  178.4720  143.0910 C   0  0  0  0  0  3  0  0  0  0  0  0
  192.2810  176.4240  136.2020 O   0  0  0  0  0  1  0  0  0  0  0  0
  191.1780  175.7390  138.2350 C   0  0  0  0  0  3  0  0  0  0  0  0
  187.2510  178.2730  139.7520 N   0  0  0  0  0  0  0  0  0  0  0  0
  186.9220  177.3060  144.8000 C   0  0  0  0  0  3  0  0  0  0  0  0
  187.7340  177.4870  142.4660 N   0  0  0  0  0  0  0  0  0  0  0  0
  189.2480  178.1260  144.3360 C   0  0  0  0  0  2  0  0  0  0  0  0
  190.1060  177.5020  145.3920 C   0  0  0  0  0  0  0  0  0  0  0  0
  191.6780  176.2940  147.3670 C   0  0  0  0  0  0  0  0  0  0  0  0
  191.2260  176.7440  145.0310 C   0  0  0  0  0  3  0  0  0  0  0  0
  189.7760  177.6560  146.7430 C   0  0  0  0  0  3  0  0  0  0  0  0
  190.5610  177.0520  147.7300 C   0  0  0  0  0  3  0  0  0  0  0  0
  192.4390  175.7080  148.3230 F   0  0  0  0  0  0  0  0  0  0  0  0
  192.0110  176.1410  146.0170 C   0  0  0  0  0  3  0  0  0  0  0  0
  1 21  1  1  0  0  0
  1 19  1  0  0  0  0
  3 14  2  0  0  0  0
  4  7  2  0  0  0  0
  5 11  1  1  0  0  0
  6 17  1  0  0  0  0
  7  2  1  0  0  0  0
  7  5  1  0  0  0  0
  8 18  1  0  0  0  0
  9  6  2  0  0  0  0
  9  4  1  0  0  0  0
 10 20  1  0  0  0  0
 10 15  2  0  0  0  0
 11 20  1  0  0  0  0
 12  4  1  0  0  0  0
 12  8  1  0  0  0  0
 13 19  2  0  0  0  0
 14 10  1  0  0  0  0
 15 13  1  0  0  0  0
 16  6  1  0  0  0  0
 17  2  2  0  0  0  0
 18  5  1  0  0  0  0
 18 14  1  0  0  0  0
 20  1  1  0  0  0  0
 21 22  1  0  0  0  0
 22 25  1  0  0  0  0
 23 26  1  0  0  0  0
 23 27  1  0  0  0  0
 24 22  2  0  0  0  0
 24 28  1  0  0  0  0
 25 26  2  0  0  0  0
 28 23  2  0  0  0  0
M  END
>  <MODEL>
9

>  <REMARK>
 VINA RESULT:      -8.4      3.969      7.285
  Name = 
  2 active torsions:
  status: ('A' for Active; 'I' for Inactive)
    1  A    between atoms: C_1  and  C_2
    2  A    between atoms: C_2  and  C_3
                            x       y       z     vdW  Elec       q    Type
                         _______ _______ _______ _____ _____    ______ ____

>  <TORSDO>
F 2

$$$$
