=
 OpenBabel10262423063D

 37 39  0  0  1  0  0  0  0  0999 V2000
  180.6960  179.2270  141.4360 C   0  0  0  0  0  2  0  0  0  0  0  0
  178.9310  178.3830  139.9450 C   0  0  0  0  0  1  0  0  0  0  0  0
  182.9160  178.0940  141.3790 C   0  0  0  0  0  0  0  0  0  0  0  0
  180.9850  174.8550  140.3090 O   0  0  0  0  0  0  0  0  0  0  0  0
  184.1520  177.7860  141.9540 C   0  0  0  0  0  3  0  0  0  0  0  0
  180.0830  177.9550  140.8340 C   0  0  1  0  0  0  0  0  0  0  0  0
  180.7050  175.8550  139.5990 C   0  0  0  0  0  0  0  0  0  0  0  0
  182.3840  179.5100  143.2730 C   0  0  0  0  0  3  0  0  0  0  0  0
  181.0710  177.1670  140.0550 N   0  0  0  0  0  0  0  0  0  0  0  0
  179.5770  177.1730  141.8750 O   0  0  0  0  0  1  0  0  0  0  0  0
  182.0250  178.9400  142.0480 C   0  0  0  0  0  0  0  0  0  0  0  0
  182.5120  177.4960  140.0600 C   0  0  1  0  0  3  0  0  0  0  0  0
  184.5190  178.3470  143.1880 C   0  0  0  0  0  0  0  0  0  0  0  0
  183.6280  179.2150  143.8380 C   0  0  0  0  0  3  0  0  0  0  0  0
  186.7820  177.6620  143.0530 O   0  0  0  0  0  0  0  0  0  0  0  0
  185.8260  178.0330  143.7880 C   0  0  0  0  0  0  0  0  0  0  0  0
  186.0020  178.1410  145.2080 N   0  0  0  0  0  2  0  0  0  0  0  0
  187.2340  177.9270  145.9060 C   0  0  0  0  0  0  0  0  0  0  0  0
  188.3050  177.7050  145.2810 O   0  0  0  0  0  0  0  0  0  0  0  0
  188.6870  178.0950  147.8820 C   0  0  0  0  0  1  0  0  0  0  0  0
  187.2550  178.0080  147.3920 C   0  0  0  0  0  2  0  0  0  0  0  0
  180.0490  175.6610  138.3810 O   0  0  0  0  0  0  0  0  0  0  0  0
  180.3350  173.7050  137.0380 C   0  0  0  0  0  2  0  0  0  0  0  0
  179.4450  174.4270  138.0280 C   0  0  0  0  0  3  0  0  0  0  0  0
  179.1110  174.4440  136.5500 C   0  0  0  0  0  2  0  0  0  0  0  0
  182.9610  178.2680  138.7760 C   0  0  1  0  0  0  0  0  0  0  0  0
  182.3610  180.7820  138.6500 C   0  0  0  0  0  1  0  0  0  0  0  0
  183.3800  179.7290  139.0730 C   0  0  0  0  0  2  0  0  0  0  0  0
  184.1860  177.5350  138.1920 C   0  0  0  0  0  2  0  0  0  0  0  0
  185.4850  178.2850  138.3030 C   0  0  0  0  0  0  0  0  0  0  0  0
  185.7900  178.8420  139.3460 O   0  0  0  0  0  0  0  0  0  0  0  0
  187.5640  179.0370  137.4740 O   0  0  0  0  0  1  0  0  0  0  0  0
  186.3720  178.4110  137.1110 C   0  0  0  0  0  2  0  0  0  0  0  0
  181.8290  178.2370  137.7230 C   0  0  0  0  0  2  0  0  0  0  0  0
  182.1920  177.5570  136.4380 C   0  0  0  0  0  0  0  0  0  0  0  0
  182.4770  176.3320  136.4330 O   0  0  0  0  0  0  0  0  0  0  0  0
  182.2170  178.2930  135.2210 N   0  0  0  0  0  1  0  0  0  0  0  0
  1 11  1  0  0  0  0
  3  5  2  0  0  0  0
  3 11  1  0  0  0  0
  5 13  1  0  0  0  0
  6  2  1  6  0  0  0
  6  1  1  0  0  0  0
  6 10  1  0  0  0  0
  7  9  1  0  0  0  0
  7  4  2  0  0  0  0
  8 14  1  0  0  0  0
  9 12  1  0  0  0  0
  9  6  1  0  0  0  0
 11  8  2  0  0  0  0
 12 26  1  6  0  0  0
 12  3  1  0  0  0  0
 13 16  1  0  0  0  0
 13 14  2  0  0  0  0
 15 16  2  0  0  0  0
 16 17  1  0  0  0  0
 17 18  1  0  0  0  0
 18 21  1  0  0  0  0
 19 18  2  0  0  0  0
 21 20  1  0  0  0  0
 22  7  1  0  0  0  0
 23 24  1  0  0  0  0
 24 22  1  0  0  0  0
 25 23  1  0  0  0  0
 25 24  1  0  0  0  0
 26 34  1  6  0  0  0
 26 28  1  0  0  0  0
 27 28  1  0  0  0  0
 29 30  1  0  0  0  0
 29 26  1  0  0  0  0
 30 31  2  0  0  0  0
 33 32  1  0  0  0  0
 33 30  1  0  0  0  0
 35 34  1  0  0  0  0
 36 35  2  0  0  0  0
 37 35  1  0  0  0  0
M  END
>  <MODEL>
1

>  <REMARK>
 VINA RESULT:      -6.4      0.000      0.000
  Name = 
  11 active torsions:
  status: ('A' for Active; 'I' for Inactive)
    1  A    between atoms: C_1  and  C_5
    2  A    between atoms: C_1  and  C_36
    3  A    between atoms: C_5  and  C_23
    4  A    between atoms: C_6  and  C_31
    5  A    between atoms: C_11  and  C_33
    6  A    between atoms: C_18  and  C_19
    7  A    between atoms: C_20  and  O_32
    8  A    between atoms: C_21  and  O_32
    9  A    between atoms: C_27  and  C_36
   10  A    between atoms: C_29  and  C_36
   11  A    between atoms: C_33  and  C_36
                            x       y       z     vdW  Elec       q    Type
                         _______ _______ _______ _____ _____    ______ ____

>  <TORSDO>
F 11

$$$$
=
 OpenBabel10262423063D

 37 39  0  0  1  0  0  0  0  0999 V2000
  180.6770  179.2400  141.5780 C   0  0  0  0  0  2  0  0  0  0  0  0
  178.9310  178.3820  140.0730 C   0  0  0  0  0  1  0  0  0  0  0  0
  182.9110  178.1350  141.5280 C   0  0  0  0  0  0  0  0  0  0  0  0
  181.0270  174.8780  140.4280 O   0  0  0  0  0  0  0  0  0  0  0  0
  184.1480  177.8400  142.1090 C   0  0  0  0  0  3  0  0  0  0  0  0
  180.0840  177.9640  140.9650 C   0  0  1  0  0  0  0  0  0  0  0  0
  180.7390  175.8790  139.7220 C   0  0  0  0  0  0  0  0  0  0  0  0
  182.3510  179.5330  143.4270 C   0  0  0  0  0  3  0  0  0  0  0  0
  181.0860  177.1920  140.1880 N   0  0  0  0  0  0  0  0  0  0  0  0
  179.5810  177.1690  141.9990 O   0  0  0  0  0  1  0  0  0  0  0  0
  182.0060  178.9660  142.1970 C   0  0  0  0  0  0  0  0  0  0  0  0
  182.5220  177.5400  140.2030 C   0  0  1  0  0  3  0  0  0  0  0  0
  184.5000  178.3980  143.3470 C   0  0  0  0  0  0  0  0  0  0  0  0
  183.5950  179.2500  143.9980 C   0  0  0  0  0  3  0  0  0  0  0  0
  186.7680  177.7270  143.2240 O   0  0  0  0  0  0  0  0  0  0  0  0
  185.8080  178.0970  143.9540 C   0  0  0  0  0  0  0  0  0  0  0  0
  185.9790  178.2160  145.3730 N   0  0  0  0  0  2  0  0  0  0  0  0
  187.2100  178.0160  146.0760 C   0  0  0  0  0  0  0  0  0  0  0  0
  188.2850  177.7970  145.4560 O   0  0  0  0  0  0  0  0  0  0  0  0
  188.4190  177.3490  148.1110 C   0  0  0  0  0  1  0  0  0  0  0  0
  187.2270  178.1080  147.5620 C   0  0  0  0  0  2  0  0  0  0  0  0
  180.0930  175.6840  138.5000 O   0  0  0  0  0  0  0  0  0  0  0  0
  181.2060  174.1490  137.0440 C   0  0  0  0  0  2  0  0  0  0  0  0
  179.9780  174.4070  137.8920 C   0  0  0  0  0  3  0  0  0  0  0  0
  179.9140  174.5780  136.3880 C   0  0  0  0  0  2  0  0  0  0  0  0
  182.9690  178.3250  138.9260 C   0  0  1  0  0  0  0  0  0  0  0  0
  182.7360  177.4940  136.4860 C   0  0  0  0  0  1  0  0  0  0  0  0
  183.4940  177.3930  137.8060 C   0  0  0  0  0  2  0  0  0  0  0  0
  181.7370  179.0730  138.3800 C   0  0  0  0  0  2  0  0  0  0  0  0
  181.8860  180.5670  138.3020 C   0  0  0  0  0  0  0  0  0  0  0  0
  182.5480  181.1660  139.1360 O   0  0  0  0  0  0  0  0  0  0  0  0
  180.0080  181.8990  137.7790 O   0  0  0  0  0  1  0  0  0  0  0  0
  181.1640  181.3300  137.2440 C   0  0  0  0  0  2  0  0  0  0  0  0
  184.0450  179.3690  139.3040 C   0  0  0  0  0  2  0  0  0  0  0  0
  185.4450  178.9860  138.9290 C   0  0  0  0  0  0  0  0  0  0  0  0
  185.8020  179.0140  137.7230 O   0  0  0  0  0  0  0  0  0  0  0  0
  186.3710  178.5890  139.9320 N   0  0  0  0  0  1  0  0  0  0  0  0
  1 11  1  0  0  0  0
  3  5  2  0  0  0  0
  3 11  1  0  0  0  0
  5 13  1  0  0  0  0
  6  2  1  6  0  0  0
  6  1  1  0  0  0  0
  6 10  1  0  0  0  0
  7  9  1  0  0  0  0
  7  4  2  0  0  0  0
  8 14  1  0  0  0  0
  9 12  1  0  0  0  0
  9  6  1  0  0  0  0
 11  8  2  0  0  0  0
 12 26  1  6  0  0  0
 12  3  1  0  0  0  0
 13 16  1  0  0  0  0
 13 14  2  0  0  0  0
 15 16  2  0  0  0  0
 16 17  1  0  0  0  0
 17 18  1  0  0  0  0
 18 21  1  0  0  0  0
 19 18  2  0  0  0  0
 21 20  1  0  0  0  0
 22  7  1  0  0  0  0
 23 24  1  0  0  0  0
 24 22  1  0  0  0  0
 25 23  1  0  0  0  0
 25 24  1  0  0  0  0
 26 28  1  6  0  0  0
 26 34  1  0  0  0  0
 27 28  1  0  0  0  0
 29 26  1  0  0  0  0
 30 29  1  0  0  0  0
 30 31  2  0  0  0  0
 33 32  1  0  0  0  0
 33 30  1  0  0  0  0
 35 34  1  0  0  0  0
 35 37  1  0  0  0  0
 36 35  2  0  0  0  0
M  END
>  <MODEL>
2

>  <REMARK>
 VINA RESULT:      -5.8      1.616      2.633
  Name = 
  11 active torsions:
  status: ('A' for Active; 'I' for Inactive)
    1  A    between atoms: C_1  and  C_5
    2  A    between atoms: C_1  and  C_36
    3  A    between atoms: C_5  and  C_23
    4  A    between atoms: C_6  and  C_31
    5  A    between atoms: C_11  and  C_33
    6  A    between atoms: C_18  and  C_19
    7  A    between atoms: C_20  and  O_32
    8  A    between atoms: C_21  and  O_32
    9  A    between atoms: C_27  and  C_36
   10  A    between atoms: C_29  and  C_36
   11  A    between atoms: C_33  and  C_36
                            x       y       z     vdW  Elec       q    Type
                         _______ _______ _______ _____ _____    ______ ____

>  <TORSDO>
F 11

$$$$
=
 OpenBabel10262423063D

 37 39  0  0  1  0  0  0  0  0999 V2000
  182.2360  178.0220  136.4490 C   0  0  0  0  0  2  0  0  0  0  0  0
  182.0020  176.4190  134.5970 C   0  0  0  0  0  1  0  0  0  0  0  0
  183.4930  177.2930  138.4740 C   0  0  0  0  0  0  0  0  0  0  0  0
  182.3560  173.6460  137.5940 O   0  0  0  0  0  0  0  0  0  0  0  0
  183.8160  177.4150  139.8290 C   0  0  0  0  0  3  0  0  0  0  0  0
  182.0170  176.5410  136.1090 C   0  0  1  0  0  0  0  0  0  0  0  0
  182.8960  174.2430  136.6270 C   0  0  0  0  0  0  0  0  0  0  0  0
  182.0520  179.2340  138.6400 C   0  0  0  0  0  3  0  0  0  0  0  0
  183.0690  175.6670  136.6870 N   0  0  0  0  0  0  0  0  0  0  0  0
  180.7670  176.1550  136.5990 O   0  0  0  0  0  1  0  0  0  0  0  0
  182.5960  178.1910  137.8860 C   0  0  0  0  0  0  0  0  0  0  0  0
  184.0710  176.1800  137.6440 C   0  0  1  0  0  3  0  0  0  0  0  0
  183.2680  178.4550  140.5970 C   0  0  0  0  0  0  0  0  0  0  0  0
  182.3900  179.3650  139.9900 C   0  0  0  0  0  3  0  0  0  0  0  0
  182.7810  179.0800  142.8280 O   0  0  0  0  0  0  0  0  0  0  0  0
  183.6180  178.5920  142.0210 C   0  0  0  0  0  0  0  0  0  0  0  0
  184.9120  178.1770  142.4790 N   0  0  0  0  0  2  0  0  0  0  0  0
  185.3500  178.1980  143.8430 C   0  0  0  0  0  0  0  0  0  0  0  0
  184.5630  178.5140  144.7740 O   0  0  0  0  0  0  0  0  0  0  0  0
  187.0030  177.9820  145.6510 C   0  0  0  0  0  1  0  0  0  0  0  0
  186.7480  177.8010  144.1670 C   0  0  0  0  0  2  0  0  0  0  0  0
  183.3180  173.5010  135.5220 O   0  0  0  0  0  0  0  0  0  0  0  0
  183.5130  171.1770  136.0460 C   0  0  0  0  0  2  0  0  0  0  0  0
  182.7910  172.2190  135.2170 C   0  0  0  0  0  3  0  0  0  0  0  0
  183.8820  171.3710  134.5940 C   0  0  0  0  0  2  0  0  0  0  0  0
  185.4600  176.4550  136.9780 C   0  0  1  0  0  0  0  0  0  0  0  0
  185.7120  177.4390  134.5980 C   0  0  0  0  0  1  0  0  0  0  0  0
  185.4490  176.2020  135.4500 C   0  0  0  0  0  2  0  0  0  0  0  0
  185.8060  177.9400  137.2080 C   0  0  0  0  0  2  0  0  0  0  0  0
  187.0720  178.1820  137.9830 C   0  0  0  0  0  0  0  0  0  0  0  0
  187.0320  178.3770  139.1870 O   0  0  0  0  0  0  0  0  0  0  0  0
  188.8220  179.5770  137.2310 O   0  0  0  0  0  1  0  0  0  0  0  0
  188.3760  178.2560  137.2640 C   0  0  0  0  0  2  0  0  0  0  0  0
  186.5470  175.5910  137.6580 C   0  0  0  0  0  2  0  0  0  0  0  0
  186.8350  174.2930  136.9660 C   0  0  0  0  0  0  0  0  0  0  0  0
  186.1170  173.2860  137.1940 O   0  0  0  0  0  0  0  0  0  0  0  0
  187.9200  174.1960  136.0510 N   0  0  0  0  0  1  0  0  0  0  0  0
  1 11  1  0  0  0  0
  3  5  1  0  0  0  0
  5 13  2  0  0  0  0
  6  2  1  6  0  0  0
  6  1  1  0  0  0  0
  6 10  1  0  0  0  0
  6  9  1  0  0  0  0
  7  9  1  0  0  0  0
  7  4  2  0  0  0  0
  8 14  2  0  0  0  0
  9 12  1  0  0  0  0
 11  3  2  0  0  0  0
 11  8  1  0  0  0  0
 12 26  1  6  0  0  0
 12  3  1  0  0  0  0
 13 16  1  0  0  0  0
 14 13  1  0  0  0  0
 16 17  1  0  0  0  0
 16 15  2  0  0  0  0
 17 18  1  0  0  0  0
 18 21  1  0  0  0  0
 18 19  2  0  0  0  0
 21 20  1  0  0  0  0
 22  7  1  0  0  0  0
 24 22  1  0  0  0  0
 24 23  1  0  0  0  0
 25 24  1  0  0  0  0
 25 23  1  0  0  0  0
 26 28  1  6  0  0  0
 26 29  1  0  0  0  0
 26 34  1  0  0  0  0
 27 28  1  0  0  0  0
 29 30  1  0  0  0  0
 30 31  2  0  0  0  0
 32 33  1  0  0  0  0
 33 30  1  0  0  0  0
 35 36  2  0  0  0  0
 35 34  1  0  0  0  0
 37 35  1  0  0  0  0
M  END
>  <MODEL>
3

>  <REMARK>
 VINA RESULT:      -5.7      2.701      4.255
  Name = 
  11 active torsions:
  status: ('A' for Active; 'I' for Inactive)
    1  A    between atoms: C_1  and  C_5
    2  A    between atoms: C_1  and  C_36
    3  A    between atoms: C_5  and  C_23
    4  A    between atoms: C_6  and  C_31
    5  A    between atoms: C_11  and  C_33
    6  A    between atoms: C_18  and  C_19
    7  A    between atoms: C_20  and  O_32
    8  A    between atoms: C_21  and  O_32
    9  A    between atoms: C_27  and  C_36
   10  A    between atoms: C_29  and  C_36
   11  A    between atoms: C_33  and  C_36
                            x       y       z     vdW  Elec       q    Type
                         _______ _______ _______ _____ _____    ______ ____

>  <TORSDO>
F 11

$$$$
=
 OpenBabel10262423063D

 37 39  0  0  1  0  0  0  0  0999 V2000
  180.7110  179.2810  141.3780 C   0  0  0  0  0  2  0  0  0  0  0  0
  179.0160  178.4580  139.7970 C   0  0  0  0  0  1  0  0  0  0  0  0
  182.9210  178.1270  141.4290 C   0  0  0  0  0  0  0  0  0  0  0  0
  181.0170  174.9100  140.2480 O   0  0  0  0  0  0  0  0  0  0  0  0
  184.1240  177.8060  142.0640 C   0  0  0  0  0  3  0  0  0  0  0  0
  180.1190  178.0170  140.7410 C   0  0  1  0  0  0  0  0  0  0  0  0
  180.7830  175.9160  139.5290 C   0  0  0  0  0  0  0  0  0  0  0  0
  182.3080  179.5400  143.2990 C   0  0  0  0  0  3  0  0  0  0  0  0
  181.1370  177.2220  140.0090 N   0  0  0  0  0  0  0  0  0  0  0  0
  179.5530  177.2350  141.7510 O   0  0  0  0  0  1  0  0  0  0  0  0
  182.0050  178.9790  142.0560 C   0  0  0  0  0  0  0  0  0  0  0  0
  182.5790  177.5380  140.0880 C   0  0  1  0  0  3  0  0  0  0  0  0
  184.4330  178.3580  143.3170 C   0  0  0  0  0  0  0  0  0  0  0  0
  183.5190  179.2310  143.9260 C   0  0  0  0  0  3  0  0  0  0  0  0
  185.8470  178.2560  145.2140 O   0  0  0  0  0  0  0  0  0  0  0  0
  185.7060  178.0290  143.9810 C   0  0  0  0  0  0  0  0  0  0  0  0
  186.7810  177.4630  143.2200 N   0  0  0  0  0  2  0  0  0  0  0  0
  188.0400  177.0420  143.7560 C   0  0  0  0  0  0  0  0  0  0  0  0
  188.2580  177.0640  144.9970 O   0  0  0  0  0  0  0  0  0  0  0  0
  190.3980  176.3640  143.5890 C   0  0  0  0  0  1  0  0  0  0  0  0
  189.0930  176.5320  142.8360 C   0  0  0  0  0  2  0  0  0  0  0  0
  180.1870  175.7330  138.2800 O   0  0  0  0  0  0  0  0  0  0  0  0
  180.4620  174.6630  136.1600 C   0  0  0  0  0  2  0  0  0  0  0  0
  180.1490  174.4720  137.6290 C   0  0  0  0  0  3  0  0  0  0  0  0
  179.0310  174.4750  136.6070 C   0  0  0  0  0  2  0  0  0  0  0  0
  183.0990  178.3110  138.8320 C   0  0  1  0  0  0  0  0  0  0  0  0
  182.8960  177.4850  136.3870 C   0  0  0  0  0  1  0  0  0  0  0  0
  183.6230  177.3640  137.7230 C   0  0  0  0  0  2  0  0  0  0  0  0
  181.9170  179.1110  138.2500 C   0  0  0  0  0  2  0  0  0  0  0  0
  182.0350  180.6040  138.3850 C   0  0  0  0  0  0  0  0  0  0  0  0
  183.0480  181.1040  138.8500 O   0  0  0  0  0  0  0  0  0  0  0  0
  180.1750  181.8300  139.1660 O   0  0  0  0  0  1  0  0  0  0  0  0
  180.8820  181.4750  138.0180 C   0  0  0  0  0  2  0  0  0  0  0  0
  184.2030  179.3090  139.2510 C   0  0  0  0  0  2  0  0  0  0  0  0
  185.5890  178.9160  138.8360 C   0  0  0  0  0  0  0  0  0  0  0  0
  185.9170  178.9600  137.6230 O   0  0  0  0  0  0  0  0  0  0  0  0
  186.5350  178.4920  139.8100 N   0  0  0  0  0  1  0  0  0  0  0  0
  1 11  1  0  0  0  0
  3 11  2  0  0  0  0
  3  5  1  0  0  0  0
  5 13  2  0  0  0  0
  6  2  1  6  0  0  0
  6  1  1  0  0  0  0
  6 10  1  0  0  0  0
  7  9  1  0  0  0  0
  7  4  2  0  0  0  0
  8 14  2  0  0  0  0
  9 12  1  0  0  0  0
  9  6  1  0  0  0  0
 11  8  1  0  0  0  0
 12 26  1  6  0  0  0
 12  3  1  0  0  0  0
 13 14  1  0  0  0  0
 13 16  1  0  0  0  0
 16 15  2  0  0  0  0
 17 18  1  0  0  0  0
 17 16  1  0  0  0  0
 18 19  2  0  0  0  0
 21 20  1  0  0  0  0
 21 18  1  0  0  0  0
 22  7  1  0  0  0  0
 23 25  1  0  0  0  0
 23 24  1  0  0  0  0
 24 22  1  0  0  0  0
 25 24  1  0  0  0  0
 26 28  1  6  0  0  0
 26 34  1  0  0  0  0
 27 28  1  0  0  0  0
 29 30  1  0  0  0  0
 29 26  1  0  0  0  0
 30 31  2  0  0  0  0
 33 30  1  0  0  0  0
 33 32  1  0  0  0  0
 35 34  1  0  0  0  0
 35 37  1  0  0  0  0
 36 35  2  0  0  0  0
M  END
>  <MODEL>
4

>  <REMARK>
 VINA RESULT:      -5.5      1.897      2.969
  Name = 
  11 active torsions:
  status: ('A' for Active; 'I' for Inactive)
    1  A    between atoms: C_1  and  C_5
    2  A    between atoms: C_1  and  C_36
    3  A    between atoms: C_5  and  C_23
    4  A    between atoms: C_6  and  C_31
    5  A    between atoms: C_11  and  C_33
    6  A    between atoms: C_18  and  C_19
    7  A    between atoms: C_20  and  O_32
    8  A    between atoms: C_21  and  O_32
    9  A    between atoms: C_27  and  C_36
   10  A    between atoms: C_29  and  C_36
   11  A    between atoms: C_33  and  C_36
                            x       y       z     vdW  Elec       q    Type
                         _______ _______ _______ _____ _____    ______ ____

>  <TORSDO>
F 11

$$$$
=
 OpenBabel10262423063D

 37 39  0  0  1  0  0  0  0  0999 V2000
  180.9430  178.1430  137.3190 C   0  0  0  0  0  2  0  0  0  0  0  0
  179.9870  176.6520  135.6120 C   0  0  0  0  0  1  0  0  0  0  0  0
  182.5570  177.1710  138.9500 C   0  0  0  0  0  0  0  0  0  0  0  0
  180.6790  173.7680  138.4400 O   0  0  0  0  0  0  0  0  0  0  0  0
  183.2380  177.2010  140.1710 C   0  0  0  0  0  3  0  0  0  0  0  0
  180.4160  176.7250  137.0650 C   0  0  1  0  0  0  0  0  0  0  0  0
  181.0330  174.3050  137.3590 C   0  0  0  0  0  0  0  0  0  0  0  0
  181.5290  179.3030  139.4680 C   0  0  0  0  0  3  0  0  0  0  0  0
  181.4330  175.6830  137.3550 N   0  0  0  0  0  0  0  0  0  0  0  0
  179.2930  176.5180  137.8710 O   0  0  0  0  0  1  0  0  0  0  0  0
  181.6880  178.2120  138.6090 C   0  0  0  0  0  0  0  0  0  0  0  0
  182.7190  176.0090  138.0090 C   0  0  1  0  0  3  0  0  0  0  0  0
  183.0780  178.2880  141.0440 C   0  0  0  0  0  0  0  0  0  0  0  0
  182.2240  179.3400  140.6800 C   0  0  0  0  0  3  0  0  0  0  0  0
  183.2120  178.7050  143.3710 O   0  0  0  0  0  0  0  0  0  0  0  0
  183.8050  178.3270  142.3240 C   0  0  0  0  0  0  0  0  0  0  0  0
  185.1860  177.9440  142.3700 N   0  0  0  0  0  2  0  0  0  0  0  0
  185.9850  177.8770  143.5580 C   0  0  0  0  0  0  0  0  0  0  0  0
  185.4790  178.0760  144.6940 O   0  0  0  0  0  0  0  0  0  0  0  0
  187.9400  177.8780  142.0650 C   0  0  0  0  0  1  0  0  0  0  0  0
  187.4280  177.5270  143.4490 C   0  0  0  0  0  2  0  0  0  0  0  0
  181.0310  173.5410  136.1900 O   0  0  0  0  0  0  0  0  0  0  0  0
  181.1130  171.1610  135.9870 C   0  0  0  0  0  2  0  0  0  0  0  0
  180.2220  172.3850  136.0350 C   0  0  0  0  0  3  0  0  0  0  0  0
  180.5450  171.7290  134.7070 C   0  0  0  0  0  2  0  0  0  0  0  0
  183.9090  176.0890  136.9980 C   0  0  1  0  0  0  0  0  0  0  0  0
  183.4410  177.1290  134.6750 C   0  0  0  0  0  1  0  0  0  0  0  0
  183.4630  175.8670  135.5320 C   0  0  0  0  0  2  0  0  0  0  0  0
  184.5160  177.5030  137.0990 C   0  0  0  0  0  2  0  0  0  0  0  0
  186.0200  177.5480  137.0880 C   0  0  0  0  0  0  0  0  0  0  0  0
  186.6390  177.2660  136.0750 O   0  0  0  0  0  0  0  0  0  0  0  0
  186.0260  178.7830  139.1000 O   0  0  0  0  0  1  0  0  0  0  0  0
  186.7590  177.8710  138.3420 C   0  0  0  0  0  2  0  0  0  0  0  0
  184.9980  175.0630  137.3890 C   0  0  0  0  0  2  0  0  0  0  0  0
  185.1340  173.9070  136.4440 C   0  0  0  0  0  0  0  0  0  0  0  0
  185.9790  173.9520  135.5140 O   0  0  0  0  0  0  0  0  0  0  0  0
  184.3080  172.7590  136.5940 N   0  0  0  0  0  1  0  0  0  0  0  0
  1 11  1  0  0  0  0
  3  5  1  0  0  0  0
  5 13  2  0  0  0  0
  6  2  1  6  0  0  0
  6  1  1  0  0  0  0
  6  9  1  0  0  0  0
  6 10  1  0  0  0  0
  7  4  2  0  0  0  0
  8 14  2  0  0  0  0
  9  7  1  0  0  0  0
  9 12  1  0  0  0  0
 11  3  2  0  0  0  0
 11  8  1  0  0  0  0
 12 26  1  6  0  0  0
 12  3  1  0  0  0  0
 13 16  1  0  0  0  0
 14 13  1  0  0  0  0
 16 17  1  0  0  0  0
 16 15  2  0  0  0  0
 17 18  1  0  0  0  0
 18 19  2  0  0  0  0
 20 21  1  0  0  0  0
 21 18  1  0  0  0  0
 22  7  1  0  0  0  0
 23 24  1  0  0  0  0
 24 22  1  0  0  0  0
 25 23  1  0  0  0  0
 25 24  1  0  0  0  0
 26 28  1  6  0  0  0
 26 29  1  0  0  0  0
 26 34  1  0  0  0  0
 27 28  1  0  0  0  0
 30 29  1  0  0  0  0
 30 33  1  0  0  0  0
 31 30  2  0  0  0  0
 33 32  1  0  0  0  0
 35 37  1  0  0  0  0
 35 34  1  0  0  0  0
 36 35  2  0  0  0  0
M  END
>  <MODEL>
5

>  <REMARK>
 VINA RESULT:      -5.2      2.401      3.614
  Name = 
  11 active torsions:
  status: ('A' for Active; 'I' for Inactive)
    1  A    between atoms: C_1  and  C_5
    2  A    between atoms: C_1  and  C_36
    3  A    between atoms: C_5  and  C_23
    4  A    between atoms: C_6  and  C_31
    5  A    between atoms: C_11  and  C_33
    6  A    between atoms: C_18  and  C_19
    7  A    between atoms: C_20  and  O_32
    8  A    between atoms: C_21  and  O_32
    9  A    between atoms: C_27  and  C_36
   10  A    between atoms: C_29  and  C_36
   11  A    between atoms: C_33  and  C_36
                            x       y       z     vdW  Elec       q    Type
                         _______ _______ _______ _____ _____    ______ ____

>  <TORSDO>
F 11

$$$$
=
 OpenBabel10262423063D

 37 39  0  0  1  0  0  0  0  0999 V2000
  180.7910  179.3360  141.5870 C   0  0  0  0  0  2  0  0  0  0  0  0
  178.9350  178.5010  140.2050 C   0  0  0  0  0  1  0  0  0  0  0  0
  182.9460  178.0850  141.5320 C   0  0  0  0  0  0  0  0  0  0  0  0
  180.8160  174.8960  140.7190 O   0  0  0  0  0  0  0  0  0  0  0  0
  184.1840  177.7450  142.0860 C   0  0  0  0  0  3  0  0  0  0  0  0
  180.0930  178.0660  141.0820 C   0  0  1  0  0  0  0  0  0  0  0  0
  180.5640  175.8660  139.9590 C   0  0  0  0  0  0  0  0  0  0  0  0
  182.5520  179.6360  143.3510 C   0  0  0  0  0  3  0  0  0  0  0  0
  181.0120  177.1810  140.3230 N   0  0  0  0  0  0  0  0  0  0  0  0
  179.5820  177.3740  142.1840 O   0  0  0  0  0  1  0  0  0  0  0  0
  182.1230  179.0150  142.1750 C   0  0  0  0  0  0  0  0  0  0  0  0
  182.4670  177.4320  140.2640 C   0  0  1  0  0  3  0  0  0  0  0  0
  184.6200  178.3570  143.2710 C   0  0  0  0  0  0  0  0  0  0  0  0
  183.7980  179.3080  143.8950 C   0  0  0  0  0  3  0  0  0  0  0  0
  186.8910  177.7100  143.0910 O   0  0  0  0  0  0  0  0  0  0  0  0
  185.9290  178.0100  143.8500 C   0  0  0  0  0  0  0  0  0  0  0  0
  186.0990  178.0050  145.2740 N   0  0  0  0  0  2  0  0  0  0  0  0
  187.3310  177.7490  145.9580 C   0  0  0  0  0  0  0  0  0  0  0  0
  188.4070  177.5900  145.3210 O   0  0  0  0  0  0  0  0  0  0  0  0
  188.7510  177.9820  147.9520 C   0  0  0  0  0  1  0  0  0  0  0  0
  187.3480  177.7100  147.4450 C   0  0  0  0  0  2  0  0  0  0  0  0
  179.8580  175.6360  138.7760 O   0  0  0  0  0  0  0  0  0  0  0  0
  181.0080  174.6440  136.9300 C   0  0  0  0  0  2  0  0  0  0  0  0
  179.9880  174.4360  138.0300 C   0  0  0  0  0  3  0  0  0  0  0  0
  179.5320  174.6850  136.6070 C   0  0  0  0  0  2  0  0  0  0  0  0
  182.9130  178.1020  138.9220 C   0  0  1  0  0  0  0  0  0  0  0  0
  185.3080  178.9470  139.4180 C   0  0  0  0  0  1  0  0  0  0  0  0
  183.8530  179.3120  139.1430 C   0  0  0  0  0  2  0  0  0  0  0  0
  183.6850  177.0470  138.1050 C   0  0  0  0  0  2  0  0  0  0  0  0
  183.7940  177.3410  136.6340 C   0  0  0  0  0  0  0  0  0  0  0  0
  182.7920  177.3850  135.9370 O   0  0  0  0  0  0  0  0  0  0  0  0
  185.0680  177.1980  134.6520 O   0  0  0  0  0  1  0  0  0  0  0  0
  185.1370  177.5090  136.0100 C   0  0  0  0  0  2  0  0  0  0  0  0
  181.6670  178.5290  138.1120 C   0  0  0  0  0  2  0  0  0  0  0  0
  181.5550  180.0050  137.8740 C   0  0  0  0  0  0  0  0  0  0  0  0
  181.4320  180.4440  136.7020 O   0  0  0  0  0  0  0  0  0  0  0  0
  181.5880  180.9110  138.9700 N   0  0  0  0  0  1  0  0  0  0  0  0
  1 11  1  0  0  0  0
  3  5  2  0  0  0  0
  3 11  1  0  0  0  0
  5 13  1  0  0  0  0
  6  2  1  6  0  0  0
  6  1  1  0  0  0  0
  6 10  1  0  0  0  0
  7  9  1  0  0  0  0
  7  4  2  0  0  0  0
  8 14  1  0  0  0  0
  9  6  1  0  0  0  0
 11  8  2  0  0  0  0
 12 26  1  6  0  0  0
 12  9  1  0  0  0  0
 12  3  1  0  0  0  0
 13 16  1  0  0  0  0
 13 14  2  0  0  0  0
 15 16  2  0  0  0  0
 16 17  1  0  0  0  0
 17 18  1  0  0  0  0
 18 21  1  0  0  0  0
 19 18  2  0  0  0  0
 21 20  1  0  0  0  0
 22  7  1  0  0  0  0
 23 24  1  0  0  0  0
 24 22  1  0  0  0  0
 25 23  1  0  0  0  0
 25 24  1  0  0  0  0
 26 29  1  6  0  0  0
 26 28  1  0  0  0  0
 28 27  1  0  0  0  0
 30 29  1  0  0  0  0
 31 30  2  0  0  0  0
 32 33  1  0  0  0  0
 33 30  1  0  0  0  0
 34 26  1  0  0  0  0
 35 34  1  0  0  0  0
 35 37  1  0  0  0  0
 36 35  2  0  0  0  0
M  END
>  <MODEL>
6

>  <REMARK>
 VINA RESULT:      -5.2      1.387      1.766
  Name = 
  11 active torsions:
  status: ('A' for Active; 'I' for Inactive)
    1  A    between atoms: C_1  and  C_5
    2  A    between atoms: C_1  and  C_36
    3  A    between atoms: C_5  and  C_23
    4  A    between atoms: C_6  and  C_31
    5  A    between atoms: C_11  and  C_33
    6  A    between atoms: C_18  and  C_19
    7  A    between atoms: C_20  and  O_32
    8  A    between atoms: C_21  and  O_32
    9  A    between atoms: C_27  and  C_36
   10  A    between atoms: C_29  and  C_36
   11  A    between atoms: C_33  and  C_36
                            x       y       z     vdW  Elec       q    Type
                         _______ _______ _______ _____ _____    ______ ____

>  <TORSDO>
F 11

$$$$
=
 OpenBabel10262423063D

 37 39  0  0  1  0  0  0  0  0999 V2000
  184.1480  178.7180  138.8500 C   0  0  0  0  0  2  0  0  0  0  0  0
  182.7170  179.3690  136.9580 C   0  0  0  0  0  1  0  0  0  0  0  0
  183.1380  178.7050  141.1300 C   0  0  0  0  0  0  0  0  0  0  0  0
  180.7190  181.5020  139.8310 O   0  0  0  0  0  0  0  0  0  0  0  0
  183.2510  178.7320  142.5230 C   0  0  0  0  0  3  0  0  0  0  0  0
  183.0290  179.6720  138.4110 C   0  0  1  0  0  0  0  0  0  0  0  0
  180.7480  180.4880  139.0860 C   0  0  0  0  0  0  0  0  0  0  0  0
  185.5530  178.7040  140.9310 C   0  0  0  0  0  3  0  0  0  0  0  0
  181.8070  179.5310  139.2420 N   0  0  0  0  0  0  0  0  0  0  0  0
  183.5050  180.9830  138.5000 O   0  0  0  0  0  1  0  0  0  0  0  0
  184.2890  178.7100  140.3350 C   0  0  0  0  0  0  0  0  0  0  0  0
  181.7870  178.7060  140.4680 C   0  0  1  0  0  3  0  0  0  0  0  0
  184.5160  178.7340  143.1310 C   0  0  0  0  0  0  0  0  0  0  0  0
  185.6640  178.7140  142.3250 C   0  0  0  0  0  3  0  0  0  0  0  0
  183.6680  179.1490  145.3030 O   0  0  0  0  0  0  0  0  0  0  0  0
  184.6360  178.7510  144.5990 C   0  0  0  0  0  0  0  0  0  0  0  0
  185.8570  178.3230  145.2180 N   0  0  0  0  0  2  0  0  0  0  0  0
  186.0780  178.2310  146.6300 C   0  0  0  0  0  0  0  0  0  0  0  0
  185.1460  178.4480  147.4500 O   0  0  0  0  0  0  0  0  0  0  0  0
  188.4200  177.8320  145.9940 C   0  0  0  0  0  1  0  0  0  0  0  0
  187.4210  177.8340  147.1350 C   0  0  0  0  0  2  0  0  0  0  0  0
  179.7460  180.3200  138.1280 O   0  0  0  0  0  0  0  0  0  0  0  0
  178.9320  180.9470  135.9700 C   0  0  0  0  0  2  0  0  0  0  0  0
  179.2090  181.4050  137.3870 C   0  0  0  0  0  3  0  0  0  0  0  0
  180.1680  181.7640  136.2700 C   0  0  0  0  0  2  0  0  0  0  0  0
  181.1160  177.3100  140.2490 C   0  0  1  0  0  0  0  0  0  0  0  0
  178.9350  176.7800  138.9590 C   0  0  0  0  0  1  0  0  0  0  0  0
  180.3990  177.2010  138.8800 C   0  0  0  0  0  2  0  0  0  0  0  0
  182.2280  176.2430  140.2850 C   0  0  0  0  0  2  0  0  0  0  0  0
  182.3020  175.3630  139.0680 C   0  0  0  0  0  0  0  0  0  0  0  0
  181.4430  174.5190  138.8630 O   0  0  0  0  0  0  0  0  0  0  0  0
  183.3180  174.5740  137.0880 O   0  0  0  0  0  1  0  0  0  0  0  0
  183.4670  175.4720  138.1440 C   0  0  0  0  0  2  0  0  0  0  0  0
  180.1240  177.0190  141.3990 C   0  0  0  0  0  2  0  0  0  0  0  0
  179.6640  178.2340  142.1460 C   0  0  0  0  0  0  0  0  0  0  0  0
  179.0080  179.1270  141.5510 O   0  0  0  0  0  0  0  0  0  0  0  0
  179.9660  178.3820  143.5280 N   0  0  0  0  0  1  0  0  0  0  0  0
  1 11  1  0  0  0  0
  3  5  1  0  0  0  0
  5 13  2  0  0  0  0
  6  2  1  6  0  0  0
  6 10  1  0  0  0  0
  6  1  1  0  0  0  0
  6  9  1  0  0  0  0
  7  9  1  0  0  0  0
  7  4  2  0  0  0  0
  8 14  2  0  0  0  0
  9 12  1  0  0  0  0
 11  8  1  0  0  0  0
 11  3  2  0  0  0  0
 12 26  1  6  0  0  0
 12  3  1  0  0  0  0
 13 16  1  0  0  0  0
 14 13  1  0  0  0  0
 16 17  1  0  0  0  0
 16 15  2  0  0  0  0
 17 18  1  0  0  0  0
 18 21  1  0  0  0  0
 18 19  2  0  0  0  0
 20 21  1  0  0  0  0
 22  7  1  0  0  0  0
 23 25  1  0  0  0  0
 23 24  1  0  0  0  0
 24 22  1  0  0  0  0
 25 24  1  0  0  0  0
 26 28  1  6  0  0  0
 26 29  1  0  0  0  0
 26 34  1  0  0  0  0
 28 27  1  0  0  0  0
 30 29  1  0  0  0  0
 31 30  2  0  0  0  0
 32 33  1  0  0  0  0
 33 30  1  0  0  0  0
 34 35  1  0  0  0  0
 35 37  1  0  0  0  0
 36 35  2  0  0  0  0
M  END
>  <MODEL>
7

>  <REMARK>
 VINA RESULT:      -5.1      2.388      4.600
  Name = 
  11 active torsions:
  status: ('A' for Active; 'I' for Inactive)
    1  A    between atoms: C_1  and  C_5
    2  A    between atoms: C_1  and  C_36
    3  A    between atoms: C_5  and  C_23
    4  A    between atoms: C_6  and  C_31
    5  A    between atoms: C_11  and  C_33
    6  A    between atoms: C_18  and  C_19
    7  A    between atoms: C_20  and  O_32
    8  A    between atoms: C_21  and  O_32
    9  A    between atoms: C_27  and  C_36
   10  A    between atoms: C_29  and  C_36
   11  A    between atoms: C_33  and  C_36
                            x       y       z     vdW  Elec       q    Type
                         _______ _______ _______ _____ _____    ______ ____

>  <TORSDO>
F 11

$$$$
=
 OpenBabel10262423063D

 37 39  0  0  1  0  0  0  0  0999 V2000
  181.2550  177.8110  136.5760 C   0  0  0  0  0  2  0  0  0  0  0  0
  179.2370  179.0740  137.1960 C   0  0  0  0  0  1  0  0  0  0  0  0
  183.3770  178.3330  137.7760 C   0  0  0  0  0  0  0  0  0  0  0  0
  181.9540  181.9540  138.2530 O   0  0  0  0  0  0  0  0  0  0  0  0
  184.7720  178.3150  137.8680 C   0  0  0  0  0  3  0  0  0  0  0  0
  180.7350  179.1940  136.9890 C   0  0  1  0  0  0  0  0  0  0  0  0
  181.1560  181.0560  138.6260 C   0  0  0  0  0  0  0  0  0  0  0  0
  183.4970  177.1130  135.6860 C   0  0  0  0  0  3  0  0  0  0  0  0
  181.3880  179.6970  138.2240 N   0  0  0  0  0  0  0  0  0  0  0  0
  180.9690  180.0870  135.9400 O   0  0  0  0  0  1  0  0  0  0  0  0
  182.7420  177.7490  136.6740 C   0  0  0  0  0  0  0  0  0  0  0  0
  182.5460  179.0080  138.8320 C   0  0  1  0  0  3  0  0  0  0  0  0
  185.5390  177.6860  136.8760 C   0  0  0  0  0  0  0  0  0  0  0  0
  184.8910  177.0810  135.7880 C   0  0  0  0  0  3  0  0  0  0  0  0
  187.7030  177.3760  135.9640 O   0  0  0  0  0  0  0  0  0  0  0  0
  187.0080  177.6560  136.9790 C   0  0  0  0  0  0  0  0  0  0  0  0
  187.6390  177.9350  138.2360 N   0  0  0  0  0  2  0  0  0  0  0  0
  189.0540  178.0010  138.4530 C   0  0  0  0  0  0  0  0  0  0  0  0
  189.8640  177.8970  137.4940 O   0  0  0  0  0  0  0  0  0  0  0  0
  189.5860  176.9310  140.6020 C   0  0  0  0  0  1  0  0  0  0  0  0
  189.5720  178.2350  139.8290 C   0  0  0  0  0  2  0  0  0  0  0  0
  180.0670  181.4060  139.4270 O   0  0  0  0  0  0  0  0  0  0  0  0
  179.3910  183.2190  138.0230 C   0  0  0  0  0  2  0  0  0  0  0  0
  178.9310  182.0850  138.9150 C   0  0  0  0  0  3  0  0  0  0  0  0
  178.9310  183.5090  139.4330 C   0  0  0  0  0  2  0  0  0  0  0  0
  182.1510  178.1390  140.0710 C   0  0  1  0  0  0  0  0  0  0  0  0
  182.1750  175.6270  139.4450 C   0  0  0  0  0  1  0  0  0  0  0  0
  181.3370  176.8800  139.6820 C   0  0  0  0  0  2  0  0  0  0  0  0
  183.4530  177.6680  140.7490 C   0  0  0  0  0  2  0  0  0  0  0  0
  184.1640  178.7210  141.5530 C   0  0  0  0  0  0  0  0  0  0  0  0
  184.7740  179.6200  140.9940 O   0  0  0  0  0  0  0  0  0  0  0  0
  185.2250  177.7900  143.4460 O   0  0  0  0  0  1  0  0  0  0  0  0
  184.1860  178.6280  143.0410 C   0  0  0  0  0  2  0  0  0  0  0  0
  181.3590  178.9990  141.0830 C   0  0  0  0  0  2  0  0  0  0  0  0
  179.9590  178.5280  141.3400 C   0  0  0  0  0  0  0  0  0  0  0  0
  179.0440  178.8010  140.5210 O   0  0  0  0  0  0  0  0  0  0  0  0
  179.6600  177.7730  142.5080 N   0  0  0  0  0  1  0  0  0  0  0  0
  1 11  1  0  0  0  0
  1  6  1  0  0  0  0
  3  5  1  0  0  0  0
  3 12  1  0  0  0  0
  4  7  2  0  0  0  0
  6  2  1  1  0  0  0
  6  9  1  0  0  0  0
  7 22  1  0  0  0  0
  8 14  2  0  0  0  0
  8 11  1  0  0  0  0
  9  7  1  0  0  0  0
  9 12  1  0  0  0  0
 10  6  1  0  0  0  0
 11  3  2  0  0  0  0
 12 26  1  1  0  0  0
 13 16  1  0  0  0  0
 13  5  2  0  0  0  0
 14 13  1  0  0  0  0
 15 16  2  0  0  0  0
 16 17  1  0  0  0  0
 17 18  1  0  0  0  0
 18 21  1  0  0  0  0
 19 18  2  0  0  0  0
 21 20  1  0  0  0  0
 23 24  1  0  0  0  0
 23 25  1  0  0  0  0
 24 22  1  0  0  0  0
 24 25  1  0  0  0  0
 26 28  1  6  0  0  0
 26 29  1  0  0  0  0
 26 34  1  0  0  0  0
 27 28  1  0  0  0  0
 29 30  1  0  0  0  0
 30 33  1  0  0  0  0
 31 30  2  0  0  0  0
 33 32  1  0  0  0  0
 34 35  1  0  0  0  0
 35 37  1  0  0  0  0
 36 35  2  0  0  0  0
M  END
>  <MODEL>
8

>  <REMARK>
 VINA RESULT:      -5.1      2.878      6.117
  Name = 
  11 active torsions:
  status: ('A' for Active; 'I' for Inactive)
    1  A    between atoms: C_1  and  C_5
    2  A    between atoms: C_1  and  C_36
    3  A    between atoms: C_5  and  C_23
    4  A    between atoms: C_6  and  C_31
    5  A    between atoms: C_11  and  C_33
    6  A    between atoms: C_18  and  C_19
    7  A    between atoms: C_20  and  O_32
    8  A    between atoms: C_21  and  O_32
    9  A    between atoms: C_27  and  C_36
   10  A    between atoms: C_29  and  C_36
   11  A    between atoms: C_33  and  C_36
                            x       y       z     vdW  Elec       q    Type
                         _______ _______ _______ _____ _____    ______ ____

>  <TORSDO>
F 11

$$$$
=
 OpenBabel10262423063D

 37 39  0  0  1  0  0  0  0  0999 V2000
  181.1440  178.0710  136.6160 C   0  0  0  0  0  2  0  0  0  0  0  0
  179.2210  179.5550  137.0070 C   0  0  0  0  0  1  0  0  0  0  0  0
  183.1740  178.3900  138.0270 C   0  0  0  0  0  0  0  0  0  0  0  0
  182.1100  182.1520  138.3150 O   0  0  0  0  0  0  0  0  0  0  0  0
  184.5420  178.2260  138.2670 C   0  0  0  0  0  3  0  0  0  0  0  0
  180.7370  179.5100  136.9580 C   0  0  1  0  0  0  0  0  0  0  0  0
  181.1850  181.3510  138.6120 C   0  0  0  0  0  0  0  0  0  0  0  0
  183.3780  177.1200  135.9740 C   0  0  0  0  0  3  0  0  0  0  0  0
  181.3090  179.9680  138.2500 N   0  0  0  0  0  0  0  0  0  0  0  0
  181.1740  180.3510  135.9310 O   0  0  0  0  0  1  0  0  0  0  0  0
  182.5980  177.8540  136.8710 C   0  0  0  0  0  0  0  0  0  0  0  0
  182.3160  179.1720  138.9830 C   0  0  1  0  0  3  0  0  0  0  0  0
  185.3350  177.4980  137.3670 C   0  0  0  0  0  0  0  0  0  0  0  0
  184.7420  176.9420  136.2230 C   0  0  0  0  0  3  0  0  0  0  0  0
  187.4990  176.7500  136.7590 O   0  0  0  0  0  0  0  0  0  0  0  0
  186.7740  177.3130  137.6240 C   0  0  0  0  0  0  0  0  0  0  0  0
  187.3390  177.7670  138.8620 N   0  0  0  0  0  2  0  0  0  0  0  0
  188.7280  177.7060  139.2060 C   0  0  0  0  0  0  0  0  0  0  0  0
  189.5880  177.3110  138.3740 O   0  0  0  0  0  0  0  0  0  0  0  0
  187.9580  178.5220  141.3940 C   0  0  0  0  0  1  0  0  0  0  0  0
  189.1670  178.1530  140.5570 C   0  0  0  0  0  2  0  0  0  0  0  0
  180.0620  181.8320  139.2890 O   0  0  0  0  0  0  0  0  0  0  0  0
  179.4200  183.2210  137.4530 C   0  0  0  0  0  2  0  0  0  0  0  0
  178.9390  182.3770  138.6150 C   0  0  0  0  0  3  0  0  0  0  0  0
  178.9740  183.8870  138.7340 C   0  0  0  0  0  2  0  0  0  0  0  0
  181.7030  178.3770  140.1830 C   0  0  1  0  0  0  0  0  0  0  0  0
  183.9970  178.7380  141.3250 C   0  0  0  0  0  1  0  0  0  0  0  0
  182.4900  178.5830  141.5000 C   0  0  0  0  0  2  0  0  0  0  0  0
  180.2670  178.8940  140.4040 C   0  0  0  0  0  2  0  0  0  0  0  0
  179.9720  179.3630  141.8020 C   0  0  0  0  0  0  0  0  0  0  0  0
  180.2290  180.5090  142.1370 O   0  0  0  0  0  0  0  0  0  0  0  0
  180.1210  178.5380  144.0100 O   0  0  0  0  0  1  0  0  0  0  0  0
  179.4300  178.4030  142.8060 C   0  0  0  0  0  2  0  0  0  0  0  0
  181.6300  176.8730  139.8310 C   0  0  0  0  0  2  0  0  0  0  0  0
  180.2430  176.3050  139.8070 C   0  0  0  0  0  0  0  0  0  0  0  0
  179.5280  176.4360  138.7810 O   0  0  0  0  0  0  0  0  0  0  0  0
  179.7300  175.6190  140.9430 N   0  0  0  0  0  1  0  0  0  0  0  0
  1 11  1  0  0  0  0
  1  6  1  0  0  0  0
  3  5  1  0  0  0  0
  3 12  1  0  0  0  0
  4  7  2  0  0  0  0
  6  2  1  1  0  0  0
  6  9  1  0  0  0  0
  7 22  1  0  0  0  0
  8 14  2  0  0  0  0
  8 11  1  0  0  0  0
  9  7  1  0  0  0  0
  9 12  1  0  0  0  0
 10  6  1  0  0  0  0
 11  3  2  0  0  0  0
 12 26  1  1  0  0  0
 13 16  1  0  0  0  0
 13  5  2  0  0  0  0
 14 13  1  0  0  0  0
 15 16  2  0  0  0  0
 16 17  1  0  0  0  0
 17 18  1  0  0  0  0
 18 21  1  0  0  0  0
 19 18  2  0  0  0  0
 21 20  1  0  0  0  0
 23 24  1  0  0  0  0
 23 25  1  0  0  0  0
 24 25  1  0  0  0  0
 24 22  1  0  0  0  0
 26 34  1  6  0  0  0
 26 29  1  0  0  0  0
 26 28  1  0  0  0  0
 27 28  1  0  0  0  0
 29 30  1  0  0  0  0
 30 31  2  0  0  0  0
 30 33  1  0  0  0  0
 33 32  1  0  0  0  0
 35 34  1  0  0  0  0
 35 37  1  0  0  0  0
 36 35  2  0  0  0  0
M  END
>  <MODEL>
9

>  <REMARK>
 VINA RESULT:      -4.9      3.151      6.184
  Name = 
  11 active torsions:
  status: ('A' for Active; 'I' for Inactive)
    1  A    between atoms: C_1  and  C_5
    2  A    between atoms: C_1  and  C_36
    3  A    between atoms: C_5  and  C_23
    4  A    between atoms: C_6  and  C_31
    5  A    between atoms: C_11  and  C_33
    6  A    between atoms: C_18  and  C_19
    7  A    between atoms: C_20  and  O_32
    8  A    between atoms: C_21  and  O_32
    9  A    between atoms: C_27  and  C_36
   10  A    between atoms: C_29  and  C_36
   11  A    between atoms: C_33  and  C_36
                            x       y       z     vdW  Elec       q    Type
                         _______ _______ _______ _____ _____    ______ ____

>  <TORSDO>
F 11

$$$$
