=
 OpenBabel10262420573D

 28 30  0  0  1  0  0  0  0  0999 V2000
  184.7610  177.7600  137.7410 O   0  0  0  0  0  0  0  0  0  0  0  0
  183.3170  178.5910  140.9280 C   0  0  2  0  0  3  0  0  0  0  0  0
  185.6230  179.0090  140.0480 C   0  0  0  0  0  1  0  0  0  0  0  0
  182.6640  176.9730  138.5590 C   0  0  1  0  0  0  0  0  0  0  0  0
  181.9650  177.8900  140.6980 C   0  0  0  0  0  2  0  0  0  0  0  0
  182.7400  175.7150  139.1670 O   0  0  0  0  0  1  0  0  0  0  0  0
  184.0120  177.6370  138.7020 C   0  0  0  0  0  0  0  0  0  0  0  0
  182.2990  176.7150  137.0980 C   0  0  0  0  0  1  0  0  0  0  0  0
  184.4710  178.0120  140.0910 C   0  0  2  0  0  3  0  0  0  0  0  0
  181.6320  177.7820  139.2610 N   0  0  1  0  0  0  0  0  0  0  0  0
  181.1520  179.0570  138.6140 C   0  0  1  0  0  0  0  0  0  0  0  0
  178.9940  179.0080  139.9650 C   0  0  0  0  0  1  0  0  0  0  0  0
  179.5940  179.0430  138.5640 C   0  0  0  0  0  0  0  0  0  0  0  0
  179.7000  181.7520  138.7240 C   0  0  1  0  0  3  0  0  0  0  0  0
  179.0960  177.8070  137.8330 C   0  0  0  0  0  1  0  0  0  0  0  0
  181.2080  181.6170  138.6690 C   0  0  0  0  0  2  0  0  0  0  0  0
  181.6360  180.3280  139.3540 C   0  0  0  0  0  2  0  0  0  0  0  0
  179.3010  183.1280  138.2370 C   0  0  0  0  0  1  0  0  0  0  0  0
  181.6340  179.1670  137.3150 F   0  0  0  0  0  0  0  0  0  0  0  0
  178.9310  180.4930  137.6570 S   0  0  0  0  0  0  0  0  0  0  0  0
  184.9300  178.2600  142.8310 C   0  0  0  0  0  3  0  0  0  0  0  0
  182.6760  179.0040  143.3430 C   0  0  0  0  0  0  0  0  0  0  0  0
  184.2830  178.6590  145.1270 C   0  0  0  0  0  0  0  0  0  0  0  0
  183.6470  178.6240  142.3940 C   0  0  0  0  0  0  0  0  0  0  0  0
  183.0010  179.0200  144.7020 C   0  0  0  0  0  3  0  0  0  0  0  0
  181.2960  179.3930  142.9330 C   0  0  0  0  0  1  0  0  0  0  0  0
  184.5890  178.6750  146.4460 F   0  0  0  0  0  0  0  0  0  0  0  0
  185.2470  178.2780  144.1910 C   0  0  0  0  0  3  0  0  0  0  0  0
  1  7  2  0  0  0  0
  2 24  1  1  0  0  0
  4  8  1  6  0  0  0
  4  7  1  0  0  0  0
  4  6  1  0  0  0  0
  4 10  1  0  0  0  0
  5  2  1  0  0  0  0
  7  9  1  0  0  0  0
  9  3  1  6  0  0  0
  9  2  1  0  0  0  0
 10  5  1  1  0  0  0
 11 19  1  6  0  0  0
 11 10  1  0  0  0  0
 11 17  1  0  0  0  0
 13 11  1  0  0  0  0
 13 12  1  0  0  0  0
 14 18  1  6  0  0  0
 15 13  1  0  0  0  0
 16 14  1  0  0  0  0
 16 17  1  0  0  0  0
 20 13  1  0  0  0  0
 20 14  1  0  0  0  0
 21 28  1  0  0  0  0
 22 25  2  0  0  0  0
 23 27  1  0  0  0  0
 24 21  2  0  0  0  0
 24 22  1  0  0  0  0
 25 23  1  0  0  0  0
 26 22  1  0  0  0  0
 28 23  2  0  0  0  0
M  END
>  <MODEL>
1

>  <REMARK>
 VINA RESULT:      -6.6      0.000      0.000
  Name = 
  2 active torsions:
  status: ('A' for Active; 'I' for Inactive)
    1  A    between atoms: C_1  and  N_27
    2  A    between atoms: C_10  and  C_13
                            x       y       z     vdW  Elec       q    Type
                         _______ _______ _______ _____ _____    ______ ____

>  <TORSDO>
F 2

$$$$
=
 OpenBabel10262420573D

 28 30  0  0  1  0  0  0  0  0999 V2000
  189.5680  177.8960  135.1120 O   0  0  0  0  0  0  0  0  0  0  0  0
  188.4910  177.1060  138.4510 C   0  0  2  0  0  3  0  0  0  0  0  0
  189.0580  179.3180  137.4250 C   0  0  0  0  0  1  0  0  0  0  0  0
  189.4160  175.7040  136.0370 C   0  0  1  0  0  0  0  0  0  0  0  0
  188.4930  175.5750  138.2800 C   0  0  0  0  0  2  0  0  0  0  0  0
  190.6290  175.2300  136.5500 O   0  0  0  0  0  1  0  0  0  0  0  0
  189.4360  177.2110  136.1180 C   0  0  0  0  0  0  0  0  0  0  0  0
  189.3450  175.2050  134.5940 C   0  0  0  0  0  1  0  0  0  0  0  0
  189.4390  177.8430  137.4900 C   0  0  2  0  0  3  0  0  0  0  0  0
  188.3040  175.1730  136.8700 N   0  0  1  0  0  0  0  0  0  0  0  0
  186.8930  175.2920  136.3500 C   0  0  1  0  0  0  0  0  0  0  0  0
  186.1900  173.1810  137.5880 C   0  0  0  0  0  1  0  0  0  0  0  0
  186.2780  173.8640  136.2280 C   0  0  0  0  0  0  0  0  0  0  0  0
  183.8630  175.0140  136.6980 C   0  0  1  0  0  3  0  0  0  0  0  0
  187.1430  172.9860  135.3400 C   0  0  0  0  0  1  0  0  0  0  0  0
  184.5850  176.3460  136.6960 C   0  0  0  0  0  2  0  0  0  0  0  0
  185.9910  176.1720  137.2500 C   0  0  0  0  0  2  0  0  0  0  0  0
  182.4060  175.2330  136.3530 C   0  0  0  0  0  1  0  0  0  0  0  0
  186.8750  175.8890  135.0950 F   0  0  0  0  0  0  0  0  0  0  0  0
  184.6120  173.9070  135.4620 S   0  0  0  0  0  0  0  0  0  0  0  0
  189.9720  177.1360  140.4860 C   0  0  0  0  0  3  0  0  0  0  0  0
  187.7670  178.1410  140.6460 C   0  0  0  0  0  0  0  0  0  0  0  0
  189.2460  178.1290  142.5690 C   0  0  0  0  0  0  0  0  0  0  0  0
  188.7480  177.4730  139.8860 C   0  0  0  0  0  0  0  0  0  0  0  0
  188.0230  178.4660  141.9810 C   0  0  0  0  0  3  0  0  0  0  0  0
  186.4480  178.5150  140.0600 C   0  0  0  0  0  1  0  0  0  0  0  0
  189.4850  178.4450  143.8640 F   0  0  0  0  0  0  0  0  0  0  0  0
  190.2200  177.4640  141.8210 C   0  0  0  0  0  3  0  0  0  0  0  0
  1  7  2  0  0  0  0
  2 24  1  1  0  0  0
  4  8  1  6  0  0  0
  4  7  1  0  0  0  0
  4  6  1  0  0  0  0
  4 10  1  0  0  0  0
  5  2  1  0  0  0  0
  7  9  1  0  0  0  0
  9  3  1  6  0  0  0
  9  2  1  0  0  0  0
 10  5  1  1  0  0  0
 11 19  1  6  0  0  0
 11 10  1  0  0  0  0
 11 17  1  0  0  0  0
 13 11  1  0  0  0  0
 13 12  1  0  0  0  0
 14 18  1  6  0  0  0
 15 13  1  0  0  0  0
 16 14  1  0  0  0  0
 16 17  1  0  0  0  0
 20 13  1  0  0  0  0
 20 14  1  0  0  0  0
 21 28  1  0  0  0  0
 22 25  2  0  0  0  0
 23 27  1  0  0  0  0
 24 21  2  0  0  0  0
 24 22  1  0  0  0  0
 25 23  1  0  0  0  0
 26 22  1  0  0  0  0
 28 23  2  0  0  0  0
M  END
>  <MODEL>
2

>  <REMARK>
 VINA RESULT:      -6.6      5.411      6.994
  Name = 
  2 active torsions:
  status: ('A' for Active; 'I' for Inactive)
    1  A    between atoms: C_1  and  N_27
    2  A    between atoms: C_10  and  C_13
                            x       y       z     vdW  Elec       q    Type
                         _______ _______ _______ _____ _____    ______ ____

>  <TORSDO>
F 2

$$$$
=
 OpenBabel10262420573D

 28 30  0  0  1  0  0  0  0  0999 V2000
  180.9430  176.0780  140.0190 O   0  0  0  0  0  0  0  0  0  0  0  0
  183.5200  177.9300  138.3270 C   0  0  2  0  0  3  0  0  0  0  0  0
  182.9680  175.4910  138.2350 C   0  0  0  0  0  1  0  0  0  0  0  0
  181.5660  178.3310  140.4890 C   0  0  1  0  0  0  0  0  0  0  0  0
  183.2500  179.2810  139.0180 C   0  0  0  0  0  2  0  0  0  0  0  0
  182.4780  178.4490  141.5440 O   0  0  0  0  0  1  0  0  0  0  0  0
  181.7620  176.9740  139.8580 C   0  0  0  0  0  0  0  0  0  0  0  0
  180.1790  178.4840  141.1120 C   0  0  0  0  0  1  0  0  0  0  0  0
  183.0670  176.7090  139.1460 C   0  0  2  0  0  3  0  0  0  0  0  0
  181.8530  179.3940  139.4890 N   0  0  1  0  0  0  0  0  0  0  0  0
  180.8310  179.6670  138.4140 C   0  0  1  0  0  0  0  0  0  0  0  0
  181.5210  182.1150  138.2890 C   0  0  0  0  0  1  0  0  0  0  0  0
  180.3640  181.1510  138.5270 C   0  0  0  0  0  0  0  0  0  0  0  0
  179.9340  181.0750  135.8460 C   0  0  1  0  0  3  0  0  0  0  0  0
  179.8230  181.4350  139.9170 C   0  0  0  0  0  1  0  0  0  0  0  0
  180.3220  179.6120  135.9050 C   0  0  0  0  0  2  0  0  0  0  0  0
  181.3690  179.3990  136.9880 C   0  0  0  0  0  2  0  0  0  0  0  0
  179.0620  181.3150  134.6330 C   0  0  0  0  0  1  0  0  0  0  0  0
  179.7210  178.8440  138.5630 F   0  0  0  0  0  0  0  0  0  0  0  0
  179.0100  181.5270  137.3480 S   0  0  0  0  0  0  0  0  0  0  0  0
  185.9740  178.1500  138.8400 C   0  0  0  0  0  3  0  0  0  0  0  0
  185.3180  177.4310  136.6160 C   0  0  0  0  0  0  0  0  0  0  0  0
  187.6660  177.6710  137.1790 C   0  0  0  0  0  0  0  0  0  0  0  0
  184.9640  177.8300  137.9200 C   0  0  0  0  0  0  0  0  0  0  0  0
  186.6660  177.3520  136.2540 C   0  0  0  0  0  3  0  0  0  0  0  0
  184.2840  177.0860  135.5970 C   0  0  0  0  0  1  0  0  0  0  0  0
  188.9690  177.5940  136.8200 F   0  0  0  0  0  0  0  0  0  0  0  0
  187.3190  178.0700  138.4710 C   0  0  0  0  0  3  0  0  0  0  0  0
  2 24  1  1  0  0  0
  2  5  1  0  0  0  0
  2  9  1  0  0  0  0
  4  8  1  1  0  0  0
  4  6  1  0  0  0  0
  7  1  2  0  0  0  0
  7  4  1  0  0  0  0
  9  3  1  6  0  0  0
  9  7  1  0  0  0  0
 10  5  1  6  0  0  0
 10  4  1  0  0  0  0
 11 13  1  0  0  0  0
 11 19  1  1  0  0  0
 11 10  1  0  0  0  0
 12 13  1  0  0  0  0
 13 15  1  0  0  0  0
 14 18  1  6  0  0  0
 14 16  1  0  0  0  0
 14 20  1  0  0  0  0
 16 17  1  0  0  0  0
 17 11  1  0  0  0  0
 20 13  1  0  0  0  0
 22 24  1  0  0  0  0
 23 28  2  0  0  0  0
 24 21  2  0  0  0  0
 25 22  2  0  0  0  0
 25 23  1  0  0  0  0
 26 22  1  0  0  0  0
 27 23  1  0  0  0  0
 28 21  1  0  0  0  0
M  END
>  <MODEL>
3

>  <REMARK>
 VINA RESULT:      -6.3      3.110      4.947
  Name = 
  2 active torsions:
  status: ('A' for Active; 'I' for Inactive)
    1  A    between atoms: C_1  and  N_27
    2  A    between atoms: C_10  and  C_13
                            x       y       z     vdW  Elec       q    Type
                         _______ _______ _______ _____ _____    ______ ____

>  <TORSDO>
F 2

$$$$
=
 OpenBabel10262420573D

 28 30  0  0  1  0  0  0  0  0999 V2000
  183.7800  173.7160  137.9300 O   0  0  0  0  0  0  0  0  0  0  0  0
  183.6870  177.2870  137.5110 C   0  0  2  0  0  3  0  0  0  0  0  0
  182.6810  175.8510  139.2970 C   0  0  0  0  0  1  0  0  0  0  0  0
  184.4800  174.9020  135.9830 C   0  0  1  0  0  0  0  0  0  0  0  0
  184.4080  177.3240  136.1500 C   0  0  0  0  0  2  0  0  0  0  0  0
  183.4940  174.9790  134.9930 O   0  0  0  0  0  1  0  0  0  0  0  0
  183.7860  174.7770  137.3180 C   0  0  0  0  0  0  0  0  0  0  0  0
  185.3170  173.6670  135.6500 C   0  0  0  0  0  1  0  0  0  0  0  0
  182.9760  175.9550  137.8050 C   0  0  2  0  0  3  0  0  0  0  0  0
  185.2860  176.1510  135.9540 N   0  0  1  0  0  0  0  0  0  0  0  0
  186.5880  176.1870  136.7150 C   0  0  1  0  0  0  0  0  0  0  0  0
  187.5910  177.8330  135.0500 C   0  0  0  0  0  1  0  0  0  0  0  0
  187.7500  176.4700  135.7140 C   0  0  0  0  0  0  0  0  0  0  0  0
  189.0470  177.6750  137.7730 C   0  0  1  0  0  3  0  0  0  0  0  0
  187.7640  175.4300  134.6060 C   0  0  0  0  0  1  0  0  0  0  0  0
  187.8870  177.2500  138.6500 C   0  0  0  0  0  2  0  0  0  0  0  0
  186.6000  177.2530  137.8390 C   0  0  0  0  0  2  0  0  0  0  0  0
  190.2770  177.8780  138.6330 C   0  0  0  0  0  1  0  0  0  0  0  0
  186.8320  174.9710  137.3420 F   0  0  0  0  0  0  0  0  0  0  0  0
  189.3880  176.3840  136.5350 S   0  0  0  0  0  0  0  0  0  0  0  0
  181.6560  178.5830  136.7830 C   0  0  0  0  0  3  0  0  0  0  0  0
  182.9880  179.4550  138.6170 C   0  0  0  0  0  0  0  0  0  0  0  0
  181.0200  180.6540  137.8590 C   0  0  0  0  0  0  0  0  0  0  0  0
  182.7580  178.4620  137.6440 C   0  0  0  0  0  0  0  0  0  0  0  0
  182.1160  180.5440  138.7190 C   0  0  0  0  0  3  0  0  0  0  0  0
  184.1470  179.3780  139.5520 C   0  0  0  0  0  1  0  0  0  0  0  0
  180.1820  181.7130  137.9620 F   0  0  0  0  0  0  0  0  0  0  0  0
  180.7910  179.6740  136.8910 C   0  0  0  0  0  3  0  0  0  0  0  0
  2 24  1  6  0  0  0
  2  9  1  0  0  0  0
  4  8  1  6  0  0  0
  4  7  1  0  0  0  0
  5  2  1  0  0  0  0
  6  4  1  0  0  0  0
  7  9  1  0  0  0  0
  7  1  2  0  0  0  0
  9  3  1  1  0  0  0
 10  4  1  0  0  0  0
 10  5  1  1  0  0  0
 10 11  1  0  0  0  0
 11 19  1  1  0  0  0
 11 17  1  0  0  0  0
 12 13  1  0  0  0  0
 13 20  1  0  0  0  0
 13 11  1  0  0  0  0
 14 18  1  1  0  0  0
 14 16  1  0  0  0  0
 15 13  1  0  0  0  0
 17 16  1  0  0  0  0
 20 14  1  0  0  0  0
 21 28  2  0  0  0  0
 21 24  1  0  0  0  0
 22 25  1  0  0  0  0
 22 26  1  0  0  0  0
 23 27  1  0  0  0  0
 23 25  2  0  0  0  0
 24 22  2  0  0  0  0
 28 23  1  0  0  0  0
M  END
>  <MODEL>
4

>  <REMARK>
 VINA RESULT:      -6.0      4.183      7.103
  Name = 
  2 active torsions:
  status: ('A' for Active; 'I' for Inactive)
    1  A    between atoms: C_1  and  N_27
    2  A    between atoms: C_10  and  C_13
                            x       y       z     vdW  Elec       q    Type
                         _______ _______ _______ _____ _____    ______ ____

>  <TORSDO>
F 2

$$$$
=
 OpenBabel10262420573D

 28 30  0  0  1  0  0  0  0  0999 V2000
  185.3560  177.6860  137.0900 O   0  0  0  0  0  0  0  0  0  0  0  0
  183.2710  178.3630  139.9410 C   0  0  2  0  0  3  0  0  0  0  0  0
  185.5770  179.1760  139.4060 C   0  0  0  0  0  1  0  0  0  0  0  0
  183.3300  176.5490  137.6260 C   0  0  1  0  0  0  0  0  0  0  0  0
  182.1260  177.4060  139.5540 C   0  0  0  0  0  2  0  0  0  0  0  0
  183.5290  175.3560  138.3300 O   0  0  0  0  0  1  0  0  0  0  0  0
  184.4920  177.4650  137.9290 C   0  0  0  0  0  0  0  0  0  0  0  0
  183.2690  176.1630  136.1480 C   0  0  0  0  0  1  0  0  0  0  0  0
  184.6350  177.9800  139.3410 C   0  0  2  0  0  3  0  0  0  0  0  0
  182.0650  177.1750  138.0950 N   0  0  1  0  0  0  0  0  0  0  0  0
  181.4770  178.3060  137.2880 C   0  0  1  0  0  0  0  0  0  0  0  0
  179.1840  177.9480  138.3350 C   0  0  0  0  0  1  0  0  0  0  0  0
  179.9680  178.0100  137.0300 C   0  0  0  0  0  0  0  0  0  0  0  0
  179.5910  180.6990  136.9830 C   0  0  1  0  0  3  0  0  0  0  0  0
  179.7990  176.6670  136.3400 C   0  0  0  0  0  1  0  0  0  0  0  0
  181.0910  180.8330  137.1430 C   0  0  0  0  0  2  0  0  0  0  0  0
  181.6260  179.6820  137.9820 C   0  0  0  0  0  2  0  0  0  0  0  0
  179.0410  181.9530  136.3370 C   0  0  0  0  0  1  0  0  0  0  0  0
  182.1190  178.4270  136.0620 F   0  0  0  0  0  0  0  0  0  0  0  0
  179.2110  179.2660  135.9280 S   0  0  0  0  0  0  0  0  0  0  0  0
  184.5530  178.3120  142.1060 C   0  0  0  0  0  3  0  0  0  0  0  0
  182.1900  178.8670  142.1750 C   0  0  0  0  0  0  0  0  0  0  0  0
  183.4860  178.7930  144.2240 C   0  0  0  0  0  0  0  0  0  0  0  0
  183.3380  178.5210  141.4350 C   0  0  0  0  0  0  0  0  0  0  0  0
  182.2720  179.0010  143.5640 C   0  0  0  0  0  3  0  0  0  0  0  0
  180.8730  179.0940  141.5120 C   0  0  0  0  0  1  0  0  0  0  0  0
  183.5570  178.9230  145.5700 F   0  0  0  0  0  0  0  0  0  0  0  0
  184.6260  178.4480  143.4950 C   0  0  0  0  0  3  0  0  0  0  0  0
  1  7  2  0  0  0  0
  2 24  1  1  0  0  0
  4  8  1  6  0  0  0
  4  7  1  0  0  0  0
  4 10  1  0  0  0  0
  4  6  1  0  0  0  0
  5  2  1  0  0  0  0
  7  9  1  0  0  0  0
  9  3  1  6  0  0  0
  9  2  1  0  0  0  0
 10  5  1  1  0  0  0
 11 19  1  6  0  0  0
 11 17  1  0  0  0  0
 11 10  1  0  0  0  0
 13 11  1  0  0  0  0
 13 12  1  0  0  0  0
 14 18  1  6  0  0  0
 14 16  1  0  0  0  0
 15 13  1  0  0  0  0
 16 17  1  0  0  0  0
 20 14  1  0  0  0  0
 20 13  1  0  0  0  0
 21 28  1  0  0  0  0
 22 25  2  0  0  0  0
 23 27  1  0  0  0  0
 24 21  2  0  0  0  0
 24 22  1  0  0  0  0
 25 23  1  0  0  0  0
 26 22  1  0  0  0  0
 28 23  2  0  0  0  0
M  END
>  <MODEL>
5

>  <REMARK>
 VINA RESULT:      -5.9      1.314      1.454
  Name = 
  2 active torsions:
  status: ('A' for Active; 'I' for Inactive)
    1  A    between atoms: C_1  and  N_27
    2  A    between atoms: C_10  and  C_13
                            x       y       z     vdW  Elec       q    Type
                         _______ _______ _______ _____ _____    ______ ____

>  <TORSDO>
F 2

$$$$
=
 OpenBabel10262420573D

 28 30  0  0  1  0  0  0  0  0999 V2000
  178.9310  179.2270  140.5400 O   0  0  0  0  0  0  0  0  0  0  0  0
  182.3110  178.5110  141.5400 C   0  0  2  0  0  3  0  0  0  0  0  0
  180.1730  178.2910  142.8230 C   0  0  0  0  0  1  0  0  0  0  0  0
  180.8920  179.8310  139.3260 C   0  0  1  0  0  0  0  0  0  0  0  0
  182.9880  179.0270  140.2560 C   0  0  0  0  0  2  0  0  0  0  0  0
  181.3250  181.1370  139.5810 O   0  0  0  0  0  1  0  0  0  0  0  0
  180.1500  179.3440  140.5470 C   0  0  0  0  0  0  0  0  0  0  0  0
  179.9880  179.9180  138.0970 C   0  0  0  0  0  1  0  0  0  0  0  0
  180.9380  179.1470  141.8210 C   0  0  2  0  0  3  0  0  0  0  0  0
  182.0820  178.9710  139.0890 N   0  0  1  0  0  0  0  0  0  0  0  0
  181.8730  177.5970  138.5020 C   0  0  1  0  0  0  0  0  0  0  0  0
  184.1100  177.7030  137.2900 C   0  0  0  0  0  1  0  0  0  0  0  0
  182.6050  177.5190  137.1270 C   0  0  0  0  0  0  0  0  0  0  0  0
  182.9240  174.8640  137.6030 C   0  0  1  0  0  3  0  0  0  0  0  0
  182.1160  178.6190  136.1990 C   0  0  0  0  0  1  0  0  0  0  0  0
  182.1130  175.0740  138.8660 C   0  0  0  0  0  2  0  0  0  0  0  0
  182.3790  176.4630  139.4260 C   0  0  0  0  0  2  0  0  0  0  0  0
  182.8220  173.4160  137.1760 C   0  0  0  0  0  1  0  0  0  0  0  0
  180.5210  177.3450  138.2960 F   0  0  0  0  0  0  0  0  0  0  0  0
  182.2790  175.9280  136.2750 S   0  0  0  0  0  0  0  0  0  0  0  0
  182.7240  178.9110  143.9900 C   0  0  0  0  0  3  0  0  0  0  0  0
  184.6350  178.5150  142.5440 C   0  0  0  0  0  0  0  0  0  0  0  0
  184.9600  178.9140  144.9150 C   0  0  0  0  0  0  0  0  0  0  0  0
  183.2420  178.6430  142.7120 C   0  0  0  0  0  0  0  0  0  0  0  0
  185.4840  178.6500  143.6460 C   0  0  0  0  0  3  0  0  0  0  0  0
  185.2370  178.2370  141.2080 C   0  0  0  0  0  1  0  0  0  0  0  0
  185.7900  179.0450  145.9770 F   0  0  0  0  0  0  0  0  0  0  0  0
  183.5800  179.0450  145.0860 C   0  0  0  0  0  3  0  0  0  0  0  0
  1  7  2  0  0  0  0
  2  9  1  0  0  0  0
  2 24  1  1  0  0  0
  4  8  1  6  0  0  0
  4  6  1  0  0  0  0
  4  7  1  0  0  0  0
  5  2  1  0  0  0  0
  7  9  1  0  0  0  0
  9  3  1  1  0  0  0
 10  4  1  0  0  0  0
 10  5  1  1  0  0  0
 11 19  1  6  0  0  0
 11 10  1  0  0  0  0
 11 17  1  0  0  0  0
 13 12  1  0  0  0  0
 13 11  1  0  0  0  0
 14 18  1  6  0  0  0
 14 16  1  0  0  0  0
 15 13  1  0  0  0  0
 16 17  1  0  0  0  0
 20 13  1  0  0  0  0
 20 14  1  0  0  0  0
 21 28  1  0  0  0  0
 22 24  1  0  0  0  0
 22 25  2  0  0  0  0
 23 28  2  0  0  0  0
 23 27  1  0  0  0  0
 24 21  2  0  0  0  0
 25 23  1  0  0  0  0
 26 22  1  0  0  0  0
M  END
>  <MODEL>
6

>  <REMARK>
 VINA RESULT:      -5.8      2.242      4.473
  Name = 
  2 active torsions:
  status: ('A' for Active; 'I' for Inactive)
    1  A    between atoms: C_1  and  N_27
    2  A    between atoms: C_10  and  C_13
                            x       y       z     vdW  Elec       q    Type
                         _______ _______ _______ _____ _____    ______ ____

>  <TORSDO>
F 2

$$$$
=
 OpenBabel10262420573D

 28 30  0  0  1  0  0  0  0  0999 V2000
  187.4630  178.3980  134.7890 O   0  0  0  0  0  0  0  0  0  0  0  0
  187.6380  177.6000  138.2910 C   0  0  2  0  0  3  0  0  0  0  0  0
  188.8200  179.3790  136.9860 C   0  0  0  0  0  1  0  0  0  0  0  0
  186.5530  176.4460  135.8120 C   0  0  1  0  0  0  0  0  0  0  0  0
  186.7430  176.3480  138.2320 C   0  0  0  0  0  2  0  0  0  0  0  0
  187.3990  175.3330  135.7390 O   0  0  0  0  0  1  0  0  0  0  0  0
  187.4160  177.6850  135.7830 C   0  0  0  0  0  0  0  0  0  0  0  0
  185.6310  176.3560  134.5960 C   0  0  0  0  0  1  0  0  0  0  0  0
  188.3300  177.9360  136.9590 C   0  0  2  0  0  3  0  0  0  0  0  0
  185.8010  176.3920  137.0930 N   0  0  1  0  0  0  0  0  0  0  0  0
  184.6160  177.3080  137.2730 C   0  0  1  0  0  0  0  0  0  0  0  0
  183.4220  175.5870  138.7220 C   0  0  0  0  0  1  0  0  0  0  0  0
  183.3330  176.4420  137.4630 C   0  0  0  0  0  0  0  0  0  0  0  0
  182.3490  178.4780  138.9680 C   0  0  1  0  0  3  0  0  0  0  0  0
  183.1500  175.4950  136.2890 C   0  0  0  0  0  1  0  0  0  0  0  0
  183.6120  179.2400  138.6210 C   0  0  0  0  0  2  0  0  0  0  0  0
  184.7760  178.2710  138.4750 C   0  0  0  0  0  2  0  0  0  0  0  0
  181.2520  179.4580  139.3240 C   0  0  0  0  0  1  0  0  0  0  0  0
  184.4400  178.1180  136.1570 F   0  0  0  0  0  0  0  0  0  0  0  0
  181.8210  177.4790  137.5410 S   0  0  0  0  0  0  0  0  0  0  0  0
  189.8670  176.8760  139.2080 C   0  0  0  0  0  3  0  0  0  0  0  0
  188.3040  177.9770  140.7050 C   0  0  0  0  0  0  0  0  0  0  0  0
  190.4680  177.2470  141.5220 C   0  0  0  0  0  0  0  0  0  0  0  0
  188.6220  177.4870  139.4220 C   0  0  0  0  0  0  0  0  0  0  0  0
  189.2290  177.8540  141.7460 C   0  0  0  0  0  3  0  0  0  0  0  0
  186.9920  178.6280  140.9880 C   0  0  0  0  0  1  0  0  0  0  0  0
  191.3580  177.1310  142.5360 F   0  0  0  0  0  0  0  0  0  0  0  0
  190.7870  176.7580  140.2530 C   0  0  0  0  0  3  0  0  0  0  0  0
  1  7  2  0  0  0  0
  2 24  1  1  0  0  0
  4  8  1  6  0  0  0
  4 10  1  0  0  0  0
  5  2  1  0  0  0  0
  6  4  1  0  0  0  0
  7  4  1  0  0  0  0
  7  9  1  0  0  0  0
  9  3  1  1  0  0  0
  9  2  1  0  0  0  0
 10 11  1  0  0  0  0
 10  5  1  1  0  0  0
 11 19  1  6  0  0  0
 11 13  1  0  0  0  0
 11 17  1  0  0  0  0
 13 20  1  0  0  0  0
 13 12  1  0  0  0  0
 14 18  1  6  0  0  0
 15 13  1  0  0  0  0
 16 14  1  0  0  0  0
 17 16  1  0  0  0  0
 20 14  1  0  0  0  0
 21 24  2  0  0  0  0
 21 28  1  0  0  0  0
 22 26  1  0  0  0  0
 22 25  2  0  0  0  0
 23 25  1  0  0  0  0
 23 27  1  0  0  0  0
 24 22  1  0  0  0  0
 28 23  2  0  0  0  0
M  END
>  <MODEL>
7

>  <REMARK>
 VINA RESULT:      -5.7      3.772      5.305
  Name = 
  2 active torsions:
  status: ('A' for Active; 'I' for Inactive)
    1  A    between atoms: C_1  and  N_27
    2  A    between atoms: C_10  and  C_13
                            x       y       z     vdW  Elec       q    Type
                         _______ _______ _______ _____ _____    ______ ____

>  <TORSDO>
F 2

$$$$
=
 OpenBabel10262420573D

 28 30  0  0  1  0  0  0  0  0999 V2000
  187.2730  178.2500  140.0820 O   0  0  0  0  0  0  0  0  0  0  0  0
  189.3360  176.2000  137.9670 C   0  0  2  0  0  3  0  0  0  0  0  0
  189.4920  176.6410  140.4260 C   0  0  0  0  0  1  0  0  0  0  0  0
  187.2130  178.2180  137.6990 C   0  0  1  0  0  0  0  0  0  0  0  0
  188.6560  176.5790  136.6370 C   0  0  0  0  0  2  0  0  0  0  0  0
  187.9860  179.2240  137.1090 O   0  0  0  0  0  1  0  0  0  0  0  0
  187.8190  177.8980  139.0440 C   0  0  0  0  0  0  0  0  0  0  0  0
  185.8010  178.7900  137.8230 C   0  0  0  0  0  1  0  0  0  0  0  0
  189.1890  177.2640  139.0680 C   0  0  2  0  0  3  0  0  0  0  0  0
  187.2560  177.0110  136.8320 N   0  0  1  0  0  0  0  0  0  0  0  0
  186.2690  175.9010  137.0920 C   0  0  1  0  0  0  0  0  0  0  0  0
  186.0430  175.4290  134.6000 C   0  0  0  0  0  1  0  0  0  0  0  0
  185.2970  175.7940  135.8780 C   0  0  0  0  0  0  0  0  0  0  0  0
  185.0820  173.1500  136.4570 C   0  0  1  0  0  3  0  0  0  0  0  0
  184.6070  177.1260  135.6290 C   0  0  0  0  0  1  0  0  0  0  0  0
  185.9640  173.4220  137.6580 C   0  0  0  0  0  2  0  0  0  0  0  0
  186.9520  174.5310  137.3320 C   0  0  0  0  0  2  0  0  0  0  0  0
  184.2550  171.9080  136.7120 C   0  0  0  0  0  1  0  0  0  0  0  0
  185.5220  176.1580  138.2350 F   0  0  0  0  0  0  0  0  0  0  0  0
  183.9700  174.5640  136.1770 S   0  0  0  0  0  0  0  0  0  0  0  0
  191.7900  176.7520  138.0150 C   0  0  0  0  0  3  0  0  0  0  0  0
  191.1140  174.5600  137.2190 C   0  0  0  0  0  0  0  0  0  0  0  0
  193.4630  175.1630  137.2870 C   0  0  0  0  0  0  0  0  0  0  0  0
  190.7730  175.8270  137.7330 C   0  0  0  0  0  0  0  0  0  0  0  0
  192.4570  174.2360  137.0010 C   0  0  0  0  0  3  0  0  0  0  0  0
  190.0720  173.5420  136.8970 C   0  0  0  0  0  1  0  0  0  0  0  0
  194.7610  174.8420  137.0710 F   0  0  0  0  0  0  0  0  0  0  0  0
  193.1290  176.4210  137.7940 C   0  0  0  0  0  3  0  0  0  0  0  0
  2 24  1  6  0  0  0
  2  9  1  0  0  0  0
  4  8  1  1  0  0  0
  4  7  1  0  0  0  0
  5  2  1  0  0  0  0
  6  4  1  0  0  0  0
  7  9  1  0  0  0  0
  7  1  2  0  0  0  0
  9  3  1  1  0  0  0
 10  5  1  1  0  0  0
 10 11  1  0  0  0  0
 10  4  1  0  0  0  0
 11 17  1  0  0  0  0
 11 19  1  1  0  0  0
 12 13  1  0  0  0  0
 13 20  1  0  0  0  0
 13 11  1  0  0  0  0
 14 18  1  1  0  0  0
 14 16  1  0  0  0  0
 15 13  1  0  0  0  0
 17 16  1  0  0  0  0
 20 14  1  0  0  0  0
 22 24  1  0  0  0  0
 23 28  2  0  0  0  0
 24 21  2  0  0  0  0
 25 22  2  0  0  0  0
 25 23  1  0  0  0  0
 26 22  1  0  0  0  0
 27 23  1  0  0  0  0
 28 21  1  0  0  0  0
M  END
>  <MODEL>
8

>  <REMARK>
 VINA RESULT:      -5.7      6.065      8.659
  Name = 
  2 active torsions:
  status: ('A' for Active; 'I' for Inactive)
    1  A    between atoms: C_1  and  N_27
    2  A    between atoms: C_10  and  C_13
                            x       y       z     vdW  Elec       q    Type
                         _______ _______ _______ _____ _____    ______ ____

>  <TORSDO>
F 2

$$$$
=
 OpenBabel10262420573D

 28 30  0  0  1  0  0  0  0  0999 V2000
  185.1830  174.5480  136.3200 O   0  0  0  0  0  0  0  0  0  0  0  0
  184.4960  177.5280  138.2130 C   0  0  2  0  0  3  0  0  0  0  0  0
  183.4430  175.2610  138.3430 C   0  0  0  0  0  1  0  0  0  0  0  0
  186.0230  176.7250  135.8300 C   0  0  1  0  0  0  0  0  0  0  0  0
  185.4570  178.4530  137.4410 C   0  0  0  0  0  2  0  0  0  0  0  0
  185.2620  177.4160  134.8800 O   0  0  0  0  0  1  0  0  0  0  0  0
  185.1100  175.7510  136.5350 C   0  0  0  0  0  0  0  0  0  0  0  0
  187.1300  176.0170  135.0500 C   0  0  0  0  0  1  0  0  0  0  0  0
  184.0080  176.3160  137.4000 C   0  0  2  0  0  3  0  0  0  0  0  0
  186.5640  177.7020  136.8110 N   0  0  1  0  0  0  0  0  0  0  0  0
  187.6540  177.2520  137.7520 C   0  0  1  0  0  0  0  0  0  0  0  0
  189.0550  179.3100  137.2200 C   0  0  0  0  0  1  0  0  0  0  0  0
  189.0230  177.7860  137.2320 C   0  0  0  0  0  0  0  0  0  0  0  0
  189.8340  177.8330  139.8230 C   0  0  1  0  0  3  0  0  0  0  0  0
  189.2700  177.3220  135.8060 C   0  0  0  0  0  1  0  0  0  0  0  0
  188.4910  177.2230  140.1720 C   0  0  0  0  0  2  0  0  0  0  0  0
  187.4290  177.7290  139.2080 C   0  0  0  0  0  2  0  0  0  0  0  0
  190.8340  177.4990  140.9090 C   0  0  0  0  0  1  0  0  0  0  0  0
  187.7160  175.8650  137.8120 F   0  0  0  0  0  0  0  0  0  0  0  0
  190.4230  177.1590  138.2380 S   0  0  0  0  0  0  0  0  0  0  0  0
  182.4170  178.9160  137.9250 C   0  0  0  0  0  3  0  0  0  0  0  0
  183.2150  178.4830  140.1770 C   0  0  0  0  0  0  0  0  0  0  0  0
  181.2210  179.8180  139.8240 C   0  0  0  0  0  0  0  0  0  0  0  0
  183.3530  178.3190  138.7840 C   0  0  0  0  0  0  0  0  0  0  0  0
  182.1490  179.2300  140.6870 C   0  0  0  0  0  3  0  0  0  0  0  0
  184.1850  177.8760  141.1340 C   0  0  0  0  0  1  0  0  0  0  0  0
  180.1920  180.5420  140.3260 F   0  0  0  0  0  0  0  0  0  0  0  0
  181.3550  179.6610  138.4420 C   0  0  0  0  0  3  0  0  0  0  0  0
  1  7  2  0  0  0  0
  2 24  1  6  0  0  0
  4  8  1  6  0  0  0
  4  7  1  0  0  0  0
  4 10  1  0  0  0  0
  5  2  1  0  0  0  0
  6  4  1  0  0  0  0
  7  9  1  0  0  0  0
  9  2  1  0  0  0  0
  9  3  1  1  0  0  0
 10  5  1  1  0  0  0
 10 11  1  0  0  0  0
 11 19  1  6  0  0  0
 11 17  1  0  0  0  0
 12 13  1  0  0  0  0
 13 11  1  0  0  0  0
 13 20  1  0  0  0  0
 14 16  1  0  0  0  0
 14 18  1  1  0  0  0
 15 13  1  0  0  0  0
 17 16  1  0  0  0  0
 20 14  1  0  0  0  0
 21 28  2  0  0  0  0
 21 24  1  0  0  0  0
 22 25  1  0  0  0  0
 22 26  1  0  0  0  0
 23 27  1  0  0  0  0
 23 25  2  0  0  0  0
 24 22  2  0  0  0  0
 28 23  1  0  0  0  0
M  END
>  <MODEL>
9

>  <REMARK>
 VINA RESULT:      -5.7      4.128      7.019
  Name = 
  2 active torsions:
  status: ('A' for Active; 'I' for Inactive)
    1  A    between atoms: C_1  and  N_27
    2  A    between atoms: C_10  and  C_13
                            x       y       z     vdW  Elec       q    Type
                         _______ _______ _______ _____ _____    ______ ____

>  <TORSDO>
F 2

$$$$
