=
 OpenBabel10262422143D

 43 48  0  0  1  0  0  0  0  0999 V2000
  185.4020  178.3260  145.3620 C   0  0  0  0  0  0  0  0  0  0  0  0
  182.4040  178.4310  141.2320 N   0  0  1  0  0  0  0  0  0  0  0  0
  184.2040  178.9780  138.9560 C   0  0  2  0  0  3  0  0  0  0  0  0
  183.4130  178.3920  143.7810 C   0  0  1  0  0  3  0  0  0  0  0  0
  186.2040  178.0240  144.3280 C   0  0  0  0  0  3  0  0  0  0  0  0
  185.9430  178.4290  146.6010 F   0  0  0  0  0  0  0  0  0  0  0  0
  184.4440  178.7320  142.6970 C   0  0  1  0  0  3  0  0  0  0  0  0
  183.9570  178.7250  145.1710 C   0  0  0  0  0  2  0  0  0  0  0  0
  185.6930  177.8900  142.9200 C   0  0  0  0  0  2  0  0  0  0  0  0
  184.4460  179.4240  140.3370 N   0  0  0  0  0  2  0  0  0  0  0  0
  183.8890  178.4610  141.2900 C   0  0  2  0  0  3  0  0  0  0  0  0
  181.8480  179.4760  142.0920 C   0  0  0  0  0  2  0  0  0  0  0  0
  181.8880  178.6600  139.8720 C   0  0  1  0  0  3  0  0  0  0  0  0
  182.8720  178.2380  138.7850 C   0  0  0  0  0  2  0  0  0  0  0  0
  182.0920  179.1340  143.5640 C   0  0  0  0  0  2  0  0  0  0  0  0
  185.3400  178.1560  138.4240 C   0  0  0  0  0  0  0  0  0  0  0  0
  186.6820  178.5920  138.6520 N   0  0  0  0  0  2  0  0  0  0  0  0
  185.1170  177.0950  137.7810 O   0  0  0  0  0  0  0  0  0  0  0  0
  189.1230  178.5660  138.5470 C   0  0  0  0  0  2  0  0  0  0  0  0
  188.7220  177.3730  139.3920 C   0  0  2  0  0  3  0  0  0  0  0  0
  187.8440  177.8220  138.2180 C   0  0  1  0  0  3  0  0  0  0  0  0
  188.2820  177.8680  140.7710 C   0  0  2  0  0  3  0  0  0  0  0  0
  188.4930  179.3710  140.8870 C   0  0  0  0  0  1  0  0  0  0  0  0
  188.9630  177.0870  141.9100 C   0  0  1  0  0  3  0  0  0  0  0  0
  190.2540  176.3950  141.4820 C   0  0  0  0  0  2  0  0  0  0  0  0
  191.4450  177.3060  141.7050 C   0  0  0  0  0  1  0  0  0  0  0  0
  189.2370  178.0000  143.0970 C   0  0  0  0  0  2  0  0  0  0  0  0
  189.1670  177.2640  144.2890 O   0  0  0  0  0  0  0  0  0  0  0  0
  189.2870  177.8620  146.7080 C   0  0  0  0  0  2  0  0  0  0  0  0
  191.4190  177.6570  145.2610 C   0  0  0  0  0  2  0  0  0  0  0  0
  191.2690  176.5390  147.4990 C   0  0  0  0  0  2  0  0  0  0  0  0
  191.8020  176.4210  146.0750 C   0  0  0  0  0  2  0  0  0  0  0  0
  189.7460  176.6230  147.4780 C   0  0  0  0  0  2  0  0  0  0  0  0
  189.9070  177.9170  145.3000 C   0  0  0  0  0  3  0  0  0  0  0  0
  180.4910  178.0430  139.6740 C   0  0  0  0  0  2  0  0  0  0  0  0
  179.9770  174.9750  137.3540 C   0  0  0  0  0  2  0  0  0  0  0  0
  179.6910  173.9340  138.4160 C   0  0  0  0  0  0  0  0  0  0  0  0
  179.7630  175.6620  140.2260 C   0  0  0  0  0  2  0  0  0  0  0  0
  179.7790  176.4080  137.8400 C   0  0  0  0  0  2  0  0  0  0  0  0
  180.4320  176.5810  139.2070 C   0  0  1  0  0  3  0  0  0  0  0  0
  179.6480  174.2540  139.7160 C   0  0  0  0  0  3  0  0  0  0  0  0
  180.5400  171.8560  137.3880 C   0  0  0  0  0  1  0  0  0  0  0  0
  179.5310  172.5920  138.0650 O   0  0  0  0  0  0  0  0  0  0  0  0
  1  6  1  0  0  0  0
  2 11  1  0  0  0  0
  2 12  1  1  0  0  0
  3 16  1  1  0  0  0
  3 10  1  0  0  0  0
  4 15  1  6  0  0  0
  4  8  1  0  0  0  0
  5  1  2  0  0  0  0
  7  9  1  1  0  0  0
  7  4  1  0  0  0  0
  8  1  1  0  0  0  0
  9  5  1  0  0  0  0
 11 10  1  6  0  0  0
 11  7  1  0  0  0  0
 12 15  1  0  0  0  0
 13 35  1  6  0  0  0
 13  2  1  0  0  0  0
 14  3  1  0  0  0  0
 14 13  1  0  0  0  0
 16 17  1  0  0  0  0
 18 16  2  0  0  0  0
 19 20  1  0  0  0  0
 20 22  1  1  0  0  0
 21 19  1  0  0  0  0
 21 17  1  1  0  0  0
 21 20  1  0  0  0  0
 22 23  1  1  0  0  0
 22 24  1  0  0  0  0
 24 25  1  6  0  0  0
 24 27  1  0  0  0  0
 25 26  1  0  0  0  0
 27 28  1  0  0  0  0
 28 34  1  0  0  0  0
 29 33  1  0  0  0  0
 30 34  1  0  0  0  0
 30 32  1  0  0  0  0
 32 31  1  0  0  0  0
 33 31  1  0  0  0  0
 34 29  1  0  0  0  0
 36 39  1  0  0  0  0
 36 37  1  0  0  0  0
 37 41  2  0  0  0  0
 39 40  1  0  0  0  0
 40 35  1  1  0  0  0
 40 38  1  0  0  0  0
 41 38  1  0  0  0  0
 42 43  1  0  0  0  0
 43 37  1  0  0  0  0
M  END
>  <MODEL>
1

>  <REMARK>
 VINA RESULT:      -8.8      0.000      0.000
  Name = 
  11 active torsions:
  status: ('A' for Active; 'I' for Inactive)
    1  A    between atoms: C_1  and  C_34
    2  A    between atoms: C_1  and  C_35
    3  A    between atoms: C_2  and  C_13
    4  A    between atoms: C_4  and  C_12
    5  A    between atoms: C_4  and  C_22
    6  A    between atoms: N_6  and  C_17
    7  A    between atoms: C_10  and  C_22
    8  A    between atoms: C_14  and  C_22
    9  A    between atoms: C_14  and  O_41
   10  A    between atoms: C_19  and  O_37
   11  A    between atoms: C_40  and  O_41
                            x       y       z     vdW  Elec       q    Type
                         _______ _______ _______ _____ _____    ______ ____

>  <TORSDO>
F 11

$$$$
=
 OpenBabel10262422143D

 43 48  0  0  1  0  0  0  0  0999 V2000
  194.5380  174.8810  135.4590 C   0  0  0  0  0  0  0  0  0  0  0  0
  190.2260  177.0680  137.0940 N   0  0  1  0  0  0  0  0  0  0  0  0
  190.0220  176.3820  139.9590 C   0  0  2  0  0  3  0  0  0  0  0  0
  192.2870  176.0520  135.5990 C   0  0  1  0  0  3  0  0  0  0  0  0
  194.7030  175.0560  136.7800 C   0  0  0  0  0  3  0  0  0  0  0  0
  195.5170  174.2600  134.7550 F   0  0  0  0  0  0  0  0  0  0  0  0
  192.2730  175.5830  137.0590 C   0  0  1  0  0  3  0  0  0  0  0  0
  193.2340  175.1920  134.7620 C   0  0  0  0  0  2  0  0  0  0  0  0
  193.6720  175.7330  137.6410 C   0  0  0  0  0  2  0  0  0  0  0  0
  190.6990  175.5540  138.9490 N   0  0  0  0  0  2  0  0  0  0  0  0
  191.2790  176.3980  137.9010 C   0  0  2  0  0  3  0  0  0  0  0  0
  189.7800  176.1830  136.0170 C   0  0  0  0  0  2  0  0  0  0  0  0
  189.0390  177.4190  137.8940 C   0  0  1  0  0  3  0  0  0  0  0  0
  189.3620  177.6340  139.3690 C   0  0  0  0  0  2  0  0  0  0  0  0
  190.8890  176.0190  134.9760 C   0  0  0  0  0  2  0  0  0  0  0  0
  190.9360  176.7470  141.0910 C   0  0  0  0  0  0  0  0  0  0  0  0
  190.6670  176.2330  142.3970 N   0  0  0  0  0  2  0  0  0  0  0  0
  191.9280  177.5000  140.8960 O   0  0  0  0  0  0  0  0  0  0  0  0
  191.6080  177.9810  143.8220 C   0  0  0  0  0  2  0  0  0  0  0  0
  190.7780  177.0940  144.7300 C   0  0  2  0  0  3  0  0  0  0  0  0
  191.5370  176.4930  143.5400 C   0  0  1  0  0  3  0  0  0  0  0  0
  189.2950  177.3830  144.4870 C   0  0  2  0  0  3  0  0  0  0  0  0
  189.1110  178.8030  143.9680 C   0  0  0  0  0  1  0  0  0  0  0  0
  188.4390  177.0960  145.7340 C   0  0  1  0  0  3  0  0  0  0  0  0
  189.2110  177.2270  147.0430 C   0  0  0  0  0  2  0  0  0  0  0  0
  188.2650  177.5140  148.1930 C   0  0  0  0  0  1  0  0  0  0  0  0
  187.2160  178.0020  145.7650 C   0  0  0  0  0  2  0  0  0  0  0  0
  186.2890  177.5840  144.7980 O   0  0  0  0  0  0  0  0  0  0  0  0
  185.6940  178.5640  142.5830 C   0  0  0  0  0  2  0  0  0  0  0  0
  184.5250  179.3320  144.7570 C   0  0  0  0  0  2  0  0  0  0  0  0
  183.1930  178.7380  142.7180 C   0  0  0  0  0  2  0  0  0  0  0  0
  183.2380  178.6870  144.2420 C   0  0  0  0  0  2  0  0  0  0  0  0
  184.3650  177.9540  142.1380 C   0  0  0  0  0  2  0  0  0  0  0  0
  185.7700  178.7050  144.1140 C   0  0  0  0  0  3  0  0  0  0  0  0
  188.2600  178.5970  137.2820 C   0  0  0  0  0  2  0  0  0  0  0  0
  184.5250  178.3350  138.3030 C   0  0  0  0  0  2  0  0  0  0  0  0
  184.0210  177.5410  137.1150 C   0  0  0  0  0  0  0  0  0  0  0  0
  186.3380  177.3220  136.1930 C   0  0  0  0  0  2  0  0  0  0  0  0
  186.0360  178.2450  138.4970 C   0  0  0  0  0  2  0  0  0  0  0  0
  186.7370  178.4370  137.1560 C   0  0  1  0  0  3  0  0  0  0  0  0
  184.8480  177.1350  136.1440 C   0  0  0  0  0  3  0  0  0  0  0  0
  182.0670  176.9790  135.7150 C   0  0  0  0  0  1  0  0  0  0  0  0
  182.6590  177.2700  136.9740 O   0  0  0  0  0  0  0  0  0  0  0  0
  1  5  2  0  0  0  0
  2 12  1  6  0  0  0
  2 13  1  0  0  0  0
  2 11  1  0  0  0  0
  3 16  1  1  0  0  0
  4  8  1  6  0  0  0
  4  7  1  0  0  0  0
  5  9  1  0  0  0  0
  6  1  1  0  0  0  0
  7  9  1  1  0  0  0
  7 11  1  0  0  0  0
  8  1  1  0  0  0  0
 10  3  1  0  0  0  0
 11 10  1  1  0  0  0
 13 35  1  6  0  0  0
 13 14  1  0  0  0  0
 14  3  1  0  0  0  0
 15  4  1  0  0  0  0
 15 12  1  0  0  0  0
 16 17  1  0  0  0  0
 18 16  2  0  0  0  0
 19 20  1  0  0  0  0
 20 22  1  6  0  0  0
 21 17  1  6  0  0  0
 21 19  1  0  0  0  0
 21 20  1  0  0  0  0
 22 23  1  1  0  0  0
 22 24  1  0  0  0  0
 24 27  1  1  0  0  0
 24 25  1  0  0  0  0
 25 26  1  0  0  0  0
 28 27  1  0  0  0  0
 29 34  1  0  0  0  0
 31 32  1  0  0  0  0
 32 30  1  0  0  0  0
 33 29  1  0  0  0  0
 33 31  1  0  0  0  0
 34 30  1  0  0  0  0
 34 28  1  0  0  0  0
 36 39  1  0  0  0  0
 37 36  1  0  0  0  0
 38 40  1  0  0  0  0
 40 35  1  1  0  0  0
 40 39  1  0  0  0  0
 41 38  1  0  0  0  0
 41 37  2  0  0  0  0
 42 43  1  0  0  0  0
 43 37  1  0  0  0  0
M  END
>  <MODEL>
2

>  <REMARK>
 VINA RESULT:      -8.2      3.954      8.179
  Name = 
  11 active torsions:
  status: ('A' for Active; 'I' for Inactive)
    1  A    between atoms: C_1  and  C_34
    2  A    between atoms: C_1  and  C_35
    3  A    between atoms: C_2  and  C_13
    4  A    between atoms: C_4  and  C_12
    5  A    between atoms: C_4  and  C_22
    6  A    between atoms: N_6  and  C_17
    7  A    between atoms: C_10  and  C_22
    8  A    between atoms: C_14  and  C_22
    9  A    between atoms: C_14  and  O_41
   10  A    between atoms: C_19  and  O_37
   11  A    between atoms: C_40  and  O_41
                            x       y       z     vdW  Elec       q    Type
                         _______ _______ _______ _____ _____    ______ ____

>  <TORSDO>
F 11

$$$$
=
 OpenBabel10262422143D

 43 48  0  0  1  0  0  0  0  0999 V2000
  182.9120  178.8370  143.5830 C   0  0  0  0  0  0  0  0  0  0  0  0
  187.9890  178.4130  143.2670 N   0  0  1  0  0  0  0  0  0  0  0  0
  188.5390  177.4800  140.5190 C   0  0  2  0  0  3  0  0  0  0  0  0
  185.3950  178.7010  144.1070 C   0  0  1  0  0  3  0  0  0  0  0  0
  183.2020  178.9600  142.2770 C   0  0  0  0  0  3  0  0  0  0  0  0
  181.6120  178.8550  143.9680 F   0  0  0  0  0  0  0  0  0  0  0  0
  185.5410  178.1680  142.6770 C   0  0  1  0  0  3  0  0  0  0  0  0
  183.9660  178.5090  144.6150 C   0  0  0  0  0  2  0  0  0  0  0  0
  184.6130  178.9520  141.7580 C   0  0  0  0  0  2  0  0  0  0  0  0
  187.3050  177.1920  141.2660 N   0  0  0  0  0  2  0  0  0  0  0  0
  186.9880  178.2990  142.1740 C   0  0  2  0  0  3  0  0  0  0  0  0
  187.6330  177.5180  144.3680 C   0  0  0  0  0  2  0  0  0  0  0  0
  189.3470  178.0510  142.8270 C   0  0  1  0  0  3  0  0  0  0  0  0
  189.5670  178.2740  141.3340 C   0  0  0  0  0  2  0  0  0  0  0  0
  186.3710  178.0220  145.0710 C   0  0  0  0  0  2  0  0  0  0  0  0
  188.2600  178.1580  139.2120 C   0  0  0  0  0  0  0  0  0  0  0  0
  187.2210  177.6510  138.3720 N   0  0  0  0  0  2  0  0  0  0  0  0
  188.9330  179.1620  138.8540 O   0  0  0  0  0  0  0  0  0  0  0  0
  187.8180  177.8930  136.0140 C   0  0  0  0  0  2  0  0  0  0  0  0
  186.4380  177.2650  136.0400 C   0  0  2  0  0  3  0  0  0  0  0  0
  186.8470  178.2850  137.1110 C   0  0  1  0  0  3  0  0  0  0  0  0
  186.5690  175.7960  136.4460 C   0  0  2  0  0  3  0  0  0  0  0  0
  187.6880  175.1270  135.6590 C   0  0  0  0  0  1  0  0  0  0  0  0
  185.2320  175.0420  136.3250 C   0  0  1  0  0  3  0  0  0  0  0  0
  185.0730  173.9220  137.3500 C   0  0  0  0  0  2  0  0  0  0  0  0
  184.9540  172.5790  136.6560 C   0  0  0  0  0  1  0  0  0  0  0  0
  184.0600  176.0080  136.4340 C   0  0  0  0  0  2  0  0  0  0  0  0
  183.2540  175.6560  137.5270 O   0  0  0  0  0  0  0  0  0  0  0  0
  183.3340  178.0940  138.0500 C   0  0  0  0  0  2  0  0  0  0  0  0
  182.5130  176.3660  139.7890 C   0  0  0  0  0  2  0  0  0  0  0  0
  181.1990  178.4490  139.3220 C   0  0  0  0  0  2  0  0  0  0  0  0
  181.1120  176.9630  139.6570 C   0  0  0  0  0  2  0  0  0  0  0  0
  181.9070  178.6380  137.9850 C   0  0  0  0  0  2  0  0  0  0  0  0
  183.3630  176.6350  138.5390 C   0  0  0  0  0  3  0  0  0  0  0  0
  190.4310  178.7240  143.6900 C   0  0  0  0  0  2  0  0  0  0  0  0
  192.1160  175.7170  145.4720 C   0  0  0  0  0  2  0  0  0  0  0  0
  191.6670  176.0130  146.8880 C   0  0  0  0  0  0  0  0  0  0  0  0
  190.2880  177.9550  146.1180 C   0  0  0  0  0  2  0  0  0  0  0  0
  191.2750  176.4190  144.4090 C   0  0  0  0  0  2  0  0  0  0  0  0
  191.0630  177.8760  144.8050 C   0  0  1  0  0  3  0  0  0  0  0  0
  190.8810  177.0600  147.1680 C   0  0  0  0  0  3  0  0  0  0  0  0
  193.0950  175.6940  148.8770 C   0  0  0  0  0  1  0  0  0  0  0  0
  192.1220  175.2300  147.9510 O   0  0  0  0  0  0  0  0  0  0  0  0
  1  6  1  0  0  0  0
  1  8  1  0  0  0  0
  2 12  1  1  0  0  0
  3 16  1  6  0  0  0
  3 10  1  0  0  0  0
  3 14  1  0  0  0  0
  4  8  1  1  0  0  0
  4 15  1  0  0  0  0
  5  1  2  0  0  0  0
  7  9  1  6  0  0  0
  7  4  1  0  0  0  0
  9  5  1  0  0  0  0
 11 10  1  1  0  0  0
 11  7  1  0  0  0  0
 11  2  1  0  0  0  0
 12 15  1  0  0  0  0
 13  2  1  0  0  0  0
 13 35  1  1  0  0  0
 14 13  1  0  0  0  0
 17 16  1  0  0  0  0
 18 16  2  0  0  0  0
 19 20  1  0  0  0  0
 19 21  1  0  0  0  0
 20 22  1  1  0  0  0
 20 21  1  0  0  0  0
 21 17  1  1  0  0  0
 22 23  1  6  0  0  0
 24 27  1  1  0  0  0
 24 22  1  0  0  0  0
 24 25  1  0  0  0  0
 26 25  1  0  0  0  0
 27 28  1  0  0  0  0
 28 34  1  0  0  0  0
 29 34  1  0  0  0  0
 31 32  1  0  0  0  0
 32 30  1  0  0  0  0
 33 29  1  0  0  0  0
 33 31  1  0  0  0  0
 34 30  1  0  0  0  0
 36 37  1  0  0  0  0
 37 41  2  0  0  0  0
 37 43  1  0  0  0  0
 38 41  1  0  0  0  0
 39 40  1  0  0  0  0
 39 36  1  0  0  0  0
 40 35  1  6  0  0  0
 40 38  1  0  0  0  0
 43 42  1  0  0  0  0
M  END
>  <MODEL>
3

>  <REMARK>
 VINA RESULT:      -8.1      2.413      8.857
  Name = 
  11 active torsions:
  status: ('A' for Active; 'I' for Inactive)
    1  A    between atoms: C_1  and  C_34
    2  A    between atoms: C_1  and  C_35
    3  A    between atoms: C_2  and  C_13
    4  A    between atoms: C_4  and  C_12
    5  A    between atoms: C_4  and  C_22
    6  A    between atoms: N_6  and  C_17
    7  A    between atoms: C_10  and  C_22
    8  A    between atoms: C_14  and  C_22
    9  A    between atoms: C_14  and  O_41
   10  A    between atoms: C_19  and  O_37
   11  A    between atoms: C_40  and  O_41
                            x       y       z     vdW  Elec       q    Type
                         _______ _______ _______ _____ _____    ______ ____

>  <TORSDO>
F 11

$$$$
=
 OpenBabel10262422143D

 43 48  0  0  1  0  0  0  0  0999 V2000
  184.2950  179.0040  144.2360 C   0  0  0  0  0  0  0  0  0  0  0  0
  183.5630  177.5750  139.3910 N   0  0  1  0  0  0  0  0  0  0  0  0
  185.8820  178.6250  137.8930 C   0  0  2  0  0  3  0  0  0  0  0  0
  183.3030  178.1430  142.0610 C   0  0  1  0  0  3  0  0  0  0  0  0
  185.5180  178.9720  143.6830 C   0  0  0  0  0  3  0  0  0  0  0  0
  184.1710  179.4110  145.5240 F   0  0  0  0  0  0  0  0  0  0  0  0
  184.5260  178.7840  141.3940 C   0  0  1  0  0  3  0  0  0  0  0  0
  183.0390  178.7720  143.4290 C   0  0  0  0  0  2  0  0  0  0  0  0
  185.7520  178.5360  142.2630 C   0  0  0  0  0  2  0  0  0  0  0  0
  185.3310  179.2350  139.1140 N   0  0  0  0  0  2  0  0  0  0  0  0
  184.7690  178.2050  139.9910 C   0  0  2  0  0  3  0  0  0  0  0  0
  182.3750  178.3710  139.7030 C   0  0  0  0  0  2  0  0  0  0  0  0
  183.6510  177.4720  137.9240 C   0  0  1  0  0  3  0  0  0  0  0  0
  185.0890  177.4010  137.4200 C   0  0  0  0  0  2  0  0  0  0  0  0
  182.0480  178.2700  141.1940 C   0  0  0  0  0  2  0  0  0  0  0  0
  187.3360  178.2920  138.0390 C   0  0  0  0  0  0  0  0  0  0  0  0
  187.7160  177.1530  138.8140 N   0  0  0  0  0  2  0  0  0  0  0  0
  188.2160  179.0060  137.4860 O   0  0  0  0  0  0  0  0  0  0  0  0
  189.9770  177.8980  139.3670 C   0  0  0  0  0  2  0  0  0  0  0  0
  189.6090  176.8540  140.4030 C   0  0  2  0  0  3  0  0  0  0  0  0
  189.1050  176.7270  138.9600 C   0  0  1  0  0  3  0  0  0  0  0  0
  188.6190  177.4670  141.3950 C   0  0  2  0  0  3  0  0  0  0  0  0
  188.6670  178.9870  141.3200 C   0  0  0  0  0  1  0  0  0  0  0  0
  188.8340  176.9410  142.8260 C   0  0  1  0  0  3  0  0  0  0  0  0
  189.5780  175.6090  142.8760 C   0  0  0  0  0  2  0  0  0  0  0  0
  190.9790  175.8020  143.4210 C   0  0  0  0  0  1  0  0  0  0  0  0
  189.5680  177.9710  143.6720 C   0  0  0  0  0  2  0  0  0  0  0  0
  188.7370  178.4100  144.7140 O   0  0  0  0  0  0  0  0  0  0  0  0
  189.6650  177.1490  146.6550 C   0  0  0  0  0  2  0  0  0  0  0  0
  187.1190  177.3020  146.2380 C   0  0  0  0  0  2  0  0  0  0  0  0
  188.0820  177.7560  148.5070 C   0  0  0  0  0  2  0  0  0  0  0  0
  187.0060  178.1550  147.5030 C   0  0  0  0  0  2  0  0  0  0  0  0
  189.4640  177.9990  147.9100 C   0  0  0  0  0  2  0  0  0  0  0  0
  188.5300  177.3620  145.6380 C   0  0  0  0  0  3  0  0  0  0  0  0
  182.7750  176.3320  137.3730 C   0  0  0  0  0  2  0  0  0  0  0  0
  183.5000  173.6800  134.6350 C   0  0  0  0  0  2  0  0  0  0  0  0
  184.3820  172.7520  135.4460 C   0  0  0  0  0  0  0  0  0  0  0  0
  184.0210  174.1110  137.5170 C   0  0  0  0  0  2  0  0  0  0  0  0
  182.6400  174.6040  135.4930 C   0  0  0  0  0  2  0  0  0  0  0  0
  183.4900  175.2120  136.6020 C   0  0  1  0  0  3  0  0  0  0  0  0
  184.6470  172.9910  136.7370 C   0  0  0  0  0  3  0  0  0  0  0  0
  186.1510  171.0310  135.3870 C   0  0  0  0  0  1  0  0  0  0  0  0
  184.9960  171.6540  134.8420 O   0  0  0  0  0  0  0  0  0  0  0  0
  1  6  1  0  0  0  0
  2 12  1  6  0  0  0
  2 11  1  0  0  0  0
  3 16  1  1  0  0  0
  3 10  1  0  0  0  0
  4 15  1  6  0  0  0
  4  8  1  0  0  0  0
  5  1  2  0  0  0  0
  7  4  1  0  0  0  0
  7  9  1  1  0  0  0
  8  1  1  0  0  0  0
  9  5  1  0  0  0  0
 11 10  1  6  0  0  0
 11  7  1  0  0  0  0
 12 15  1  0  0  0  0
 13 35  1  1  0  0  0
 13  2  1  0  0  0  0
 14  3  1  0  0  0  0
 14 13  1  0  0  0  0
 16 17  1  0  0  0  0
 18 16  2  0  0  0  0
 19 20  1  0  0  0  0
 20 22  1  1  0  0  0
 21 17  1  1  0  0  0
 21 19  1  0  0  0  0
 21 20  1  0  0  0  0
 22 23  1  1  0  0  0
 22 24  1  0  0  0  0
 24 25  1  6  0  0  0
 24 27  1  0  0  0  0
 25 26  1  0  0  0  0
 27 28  1  0  0  0  0
 28 34  1  0  0  0  0
 29 33  1  0  0  0  0
 30 32  1  0  0  0  0
 32 31  1  0  0  0  0
 33 31  1  0  0  0  0
 34 30  1  0  0  0  0
 34 29  1  0  0  0  0
 36 37  1  0  0  0  0
 36 39  1  0  0  0  0
 37 41  2  0  0  0  0
 39 40  1  0  0  0  0
 40 35  1  1  0  0  0
 40 38  1  0  0  0  0
 41 38  1  0  0  0  0
 43 42  1  0  0  0  0
 43 37  1  0  0  0  0
M  END
>  <MODEL>
4

>  <REMARK>
 VINA RESULT:      -8.0      2.449      3.094
  Name = 
  11 active torsions:
  status: ('A' for Active; 'I' for Inactive)
    1  A    between atoms: C_1  and  C_34
    2  A    between atoms: C_1  and  C_35
    3  A    between atoms: C_2  and  C_13
    4  A    between atoms: C_4  and  C_12
    5  A    between atoms: C_4  and  C_22
    6  A    between atoms: N_6  and  C_17
    7  A    between atoms: C_10  and  C_22
    8  A    between atoms: C_14  and  C_22
    9  A    between atoms: C_14  and  O_41
   10  A    between atoms: C_19  and  O_37
   11  A    between atoms: C_40  and  O_41
                            x       y       z     vdW  Elec       q    Type
                         _______ _______ _______ _____ _____    ______ ____

>  <TORSDO>
F 11

$$$$
=
 OpenBabel10262422143D

 43 48  0  0  1  0  0  0  0  0999 V2000
  191.1300  176.7530  147.1460 C   0  0  0  0  0  0  0  0  0  0  0  0
  189.2480  177.9430  142.5530 N   0  0  1  0  0  0  0  0  0  0  0  0
  186.3420  177.4530  142.7330 C   0  0  2  0  0  3  0  0  0  0  0  0
  190.8590  177.3470  144.6910 C   0  0  1  0  0  3  0  0  0  0  0  0
  189.8410  177.0660  147.3570 C   0  0  0  0  0  3  0  0  0  0  0  0
  191.8810  176.3370  148.1960 F   0  0  0  0  0  0  0  0  0  0  0  0
  189.3790  177.0040  144.8980 C   0  0  1  0  0  3  0  0  0  0  0  0
  191.7260  176.6820  145.7600 C   0  0  0  0  0  2  0  0  0  0  0  0
  188.9320  177.5360  146.2540 C   0  0  0  0  0  2  0  0  0  0  0  0
  187.3580  176.7390  143.5210 N   0  0  0  0  0  2  0  0  0  0  0  0
  188.5000  177.6150  143.7950 C   0  0  2  0  0  3  0  0  0  0  0  0
  190.2280  176.8950  142.2670 C   0  0  0  0  0  2  0  0  0  0  0  0
  188.3680  178.0540  141.3770 C   0  0  1  0  0  3  0  0  0  0  0  0
  186.9420  178.4560  141.7410 C   0  0  0  0  0  2  0  0  0  0  0  0
  191.3530  176.9250  143.3040 C   0  0  0  0  0  2  0  0  0  0  0  0
  185.3180  178.1170  143.6050 C   0  0  0  0  0  0  0  0  0  0  0  0
  183.9500  178.1220  143.1930 N   0  0  0  0  0  2  0  0  0  0  0  0
  185.6580  178.6650  144.6880 O   0  0  0  0  0  0  0  0  0  0  0  0
  182.6080  180.1270  143.5880 C   0  0  0  0  0  2  0  0  0  0  0  0
  181.6340  179.0360  143.1870 C   0  0  2  0  0  3  0  0  0  0  0  0
  182.8840  178.6970  144.0090 C   0  0  1  0  0  3  0  0  0  0  0  0
  181.7510  178.7950  141.6800 C   0  0  2  0  0  3  0  0  0  0  0  0
  181.1210  179.9480  140.9100 C   0  0  0  0  0  1  0  0  0  0  0  0
  181.1780  177.4270  141.2680 C   0  0  1  0  0  3  0  0  0  0  0  0
  179.6550  177.3600  141.3440 C   0  0  0  0  0  2  0  0  0  0  0  0
  179.0650  177.0730  139.9780 C   0  0  0  0  0  1  0  0  0  0  0  0
  181.6390  177.0530  139.8660 C   0  0  0  0  0  2  0  0  0  0  0  0
  183.0370  177.1370  139.7870 O   0  0  0  0  0  0  0  0  0  0  0  0
  184.9230  178.1930  138.5410 C   0  0  0  0  0  2  0  0  0  0  0  0
  182.6210  177.8030  137.4310 C   0  0  0  0  0  2  0  0  0  0  0  0
  184.7410  177.1310  136.2740 C   0  0  0  0  0  2  0  0  0  0  0  0
  183.2820  176.7630  136.5260 C   0  0  0  0  0  2  0  0  0  0  0  0
  185.5070  177.1460  137.5920 C   0  0  0  0  0  2  0  0  0  0  0  0
  183.4080  178.0030  138.7340 C   0  0  0  0  0  3  0  0  0  0  0  0
  188.9750  178.9560  140.2870 C   0  0  0  0  0  2  0  0  0  0  0  0
  189.0730  178.4600  136.4390 C   0  0  0  0  0  2  0  0  0  0  0  0
  189.1560  176.9480  136.4080 C   0  0  0  0  0  0  0  0  0  0  0  0
  188.9340  176.8170  138.8970 C   0  0  0  0  0  2  0  0  0  0  0  0
  188.5540  179.0130  137.7640 C   0  0  0  0  0  2  0  0  0  0  0  0
  189.2550  178.3090  138.9210 C   0  0  1  0  0  3  0  0  0  0  0  0
  189.1420  176.2240  137.5330 C   0  0  0  0  0  3  0  0  0  0  0  0
  189.9830  175.0230  135.1010 C   0  0  0  0  0  1  0  0  0  0  0  0
  189.3160  176.2750  135.1950 O   0  0  0  0  0  0  0  0  0  0  0  0
  1  5  2  0  0  0  0
  1  6  1  0  0  0  0
  2 12  1  6  0  0  0
  2 11  1  0  0  0  0
  3 10  1  0  0  0  0
  3 16  1  1  0  0  0
  4 15  1  6  0  0  0
  4  7  1  0  0  0  0
  4  8  1  0  0  0  0
  7  9  1  1  0  0  0
  8  1  1  0  0  0  0
  9  5  1  0  0  0  0
 11 10  1  6  0  0  0
 11  7  1  0  0  0  0
 12 15  1  0  0  0  0
 13 35  1  6  0  0  0
 13 14  1  0  0  0  0
 13  2  1  0  0  0  0
 14  3  1  0  0  0  0
 16 18  2  0  0  0  0
 17 16  1  0  0  0  0
 19 21  1  0  0  0  0
 20 22  1  6  0  0  0
 20 19  1  0  0  0  0
 20 21  1  0  0  0  0
 21 17  1  6  0  0  0
 22 23  1  6  0  0  0
 24 27  1  6  0  0  0
 24 25  1  0  0  0  0
 24 22  1  0  0  0  0
 26 25  1  0  0  0  0
 28 27  1  0  0  0  0
 29 34  1  0  0  0  0
 30 34  1  0  0  0  0
 31 32  1  0  0  0  0
 31 33  1  0  0  0  0
 32 30  1  0  0  0  0
 33 29  1  0  0  0  0
 34 28  1  0  0  0  0
 36 39  1  0  0  0  0
 37 36  1  0  0  0  0
 37 41  2  0  0  0  0
 38 40  1  0  0  0  0
 39 40  1  0  0  0  0
 40 35  1  1  0  0  0
 41 38  1  0  0  0  0
 42 43  1  0  0  0  0
 43 37  1  0  0  0  0
M  END
>  <MODEL>
5

>  <REMARK>
 VINA RESULT:      -7.8      2.414      8.496
  Name = 
  11 active torsions:
  status: ('A' for Active; 'I' for Inactive)
    1  A    between atoms: C_1  and  C_34
    2  A    between atoms: C_1  and  C_35
    3  A    between atoms: C_2  and  C_13
    4  A    between atoms: C_4  and  C_12
    5  A    between atoms: C_4  and  C_22
    6  A    between atoms: N_6  and  C_17
    7  A    between atoms: C_10  and  C_22
    8  A    between atoms: C_14  and  C_22
    9  A    between atoms: C_14  and  O_41
   10  A    between atoms: C_19  and  O_37
   11  A    between atoms: C_40  and  O_41
                            x       y       z     vdW  Elec       q    Type
                         _______ _______ _______ _____ _____    ______ ____

>  <TORSDO>
F 11

$$$$
=
 OpenBabel10262422143D

 43 48  0  0  1  0  0  0  0  0999 V2000
  188.6670  178.1950  136.6750 C   0  0  0  0  0  0  0  0  0  0  0  0
  186.6290  178.0570  141.3530 N   0  0  1  0  0  0  0  0  0  0  0  0
  183.9040  179.1590  141.0660 C   0  0  2  0  0  3  0  0  0  0  0  0
  188.3030  177.9970  139.1820 C   0  0  1  0  0  3  0  0  0  0  0  0
  187.3380  178.1550  136.4860 C   0  0  0  0  0  3  0  0  0  0  0  0
  189.4780  178.2950  135.5930 F   0  0  0  0  0  0  0  0  0  0  0  0
  186.9350  178.6340  138.9090 C   0  0  1  0  0  3  0  0  0  0  0  0
  189.2820  178.3080  138.0500 C   0  0  0  0  0  2  0  0  0  0  0  0
  186.3620  178.0460  137.6260 C   0  0  0  0  0  2  0  0  0  0  0  0
  185.0440  179.5200  140.2090 N   0  0  0  0  0  2  0  0  0  0  0  0
  185.9570  178.3820  140.0680 C   0  0  2  0  0  3  0  0  0  0  0  0
  187.8230  178.8860  141.5180 C   0  0  0  0  0  2  0  0  0  0  0  0
  185.7620  178.2970  142.5190 C   0  0  1  0  0  3  0  0  0  0  0  0
  184.2770  178.1820  142.1880 C   0  0  0  0  0  2  0  0  0  0  0  0
  188.8980  178.4720  140.5110 C   0  0  0  0  0  2  0  0  0  0  0  0
  182.7460  178.6350  140.2700 C   0  0  0  0  0  0  0  0  0  0  0  0
  182.6890  177.2410  139.9580 N   0  0  0  0  0  2  0  0  0  0  0  0
  181.8340  179.4110  139.8780 O   0  0  0  0  0  0  0  0  0  0  0  0
  181.5420  177.1320  137.8020 C   0  0  0  0  0  2  0  0  0  0  0  0
  182.0320  175.7270  138.0950 C   0  0  2  0  0  3  0  0  0  0  0  0
  181.5710  176.6410  139.2370 C   0  0  1  0  0  3  0  0  0  0  0  0
  183.5440  175.6710  137.8660 C   0  0  2  0  0  3  0  0  0  0  0  0
  183.9450  176.6220  136.7460 C   0  0  0  0  0  1  0  0  0  0  0  0
  184.0390  174.2330  137.6230 C   0  0  1  0  0  3  0  0  0  0  0  0
  182.9350  173.2800  137.1730 C   0  0  0  0  0  2  0  0  0  0  0  0
  183.4140  171.8430  137.2350 C   0  0  0  0  0  1  0  0  0  0  0  0
  185.1750  174.2200  136.6100 C   0  0  0  0  0  2  0  0  0  0  0  0
  186.3970  174.0130  137.2680 O   0  0  0  0  0  0  0  0  0  0  0  0
  187.1770  173.8790  134.9030 C   0  0  0  0  0  2  0  0  0  0  0  0
  188.7830  173.4460  136.8810 C   0  0  0  0  0  2  0  0  0  0  0  0
  189.4300  174.9820  135.0090 C   0  0  0  0  0  2  0  0  0  0  0  0
  189.5180  174.7340  136.5120 C   0  0  0  0  0  2  0  0  0  0  0  0
  187.9720  175.1490  134.5950 C   0  0  0  0  0  2  0  0  0  0  0  0
  187.3350  173.4530  136.3730 C   0  0  0  0  0  3  0  0  0  0  0  0
  186.1660  177.4300  143.7260 C   0  0  0  0  0  2  0  0  0  0  0  0
  189.9720  176.7110  143.9650 C   0  0  0  0  0  2  0  0  0  0  0  0
  190.1970  177.1610  145.3940 C   0  0  0  0  0  0  0  0  0  0  0  0
  187.7530  177.5910  145.7160 C   0  0  0  0  0  2  0  0  0  0  0  0
  188.5100  176.4090  143.6480 C   0  0  0  0  0  2  0  0  0  0  0  0
  187.6250  177.5230  144.1960 C   0  0  1  0  0  3  0  0  0  0  0  0
  189.1890  177.6040  146.1550 C   0  0  0  0  0  3  0  0  0  0  0  0
  191.8800  176.3440  147.0060 C   0  0  0  0  0  1  0  0  0  0  0  0
  191.4860  177.1860  145.9310 O   0  0  0  0  0  0  0  0  0  0  0  0
  1  8  1  0  0  0  0
  2 12  1  1  0  0  0
  2 13  1  0  0  0  0
  3 16  1  6  0  0  0
  3 14  1  0  0  0  0
  4  8  1  6  0  0  0
  4 15  1  0  0  0  0
  5  1  2  0  0  0  0
  5  9  1  0  0  0  0
  6  1  1  0  0  0  0
  7  9  1  6  0  0  0
  7  4  1  0  0  0  0
  7 11  1  0  0  0  0
 10  3  1  0  0  0  0
 11 10  1  1  0  0  0
 11  2  1  0  0  0  0
 13 35  1  1  0  0  0
 14 13  1  0  0  0  0
 15 12  1  0  0  0  0
 17 16  1  0  0  0  0
 18 16  2  0  0  0  0
 19 20  1  0  0  0  0
 19 21  1  0  0  0  0
 20 22  1  1  0  0  0
 20 21  1  0  0  0  0
 21 17  1  1  0  0  0
 22 23  1  6  0  0  0
 24 27  1  6  0  0  0
 24 22  1  0  0  0  0
 25 26  1  0  0  0  0
 25 24  1  0  0  0  0
 27 28  1  0  0  0  0
 29 34  1  0  0  0  0
 31 32  1  0  0  0  0
 32 30  1  0  0  0  0
 33 29  1  0  0  0  0
 33 31  1  0  0  0  0
 34 30  1  0  0  0  0
 34 28  1  0  0  0  0
 36 37  1  0  0  0  0
 37 43  1  0  0  0  0
 37 41  2  0  0  0  0
 38 41  1  0  0  0  0
 39 36  1  0  0  0  0
 39 40  1  0  0  0  0
 40 35  1  1  0  0  0
 40 38  1  0  0  0  0
 43 42  1  0  0  0  0
M  END
>  <MODEL>
6

>  <REMARK>
 VINA RESULT:      -7.7      3.133      8.810
  Name = 
  11 active torsions:
  status: ('A' for Active; 'I' for Inactive)
    1  A    between atoms: C_1  and  C_34
    2  A    between atoms: C_1  and  C_35
    3  A    between atoms: C_2  and  C_13
    4  A    between atoms: C_4  and  C_12
    5  A    between atoms: C_4  and  C_22
    6  A    between atoms: N_6  and  C_17
    7  A    between atoms: C_10  and  C_22
    8  A    between atoms: C_14  and  C_22
    9  A    between atoms: C_14  and  O_41
   10  A    between atoms: C_19  and  O_37
   11  A    between atoms: C_40  and  O_41
                            x       y       z     vdW  Elec       q    Type
                         _______ _______ _______ _____ _____    ______ ____

>  <TORSDO>
F 11

$$$$
=
 OpenBabel10262422143D

 43 48  0  0  1  0  0  0  0  0999 V2000
  188.2660  177.8290  136.2600 C   0  0  0  0  0  0  0  0  0  0  0  0
  186.2790  178.0250  140.9570 N   0  0  1  0  0  0  0  0  0  0  0  0
  183.7060  179.4460  140.6740 C   0  0  2  0  0  3  0  0  0  0  0  0
  187.9090  177.7220  138.7730 C   0  0  1  0  0  3  0  0  0  0  0  0
  186.9400  177.9480  136.0840 C   0  0  0  0  0  3  0  0  0  0  0  0
  189.0710  177.8080  135.1680 F   0  0  0  0  0  0  0  0  0  0  0  0
  186.6260  178.5160  138.5000 C   0  0  1  0  0  3  0  0  0  0  0  0
  188.9060  177.8900  137.6270 C   0  0  0  0  0  2  0  0  0  0  0  0
  185.9710  177.9800  137.2340 C   0  0  0  0  0  2  0  0  0  0  0  0
  184.8720  179.6500  139.8000 N   0  0  0  0  0  2  0  0  0  0  0  0
  185.6370  178.4070  139.6720 C   0  0  2  0  0  3  0  0  0  0  0  0
  187.5670  178.7060  141.0950 C   0  0  0  0  0  2  0  0  0  0  0  0
  185.4620  178.3910  142.1270 C   0  0  1  0  0  3  0  0  0  0  0  0
  183.9700  178.4520  141.8110 C   0  0  0  0  0  2  0  0  0  0  0  0
  188.5720  178.1450  140.0870 C   0  0  0  0  0  2  0  0  0  0  0  0
  182.4840  179.0530  139.8990 C   0  0  0  0  0  0  0  0  0  0  0  0
  182.3870  179.4170  138.5200 N   0  0  0  0  0  2  0  0  0  0  0  0
  181.5510  178.4120  140.4530 O   0  0  0  0  0  0  0  0  0  0  0  0
  181.6660  179.0180  136.2190 C   0  0  0  0  0  2  0  0  0  0  0  0
  181.5050  177.6990  136.9490 C   0  0  2  0  0  3  0  0  0  0  0  0
  181.2600  179.0260  137.6800 C   0  0  1  0  0  3  0  0  0  0  0  0
  182.8860  177.0760  137.1600 C   0  0  2  0  0  3  0  0  0  0  0  0
  183.5380  176.7670  135.8190 C   0  0  0  0  0  1  0  0  0  0  0  0
  182.8310  175.8480  138.0860 C   0  0  1  0  0  3  0  0  0  0  0  0
  181.4690  175.1600  138.1000 C   0  0  0  0  0  2  0  0  0  0  0  0
  180.8430  175.2480  139.4780 C   0  0  0  0  0  1  0  0  0  0  0  0
  183.9100  174.8430  137.7080 C   0  0  0  0  0  2  0  0  0  0  0  0
  183.3170  173.6620  137.2360 O   0  0  0  0  0  0  0  0  0  0  0  0
  183.8900  171.3140  136.6200 C   0  0  0  0  0  2  0  0  0  0  0  0
  185.6650  172.9300  137.5790 C   0  0  0  0  0  2  0  0  0  0  0  0
  186.1350  171.5700  135.5270 C   0  0  0  0  0  2  0  0  0  0  0  0
  186.3550  172.9130  136.2150 C   0  0  0  0  0  2  0  0  0  0  0  0
  184.6450  171.3450  135.2910 C   0  0  0  0  0  2  0  0  0  0  0  0
  184.1780  172.5660  137.4670 C   0  0  0  0  0  3  0  0  0  0  0  0
  185.7700  177.5030  143.3460 C   0  0  0  0  0  2  0  0  0  0  0  0
  189.5170  176.8150  144.0870 C   0  0  0  0  0  2  0  0  0  0  0  0
  189.5780  177.3840  145.4890 C   0  0  0  0  0  0  0  0  0  0  0  0
  187.1160  177.8350  145.4870 C   0  0  0  0  0  2  0  0  0  0  0  0
  188.0990  176.4840  143.6280 C   0  0  0  0  0  2  0  0  0  0  0  0
  187.1660  177.6390  143.9740 C   0  0  1  0  0  3  0  0  0  0  0  0
  188.4920  177.8880  146.0880 C   0  0  0  0  0  3  0  0  0  0  0  0
  191.6800  176.3490  146.2690 C   0  0  0  0  0  1  0  0  0  0  0  0
  190.7960  177.4570  146.1680 O   0  0  0  0  0  0  0  0  0  0  0  0
  1  8  1  0  0  0  0
  2 12  1  1  0  0  0
  2 13  1  0  0  0  0
  3 16  1  6  0  0  0
  3 14  1  0  0  0  0
  4  8  1  6  0  0  0
  4 15  1  0  0  0  0
  5  1  2  0  0  0  0
  5  9  1  0  0  0  0
  6  1  1  0  0  0  0
  7  9  1  6  0  0  0
  7  4  1  0  0  0  0
  7 11  1  0  0  0  0
 10  3  1  0  0  0  0
 11 10  1  1  0  0  0
 11  2  1  0  0  0  0
 13 35  1  1  0  0  0
 14 13  1  0  0  0  0
 15 12  1  0  0  0  0
 16 18  2  0  0  0  0
 17 16  1  0  0  0  0
 19 20  1  0  0  0  0
 19 21  1  0  0  0  0
 20 22  1  1  0  0  0
 20 21  1  0  0  0  0
 21 17  1  1  0  0  0
 22 23  1  6  0  0  0
 22 24  1  0  0  0  0
 24 27  1  6  0  0  0
 24 25  1  0  0  0  0
 25 26  1  0  0  0  0
 28 34  1  0  0  0  0
 28 27  1  0  0  0  0
 29 34  1  0  0  0  0
 31 32  1  0  0  0  0
 32 30  1  0  0  0  0
 33 31  1  0  0  0  0
 33 29  1  0  0  0  0
 34 30  1  0  0  0  0
 36 37  1  0  0  0  0
 37 41  2  0  0  0  0
 37 43  1  0  0  0  0
 38 41  1  0  0  0  0
 39 40  1  0  0  0  0
 39 36  1  0  0  0  0
 40 35  1  1  0  0  0
 40 38  1  0  0  0  0
 43 42  1  0  0  0  0
M  END
>  <MODEL>
7

>  <REMARK>
 VINA RESULT:      -7.4      3.159      9.009
  Name = 
  11 active torsions:
  status: ('A' for Active; 'I' for Inactive)
    1  A    between atoms: C_1  and  C_34
    2  A    between atoms: C_1  and  C_35
    3  A    between atoms: C_2  and  C_13
    4  A    between atoms: C_4  and  C_12
    5  A    between atoms: C_4  and  C_22
    6  A    between atoms: N_6  and  C_17
    7  A    between atoms: C_10  and  C_22
    8  A    between atoms: C_14  and  C_22
    9  A    between atoms: C_14  and  O_41
   10  A    between atoms: C_19  and  O_37
   11  A    between atoms: C_40  and  O_41
                            x       y       z     vdW  Elec       q    Type
                         _______ _______ _______ _____ _____    ______ ____

>  <TORSDO>
F 11

$$$$
=
 OpenBabel10262422143D

 43 48  0  0  1  0  0  0  0  0999 V2000
  187.9400  177.8050  148.2530 C   0  0  0  0  0  0  0  0  0  0  0  0
  189.6450  177.6390  143.4450 N   0  0  1  0  0  0  0  0  0  0  0  0
  187.2310  177.5370  141.7480 C   0  0  2  0  0  3  0  0  0  0  0  0
  189.3870  177.6000  146.1750 C   0  0  1  0  0  3  0  0  0  0  0  0
  186.9430  178.3010  147.5010 C   0  0  0  0  0  3  0  0  0  0  0  0
  187.7470  177.6750  149.5890 F   0  0  0  0  0  0  0  0  0  0  0  0
  188.0610  177.4980  145.4120 C   0  0  1  0  0  3  0  0  0  0  0  0
  189.1970  177.2300  147.6460 C   0  0  0  0  0  2  0  0  0  0  0  0
  187.0660  178.4820  146.0130 C   0  0  0  0  0  2  0  0  0  0  0  0
  187.3080  177.0140  143.1210 N   0  0  0  0  0  2  0  0  0  0  0  0
  188.2460  177.8080  143.9180 C   0  0  2  0  0  3  0  0  0  0  0  0
  190.2450  176.4580  144.0680 C   0  0  0  0  0  2  0  0  0  0  0  0
  189.7290  177.4560  141.9860 C   0  0  1  0  0  3  0  0  0  0  0  0
  188.5640  178.0990  141.2400 C   0  0  0  0  0  2  0  0  0  0  0  0
  190.4670  176.7050  145.5620 C   0  0  0  0  0  2  0  0  0  0  0  0
  186.1350  178.5490  141.5930 C   0  0  0  0  0  0  0  0  0  0  0  0
  185.0300  178.2540  140.7360 N   0  0  0  0  0  2  0  0  0  0  0  0
  186.1870  179.6490  142.2070 O   0  0  0  0  0  0  0  0  0  0  0  0
  183.8830  179.7440  139.1740 C   0  0  0  0  0  2  0  0  0  0  0  0
  182.8900  178.6560  139.5310 C   0  0  2  0  0  3  0  0  0  0  0  0
  183.8960  179.1590  140.5730 C   0  0  1  0  0  3  0  0  0  0  0  0
  183.2810  177.3680  138.8040 C   0  0  2  0  0  3  0  0  0  0  0  0
  183.4100  177.6220  137.3080 C   0  0  0  0  0  1  0  0  0  0  0  0
  182.3210  176.2080  139.1250 C   0  0  1  0  0  3  0  0  0  0  0  0
  181.0350  176.6580  139.8120 C   0  0  0  0  0  2  0  0  0  0  0  0
  180.1940  175.4600  140.2050 C   0  0  0  0  0  1  0  0  0  0  0  0
  181.9830  175.4280  137.8620 C   0  0  0  0  0  2  0  0  0  0  0  0
  182.5860  174.1620  137.9090 O   0  0  0  0  0  0  0  0  0  0  0  0
  184.2850  174.2050  136.0820 C   0  0  0  0  0  2  0  0  0  0  0  0
  182.5890  172.2670  136.3040 C   0  0  0  0  0  2  0  0  0  0  0  0
  185.0320  171.8110  135.9760 C   0  0  0  0  0  2  0  0  0  0  0  0
  183.7540  171.3460  136.6670 C   0  0  0  0  0  2  0  0  0  0  0  0
  185.3930  173.2160  136.4450 C   0  0  0  0  0  2  0  0  0  0  0  0
  182.9140  173.7370  136.6020 C   0  0  0  0  0  3  0  0  0  0  0  0
  191.0980  177.8890  141.4290 C   0  0  0  0  0  2  0  0  0  0  0  0
  190.7440  176.2320  137.9380 C   0  0  0  0  0  2  0  0  0  0  0  0
  192.2050  176.2330  137.5380 C   0  0  0  0  0  0  0  0  0  0  0  0
  192.8850  177.1450  139.7670 C   0  0  0  0  0  2  0  0  0  0  0  0
  190.5260  176.3850  139.4400 C   0  0  0  0  0  2  0  0  0  0  0  0
  191.4150  177.5020  139.9760 C   0  0  1  0  0  3  0  0  0  0  0  0
  193.1550  176.6970  138.3590 C   0  0  0  0  0  3  0  0  0  0  0  0
  193.9320  175.8890  135.8070 C   0  0  0  0  0  1  0  0  0  0  0  0
  192.5890  175.8060  136.2650 O   0  0  0  0  0  0  0  0  0  0  0  0
  1  6  1  0  0  0  0
  2 11  1  0  0  0  0
  2 12  1  1  0  0  0
  3 16  1  1  0  0  0
  3 10  1  0  0  0  0
  4 15  1  6  0  0  0
  4  8  1  0  0  0  0
  5  1  2  0  0  0  0
  7  9  1  1  0  0  0
  7  4  1  0  0  0  0
  8  1  1  0  0  0  0
  9  5  1  0  0  0  0
 11 10  1  6  0  0  0
 11  7  1  0  0  0  0
 12 15  1  0  0  0  0
 13 35  1  6  0  0  0
 13  2  1  0  0  0  0
 14  3  1  0  0  0  0
 14 13  1  0  0  0  0
 16 18  2  0  0  0  0
 17 16  1  0  0  0  0
 19 20  1  0  0  0  0
 19 21  1  0  0  0  0
 20 22  1  6  0  0  0
 20 21  1  0  0  0  0
 21 17  1  6  0  0  0
 22 23  1  6  0  0  0
 22 24  1  0  0  0  0
 24 27  1  6  0  0  0
 24 25  1  0  0  0  0
 25 26  1  0  0  0  0
 27 28  1  0  0  0  0
 29 33  1  0  0  0  0
 29 34  1  0  0  0  0
 30 34  1  0  0  0  0
 30 32  1  0  0  0  0
 31 33  1  0  0  0  0
 31 32  1  0  0  0  0
 34 28  1  0  0  0  0
 36 39  1  0  0  0  0
 37 36  1  0  0  0  0
 37 41  2  0  0  0  0
 38 40  1  0  0  0  0
 39 40  1  0  0  0  0
 40 35  1  1  0  0  0
 41 38  1  0  0  0  0
 42 43  1  0  0  0  0
 43 37  1  0  0  0  0
M  END
>  <MODEL>
8

>  <REMARK>
 VINA RESULT:      -7.4      3.016      9.138
  Name = 
  11 active torsions:
  status: ('A' for Active; 'I' for Inactive)
    1  A    between atoms: C_1  and  C_34
    2  A    between atoms: C_1  and  C_35
    3  A    between atoms: C_2  and  C_13
    4  A    between atoms: C_4  and  C_12
    5  A    between atoms: C_4  and  C_22
    6  A    between atoms: N_6  and  C_17
    7  A    between atoms: C_10  and  C_22
    8  A    between atoms: C_14  and  C_22
    9  A    between atoms: C_14  and  O_41
   10  A    between atoms: C_19  and  O_37
   11  A    between atoms: C_40  and  O_41
                            x       y       z     vdW  Elec       q    Type
                         _______ _______ _______ _____ _____    ______ ____

>  <TORSDO>
F 11

$$$$
=
 OpenBabel10262422143D

 43 48  0  0  1  0  0  0  0  0999 V2000
  183.1320  178.9290  143.8310 C   0  0  0  0  0  0  0  0  0  0  0  0
  181.2270  178.0330  139.1810 N   0  0  1  0  0  0  0  0  0  0  0  0
  183.5690  177.6940  137.4140 C   0  0  2  0  0  3  0  0  0  0  0  0
  181.6010  178.6860  141.8180 C   0  0  1  0  0  3  0  0  0  0  0  0
  184.0900  178.2540  143.1750 C   0  0  0  0  0  3  0  0  0  0  0  0
  183.3820  179.3570  145.0930 F   0  0  0  0  0  0  0  0  0  0  0  0
  182.8950  178.5840  141.0010 C   0  0  1  0  0  3  0  0  0  0  0  0
  181.8570  179.3780  143.1560 C   0  0  0  0  0  2  0  0  0  0  0  0
  183.9030  177.7420  141.7730 C   0  0  0  0  0  2  0  0  0  0  0  0
  183.5560  178.5170  138.6330 N   0  0  0  0  0  2  0  0  0  0  0  0
  182.6430  177.9460  139.6260 C   0  0  2  0  0  3  0  0  0  0  0  0
  180.6690  179.3370  139.5410 C   0  0  0  0  0  2  0  0  0  0  0  0
  181.0840  177.8800  137.7230 C   0  0  1  0  0  3  0  0  0  0  0  0
  182.2090  177.0590  137.0990 C   0  0  0  0  0  2  0  0  0  0  0  0
  180.5070  179.4410  141.0590 C   0  0  0  0  0  2  0  0  0  0  0  0
  184.6450  176.6500  137.4520 C   0  0  0  0  0  0  0  0  0  0  0  0
  185.9710  177.0000  137.0500 N   0  0  0  0  0  2  0  0  0  0  0  0
  184.3860  175.4760  137.8320 O   0  0  0  0  0  0  0  0  0  0  0  0
  188.2710  176.5960  136.3290 C   0  0  0  0  0  2  0  0  0  0  0  0
  188.3020  176.6410  137.8440 C   0  0  2  0  0  3  0  0  0  0  0  0
  187.0870  176.0610  137.1110 C   0  0  1  0  0  3  0  0  0  0  0  0
  188.1650  178.0950  138.3000 C   0  0  2  0  0  3  0  0  0  0  0  0
  189.0570  179.0000  137.4610 C   0  0  0  0  0  1  0  0  0  0  0  0
  188.4190  178.2540  139.8100 C   0  0  1  0  0  3  0  0  0  0  0  0
  187.1400  178.2500  140.6430 C   0  0  0  0  0  2  0  0  0  0  0  0
  187.1980  179.3230  141.7120 C   0  0  0  0  0  1  0  0  0  0  0  0
  189.3630  177.1710  140.3120 C   0  0  0  0  0  2  0  0  0  0  0  0
  190.2160  177.6990  141.2930 O   0  0  0  0  0  0  0  0  0  0  0  0
  191.4030  177.1680  143.4210 C   0  0  0  0  0  2  0  0  0  0  0  0
  189.1210  176.0990  142.8440 C   0  0  0  0  0  2  0  0  0  0  0  0
  189.5310  177.1260  145.0940 C   0  0  0  0  0  2  0  0  0  0  0  0
  188.5030  176.9020  143.9890 C   0  0  0  0  0  2  0  0  0  0  0  0
  190.7090  177.9280  144.5510 C   0  0  0  0  0  2  0  0  0  0  0  0
  190.4080  176.7520  142.3220 C   0  0  0  0  0  3  0  0  0  0  0  0
  179.6890  177.3610  137.3320 C   0  0  0  0  0  2  0  0  0  0  0  0
  179.5720  173.7080  138.6360 C   0  0  0  0  0  2  0  0  0  0  0  0
  179.7330  172.9900  137.3120 C   0  0  0  0  0  0  0  0  0  0  0  0
  180.0380  175.1560  136.0970 C   0  0  0  0  0  2  0  0  0  0  0  0
  180.0290  175.1630  138.5970 C   0  0  0  0  0  2  0  0  0  0  0  0
  179.4810  175.8380  137.3440 C   0  0  1  0  0  3  0  0  0  0  0  0
  179.8920  173.6630  136.1660 C   0  0  0  0  0  3  0  0  0  0  0  0
  180.1350  170.8550  136.1380 C   0  0  0  0  0  1  0  0  0  0  0  0
  179.6510  171.5970  137.2500 O   0  0  0  0  0  0  0  0  0  0  0  0
  1  6  1  0  0  0  0
  2 12  1  6  0  0  0
  2 11  1  0  0  0  0
  3 16  1  1  0  0  0
  3 10  1  0  0  0  0
  4 15  1  6  0  0  0
  4  8  1  0  0  0  0
  5  1  2  0  0  0  0
  7  9  1  1  0  0  0
  7  4  1  0  0  0  0
  8  1  1  0  0  0  0
  9  5  1  0  0  0  0
 11 10  1  6  0  0  0
 11  7  1  0  0  0  0
 12 15  1  0  0  0  0
 13 35  1  1  0  0  0
 13  2  1  0  0  0  0
 14  3  1  0  0  0  0
 14 13  1  0  0  0  0
 16 18  2  0  0  0  0
 17 16  1  0  0  0  0
 19 21  1  0  0  0  0
 19 20  1  0  0  0  0
 20 22  1  6  0  0  0
 21 17  1  6  0  0  0
 21 20  1  0  0  0  0
 22 23  1  6  0  0  0
 22 24  1  0  0  0  0
 24 27  1  1  0  0  0
 24 25  1  0  0  0  0
 25 26  1  0  0  0  0
 27 28  1  0  0  0  0
 28 34  1  0  0  0  0
 29 33  1  0  0  0  0
 30 32  1  0  0  0  0
 32 31  1  0  0  0  0
 33 31  1  0  0  0  0
 34 30  1  0  0  0  0
 34 29  1  0  0  0  0
 37 36  1  0  0  0  0
 38 41  1  0  0  0  0
 38 40  1  0  0  0  0
 39 36  1  0  0  0  0
 40 35  1  1  0  0  0
 40 39  1  0  0  0  0
 41 37  2  0  0  0  0
 42 43  1  0  0  0  0
 43 37  1  0  0  0  0
M  END
>  <MODEL>
9

>  <REMARK>
 VINA RESULT:      -7.1      1.685      2.790
  Name = 
  11 active torsions:
  status: ('A' for Active; 'I' for Inactive)
    1  A    between atoms: C_1  and  C_34
    2  A    between atoms: C_1  and  C_35
    3  A    between atoms: C_2  and  C_13
    4  A    between atoms: C_4  and  C_12
    5  A    between atoms: C_4  and  C_22
    6  A    between atoms: N_6  and  C_17
    7  A    between atoms: C_10  and  C_22
    8  A    between atoms: C_14  and  C_22
    9  A    between atoms: C_14  and  O_41
   10  A    between atoms: C_19  and  O_37
   11  A    between atoms: C_40  and  O_41
                            x       y       z     vdW  Elec       q    Type
                         _______ _______ _______ _____ _____    ______ ____

>  <TORSDO>
F 11

$$$$
