=
 OpenBabel10262423293D

 34 38  0  0  1  0  0  0  0  0999 V2000
  183.3510  178.4560  141.6980 C   0  0  0  0  0  0  0  0  0  0  0  0
  182.9340  178.5140  144.5850 C   0  0  0  0  0  2  0  0  0  0  0  0
  184.3930  178.4120  142.5320 C   0  0  0  0  0  3  0  0  0  0  0  0
  181.7320  178.5120  143.6220 C   0  0  1  0  0  3  0  0  0  0  0  0
  179.5420  179.7860  143.2260 C   0  0  0  0  0  2  0  0  0  0  0  0
  180.5420  179.2420  144.2540 C   0  0  0  0  0  2  0  0  0  0  0  0
  184.2580  178.9460  143.9310 C   0  0  2  0  0  3  0  0  0  0  0  0
  180.8650  178.9470  141.2500 C   0  0  0  0  0  2  0  0  0  0  0  0
  182.0600  179.0540  142.2150 C   0  0  2  0  0  3  0  0  0  0  0  0
  179.5110  178.9220  141.9680 C   0  0  0  0  0  2  0  0  0  0  0  0
  186.4850  178.3150  146.9530 C   0  0  0  0  0  3  0  0  0  0  0  0
  186.5970  178.1030  144.1580 C   0  0  0  0  0  3  0  0  0  0  0  0
  189.8740  177.0330  146.5160 C   0  0  0  0  0  0  0  0  0  0  0  0
  188.7260  177.4930  147.0850 N   0  0  0  0  0  0  0  0  0  0  0  0
  187.6480  177.8480  146.3360 C   0  0  0  0  0  0  0  0  0  0  0  0
  188.8700  177.2750  144.3270 C   0  0  0  0  0  3  0  0  0  0  0  0
  187.7040  177.7440  144.9300 C   0  0  0  0  0  0  0  0  0  0  0  0
  189.9620  176.9170  145.1200 C   0  0  0  0  0  3  0  0  0  0  0  0
  185.4320  178.5690  144.7760 C   0  0  0  0  0  0  0  0  0  0  0  0
  185.3810  178.6770  146.1760 C   0  0  0  0  0  3  0  0  0  0  0  0
  191.5620  177.5080  148.1150 O   0  0  0  0  0  1  0  0  0  0  0  0
  191.0110  176.6560  147.3690 C   0  0  0  0  0  0  0  0  0  0  0  0
  191.4950  175.3530  147.3460 O   0  0  0  0  0  0  0  0  0  0  0  0
  184.4910  178.0460  137.9410 C   0  0  0  0  0  2  0  0  0  0  0  0
  184.5930  179.8540  139.4940 O   0  0  0  0  0  0  0  0  0  0  0  0
  183.6990  176.7880  137.6820 C   0  0  0  0  0  0  0  0  0  0  0  0
  183.0080  176.1870  138.6610 C   0  0  0  0  0  3  0  0  0  0  0  0
  184.2040  178.6750  139.2770 C   0  0  0  0  0  0  0  0  0  0  0  0
  182.9280  176.7460  140.0210 C   0  0  0  0  0  3  0  0  0  0  0  0
  183.4990  177.9140  140.3310 C   0  0  0  0  0  0  0  0  0  0  0  0
  184.4960  175.0650  135.9490 C   0  0  0  0  0  0  0  0  0  0  0  0
  184.4520  174.6700  134.6190 O   0  0  0  0  0  0  0  0  0  0  0  0
  185.1740  174.3940  136.7710 O   0  0  0  0  0  1  0  0  0  0  0  0
  183.7620  176.2260  136.3630 N   0  0  0  0  0  2  0  0  0  0  0  0
  1  9  1  0  0  0  0
  1  3  2  0  0  0  0
  3  7  1  0  0  0  0
  4  6  1  1  0  0  0
  4  2  1  0  0  0  0
  5  6  1  0  0  0  0
  7  2  1  0  0  0  0
  7 19  1  1  0  0  0
  8 10  1  0  0  0  0
  9  8  1  6  0  0  0
  9  4  1  0  0  0  0
 10  5  1  0  0  0  0
 12 19  2  0  0  0  0
 12 17  1  0  0  0  0
 13 14  1  0  0  0  0
 13 22  1  0  0  0  0
 15 11  1  0  0  0  0
 15 14  2  0  0  0  0
 16 17  2  0  0  0  0
 16 18  1  0  0  0  0
 17 15  1  0  0  0  0
 18 13  2  0  0  0  0
 19 20  1  0  0  0  0
 20 11  2  0  0  0  0
 22 21  1  0  0  0  0
 23 22  2  0  0  0  0
 24 28  1  0  0  0  0
 26 24  1  0  0  0  0
 26 27  2  0  0  0  0
 27 29  1  0  0  0  0
 28 25  2  0  0  0  0
 28 30  1  0  0  0  0
 29 30  2  0  0  0  0
 30  1  1  0  0  0  0
 31 34  1  0  0  0  0
 31 33  1  0  0  0  0
 32 31  2  0  0  0  0
 34 26  1  0  0  0  0
M  END
>  <MODEL>
1

>  <REMARK>
 VINA RESULT:     -10.5      0.000      0.000
  Name = 
  4 active torsions:
  status: ('A' for Active; 'I' for Inactive)
    1  A    between atoms: C_1  and  C_34
    2  A    between atoms: CA_7  and  C_15
    3  A    between atoms: C_18  and  C_30
    4  A    between atoms: C_23  and  N_25
                            x       y       z     vdW  Elec       q    Type
                         _______ _______ _______ _____ _____    ______ ____

>  <TORSDO>
F 4

$$$$
=
 OpenBabel10262423293D

 34 38  0  0  1  0  0  0  0  0999 V2000
  187.7580  177.6250  144.5950 C   0  0  0  0  0  0  0  0  0  0  0  0
  185.5690  178.8370  146.0950 C   0  0  0  0  0  2  0  0  0  0  0  0
  186.5570  177.7790  144.0310 C   0  0  0  0  0  3  0  0  0  0  0  0
  186.9680  178.7060  146.7240 C   0  0  1  0  0  3  0  0  0  0  0  0
  188.0690  177.8870  148.8910 C   0  0  0  0  0  2  0  0  0  0  0  0
  186.8570  178.5710  148.2470 C   0  0  0  0  0  2  0  0  0  0  0  0
  185.3330  177.9020  144.8950 C   0  0  2  0  0  3  0  0  0  0  0  0
  189.2510  177.5430  146.6900 C   0  0  0  0  0  2  0  0  0  0  0  0
  187.8270  177.5830  146.1070 C   0  0  2  0  0  3  0  0  0  0  0  0
  189.3450  178.1490  148.0950 C   0  0  0  0  0  2  0  0  0  0  0  0
  181.8500  179.1300  143.9720 C   0  0  0  0  0  3  0  0  0  0  0  0
  184.2170  178.3220  142.7020 C   0  0  0  0  0  3  0  0  0  0  0  0
  180.8980  179.5240  140.4710 C   0  0  0  0  0  0  0  0  0  0  0  0
  180.8570  179.5150  141.8320 N   0  0  0  0  0  0  0  0  0  0  0  0
  181.9260  179.1260  142.5770 C   0  0  0  0  0  0  0  0  0  0  0  0
  183.1790  178.7190  140.5470 C   0  0  0  0  0  3  0  0  0  0  0  0
  183.1160  178.7170  141.9390 C   0  0  0  0  0  0  0  0  0  0  0  0
  182.0670  179.1240  139.8060 C   0  0  0  0  0  3  0  0  0  0  0  0
  184.1420  178.3280  144.0990 C   0  0  0  0  0  0  0  0  0  0  0  0
  182.9540  178.7300  144.7310 C   0  0  0  0  0  3  0  0  0  0  0  0
  178.9310  179.1130  139.2090 O   0  0  0  0  0  0  0  0  0  0  0  0
  179.7180  179.9590  139.7090 C   0  0  0  0  0  0  0  0  0  0  0  0
  179.4710  181.3150  139.5240 O   0  0  0  0  0  1  0  0  0  0  0  0
  190.3640  176.2440  141.9710 C   0  0  0  0  0  2  0  0  0  0  0  0
  188.5360  175.2520  143.1400 O   0  0  0  0  0  0  0  0  0  0  0  0
  191.3300  177.3950  142.1000 C   0  0  0  0  0  0  0  0  0  0  0  0
  191.0490  178.4560  142.8720 C   0  0  0  0  0  3  0  0  0  0  0  0
  189.2420  176.2830  142.9730 C   0  0  0  0  0  0  0  0  0  0  0  0
  189.8220  178.5320  143.6820 C   0  0  0  0  0  3  0  0  0  0  0  0
  188.9520  177.5190  143.7300 C   0  0  0  0  0  0  0  0  0  0  0  0
  192.6370  177.1840  139.8980 C   0  0  0  0  0  0  0  0  0  0  0  0
  193.8930  177.1380  139.3090 O   0  0  0  0  0  1  0  0  0  0  0  0
  191.6110  177.0910  139.1740 O   0  0  0  0  0  0  0  0  0  0  0  0
  192.5330  177.3410  141.3200 N   0  0  0  0  0  2  0  0  0  0  0  0
  1  9  1  0  0  0  0
  3  1  2  0  0  0  0
  3  7  1  0  0  0  0
  4  2  1  6  0  0  0
  4  6  1  0  0  0  0
  6  5  1  0  0  0  0
  7 19  1  6  0  0  0
  7  2  1  0  0  0  0
  8 10  1  0  0  0  0
  9  8  1  6  0  0  0
  9  4  1  0  0  0  0
 10  5  1  0  0  0  0
 11 20  1  0  0  0  0
 12 19  1  0  0  0  0
 13 14  2  0  0  0  0
 14 15  1  0  0  0  0
 15 11  2  0  0  0  0
 16 17  1  0  0  0  0
 17 15  1  0  0  0  0
 17 12  2  0  0  0  0
 18 13  1  0  0  0  0
 18 16  2  0  0  0  0
 19 20  2  0  0  0  0
 21 22  2  0  0  0  0
 22 13  1  0  0  0  0
 23 22  1  0  0  0  0
 24 26  1  0  0  0  0
 24 28  1  0  0  0  0
 26 27  2  0  0  0  0
 27 29  1  0  0  0  0
 28 25  2  0  0  0  0
 28 30  1  0  0  0  0
 29 30  2  0  0  0  0
 30  1  1  0  0  0  0
 31 34  1  0  0  0  0
 32 31  1  0  0  0  0
 33 31  2  0  0  0  0
 34 26  1  0  0  0  0
M  END
>  <MODEL>
2

>  <REMARK>
 VINA RESULT:     -10.4      3.493      8.554
  Name = 
  4 active torsions:
  status: ('A' for Active; 'I' for Inactive)
    1  A    between atoms: C_1  and  C_34
    2  A    between atoms: CA_7  and  C_15
    3  A    between atoms: C_18  and  C_30
    4  A    between atoms: C_23  and  N_25
                            x       y       z     vdW  Elec       q    Type
                         _______ _______ _______ _____ _____    ______ ____

>  <TORSDO>
F 4

$$$$
=
 OpenBabel10262423293D

 34 38  0  0  1  0  0  0  0  0999 V2000
  189.1680  177.1590  143.5510 C   0  0  0  0  0  0  0  0  0  0  0  0
  187.5300  178.0410  145.7980 C   0  0  0  0  0  2  0  0  0  0  0  0
  187.8650  177.4000  143.3830 C   0  0  0  0  0  3  0  0  0  0  0  0
  189.0420  177.8120  145.9760 C   0  0  1  0  0  3  0  0  0  0  0  0
  190.6650  176.6140  147.5610 C   0  0  0  0  0  2  0  0  0  0  0  0
  189.3510  177.3920  147.4180 C   0  0  0  0  0  2  0  0  0  0  0  0
  186.9340  177.3440  144.5620 C   0  0  2  0  0  3  0  0  0  0  0  0
  191.1770  176.7040  145.0930 C   0  0  0  0  0  2  0  0  0  0  0  0
  189.6500  176.8350  144.9490 C   0  0  2  0  0  3  0  0  0  0  0  0
  191.6810  177.0370  146.5020 C   0  0  0  0  0  2  0  0  0  0  0  0
  183.5210  179.0030  144.8710 C   0  0  0  0  0  3  0  0  0  0  0  0
  185.1320  177.8220  142.9000 C   0  0  0  0  0  3  0  0  0  0  0  0
  181.3770  179.3780  141.9410 C   0  0  0  0  0  0  0  0  0  0  0  0
  181.8480  179.4320  143.2180 N   0  0  0  0  0  0  0  0  0  0  0  0
  183.0680  178.9300  143.5520 C   0  0  0  0  0  0  0  0  0  0  0  0
  183.4130  178.2690  141.2490 C   0  0  0  0  0  3  0  0  0  0  0  0
  183.8780  178.3340  142.5620 C   0  0  0  0  0  0  0  0  0  0  0  0
  182.1580  178.7920  140.9340 C   0  0  0  0  0  3  0  0  0  0  0  0
  185.5870  177.8970  144.2220 C   0  0  0  0  0  0  0  0  0  0  0  0
  184.7760  178.4870  145.2060 C   0  0  0  0  0  3  0  0  0  0  0  0
  179.6810  181.0250  142.1480 O   0  0  0  0  0  1  0  0  0  0  0  0
  180.0540  179.9400  141.6280 C   0  0  0  0  0  0  0  0  0  0  0  0
  179.2010  179.2660  140.7630 O   0  0  0  0  0  0  0  0  0  0  0  0
  190.4550  177.5110  139.8360 C   0  0  0  0  0  2  0  0  0  0  0  0
  188.3030  177.1280  140.7920 O   0  0  0  0  0  0  0  0  0  0  0  0
  191.9150  177.3310  140.1660 C   0  0  0  0  0  0  0  0  0  0  0  0
  192.3320  177.2150  141.4360 C   0  0  0  0  0  3  0  0  0  0  0  0
  189.5380  177.2710  141.0040 C   0  0  0  0  0  0  0  0  0  0  0  0
  191.3930  177.1920  142.5700 C   0  0  0  0  0  3  0  0  0  0  0  0
  190.0710  177.2310  142.3830 C   0  0  0  0  0  0  0  0  0  0  0  0
  192.9760  176.3780  138.0280 C   0  0  0  0  0  0  0  0  0  0  0  0
  193.9520  176.5500  137.0560 O   0  0  0  0  0  0  0  0  0  0  0  0
  192.2170  175.3750  137.9710 O   0  0  0  0  0  1  0  0  0  0  0  0
  192.8490  177.3490  139.0760 N   0  0  0  0  0  2  0  0  0  0  0  0
  1  9  1  0  0  0  0
  3  1  2  0  0  0  0
  3  7  1  0  0  0  0
  4  2  1  1  0  0  0
  4  6  1  0  0  0  0
  6  5  1  0  0  0  0
  7 19  1  6  0  0  0
  7  2  1  0  0  0  0
  8 10  1  0  0  0  0
  9  8  1  6  0  0  0
  9  4  1  0  0  0  0
 10  5  1  0  0  0  0
 11 20  1  0  0  0  0
 12 19  1  0  0  0  0
 13 14  2  0  0  0  0
 14 15  1  0  0  0  0
 15 11  2  0  0  0  0
 16 17  1  0  0  0  0
 17 12  2  0  0  0  0
 17 15  1  0  0  0  0
 18 16  2  0  0  0  0
 18 13  1  0  0  0  0
 19 20  2  0  0  0  0
 22 13  1  0  0  0  0
 22 21  1  0  0  0  0
 23 22  2  0  0  0  0
 24 26  1  0  0  0  0
 24 28  1  0  0  0  0
 25 28  2  0  0  0  0
 26 27  2  0  0  0  0
 27 29  1  0  0  0  0
 28 30  1  0  0  0  0
 30 29  2  0  0  0  0
 30  1  1  0  0  0  0
 31 34  1  0  0  0  0
 32 31  2  0  0  0  0
 33 31  1  0  0  0  0
 34 26  1  0  0  0  0
M  END
>  <MODEL>
3

>  <REMARK>
 VINA RESULT:      -9.9      3.956      8.383
  Name = 
  4 active torsions:
  status: ('A' for Active; 'I' for Inactive)
    1  A    between atoms: C_1  and  C_34
    2  A    between atoms: CA_7  and  C_15
    3  A    between atoms: C_18  and  C_30
    4  A    between atoms: C_23  and  N_25
                            x       y       z     vdW  Elec       q    Type
                         _______ _______ _______ _____ _____    ______ ____

>  <TORSDO>
F 4

$$$$
=
 OpenBabel10262423293D

 34 38  0  0  1  0  0  0  0  0999 V2000
  182.6520  178.0070  140.5160 C   0  0  0  0  0  0  0  0  0  0  0  0
  181.9220  178.9290  143.1870 C   0  0  0  0  0  2  0  0  0  0  0  0
  183.5710  178.0720  141.4830 C   0  0  0  0  0  3  0  0  0  0  0  0
  180.8540  178.8020  142.0840 C   0  0  1  0  0  3  0  0  0  0  0  0
  178.9560  180.1720  141.0350 C   0  0  0  0  0  2  0  0  0  0  0  0
  179.7320  179.8220  142.3110 C   0  0  0  0  0  2  0  0  0  0  0  0
  183.3650  178.9920  142.6540 C   0  0  2  0  0  3  0  0  0  0  0  0
  180.3440  178.6530  139.5780 C   0  0  0  0  0  2  0  0  0  0  0  0
  181.4220  178.8800  140.6530 C   0  0  2  0  0  3  0  0  0  0  0  0
  178.9310  178.9980  140.0590 C   0  0  0  0  0  2  0  0  0  0  0  0
  184.9670  178.6770  146.0930 C   0  0  0  0  0  3  0  0  0  0  0  0
  185.6350  178.2690  143.3990 C   0  0  0  0  0  3  0  0  0  0  0  0
  188.4100  177.5140  146.4270 C   0  0  0  0  0  0  0  0  0  0  0  0
  187.1600  177.9640  146.7240 N   0  0  0  0  0  0  0  0  0  0  0  0
  186.2410  178.2170  145.7530 C   0  0  0  0  0  0  0  0  0  0  0  0
  187.8520  177.5540  144.0730 C   0  0  0  0  0  3  0  0  0  0  0  0
  186.5780  178.0150  144.3980 C   0  0  0  0  0  0  0  0  0  0  0  0
  188.7750  177.3010  145.0900 C   0  0  0  0  0  3  0  0  0  0  0  0
  184.3580  178.7280  143.7390 C   0  0  0  0  0  0  0  0  0  0  0  0
  184.0280  178.9340  145.0890 C   0  0  0  0  0  3  0  0  0  0  0  0
  190.2640  176.3770  147.3760 O   0  0  0  0  0  0  0  0  0  0  0  0
  189.3660  177.2490  147.5130 C   0  0  0  0  0  0  0  0  0  0  0  0
  189.2730  177.9530  148.7080 O   0  0  0  0  0  1  0  0  0  0  0  0
  182.2050  174.9840  138.0170 C   0  0  0  0  0  2  0  0  0  0  0  0
  181.3290  175.4580  140.1840 O   0  0  0  0  0  0  0  0  0  0  0  0
  183.3840  175.3370  137.1440 C   0  0  0  0  0  0  0  0  0  0  0  0
  184.0960  176.4540  137.3560 C   0  0  0  0  0  3  0  0  0  0  0  0
  182.0990  175.8280  139.2580 C   0  0  0  0  0  0  0  0  0  0  0  0
  183.8140  177.3610  138.4800 C   0  0  0  0  0  3  0  0  0  0  0  0
  182.8660  177.0870  139.3790 C   0  0  0  0  0  0  0  0  0  0  0  0
  184.3410  173.1950  136.0960 C   0  0  0  0  0  0  0  0  0  0  0  0
  184.5550  172.4890  134.9200 O   0  0  0  0  0  0  0  0  0  0  0  0
  184.7290  172.7060  137.1900 O   0  0  0  0  0  1  0  0  0  0  0  0
  183.6770  174.4650  136.0430 N   0  0  0  0  0  2  0  0  0  0  0  0
  1  9  1  0  0  0  0
  1  3  2  0  0  0  0
  3  7  1  0  0  0  0
  4  6  1  1  0  0  0
  4  2  1  0  0  0  0
  5  6  1  0  0  0  0
  7  2  1  0  0  0  0
  7 19  1  1  0  0  0
  8 10  1  0  0  0  0
  9  8  1  6  0  0  0
  9  4  1  0  0  0  0
 10  5  1  0  0  0  0
 12 19  2  0  0  0  0
 12 17  1  0  0  0  0
 13 14  1  0  0  0  0
 13 22  1  0  0  0  0
 15 11  1  0  0  0  0
 15 14  2  0  0  0  0
 16 17  2  0  0  0  0
 16 18  1  0  0  0  0
 17 15  1  0  0  0  0
 18 13  2  0  0  0  0
 19 20  1  0  0  0  0
 20 11  2  0  0  0  0
 21 22  2  0  0  0  0
 22 23  1  0  0  0  0
 24 28  1  0  0  0  0
 26 27  2  0  0  0  0
 26 24  1  0  0  0  0
 27 29  1  0  0  0  0
 28 30  1  0  0  0  0
 28 25  2  0  0  0  0
 29 30  2  0  0  0  0
 30  1  1  0  0  0  0
 31 33  1  0  0  0  0
 32 31  2  0  0  0  0
 34 31  1  0  0  0  0
 34 26  1  0  0  0  0
M  END
>  <MODEL>
4

>  <REMARK>
 VINA RESULT:      -9.6      1.575      2.159
  Name = 
  4 active torsions:
  status: ('A' for Active; 'I' for Inactive)
    1  A    between atoms: C_1  and  C_34
    2  A    between atoms: CA_7  and  C_15
    3  A    between atoms: C_18  and  C_30
    4  A    between atoms: C_23  and  N_25
                            x       y       z     vdW  Elec       q    Type
                         _______ _______ _______ _____ _____    ______ ____

>  <TORSDO>
F 4

$$$$
=
 OpenBabel10262423293D

 34 38  0  0  1  0  0  0  0  0999 V2000
  190.8230  176.6710  138.3640 C   0  0  0  0  0  0  0  0  0  0  0  0
  188.3710  177.5570  139.6740 C   0  0  0  0  0  2  0  0  0  0  0  0
  190.8140  176.9360  139.6730 C   0  0  0  0  0  3  0  0  0  0  0  0
  188.3720  177.2000  138.1760 C   0  0  1  0  0  3  0  0  0  0  0  0
  187.5880  178.1710  135.9340 C   0  0  0  0  0  2  0  0  0  0  0  0
  187.3060  178.0150  137.4340 C   0  0  0  0  0  2  0  0  0  0  0  0
  189.7690  177.8520  140.2460 C   0  0  2  0  0  3  0  0  0  0  0  0
  189.7410  176.8620  136.0370 C   0  0  0  0  0  2  0  0  0  0  0  0
  189.7560  177.3190  137.5070 C   0  0  2  0  0  3  0  0  0  0  0  0
  188.3580  176.9720  135.3850 C   0  0  0  0  0  2  0  0  0  0  0  0
  190.9460  177.7960  143.8660 C   0  0  0  0  0  3  0  0  0  0  0  0
  188.5430  177.7530  142.4190 C   0  0  0  0  0  3  0  0  0  0  0  0
  188.5250  177.6540  146.5940 C   0  0  0  0  0  0  0  0  0  0  0  0
  189.6970  177.7080  145.9030 N   0  0  0  0  0  0  0  0  0  0  0  0
  189.7260  177.7390  144.5430 C   0  0  0  0  0  0  0  0  0  0  0  0
  187.3070  177.6600  144.5030 C   0  0  0  0  0  3  0  0  0  0  0  0
  188.5170  177.7150  143.8150 C   0  0  0  0  0  0  0  0  0  0  0  0
  187.3070  177.6290  145.8990 C   0  0  0  0  0  3  0  0  0  0  0  0
  189.7650  177.8110  141.7400 C   0  0  0  0  0  0  0  0  0  0  0  0
  190.9670  177.8300  142.4690 C   0  0  0  0  0  3  0  0  0  0  0  0
  187.6630  177.0000  148.7060 O   0  0  0  0  0  0  0  0  0  0  0  0
  188.5460  177.6270  148.0640 C   0  0  0  0  0  0  0  0  0  0  0  0
  189.5390  178.3100  148.7570 O   0  0  0  0  0  1  0  0  0  0  0  0
  192.5260  173.5050  136.7350 C   0  0  0  0  0  2  0  0  0  0  0  0
  190.3700  173.9000  137.6760 O   0  0  0  0  0  0  0  0  0  0  0  0
  193.9340  174.0390  136.8070 C   0  0  0  0  0  0  0  0  0  0  0  0
  194.1850  175.2820  137.2440 C   0  0  0  0  0  3  0  0  0  0  0  0
  191.5160  174.3690  137.4380 C   0  0  0  0  0  0  0  0  0  0  0  0
  193.1180  176.1700  137.7350 C   0  0  0  0  0  3  0  0  0  0  0  0
  191.8500  175.7570  137.8210 C   0  0  0  0  0  0  0  0  0  0  0  0
  195.8100  172.3090  137.1150 C   0  0  0  0  0  0  0  0  0  0  0  0
  196.8020  171.5670  136.4870 O   0  0  0  0  0  0  0  0  0  0  0  0
  195.6440  172.1920  138.3580 O   0  0  0  0  0  1  0  0  0  0  0  0
  194.9910  173.1900  136.3340 N   0  0  0  0  0  2  0  0  0  0  0  0
  1  3  2  0  0  0  0
  2  7  1  0  0  0  0
  3  7  1  0  0  0  0
  4  6  1  6  0  0  0
  4  2  1  0  0  0  0
  5  6  1  0  0  0  0
  7 19  1  1  0  0  0
  9  8  1  6  0  0  0
  9  4  1  0  0  0  0
  9  1  1  0  0  0  0
 10  5  1  0  0  0  0
 10  8  1  0  0  0  0
 11 15  1  0  0  0  0
 12 17  1  0  0  0  0
 13 22  1  0  0  0  0
 14 13  1  0  0  0  0
 15 14  2  0  0  0  0
 16 18  1  0  0  0  0
 17 16  2  0  0  0  0
 17 15  1  0  0  0  0
 18 13  2  0  0  0  0
 19 12  2  0  0  0  0
 19 20  1  0  0  0  0
 20 11  2  0  0  0  0
 22 21  2  0  0  0  0
 22 23  1  0  0  0  0
 24 26  1  0  0  0  0
 24 28  1  0  0  0  0
 26 27  2  0  0  0  0
 27 29  1  0  0  0  0
 28 25  2  0  0  0  0
 28 30  1  0  0  0  0
 29 30  2  0  0  0  0
 30  1  1  0  0  0  0
 31 33  1  0  0  0  0
 32 31  2  0  0  0  0
 34 26  1  0  0  0  0
 34 31  1  0  0  0  0
M  END
>  <MODEL>
5

>  <REMARK>
 VINA RESULT:      -9.5      5.975      8.089
  Name = 
  4 active torsions:
  status: ('A' for Active; 'I' for Inactive)
    1  A    between atoms: C_1  and  C_34
    2  A    between atoms: CA_7  and  C_15
    3  A    between atoms: C_18  and  C_30
    4  A    between atoms: C_23  and  N_25
                            x       y       z     vdW  Elec       q    Type
                         _______ _______ _______ _____ _____    ______ ____

>  <TORSDO>
F 4

$$$$
=
 OpenBabel10262423293D

 34 38  0  0  1  0  0  0  0  0999 V2000
  189.0450  177.9230  141.4160 C   0  0  0  0  0  0  0  0  0  0  0  0
  187.1260  177.6170  139.2390 C   0  0  0  0  0  2  0  0  0  0  0  0
  187.7710  178.2890  141.5820 C   0  0  0  0  0  3  0  0  0  0  0  0
  188.5830  177.1470  139.0690 C   0  0  1  0  0  3  0  0  0  0  0  0
  190.5220  177.3540  137.4020 C   0  0  0  0  0  2  0  0  0  0  0  0
  189.0050  177.2430  137.5980 C   0  0  0  0  0  2  0  0  0  0  0  0
  186.9250  178.6250  140.3850 C   0  0  2  0  0  3  0  0  0  0  0  0
  191.0100  177.3010  139.8760 C   0  0  0  0  0  2  0  0  0  0  0  0
  189.5820  177.8610  140.0020 C   0  0  2  0  0  3  0  0  0  0  0  0
  191.2810  176.6410  138.5190 C   0  0  0  0  0  2  0  0  0  0  0  0
  183.1460  179.0040  140.1260 C   0  0  0  0  0  3  0  0  0  0  0  0
  185.1170  178.7230  142.1040 C   0  0  0  0  0  3  0  0  0  0  0  0
  181.0840  179.0550  143.1380 C   0  0  0  0  0  0  0  0  0  0  0  0
  181.4740  179.0810  141.8330 N   0  0  0  0  0  0  0  0  0  0  0  0
  182.7810  178.9750  141.4750 C   0  0  0  0  0  0  0  0  0  0  0  0
  183.3950  178.8080  143.8100 C   0  0  0  0  0  3  0  0  0  0  0  0
  183.7730  178.8360  142.4690 C   0  0  0  0  0  0  0  0  0  0  0  0
  182.0460  178.9170  144.1490 C   0  0  0  0  0  3  0  0  0  0  0  0
  185.4820  178.7490  140.7530 C   0  0  0  0  0  0  0  0  0  0  0  0
  184.4920  178.8940  139.7660 C   0  0  0  0  0  3  0  0  0  0  0  0
  178.9560  180.0950  142.9910 O   0  0  0  0  0  0  0  0  0  0  0  0
  179.6570  179.1670  143.4740 C   0  0  0  0  0  0  0  0  0  0  0  0
  179.0750  178.2520  144.3440 O   0  0  0  0  0  1  0  0  0  0  0  0
  190.9910  175.8360  144.1430 C   0  0  0  0  0  2  0  0  0  0  0  0
  189.3950  175.2530  142.4690 O   0  0  0  0  0  0  0  0  0  0  0  0
  191.4300  177.0270  144.9580 C   0  0  0  0  0  0  0  0  0  0  0  0
  191.1680  178.2790  144.5550 C   0  0  0  0  0  3  0  0  0  0  0  0
  190.0320  176.1810  143.0380 C   0  0  0  0  0  0  0  0  0  0  0  0
  190.3890  178.5640  143.3380 C   0  0  0  0  0  3  0  0  0  0  0  0
  189.8570  177.5840  142.6040 C   0  0  0  0  0  0  0  0  0  0  0  0
  191.6800  176.5680  147.4740 C   0  0  0  0  0  0  0  0  0  0  0  0
  192.5690  176.3470  148.5180 O   0  0  0  0  0  1  0  0  0  0  0  0
  190.4430  176.5810  147.7080 O   0  0  0  0  0  0  0  0  0  0  0  0
  192.1890  176.7720  146.1490 N   0  0  0  0  0  2  0  0  0  0  0  0
  1  3  2  0  0  0  0
  1 30  1  0  0  0  0
  2  7  1  0  0  0  0
  4  6  1  6  0  0  0
  4  2  1  0  0  0  0
  4  9  1  0  0  0  0
  5  6  1  0  0  0  0
  5 10  1  0  0  0  0
  7 19  1  1  0  0  0
  7  3  1  0  0  0  0
  9  8  1  1  0  0  0
  9  1  1  0  0  0  0
 10  8  1  0  0  0  0
 11 15  1  0  0  0  0
 12 17  1  0  0  0  0
 13 22  1  0  0  0  0
 13 18  1  0  0  0  0
 14 13  2  0  0  0  0
 15 14  1  0  0  0  0
 15 17  2  0  0  0  0
 16 18  2  0  0  0  0
 17 16  1  0  0  0  0
 19 12  2  0  0  0  0
 20 11  2  0  0  0  0
 20 19  1  0  0  0  0
 21 22  2  0  0  0  0
 22 23  1  0  0  0  0
 24 26  1  0  0  0  0
 25 28  2  0  0  0  0
 26 34  1  0  0  0  0
 27 26  2  0  0  0  0
 28 24  1  0  0  0  0
 29 27  1  0  0  0  0
 30 28  1  0  0  0  0
 30 29  2  0  0  0  0
 31 33  2  0  0  0  0
 31 32  1  0  0  0  0
 34 31  1  0  0  0  0
M  END
>  <MODEL>
6

>  <REMARK>
 VINA RESULT:      -9.3      3.509      9.497
  Name = 
  4 active torsions:
  status: ('A' for Active; 'I' for Inactive)
    1  A    between atoms: C_1  and  C_34
    2  A    between atoms: CA_7  and  C_15
    3  A    between atoms: C_18  and  C_30
    4  A    between atoms: C_23  and  N_25
                            x       y       z     vdW  Elec       q    Type
                         _______ _______ _______ _____ _____    ______ ____

>  <TORSDO>
F 4

$$$$
=
 OpenBabel10262423293D

 34 38  0  0  1  0  0  0  0  0999 V2000
  184.9060  178.5790  141.1260 C   0  0  0  0  0  0  0  0  0  0  0  0
  187.0090  177.8780  143.0220 C   0  0  0  0  0  2  0  0  0  0  0  0
  186.1630  178.4140  140.7080 C   0  0  0  0  0  3  0  0  0  0  0  0
  185.5490  178.0180  143.4910 C   0  0  1  0  0  3  0  0  0  0  0  0
  184.1910  179.1650  145.3400 C   0  0  0  0  0  2  0  0  0  0  0  0
  185.5010  178.4660  144.9560 C   0  0  0  0  0  2  0  0  0  0  0  0
  187.3020  178.5680  141.6780 C   0  0  2  0  0  3  0  0  0  0  0  0
  183.2120  178.9600  143.0260 C   0  0  0  0  0  2  0  0  0  0  0  0
  184.6860  178.9200  142.5850 C   0  0  2  0  0  3  0  0  0  0  0  0
  183.0180  178.6440  144.5130 C   0  0  0  0  0  2  0  0  0  0  0  0
  190.9170  177.4260  141.3320 C   0  0  0  0  0  3  0  0  0  0  0  0
  188.6650  177.8510  139.7130 C   0  0  0  0  0  3  0  0  0  0  0  0
  192.2570  176.4980  138.0660 C   0  0  0  0  0  0  0  0  0  0  0  0
  192.1510  176.7440  139.4010 N   0  0  0  0  0  0  0  0  0  0  0  0
  190.9910  177.1850  139.9580 C   0  0  0  0  0  0  0  0  0  0  0  0
  189.9460  177.1570  137.7750 C   0  0  0  0  0  3  0  0  0  0  0  0
  189.8590  177.4020  139.1440 C   0  0  0  0  0  0  0  0  0  0  0  0
  191.1490  176.7030  137.2300 C   0  0  0  0  0  3  0  0  0  0  0  0
  188.5900  178.0890  141.0900 C   0  0  0  0  0  0  0  0  0  0  0  0
  189.7210  177.8780  141.8960 C   0  0  0  0  0  3  0  0  0  0  0  0
  194.2220  176.7530  136.7610 O   0  0  0  0  0  0  0  0  0  0  0  0
  193.5310  176.0160  137.5120 C   0  0  0  0  0  0  0  0  0  0  0  0
  193.9740  174.7310  137.8060 O   0  0  0  0  0  1  0  0  0  0  0  0
  182.5160  179.1590  138.0380 C   0  0  0  0  0  2  0  0  0  0  0  0
  184.1800  180.5030  139.0930 O   0  0  0  0  0  0  0  0  0  0  0  0
  181.5880  178.0120  138.3500 C   0  0  0  0  0  0  0  0  0  0  0  0
  181.8340  177.1760  139.3700 C   0  0  0  0  0  3  0  0  0  0  0  0
  183.5350  179.4200  139.1130 C   0  0  0  0  0  0  0  0  0  0  0  0
  182.9780  177.3630  140.2780 C   0  0  0  0  0  3  0  0  0  0  0  0
  183.7980  178.4110  140.1610 C   0  0  0  0  0  0  0  0  0  0  0  0
  180.4020  176.9570  136.3290 C   0  0  0  0  0  0  0  0  0  0  0  0
  179.2290  176.8970  135.5890 O   0  0  0  0  0  0  0  0  0  0  0  0
  181.3890  176.2560  135.9810 O   0  0  0  0  0  1  0  0  0  0  0  0
  180.4650  177.8120  137.4790 N   0  0  0  0  0  2  0  0  0  0  0  0
  1  9  1  0  0  0  0
  3  1  2  0  0  0  0
  3  7  1  0  0  0  0
  4  2  1  6  0  0  0
  4  6  1  0  0  0  0
  6  5  1  0  0  0  0
  7 19  1  6  0  0  0
  7  2  1  0  0  0  0
  8 10  1  0  0  0  0
  9  8  1  1  0  0  0
  9  4  1  0  0  0  0
 10  5  1  0  0  0  0
 11 20  1  0  0  0  0
 12 19  1  0  0  0  0
 13 14  2  0  0  0  0
 14 15  1  0  0  0  0
 15 11  2  0  0  0  0
 16 17  1  0  0  0  0
 17 12  2  0  0  0  0
 17 15  1  0  0  0  0
 18 16  2  0  0  0  0
 18 13  1  0  0  0  0
 19 20  2  0  0  0  0
 21 22  2  0  0  0  0
 22 23  1  0  0  0  0
 22 13  1  0  0  0  0
 24 26  1  0  0  0  0
 24 28  1  0  0  0  0
 25 28  2  0  0  0  0
 26 27  2  0  0  0  0
 27 29  1  0  0  0  0
 28 30  1  0  0  0  0
 30 29  2  0  0  0  0
 30  1  1  0  0  0  0
 31 34  1  0  0  0  0
 32 31  2  0  0  0  0
 33 31  1  0  0  0  0
 34 26  1  0  0  0  0
M  END
>  <MODEL>
7

>  <REMARK>
 VINA RESULT:      -9.3      4.374      5.613
  Name = 
  4 active torsions:
  status: ('A' for Active; 'I' for Inactive)
    1  A    between atoms: C_1  and  C_34
    2  A    between atoms: CA_7  and  C_15
    3  A    between atoms: C_18  and  C_30
    4  A    between atoms: C_23  and  N_25
                            x       y       z     vdW  Elec       q    Type
                         _______ _______ _______ _____ _____    ______ ____

>  <TORSDO>
F 4

$$$$
=
 OpenBabel10262423293D

 34 38  0  0  1  0  0  0  0  0999 V2000
  185.8110  178.6600  142.6570 C   0  0  0  0  0  0  0  0  0  0  0  0
  188.1410  177.5030  143.9810 C   0  0  0  0  0  2  0  0  0  0  0  0
  186.9540  178.4910  141.9870 C   0  0  0  0  0  3  0  0  0  0  0  0
  186.8060  177.6510  144.7350 C   0  0  1  0  0  3  0  0  0  0  0  0
  185.9110  178.5370  146.9690 C   0  0  0  0  0  2  0  0  0  0  0  0
  187.0610  177.8350  146.2350 C   0  0  0  0  0  2  0  0  0  0  0  0
  188.2560  178.4000  142.7350 C   0  0  2  0  0  3  0  0  0  0  0  0
  184.5230  178.8050  144.8810 C   0  0  0  0  0  2  0  0  0  0  0  0
  185.8860  178.7510  144.1670 C   0  0  2  0  0  3  0  0  0  0  0  0
  184.5670  178.2450  146.3070 C   0  0  0  0  0  2  0  0  0  0  0  0
  191.7040  177.3750  141.4890 C   0  0  0  0  0  3  0  0  0  0  0  0
  189.0980  177.6820  140.4960 C   0  0  0  0  0  3  0  0  0  0  0  0
  192.2000  176.4150  138.0030 C   0  0  0  0  0  0  0  0  0  0  0  0
  192.4290  176.6900  139.3170 N   0  0  0  0  0  0  0  0  0  0  0  0
  191.4340  177.1040  140.1460 C   0  0  0  0  0  0  0  0  0  0  0  0
  189.8670  176.9860  138.3050 C   0  0  0  0  0  3  0  0  0  0  0  0
  190.1230  177.2610  139.6470 C   0  0  0  0  0  0  0  0  0  0  0  0
  190.9080  176.5610  137.4760 C   0  0  0  0  0  3  0  0  0  0  0  0
  189.3680  177.9520  141.8430 C   0  0  0  0  0  0  0  0  0  0  0  0
  190.6760  177.8000  142.3350 C   0  0  0  0  0  3  0  0  0  0  0  0
  194.2390  176.7530  136.8370 O   0  0  0  0  0  1  0  0  0  0  0  0
  193.3080  175.9640  137.1480 C   0  0  0  0  0  0  0  0  0  0  0  0
  193.3260  174.6610  136.6650 O   0  0  0  0  0  0  0  0  0  0  0  0
  183.2410  178.9150  139.6720 C   0  0  0  0  0  2  0  0  0  0  0  0
  185.5900  179.2930  139.8450 O   0  0  0  0  0  0  0  0  0  0  0  0
  182.0060  178.9010  140.5380 C   0  0  0  0  0  0  0  0  0  0  0  0
  182.0890  178.7350  141.8660 C   0  0  0  0  0  3  0  0  0  0  0  0
  184.5240  179.0050  140.4530 C   0  0  0  0  0  0  0  0  0  0  0  0
  183.3820  178.6220  142.5620 C   0  0  0  0  0  3  0  0  0  0  0  0
  184.5400  178.7340  141.9070 C   0  0  0  0  0  0  0  0  0  0  0  0
  180.2030  180.1620  139.2090 C   0  0  0  0  0  0  0  0  0  0  0  0
  178.9400  180.0930  138.6370 O   0  0  0  0  0  0  0  0  0  0  0  0
  180.8620  181.2320  139.1240 O   0  0  0  0  0  1  0  0  0  0  0  0
  180.7350  179.0110  139.8810 N   0  0  0  0  0  2  0  0  0  0  0  0
  1  9  1  0  0  0  0
  3  1  2  0  0  0  0
  3  7  1  0  0  0  0
  4  2  1  6  0  0  0
  4  6  1  0  0  0  0
  6  5  1  0  0  0  0
  7 19  1  6  0  0  0
  7  2  1  0  0  0  0
  8 10  1  0  0  0  0
  9  4  1  0  0  0  0
  9  8  1  1  0  0  0
 10  5  1  0  0  0  0
 11 20  1  0  0  0  0
 12 19  1  0  0  0  0
 13 14  2  0  0  0  0
 14 15  1  0  0  0  0
 15 11  2  0  0  0  0
 16 17  1  0  0  0  0
 17 15  1  0  0  0  0
 17 12  2  0  0  0  0
 18 13  1  0  0  0  0
 18 16  2  0  0  0  0
 19 20  2  0  0  0  0
 21 22  1  0  0  0  0
 22 13  1  0  0  0  0
 23 22  2  0  0  0  0
 24 28  1  0  0  0  0
 24 26  1  0  0  0  0
 25 28  2  0  0  0  0
 26 27  2  0  0  0  0
 27 29  1  0  0  0  0
 28 30  1  0  0  0  0
 30 29  2  0  0  0  0
 30  1  1  0  0  0  0
 31 34  1  0  0  0  0
 32 31  2  0  0  0  0
 33 31  1  0  0  0  0
 34 26  1  0  0  0  0
M  END
>  <MODEL>
8

>  <REMARK>
 VINA RESULT:      -8.9      4.297      6.452
  Name = 
  4 active torsions:
  status: ('A' for Active; 'I' for Inactive)
    1  A    between atoms: C_1  and  C_34
    2  A    between atoms: CA_7  and  C_15
    3  A    between atoms: C_18  and  C_30
    4  A    between atoms: C_23  and  N_25
                            x       y       z     vdW  Elec       q    Type
                         _______ _______ _______ _____ _____    ______ ____

>  <TORSDO>
F 4

$$$$
=
 OpenBabel10262423293D

 34 38  0  0  1  0  0  0  0  0999 V2000
  187.0110  178.3410  144.1920 C   0  0  0  0  0  0  0  0  0  0  0  0
  189.5740  176.9620  144.4010 C   0  0  0  0  0  2  0  0  0  0  0  0
  187.8020  178.2210  143.1230 C   0  0  0  0  0  3  0  0  0  0  0  0
  188.6360  177.0570  145.6190 C   0  0  1  0  0  3  0  0  0  0  0  0
  188.7150  177.6930  148.1030 C   0  0  0  0  0  2  0  0  0  0  0  0
  189.4490  177.0500  146.9180 C   0  0  0  0  0  2  0  0  0  0  0  0
  189.2780  177.9990  143.3030 C   0  0  2  0  0  3  0  0  0  0  0  0
  186.6680  178.2550  146.7410 C   0  0  0  0  0  2  0  0  0  0  0  0
  187.6550  178.2460  145.5590 C   0  0  2  0  0  3  0  0  0  0  0  0
  187.2030  177.5250  147.9780 C   0  0  0  0  0  2  0  0  0  0  0  0
  191.9330  177.1280  140.7160 C   0  0  0  0  0  3  0  0  0  0  0  0
  189.1480  177.4310  140.8750 C   0  0  0  0  0  3  0  0  0  0  0  0
  190.9820  176.3820  137.2720 C   0  0  0  0  0  0  0  0  0  0  0  0
  191.7210  176.5850  138.3980 N   0  0  0  0  0  0  0  0  0  0  0  0
  191.1440  176.9280  139.5800 C   0  0  0  0  0  0  0  0  0  0  0  0
  188.9690  176.8810  138.5200 C   0  0  0  0  0  3  0  0  0  0  0  0
  189.7440  177.0840  139.6610 C   0  0  0  0  0  0  0  0  0  0  0  0
  189.5870  176.5280  137.3190 C   0  0  0  0  0  3  0  0  0  0  0  0
  189.9370  177.6290  142.0130 C   0  0  0  0  0  0  0  0  0  0  0  0
  191.3320  177.4790  141.9290 C   0  0  0  0  0  3  0  0  0  0  0  0
  192.7540  175.3980  136.0390 O   0  0  0  0  0  1  0  0  0  0  0  0
  191.6510  176.0060  136.0180 C   0  0  0  0  0  0  0  0  0  0  0  0
  191.0740  176.3340  134.7970 O   0  0  0  0  0  0  0  0  0  0  0  0
  183.4800  178.6500  142.4550 C   0  0  0  0  0  2  0  0  0  0  0  0
  185.7150  178.6040  141.6210 O   0  0  0  0  0  0  0  0  0  0  0  0
  182.7230  178.9880  143.7150 C   0  0  0  0  0  0  0  0  0  0  0  0
  183.3320  178.9980  144.9100 C   0  0  0  0  0  3  0  0  0  0  0  0
  184.9720  178.6090  142.6400 C   0  0  0  0  0  0  0  0  0  0  0  0
  184.7750  178.7440  145.0570 C   0  0  0  0  0  3  0  0  0  0  0  0
  185.5600  178.5460  143.9950 C   0  0  0  0  0  0  0  0  0  0  0  0
  180.2440  178.3330  143.8930 C   0  0  0  0  0  0  0  0  0  0  0  0
  178.9320  178.7450  143.7040 O   0  0  0  0  0  0  0  0  0  0  0  0
  180.4720  177.1730  144.3280 O   0  0  0  0  0  1  0  0  0  0  0  0
  181.3150  179.2400  143.5950 N   0  0  0  0  0  2  0  0  0  0  0  0
  1  9  1  0  0  0  0
  3  7  1  0  0  0  0
  3  1  2  0  0  0  0
  4  2  1  6  0  0  0
  4  6  1  0  0  0  0
  6  5  1  0  0  0  0
  7 19  1  6  0  0  0
  7  2  1  0  0  0  0
  8 10  1  0  0  0  0
  9  4  1  0  0  0  0
  9  8  1  1  0  0  0
 10  5  1  0  0  0  0
 11 20  1  0  0  0  0
 12 19  1  0  0  0  0
 13 18  1  0  0  0  0
 13 14  2  0  0  0  0
 14 15  1  0  0  0  0
 15 17  1  0  0  0  0
 15 11  2  0  0  0  0
 16 17  1  0  0  0  0
 17 12  2  0  0  0  0
 18 16  2  0  0  0  0
 20 19  2  0  0  0  0
 22 21  1  0  0  0  0
 22 13  1  0  0  0  0
 23 22  2  0  0  0  0
 24 28  1  0  0  0  0
 24 26  1  0  0  0  0
 25 28  2  0  0  0  0
 26 27  2  0  0  0  0
 27 29  1  0  0  0  0
 28 30  1  0  0  0  0
 30  1  1  0  0  0  0
 30 29  2  0  0  0  0
 31 33  1  0  0  0  0
 32 31  2  0  0  0  0
 34 26  1  0  0  0  0
 34 31  1  0  0  0  0
M  END
>  <MODEL>
9

>  <REMARK>
 VINA RESULT:      -8.7      4.245      7.847
  Name = 
  4 active torsions:
  status: ('A' for Active; 'I' for Inactive)
    1  A    between atoms: C_1  and  C_34
    2  A    between atoms: CA_7  and  C_15
    3  A    between atoms: C_18  and  C_30
    4  A    between atoms: C_23  and  N_25
                            x       y       z     vdW  Elec       q    Type
                         _______ _______ _______ _____ _____    ______ ____

>  <TORSDO>
F 4

$$$$
