=
 OpenBabel10262422573D

 37 41  0  0  1  0  0  0  0  0999 V2000
  190.7670  176.6870  146.0060 C   0  0  2  0  0  3  0  0  0  0  0  0
  190.5420  176.1480  142.4620 C   0  0  0  0  0  2  0  0  0  0  0  0
  188.3090  176.8730  143.5080 C   0  0  2  0  0  3  0  0  0  0  0  0
  192.5280  179.1360  144.2820 O   0  0  0  0  0  1  0  0  0  0  0  0
  189.1560  175.7230  142.9570 C   0  0  0  0  0  2  0  0  0  0  0  0
  191.5310  177.8560  145.8880 O   0  0  0  0  0  0  0  0  0  0  0  0
  191.5760  178.1440  144.5160 C   0  0  1  0  0  3  0  0  0  0  0  0
  190.6000  177.4780  141.6870 C   0  0  2  0  0  3  0  0  0  0  0  0
  189.0170  177.7560  144.5480 C   0  0  2  0  0  3  0  0  0  0  0  0
  190.1760  178.7420  142.4680 C   0  0  0  0  0  2  0  0  0  0  0  0
  190.1980  178.6070  144.0020 C   0  0  2  0  0  3  0  0  0  0  0  0
  189.2940  177.0500  145.8830 C   0  0  0  0  0  2  0  0  0  0  0  0
  189.9400  177.4030  140.3450 C   0  0  0  0  0  0  0  0  0  0  0  0
  189.1070  178.7370  137.5790 C   0  0  0  0  0  2  0  0  0  0  0  0
  189.1990  177.8350  136.3590 C   0  0  0  0  0  2  0  0  0  0  0  0
  190.4470  176.9640  136.4170 C   0  0  0  0  0  2  0  0  0  0  0  0
  190.8510  175.7380  138.5520 C   0  0  0  0  0  3  0  0  0  0  0  0
  190.2000  175.6840  137.2070 C   0  0  0  0  0  2  0  0  0  0  0  0
  188.1930  178.1150  138.6200 C   0  0  0  0  0  2  0  0  0  0  0  0
  190.4130  176.5580  139.4660 C   0  0  0  0  0  0  0  0  0  0  0  0
  188.7750  178.3100  140.0190 C   0  0  0  0  0  2  0  0  0  0  0  0
  191.0250  176.0370  147.3530 C   0  0  0  0  0  3  0  0  0  0  0  0
  192.2560  176.6580  147.9820 C   0  0  0  0  0  2  0  0  0  0  0  0
  192.3520  175.3050  147.3100 C   0  0  0  0  0  2  0  0  0  0  0  0
  186.9530  176.3860  144.0030 C   0  0  0  0  0  2  0  0  0  0  0  0
  184.9580  179.5250  144.7290 N   0  0  0  0  0  0  0  0  0  0  0  0
  185.5320  178.5190  144.0090 C   0  0  0  0  0  0  0  0  0  0  0  0
  185.0110  179.5740  146.0860 C   0  0  0  0  0  3  0  0  0  0  0  0
  186.2770  177.5340  146.0960 C   0  0  0  0  0  3  0  0  0  0  0  0
  185.6700  178.5740  146.7960 C   0  0  0  0  0  3  0  0  0  0  0  0
  186.2190  177.4900  144.6990 C   0  0  0  0  0  0  0  0  0  0  0  0
  183.9310  178.0280  140.5240 C   0  0  0  0  0  0  0  0  0  0  0  0
  185.3980  178.5610  142.5350 C   0  0  0  0  0  0  0  0  0  0  0  0
  184.2030  178.0500  141.9290 N   0  0  0  0  0  2  0  0  0  0  0  0
  186.3240  179.0220  141.8120 O   0  0  0  0  0  0  0  0  0  0  0  0
  182.3870  177.3440  139.9420 S   0  0  0  0  0  1  0  0  0  0  0  0
  184.7590  178.4830  139.6920 O   0  0  0  0  0  0  0  0  0  0  0  0
  1 22  1  1  0  0  0
  2  5  1  0  0  0  0
  3 25  1  1  0  0  0
  3  9  1  0  0  0  0
  5  3  1  0  0  0  0
  6  1  1  0  0  0  0
  7  4  1  1  0  0  0
  7  6  1  0  0  0  0
  8 13  1  6  0  0  0
  8  2  1  0  0  0  0
  8 10  1  0  0  0  0
  9 12  1  1  0  0  0
 11 10  1  6  0  0  0
 11  7  1  0  0  0  0
 11  9  1  0  0  0  0
 12  1  1  0  0  0  0
 14 19  1  0  0  0  0
 15 16  1  0  0  0  0
 15 14  1  0  0  0  0
 16 18  1  0  0  0  0
 17 20  2  0  0  0  0
 18 17  1  0  0  0  0
 19 21  1  0  0  0  0
 20 13  2  0  0  0  0
 21 13  1  0  0  0  0
 22 23  1  0  0  0  0
 24 22  1  0  0  0  0
 24 23  1  0  0  0  0
 25 31  1  0  0  0  0
 26 28  1  0  0  0  0
 27 31  1  0  0  0  0
 27 26  2  0  0  0  0
 28 30  2  0  0  0  0
 29 30  1  0  0  0  0
 31 29  2  0  0  0  0
 32 34  1  0  0  0  0
 33 27  1  0  0  0  0
 34 33  1  0  0  0  0
 35 33  2  0  0  0  0
 36 32  1  0  0  0  0
 37 32  2  0  0  0  0
M  END
>  <MODEL>
1

>  <REMARK>
 VINA RESULT:      -9.8      0.000      0.000
  Name = 
  5 active torsions:
  status: ('A' for Active; 'I' for Inactive)
    1  A    between atoms: C_1  and  C_5
    2  A    between atoms: C_2  and  C_27
    3  A    between atoms: C_4  and  C_10
    4  A    between atoms: C_4  and  C_28
    5  A    between atoms: C_13  and  C_20
                            x       y       z     vdW  Elec       q    Type
                         _______ _______ _______ _____ _____    ______ ____

>  <TORSDO>
F 5

$$$$
=
 OpenBabel10262422573D

 37 41  0  0  1  0  0  0  0  0999 V2000
  190.8250  176.6290  145.9570 C   0  0  2  0  0  3  0  0  0  0  0  0
  190.3240  176.1040  142.4380 C   0  0  0  0  0  2  0  0  0  0  0  0
  188.2380  177.0300  143.6190 C   0  0  2  0  0  3  0  0  0  0  0  0
  192.6840  178.9040  144.1030 O   0  0  0  0  0  1  0  0  0  0  0  0
  188.9410  175.8070  143.0250 C   0  0  0  0  0  2  0  0  0  0  0  0
  191.6820  177.7240  145.7810 O   0  0  0  0  0  0  0  0  0  0  0  0
  191.6640  178.0040  144.4060 C   0  0  1  0  0  3  0  0  0  0  0  0
  190.4520  177.4210  141.6510 C   0  0  2  0  0  3  0  0  0  0  0  0
  189.0890  177.8480  144.6050 C   0  0  2  0  0  3  0  0  0  0  0  0
  190.1950  178.7210  142.4460 C   0  0  0  0  0  2  0  0  0  0  0  0
  190.3030  178.5880  143.9770 C   0  0  2  0  0  3  0  0  0  0  0  0
  189.3850  177.1230  145.9250 C   0  0  0  0  0  2  0  0  0  0  0  0
  189.7030  177.4030  140.3540 C   0  0  0  0  0  0  0  0  0  0  0  0
  188.6540  178.8630  137.7290 C   0  0  0  0  0  2  0  0  0  0  0  0
  188.6810  178.0310  136.4580 C   0  0  0  0  0  2  0  0  0  0  0  0
  189.9480  177.1880  136.3820 C   0  0  0  0  0  2  0  0  0  0  0  0
  190.5220  175.8590  138.4140 C   0  0  0  0  0  3  0  0  0  0  0  0
  189.7820  175.8620  137.1160 C   0  0  0  0  0  2  0  0  0  0  0  0
  187.8270  178.1640  138.7930 C   0  0  0  0  0  2  0  0  0  0  0  0
  190.1310  176.6180  139.4000 C   0  0  0  0  0  0  0  0  0  0  0  0
  188.5000  178.2970  140.1580 C   0  0  0  0  0  2  0  0  0  0  0  0
  191.1100  175.9620  147.2900 C   0  0  0  0  0  3  0  0  0  0  0  0
  192.3390  176.5910  147.9130 C   0  0  0  0  0  2  0  0  0  0  0  0
  192.4460  175.2500  147.2190 C   0  0  0  0  0  2  0  0  0  0  0  0
  186.8780  176.6690  144.2040 C   0  0  0  0  0  2  0  0  0  0  0  0
  184.4460  179.4710  144.9760 N   0  0  0  0  0  0  0  0  0  0  0  0
  185.3600  178.4830  145.1920 C   0  0  0  0  0  0  0  0  0  0  0  0
  184.0640  179.8520  143.7280 C   0  0  0  0  0  3  0  0  0  0  0  0
  185.5390  178.2070  142.7890 C   0  0  0  0  0  3  0  0  0  0  0  0
  184.6080  179.2270  142.6100 C   0  0  0  0  0  3  0  0  0  0  0  0
  185.9280  177.8200  144.0760 C   0  0  0  0  0  0  0  0  0  0  0  0
  187.5190  178.1970  148.3880 C   0  0  0  0  0  0  0  0  0  0  0  0
  185.7120  178.1630  146.5950 C   0  0  0  0  0  0  0  0  0  0  0  0
  187.0380  178.4460  147.0630 N   0  0  0  0  0  2  0  0  0  0  0  0
  184.8700  177.6300  147.3690 O   0  0  0  0  0  0  0  0  0  0  0  0
  189.2080  178.6090  148.7970 S   0  0  0  0  0  1  0  0  0  0  0  0
  186.7730  177.6940  149.2690 O   0  0  0  0  0  0  0  0  0  0  0  0
  1 22  1  1  0  0  0
  2  5  1  0  0  0  0
  3 25  1  1  0  0  0
  3  9  1  0  0  0  0
  5  3  1  0  0  0  0
  6  1  1  0  0  0  0
  7  4  1  1  0  0  0
  7  6  1  0  0  0  0
  8 13  1  6  0  0  0
  8  2  1  0  0  0  0
  8 10  1  0  0  0  0
  9 12  1  1  0  0  0
 11 10  1  6  0  0  0
 11  7  1  0  0  0  0
 11  9  1  0  0  0  0
 12  1  1  0  0  0  0
 14 19  1  0  0  0  0
 15 14  1  0  0  0  0
 16 15  1  0  0  0  0
 16 18  1  0  0  0  0
 17 20  2  0  0  0  0
 18 17  1  0  0  0  0
 19 21  1  0  0  0  0
 20 13  2  0  0  0  0
 21 13  1  0  0  0  0
 22 23  1  0  0  0  0
 24 22  1  0  0  0  0
 24 23  1  0  0  0  0
 26 27  1  0  0  0  0
 27 33  1  0  0  0  0
 28 26  2  0  0  0  0
 29 31  1  0  0  0  0
 30 29  2  0  0  0  0
 30 28  1  0  0  0  0
 31 25  1  0  0  0  0
 31 27  2  0  0  0  0
 32 36  1  0  0  0  0
 32 37  2  0  0  0  0
 33 34  1  0  0  0  0
 33 35  2  0  0  0  0
 34 32  1  0  0  0  0
M  END
>  <MODEL>
2

>  <REMARK>
 VINA RESULT:      -8.5      2.579      3.393
  Name = 
  5 active torsions:
  status: ('A' for Active; 'I' for Inactive)
    1  A    between atoms: C_1  and  C_5
    2  A    between atoms: C_2  and  C_27
    3  A    between atoms: C_4  and  C_10
    4  A    between atoms: C_4  and  C_28
    5  A    between atoms: C_13  and  C_20
                            x       y       z     vdW  Elec       q    Type
                         _______ _______ _______ _____ _____    ______ ____

>  <TORSDO>
F 5

$$$$
=
 OpenBabel10262422573D

 37 41  0  0  1  0  0  0  0  0999 V2000
  181.2740  178.9590  140.6890 C   0  0  2  0  0  3  0  0  0  0  0  0
  183.5800  178.7110  137.9450 C   0  0  0  0  0  2  0  0  0  0  0  0
  184.7020  178.3580  140.2300 C   0  0  2  0  0  3  0  0  0  0  0  0
  180.6500  176.0970  138.8200 O   0  0  0  0  0  1  0  0  0  0  0  0
  184.4440  179.3090  139.0590 C   0  0  0  0  0  2  0  0  0  0  0  0
  180.6250  177.7530  140.3920 O   0  0  0  0  0  0  0  0  0  0  0  0
  181.3670  177.1660  139.3560 C   0  0  1  0  0  3  0  0  0  0  0  0
  183.8690  177.2420  137.5860 C   0  0  2  0  0  3  0  0  0  0  0  0
  183.4440  177.6900  140.8090 C   0  0  2  0  0  3  0  0  0  0  0  0
  183.6420  176.2060  138.7100 C   0  0  0  0  0  2  0  0  0  0  0  0
  182.7380  176.6760  139.8650 C   0  0  2  0  0  3  0  0  0  0  0  0
  182.5020  178.6580  141.5380 C   0  0  0  0  0  2  0  0  0  0  0  0
  185.1940  177.0530  136.9140 C   0  0  0  0  0  0  0  0  0  0  0  0
  188.2460  177.8590  136.5090 C   0  0  0  0  0  2  0  0  0  0  0  0
  189.2070  176.7040  136.2820 C   0  0  0  0  0  2  0  0  0  0  0  0
  188.8640  175.5220  137.1800 C   0  0  0  0  0  2  0  0  0  0  0  0
  186.4770  174.7970  137.2010 C   0  0  0  0  0  3  0  0  0  0  0  0
  187.8080  174.6240  136.5440 C   0  0  0  0  0  2  0  0  0  0  0  0
  187.1460  177.8370  135.4620 C   0  0  0  0  0  2  0  0  0  0  0  0
  185.8140  175.9120  137.0700 C   0  0  0  0  0  0  0  0  0  0  0  0
  185.8010  178.1740  136.1010 C   0  0  0  0  0  2  0  0  0  0  0  0
  180.3350  179.8750  141.4500 C   0  0  0  0  0  3  0  0  0  0  0  0
  178.9310  179.7220  140.9020 C   0  0  0  0  0  2  0  0  0  0  0  0
  179.7720  180.9150  140.5020 C   0  0  0  0  0  2  0  0  0  0  0  0
  185.5480  179.0150  141.3140 C   0  0  0  0  0  2  0  0  0  0  0  0
  188.6690  177.3350  142.6550 N   0  0  0  0  0  0  0  0  0  0  0  0
  187.4130  177.8660  142.6450 C   0  0  0  0  0  0  0  0  0  0  0  0
  189.4290  177.2370  141.5330 C   0  0  0  0  0  3  0  0  0  0  0  0
  187.6590  178.2440  140.2610 C   0  0  0  0  0  3  0  0  0  0  0  0
  188.9350  177.6880  140.3120 C   0  0  0  0  0  3  0  0  0  0  0  0
  186.8820  178.3420  141.4210 C   0  0  0  0  0  0  0  0  0  0  0  0
  186.8250  177.9440  146.4660 C   0  0  0  0  0  0  0  0  0  0  0  0
  186.6700  177.9070  143.9250 C   0  0  0  0  0  0  0  0  0  0  0  0
  187.4040  177.9030  145.1570 N   0  0  0  0  0  2  0  0  0  0  0  0
  185.4090  177.9280  143.9420 O   0  0  0  0  0  0  0  0  0  0  0  0
  187.8940  177.9250  147.8960 S   0  0  0  0  0  1  0  0  0  0  0  0
  185.5780  177.9950  146.6260 O   0  0  0  0  0  0  0  0  0  0  0  0
  1 22  1  1  0  0  0
  1 12  1  0  0  0  0
  2  5  1  0  0  0  0
  3  9  1  0  0  0  0
  3 25  1  1  0  0  0
  5  3  1  0  0  0  0
  6  1  1  0  0  0  0
  7  4  1  1  0  0  0
  7 11  1  0  0  0  0
  7  6  1  0  0  0  0
  8 13  1  1  0  0  0
  8  2  1  0  0  0  0
  8 10  1  0  0  0  0
  9 12  1  6  0  0  0
 11 10  1  6  0  0  0
 11  9  1  0  0  0  0
 13 20  2  0  0  0  0
 15 14  1  0  0  0  0
 15 16  1  0  0  0  0
 18 16  1  0  0  0  0
 18 17  1  0  0  0  0
 19 21  1  0  0  0  0
 19 14  1  0  0  0  0
 20 17  2  0  0  0  0
 21 13  1  0  0  0  0
 23 22  1  0  0  0  0
 24 23  1  0  0  0  0
 24 22  1  0  0  0  0
 25 31  1  0  0  0  0
 27 26  1  0  0  0  0
 27 33  1  0  0  0  0
 28 26  2  0  0  0  0
 29 30  2  0  0  0  0
 29 31  1  0  0  0  0
 30 28  1  0  0  0  0
 31 27  2  0  0  0  0
 32 37  2  0  0  0  0
 32 36  1  0  0  0  0
 33 35  2  0  0  0  0
 33 34  1  0  0  0  0
 34 32  1  0  0  0  0
M  END
>  <MODEL>
3

>  <REMARK>
 VINA RESULT:      -8.4      3.434      7.769
  Name = 
  5 active torsions:
  status: ('A' for Active; 'I' for Inactive)
    1  A    between atoms: C_1  and  C_5
    2  A    between atoms: C_2  and  C_27
    3  A    between atoms: C_4  and  C_10
    4  A    between atoms: C_4  and  C_28
    5  A    between atoms: C_13  and  C_20
                            x       y       z     vdW  Elec       q    Type
                         _______ _______ _______ _____ _____    ______ ____

>  <TORSDO>
F 5

$$$$
=
 OpenBabel10262422573D

 37 41  0  0  1  0  0  0  0  0999 V2000
  183.9870  177.9250  141.0730 C   0  0  2  0  0  3  0  0  0  0  0  0
  186.4300  176.8790  143.4910 C   0  0  0  0  0  2  0  0  0  0  0  0
  187.1930  178.9090  142.1110 C   0  0  2  0  0  3  0  0  0  0  0  0
  182.8770  178.5850  144.2990 O   0  0  0  0  0  1  0  0  0  0  0  0
  187.2950  177.3990  142.3390 C   0  0  0  0  0  2  0  0  0  0  0  0
  183.0960  178.4280  142.0320 O   0  0  0  0  0  0  0  0  0  0  0  0
  183.7750  178.3530  143.2570 C   0  0  1  0  0  3  0  0  0  0  0  0
  186.3870  177.7640  144.7510 C   0  0  2  0  0  3  0  0  0  0  0  0
  185.7570  179.4500  142.0070 C   0  0  2  0  0  3  0  0  0  0  0  0
  185.8000  179.1820  144.5710 C   0  0  0  0  0  2  0  0  0  0  0  0
  184.9250  179.3780  143.3190 C   0  0  2  0  0  3  0  0  0  0  0  0
  185.0110  179.0030  140.7430 C   0  0  0  0  0  2  0  0  0  0  0  0
  187.6870  177.7880  145.4940 C   0  0  0  0  0  0  0  0  0  0  0  0
  189.8580  176.3780  147.3430 C   0  0  0  0  0  2  0  0  0  0  0  0
  191.3080  176.6850  147.0080 C   0  0  0  0  0  2  0  0  0  0  0  0
  191.5260  176.7170  145.5010 C   0  0  0  0  0  2  0  0  0  0  0  0
  189.9200  178.0910  144.1740 C   0  0  0  0  0  3  0  0  0  0  0  0
  191.2150  178.0920  144.9200 C   0  0  0  0  0  2  0  0  0  0  0  0
  189.1010  177.6660  147.6190 C   0  0  0  0  0  2  0  0  0  0  0  0
  188.7910  177.9450  144.8100 C   0  0  0  0  0  0  0  0  0  0  0  0
  187.7090  177.6050  146.9940 C   0  0  0  0  0  2  0  0  0  0  0  0
  183.2270  177.5360  139.8190 C   0  0  0  0  0  3  0  0  0  0  0  0
  181.7670  177.3250  140.1620 C   0  0  0  0  0  2  0  0  0  0  0  0
  182.6800  176.1320  139.9800 C   0  0  0  0  0  2  0  0  0  0  0  0
  188.0580  179.3620  140.9420 C   0  0  0  0  0  2  0  0  0  0  0  0
  189.5120  176.4560  138.9910 N   0  0  0  0  0  0  0  0  0  0  0  0
  188.6960  177.5060  139.2930 C   0  0  0  0  0  0  0  0  0  0  0  0
  190.5580  176.0940  139.7800 C   0  0  0  0  0  3  0  0  0  0  0  0
  190.0160  177.8780  141.2930 C   0  0  0  0  0  3  0  0  0  0  0  0
  190.8320  176.8040  140.9460 C   0  0  0  0  0  3  0  0  0  0  0  0
  188.9410  178.2440  140.4770 C   0  0  0  0  0  0  0  0  0  0  0  0
  185.5810  176.9280  137.0760 C   0  0  0  0  0  0  0  0  0  0  0  0
  187.5960  177.8180  138.3510 C   0  0  0  0  0  0  0  0  0  0  0  0
  186.6890  176.7750  137.9690 N   0  0  0  0  0  2  0  0  0  0  0  0
  187.4620  178.9780  137.8740 O   0  0  0  0  0  0  0  0  0  0  0  0
  184.5550  175.5140  136.7040 S   0  0  0  0  0  1  0  0  0  0  0  0
  185.3170  178.0400  136.5490 O   0  0  0  0  0  0  0  0  0  0  0  0
  1 22  1  6  0  0  0
  1  6  1  0  0  0  0
  2  8  1  0  0  0  0
  3 25  1  6  0  0  0
  3  5  1  0  0  0  0
  5  2  1  0  0  0  0
  6  7  1  0  0  0  0
  7 11  1  0  0  0  0
  7  4  1  1  0  0  0
  8 13  1  6  0  0  0
  9 12  1  6  0  0  0
  9  3  1  0  0  0  0
  9 11  1  0  0  0  0
 10  8  1  0  0  0  0
 11 10  1  1  0  0  0
 12  1  1  0  0  0  0
 13 21  1  0  0  0  0
 14 19  1  0  0  0  0
 15 14  1  0  0  0  0
 16 15  1  0  0  0  0
 17 20  2  0  0  0  0
 17 18  1  0  0  0  0
 18 16  1  0  0  0  0
 20 13  2  0  0  0  0
 21 19  1  0  0  0  0
 22 24  1  0  0  0  0
 22 23  1  0  0  0  0
 24 23  1  0  0  0  0
 26 27  2  0  0  0  0
 26 28  1  0  0  0  0
 27 31  1  0  0  0  0
 28 30  2  0  0  0  0
 30 29  1  0  0  0  0
 31 25  1  0  0  0  0
 31 29  2  0  0  0  0
 32 34  1  0  0  0  0
 33 27  1  0  0  0  0
 34 33  1  0  0  0  0
 35 33  2  0  0  0  0
 36 32  1  0  0  0  0
 37 32  2  0  0  0  0
M  END
>  <MODEL>
4

>  <REMARK>
 VINA RESULT:      -8.1      2.998      7.304
  Name = 
  5 active torsions:
  status: ('A' for Active; 'I' for Inactive)
    1  A    between atoms: C_1  and  C_5
    2  A    between atoms: C_2  and  C_27
    3  A    between atoms: C_4  and  C_10
    4  A    between atoms: C_4  and  C_28
    5  A    between atoms: C_13  and  C_20
                            x       y       z     vdW  Elec       q    Type
                         _______ _______ _______ _____ _____    ______ ____

>  <TORSDO>
F 5

$$$$
=
 OpenBabel10262422573D

 37 41  0  0  1  0  0  0  0  0999 V2000
  190.5150  177.0000  145.9160 C   0  0  2  0  0  3  0  0  0  0  0  0
  190.8220  176.0820  142.4560 C   0  0  0  0  0  2  0  0  0  0  0  0
  188.5660  177.1850  143.0030 C   0  0  2  0  0  3  0  0  0  0  0  0
  192.8640  179.0040  144.3220 O   0  0  0  0  0  1  0  0  0  0  0  0
  189.3270  175.8870  142.7260 C   0  0  0  0  0  2  0  0  0  0  0  0
  191.4420  178.0480  145.8310 O   0  0  0  0  0  0  0  0  0  0  0  0
  191.7580  178.1670  144.4700 C   0  0  1  0  0  3  0  0  0  0  0  0
  191.1940  177.2970  141.5850 C   0  0  2  0  0  3  0  0  0  0  0  0
  189.2030  178.0930  144.0680 C   0  0  2  0  0  3  0  0  0  0  0  0
  190.8230  178.6850  142.1520 C   0  0  0  0  0  2  0  0  0  0  0  0
  190.5650  178.7280  143.6700 C   0  0  2  0  0  3  0  0  0  0  0  0
  189.1480  177.5190  145.4910 C   0  0  0  0  0  2  0  0  0  0  0  0
  190.7670  177.1450  140.1570 C   0  0  0  0  0  0  0  0  0  0  0  0
  189.3540  175.4840  137.8400 C   0  0  0  0  0  2  0  0  0  0  0  0
  188.5480  176.3000  136.8430 C   0  0  0  0  0  2  0  0  0  0  0  0
  187.7700  177.4070  137.5430 C   0  0  0  0  0  2  0  0  0  0  0  0
  189.0550  178.8330  139.1370 C   0  0  0  0  0  3  0  0  0  0  0  0
  188.6180  178.6620  137.7190 C   0  0  0  0  0  2  0  0  0  0  0  0
  190.7890  175.9800  137.8820 C   0  0  0  0  0  2  0  0  0  0  0  0
  189.9120  178.0060  139.6690 C   0  0  0  0  0  0  0  0  0  0  0  0
  191.2990  176.0030  139.3220 C   0  0  0  0  0  2  0  0  0  0  0  0
  190.4480  176.4860  147.3420 C   0  0  0  0  0  3  0  0  0  0  0  0
  191.7690  176.7560  148.0350 C   0  0  0  0  0  2  0  0  0  0  0  0
  191.4570  175.3680  147.5190 C   0  0  0  0  0  2  0  0  0  0  0  0
  187.0910  176.9240  143.2830 C   0  0  0  0  0  2  0  0  0  0  0  0
  184.3740  179.3140  142.1560 N   0  0  0  0  0  0  0  0  0  0  0  0
  185.1480  178.5720  142.9990 C   0  0  0  0  0  0  0  0  0  0  0  0
  184.6050  179.3780  140.8190 C   0  0  0  0  0  3  0  0  0  0  0  0
  186.4750  177.8950  141.0840 C   0  0  0  0  0  3  0  0  0  0  0  0
  185.6650  178.6710  140.2580 C   0  0  0  0  0  3  0  0  0  0  0  0
  186.2300  177.8330  142.4600 C   0  0  0  0  0  0  0  0  0  0  0  0
  185.7020  178.5890  146.8260 C   0  0  0  0  0  0  0  0  0  0  0  0
  184.8120  178.5890  144.4410 C   0  0  0  0  0  0  0  0  0  0  0  0
  185.8730  178.5710  145.4050 N   0  0  0  0  0  2  0  0  0  0  0  0
  183.6110  178.6000  144.8260 O   0  0  0  0  0  0  0  0  0  0  0  0
  187.1420  178.5560  147.8810 S   0  0  0  0  0  1  0  0  0  0  0  0
  184.5560  178.6280  147.3440 O   0  0  0  0  0  0  0  0  0  0  0  0
  1 22  1  1  0  0  0
  2  5  1  0  0  0  0
  3 25  1  1  0  0  0
  3  9  1  0  0  0  0
  5  3  1  0  0  0  0
  6  1  1  0  0  0  0
  7  4  1  1  0  0  0
  7  6  1  0  0  0  0
  8 13  1  6  0  0  0
  8 10  1  0  0  0  0
  8  2  1  0  0  0  0
  9 12  1  1  0  0  0
 11 10  1  6  0  0  0
 11  9  1  0  0  0  0
 11  7  1  0  0  0  0
 12  1  1  0  0  0  0
 14 19  1  0  0  0  0
 15 16  1  0  0  0  0
 15 14  1  0  0  0  0
 16 18  1  0  0  0  0
 17 20  2  0  0  0  0
 18 17  1  0  0  0  0
 19 21  1  0  0  0  0
 20 13  2  0  0  0  0
 21 13  1  0  0  0  0
 22 24  1  0  0  0  0
 22 23  1  0  0  0  0
 24 23  1  0  0  0  0
 26 27  1  0  0  0  0
 27 33  1  0  0  0  0
 28 26  2  0  0  0  0
 29 31  1  0  0  0  0
 30 28  1  0  0  0  0
 30 29  2  0  0  0  0
 31 27  2  0  0  0  0
 31 25  1  0  0  0  0
 32 37  2  0  0  0  0
 32 36  1  0  0  0  0
 33 35  2  0  0  0  0
 33 34  1  0  0  0  0
 34 32  1  0  0  0  0
M  END
>  <MODEL>
5

>  <REMARK>
 VINA RESULT:      -8.1      2.136      3.344
  Name = 
  5 active torsions:
  status: ('A' for Active; 'I' for Inactive)
    1  A    between atoms: C_1  and  C_5
    2  A    between atoms: C_2  and  C_27
    3  A    between atoms: C_4  and  C_10
    4  A    between atoms: C_4  and  C_28
    5  A    between atoms: C_13  and  C_20
                            x       y       z     vdW  Elec       q    Type
                         _______ _______ _______ _____ _____    ______ ____

>  <TORSDO>
F 5

$$$$
=
 OpenBabel10262422573D

 37 41  0  0  1  0  0  0  0  0999 V2000
  183.8070  177.7660  140.6620 C   0  0  2  0  0  3  0  0  0  0  0  0
  185.7980  177.1010  143.5780 C   0  0  0  0  0  2  0  0  0  0  0  0
  186.6930  179.0640  142.1810 C   0  0  2  0  0  3  0  0  0  0  0  0
  182.0640  178.5990  143.5500 O   0  0  0  0  0  1  0  0  0  0  0  0
  186.8370  177.5890  142.5630 C   0  0  0  0  0  2  0  0  0  0  0  0
  182.7220  178.2770  141.3880 O   0  0  0  0  0  0  0  0  0  0  0  0
  183.1570  178.3510  142.7190 C   0  0  1  0  0  3  0  0  0  0  0  0
  185.4630  178.0790  144.7200 C   0  0  2  0  0  3  0  0  0  0  0  0
  185.2760  179.4870  141.7620 C   0  0  2  0  0  3  0  0  0  0  0  0
  184.8420  179.4300  144.3030 C   0  0  0  0  0  2  0  0  0  0  0  0
  184.2130  179.4600  142.8970 C   0  0  2  0  0  3  0  0  0  0  0  0
  184.8120  178.8860  140.4280 C   0  0  0  0  0  2  0  0  0  0  0  0
  186.5940  178.2580  145.6860 C   0  0  0  0  0  0  0  0  0  0  0  0
  187.9310  177.7420  148.5270 C   0  0  0  0  0  2  0  0  0  0  0  0
  189.4320  177.5080  148.5150 C   0  0  0  0  0  2  0  0  0  0  0  0
  189.8410  176.6380  147.3330 C   0  0  0  0  0  2  0  0  0  0  0  0
  188.9540  177.3070  145.0990 C   0  0  0  0  0  3  0  0  0  0  0  0
  190.0720  177.4710  146.0780 C   0  0  0  0  0  2  0  0  0  0  0  0
  187.6060  179.0800  147.8840 C   0  0  0  0  0  2  0  0  0  0  0  0
  187.7670  177.7760  145.3660 C   0  0  0  0  0  0  0  0  0  0  0  0
  186.3620  178.9560  147.0070 C   0  0  0  0  0  2  0  0  0  0  0  0
  183.3250  177.2220  139.3300 C   0  0  0  0  0  3  0  0  0  0  0  0
  181.8120  177.1470  139.3370 C   0  0  0  0  0  2  0  0  0  0  0  0
  182.6310  175.8930  139.5530 C   0  0  0  0  0  2  0  0  0  0  0  0
  187.7390  179.4840  141.1560 C   0  0  0  0  0  2  0  0  0  0  0  0
  189.9020  176.6800  139.8050 N   0  0  0  0  0  0  0  0  0  0  0  0
  188.9730  177.6780  139.8180 C   0  0  0  0  0  0  0  0  0  0  0  0
  190.6640  176.3770  140.8880 C   0  0  0  0  0  3  0  0  0  0  0  0
  189.5680  178.1170  142.1280 C   0  0  0  0  0  3  0  0  0  0  0  0
  190.5130  177.0950  142.0720 C   0  0  0  0  0  3  0  0  0  0  0  0
  188.7870  178.4230  141.0090 C   0  0  0  0  0  0  0  0  0  0  0  0
  186.5050  177.0270  136.9130 C   0  0  0  0  0  0  0  0  0  0  0  0
  188.2110  177.9290  138.5730 C   0  0  0  0  0  0  0  0  0  0  0  0
  187.3080  176.9240  138.0930 N   0  0  0  0  0  2  0  0  0  0  0  0
  188.3610  179.0030  137.9270 O   0  0  0  0  0  0  0  0  0  0  0  0
  185.4380  175.6690  136.4600 S   0  0  0  0  0  1  0  0  0  0  0  0
  186.5370  178.0570  136.1900 O   0  0  0  0  0  0  0  0  0  0  0  0
  1 22  1  6  0  0  0
  1  6  1  0  0  0  0
  2  8  1  0  0  0  0
  3 25  1  6  0  0  0
  3  5  1  0  0  0  0
  5  2  1  0  0  0  0
  6  7  1  0  0  0  0
  7 11  1  0  0  0  0
  7  4  1  1  0  0  0
  8 13  1  6  0  0  0
  9 12  1  6  0  0  0
  9  3  1  0  0  0  0
  9 11  1  0  0  0  0
 10  8  1  0  0  0  0
 11 10  1  1  0  0  0
 12  1  1  0  0  0  0
 13 21  1  0  0  0  0
 15 14  1  0  0  0  0
 16 15  1  0  0  0  0
 17 20  2  0  0  0  0
 17 18  1  0  0  0  0
 18 16  1  0  0  0  0
 19 14  1  0  0  0  0
 20 13  2  0  0  0  0
 21 19  1  0  0  0  0
 22 23  1  0  0  0  0
 22 24  1  0  0  0  0
 23 24  1  0  0  0  0
 26 27  2  0  0  0  0
 26 28  1  0  0  0  0
 27 31  1  0  0  0  0
 28 30  2  0  0  0  0
 30 29  1  0  0  0  0
 31 25  1  0  0  0  0
 31 29  2  0  0  0  0
 32 34  1  0  0  0  0
 33 27  1  0  0  0  0
 34 33  1  0  0  0  0
 35 33  2  0  0  0  0
 36 32  1  0  0  0  0
 37 32  2  0  0  0  0
M  END
>  <MODEL>
6

>  <REMARK>
 VINA RESULT:      -7.8      3.060      7.707
  Name = 
  5 active torsions:
  status: ('A' for Active; 'I' for Inactive)
    1  A    between atoms: C_1  and  C_5
    2  A    between atoms: C_2  and  C_27
    3  A    between atoms: C_4  and  C_10
    4  A    between atoms: C_4  and  C_28
    5  A    between atoms: C_13  and  C_20
                            x       y       z     vdW  Elec       q    Type
                         _______ _______ _______ _____ _____    ______ ____

>  <TORSDO>
F 5

$$$$
=
 OpenBabel10262422573D

 37 41  0  0  1  0  0  0  0  0999 V2000
  185.6460  176.9230  137.4300 C   0  0  2  0  0  3  0  0  0  0  0  0
  182.6790  176.6230  139.4340 C   0  0  0  0  0  2  0  0  0  0  0  0
  184.1820  178.5780  140.1580 C   0  0  2  0  0  3  0  0  0  0  0  0
  182.8270  177.7510  135.5760 O   0  0  0  0  0  1  0  0  0  0  0  0
  183.7120  177.1480  140.4360 C   0  0  0  0  0  2  0  0  0  0  0  0
  184.9600  177.3690  136.2910 O   0  0  0  0  0  0  0  0  0  0  0  0
  183.6320  177.5620  136.6980 C   0  0  1  0  0  3  0  0  0  0  0  0
  181.6000  177.6290  138.9930 C   0  0  2  0  0  3  0  0  0  0  0  0
  184.6370  178.8390  138.7120 C   0  0  2  0  0  3  0  0  0  0  0  0
  182.1010  178.8880  138.2510 C   0  0  0  0  0  2  0  0  0  0  0  0
  183.5110  178.7750  137.6420 C   0  0  2  0  0  3  0  0  0  0  0  0
  185.9370  178.1190  138.3270 C   0  0  0  0  0  2  0  0  0  0  0  0
  180.6370  177.9720  140.0870 C   0  0  0  0  0  0  0  0  0  0  0  0
  179.8190  178.0020  143.1620 C   0  0  0  0  0  2  0  0  0  0  0  0
  179.1020  179.2540  143.6400 C   0  0  0  0  0  2  0  0  0  0  0  0
  179.7140  180.5050  143.0230 C   0  0  0  0  0  2  0  0  0  0  0  0
  180.0510  180.4740  140.5510 C   0  0  0  0  0  3  0  0  0  0  0  0
  179.1060  180.8100  141.6590 C   0  0  0  0  0  2  0  0  0  0  0  0
  179.0590  177.3740  142.0070 C   0  0  0  0  0  2  0  0  0  0  0  0
  180.3570  179.2330  140.2960 C   0  0  0  0  0  0  0  0  0  0  0  0
  180.0330  176.8790  140.9400 C   0  0  0  0  0  2  0  0  0  0  0  0
  186.9470  176.2590  137.0210 C   0  0  0  0  0  3  0  0  0  0  0  0
  186.6960  175.3540  135.8320 C   0  0  0  0  0  2  0  0  0  0  0  0
  186.8290  174.7610  137.2180 C   0  0  0  0  0  2  0  0  0  0  0  0
  185.2220  179.0360  141.1740 C   0  0  0  0  0  2  0  0  0  0  0  0
  184.8020  178.2240  144.8520 N   0  0  0  0  0  0  0  0  0  0  0  0
  185.4080  178.3490  143.6360 C   0  0  0  0  0  0  0  0  0  0  0  0
  183.5290  178.6410  145.0790 C   0  0  0  0  0  3  0  0  0  0  0  0
  183.3690  179.3580  142.7930 C   0  0  0  0  0  3  0  0  0  0  0  0
  182.7890  179.2200  144.0520 C   0  0  0  0  0  3  0  0  0  0  0  0
  184.6810  178.9270  142.5660 C   0  0  0  0  0  0  0  0  0  0  0  0
  188.9550  177.2620  144.7250 C   0  0  0  0  0  0  0  0  0  0  0  0
  186.8050  177.8750  143.5080 C   0  0  0  0  0  0  0  0  0  0  0  0
  187.5980  177.7150  144.6920 N   0  0  0  0  0  2  0  0  0  0  0  0
  187.3050  177.6300  142.3760 O   0  0  0  0  0  0  0  0  0  0  0  0
  189.7950  177.1280  146.2950 S   0  0  0  0  0  1  0  0  0  0  0  0
  189.5670  176.9570  143.6670 O   0  0  0  0  0  0  0  0  0  0  0  0
  1 22  1  6  0  0  0
  1 12  1  0  0  0  0
  2  5  1  0  0  0  0
  3  5  1  0  0  0  0
  3 25  1  1  0  0  0
  6  7  1  0  0  0  0
  6  1  1  0  0  0  0
  7  4  1  6  0  0  0
  7 11  1  0  0  0  0
  8  2  1  0  0  0  0
  8 13  1  1  0  0  0
  9 12  1  6  0  0  0
  9  3  1  0  0  0  0
 10  8  1  0  0  0  0
 11 10  1  1  0  0  0
 11  9  1  0  0  0  0
 13 20  2  0  0  0  0
 13 21  1  0  0  0  0
 14 15  1  0  0  0  0
 16 15  1  0  0  0  0
 17 18  1  0  0  0  0
 18 16  1  0  0  0  0
 19 14  1  0  0  0  0
 20 17  2  0  0  0  0
 21 19  1  0  0  0  0
 22 24  1  0  0  0  0
 23 22  1  0  0  0  0
 23 24  1  0  0  0  0
 25 31  1  0  0  0  0
 26 28  1  0  0  0  0
 27 26  2  0  0  0  0
 29 30  1  0  0  0  0
 30 28  2  0  0  0  0
 31 29  2  0  0  0  0
 31 27  1  0  0  0  0
 32 36  1  0  0  0  0
 33 27  1  0  0  0  0
 33 34  1  0  0  0  0
 34 32  1  0  0  0  0
 35 33  2  0  0  0  0
 37 32  2  0  0  0  0
M  END
>  <MODEL>
7

>  <REMARK>
 VINA RESULT:      -7.6      3.621      8.847
  Name = 
  5 active torsions:
  status: ('A' for Active; 'I' for Inactive)
    1  A    between atoms: C_1  and  C_5
    2  A    between atoms: C_2  and  C_27
    3  A    between atoms: C_4  and  C_10
    4  A    between atoms: C_4  and  C_28
    5  A    between atoms: C_13  and  C_20
                            x       y       z     vdW  Elec       q    Type
                         _______ _______ _______ _____ _____    ______ ____

>  <TORSDO>
F 5

$$$$
=
 OpenBabel10262422573D

 37 41  0  0  1  0  0  0  0  0999 V2000
  185.7370  179.1940  145.3250 C   0  0  2  0  0  3  0  0  0  0  0  0
  186.5520  179.6040  141.8500 C   0  0  0  0  0  2  0  0  0  0  0  0
  187.0630  177.2420  142.7260 C   0  0  2  0  0  3  0  0  0  0  0  0
  182.8500  179.5410  143.4240 O   0  0  0  0  0  1  0  0  0  0  0  0
  187.6160  178.6140  142.3320 C   0  0  0  0  0  2  0  0  0  0  0  0
  184.3520  179.2320  145.1150 O   0  0  0  0  0  0  0  0  0  0  0  0
  184.1780  179.2390  143.7230 C   0  0  1  0  0  3  0  0  0  0  0  0
  185.4520  179.0200  140.9440 C   0  0  2  0  0  3  0  0  0  0  0  0
  185.8700  177.2810  143.6950 C   0  0  2  0  0  3  0  0  0  0  0  0
  184.5610  177.9250  141.5700 C   0  0  0  0  0  2  0  0  0  0  0  0
  184.5590  177.8780  143.1090 C   0  0  2  0  0  3  0  0  0  0  0  0
  186.2270  177.7690  145.1070 C   0  0  0  0  0  2  0  0  0  0  0  0
  185.9590  178.6210  139.5920 C   0  0  0  0  0  0  0  0  0  0  0  0
  187.6810  176.7080  137.7220 C   0  0  0  0  0  2  0  0  0  0  0  0
  187.0650  176.3780  136.3720 C   0  0  0  0  0  2  0  0  0  0  0  0
  185.5660  176.1390  136.4990 C   0  0  0  0  0  2  0  0  0  0  0  0
  184.2670  177.8600  137.7540 C   0  0  0  0  0  3  0  0  0  0  0  0
  184.7820  177.4430  136.4140 C   0  0  0  0  0  2  0  0  0  0  0  0
  187.8140  178.2120  137.8810 C   0  0  0  0  0  2  0  0  0  0  0  0
  185.0910  178.2480  138.6870 C   0  0  0  0  0  0  0  0  0  0  0  0
  187.4430  178.6280  139.3030 C   0  0  0  0  0  2  0  0  0  0  0  0
  186.0560  179.6350  146.7420 C   0  0  0  0  0  3  0  0  0  0  0  0
  186.9890  178.6280  147.3820 C   0  0  0  0  0  2  0  0  0  0  0  0
  185.5140  178.6110  147.7190 C   0  0  0  0  0  2  0  0  0  0  0  0
  188.1640  176.3100  143.2160 C   0  0  0  0  0  2  0  0  0  0  0  0
  191.6800  177.6370  142.7220 N   0  0  0  0  0  0  0  0  0  0  0  0
  190.5440  177.2490  143.3710 C   0  0  0  0  0  0  0  0  0  0  0  0
  191.8360  177.5030  141.3790 C   0  0  0  0  0  3  0  0  0  0  0  0
  189.6360  176.5520  141.2320 C   0  0  0  0  0  3  0  0  0  0  0  0
  190.8150  176.9530  140.6090 C   0  0  0  0  0  3  0  0  0  0  0  0
  189.4830  176.6930  142.6160 C   0  0  0  0  0  0  0  0  0  0  0  0
  191.4120  176.7010  147.0990 C   0  0  0  0  0  0  0  0  0  0  0  0
  190.4920  177.4290  144.8400 C   0  0  0  0  0  0  0  0  0  0  0  0
  191.3490  176.6340  145.6710 N   0  0  0  0  0  2  0  0  0  0  0  0
  189.6940  178.2540  145.3630 O   0  0  0  0  0  0  0  0  0  0  0  0
  192.5370  175.6280  147.9760 S   0  0  0  0  0  1  0  0  0  0  0  0
  190.6880  177.5020  147.7470 O   0  0  0  0  0  0  0  0  0  0  0  0
  1 22  1  1  0  0  0
  2  5  1  0  0  0  0
  3 25  1  1  0  0  0
  3  9  1  0  0  0  0
  5  3  1  0  0  0  0
  6  1  1  0  0  0  0
  7  4  1  1  0  0  0
  7  6  1  0  0  0  0
  8 13  1  6  0  0  0
  8 10  1  0  0  0  0
  8  2  1  0  0  0  0
  9 12  1  1  0  0  0
 11 10  1  6  0  0  0
 11  9  1  0  0  0  0
 11  7  1  0  0  0  0
 12  1  1  0  0  0  0
 14 19  1  0  0  0  0
 15 16  1  0  0  0  0
 15 14  1  0  0  0  0
 17 20  2  0  0  0  0
 18 16  1  0  0  0  0
 18 17  1  0  0  0  0
 19 21  1  0  0  0  0
 20 13  2  0  0  0  0
 21 13  1  0  0  0  0
 22 23  1  0  0  0  0
 22 24  1  0  0  0  0
 23 24  1  0  0  0  0
 26 27  1  0  0  0  0
 27 33  1  0  0  0  0
 28 26  2  0  0  0  0
 29 31  1  0  0  0  0
 30 29  2  0  0  0  0
 30 28  1  0  0  0  0
 31 25  1  0  0  0  0
 31 27  2  0  0  0  0
 32 37  2  0  0  0  0
 32 36  1  0  0  0  0
 33 35  2  0  0  0  0
 33 34  1  0  0  0  0
 34 32  1  0  0  0  0
M  END
>  <MODEL>
8

>  <REMARK>
 VINA RESULT:      -7.5      3.323      6.294
  Name = 
  5 active torsions:
  status: ('A' for Active; 'I' for Inactive)
    1  A    between atoms: C_1  and  C_5
    2  A    between atoms: C_2  and  C_27
    3  A    between atoms: C_4  and  C_10
    4  A    between atoms: C_4  and  C_28
    5  A    between atoms: C_13  and  C_20
                            x       y       z     vdW  Elec       q    Type
                         _______ _______ _______ _____ _____    ______ ____

>  <TORSDO>
F 5

$$$$
=
 OpenBabel10262422573D

 37 41  0  0  1  0  0  0  0  0999 V2000
  190.7370  176.7330  137.3630 C   0  0  2  0  0  3  0  0  0  0  0  0
  187.2230  176.3420  138.0010 C   0  0  0  0  0  2  0  0  0  0  0  0
  188.2860  178.2330  139.3800 C   0  0  2  0  0  3  0  0  0  0  0  0
  188.8740  177.7040  134.5950 O   0  0  0  0  0  1  0  0  0  0  0  0
  187.7650  176.7940  139.3610 C   0  0  0  0  0  2  0  0  0  0  0  0
  190.5540  177.2560  136.0750 O   0  0  0  0  0  0  0  0  0  0  0  0
  189.1700  177.4370  135.9320 C   0  0  1  0  0  3  0  0  0  0  0  0
  186.3930  177.3840  137.2290 C   0  0  2  0  0  3  0  0  0  0  0  0
  189.2730  178.5770  138.2530 C   0  0  2  0  0  3  0  0  0  0  0  0
  187.1290  178.6810  136.8250 C   0  0  0  0  0  2  0  0  0  0  0  0
  188.6670  178.5910  136.8210 C   0  0  2  0  0  3  0  0  0  0  0  0
  190.6300  177.8690  138.3720 C   0  0  0  0  0  2  0  0  0  0  0  0
  185.0700  177.6700  137.8690 C   0  0  0  0  0  0  0  0  0  0  0  0
  182.4940  179.5030  138.2310 C   0  0  0  0  0  2  0  0  0  0  0  0
  181.1790  178.7630  138.4090 C   0  0  0  0  0  2  0  0  0  0  0  0
  181.1040  177.5520  137.4880 C   0  0  0  0  0  2  0  0  0  0  0  0
  183.0760  176.0240  137.4970 C   0  0  0  0  0  3  0  0  0  0  0  0
  181.7530  176.3270  138.1220 C   0  0  0  0  0  2  0  0  0  0  0  0
  183.4840  179.0740  139.3000 C   0  0  0  0  0  2  0  0  0  0  0  0
  184.0880  176.8270  137.6710 C   0  0  0  0  0  0  0  0  0  0  0  0
  184.8790  178.9200  138.6980 C   0  0  0  0  0  2  0  0  0  0  0  0
  192.1030  176.0820  137.4650 C   0  0  0  0  0  3  0  0  0  0  0  0
  192.3700  175.2760  136.2100 C   0  0  0  0  0  2  0  0  0  0  0  0
  191.9400  174.5750  137.4810 C   0  0  0  0  0  2  0  0  0  0  0  0
  188.8300  178.6160  140.7510 C   0  0  0  0  0  2  0  0  0  0  0  0
  187.0310  177.2450  143.7910 N   0  0  0  0  0  0  0  0  0  0  0  0
  188.0470  177.4870  142.9140 C   0  0  0  0  0  0  0  0  0  0  0  0
  185.8000  177.8050  143.6560 C   0  0  0  0  0  3  0  0  0  0  0  0
  186.5450  178.9290  141.6690 C   0  0  0  0  0  3  0  0  0  0  0  0
  185.5360  178.6630  142.5910 C   0  0  0  0  0  3  0  0  0  0  0  0
  187.8100  178.3480  141.8150 C   0  0  0  0  0  0  0  0  0  0  0  0
  191.1510  176.2930  144.8870 C   0  0  0  0  0  0  0  0  0  0  0  0
  189.3510  176.8330  143.1700 C   0  0  0  0  0  0  0  0  0  0  0  0
  189.9080  176.8810  144.4910 N   0  0  0  0  0  2  0  0  0  0  0  0
  189.9790  176.2550  142.2410 O   0  0  0  0  0  0  0  0  0  0  0  0
  191.6960  176.4570  146.5800 S   0  0  0  0  0  1  0  0  0  0  0  0
  191.8660  175.6630  144.0650 O   0  0  0  0  0  0  0  0  0  0  0  0
  1 22  1  6  0  0  0
  1 12  1  0  0  0  0
  2  5  1  0  0  0  0
  3 25  1  1  0  0  0
  5  3  1  0  0  0  0
  6  1  1  0  0  0  0
  7  4  1  6  0  0  0
  7  6  1  0  0  0  0
  7 11  1  0  0  0  0
  8 13  1  1  0  0  0
  8  2  1  0  0  0  0
  9 12  1  6  0  0  0
  9  3  1  0  0  0  0
 10  8  1  0  0  0  0
 11 10  1  1  0  0  0
 11  9  1  0  0  0  0
 13 21  1  0  0  0  0
 14 15  1  0  0  0  0
 14 19  1  0  0  0  0
 16 18  1  0  0  0  0
 16 15  1  0  0  0  0
 17 20  2  0  0  0  0
 17 18  1  0  0  0  0
 20 13  2  0  0  0  0
 21 19  1  0  0  0  0
 22 24  1  0  0  0  0
 23 22  1  0  0  0  0
 23 24  1  0  0  0  0
 25 31  1  0  0  0  0
 27 33  1  0  0  0  0
 27 26  2  0  0  0  0
 28 26  1  0  0  0  0
 29 31  2  0  0  0  0
 29 30  1  0  0  0  0
 30 28  2  0  0  0  0
 31 27  1  0  0  0  0
 32 36  1  0  0  0  0
 33 34  1  0  0  0  0
 34 32  1  0  0  0  0
 35 33  2  0  0  0  0
 37 32  2  0  0  0  0
M  END
>  <MODEL>
9

>  <REMARK>
 VINA RESULT:      -7.4      3.415      7.184
  Name = 
  5 active torsions:
  status: ('A' for Active; 'I' for Inactive)
    1  A    between atoms: C_1  and  C_5
    2  A    between atoms: C_2  and  C_27
    3  A    between atoms: C_4  and  C_10
    4  A    between atoms: C_4  and  C_28
    5  A    between atoms: C_13  and  C_20
                            x       y       z     vdW  Elec       q    Type
                         _______ _______ _______ _____ _____    ______ ____

>  <TORSDO>
F 5

$$$$
