=
 OpenBabel10262421103D

 32 37  0  0  1  0  0  0  0  0999 V2000
  181.5330  179.2670  141.0050 O   0  0  0  0  0  0  0  0  0  0  0  0
  182.4240  178.9300  138.2400 C   0  0  2  0  0  3  0  0  0  0  0  0
  185.6180  178.6290  139.5380 C   0  0  0  0  0  0  0  0  0  0  0  0
  180.3190  179.0310  141.6550 C   0  0  0  0  0  2  0  0  0  0  0  0
  180.9910  179.2510  137.7870 C   0  0  2  0  0  3  0  0  0  0  0  0
  181.0060  179.7650  136.4220 N   0  0  0  0  0  2  0  0  0  0  0  0
  188.1030  178.5030  142.1960 F   0  0  0  0  0  0  0  0  0  0  0  0
  185.6340  178.4110  138.1300 N   0  0  0  0  0  1  0  0  0  0  0  0
  182.6650  177.4920  138.7090 C   0  0  0  0  0  2  0  0  0  0  0  0
  180.2510  180.2130  138.7160 C   0  0  1  0  0  3  0  0  0  0  0  0
  185.8490  178.2650  142.6000 C   0  0  0  0  0  3  0  0  0  0  0  0
  183.7600  178.4780  141.2320 C   0  0  0  0  0  0  0  0  0  0  0  0
  179.5610  181.5650  137.7390 S   0  0  0  0  0  0  0  0  0  0  0  0
  186.6900  178.2790  140.2460 C   0  0  0  0  0  2  0  0  0  0  0  0
  184.4110  178.0690  142.3200 C   0  0  0  0  0  3  0  0  0  0  0  0
  179.1400  179.4970  139.4720 C   0  0  0  0  0  2  0  0  0  0  0  0
  184.4570  179.3230  140.1880 C   0  0  0  0  0  0  0  0  0  0  0  0
  183.3870  180.2920  139.0350 S   0  0  0  0  0  0  0  0  0  0  0  0
  182.0980  177.1400  140.0190 N   0  0  0  0  0  0  0  0  0  0  0  0
  186.8420  178.3990  141.7120 C   0  0  0  0  0  0  0  0  0  0  0  0
  182.3100  178.1060  141.1210 C   0  0  2  0  0  3  0  0  0  0  0  0
  180.8100  181.2040  136.4850 C   0  0  2  0  0  3  0  0  0  0  0  0
  179.2150  179.8220  140.9620 C   0  0  0  0  0  2  0  0  0  0  0  0
  180.3950  181.7480  135.1250 C   0  0  0  0  0  2  0  0  0  0  0  0
  180.8370  183.0620  134.9610 O   0  0  0  0  0  1  0  0  0  0  0  0
  180.7070  176.7210  139.8720 C   0  0  0  0  0  2  0  0  0  0  0  0
  180.5560  175.6420  138.8030 C   0  0  1  0  0  3  0  0  0  0  0  0
  180.2480  173.2270  138.4930 C   0  0  0  0  0  2  0  0  0  0  0  0
  178.9310  173.8800  138.4520 N   0  0  2  0  0  0  0  0  0  0  0  0
  178.9330  174.7820  137.3040 C   0  0  0  0  0  2  0  0  0  0  0  0
  179.9790  174.3580  139.3770 C   0  0  2  0  0  3  0  0  0  0  0  0
  179.6100  176.0690  137.7120 C   0  0  0  0  0  2  0  0  0  0  0  0
  1  4  1  0  0  0  0
  2  9  1  1  0  0  0
  2 18  1  0  0  0  0
  3 17  2  0  0  0  0
  3 14  1  0  0  0  0
  5  6  1  6  0  0  0
  5  2  1  0  0  0  0
  5 10  1  0  0  0  0
  6 22  1  0  0  0  0
  8  3  1  0  0  0  0
  9 19  1  0  0  0  0
 10 16  1  6  0  0  0
 12 15  2  0  0  0  0
 13 10  1  0  0  0  0
 14 20  1  0  0  0  0
 15 11  1  0  0  0  0
 16 23  1  0  0  0  0
 17 12  1  0  0  0  0
 18 17  1  0  0  0  0
 19 21  1  0  0  0  0
 20  7  1  0  0  0  0
 20 11  2  0  0  0  0
 21  1  1  6  0  0  0
 21 12  1  0  0  0  0
 22 24  1  6  0  0  0
 22 13  1  0  0  0  0
 23  4  1  0  0  0  0
 25 24  1  0  0  0  0
 26 19  1  0  0  0  0
 27 31  1  0  0  0  0
 27 26  1  1  0  0  0
 29 30  1  6  0  0  0
 29 28  1  0  0  0  0
 29 31  1  0  0  0  0
 30 32  1  0  0  0  0
 31 28  1  6  0  0  0
 32 27  1  0  0  0  0
M  END
>  <MODEL>
1

>  <REMARK>
 VINA RESULT:      -5.5      0.000      0.000
  Name = 
  3 active torsions:
  status: ('A' for Active; 'I' for Inactive)
    1  A    between atoms: C_9  and  C_28
    2  A    between atoms: C_13  and  C_29
    3  A    between atoms: N_24  and  C_28
                            x       y       z     vdW  Elec       q    Type
                         _______ _______ _______ _____ _____    ______ ____

>  <TORSDO>
F 3

$$$$
=
 OpenBabel10262421103D

 32 37  0  0  1  0  0  0  0  0999 V2000
  180.2510  177.1330  139.5060 O   0  0  0  0  0  0  0  0  0  0  0  0
  182.8910  177.9570  138.5550 C   0  0  2  0  0  3  0  0  0  0  0  0
  182.6780  175.3050  136.3410 C   0  0  0  0  0  0  0  0  0  0  0  0
  179.2020  177.8140  140.1290 C   0  0  0  0  0  2  0  0  0  0  0  0
  182.9320  178.9840  139.6970 C   0  0  2  0  0  3  0  0  0  0  0  0
  184.3160  179.3110  140.0210 N   0  0  0  0  0  2  0  0  0  0  0  0
  181.0810  172.4310  134.7750 F   0  0  0  0  0  0  0  0  0  0  0  0
  183.8650  176.0550  136.1010 N   0  0  0  0  0  1  0  0  0  0  0  0
  182.0890  178.3720  137.3170 C   0  0  0  0  0  2  0  0  0  0  0  0
  182.1740  178.5450  140.9500 C   0  0  1  0  0  3  0  0  0  0  0  0
  179.9120  173.9520  136.0500 C   0  0  0  0  0  3  0  0  0  0  0  0
  180.5190  175.9130  137.4880 C   0  0  0  0  0  0  0  0  0  0  0  0
  183.2550  178.7220  142.3860 S   0  0  0  0  0  0  0  0  0  0  0  0
  182.2840  174.4290  135.4190 C   0  0  0  0  0  3  0  0  0  0  0  0
  179.6310  175.1900  136.8060 C   0  0  0  0  0  3  0  0  0  0  0  0
  180.9110  179.3720  141.1430 C   0  0  0  0  0  2  0  0  0  0  0  0
  181.9450  175.4350  137.6450 C   0  0  2  0  0  3  0  0  0  0  0  0
  182.9360  176.1690  139.0210 S   0  0  0  0  0  0  0  0  0  0  0  0
  180.6270  178.3650  137.4670 N   0  0  0  0  0  0  0  0  0  0  0  0
  181.0680  173.5890  135.4790 C   0  0  0  0  0  0  0  0  0  0  0  0
  180.0270  177.1800  138.1230 C   0  0  2  0  0  3  0  0  0  0  0  0
  184.6600  178.6220  141.2540 C   0  0  2  0  0  3  0  0  0  0  0  0
  179.7150  178.4610  141.4110 C   0  0  0  0  0  2  0  0  0  0  0  0
  185.9090  179.2290  141.8770 C   0  0  0  0  0  2  0  0  0  0  0  0
  187.0620  178.6820  141.3090 O   0  0  0  0  0  1  0  0  0  0  0  0
  180.1710  179.6340  138.0280 C   0  0  0  0  0  2  0  0  0  0  0  0
  180.7910  180.8240  137.3010 C   0  0  1  0  0  3  0  0  0  0  0  0
  180.5450  182.2490  135.3180 C   0  0  0  0  0  2  0  0  0  0  0  0
  179.8790  182.9030  136.4550 N   0  0  2  0  0  0  0  0  0  0  0  0
  180.9080  183.1870  137.4510 C   0  0  0  0  0  2  0  0  0  0  0  0
  179.8280  181.4350  136.2970 C   0  0  2  0  0  3  0  0  0  0  0  0
  181.1510  181.9320  138.2550 C   0  0  0  0  0  2  0  0  0  0  0  0
  1  4  1  0  0  0  0
  2  9  1  1  0  0  0
  2 18  1  0  0  0  0
  2  5  1  0  0  0  0
  4 23  1  0  0  0  0
  5  6  1  1  0  0  0
  5 10  1  0  0  0  0
  6 22  1  0  0  0  0
  7 20  1  0  0  0  0
  8  3  1  0  0  0  0
  9 19  1  0  0  0  0
 10 16  1  1  0  0  0
 10 13  1  0  0  0  0
 11 15  1  0  0  0  0
 12 17  1  0  0  0  0
 14 20  1  0  0  0  0
 14  3  2  0  0  0  0
 15 12  2  0  0  0  0
 16 23  1  0  0  0  0
 17  3  1  6  0  0  0
 17 18  1  0  0  0  0
 19 26  1  0  0  0  0
 19 21  1  0  0  0  0
 20 11  2  0  0  0  0
 21 12  1  6  0  0  0
 21  1  1  0  0  0  0
 22 24  1  1  0  0  0
 22 13  1  0  0  0  0
 25 24  1  0  0  0  0
 27 26  1  1  0  0  0
 27 32  1  0  0  0  0
 29 28  1  6  0  0  0
 29 30  1  0  0  0  0
 30 32  1  0  0  0  0
 31 28  1  6  0  0  0
 31 29  1  0  0  0  0
 31 27  1  0  0  0  0
M  END
>  <MODEL>
2

>  <REMARK>
 VINA RESULT:      -5.5      3.310      6.433
  Name = 
  3 active torsions:
  status: ('A' for Active; 'I' for Inactive)
    1  A    between atoms: C_9  and  C_28
    2  A    between atoms: C_13  and  C_29
    3  A    between atoms: N_24  and  C_28
                            x       y       z     vdW  Elec       q    Type
                         _______ _______ _______ _____ _____    ______ ____

>  <TORSDO>
F 3

$$$$
=
 OpenBabel10262421103D

 32 37  0  0  1  0  0  0  0  0999 V2000
  181.4910  177.1190  137.9160 O   0  0  0  0  0  0  0  0  0  0  0  0
  182.1160  179.1460  139.9280 C   0  0  2  0  0  3  0  0  0  0  0  0
  185.4430  178.4730  139.2530 C   0  0  0  0  0  0  0  0  0  0  0  0
  180.3880  176.9030  137.0850 C   0  0  0  0  0  2  0  0  0  0  0  0
  180.6160  179.2220  140.2520 C   0  0  2  0  0  3  0  0  0  0  0  0
  180.4270  179.7130  141.6130 N   0  0  0  0  0  2  0  0  0  0  0  0
  188.1940  176.8010  137.5520 F   0  0  0  0  0  0  0  0  0  0  0  0
  185.3350  179.5490  140.1810 N   0  0  0  0  0  1  0  0  0  0  0  0
  182.5700  179.9350  138.6960 C   0  0  0  0  0  2  0  0  0  0  0  0
  179.8720  177.9030  140.0470 C   0  0  1  0  0  3  0  0  0  0  0  0
  186.0390  176.7660  136.7440 C   0  0  0  0  0  3  0  0  0  0  0  0
  183.8050  177.5290  137.5880 C   0  0  0  0  0  0  0  0  0  0  0  0
  178.9310  177.5170  141.5390 S   0  0  0  0  0  0  0  0  0  0  0  0
  186.6180  178.2610  138.6620 C   0  0  0  0  0  3  0  0  0  0  0  0
  184.6120  177.1250  136.6070 C   0  0  0  0  0  3  0  0  0  0  0  0
  178.9380  177.9820  138.8470 C   0  0  0  0  0  2  0  0  0  0  0  0
  184.2850  177.5470  139.0230 C   0  0  2  0  0  3  0  0  0  0  0  0
  182.9950  177.5750  140.3450 S   0  0  0  0  0  0  0  0  0  0  0  0
  182.1900  179.3680  137.3950 N   0  0  0  0  0  0  0  0  0  0  0  0
  186.9100  177.2190  137.6550 C   0  0  0  0  0  0  0  0  0  0  0  0
  182.4050  177.9140  137.2100 C   0  0  2  0  0  3  0  0  0  0  0  0
  180.0730  178.5790  142.4510 C   0  0  2  0  0  3  0  0  0  0  0  0
  179.1330  176.7690  137.9410 C   0  0  0  0  0  2  0  0  0  0  0  0
  179.4560  179.0510  143.7590 C   0  0  0  0  0  2  0  0  0  0  0  0
  179.3660  177.9990  144.6730 O   0  0  0  0  0  1  0  0  0  0  0  0
  180.8490  179.8100  137.0230 C   0  0  0  0  0  2  0  0  0  0  0  0
  180.7560  181.3320  136.9640 C   0  0  1  0  0  3  0  0  0  0  0  0
  180.7240  183.2300  135.4090 C   0  0  0  0  0  2  0  0  0  0  0  0
  179.3370  182.8540  135.7250 N   0  0  2  0  0  0  0  0  0  0  0  0
  179.1490  183.0640  137.1570 C   0  0  0  0  0  2  0  0  0  0  0  0
  180.3810  181.8200  135.5750 C   0  0  2  0  0  3  0  0  0  0  0  0
  179.6910  181.8590  137.8890 C   0  0  0  0  0  2  0  0  0  0  0  0
  2  9  1  6  0  0  0
  2  5  1  0  0  0  0
  2 18  1  0  0  0  0
  3  8  1  0  0  0  0
  4  1  1  0  0  0  0
  4 23  1  0  0  0  0
  5  6  1  1  0  0  0
  6 22  1  0  0  0  0
  7 20  1  0  0  0  0
 10 16  1  6  0  0  0
 10  5  1  0  0  0  0
 10 13  1  0  0  0  0
 11 20  2  0  0  0  0
 13 22  1  0  0  0  0
 14  3  2  0  0  0  0
 15 11  1  0  0  0  0
 15 12  2  0  0  0  0
 17 12  1  6  0  0  0
 17  3  1  0  0  0  0
 17 18  1  0  0  0  0
 19  9  1  0  0  0  0
 20 14  1  0  0  0  0
 21 19  1  0  0  0  0
 21 12  1  1  0  0  0
 21  1  1  0  0  0  0
 22 24  1  1  0  0  0
 23 16  1  0  0  0  0
 24 25  1  0  0  0  0
 26 19  1  0  0  0  0
 27 26  1  6  0  0  0
 27 32  1  0  0  0  0
 29 28  1  6  0  0  0
 29 30  1  0  0  0  0
 30 32  1  0  0  0  0
 31 28  1  1  0  0  0
 31 29  1  0  0  0  0
 31 27  1  0  0  0  0
M  END
>  <MODEL>
3

>  <REMARK>
 VINA RESULT:      -5.4      2.942      5.561
  Name = 
  3 active torsions:
  status: ('A' for Active; 'I' for Inactive)
    1  A    between atoms: C_9  and  C_28
    2  A    between atoms: C_13  and  C_29
    3  A    between atoms: N_24  and  C_28
                            x       y       z     vdW  Elec       q    Type
                         _______ _______ _______ _____ _____    ______ ____

>  <TORSDO>
F 3

$$$$
=
 OpenBabel10262421103D

 32 37  0  0  1  0  0  0  0  0999 V2000
  180.8980  177.9840  137.2770 O   0  0  0  0  0  0  0  0  0  0  0  0
  180.9530  176.8680  139.9790 C   0  0  2  0  0  3  0  0  0  0  0  0
  179.9110  173.8990  138.5370 C   0  0  0  0  0  0  0  0  0  0  0  0
  181.5750  179.0430  136.6640 C   0  0  0  0  0  2  0  0  0  0  0  0
  181.2450  178.2810  140.5080 C   0  0  2  0  0  3  0  0  0  0  0  0
  180.8180  178.3880  141.8990 N   0  0  0  0  0  2  0  0  0  0  0  0
  178.9410  171.7320  135.7760 F   0  0  0  0  0  0  0  0  0  0  0  0
  180.1550  173.7140  139.9280 N   0  0  0  0  0  1  0  0  0  0  0  0
  182.1590  176.1060  139.4200 C   0  0  0  0  0  2  0  0  0  0  0  0
  180.6250  179.3950  139.6670 C   0  0  1  0  0  3  0  0  0  0  0  0
  180.0420  173.7280  135.4510 C   0  0  0  0  0  3  0  0  0  0  0  0
  180.7270  175.6450  136.9140 C   0  0  0  0  0  0  0  0  0  0  0  0
  179.6950  180.5040  140.7470 S   0  0  0  0  0  0  0  0  0  0  0  0
  179.7800  172.8210  137.7660 C   0  0  0  0  0  3  0  0  0  0  0  0
  180.8040  174.9510  135.7780 C   0  0  0  0  0  3  0  0  0  0  0  0
  181.6960  180.1760  138.9170 C   0  0  0  0  0  2  0  0  0  0  0  0
  179.7140  175.2770  137.9750 C   0  0  2  0  0  3  0  0  0  0  0  0
  179.2930  176.5710  139.2250 S   0  0  0  0  0  0  0  0  0  0  0  0
  182.6590  176.5650  138.1160 N   0  0  0  0  0  0  0  0  0  0  0  0
  179.5560  172.8170  136.3050 C   0  0  0  0  0  0  0  0  0  0  0  0
  181.6490  176.8200  137.0630 C   0  0  2  0  0  3  0  0  0  0  0  0
  179.5740  179.1400  141.9270 C   0  0  2  0  0  3  0  0  0  0  0  0
  181.3140  180.3250  137.4470 C   0  0  0  0  0  2  0  0  0  0  0  0
  179.2900  179.6540  143.3310 C   0  0  0  0  0  2  0  0  0  0  0  0
  179.1420  178.5930  144.2260 O   0  0  0  0  0  1  0  0  0  0  0  0
  183.6020  177.6660  138.2960 C   0  0  0  0  0  2  0  0  0  0  0  0
  184.8090  177.5280  137.3710 C   0  0  1  0  0  3  0  0  0  0  0  0
  187.0470  178.4320  136.9300 C   0  0  0  0  0  2  0  0  0  0  0  0
  187.1790  177.2370  137.7780 N   0  0  2  0  0  0  0  0  0  0  0  0
  186.6700  176.1050  137.0100 C   0  0  0  0  0  2  0  0  0  0  0  0
  186.0500  178.1720  137.9650 C   0  0  2  0  0  3  0  0  0  0  0  0
  185.1650  176.0840  137.1340 C   0  0  0  0  0  2  0  0  0  0  0  0
  2  9  1  6  0  0  0
  2  5  1  0  0  0  0
  3  8  1  0  0  0  0
  4  1  1  0  0  0  0
  4 23  1  0  0  0  0
  5  6  1  1  0  0  0
  6 22  1  0  0  0  0
  7 20  1  0  0  0  0
 10 16  1  1  0  0  0
 10  5  1  0  0  0  0
 10 13  1  0  0  0  0
 11 15  1  0  0  0  0
 11 20  2  0  0  0  0
 13 22  1  0  0  0  0
 14  3  2  0  0  0  0
 15 12  2  0  0  0  0
 17 12  1  1  0  0  0
 17  3  1  0  0  0  0
 17 18  1  0  0  0  0
 18  2  1  0  0  0  0
 19 26  1  0  0  0  0
 19  9  1  0  0  0  0
 20 14  1  0  0  0  0
 21 12  1  1  0  0  0
 21  1  1  0  0  0  0
 21 19  1  0  0  0  0
 22 24  1  1  0  0  0
 23 16  1  0  0  0  0
 24 25  1  0  0  0  0
 27 31  1  0  0  0  0
 27 26  1  1  0  0  0
 29 28  1  6  0  0  0
 29 31  1  0  0  0  0
 30 32  1  0  0  0  0
 30 29  1  0  0  0  0
 31 28  1  6  0  0  0
 32 27  1  0  0  0  0
M  END
>  <MODEL>
4

>  <REMARK>
 VINA RESULT:      -5.1      3.413      6.775
  Name = 
  3 active torsions:
  status: ('A' for Active; 'I' for Inactive)
    1  A    between atoms: C_9  and  C_28
    2  A    between atoms: C_13  and  C_29
    3  A    between atoms: N_24  and  C_28
                            x       y       z     vdW  Elec       q    Type
                         _______ _______ _______ _____ _____    ______ ____

>  <TORSDO>
F 3

$$$$
=
 OpenBabel10262421103D

 32 37  0  0  1  0  0  0  0  0999 V2000
  189.3280  177.6320  136.2370 O   0  0  0  0  0  0  0  0  0  0  0  0
  188.0610  175.0010  136.3850 C   0  0  2  0  0  3  0  0  0  0  0  0
  191.1490  173.7090  135.5060 C   0  0  0  0  0  0  0  0  0  0  0  0
  189.0560  178.8620  136.8430 C   0  0  0  0  0  2  0  0  0  0  0  0
  186.7150  175.7110  136.5980 C   0  0  2  0  0  3  0  0  0  0  0  0
  185.6230  174.8390  136.1790 N   0  0  0  0  0  2  0  0  0  0  0  0
  194.6810  173.8950  134.6380 F   0  0  0  0  0  0  0  0  0  0  0  0
  190.2300  172.6530  135.7750 N   0  0  0  0  0  1  0  0  0  0  0  0
  188.9470  174.8710  137.6280 C   0  0  0  0  0  2  0  0  0  0  0  0
  186.6170  177.0690  135.9050 C   0  0  1  0  0  3  0  0  0  0  0  0
  193.5550  175.6500  135.6160 C   0  0  0  0  0  3  0  0  0  0  0  0
  191.1650  176.1300  136.2010 C   0  0  0  0  0  0  0  0  0  0  0  0
  185.1030  177.1230  134.9210 S   0  0  0  0  0  0  0  0  0  0  0  0
  192.4460  173.4160  135.4310 C   0  0  0  0  0  2  0  0  0  0  0  0
  192.4700  176.3780  136.3070 C   0  0  0  0  0  3  0  0  0  0  0  0
  186.6190  178.2040  136.9200 C   0  0  0  0  0  2  0  0  0  0  0  0
  190.6530  175.0960  135.2220 C   0  0  0  0  0  0  0  0  0  0  0  0
  188.8730  175.2000  134.7380 S   0  0  0  0  0  0  0  0  0  0  0  0
  189.5940  176.1080  138.0870 N   0  0  0  0  0  0  0  0  0  0  0  0
  193.5430  174.3790  135.1930 C   0  0  0  0  0  0  0  0  0  0  0  0
  190.2410  176.9490  137.0530 C   0  0  2  0  0  3  0  0  0  0  0  0
  185.1400  175.3160  134.8930 C   0  0  2  0  0  3  0  0  0  0  0  0
  187.6260  179.2780  136.5150 C   0  0  0  0  0  2  0  0  0  0  0  0
  183.7620  174.7450  134.5940 C   0  0  0  0  0  2  0  0  0  0  0  0
  183.2520  174.0700  135.7050 O   0  0  0  0  0  1  0  0  0  0  0  0
  188.6960  176.8520  138.9650 C   0  0  0  0  0  2  0  0  0  0  0  0
  189.4420  177.4530  140.1530 C   0  0  1  0  0  3  0  0  0  0  0  0
  189.1350  178.2540  142.4530 C   0  0  0  0  0  2  0  0  0  0  0  0
  189.5770  176.8500  142.4960 N   0  0  2  0  0  0  0  0  0  0  0  0
  190.9080  176.7990  141.8980 C   0  0  0  0  0  2  0  0  0  0  0  0
  188.6500  177.3160  141.4430 C   0  0  2  0  0  3  0  0  0  0  0  0
  190.7540  176.7530  140.3960 C   0  0  0  0  0  2  0  0  0  0  0  0
  1  4  1  0  0  0  0
  1 21  1  0  0  0  0
  2  5  1  0  0  0  0
  2  9  1  1  0  0  0
  3  8  1  0  0  0  0
  5  6  1  6  0  0  0
  7 20  1  0  0  0  0
  9 19  1  0  0  0  0
 10  5  1  0  0  0  0
 10 16  1  1  0  0  0
 11 15  1  0  0  0  0
 12 15  2  0  0  0  0
 13 10  1  0  0  0  0
 14  3  1  0  0  0  0
 17  3  2  0  0  0  0
 17 12  1  0  0  0  0
 18 17  1  0  0  0  0
 18  2  1  0  0  0  0
 19 26  1  0  0  0  0
 20 14  1  0  0  0  0
 20 11  2  0  0  0  0
 21 12  1  6  0  0  0
 21 19  1  0  0  0  0
 22 24  1  1  0  0  0
 22 13  1  0  0  0  0
 22  6  1  0  0  0  0
 23  4  1  0  0  0  0
 23 16  1  0  0  0  0
 24 25  1  0  0  0  0
 27 26  1  6  0  0  0
 27 32  1  0  0  0  0
 27 31  1  0  0  0  0
 28 29  1  0  0  0  0
 29 30  1  6  0  0  0
 31 28  1  1  0  0  0
 31 29  1  0  0  0  0
 32 30  1  0  0  0  0
M  END
>  <MODEL>
5

>  <REMARK>
 VINA RESULT:      -5.0      6.231      9.161
  Name = 
  3 active torsions:
  status: ('A' for Active; 'I' for Inactive)
    1  A    between atoms: C_9  and  C_28
    2  A    between atoms: C_13  and  C_29
    3  A    between atoms: N_24  and  C_28
                            x       y       z     vdW  Elec       q    Type
                         _______ _______ _______ _____ _____    ______ ____

>  <TORSDO>
F 3

$$$$
=
 OpenBabel10262421103D

 32 37  0  0  1  0  0  0  0  0999 V2000
  182.9130  176.2920  135.2900 O   0  0  0  0  0  0  0  0  0  0  0  0
  182.7800  174.0890  137.2080 C   0  0  2  0  0  3  0  0  0  0  0  0
  186.2260  173.9270  136.9260 C   0  0  0  0  0  0  0  0  0  0  0  0
  182.0830  177.3860  135.0300 C   0  0  0  0  0  2  0  0  0  0  0  0
  181.2480  174.1540  137.1080 C   0  0  2  0  0  3  0  0  0  0  0  0
  180.6720  172.8640  137.4710 N   0  0  0  0  0  2  0  0  0  0  0  0
  189.4880  174.9520  135.6750 F   0  0  0  0  0  0  0  0  0  0  0  0
  185.7660  173.0050  137.9110 N   0  0  0  0  0  1  0  0  0  0  0  0
  183.4300  175.1240  138.1320 C   0  0  0  0  0  2  0  0  0  0  0  0
  180.7370  174.6070  135.7410 C   0  0  1  0  0  3  0  0  0  0  0  0
  187.6180  176.2830  135.4870 C   0  0  0  0  0  3  0  0  0  0  0  0
  185.1720  175.9990  135.9550 C   0  0  0  0  0  0  0  0  0  0  0  0
  179.5070  173.4250  135.1480 S   0  0  0  0  0  0  0  0  0  0  0  0
  187.5260  174.2090  136.8790 C   0  0  0  0  0  2  0  0  0  0  0  0
  186.2380  176.7610  135.7110 C   0  0  0  0  0  3  0  0  0  0  0  0
  180.1260  176.0000  135.8190 C   0  0  0  0  0  2  0  0  0  0  0  0
  185.2770  174.4900  135.9090 C   0  0  0  0  0  0  0  0  0  0  0  0
  183.7050  173.5410  135.7050 S   0  0  0  0  0  0  0  0  0  0  0  0
  183.4530  176.5060  137.6320 N   0  0  0  0  0  0  0  0  0  0  0  0
  188.1780  175.1590  135.9520 C   0  0  0  0  0  0  0  0  0  0  0  0
  183.8750  176.7010  136.2250 C   0  0  2  0  0  3  0  0  0  0  0  0
  180.2570  172.2000  136.2450 C   0  0  2  0  0  3  0  0  0  0  0  0
  180.6800  176.8860  134.7060 C   0  0  0  0  0  2  0  0  0  0  0  0
  179.2840  171.0700  136.5510 C   0  0  0  0  0  2  0  0  0  0  0  0
  179.5200  169.9750  135.7170 O   0  0  0  0  0  1  0  0  0  0  0  0
  182.2040  177.1840  137.9640 C   0  0  0  0  0  2  0  0  0  0  0  0
  182.4360  178.3540  138.9170 C   0  0  1  0  0  3  0  0  0  0  0  0
  184.1130  179.3700  140.3930 C   0  0  0  0  0  2  0  0  0  0  0  0
  184.1760  180.0320  139.0800 N   0  0  2  0  0  0  0  0  0  0  0  0
  182.8870  180.6810  138.8620 C   0  0  0  0  0  2  0  0  0  0  0  0
  183.9160  178.5810  139.1790 C   0  0  2  0  0  3  0  0  0  0  0  0
  181.9140  179.6470  138.3460 C   0  0  0  0  0  2  0  0  0  0  0  0
  2  9  1  6  0  0  0
  3  8  1  0  0  0  0
  4  1  1  0  0  0  0
  5  2  1  0  0  0  0
  5  6  1  6  0  0  0
  7 20  1  0  0  0  0
 10 16  1  1  0  0  0
 10  5  1  0  0  0  0
 11 15  1  0  0  0  0
 11 20  2  0  0  0  0
 12 21  1  0  0  0  0
 13 10  1  0  0  0  0
 13 22  1  0  0  0  0
 14  3  1  0  0  0  0
 15 12  2  0  0  0  0
 17 12  1  0  0  0  0
 17  3  2  0  0  0  0
 18 17  1  0  0  0  0
 18  2  1  0  0  0  0
 19 26  1  0  0  0  0
 19  9  1  0  0  0  0
 20 14  1  0  0  0  0
 21  1  1  6  0  0  0
 21 19  1  0  0  0  0
 22 24  1  1  0  0  0
 22  6  1  0  0  0  0
 23  4  1  0  0  0  0
 23 16  1  0  0  0  0
 25 24  1  0  0  0  0
 27 26  1  6  0  0  0
 27 31  1  0  0  0  0
 29 30  1  1  0  0  0
 29 31  1  0  0  0  0
 29 28  1  0  0  0  0
 31 28  1  1  0  0  0
 32 30  1  0  0  0  0
 32 27  1  0  0  0  0
M  END
>  <MODEL>
6

>  <REMARK>
 VINA RESULT:      -4.7      4.513      6.785
  Name = 
  3 active torsions:
  status: ('A' for Active; 'I' for Inactive)
    1  A    between atoms: C_9  and  C_28
    2  A    between atoms: C_13  and  C_29
    3  A    between atoms: N_24  and  C_28
                            x       y       z     vdW  Elec       q    Type
                         _______ _______ _______ _____ _____    ______ ____

>  <TORSDO>
F 3

$$$$
=
 OpenBabel10262421103D

 32 37  0  0  1  0  0  0  0  0999 V2000
  182.4870  177.9670  136.8940 O   0  0  0  0  0  0  0  0  0  0  0  0
  182.4460  175.0680  137.2700 C   0  0  2  0  0  3  0  0  0  0  0  0
  185.8990  175.2150  137.0840 C   0  0  0  0  0  0  0  0  0  0  0  0
  181.6050  178.9910  137.2480 C   0  0  0  0  0  2  0  0  0  0  0  0
  180.9140  175.1210  137.1620 C   0  0  2  0  0  3  0  0  0  0  0  0
  180.4020  173.8260  136.7290 N   0  0  0  0  0  2  0  0  0  0  0  0
  189.1180  176.8810  136.7380 F   0  0  0  0  0  0  0  0  0  0  0  0
  185.4760  173.8860  137.3770 N   0  0  0  0  0  1  0  0  0  0  0  0
  183.0280  175.4420  138.6370 C   0  0  0  0  0  2  0  0  0  0  0  0
  180.3980  176.2360  136.2530 C   0  0  1  0  0  3  0  0  0  0  0  0
  187.1840  178.0240  137.2410 C   0  0  0  0  0  3  0  0  0  0  0  0
  184.7500  177.4380  137.3760 C   0  0  0  0  0  0  0  0  0  0  0  0
  179.2400  175.5340  135.0580 S   0  0  0  0  0  0  0  0  0  0  0  0
  187.1830  175.5240  137.2520 C   0  0  0  0  0  2  0  0  0  0  0  0
  185.7770  178.2470  137.6360 C   0  0  0  0  0  3  0  0  0  0  0  0
  179.7130  177.3290  137.0620 C   0  0  0  0  0  2  0  0  0  0  0  0
  184.9340  176.2120  136.5100 C   0  0  0  0  0  0  0  0  0  0  0  0
  183.4180  175.4770  135.7530 S   0  0  0  0  0  0  0  0  0  0  0  0
  182.9850  176.8700  138.9840 N   0  0  0  0  0  0  0  0  0  0  0  0
  187.7960  176.8510  137.0310 C   0  0  0  0  0  0  0  0  0  0  0  0
  183.4140  177.8260  137.9370 C   0  0  2  0  0  3  0  0  0  0  0  0
  180.0380  173.9360  135.3260 C   0  0  2  0  0  3  0  0  0  0  0  0
  180.2340  178.7030  136.6460 C   0  0  0  0  0  2  0  0  0  0  0  0
  179.1230  172.7910  134.9180 C   0  0  0  0  0  2  0  0  0  0  0  0
  179.4720  171.6150  135.5850 O   0  0  0  0  0  1  0  0  0  0  0  0
  181.6970  177.2050  139.5850 C   0  0  0  0  0  2  0  0  0  0  0  0
  181.8190  178.3770  140.5560 C   0  0  1  0  0  3  0  0  0  0  0  0
  180.5380  179.7450  142.1390 C   0  0  0  0  0  2  0  0  0  0  0  0
  181.2090  178.6670  142.8820 N   0  0  2  0  0  0  0  0  0  0  0  0
  182.6470  178.8640  142.7230 C   0  0  0  0  0  2  0  0  0  0  0  0
  180.6570  178.4210  141.5340 C   0  0  2  0  0  3  0  0  0  0  0  0
  183.0640  178.2740  141.3970 C   0  0  0  0  0  2  0  0  0  0  0  0
  1  4  1  0  0  0  0
  2  9  1  1  0  0  0
  3 14  1  0  0  0  0
  3  8  1  0  0  0  0
  5  6  1  6  0  0  0
  5  2  1  0  0  0  0
  7 20  1  0  0  0  0
  9 19  1  0  0  0  0
 10 16  1  1  0  0  0
 10  5  1  0  0  0  0
 11 15  1  0  0  0  0
 12 15  2  0  0  0  0
 12 21  1  0  0  0  0
 13 22  1  0  0  0  0
 13 10  1  0  0  0  0
 17  3  2  0  0  0  0
 17 12  1  0  0  0  0
 18 17  1  0  0  0  0
 18  2  1  0  0  0  0
 19 26  1  0  0  0  0
 20 11  2  0  0  0  0
 20 14  1  0  0  0  0
 21  1  1  6  0  0  0
 21 19  1  0  0  0  0
 22 24  1  1  0  0  0
 22  6  1  0  0  0  0
 23 16  1  0  0  0  0
 23  4  1  0  0  0  0
 24 25  1  0  0  0  0
 27 26  1  6  0  0  0
 27 32  1  0  0  0  0
 27 31  1  0  0  0  0
 29 28  1  6  0  0  0
 30 29  1  0  0  0  0
 31 28  1  6  0  0  0
 31 29  1  0  0  0  0
 32 30  1  0  0  0  0
M  END
>  <MODEL>
7

>  <REMARK>
 VINA RESULT:      -4.7      3.469      5.496
  Name = 
  3 active torsions:
  status: ('A' for Active; 'I' for Inactive)
    1  A    between atoms: C_9  and  C_28
    2  A    between atoms: C_13  and  C_29
    3  A    between atoms: N_24  and  C_28
                            x       y       z     vdW  Elec       q    Type
                         _______ _______ _______ _____ _____    ______ ____

>  <TORSDO>
F 3

$$$$
=
 OpenBabel10262421103D

 32 37  0  0  1  0  0  0  0  0999 V2000
  182.1570  178.2200  136.8640 O   0  0  0  0  0  0  0  0  0  0  0  0
  184.2270  177.0410  138.5600 C   0  0  2  0  0  3  0  0  0  0  0  0
  182.5970  178.5450  141.2170 C   0  0  0  0  0  0  0  0  0  0  0  0
  181.6240  177.8710  135.6210 C   0  0  0  0  0  2  0  0  0  0  0  0
  184.9440  176.5760  137.2830 C   0  0  2  0  0  3  0  0  0  0  0  0
  186.3660  176.3940  137.5520 N   0  0  0  0  0  2  0  0  0  0  0  0
  179.9850  180.5380  142.7880 F   0  0  0  0  0  0  0  0  0  0  0  0
  183.6790  177.7470  141.6890 N   0  0  0  0  0  1  0  0  0  0  0  0
  183.0600  176.1630  139.0230 C   0  0  0  0  0  2  0  0  0  0  0  0
  184.7370  177.5030  136.0860 C   0  0  1  0  0  3  0  0  0  0  0  0
  179.7820  179.6950  140.6540 C   0  0  0  0  0  3  0  0  0  0  0  0
  181.2970  178.4940  139.0600 C   0  0  0  0  0  0  0  0  0  0  0  0
  186.3440  177.9200  135.3760 S   0  0  0  0  0  0  0  0  0  0  0  0
  181.6900  178.9680  142.0960 C   0  0  0  0  0  2  0  0  0  0  0  0
  180.0870  178.8830  139.4580 C   0  0  0  0  0  3  0  0  0  0  0  0
  183.8560  176.8470  135.0320 C   0  0  0  0  0  2  0  0  0  0  0  0
  182.5380  178.9750  139.7800 C   0  0  0  0  0  0  0  0  0  0  0  0
  184.1410  178.8610  138.8700 S   0  0  0  0  0  0  0  0  0  0  0  0
  181.8320  176.2510  138.2190 N   0  0  0  0  0  0  0  0  0  0  0  0
  180.4900  179.7740  141.7890 C   0  0  0  0  0  0  0  0  0  0  0  0
  181.3690  177.6090  137.8500 C   0  0  2  0  0  3  0  0  0  0  0  0
  187.0770  177.5260  136.9790 C   0  0  2  0  0  3  0  0  0  0  0  0
  182.7490  177.8040  134.5940 C   0  0  0  0  0  2  0  0  0  0  0  0
  188.5600  177.2120  136.8410 C   0  0  0  0  0  2  0  0  0  0  0  0
  189.3360  178.3170  137.2010 O   0  0  0  0  0  1  0  0  0  0  0  0
  181.9040  175.3330  137.0860 C   0  0  0  0  0  2  0  0  0  0  0  0
  181.8830  173.8760  137.5410 C   0  0  1  0  0  3  0  0  0  0  0  0
  180.4200  171.9180  137.7610 C   0  0  0  0  0  2  0  0  0  0  0  0
  181.1460  171.8250  136.4840 N   0  0  2  0  0  0  0  0  0  0  0  0
  182.5680  171.7300  136.8030 C   0  0  0  0  0  2  0  0  0  0  0  0
  180.6780  173.1320  136.9910 C   0  0  2  0  0  3  0  0  0  0  0  0
  183.0930  173.1240  137.0530 C   0  0  0  0  0  2  0  0  0  0  0  0
  2 18  1  0  0  0  0
  2  9  1  6  0  0  0
  3  8  1  0  0  0  0
  3 14  1  0  0  0  0
  4  1  1  0  0  0  0
  5  6  1  1  0  0  0
  5  2  1  0  0  0  0
 10 16  1  6  0  0  0
 10  5  1  0  0  0  0
 11 20  2  0  0  0  0
 12 15  2  0  0  0  0
 12 17  1  0  0  0  0
 13 10  1  0  0  0  0
 13 22  1  0  0  0  0
 15 11  1  0  0  0  0
 17  3  2  0  0  0  0
 18 17  1  0  0  0  0
 19  9  1  0  0  0  0
 20 14  1  0  0  0  0
 20  7  1  0  0  0  0
 21  1  1  6  0  0  0
 21 19  1  0  0  0  0
 21 12  1  0  0  0  0
 22 24  1  6  0  0  0
 22  6  1  0  0  0  0
 23 16  1  0  0  0  0
 23  4  1  0  0  0  0
 24 25  1  0  0  0  0
 26 19  1  0  0  0  0
 27 26  1  6  0  0  0
 29 30  1  1  0  0  0
 29 31  1  0  0  0  0
 29 28  1  0  0  0  0
 30 32  1  0  0  0  0
 31 27  1  0  0  0  0
 31 28  1  1  0  0  0
 32 27  1  0  0  0  0
M  END
>  <MODEL>
8

>  <REMARK>
 VINA RESULT:      -4.5      3.337      5.415
  Name = 
  3 active torsions:
  status: ('A' for Active; 'I' for Inactive)
    1  A    between atoms: C_9  and  C_28
    2  A    between atoms: C_13  and  C_29
    3  A    between atoms: N_24  and  C_28
                            x       y       z     vdW  Elec       q    Type
                         _______ _______ _______ _____ _____    ______ ____

>  <TORSDO>
F 3

$$$$
=
 OpenBabel10262421103D

 32 37  0  0  1  0  0  0  0  0999 V2000
  183.8000  177.9090  139.1100 O   0  0  0  0  0  0  0  0  0  0  0  0
  180.9060  177.6400  139.4280 C   0  0  2  0  0  3  0  0  0  0  0  0
  181.4430  178.2310  142.7960 C   0  0  0  0  0  0  0  0  0  0  0  0
  184.6150  178.2760  138.0360 C   0  0  0  0  0  2  0  0  0  0  0  0
  180.8280  177.2220  137.9520 C   0  0  2  0  0  3  0  0  0  0  0  0
  179.6280  176.4230  137.7250 N   0  0  0  0  0  2  0  0  0  0  0  0
  183.4610  178.9430  145.7420 F   0  0  0  0  0  0  0  0  0  0  0  0
  180.0470  178.1370  142.5270 N   0  0  0  0  0  1  0  0  0  0  0  0
  181.0000  179.1470  139.6860 C   0  0  0  0  0  2  0  0  0  0  0  0
  182.0690  176.4820  137.4530 C   0  0  1  0  0  3  0  0  0  0  0  0
  184.2480  179.2540  143.6010 C   0  0  0  0  0  3  0  0  0  0  0  0
  183.4040  178.7380  141.2980 C   0  0  0  0  0  0  0  0  0  0  0  0
  181.5600  174.9460  136.6520 S   0  0  0  0  0  0  0  0  0  0  0  0
  181.8310  178.7320  143.9670 C   0  0  0  0  0  2  0  0  0  0  0  0
  184.2270  179.3780  142.1280 C   0  0  0  0  0  3  0  0  0  0  0  0
  182.8630  177.3400  136.4780 C   0  0  0  0  0  2  0  0  0  0  0  0
  182.4450  177.6900  141.8180 C   0  0  0  0  0  0  0  0  0  0  0  0
  181.7620  176.4890  140.5920 S   0  0  0  0  0  0  0  0  0  0  0  0
  182.2920  179.7730  139.3690 N   0  0  0  0  0  0  0  0  0  0  0  0
  183.2280  178.9340  144.4070 C   0  0  0  0  0  0  0  0  0  0  0  0
  183.5090  179.0710  139.8380 C   0  0  2  0  0  3  0  0  0  0  0  0
  180.0330  175.0310  137.6140 C   0  0  2  0  0  3  0  0  0  0  0  0
  184.3410  177.3480  136.8570 C   0  0  0  0  0  2  0  0  0  0  0  0
  178.9320  174.2020  136.9690 C   0  0  0  0  0  2  0  0  0  0  0  0
  179.3250  172.8690  136.8410 O   0  0  0  0  0  1  0  0  0  0  0  0
  182.3410  180.1430  137.9580 C   0  0  0  0  0  2  0  0  0  0  0  0
  181.0840  180.8970  137.5310 C   0  0  1  0  0  3  0  0  0  0  0  0
  179.9110  183.0390  137.7750 C   0  0  0  0  0  2  0  0  0  0  0  0
  180.7200  183.0800  136.5470 N   0  0  2  0  0  0  0  0  0  0  0  0
  180.2030  182.0470  135.6550 C   0  0  0  0  0  2  0  0  0  0  0  0
  181.2210  182.3940  137.7550 C   0  0  2  0  0  3  0  0  0  0  0  0
  180.8040  180.7230  136.0620 C   0  0  0  0  0  2  0  0  0  0  0  0
  2  9  1  6  0  0  0
  2 18  1  0  0  0  0
  3 14  1  0  0  0  0
  4  1  1  0  0  0  0
  5  6  1  1  0  0  0
  5  2  1  0  0  0  0
  8  3  1  0  0  0  0
 10 16  1  6  0  0  0
 10  5  1  0  0  0  0
 11 20  2  0  0  0  0
 12 17  1  0  0  0  0
 12 15  2  0  0  0  0
 13 10  1  0  0  0  0
 13 22  1  0  0  0  0
 14 20  1  0  0  0  0
 15 11  1  0  0  0  0
 16 23  1  0  0  0  0
 17  3  2  0  0  0  0
 18 17  1  0  0  0  0
 19  9  1  0  0  0  0
 19 21  1  0  0  0  0
 20  7  1  0  0  0  0
 21  1  1  6  0  0  0
 21 12  1  0  0  0  0
 22 24  1  6  0  0  0
 22  6  1  0  0  0  0
 23  4  1  0  0  0  0
 25 24  1  0  0  0  0
 26 19  1  0  0  0  0
 27 31  1  0  0  0  0
 27 26  1  6  0  0  0
 29 30  1  6  0  0  0
 29 31  1  0  0  0  0
 29 28  1  0  0  0  0
 30 32  1  0  0  0  0
 31 28  1  1  0  0  0
 32 27  1  0  0  0  0
M  END
>  <MODEL>
9

>  <REMARK>
 VINA RESULT:      -4.4      2.880      5.690
  Name = 
  3 active torsions:
  status: ('A' for Active; 'I' for Inactive)
    1  A    between atoms: C_9  and  C_28
    2  A    between atoms: C_13  and  C_29
    3  A    between atoms: N_24  and  C_28
                            x       y       z     vdW  Elec       q    Type
                         _______ _______ _______ _____ _____    ______ ____

>  <TORSDO>
F 3

$$$$
