=
 OpenBabel10262421063D

 32 35  0  0  1  0  0  0  0  0999 V2000
  188.3130  177.4600  137.4550 C   0  0  2  0  0  3  0  0  0  0  0  0
  184.9380  177.1530  134.7310 C   0  0  0  0  0  1  0  0  0  0  0  0
  188.1380  176.3200  136.4220 C   0  0  1  0  0  3  0  0  0  0  0  0
  185.3520  175.4600  136.3360 C   0  0  2  0  0  3  0  0  0  0  0  0
  187.7310  174.9920  137.0800 C   0  0  1  0  0  3  0  0  0  0  0  0
  186.2530  175.0000  137.4870 C   0  0  0  0  0  2  0  0  0  0  0  0
  185.7770  176.7840  135.8620 N   0  0  0  0  0  0  0  0  0  0  0  0
  187.1310  176.6760  135.3200 C   0  0  0  0  0  2  0  0  0  0  0  0
  188.0480  173.8150  136.1650 C   0  0  0  0  0  3  0  0  0  0  0  0
  189.2140  173.0310  136.7340 C   0  0  0  0  0  2  0  0  0  0  0  0
  187.8000  172.5140  136.9020 C   0  0  0  0  0  2  0  0  0  0  0  0
  184.0380  175.5190  136.8080 O   0  0  0  0  0  0  0  0  0  0  0  0
  183.8330  174.3070  137.4700 C   0  0  0  0  0  1  0  0  0  0  0  0
  188.6190  178.8360  136.8330 C   0  0  0  0  0  0  0  0  0  0  0  0
  189.4260  178.7060  135.7170 F   0  0  0  0  0  0  0  0  0  0  0  0
  189.2530  179.6550  137.7520 F   0  0  0  0  0  0  0  0  0  0  0  0
  187.4370  179.4460  136.4590 F   0  0  0  0  0  0  0  0  0  0  0  0
  189.2530  177.1250  138.6380 C   0  0  2  0  0  3  0  0  0  0  0  0
  188.6470  176.7860  142.2480 C   0  0  0  0  0  2  0  0  0  0  0  0
  187.2170  178.6980  141.5580 C   0  0  0  0  0  2  0  0  0  0  0  0
  188.9820  177.9110  139.9390 C   0  0  1  0  0  3  0  0  0  0  0  0
  187.7750  177.8980  142.6730 N   0  0  1  0  0  0  0  0  0  0  0  0
  187.4820  178.1130  140.1630 C   0  0  0  0  0  2  0  0  0  0  0  0
  189.5630  177.2130  141.1420 C   0  0  0  0  0  0  0  0  0  0  0  0
  190.7650  177.0320  141.2450 O   0  0  0  0  0  0  0  0  0  0  0  0
  186.6480  177.3200  143.3920 C   0  0  0  0  0  3  0  0  0  0  0  0
  185.6520  178.4140  143.7390 C   0  0  0  0  0  2  0  0  0  0  0  0
  186.5830  177.8810  144.8050 C   0  0  0  0  0  2  0  0  0  0  0  0
  190.5780  177.3010  138.2250 O   0  0  0  0  0  0  0  0  0  0  0  0
  191.0810  176.0080  138.0580 C   0  0  0  0  0  2  0  0  0  0  0  0
  192.2070  176.0330  137.0480 C   0  0  0  0  0  2  0  0  0  0  0  0
  191.6440  175.8370  135.6570 C   0  0  0  0  0  1  0  0  0  0  0  0
  1 14  1  6  0  0  0
  1 18  1  0  0  0  0
  2  7  1  0  0  0  0
  3  5  1  0  0  0  0
  3  1  1  1  0  0  0
  4 12  1  1  0  0  0
  4  6  1  0  0  0  0
  5  9  1  6  0  0  0
  5  6  1  0  0  0  0
  7  4  1  0  0  0  0
  8  7  1  0  0  0  0
  8  3  1  0  0  0  0
  9 10  1  0  0  0  0
  9 11  1  0  0  0  0
 10 11  1  0  0  0  0
 12 13  1  0  0  0  0
 14 16  1  0  0  0  0
 15 14  1  0  0  0  0
 17 14  1  0  0  0  0
 18 29  1  6  0  0  0
 19 22  1  0  0  0  0
 20 22  1  0  0  0  0
 21 18  1  6  0  0  0
 21 23  1  0  0  0  0
 21 24  1  0  0  0  0
 22 26  1  6  0  0  0
 23 20  1  0  0  0  0
 24 25  2  0  0  0  0
 24 19  1  0  0  0  0
 26 27  1  0  0  0  0
 26 28  1  0  0  0  0
 27 28  1  0  0  0  0
 30 29  1  0  0  0  0
 31 30  1  0  0  0  0
 32 31  1  0  0  0  0
M  END
>  <MODEL>
1

>  <REMARK>
 VINA RESULT:      -5.4      0.000      0.000
  Name = 
  10 active torsions:
  status: ('A' for Active; 'I' for Inactive)
    1  A    between atoms: C_1  and  C_4
    2  A    between atoms: C_1  and  O_24
    3  A    between atoms: C_2  and  C_5
    4  A    between atoms: C_5  and  C_10
    5  A    between atoms: C_5  and  C_27
    6  A    between atoms: C_6  and  C_13
    7  A    between atoms: C_7  and  N_19
    8  A    between atoms: O_11  and  C_12
    9  A    between atoms: C_16  and  C_27
   10  A    between atoms: O_24  and  C_27
                            x       y       z     vdW  Elec       q    Type
                         _______ _______ _______ _____ _____    ______ ____

>  <TORSDO>
F 10

$$$$
=
 OpenBabel10262421063D

 32 35  0  0  1  0  0  0  0  0999 V2000
  183.2950  178.4560  139.0370 C   0  0  2  0  0  3  0  0  0  0  0  0
  179.1930  177.2030  138.3310 C   0  0  0  0  0  1  0  0  0  0  0  0
  182.8850  177.3980  137.9850 C   0  0  1  0  0  3  0  0  0  0  0  0
  180.8200  175.6480  139.0710 C   0  0  2  0  0  3  0  0  0  0  0  0
  183.2500  175.9700  138.4190 C   0  0  1  0  0  3  0  0  0  0  0  0
  182.2820  175.4460  139.4870 C   0  0  0  0  0  2  0  0  0  0  0  0
  180.5700  177.0670  138.7810 N   0  0  0  0  0  0  0  0  0  0  0  0
  181.3920  177.4630  137.6380 C   0  0  0  0  0  2  0  0  0  0  0  0
  183.3070  175.0360  137.2160 C   0  0  0  0  0  3  0  0  0  0  0  0
  184.7530  174.8220  136.8100 C   0  0  0  0  0  2  0  0  0  0  0  0
  184.0210  173.7550  137.5980 C   0  0  0  0  0  2  0  0  0  0  0  0
  180.0050  175.2240  140.1250 O   0  0  0  0  0  0  0  0  0  0  0  0
  179.6450  173.9130  139.8030 C   0  0  0  0  0  1  0  0  0  0  0  0
  182.7520  179.8710  138.7570 C   0  0  0  0  0  0  0  0  0  0  0  0
  182.2000  179.9470  137.4910 F   0  0  0  0  0  0  0  0  0  0  0  0
  183.7640  180.8110  138.8610 F   0  0  0  0  0  0  0  0  0  0  0  0
  181.7790  180.1840  139.6870 F   0  0  0  0  0  0  0  0  0  0  0  0
  184.8000  178.4640  139.3990 C   0  0  2  0  0  3  0  0  0  0  0  0
  186.5900  177.9720  142.5720 C   0  0  0  0  0  2  0  0  0  0  0  0
  184.5670  179.2730  143.1980 C   0  0  0  0  0  2  0  0  0  0  0  0
  185.1510  179.1220  140.7500 C   0  0  1  0  0  3  0  0  0  0  0  0
  185.8760  178.7220  143.6220 N   0  0  1  0  0  0  0  0  0  0  0  0
  184.0990  178.8000  141.8140 C   0  0  0  0  0  2  0  0  0  0  0  0
  186.5000  178.6760  141.2520 C   0  0  0  0  0  0  0  0  0  0  0  0
  187.5180  178.9180  140.6230 O   0  0  0  0  0  0  0  0  0  0  0  0
  185.6180  177.8000  144.7200 C   0  0  0  0  0  3  0  0  0  0  0  0
  185.0490  178.5660  145.9030 C   0  0  0  0  0  2  0  0  0  0  0  0
  186.5010  178.1410  145.9100 C   0  0  0  0  0  2  0  0  0  0  0  0
  185.5110  179.0720  138.3580 O   0  0  0  0  0  0  0  0  0  0  0  0
  186.2490  178.0390  137.7720 C   0  0  0  0  0  2  0  0  0  0  0  0
  187.1490  178.6110  136.6990 C   0  0  0  0  0  2  0  0  0  0  0  0
  188.5650  178.7080  137.2250 C   0  0  0  0  0  1  0  0  0  0  0  0
  1 14  1  6  0  0  0
  1 18  1  0  0  0  0
  2  7  1  0  0  0  0
  3  5  1  0  0  0  0
  3  1  1  1  0  0  0
  4  6  1  0  0  0  0
  4 12  1  1  0  0  0
  5  9  1  6  0  0  0
  5  6  1  0  0  0  0
  7  4  1  0  0  0  0
  8  3  1  0  0  0  0
  8  7  1  0  0  0  0
  9 11  1  0  0  0  0
 10  9  1  0  0  0  0
 10 11  1  0  0  0  0
 13 12  1  0  0  0  0
 14 16  1  0  0  0  0
 14 17  1  0  0  0  0
 15 14  1  0  0  0  0
 18 29  1  6  0  0  0
 19 22  1  0  0  0  0
 20 22  1  0  0  0  0
 21 18  1  6  0  0  0
 21 24  1  0  0  0  0
 21 23  1  0  0  0  0
 22 26  1  1  0  0  0
 23 20  1  0  0  0  0
 24 19  1  0  0  0  0
 25 24  2  0  0  0  0
 26 27  1  0  0  0  0
 26 28  1  0  0  0  0
 27 28  1  0  0  0  0
 30 29  1  0  0  0  0
 31 32  1  0  0  0  0
 31 30  1  0  0  0  0
M  END
>  <MODEL>
2

>  <REMARK>
 VINA RESULT:      -5.0      3.462      4.864
  Name = 
  10 active torsions:
  status: ('A' for Active; 'I' for Inactive)
    1  A    between atoms: C_1  and  C_4
    2  A    between atoms: C_1  and  O_24
    3  A    between atoms: C_2  and  C_5
    4  A    between atoms: C_5  and  C_10
    5  A    between atoms: C_5  and  C_27
    6  A    between atoms: C_6  and  C_13
    7  A    between atoms: C_7  and  N_19
    8  A    between atoms: O_11  and  C_12
    9  A    between atoms: C_16  and  C_27
   10  A    between atoms: O_24  and  C_27
                            x       y       z     vdW  Elec       q    Type
                         _______ _______ _______ _____ _____    ______ ____

>  <TORSDO>
F 10

$$$$
=
 OpenBabel10262421063D

 32 35  0  0  1  0  0  0  0  0999 V2000
  188.5350  177.4390  140.8720 C   0  0  2  0  0  3  0  0  0  0  0  0
  188.0550  178.4630  136.6740 C   0  0  0  0  0  1  0  0  0  0  0  0
  189.6720  178.0010  139.9850 C   0  0  1  0  0  3  0  0  0  0  0  0
  189.5810  176.7770  137.3390 C   0  0  2  0  0  3  0  0  0  0  0  0
  190.7040  176.9270  139.6080 C   0  0  1  0  0  3  0  0  0  0  0  0
  190.1650  175.9920  138.5190 C   0  0  0  0  0  2  0  0  0  0  0  0
  188.5360  177.6950  137.8130 N   0  0  0  0  0  0  0  0  0  0  0  0
  189.1450  178.6750  138.7110 C   0  0  0  0  0  2  0  0  0  0  0  0
  192.0230  177.5660  139.1880 C   0  0  0  0  0  3  0  0  0  0  0  0
  193.1300  177.0950  140.1100 C   0  0  0  0  0  2  0  0  0  0  0  0
  192.9880  176.4920  138.7290 C   0  0  0  0  0  2  0  0  0  0  0  0
  189.0400  175.8620  136.4320 O   0  0  0  0  0  0  0  0  0  0  0  0
  189.5100  174.6140  136.8460 C   0  0  0  0  0  1  0  0  0  0  0  0
  187.3140  178.3720  141.0020 C   0  0  0  0  0  0  0  0  0  0  0  0
  186.4430  177.9130  141.9730 F   0  0  0  0  0  0  0  0  0  0  0  0
  186.6370  178.4580  139.7970 F   0  0  0  0  0  0  0  0  0  0  0  0
  187.7390  179.6410  141.3460 F   0  0  0  0  0  0  0  0  0  0  0  0
  188.9940  176.8770  142.2390 C   0  0  2  0  0  3  0  0  0  0  0  0
  190.0490  177.9720  145.5850 C   0  0  0  0  0  2  0  0  0  0  0  0
  187.5950  177.6330  145.7890 C   0  0  0  0  0  2  0  0  0  0  0  0
  188.5770  177.7090  143.4700 C   0  0  1  0  0  3  0  0  0  0  0  0
  188.8400  178.1360  146.4160 N   0  0  1  0  0  0  0  0  0  0  0  0
  187.8110  176.8560  144.4830 C   0  0  0  0  0  2  0  0  0  0  0  0
  189.7710  178.3230  144.1560 C   0  0  0  0  0  0  0  0  0  0  0  0
  190.4820  179.1310  143.5800 O   0  0  0  0  0  0  0  0  0  0  0  0
  189.0440  177.3730  147.6400 C   0  0  0  0  0  3  0  0  0  0  0  0
  187.8570  177.5750  148.5670 C   0  0  0  0  0  2  0  0  0  0  0  0
  189.1510  178.3110  148.8320 C   0  0  0  0  0  2  0  0  0  0  0  0
  190.3830  176.7030  142.2110 O   0  0  0  0  0  0  0  0  0  0  0  0
  190.6150  175.5250  142.9280 C   0  0  0  0  0  2  0  0  0  0  0  0
  191.9290  175.6380  143.6680 C   0  0  0  0  0  2  0  0  0  0  0  0
  192.0580  174.4920  144.6480 C   0  0  0  0  0  1  0  0  0  0  0  0
  1 14  1  1  0  0  0
  1 18  1  0  0  0  0
  2  7  1  0  0  0  0
  3  1  1  6  0  0  0
  4 12  1  6  0  0  0
  4  7  1  0  0  0  0
  4  6  1  0  0  0  0
  5  9  1  6  0  0  0
  5  3  1  0  0  0  0
  6  5  1  0  0  0  0
  7  8  1  0  0  0  0
  8  3  1  0  0  0  0
  9 10  1  0  0  0  0
 11  9  1  0  0  0  0
 11 10  1  0  0  0  0
 12 13  1  0  0  0  0
 14 17  1  0  0  0  0
 14 15  1  0  0  0  0
 16 14  1  0  0  0  0
 18 29  1  6  0  0  0
 19 22  1  0  0  0  0
 20 22  1  0  0  0  0
 21 18  1  6  0  0  0
 21 24  1  0  0  0  0
 21 23  1  0  0  0  0
 22 26  1  1  0  0  0
 23 20  1  0  0  0  0
 24 19  1  0  0  0  0
 25 24  2  0  0  0  0
 26 27  1  0  0  0  0
 26 28  1  0  0  0  0
 27 28  1  0  0  0  0
 29 30  1  0  0  0  0
 30 31  1  0  0  0  0
 31 32  1  0  0  0  0
M  END
>  <MODEL>
3

>  <REMARK>
 VINA RESULT:      -4.8      2.833      4.945
  Name = 
  10 active torsions:
  status: ('A' for Active; 'I' for Inactive)
    1  A    between atoms: C_1  and  C_4
    2  A    between atoms: C_1  and  O_24
    3  A    between atoms: C_2  and  C_5
    4  A    between atoms: C_5  and  C_10
    5  A    between atoms: C_5  and  C_27
    6  A    between atoms: C_6  and  C_13
    7  A    between atoms: C_7  and  N_19
    8  A    between atoms: O_11  and  C_12
    9  A    between atoms: C_16  and  C_27
   10  A    between atoms: O_24  and  C_27
                            x       y       z     vdW  Elec       q    Type
                         _______ _______ _______ _____ _____    ______ ____

>  <TORSDO>
F 10

$$$$
=
 OpenBabel10262421063D

 32 35  0  0  1  0  0  0  0  0999 V2000
  182.1990  177.7780  137.6300 C   0  0  2  0  0  3  0  0  0  0  0  0
  182.0550  174.2260  135.1290 C   0  0  0  0  0  1  0  0  0  0  0  0
  183.2440  177.4500  136.5360 C   0  0  1  0  0  3  0  0  0  0  0  0
  183.8880  174.6060  136.5810 C   0  0  2  0  0  3  0  0  0  0  0  0
  184.5830  176.9830  137.1270 C   0  0  1  0  0  3  0  0  0  0  0  0
  184.4960  175.5390  137.6340 C   0  0  0  0  0  2  0  0  0  0  0  0
  182.5670  175.1030  136.1710 N   0  0  0  0  0  0  0  0  0  0  0  0
  182.7350  176.4070  135.5330 C   0  0  0  0  0  2  0  0  0  0  0  0
  185.7100  177.1480  136.1140 C   0  0  0  0  0  3  0  0  0  0  0  0
  186.7300  178.1350  136.6480 C   0  0  0  0  0  2  0  0  0  0  0  0
  187.0100  176.6480  136.7090 C   0  0  0  0  0  2  0  0  0  0  0  0
  183.7670  173.3330  137.1450 O   0  0  0  0  0  0  0  0  0  0  0  0
  185.0120  173.0670  137.7200 C   0  0  0  0  0  1  0  0  0  0  0  0
  180.8120  178.1670  137.0840 C   0  0  0  0  0  0  0  0  0  0  0  0
  180.9130  179.1910  136.1600 F   0  0  0  0  0  0  0  0  0  0  0  0
  179.9800  178.5740  138.1140 F   0  0  0  0  0  0  0  0  0  0  0  0
  180.2330  177.0710  136.4740 F   0  0  0  0  0  0  0  0  0  0  0  0
  182.6940  178.7490  138.7300 C   0  0  2  0  0  3  0  0  0  0  0  0
  182.2570  178.9620  142.3730 C   0  0  0  0  0  2  0  0  0  0  0  0
  184.5970  178.1820  142.0750 C   0  0  0  0  0  2  0  0  0  0  0  0
  183.0690  178.0890  140.0740 C   0  0  1  0  0  3  0  0  0  0  0  0
  183.4800  178.4390  143.0130 N   0  0  1  0  0  0  0  0  0  0  0  0
  184.3560  178.6870  140.6450 C   0  0  0  0  0  2  0  0  0  0  0  0
  181.9690  178.2390  141.0930 C   0  0  0  0  0  0  0  0  0  0  0  0
  180.8680  177.7440  140.9090 O   0  0  0  0  0  0  0  0  0  0  0  0
  183.9390  179.4430  143.9630 C   0  0  0  0  0  3  0  0  0  0  0  0
  185.1920  178.9440  144.6640 C   0  0  0  0  0  2  0  0  0  0  0  0
  183.8600  178.8990  145.3810 C   0  0  0  0  0  2  0  0  0  0  0  0
  181.7260  179.7410  138.9240 O   0  0  0  0  0  0  0  0  0  0  0  0
  182.3700  180.9420  138.6110 C   0  0  0  0  0  2  0  0  0  0  0  0
  181.3420  181.9690  138.1900 C   0  0  0  0  0  2  0  0  0  0  0  0
  180.0590  181.7480  138.9610 C   0  0  0  0  0  1  0  0  0  0  0  0
  1 14  1  6  0  0  0
  1 18  1  0  0  0  0
  2  7  1  0  0  0  0
  3  5  1  0  0  0  0
  3  1  1  1  0  0  0
  4 12  1  1  0  0  0
  4  6  1  0  0  0  0
  5  9  1  6  0  0  0
  5  6  1  0  0  0  0
  7  4  1  0  0  0  0
  8  7  1  0  0  0  0
  8  3  1  0  0  0  0
  9 10  1  0  0  0  0
  9 11  1  0  0  0  0
 10 11  1  0  0  0  0
 12 13  1  0  0  0  0
 14 16  1  0  0  0  0
 15 14  1  0  0  0  0
 17 14  1  0  0  0  0
 18 29  1  1  0  0  0
 19 22  1  0  0  0  0
 20 22  1  0  0  0  0
 21 18  1  6  0  0  0
 21 23  1  0  0  0  0
 21 24  1  0  0  0  0
 22 26  1  1  0  0  0
 23 20  1  0  0  0  0
 24 19  1  0  0  0  0
 25 24  2  0  0  0  0
 26 27  1  0  0  0  0
 26 28  1  0  0  0  0
 27 28  1  0  0  0  0
 30 29  1  0  0  0  0
 31 30  1  0  0  0  0
 31 32  1  0  0  0  0
M  END
>  <MODEL>
4

>  <REMARK>
 VINA RESULT:      -4.3      4.311      6.492
  Name = 
  10 active torsions:
  status: ('A' for Active; 'I' for Inactive)
    1  A    between atoms: C_1  and  C_4
    2  A    between atoms: C_1  and  O_24
    3  A    between atoms: C_2  and  C_5
    4  A    between atoms: C_5  and  C_10
    5  A    between atoms: C_5  and  C_27
    6  A    between atoms: C_6  and  C_13
    7  A    between atoms: C_7  and  N_19
    8  A    between atoms: O_11  and  C_12
    9  A    between atoms: C_16  and  C_27
   10  A    between atoms: O_24  and  C_27
                            x       y       z     vdW  Elec       q    Type
                         _______ _______ _______ _____ _____    ______ ____

>  <TORSDO>
F 10

$$$$
=
 OpenBabel10262421063D

 32 35  0  0  1  0  0  0  0  0999 V2000
  184.4160  178.2060  138.5060 C   0  0  2  0  0  3  0  0  0  0  0  0
  184.0630  175.6920  134.9770 C   0  0  0  0  0  1  0  0  0  0  0  0
  183.6200  176.8790  138.4680 C   0  0  1  0  0  3  0  0  0  0  0  0
  182.1410  176.6660  135.9630 C   0  0  2  0  0  3  0  0  0  0  0  0
  182.1010  177.1090  138.4600 C   0  0  1  0  0  3  0  0  0  0  0  0
  181.6130  177.5710  137.0820 C   0  0  0  0  0  2  0  0  0  0  0  0
  183.6090  176.6080  136.0130 N   0  0  0  0  0  0  0  0  0  0  0  0
  184.0110  175.9940  137.2770 C   0  0  0  0  0  2  0  0  0  0  0  0
  181.3610  175.8570  138.9190 C   0  0  0  0  0  3  0  0  0  0  0  0
  180.4110  176.2160  140.0460 C   0  0  0  0  0  2  0  0  0  0  0  0
  179.8790  176.0100  138.6430 C   0  0  0  0  0  2  0  0  0  0  0  0
  181.7230  177.1970  134.7400 O   0  0  0  0  0  0  0  0  0  0  0  0
  181.1210  178.4160  135.0570 C   0  0  0  0  0  1  0  0  0  0  0  0
  185.8890  178.0730  138.0730 C   0  0  0  0  0  0  0  0  0  0  0  0
  186.0520  178.4520  136.7530 F   0  0  0  0  0  0  0  0  0  0  0  0
  186.3240  176.7670  138.2200 F   0  0  0  0  0  0  0  0  0  0  0  0
  186.6780  178.8800  138.8700 F   0  0  0  0  0  0  0  0  0  0  0  0
  184.2570  179.0210  139.8120 C   0  0  2  0  0  3  0  0  0  0  0  0
  183.6550  179.0810  143.4380 C   0  0  0  0  0  2  0  0  0  0  0  0
  185.8110  177.8690  143.1880 C   0  0  0  0  0  2  0  0  0  0  0  0
  184.4150  178.2140  141.1180 C   0  0  1  0  0  3  0  0  0  0  0  0
  184.7110  178.2840  144.0910 N   0  0  1  0  0  0  0  0  0  0  0  0
  185.7580  178.5040  141.7910 C   0  0  0  0  0  2  0  0  0  0  0  0
  183.3070  178.5140  142.0950 C   0  0  0  0  0  0  0  0  0  0  0  0
  182.1440  178.2640  141.8250 O   0  0  0  0  0  0  0  0  0  0  0  0
  185.3020  179.1120  145.1340 C   0  0  0  0  0  3  0  0  0  0  0  0
  186.4010  178.3340  145.8380 C   0  0  0  0  0  2  0  0  0  0  0  0
  185.0510  178.4930  146.5010 C   0  0  0  0  0  2  0  0  0  0  0  0
  183.0210  179.6780  139.7870 O   0  0  0  0  0  0  0  0  0  0  0  0
  183.1100  180.5760  138.7200 C   0  0  0  0  0  2  0  0  0  0  0  0
  181.7230  181.0480  138.3430 C   0  0  0  0  0  2  0  0  0  0  0  0
  180.7220  180.5410  139.3590 C   0  0  0  0  0  1  0  0  0  0  0  0
  1 14  1  1  0  0  0
  1 18  1  0  0  0  0
  2  7  1  0  0  0  0
  3  1  1  6  0  0  0
  4 12  1  6  0  0  0
  4  7  1  0  0  0  0
  4  6  1  0  0  0  0
  5  3  1  0  0  0  0
  5  9  1  6  0  0  0
  6  5  1  0  0  0  0
  7  8  1  0  0  0  0
  8  3  1  0  0  0  0
  9 10  1  0  0  0  0
 11  9  1  0  0  0  0
 11 10  1  0  0  0  0
 12 13  1  0  0  0  0
 14 16  1  0  0  0  0
 14 17  1  0  0  0  0
 15 14  1  0  0  0  0
 18 29  1  1  0  0  0
 19 22  1  0  0  0  0
 20 22  1  0  0  0  0
 21 18  1  6  0  0  0
 21 23  1  0  0  0  0
 21 24  1  0  0  0  0
 22 26  1  1  0  0  0
 23 20  1  0  0  0  0
 24 19  1  0  0  0  0
 25 24  2  0  0  0  0
 26 27  1  0  0  0  0
 26 28  1  0  0  0  0
 27 28  1  0  0  0  0
 30 29  1  0  0  0  0
 31 30  1  0  0  0  0
 31 32  1  0  0  0  0
M  END
>  <MODEL>
5

>  <REMARK>
 VINA RESULT:      -4.3      4.033      5.990
  Name = 
  10 active torsions:
  status: ('A' for Active; 'I' for Inactive)
    1  A    between atoms: C_1  and  C_4
    2  A    between atoms: C_1  and  O_24
    3  A    between atoms: C_2  and  C_5
    4  A    between atoms: C_5  and  C_10
    5  A    between atoms: C_5  and  C_27
    6  A    between atoms: C_6  and  C_13
    7  A    between atoms: C_7  and  N_19
    8  A    between atoms: O_11  and  C_12
    9  A    between atoms: C_16  and  C_27
   10  A    between atoms: O_24  and  C_27
                            x       y       z     vdW  Elec       q    Type
                         _______ _______ _______ _____ _____    ______ ____

>  <TORSDO>
F 10

$$$$
=
 OpenBabel10262421063D

 32 35  0  0  1  0  0  0  0  0999 V2000
  185.8770  178.2900  143.5290 C   0  0  2  0  0  3  0  0  0  0  0  0
  189.3920  176.7560  145.5760 C   0  0  0  0  0  1  0  0  0  0  0  0
  186.9460  177.3950  142.8560 C   0  0  1  0  0  3  0  0  0  0  0  0
  189.6150  178.2010  143.7120 C   0  0  2  0  0  3  0  0  0  0  0  0
  187.8470  178.1850  141.8940 C   0  0  1  0  0  3  0  0  0  0  0  0
  188.8740  179.0300  142.6570 C   0  0  0  0  0  2  0  0  0  0  0  0
  188.6520  177.5810  144.6330 N   0  0  0  0  0  0  0  0  0  0  0  0
  187.8150  176.6500  143.8780 C   0  0  0  0  0  2  0  0  0  0  0  0
  188.5270  177.2510  140.8990 C   0  0  0  0  0  3  0  0  0  0  0  0
  188.1260  177.6370  139.4880 C   0  0  0  0  0  2  0  0  0  0  0  0
  189.4820  178.0400  140.0280 C   0  0  0  0  0  2  0  0  0  0  0  0
  190.4680  179.0560  144.4160 O   0  0  0  0  0  0  0  0  0  0  0  0
  191.7520  178.7490  143.9570 C   0  0  0  0  0  1  0  0  0  0  0  0
  185.8140  178.1560  145.0630 C   0  0  0  0  0  0  0  0  0  0  0  0
  186.0560  176.8520  145.4560 F   0  0  0  0  0  0  0  0  0  0  0  0
  184.5710  178.5420  145.5360 F   0  0  0  0  0  0  0  0  0  0  0  0
  186.7650  178.9780  145.6370 F   0  0  0  0  0  0  0  0  0  0  0  0
  184.4750  178.2320  142.8750 C   0  0  2  0  0  3  0  0  0  0  0  0
  183.5280  179.4110  139.5250 C   0  0  0  0  0  2  0  0  0  0  0  0
  183.0680  176.9700  139.4740 C   0  0  0  0  0  2  0  0  0  0  0  0
  184.4610  177.8590  141.3770 C   0  0  1  0  0  3  0  0  0  0  0  0
  183.1650  178.2360  138.7110 N   0  0  1  0  0  0  0  0  0  0  0  0
  183.1660  177.1380  140.9980 C   0  0  0  0  0  2  0  0  0  0  0  0
  184.6150  179.0750  140.5000 C   0  0  0  0  0  0  0  0  0  0  0  0
  185.6240  179.7590  140.5430 O   0  0  0  0  0  0  0  0  0  0  0  0
  181.8510  178.4910  138.1350 C   0  0  0  0  0  3  0  0  0  0  0  0
  181.3360  177.2280  137.4640 C   0  0  0  0  0  2  0  0  0  0  0  0
  181.9050  178.3490  136.6220 C   0  0  0  0  0  2  0  0  0  0  0  0
  183.8290  179.4560  143.0830 O   0  0  0  0  0  0  0  0  0  0  0  0
  182.6950  179.1430  143.8370 C   0  0  0  0  0  2  0  0  0  0  0  0
  181.4570  179.3500  142.9920 C   0  0  0  0  0  2  0  0  0  0  0  0
  180.2560  178.7630  143.7020 C   0  0  0  0  0  1  0  0  0  0  0  0
  1 14  1  1  0  0  0
  3  1  1  1  0  0  0
  3  8  1  0  0  0  0
  4 12  1  1  0  0  0
  4  7  1  0  0  0  0
  5  9  1  6  0  0  0
  5  6  1  0  0  0  0
  5  3  1  0  0  0  0
  6  4  1  0  0  0  0
  7  2  1  0  0  0  0
  8  7  1  0  0  0  0
 10 11  1  0  0  0  0
 10  9  1  0  0  0  0
 11  9  1  0  0  0  0
 13 12  1  0  0  0  0
 14 15  1  0  0  0  0
 14 16  1  0  0  0  0
 14 17  1  0  0  0  0
 18 29  1  6  0  0  0
 18  1  1  0  0  0  0
 19 24  1  0  0  0  0
 20 23  1  0  0  0  0
 21 18  1  1  0  0  0
 22 26  1  1  0  0  0
 22 20  1  0  0  0  0
 22 19  1  0  0  0  0
 23 21  1  0  0  0  0
 24 25  2  0  0  0  0
 24 21  1  0  0  0  0
 27 26  1  0  0  0  0
 28 27  1  0  0  0  0
 28 26  1  0  0  0  0
 29 30  1  0  0  0  0
 31 32  1  0  0  0  0
 31 30  1  0  0  0  0
M  END
>  <MODEL>
6

>  <REMARK>
 VINA RESULT:      -4.1      4.461      8.382
  Name = 
  10 active torsions:
  status: ('A' for Active; 'I' for Inactive)
    1  A    between atoms: C_1  and  C_4
    2  A    between atoms: C_1  and  O_24
    3  A    between atoms: C_2  and  C_5
    4  A    between atoms: C_5  and  C_10
    5  A    between atoms: C_5  and  C_27
    6  A    between atoms: C_6  and  C_13
    7  A    between atoms: C_7  and  N_19
    8  A    between atoms: O_11  and  C_12
    9  A    between atoms: C_16  and  C_27
   10  A    between atoms: O_24  and  C_27
                            x       y       z     vdW  Elec       q    Type
                         _______ _______ _______ _____ _____    ______ ____

>  <TORSDO>
F 10

$$$$
=
 OpenBabel10262421063D

 32 35  0  0  1  0  0  0  0  0999 V2000
  184.2660  178.2080  140.5540 C   0  0  2  0  0  3  0  0  0  0  0  0
  188.5350  178.6770  141.2280 C   0  0  0  0  0  1  0  0  0  0  0  0
  184.8710  179.0470  141.7050 C   0  0  1  0  0  3  0  0  0  0  0  0
  187.1590  177.6590  142.8660 C   0  0  2  0  0  3  0  0  0  0  0  0
  184.7290  178.3550  143.0700 C   0  0  1  0  0  3  0  0  0  0  0  0
  185.7380  177.2110  143.2240 C   0  0  0  0  0  2  0  0  0  0  0  0
  187.1860  178.2080  141.5020 N   0  0  0  0  0  0  0  0  0  0  0  0
  186.3440  179.4020  141.4620 C   0  0  0  0  0  2  0  0  0  0  0  0
  184.8570  179.3640  144.2050 C   0  0  0  0  0  3  0  0  0  0  0  0
  183.8770  179.0120  145.3080 C   0  0  0  0  0  2  0  0  0  0  0  0
  185.3430  178.6640  145.4580 C   0  0  0  0  0  2  0  0  0  0  0  0
  188.0010  176.5470  142.9510 O   0  0  0  0  0  0  0  0  0  0  0  0
  188.6070  176.6420  144.2060 C   0  0  0  0  0  1  0  0  0  0  0  0
  184.5570  178.7640  139.1460 C   0  0  0  0  0  0  0  0  0  0  0  0
  184.5730  180.1470  139.1540 F   0  0  0  0  0  0  0  0  0  0  0  0
  183.5970  178.3330  138.2450 F   0  0  0  0  0  0  0  0  0  0  0  0
  185.7870  178.3060  138.7140 F   0  0  0  0  0  0  0  0  0  0  0  0
  182.7780  177.8250  140.7410 C   0  0  2  0  0  3  0  0  0  0  0  0
  179.8620  175.8620  139.6650 C   0  0  0  0  0  2  0  0  0  0  0  0
  181.7540  174.9300  138.3520 C   0  0  0  0  0  2  0  0  0  0  0  0
  182.1190  177.1260  139.5320 C   0  0  1  0  0  3  0  0  0  0  0  0
  180.2900  174.9660  138.5740 N   0  0  1  0  0  0  0  0  0  0  0  0
  182.5770  175.6710  139.4160 C   0  0  0  0  0  2  0  0  0  0  0  0
  180.6150  177.1570  139.6240 C   0  0  0  0  0  0  0  0  0  0  0  0
  180.0050  178.2140  139.6220 O   0  0  0  0  0  0  0  0  0  0  0  0
  179.8760  173.6160  138.9300 C   0  0  0  0  0  3  0  0  0  0  0  0
  180.3840  172.6370  137.8840 C   0  0  0  0  0  2  0  0  0  0  0  0
  178.9320  173.0610  137.8740 C   0  0  0  0  0  2  0  0  0  0  0  0
  182.0590  178.9710  141.0980 O   0  0  0  0  0  0  0  0  0  0  0  0
  181.7310  178.7880  142.4440 C   0  0  0  0  0  2  0  0  0  0  0  0
  180.4820  179.5780  142.7690 C   0  0  0  0  0  2  0  0  0  0  0  0
  179.6600  178.8260  143.7940 C   0  0  0  0  0  1  0  0  0  0  0  0
  1 14  1  6  0  0  0
  1 18  1  0  0  0  0
  2  7  1  0  0  0  0
  3  1  1  6  0  0  0
  3  5  1  0  0  0  0
  4 12  1  6  0  0  0
  4  6  1  0  0  0  0
  5  6  1  0  0  0  0
  5  9  1  1  0  0  0
  7  4  1  0  0  0  0
  8  7  1  0  0  0  0
  8  3  1  0  0  0  0
  9 10  1  0  0  0  0
  9 11  1  0  0  0  0
 10 11  1  0  0  0  0
 12 13  1  0  0  0  0
 14 15  1  0  0  0  0
 16 14  1  0  0  0  0
 17 14  1  0  0  0  0
 18 29  1  6  0  0  0
 20 22  1  0  0  0  0
 20 23  1  0  0  0  0
 21 24  1  0  0  0  0
 21 18  1  1  0  0  0
 22 26  1  1  0  0  0
 22 19  1  0  0  0  0
 23 21  1  0  0  0  0
 24 19  1  0  0  0  0
 25 24  2  0  0  0  0
 27 26  1  0  0  0  0
 28 27  1  0  0  0  0
 28 26  1  0  0  0  0
 29 30  1  0  0  0  0
 30 31  1  0  0  0  0
 31 32  1  0  0  0  0
M  END
>  <MODEL>
7

>  <REMARK>
 VINA RESULT:      -4.0      4.371      8.660
  Name = 
  10 active torsions:
  status: ('A' for Active; 'I' for Inactive)
    1  A    between atoms: C_1  and  C_4
    2  A    between atoms: C_1  and  O_24
    3  A    between atoms: C_2  and  C_5
    4  A    between atoms: C_5  and  C_10
    5  A    between atoms: C_5  and  C_27
    6  A    between atoms: C_6  and  C_13
    7  A    between atoms: C_7  and  N_19
    8  A    between atoms: O_11  and  C_12
    9  A    between atoms: C_16  and  C_27
   10  A    between atoms: O_24  and  C_27
                            x       y       z     vdW  Elec       q    Type
                         _______ _______ _______ _____ _____    ______ ____

>  <TORSDO>
F 10

$$$$
=
 OpenBabel10262421063D

 32 35  0  0  1  0  0  0  0  0999 V2000
  189.6360  177.7900  140.2120 C   0  0  2  0  0  3  0  0  0  0  0  0
  191.2660  174.8210  137.4880 C   0  0  0  0  0  1  0  0  0  0  0  0
  188.7740  176.9320  139.2550 C   0  0  1  0  0  3  0  0  0  0  0  0
  190.0830  176.6990  136.6590 C   0  0  2  0  0  3  0  0  0  0  0  0
  188.2450  177.7410  138.0610 C   0  0  1  0  0  3  0  0  0  0  0  0
  189.3460  177.9920  137.0240 C   0  0  0  0  0  2  0  0  0  0  0  0
  190.6310  176.0730  137.8710 N   0  0  0  0  0  0  0  0  0  0  0  0
  189.5210  175.6930  138.7440 C   0  0  0  0  0  2  0  0  0  0  0  0
  187.0380  177.0530  137.4330 C   0  0  0  0  0  3  0  0  0  0  0  0
  185.8000  177.9000  137.6570 C   0  0  0  0  0  2  0  0  0  0  0  0
  186.4900  177.9090  136.3090 C   0  0  0  0  0  2  0  0  0  0  0  0
  191.1190  177.0220  135.7780 O   0  0  0  0  0  0  0  0  0  0  0  0
  190.8170  176.3430  134.5950 C   0  0  0  0  0  1  0  0  0  0  0  0
  191.0300  177.2030  140.5070 C   0  0  0  0  0  0  0  0  0  0  0  0
  191.8410  177.2720  139.3890 F   0  0  0  0  0  0  0  0  0  0  0  0
  190.9270  175.8810  140.9060 F   0  0  0  0  0  0  0  0  0  0  0  0
  191.6230  177.9150  141.5320 F   0  0  0  0  0  0  0  0  0  0  0  0
  188.9100  178.2580  141.4970 C   0  0  2  0  0  3  0  0  0  0  0  0
  188.0350  176.8670  144.7850 C   0  0  0  0  0  2  0  0  0  0  0  0
  190.0490  178.2570  145.2170 C   0  0  0  0  0  2  0  0  0  0  0  0
  189.4930  177.7160  142.8190 C   0  0  1  0  0  3  0  0  0  0  0  0
  189.0820  177.2670  145.7450 N   0  0  1  0  0  0  0  0  0  0  0  0
  189.6790  178.8360  143.8440 C   0  0  0  0  0  2  0  0  0  0  0  0
  188.6120  176.6500  143.4190 C   0  0  0  0  0  0  0  0  0  0  0  0
  188.4010  175.6020  142.8310 O   0  0  0  0  0  0  0  0  0  0  0  0
  188.4170  177.8820  146.8850 C   0  0  0  0  0  3  0  0  0  0  0  0
  189.3670  177.9130  148.0720 C   0  0  0  0  0  2  0  0  0  0  0  0
  188.2690  176.8740  148.0140 C   0  0  0  0  0  2  0  0  0  0  0  0
  187.5520  177.9370  141.3910 O   0  0  0  0  0  0  0  0  0  0  0  0
  186.8910  179.1670  141.3410 C   0  0  0  0  0  2  0  0  0  0  0  0
  185.4050  178.9470  141.5170 C   0  0  0  0  0  2  0  0  0  0  0  0
  185.1490  178.2500  142.8360 C   0  0  0  0  0  1  0  0  0  0  0  0
  1 14  1  1  0  0  0
  1 18  1  0  0  0  0
  2  7  1  0  0  0  0
  3  1  1  6  0  0  0
  4 12  1  6  0  0  0
  4  6  1  0  0  0  0
  4  7  1  0  0  0  0
  5  9  1  6  0  0  0
  5  3  1  0  0  0  0
  6  5  1  0  0  0  0
  7  8  1  0  0  0  0
  8  3  1  0  0  0  0
  9 10  1  0  0  0  0
 11  9  1  0  0  0  0
 11 10  1  0  0  0  0
 13 12  1  0  0  0  0
 14 16  1  0  0  0  0
 14 17  1  0  0  0  0
 15 14  1  0  0  0  0
 18 29  1  6  0  0  0
 19 22  1  0  0  0  0
 20 22  1  0  0  0  0
 21 18  1  6  0  0  0
 21 24  1  0  0  0  0
 21 23  1  0  0  0  0
 22 26  1  1  0  0  0
 23 20  1  0  0  0  0
 24 19  1  0  0  0  0
 25 24  2  0  0  0  0
 26 28  1  0  0  0  0
 26 27  1  0  0  0  0
 28 27  1  0  0  0  0
 30 29  1  0  0  0  0
 30 31  1  0  0  0  0
 31 32  1  0  0  0  0
M  END
>  <MODEL>
8

>  <REMARK>
 VINA RESULT:      -3.8      2.895      5.211
  Name = 
  10 active torsions:
  status: ('A' for Active; 'I' for Inactive)
    1  A    between atoms: C_1  and  C_4
    2  A    between atoms: C_1  and  O_24
    3  A    between atoms: C_2  and  C_5
    4  A    between atoms: C_5  and  C_10
    5  A    between atoms: C_5  and  C_27
    6  A    between atoms: C_6  and  C_13
    7  A    between atoms: C_7  and  N_19
    8  A    between atoms: O_11  and  C_12
    9  A    between atoms: C_16  and  C_27
   10  A    between atoms: O_24  and  C_27
                            x       y       z     vdW  Elec       q    Type
                         _______ _______ _______ _____ _____    ______ ____

>  <TORSDO>
F 10

$$$$
=
 OpenBabel10262421063D

 32 35  0  0  1  0  0  0  0  0999 V2000
  187.7690  177.7030  143.0990 C   0  0  2  0  0  3  0  0  0  0  0  0
  192.0160  177.6380  142.1690 C   0  0  0  0  0  1  0  0  0  0  0  0
  188.8720  178.2030  144.0630 C   0  0  1  0  0  3  0  0  0  0  0  0
  191.1610  176.3970  143.9970 C   0  0  2  0  0  3  0  0  0  0  0  0
  189.1100  177.2340  145.2320 C   0  0  1  0  0  3  0  0  0  0  0  0
  189.9060  176.0030  144.7830 C   0  0  0  0  0  2  0  0  0  0  0  0
  190.7930  177.2360  142.8480 N   0  0  0  0  0  0  0  0  0  0  0  0
  190.2000  178.4770  143.3450 C   0  0  0  0  0  2  0  0  0  0  0  0
  189.7960  177.9450  146.3930 C   0  0  0  0  0  3  0  0  0  0  0  0
  189.0550  177.6400  147.6810 C   0  0  0  0  0  2  0  0  0  0  0  0
  190.3490  176.9200  147.3640 C   0  0  0  0  0  2  0  0  0  0  0  0
  191.7840  175.2260  143.5550 O   0  0  0  0  0  0  0  0  0  0  0  0
  192.1480  174.5440  144.7190 C   0  0  0  0  0  1  0  0  0  0  0  0
  187.8810  178.2610  141.6660 C   0  0  0  0  0  0  0  0  0  0  0  0
  186.6340  178.5880  141.1650 F   0  0  0  0  0  0  0  0  0  0  0  0
  188.4720  177.3320  140.8270 F   0  0  0  0  0  0  0  0  0  0  0  0
  188.6700  179.3950  141.6740 F   0  0  0  0  0  0  0  0  0  0  0  0
  186.3280  177.7930  143.6560 C   0  0  2  0  0  3  0  0  0  0  0  0
  183.0160  179.3850  143.5780 C   0  0  0  0  0  2  0  0  0  0  0  0
  183.2270  178.2860  141.3590 C   0  0  0  0  0  2  0  0  0  0  0  0
  185.3150  178.5250  142.7500 C   0  0  1  0  0  3  0  0  0  0  0  0
  182.4520  179.2030  142.2260 N   0  0  1  0  0  0  0  0  0  0  0  0
  184.3590  177.5370  142.0780 C   0  0  0  0  0  2  0  0  0  0  0  0
  184.5060  179.5340  143.5230 C   0  0  0  0  0  0  0  0  0  0  0  0
  185.0400  180.4890  144.0640 O   0  0  0  0  0  0  0  0  0  0  0  0
  181.1230  178.6280  142.3810 C   0  0  0  0  0  3  0  0  0  0  0  0
  180.5060  178.4000  141.0110 C   0  0  0  0  0  2  0  0  0  0  0  0
  180.0700  179.5850  141.8430 C   0  0  0  0  0  2  0  0  0  0  0  0
  186.3710  178.3860  144.9230 O   0  0  0  0  0  0  0  0  0  0  0  0
  185.6840  177.5030  145.7600 C   0  0  0  0  0  2  0  0  0  0  0  0
  185.1680  178.2530  146.9690 C   0  0  0  0  0  2  0  0  0  0  0  0
  186.0550  179.4490  147.2380 C   0  0  0  0  0  1  0  0  0  0  0  0
  1 14  1  6  0  0  0
  1 18  1  0  0  0  0
  2  7  1  0  0  0  0
  3  1  1  6  0  0  0
  3  5  1  0  0  0  0
  4 12  1  6  0  0  0
  4  6  1  0  0  0  0
  5  9  1  1  0  0  0
  6  5  1  0  0  0  0
  7  8  1  0  0  0  0
  7  4  1  0  0  0  0
  8  3  1  0  0  0  0
  9 11  1  0  0  0  0
  9 10  1  0  0  0  0
 11 10  1  0  0  0  0
 12 13  1  0  0  0  0
 14 17  1  0  0  0  0
 15 14  1  0  0  0  0
 16 14  1  0  0  0  0
 18 29  1  1  0  0  0
 20 23  1  0  0  0  0
 20 22  1  0  0  0  0
 21 24  1  0  0  0  0
 21 18  1  1  0  0  0
 22 26  1  1  0  0  0
 22 19  1  0  0  0  0
 23 21  1  0  0  0  0
 24 19  1  0  0  0  0
 24 25  2  0  0  0  0
 27 28  1  0  0  0  0
 27 26  1  0  0  0  0
 28 26  1  0  0  0  0
 29 30  1  0  0  0  0
 30 31  1  0  0  0  0
 31 32  1  0  0  0  0
M  END
>  <MODEL>
9

>  <REMARK>
 VINA RESULT:      -3.7      5.116      8.240
  Name = 
  10 active torsions:
  status: ('A' for Active; 'I' for Inactive)
    1  A    between atoms: C_1  and  C_4
    2  A    between atoms: C_1  and  O_24
    3  A    between atoms: C_2  and  C_5
    4  A    between atoms: C_5  and  C_10
    5  A    between atoms: C_5  and  C_27
    6  A    between atoms: C_6  and  C_13
    7  A    between atoms: C_7  and  N_19
    8  A    between atoms: O_11  and  C_12
    9  A    between atoms: C_16  and  C_27
   10  A    between atoms: O_24  and  C_27
                            x       y       z     vdW  Elec       q    Type
                         _______ _______ _______ _____ _____    ______ ____

>  <TORSDO>
F 10

$$$$
