=
 OpenBabel10262420093D

 27 31  0  0  1  0  0  0  0  0999 V2000
  187.5150  178.5420  141.8630 N   0  0  0  0  0  2  0  0  0  0  0  0
  187.9480  177.5290  144.0150 C   0  0  0  0  0  0  0  0  0  0  0  0
  189.6110  176.4590  142.5010 N   0  0  0  0  0  2  0  0  0  0  0  0
  190.4540  176.9660  147.2830 C   0  0  0  0  0  3  0  0  0  0  0  0
  191.6890  176.3300  147.1350 C   0  0  0  0  0  0  0  0  0  0  0  0
  187.6150  177.9430  145.2710 N   0  0  0  0  0  0  0  0  0  0  0  0
  191.2740  176.0640  144.7620 C   0  0  0  0  0  3  0  0  0  0  0  0
  190.2630  177.2340  138.9310 C   0  0  0  0  0  0  0  0  0  0  0  0
  192.0990  175.8790  145.8750 C   0  0  0  0  0  3  0  0  0  0  0  0
  191.3460  176.6740  137.6760 Cl  0  0  0  0  0  0  0  0  0  0  0  0
  190.0310  176.7000  144.9020 C   0  0  0  0  0  0  0  0  0  0  0  0
  186.9740  177.6720  142.8880 C   0  0  1  0  0  3  0  0  0  0  0  0
  192.7250  176.0960  148.5250 Cl  0  0  0  0  0  0  0  0  0  0  0  0
  189.6260  177.1520  146.1730 C   0  0  0  0  0  0  0  0  0  0  0  0
  188.5210  178.1220  140.9420 C   0  0  0  0  0  0  0  0  0  0  0  0
  189.1900  176.9130  143.7980 C   0  0  0  0  0  0  0  0  0  0  0  0
  190.2730  176.6230  140.1850 C   0  0  0  0  0  3  0  0  0  0  0  0
  188.4270  177.7670  146.3130 N   0  0  0  0  0  0  0  0  0  0  0  0
  189.4100  178.3090  138.6890 C   0  0  0  0  0  3  0  0  0  0  0  0
  188.5420  178.7450  139.6880 C   0  0  0  0  0  3  0  0  0  0  0  0
  189.4200  177.0580  141.2080 C   0  0  0  0  0  0  0  0  0  0  0  0
  183.0440  178.9660  144.0690 C   0  0  0  0  0  3  0  0  0  0  0  0
  185.6120  178.1390  143.3130 C   0  0  0  0  0  0  0  0  0  0  0  0
  184.6090  178.2880  142.3500 C   0  0  0  0  0  3  0  0  0  0  0  0
  183.3280  178.7030  142.7260 C   0  0  0  0  0  3  0  0  0  0  0  0
  184.0410  178.8130  145.0380 C   0  0  0  0  0  3  0  0  0  0  0  0
  185.3220  178.3980  144.6630 C   0  0  0  0  0  3  0  0  0  0  0  0
  1 12  1  0  0  0  0
  2  6  1  0  0  0  0
  3 16  1  0  0  0  0
  5  4  1  0  0  0  0
  5 13  1  0  0  0  0
  6 18  2  0  0  0  0
  7 11  2  0  0  0  0
  7  9  1  0  0  0  0
  8 17  1  0  0  0  0
  9  5  2  0  0  0  0
 10  8  1  0  0  0  0
 11 14  1  0  0  0  0
 12 23  1  1  0  0  0
 12  2  1  0  0  0  0
 14 18  1  0  0  0  0
 14  4  2  0  0  0  0
 15 21  1  0  0  0  0
 15  1  1  0  0  0  0
 16  2  2  0  0  0  0
 16 11  1  0  0  0  0
 17 21  2  0  0  0  0
 19  8  2  0  0  0  0
 19 20  1  0  0  0  0
 20 15  2  0  0  0  0
 21  3  1  0  0  0  0
 22 26  1  0  0  0  0
 23 27  1  0  0  0  0
 24 25  1  0  0  0  0
 24 23  2  0  0  0  0
 25 22  2  0  0  0  0
 27 26  2  0  0  0  0
M  END
>  <MODEL>
1

>  <REMARK>
 VINA RESULT:     -11.3      0.000      0.000
  Name = 
  1 active torsions:
  status: ('A' for Active; 'I' for Inactive)
    1  A    between atoms: C_9  and  C_15
                            x       y       z     vdW  Elec       q    Type
                         _______ _______ _______ _____ _____    ______ ____

>  <TORSDO>
F 1

$$$$
=
 OpenBabel10262420093D

 27 31  0  0  1  0  0  0  0  0999 V2000
  186.7490  178.8190  140.3740 N   0  0  0  0  0  2  0  0  0  0  0  0
  186.0710  178.2190  142.6150 C   0  0  0  0  0  0  0  0  0  0  0  0
  188.2400  177.0340  142.3050 N   0  0  0  0  0  2  0  0  0  0  0  0
  186.6770  178.4010  146.7240 C   0  0  0  0  0  3  0  0  0  0  0  0
  187.8190  177.8410  147.3030 C   0  0  0  0  0  0  0  0  0  0  0  0
  185.1810  178.8130  143.4600 N   0  0  0  0  0  0  0  0  0  0  0  0
  188.5970  177.1500  145.1140 C   0  0  0  0  0  3  0  0  0  0  0  0
  190.5490  177.2410  139.4070 C   0  0  0  0  0  0  0  0  0  0  0  0
  188.7770  177.2160  146.4990 C   0  0  0  0  0  3  0  0  0  0  0  0
  192.0930  176.5580  138.9490 Cl  0  0  0  0  0  0  0  0  0  0  0  0
  187.4520  177.7070  144.5240 C   0  0  0  0  0  0  0  0  0  0  0  0
  185.7650  178.0970  141.1550 C   0  0  1  0  0  3  0  0  0  0  0  0
  188.0490  177.9220  149.0350 Cl  0  0  0  0  0  0  0  0  0  0  0  0
  186.4910  178.3360  145.3400 C   0  0  0  0  0  0  0  0  0  0  0  0
  188.0670  178.3250  140.1400 C   0  0  0  0  0  0  0  0  0  0  0  0
  187.2530  177.6680  143.1350 C   0  0  0  0  0  0  0  0  0  0  0  0
  189.9400  176.8530  140.6020 C   0  0  0  0  0  3  0  0  0  0  0  0
  185.3850  178.8760  144.7750 N   0  0  0  0  0  0  0  0  0  0  0  0
  189.9380  178.1940  138.5950 C   0  0  0  0  0  3  0  0  0  0  0  0
  188.7020  178.7280  138.9590 C   0  0  0  0  0  3  0  0  0  0  0  0
  188.7070  177.3900  140.9930 C   0  0  0  0  0  0  0  0  0  0  0  0
  181.7950  179.3180  140.0320 C   0  0  0  0  0  3  0  0  0  0  0  0
  184.3760  178.5280  140.7850 C   0  0  0  0  0  0  0  0  0  0  0  0
  184.1860  179.3150  139.6440 C   0  0  0  0  0  3  0  0  0  0  0  0
  182.8990  179.7110  139.2690 C   0  0  0  0  0  3  0  0  0  0  0  0
  181.9780  178.5260  141.1700 C   0  0  0  0  0  3  0  0  0  0  0  0
  183.2640  178.1290  141.5460 C   0  0  0  0  0  3  0  0  0  0  0  0
  1 12  1  0  0  0  0
  2 16  2  0  0  0  0
  2  6  1  0  0  0  0
  3 16  1  0  0  0  0
  4  5  1  0  0  0  0
  5 13  1  0  0  0  0
  6 18  2  0  0  0  0
  7  9  1  0  0  0  0
  8 17  1  0  0  0  0
  9  5  2  0  0  0  0
 10  8  1  0  0  0  0
 11  7  2  0  0  0  0
 11 14  1  0  0  0  0
 12 23  1  1  0  0  0
 12  2  1  0  0  0  0
 14  4  2  0  0  0  0
 15  1  1  0  0  0  0
 15 21  1  0  0  0  0
 16 11  1  0  0  0  0
 17 21  2  0  0  0  0
 18 14  1  0  0  0  0
 19 20  1  0  0  0  0
 19  8  2  0  0  0  0
 20 15  2  0  0  0  0
 21  3  1  0  0  0  0
 22 26  1  0  0  0  0
 23 27  1  0  0  0  0
 24 23  2  0  0  0  0
 25 24  1  0  0  0  0
 25 22  2  0  0  0  0
 26 27  2  0  0  0  0
M  END
>  <MODEL>
2

>  <REMARK>
 VINA RESULT:     -10.4      2.065      2.921
  Name = 
  1 active torsions:
  status: ('A' for Active; 'I' for Inactive)
    1  A    between atoms: C_9  and  C_15
                            x       y       z     vdW  Elec       q    Type
                         _______ _______ _______ _____ _____    ______ ____

>  <TORSDO>
F 1

$$$$
=
 OpenBabel10262420093D

 27 31  0  0  1  0  0  0  0  0999 V2000
  189.6470  176.6700  142.6580 N   0  0  0  0  0  2  0  0  0  0  0  0
  187.8540  177.7350  143.8820 C   0  0  0  0  0  0  0  0  0  0  0  0
  187.6410  178.6570  141.5780 N   0  0  0  0  0  2  0  0  0  0  0  0
  183.7880  178.2790  144.5520 C   0  0  0  0  0  3  0  0  0  0  0  0
  182.9710  178.8410  143.5680 C   0  0  0  0  0  0  0  0  0  0  0  0
  187.2530  177.3860  145.0550 N   0  0  0  0  0  0  0  0  0  0  0  0
  184.8800  179.0420  142.0890 C   0  0  0  0  0  3  0  0  0  0  0  0
  189.5930  177.7180  138.5650 C   0  0  0  0  0  0  0  0  0  0  0  0
  183.5160  179.2220  142.3380 C   0  0  0  0  0  3  0  0  0  0  0  0
  189.6390  178.1730  136.8760 Cl  0  0  0  0  0  0  0  0  0  0  0  0
  185.7090  178.4810  143.0720 C   0  0  0  0  0  0  0  0  0  0  0  0
  189.3360  177.6050  143.7210 C   0  0  1  0  0  3  0  0  0  0  0  0
  181.2630  179.0680  143.8740 Cl  0  0  0  0  0  0  0  0  0  0  0  0
  185.1520  178.0980  144.3080 C   0  0  0  0  0  0  0  0  0  0  0  0
  189.5250  177.0010  141.2760 C   0  0  0  0  0  0  0  0  0  0  0  0
  187.0780  178.2740  142.8440 C   0  0  0  0  0  0  0  0  0  0  0  0
  188.7270  178.3740  139.4410 C   0  0  0  0  0  3  0  0  0  0  0  0
  185.9480  177.5550  145.2600 N   0  0  0  0  0  0  0  0  0  0  0  0
  190.4010  176.6830  139.0320 C   0  0  0  0  0  3  0  0  0  0  0  0
  190.3690  176.3320  140.3810 C   0  0  0  0  0  3  0  0  0  0  0  0
  188.6670  178.0230  140.7950 C   0  0  0  0  0  0  0  0  0  0  0  0
  191.4550  176.5420  147.3120 C   0  0  0  0  0  3  0  0  0  0  0  0
  190.0560  177.2290  144.9840 C   0  0  0  0  0  0  0  0  0  0  0  0
  191.2370  176.4850  144.9010 C   0  0  0  0  0  3  0  0  0  0  0  0
  191.9350  176.1400  146.0620 C   0  0  0  0  0  3  0  0  0  0  0  0
  190.2780  177.2910  147.4010 C   0  0  0  0  0  3  0  0  0  0  0  0
  189.5800  177.6370  146.2410 C   0  0  0  0  0  3  0  0  0  0  0  0
  1 12  1  0  0  0  0
  2  6  1  0  0  0  0
  3 16  1  0  0  0  0
  5 13  1  0  0  0  0
  5  4  2  0  0  0  0
  6 18  2  0  0  0  0
  7  9  2  0  0  0  0
  7 11  1  0  0  0  0
  8 19  2  0  0  0  0
  8 17  1  0  0  0  0
  9  5  1  0  0  0  0
 10  8  1  0  0  0  0
 11 14  2  0  0  0  0
 12  2  1  0  0  0  0
 12 23  1  1  0  0  0
 14  4  1  0  0  0  0
 14 18  1  0  0  0  0
 15  1  1  0  0  0  0
 16 11  1  0  0  0  0
 16  2  2  0  0  0  0
 17 21  2  0  0  0  0
 19 20  1  0  0  0  0
 20 15  2  0  0  0  0
 21 15  1  0  0  0  0
 21  3  1  0  0  0  0
 22 26  1  0  0  0  0
 23 27  1  0  0  0  0
 24 23  2  0  0  0  0
 24 25  1  0  0  0  0
 25 22  2  0  0  0  0
 27 26  2  0  0  0  0
M  END
>  <MODEL>
3

>  <REMARK>
 VINA RESULT:     -10.3      2.471      5.799
  Name = 
  1 active torsions:
  status: ('A' for Active; 'I' for Inactive)
    1  A    between atoms: C_9  and  C_15
                            x       y       z     vdW  Elec       q    Type
                         _______ _______ _______ _____ _____    ______ ____

>  <TORSDO>
F 1

$$$$
=
 OpenBabel10262420093D

 27 31  0  0  1  0  0  0  0  0999 V2000
  189.6340  178.3400  141.5330 N   0  0  0  0  0  2  0  0  0  0  0  0
  187.2570  178.1260  141.1480 C   0  0  0  0  0  0  0  0  0  0  0  0
  187.5600  177.3440  143.4940 N   0  0  0  0  0  2  0  0  0  0  0  0
  183.3610  179.3170  141.9730 C   0  0  0  0  0  3  0  0  0  0  0  0
  182.8100  179.1290  143.2440 C   0  0  0  0  0  0  0  0  0  0  0  0
  186.4560  178.7070  140.2100 N   0  0  0  0  0  0  0  0  0  0  0  0
  184.8880  178.1390  144.0040 C   0  0  0  0  0  3  0  0  0  0  0  0
  190.6760  177.3550  145.5080 C   0  0  0  0  0  0  0  0  0  0  0  0
  183.5730  178.5410  144.2580 C   0  0  0  0  0  3  0  0  0  0  0  0
  191.1560  176.9000  147.1280 Cl  0  0  0  0  0  0  0  0  0  0  0  0
  185.4480  178.3210  142.7300 C   0  0  0  0  0  0  0  0  0  0  0  0
  188.6200  177.6300  140.7790 C   0  0  1  0  0  3  0  0  0  0  0  0
  181.1660  179.6310  143.5670 Cl  0  0  0  0  0  0  0  0  0  0  0  0
  184.6740  178.9160  141.7150 C   0  0  0  0  0  0  0  0  0  0  0  0
  189.9080  178.0710  142.9070 C   0  0  0  0  0  0  0  0  0  0  0  0
  186.7700  177.9410  142.4520 C   0  0  0  0  0  0  0  0  0  0  0  0
  189.3690  177.1260  145.0770 C   0  0  0  0  0  3  0  0  0  0  0  0
  185.2110  179.0940  140.4830 N   0  0  0  0  0  0  0  0  0  0  0  0
  191.5910  177.9700  144.6560 C   0  0  0  0  0  3  0  0  0  0  0  0
  191.2080  178.3210  143.3620 C   0  0  0  0  0  3  0  0  0  0  0  0
  188.9600  177.4880  143.7870 C   0  0  0  0  0  0  0  0  0  0  0  0
  189.4200  177.7600  136.5530 C   0  0  0  0  0  3  0  0  0  0  0  0
  188.9140  177.6930  139.3080 C   0  0  0  0  0  0  0  0  0  0  0  0
  189.0890  176.5020  138.5960 C   0  0  0  0  0  3  0  0  0  0  0  0
  189.3440  176.5350  137.2210 C   0  0  0  0  0  3  0  0  0  0  0  0
  189.2410  178.9540  137.2590 C   0  0  0  0  0  3  0  0  0  0  0  0
  188.9860  178.9220  138.6330 C   0  0  0  0  0  3  0  0  0  0  0  0
  1 15  1  0  0  0  0
  2 16  1  0  0  0  0
  3 21  1  0  0  0  0
  4  5  2  0  0  0  0
  5 13  1  0  0  0  0
  5  9  1  0  0  0  0
  6 18  1  0  0  0  0
  6  2  2  0  0  0  0
  7  9  2  0  0  0  0
  8 10  1  0  0  0  0
 11  7  1  0  0  0  0
 12 23  1  6  0  0  0
 12  2  1  0  0  0  0
 12  1  1  0  0  0  0
 14  4  1  0  0  0  0
 14 11  1  0  0  0  0
 15 20  2  0  0  0  0
 15 21  1  0  0  0  0
 16 11  2  0  0  0  0
 16  3  1  0  0  0  0
 17  8  1  0  0  0  0
 18 14  2  0  0  0  0
 19  8  2  0  0  0  0
 20 19  1  0  0  0  0
 21 17  2  0  0  0  0
 22 25  2  0  0  0  0
 22 26  1  0  0  0  0
 24 23  2  0  0  0  0
 25 24  1  0  0  0  0
 26 27  2  0  0  0  0
 27 23  1  0  0  0  0
M  END
>  <MODEL>
4

>  <REMARK>
 VINA RESULT:     -10.1      2.775      6.868
  Name = 
  1 active torsions:
  status: ('A' for Active; 'I' for Inactive)
    1  A    between atoms: C_9  and  C_15
                            x       y       z     vdW  Elec       q    Type
                         _______ _______ _______ _____ _____    ______ ____

>  <TORSDO>
F 1

$$$$
=
 OpenBabel10262420093D

 27 31  0  0  1  0  0  0  0  0999 V2000
  190.0000  177.9780  142.8180 N   0  0  0  0  0  2  0  0  0  0  0  0
  188.2260  177.7580  141.1900 C   0  0  0  0  0  0  0  0  0  0  0  0
  187.1040  177.3040  143.3670 N   0  0  0  0  0  2  0  0  0  0  0  0
  184.6570  179.1280  139.5570 C   0  0  0  0  0  3  0  0  0  0  0  0
  183.4800  179.1290  140.3110 C   0  0  0  0  0  0  0  0  0  0  0  0
  188.1370  178.2190  139.9100 N   0  0  0  0  0  0  0  0  0  0  0  0
  184.6850  178.2130  142.2030 C   0  0  0  0  0  3  0  0  0  0  0  0
  188.5680  177.5330  146.7690 C   0  0  0  0  0  0  0  0  0  0  0  0
  183.4950  178.6720  141.6320 C   0  0  0  0  0  3  0  0  0  0  0  0
  188.0250  177.2980  148.4160 Cl  0  0  0  0  0  0  0  0  0  0  0  0
  185.8720  178.2060  141.4530 C   0  0  0  0  0  0  0  0  0  0  0  0
  189.5120  177.1900  141.7040 C   0  0  1  0  0  3  0  0  0  0  0  0
  181.9880  179.7020  139.6000 Cl  0  0  0  0  0  0  0  0  0  0  0  0
  185.8490  178.6690  140.1230 C   0  0  0  0  0  0  0  0  0  0  0  0
  189.4400  177.8970  144.1280 C   0  0  0  0  0  0  0  0  0  0  0  0
  187.0840  177.7660  142.0070 C   0  0  0  0  0  0  0  0  0  0  0  0
  187.7040  177.2730  145.7050 C   0  0  0  0  0  3  0  0  0  0  0  0
  186.9920  178.6650  139.3950 N   0  0  0  0  0  0  0  0  0  0  0  0
  189.8550  178.0060  146.5200 C   0  0  0  0  0  3  0  0  0  0  0  0
  190.2870  178.1820  145.2060 C   0  0  0  0  0  3  0  0  0  0  0  0
  188.1140  177.4600  144.3790 C   0  0  0  0  0  0  0  0  0  0  0  0
  192.6020  176.7490  138.7430 C   0  0  0  0  0  3  0  0  0  0  0  0
  190.5750  177.0420  140.6550 C   0  0  0  0  0  0  0  0  0  0  0  0
  191.8610  177.5290  140.9130 C   0  0  0  0  0  3  0  0  0  0  0  0
  192.8730  177.3850  139.9580 C   0  0  0  0  0  3  0  0  0  0  0  0
  191.3210  176.2550  138.4820 C   0  0  0  0  0  3  0  0  0  0  0  0
  190.3090  176.3980  139.4360 C   0  0  0  0  0  3  0  0  0  0  0  0
  1 15  1  0  0  0  0
  2 12  1  0  0  0  0
  2 16  1  0  0  0  0
  3 21  1  0  0  0  0
  4 14  1  0  0  0  0
  4  5  2  0  0  0  0
  5  9  1  0  0  0  0
  6  2  2  0  0  0  0
  8 10  1  0  0  0  0
  9  7  2  0  0  0  0
 11 16  2  0  0  0  0
 11  7  1  0  0  0  0
 12 23  1  6  0  0  0
 12  1  1  0  0  0  0
 13  5  1  0  0  0  0
 14 11  1  0  0  0  0
 15 21  2  0  0  0  0
 15 20  1  0  0  0  0
 16  3  1  0  0  0  0
 17  8  2  0  0  0  0
 18  6  1  0  0  0  0
 18 14  2  0  0  0  0
 19  8  1  0  0  0  0
 20 19  2  0  0  0  0
 21 17  1  0  0  0  0
 22 25  1  0  0  0  0
 23 24  1  0  0  0  0
 25 24  2  0  0  0  0
 26 22  2  0  0  0  0
 26 27  1  0  0  0  0
 27 23  2  0  0  0  0
M  END
>  <MODEL>
5

>  <REMARK>
 VINA RESULT:      -9.9      2.784      7.711
  Name = 
  1 active torsions:
  status: ('A' for Active; 'I' for Inactive)
    1  A    between atoms: C_9  and  C_15
                            x       y       z     vdW  Elec       q    Type
                         _______ _______ _______ _____ _____    ______ ____

>  <TORSDO>
F 1

$$$$
=
 OpenBabel10262420093D

 27 31  0  0  1  0  0  0  0  0999 V2000
  188.2870  177.0140  143.3590 N   0  0  0  0  0  2  0  0  0  0  0  0
  186.1930  178.2220  143.3810 C   0  0  0  0  0  0  0  0  0  0  0  0
  187.1230  178.6720  141.1140 N   0  0  0  0  0  2  0  0  0  0  0  0
  182.3160  178.7200  141.9660 C   0  0  0  0  0  3  0  0  0  0  0  0
  182.0800  179.0480  140.6280 C   0  0  0  0  0  0  0  0  0  0  0  0
  185.0980  178.0820  144.1820 N   0  0  0  0  0  0  0  0  0  0  0  0
  184.4650  179.0370  140.1990 C   0  0  0  0  0  3  0  0  0  0  0  0
  190.1950  177.2500  139.5950 C   0  0  0  0  0  0  0  0  0  0  0  0
  183.1540  179.2060  139.7460 C   0  0  0  0  0  3  0  0  0  0  0  0
  191.0440  177.3710  138.0700 Cl  0  0  0  0  0  0  0  0  0  0  0  0
  184.7120  178.7100  141.5420 C   0  0  0  0  0  0  0  0  0  0  0  0
  187.5710  178.1240  143.9560 C   0  0  1  0  0  3  0  0  0  0  0  0
  180.4410  179.2600  140.0560 Cl  0  0  0  0  0  0  0  0  0  0  0  0
  183.6250  178.5510  142.4240 C   0  0  0  0  0  0  0  0  0  0  0  0
  188.8390  177.0670  142.0440 C   0  0  0  0  0  0  0  0  0  0  0  0
  186.0180  178.5190  142.0200 C   0  0  0  0  0  0  0  0  0  0  0  0
  189.0590  178.0260  139.8250 C   0  0  0  0  0  3  0  0  0  0  0  0
  183.8580  178.2340  143.7200 N   0  0  0  0  0  0  0  0  0  0  0  0
  190.6370  176.3580  140.5710 C   0  0  0  0  0  3  0  0  0  0  0  0
  189.9630  176.2730  141.7890 C   0  0  0  0  0  3  0  0  0  0  0  0
  188.3590  177.9420  141.0360 C   0  0  0  0  0  0  0  0  0  0  0  0
  187.7210  177.8640  148.2480 C   0  0  0  0  0  3  0  0  0  0  0  0
  187.6010  178.0280  145.4540 C   0  0  0  0  0  0  0  0  0  0  0  0
  188.6760  177.3840  146.0750 C   0  0  0  0  0  3  0  0  0  0  0  0
  188.7350  177.3000  147.4700 C   0  0  0  0  0  3  0  0  0  0  0  0
  186.6470  178.5140  147.6330 C   0  0  0  0  0  3  0  0  0  0  0  0
  186.5870  178.5990  146.2390 C   0  0  0  0  0  3  0  0  0  0  0  0
  1 12  1  0  0  0  0
  2 12  1  0  0  0  0
  2  6  1  0  0  0  0
  3 16  1  0  0  0  0
  4 14  1  0  0  0  0
  5  4  2  0  0  0  0
  7 11  1  0  0  0  0
  8 17  2  0  0  0  0
  8 19  1  0  0  0  0
  9  7  2  0  0  0  0
  9  5  1  0  0  0  0
 10  8  1  0  0  0  0
 11 16  1  0  0  0  0
 11 14  2  0  0  0  0
 12 23  1  1  0  0  0
 13  5  1  0  0  0  0
 14 18  1  0  0  0  0
 15  1  1  0  0  0  0
 16  2  2  0  0  0  0
 17 21  1  0  0  0  0
 18  6  2  0  0  0  0
 19 20  2  0  0  0  0
 20 15  1  0  0  0  0
 21  3  1  0  0  0  0
 21 15  2  0  0  0  0
 23 24  2  0  0  0  0
 23 27  1  0  0  0  0
 24 25  1  0  0  0  0
 25 22  2  0  0  0  0
 26 22  1  0  0  0  0
 27 26  2  0  0  0  0
M  END
>  <MODEL>
6

>  <REMARK>
 VINA RESULT:      -9.7      2.846      6.176
  Name = 
  1 active torsions:
  status: ('A' for Active; 'I' for Inactive)
    1  A    between atoms: C_9  and  C_15
                            x       y       z     vdW  Elec       q    Type
                         _______ _______ _______ _____ _____    ______ ____

>  <TORSDO>
F 1

$$$$
=
 OpenBabel10262420093D

 27 31  0  0  1  0  0  0  0  0999 V2000
  184.2030  177.9180  140.8840 N   0  0  0  0  0  2  0  0  0  0  0  0
  186.0200  178.3220  142.4270 C   0  0  0  0  0  0  0  0  0  0  0  0
  184.0250  179.2520  143.5910 N   0  0  0  0  0  2  0  0  0  0  0  0
  187.8800  177.5660  146.0660 C   0  0  0  0  0  3  0  0  0  0  0  0
  187.2570  177.9020  147.2710 C   0  0  0  0  0  0  0  0  0  0  0  0
  187.2530  177.7470  142.5120 N   0  0  0  0  0  0  0  0  0  0  0  0
  185.3430  178.7510  146.0490 C   0  0  0  0  0  3  0  0  0  0  0  0
  180.4820  179.1090  142.4960 C   0  0  0  0  0  0  0  0  0  0  0  0
  185.9900  178.4940  147.2620 C   0  0  0  0  0  3  0  0  0  0  0  0
  178.9310  179.6430  143.1050 Cl  0  0  0  0  0  0  0  0  0  0  0  0
  185.9630  178.4190  144.8340 C   0  0  0  0  0  0  0  0  0  0  0  0
  185.4310  178.6580  141.0920 C   0  0  1  0  0  3  0  0  0  0  0  0
  188.0610  177.5820  148.7910 Cl  0  0  0  0  0  0  0  0  0  0  0  0
  187.2390  177.8220  144.8520 C   0  0  0  0  0  0  0  0  0  0  0  0
  182.9720  178.2670  141.5160 C   0  0  0  0  0  0  0  0  0  0  0  0
  185.3300  178.6520  143.6040 C   0  0  0  0  0  0  0  0  0  0  0  0
  181.6510  179.4240  143.1910 C   0  0  0  0  0  3  0  0  0  0  0  0
  187.8400  177.4990  143.6820 N   0  0  0  0  0  0  0  0  0  0  0  0
  180.5510  178.3470  141.3310 C   0  0  0  0  0  3  0  0  0  0  0  0
  181.7900  177.9340  140.8440 C   0  0  0  0  0  3  0  0  0  0  0  0
  182.9030  179.0030  142.7270 C   0  0  0  0  0  0  0  0  0  0  0  0
  188.0940  178.1150  137.7570 C   0  0  0  0  0  3  0  0  0  0  0  0
  186.3730  178.4550  139.9410 C   0  0  0  0  0  0  0  0  0  0  0  0
  185.8510  178.2720  138.6560 C   0  0  0  0  0  3  0  0  0  0  0  0
  186.7100  178.1000  137.5660 C   0  0  0  0  0  3  0  0  0  0  0  0
  188.6220  178.3030  139.0380 C   0  0  0  0  0  3  0  0  0  0  0  0
  187.7650  178.4750  140.1280 C   0  0  0  0  0  3  0  0  0  0  0  0
  1 12  1  0  0  0  0
  1 15  1  0  0  0  0
  2  6  2  0  0  0  0
  2 16  1  0  0  0  0
  3 16  1  0  0  0  0
  4  5  2  0  0  0  0
  5 13  1  0  0  0  0
  6 18  1  0  0  0  0
  7  9  2  0  0  0  0
  8 10  1  0  0  0  0
  8 17  1  0  0  0  0
  9  5  1  0  0  0  0
 11 14  1  0  0  0  0
 11  7  1  0  0  0  0
 12 23  1  6  0  0  0
 12  2  1  0  0  0  0
 14  4  1  0  0  0  0
 15 21  1  0  0  0  0
 16 11  2  0  0  0  0
 18 14  2  0  0  0  0
 19  8  2  0  0  0  0
 20 19  1  0  0  0  0
 20 15  2  0  0  0  0
 21 17  2  0  0  0  0
 21  3  1  0  0  0  0
 22 26  1  0  0  0  0
 23 27  1  0  0  0  0
 24 23  2  0  0  0  0
 25 22  2  0  0  0  0
 25 24  1  0  0  0  0
 26 27  2  0  0  0  0
M  END
>  <MODEL>
7

>  <REMARK>
 VINA RESULT:      -9.6      3.491      6.369
  Name = 
  1 active torsions:
  status: ('A' for Active; 'I' for Inactive)
    1  A    between atoms: C_9  and  C_15
                            x       y       z     vdW  Elec       q    Type
                         _______ _______ _______ _____ _____    ______ ____

>  <TORSDO>
F 1

$$$$
=
 OpenBabel10262420093D

 27 31  0  0  1  0  0  0  0  0999 V2000
  186.7830  177.5010  143.2570 N   0  0  0  0  0  2  0  0  0  0  0  0
  188.0090  177.8950  141.2100 C   0  0  0  0  0  0  0  0  0  0  0  0
  189.7030  178.2430  143.0030 N   0  0  0  0  0  2  0  0  0  0  0  0
  190.9760  176.7700  138.5260 C   0  0  0  0  0  3  0  0  0  0  0  0
  192.3200  176.7610  138.9090 C   0  0  0  0  0  0  0  0  0  0  0  0
  187.7320  177.5240  139.9280 N   0  0  0  0  0  0  0  0  0  0  0  0
  191.6970  177.5030  141.1310 C   0  0  0  0  0  3  0  0  0  0  0  0
  189.2850  177.7330  146.6550 C   0  0  0  0  0  0  0  0  0  0  0  0
  192.6800  177.1270  140.2100 C   0  0  0  0  0  3  0  0  0  0  0  0
  190.2770  177.8770  148.0900 Cl  0  0  0  0  0  0  0  0  0  0  0  0
  190.3450  177.5170  140.7540 C   0  0  0  0  0  0  0  0  0  0  0  0
  186.9160  178.3800  142.1120 C   0  0  1  0  0  3  0  0  0  0  0  0
  193.5530  176.2920  137.7600 Cl  0  0  0  0  0  0  0  0  0  0  0  0
  189.9910  177.1450  139.4430 C   0  0  0  0  0  0  0  0  0  0  0  0
  187.6950  177.5150  144.3540 C   0  0  0  0  0  0  0  0  0  0  0  0
  189.3370  177.8740  141.6630 C   0  0  0  0  0  0  0  0  0  0  0  0
  189.8020  178.0960  145.4100 C   0  0  0  0  0  3  0  0  0  0  0  0
  188.6870  177.1560  139.0750 N   0  0  0  0  0  0  0  0  0  0  0  0
  187.9890  177.2310  146.7490 C   0  0  0  0  0  3  0  0  0  0  0  0
  187.1990  177.1280  145.6050 C   0  0  0  0  0  3  0  0  0  0  0  0
  189.0300  177.9830  144.2470 C   0  0  0  0  0  0  0  0  0  0  0  0
  183.1010  178.9210  140.1970 C   0  0  0  0  0  3  0  0  0  0  0  0
  185.5930  178.5580  141.4250 C   0  0  0  0  0  0  0  0  0  0  0  0
  184.4160  178.3060  142.1360 C   0  0  0  0  0  3  0  0  0  0  0  0
  183.1710  178.4850  141.5230 C   0  0  0  0  0  3  0  0  0  0  0  0
  184.2750  179.1810  139.4830 C   0  0  0  0  0  3  0  0  0  0  0  0
  185.5190  179.0030  140.0950 C   0  0  0  0  0  3  0  0  0  0  0  0
  1 15  1  0  0  0  0
  2 16  1  0  0  0  0
  2 12  1  0  0  0  0
  3 21  1  0  0  0  0
  4  5  2  0  0  0  0
  4 14  1  0  0  0  0
  5  9  1  0  0  0  0
  6  2  2  0  0  0  0
  8 19  1  0  0  0  0
  8 10  1  0  0  0  0
  9  7  2  0  0  0  0
 11  7  1  0  0  0  0
 11 16  2  0  0  0  0
 12 23  1  6  0  0  0
 12  1  1  0  0  0  0
 13  5  1  0  0  0  0
 14 11  1  0  0  0  0
 15 20  1  0  0  0  0
 16  3  1  0  0  0  0
 17  8  2  0  0  0  0
 18 14  2  0  0  0  0
 18  6  1  0  0  0  0
 20 19  2  0  0  0  0
 21 15  2  0  0  0  0
 21 17  1  0  0  0  0
 22 25  1  0  0  0  0
 23 24  1  0  0  0  0
 25 24  2  0  0  0  0
 26 27  1  0  0  0  0
 26 22  2  0  0  0  0
 27 23  2  0  0  0  0
M  END
>  <MODEL>
8

>  <REMARK>
 VINA RESULT:      -9.2      1.971      5.717
  Name = 
  1 active torsions:
  status: ('A' for Active; 'I' for Inactive)
    1  A    between atoms: C_9  and  C_15
                            x       y       z     vdW  Elec       q    Type
                         _______ _______ _______ _____ _____    ______ ____

>  <TORSDO>
F 1

$$$$
=
 OpenBabel10262420093D

 27 31  0  0  1  0  0  0  0  0999 V2000
  187.9700  178.2140  145.1170 N   0  0  0  0  0  2  0  0  0  0  0  0
  189.0550  177.4050  143.1140 C   0  0  0  0  0  0  0  0  0  0  0  0
  186.6440  177.5030  142.4950 N   0  0  0  0  0  2  0  0  0  0  0  0
  190.1690  177.9750  139.1500 C   0  0  0  0  0  3  0  0  0  0  0  0
  189.2030  178.1000  138.1470 C   0  0  0  0  0  0  0  0  0  0  0  0
  190.3590  177.4750  142.7240 N   0  0  0  0  0  0  0  0  0  0  0  0
  187.4470  177.8560  139.8000 C   0  0  0  0  0  3  0  0  0  0  0  0
  183.8260  178.8010  144.5300 C   0  0  0  0  0  0  0  0  0  0  0  0
  187.8440  178.0400  138.4720 C   0  0  0  0  0  3  0  0  0  0  0  0
  182.0980  179.0030  144.3440 Cl  0  0  0  0  0  0  0  0  0  0  0  0
  188.4100  177.7270  140.8130 C   0  0  0  0  0  0  0  0  0  0  0  0
  188.7040  177.1070  144.5380 C   0  0  1  0  0  3  0  0  0  0  0  0
  189.6950  178.3310  136.4840 Cl  0  0  0  0  0  0  0  0  0  0  0  0
  189.7770  177.7890  140.4780 C   0  0  0  0  0  0  0  0  0  0  0  0
  186.5940  178.4660  144.8310 C   0  0  0  0  0  0  0  0  0  0  0  0
  188.0400  177.5570  142.1560 C   0  0  0  0  0  0  0  0  0  0  0  0
  184.5690  178.1840  143.5230 C   0  0  0  0  0  3  0  0  0  0  0  0
  190.7100  177.6660  141.4530 N   0  0  0  0  0  0  0  0  0  0  0  0
  184.4660  179.2810  145.6710 C   0  0  0  0  0  3  0  0  0  0  0  0
  185.8410  179.1090  145.8200 C   0  0  0  0  0  3  0  0  0  0  0  0
  185.9540  178.0170  143.6470 C   0  0  0  0  0  0  0  0  0  0  0  0
  192.0450  176.0630  147.0400 C   0  0  0  0  0  3  0  0  0  0  0  0
  189.8840  176.7490  145.3940 C   0  0  0  0  0  0  0  0  0  0  0  0
  189.8770  177.1010  146.7480 C   0  0  0  0  0  3  0  0  0  0  0  0
  190.9560  176.7610  147.5690 C   0  0  0  0  0  3  0  0  0  0  0  0
  192.0550  175.7030  145.6890 C   0  0  0  0  0  3  0  0  0  0  0  0
  190.9770  176.0420  144.8670 C   0  0  0  0  0  3  0  0  0  0  0  0
  2 12  1  0  0  0  0
  3 21  1  0  0  0  0
  4 14  1  0  0  0  0
  5  9  1  0  0  0  0
  5  4  2  0  0  0  0
  6  2  1  0  0  0  0
  7 11  1  0  0  0  0
  8 19  1  0  0  0  0
  9  7  2  0  0  0  0
 10  8  1  0  0  0  0
 11 16  1  0  0  0  0
 12  1  1  0  0  0  0
 12 23  1  1  0  0  0
 13  5  1  0  0  0  0
 14 11  2  0  0  0  0
 14 18  1  0  0  0  0
 15  1  1  0  0  0  0
 15 20  1  0  0  0  0
 16  3  1  0  0  0  0
 16  2  2  0  0  0  0
 17 21  1  0  0  0  0
 17  8  2  0  0  0  0
 18  6  2  0  0  0  0
 19 20  2  0  0  0  0
 21 15  2  0  0  0  0
 22 25  1  0  0  0  0
 23 24  1  0  0  0  0
 24 25  2  0  0  0  0
 26 22  2  0  0  0  0
 27 23  2  0  0  0  0
 27 26  1  0  0  0  0
M  END
>  <MODEL>
9

>  <REMARK>
 VINA RESULT:      -9.1      2.505      7.067
  Name = 
  1 active torsions:
  status: ('A' for Active; 'I' for Inactive)
    1  A    between atoms: C_9  and  C_15
                            x       y       z     vdW  Elec       q    Type
                         _______ _______ _______ _____ _____    ______ ____

>  <TORSDO>
F 1

$$$$
