=
 OpenBabel10262423163D

 34 36  0  0  1  0  0  0  0  0999 V2000
  184.9480  178.5620  138.2990 C   0  0  0  0  0  2  0  0  0  0  0  0
  185.1670  178.8860  140.7800 C   0  0  0  0  0  0  0  0  0  0  0  0
  182.5090  178.4110  143.4860 C   0  0  0  0  0  2  0  0  0  0  0  0
  182.5180  177.8830  141.0500 C   0  0  0  0  0  3  0  0  0  0  0  0
  186.3090  179.3980  140.6180 O   0  0  0  0  0  0  0  0  0  0  0  0
  183.1280  177.7800  139.8650 C   0  0  0  0  0  0  0  0  0  0  0  0
  184.4100  178.4130  139.6500 N   0  0  0  0  0  0  0  0  0  0  0  0
  183.0420  179.3860  144.5380 C   0  0  0  0  0  2  0  0  0  0  0  0
  184.5750  179.4100  144.5760 C   0  0  2  0  0  3  0  0  0  0  0  0
  183.0890  178.7610  142.1220 C   0  0  2  0  0  3  0  0  0  0  0  0
  185.1590  179.6740  143.1800 C   0  0  0  0  0  2  0  0  0  0  0  0
  184.6170  178.6670  142.1620 C   0  0  2  0  0  3  0  0  0  0  0  0
  181.8360  175.7230  139.4360 C   0  0  0  0  0  1  0  0  0  0  0  0
  182.5040  176.9300  138.8070 C   0  0  0  0  0  2  0  0  0  0  0  0
  185.1210  178.1230  145.1870 C   0  0  0  0  0  2  0  0  0  0  0  0
  185.7090  179.5140  147.1710 O   0  0  0  0  0  1  0  0  0  0  0  0
  186.9800  177.6890  146.6140 O   0  0  0  0  0  0  0  0  0  0  0  0
  185.9850  178.4180  146.3650 C   0  0  0  0  0  0  0  0  0  0  0  0
  185.9060  177.4230  137.9770 C   0  0  0  0  0  2  0  0  0  0  0  0
  187.7490  174.3720  136.8550 O   0  0  0  0  0  0  0  0  0  0  0  0
  189.2830  178.3920  137.3450 C   0  0  0  0  0  2  0  0  0  0  0  0
  186.8110  177.7710  136.7990 C   0  0  2  0  0  3  0  0  0  0  0  0
  189.4000  175.8810  137.6400 C   0  0  0  0  0  2  0  0  0  0  0  0
  187.3850  176.5670  136.2050 N   0  0  0  0  0  2  0  0  0  0  0  0
  189.4650  177.2410  138.3330 C   0  0  2  0  0  3  0  0  0  0  0  0
  187.8370  178.8550  137.1520 C   0  0  0  0  0  2  0  0  0  0  0  0
  188.1140  175.5730  136.9330 C   0  0  0  0  0  0  0  0  0  0  0  0
  188.6120  177.3570  139.5960 C   0  0  0  0  0  2  0  0  0  0  0  0
  189.4500  177.7350  140.8110 C   0  0  0  0  0  2  0  0  0  0  0  0
  189.0920  176.8720  142.0180 C   0  0  2  0  0  3  0  0  0  0  0  0
  188.1190  177.6020  142.9290 C   0  0  0  0  0  1  0  0  0  0  0  0
  190.4070  175.0630  142.9200 O   0  0  0  0  0  1  0  0  0  0  0  0
  190.3330  176.4530  142.7990 C   0  0  0  0  0  3  0  0  0  0  0  0
  190.3240  177.0360  144.0670 O   0  0  0  0  0  1  0  0  0  0  0  0
  1  7  1  0  0  0  0
  2 12  1  0  0  0  0
  3  8  1  0  0  0  0
  5  2  2  0  0  0  0
  6  4  2  0  0  0  0
  7  6  1  0  0  0  0
  7  2  1  0  0  0  0
  8  9  1  0  0  0  0
  9 15  1  6  0  0  0
 10  4  1  6  0  0  0
 10 12  1  0  0  0  0
 10  3  1  0  0  0  0
 11  9  1  0  0  0  0
 12 11  1  1  0  0  0
 14 13  1  0  0  0  0
 14  6  1  0  0  0  0
 15 18  1  0  0  0  0
 18 17  2  0  0  0  0
 18 16  1  0  0  0  0
 19  1  1  0  0  0  0
 20 27  2  0  0  0  0
 21 25  1  0  0  0  0
 22 26  1  0  0  0  0
 22 19  1  1  0  0  0
 23 25  1  0  0  0  0
 24 22  1  0  0  0  0
 24 27  1  0  0  0  0
 25 28  1  1  0  0  0
 26 21  1  0  0  0  0
 27 23  1  0  0  0  0
 28 29  1  0  0  0  0
 29 30  1  0  0  0  0
 30 33  1  0  0  0  0
 30 31  1  1  0  0  0
 33 32  1  0  0  0  0
 33 34  1  0  0  0  0
M  END
>  <MODEL>
1

>  <REMARK>
 VINA RESULT:      -7.2      0.000      0.000
  Name = 
  10 active torsions:
  status: ('A' for Active; 'I' for Inactive)
    1  A    between atoms: C_7  and  C_15
    2  A    between atoms: C_7  and  C_29
    3  A    between atoms: C_8  and  C_17
    4  A    between atoms: C_10  and  C_17
    5  A    between atoms: C_10  and  N_20
    6  A    between atoms: C_19  and  C_22
    7  A    between atoms: C_24  and  C_25
    8  A    between atoms: C_25  and  C_27
    9  A    between atoms: C_26  and  C_28
   10  A    between atoms: C_26  and  C_29
                            x       y       z     vdW  Elec       q    Type
                         _______ _______ _______ _____ _____    ______ ____

>  <TORSDO>
F 10

$$$$
=
 OpenBabel10262423163D

 34 36  0  0  1  0  0  0  0  0999 V2000
  188.7810  178.2270  139.0310 C   0  0  0  0  0  2  0  0  0  0  0  0
  187.3220  178.3860  141.0690 C   0  0  0  0  0  0  0  0  0  0  0  0
  187.9610  176.9890  144.5690 C   0  0  0  0  0  2  0  0  0  0  0  0
  189.4090  177.1370  142.5460 C   0  0  0  0  0  3  0  0  0  0  0  0
  186.3880  178.8660  140.3700 O   0  0  0  0  0  0  0  0  0  0  0  0
  189.6600  177.5520  141.2990 C   0  0  0  0  0  0  0  0  0  0  0  0
  188.5870  178.0490  140.4690 N   0  0  0  0  0  0  0  0  0  0  0  0
  186.5150  176.8160  145.0410 C   0  0  0  0  0  2  0  0  0  0  0  0
  185.6020  177.9300  144.5140 C   0  0  2  0  0  3  0  0  0  0  0  0
  188.0000  177.0600  143.0490 C   0  0  2  0  0  3  0  0  0  0  0  0
  185.7110  178.0590  142.9870 C   0  0  0  0  0  2  0  0  0  0  0  0
  187.1680  178.2490  142.5580 C   0  0  2  0  0  3  0  0  0  0  0  0
  192.0240  177.4070  141.9930 C   0  0  0  0  0  1  0  0  0  0  0  0
  191.0760  177.5730  140.8210 C   0  0  0  0  0  2  0  0  0  0  0  0
  185.8970  179.2500  145.2200 C   0  0  0  0  0  2  0  0  0  0  0  0
  184.3950  178.4180  147.0280 O   0  0  0  0  0  0  0  0  0  0  0  0
  186.1040  179.8670  147.5130 O   0  0  0  0  0  1  0  0  0  0  0  0
  185.4830  179.1920  146.6510 C   0  0  0  0  0  0  0  0  0  0  0  0
  188.5320  176.9180  138.2930 C   0  0  0  0  0  2  0  0  0  0  0  0
  187.7190  173.5810  136.8230 O   0  0  0  0  0  0  0  0  0  0  0  0
  188.1900  177.3630  134.7670 C   0  0  0  0  0  2  0  0  0  0  0  0
  187.4340  177.0710  137.2440 C   0  0  2  0  0  3  0  0  0  0  0  0
  188.5980  174.8810  135.0460 C   0  0  0  0  0  2  0  0  0  0  0  0
  186.9480  175.7660  136.8020 N   0  0  0  0  0  2  0  0  0  0  0  0
  189.2370  176.2530  134.8450 C   0  0  2  0  0  3  0  0  0  0  0  0
  187.8400  178.0150  136.1060 C   0  0  0  0  0  2  0  0  0  0  0  0
  187.7820  174.7200  136.2940 C   0  0  0  0  0  0  0  0  0  0  0  0
  190.4070  176.5570  135.7820 C   0  0  0  0  0  2  0  0  0  0  0  0
  191.6730  175.8220  135.3630 C   0  0  0  0  0  2  0  0  0  0  0  0
  192.4710  175.3600  136.5800 C   0  0  2  0  0  3  0  0  0  0  0  0
  191.5450  174.8040  137.6480 C   0  0  0  0  0  1  0  0  0  0  0  0
  194.4580  176.7120  136.3690 O   0  0  0  0  0  1  0  0  0  0  0  0
  193.3240  176.4870  137.1540 C   0  0  0  0  0  3  0  0  0  0  0  0
  193.7100  176.1810  138.4600 O   0  0  0  0  0  1  0  0  0  0  0  0
  1  7  1  0  0  0  0
  2 12  1  0  0  0  0
  3  8  1  0  0  0  0
  5  2  2  0  0  0  0
  6  4  2  0  0  0  0
  7  2  1  0  0  0  0
  7  6  1  0  0  0  0
  9  8  1  0  0  0  0
  9 15  1  1  0  0  0
 10  4  1  1  0  0  0
 10  3  1  0  0  0  0
 11  9  1  0  0  0  0
 12 11  1  6  0  0  0
 12 10  1  0  0  0  0
 14  6  1  0  0  0  0
 14 13  1  0  0  0  0
 15 18  1  0  0  0  0
 18 16  2  0  0  0  0
 18 17  1  0  0  0  0
 19  1  1  0  0  0  0
 21 25  1  0  0  0  0
 21 26  1  0  0  0  0
 22 19  1  1  0  0  0
 23 27  1  0  0  0  0
 24 22  1  0  0  0  0
 25 23  1  0  0  0  0
 25 28  1  1  0  0  0
 26 22  1  0  0  0  0
 27 24  1  0  0  0  0
 27 20  2  0  0  0  0
 29 28  1  0  0  0  0
 29 30  1  0  0  0  0
 30 33  1  0  0  0  0
 30 31  1  1  0  0  0
 32 33  1  0  0  0  0
 33 34  1  0  0  0  0
M  END
>  <MODEL>
2

>  <REMARK>
 VINA RESULT:      -7.1      2.712      4.751
  Name = 
  10 active torsions:
  status: ('A' for Active; 'I' for Inactive)
    1  A    between atoms: C_7  and  C_15
    2  A    between atoms: C_7  and  C_29
    3  A    between atoms: C_8  and  C_17
    4  A    between atoms: C_10  and  C_17
    5  A    between atoms: C_10  and  N_20
    6  A    between atoms: C_19  and  C_22
    7  A    between atoms: C_24  and  C_25
    8  A    between atoms: C_25  and  C_27
    9  A    between atoms: C_26  and  C_28
   10  A    between atoms: C_26  and  C_29
                            x       y       z     vdW  Elec       q    Type
                         _______ _______ _______ _____ _____    ______ ____

>  <TORSDO>
F 10

$$$$
=
 OpenBabel10262423163D

 34 36  0  0  1  0  0  0  0  0999 V2000
  187.7150  178.6500  141.0080 C   0  0  0  0  0  2  0  0  0  0  0  0
  188.9910  178.1160  143.1030 C   0  0  0  0  0  0  0  0  0  0  0  0
  187.6390  177.5450  146.6330 C   0  0  0  0  0  2  0  0  0  0  0  0
  186.4950  177.8190  144.4360 C   0  0  0  0  0  3  0  0  0  0  0  0
  190.0790  178.3310  142.5020 O   0  0  0  0  0  0  0  0  0  0  0  0
  186.5050  177.9320  143.1030 C   0  0  0  0  0  0  0  0  0  0  0  0
  187.7350  178.2360  142.4090 N   0  0  0  0  0  0  0  0  0  0  0  0
  188.8670  177.9670  147.4450 C   0  0  0  0  0  2  0  0  0  0  0  0
  190.1770  177.5700  146.7540 C   0  0  2  0  0  3  0  0  0  0  0  0
  187.7240  178.1350  145.2320 C   0  0  2  0  0  3  0  0  0  0  0  0
  190.2210  178.0910  145.3100 C   0  0  0  0  0  2  0  0  0  0  0  0
  188.9880  177.6320  144.5270 C   0  0  2  0  0  3  0  0  0  0  0  0
  184.1670  178.6370  142.7500 C   0  0  0  0  0  1  0  0  0  0  0  0
  185.2460  177.6500  142.3500 C   0  0  0  0  0  2  0  0  0  0  0  0
  190.3890  176.0610  146.8220 C   0  0  0  0  0  2  0  0  0  0  0  0
  192.5040  176.3180  148.1170 O   0  0  0  0  0  1  0  0  0  0  0  0
  192.4280  174.9540  146.2760 O   0  0  0  0  0  0  0  0  0  0  0  0
  191.8250  175.7350  147.0560 C   0  0  0  0  0  0  0  0  0  0  0  0
  188.3540  177.5840  140.1270 C   0  0  0  0  0  2  0  0  0  0  0  0
  187.1350  179.3910  137.0920 O   0  0  0  0  0  0  0  0  0  0  0  0
  190.4910  176.6730  137.4170 C   0  0  0  0  0  2  0  0  0  0  0  0
  189.5410  178.1430  139.3480 C   0  0  2  0  0  3  0  0  0  0  0  0
  188.4000  177.5520  136.2930 C   0  0  0  0  0  2  0  0  0  0  0  0
  189.0950  179.0280  138.2750 N   0  0  0  0  0  2  0  0  0  0  0  0
  189.1110  176.3250  136.8610 C   0  0  2  0  0  3  0  0  0  0  0  0
  190.5150  177.0460  138.9010 C   0  0  0  0  0  2  0  0  0  0  0  0
  188.1460  178.6640  137.2670 C   0  0  0  0  0  0  0  0  0  0  0  0
  188.2580  175.4640  137.7930 C   0  0  0  0  0  2  0  0  0  0  0  0
  186.8530  175.2550  137.2410 C   0  0  0  0  0  2  0  0  0  0  0  0
  186.5690  173.7750  137.0040 C   0  0  2  0  0  3  0  0  0  0  0  0
  186.5180  173.4710  135.5160 C   0  0  0  0  0  1  0  0  0  0  0  0
  184.7660  172.1750  137.0890 O   0  0  0  0  0  1  0  0  0  0  0  0
  185.2720  173.3360  137.6780 C   0  0  0  0  0  3  0  0  0  0  0  0
  184.3220  174.3550  137.6030 O   0  0  0  0  0  1  0  0  0  0  0  0
  1  7  1  0  0  0  0
  2 12  1  0  0  0  0
  3  8  1  0  0  0  0
  5  2  2  0  0  0  0
  6  4  2  0  0  0  0
  7  2  1  0  0  0  0
  7  6  1  0  0  0  0
  9 15  1  6  0  0  0
  9  8  1  0  0  0  0
 10  4  1  6  0  0  0
 10  3  1  0  0  0  0
 11  9  1  0  0  0  0
 12 10  1  0  0  0  0
 12 11  1  1  0  0  0
 14 13  1  0  0  0  0
 14  6  1  0  0  0  0
 15 18  1  0  0  0  0
 17 18  2  0  0  0  0
 18 16  1  0  0  0  0
 19  1  1  0  0  0  0
 20 27  2  0  0  0  0
 21 26  1  0  0  0  0
 22 19  1  6  0  0  0
 23 25  1  0  0  0  0
 23 27  1  0  0  0  0
 24 22  1  0  0  0  0
 25 21  1  0  0  0  0
 25 28  1  1  0  0  0
 26 22  1  0  0  0  0
 27 24  1  0  0  0  0
 29 28  1  0  0  0  0
 30 31  1  6  0  0  0
 30 29  1  0  0  0  0
 30 33  1  0  0  0  0
 32 33  1  0  0  0  0
 34 33  1  0  0  0  0
M  END
>  <MODEL>
3

>  <REMARK>
 VINA RESULT:      -7.0      2.774      5.474
  Name = 
  10 active torsions:
  status: ('A' for Active; 'I' for Inactive)
    1  A    between atoms: C_7  and  C_15
    2  A    between atoms: C_7  and  C_29
    3  A    between atoms: C_8  and  C_17
    4  A    between atoms: C_10  and  C_17
    5  A    between atoms: C_10  and  N_20
    6  A    between atoms: C_19  and  C_22
    7  A    between atoms: C_24  and  C_25
    8  A    between atoms: C_25  and  C_27
    9  A    between atoms: C_26  and  C_28
   10  A    between atoms: C_26  and  C_29
                            x       y       z     vdW  Elec       q    Type
                         _______ _______ _______ _____ _____    ______ ____

>  <TORSDO>
F 10

$$$$
=
 OpenBabel10262423163D

 34 36  0  0  1  0  0  0  0  0999 V2000
  189.5380  178.0310  140.7010 C   0  0  0  0  0  2  0  0  0  0  0  0
  191.2570  177.0210  139.1750 C   0  0  0  0  0  0  0  0  0  0  0  0
  190.7150  174.7130  136.1760 C   0  0  0  0  0  2  0  0  0  0  0  0
  189.1200  175.9880  137.6050 C   0  0  0  0  0  3  0  0  0  0  0  0
  192.1780  177.4270  139.9350 O   0  0  0  0  0  0  0  0  0  0  0  0
  188.8430  176.8750  138.5670 C   0  0  0  0  0  0  0  0  0  0  0  0
  189.8780  177.3030  139.4810 N   0  0  0  0  0  0  0  0  0  0  0  0
  192.0550  173.9720  136.1820 C   0  0  0  0  0  2  0  0  0  0  0  0
  193.2150  174.8850  136.5980 C   0  0  2  0  0  3  0  0  0  0  0  0
  190.4650  175.3320  137.5450 C   0  0  2  0  0  3  0  0  0  0  0  0
  192.9200  175.5780  137.9370 C   0  0  0  0  0  2  0  0  0  0  0  0
  191.5830  176.3220  137.8840 C   0  0  2  0  0  3  0  0  0  0  0  0
  187.1100  178.0550  137.2670 C   0  0  0  0  0  1  0  0  0  0  0  0
  187.4760  177.4750  138.6190 C   0  0  0  0  0  2  0  0  0  0  0  0
  193.5340  175.8900  135.4950 C   0  0  0  0  0  2  0  0  0  0  0  0
  195.9510  175.7120  136.0830 O   0  0  0  0  0  1  0  0  0  0  0  0
  195.0250  177.7480  135.5780 O   0  0  0  0  0  0  0  0  0  0  0  0
  194.8750  176.5050  135.7090 C   0  0  0  0  0  0  0  0  0  0  0  0
  190.0010  177.2610  141.9300 C   0  0  0  0  0  2  0  0  0  0  0  0
  191.9530  174.8810  144.0480 O   0  0  0  0  0  0  0  0  0  0  0  0
  190.5240  178.8340  145.0920 C   0  0  0  0  0  2  0  0  0  0  0  0
  191.0920  178.0170  142.6830 C   0  0  2  0  0  3  0  0  0  0  0  0
  190.8870  176.3720  145.5520 C   0  0  0  0  0  2  0  0  0  0  0  0
  192.0020  177.0930  143.3550 N   0  0  0  0  0  2  0  0  0  0  0  0
  189.8740  177.5130  145.5000 C   0  0  2  0  0  3  0  0  0  0  0  0
  190.5230  179.1170  143.5880 C   0  0  0  0  0  2  0  0  0  0  0  0
  191.5880  176.0660  144.2630 C   0  0  0  0  0  0  0  0  0  0  0  0
  188.5830  177.1890  144.7470 C   0  0  0  0  0  2  0  0  0  0  0  0
  187.3480  177.5800  145.5470 C   0  0  0  0  0  2  0  0  0  0  0  0
  186.1250  177.7150  144.6440 C   0  0  2  0  0  3  0  0  0  0  0  0
  186.5460  177.8890  143.1950 C   0  0  0  0  0  1  0  0  0  0  0  0
  185.0090  178.8490  146.4570 O   0  0  0  0  0  1  0  0  0  0  0  0
  185.2290  178.8720  145.0770 C   0  0  0  0  0  3  0  0  0  0  0  0
  184.0080  178.8120  144.4050 O   0  0  0  0  0  1  0  0  0  0  0  0
  1 19  1  0  0  0  0
  2  7  1  0  0  0  0
  2  5  2  0  0  0  0
  3  8  1  0  0  0  0
  4  6  2  0  0  0  0
  6 14  1  0  0  0  0
  6  7  1  0  0  0  0
  7  1  1  0  0  0  0
  8  9  1  0  0  0  0
  9 15  1  6  0  0  0
  9 11  1  0  0  0  0
 10  3  1  6  0  0  0
 10  4  1  0  0  0  0
 10 12  1  0  0  0  0
 12 11  1  1  0  0  0
 12  2  1  0  0  0  0
 13 14  1  0  0  0  0
 15 18  1  0  0  0  0
 17 18  2  0  0  0  0
 18 16  1  0  0  0  0
 20 27  2  0  0  0  0
 21 25  1  0  0  0  0
 22 19  1  1  0  0  0
 22 24  1  0  0  0  0
 22 26  1  0  0  0  0
 24 27  1  0  0  0  0
 25 28  1  6  0  0  0
 25 23  1  0  0  0  0
 26 21  1  0  0  0  0
 27 23  1  0  0  0  0
 28 29  1  0  0  0  0
 30 31  1  6  0  0  0
 30 33  1  0  0  0  0
 30 29  1  0  0  0  0
 33 32  1  0  0  0  0
 34 33  1  0  0  0  0
M  END
>  <MODEL>
4

>  <REMARK>
 VINA RESULT:      -6.9      3.562      8.676
  Name = 
  10 active torsions:
  status: ('A' for Active; 'I' for Inactive)
    1  A    between atoms: C_7  and  C_15
    2  A    between atoms: C_7  and  C_29
    3  A    between atoms: C_8  and  C_17
    4  A    between atoms: C_10  and  C_17
    5  A    between atoms: C_10  and  N_20
    6  A    between atoms: C_19  and  C_22
    7  A    between atoms: C_24  and  C_25
    8  A    between atoms: C_25  and  C_27
    9  A    between atoms: C_26  and  C_28
   10  A    between atoms: C_26  and  C_29
                            x       y       z     vdW  Elec       q    Type
                         _______ _______ _______ _____ _____    ______ ____

>  <TORSDO>
F 10

$$$$
=
 OpenBabel10262423163D

 34 36  0  0  1  0  0  0  0  0999 V2000
  181.6990  179.0330  140.6580 C   0  0  0  0  0  2  0  0  0  0  0  0
  183.7960  178.7320  142.0050 C   0  0  0  0  0  0  0  0  0  0  0  0
  184.1880  178.6210  145.8060 C   0  0  0  0  0  2  0  0  0  0  0  0
  182.1720  178.6490  144.3400 C   0  0  0  0  0  3  0  0  0  0  0  0
  184.4920  178.8510  140.9590 O   0  0  0  0  0  0  0  0  0  0  0  0
  181.5810  178.5990  143.1420 C   0  0  0  0  0  0  0  0  0  0  0  0
  182.3590  178.7930  141.9390 N   0  0  0  0  0  0  0  0  0  0  0  0
  185.6330  179.1140  145.9260 C   0  0  0  0  0  2  0  0  0  0  0  0
  186.5100  178.6100  144.7730 C   0  0  2  0  0  3  0  0  0  0  0  0
  183.6160  179.0350  144.4570 C   0  0  2  0  0  3  0  0  0  0  0  0
  185.8830  178.9510  143.4120 C   0  0  0  0  0  2  0  0  0  0  0  0
  184.4480  178.4250  143.3250 C   0  0  2  0  0  3  0  0  0  0  0  0
  179.3660  178.9900  144.1540 C   0  0  0  0  0  1  0  0  0  0  0  0
  180.1300  178.2530  143.0710 C   0  0  0  0  0  2  0  0  0  0  0  0
  186.7840  177.1160  144.9150 C   0  0  0  0  0  2  0  0  0  0  0  0
  188.0860  175.8260  143.2240 O   0  0  0  0  0  0  0  0  0  0  0  0
  189.1510  177.2520  144.6690 O   0  0  0  0  0  1  0  0  0  0  0  0
  188.0720  176.7480  144.2610 C   0  0  0  0  0  0  0  0  0  0  0  0
  181.7740  177.7930  139.7770 C   0  0  0  0  0  2  0  0  0  0  0  0
  181.3180  174.4520  138.1680 O   0  0  0  0  0  0  0  0  0  0  0  0
  182.0960  178.2570  136.2520 C   0  0  0  0  0  2  0  0  0  0  0  0
  180.8920  177.9330  138.5400 C   0  0  2  0  0  3  0  0  0  0  0  0
  182.4910  175.7800  136.5930 C   0  0  0  0  0  2  0  0  0  0  0  0
  180.5230  176.6230  138.0090 N   0  0  0  0  0  2  0  0  0  0  0  0
  183.1310  177.1650  136.5220 C   0  0  2  0  0  3  0  0  0  0  0  0
  181.4870  178.8930  137.5030 C   0  0  0  0  0  2  0  0  0  0  0  0
  181.4580  175.5960  137.6650 C   0  0  0  0  0  0  0  0  0  0  0  0
  184.0960  177.4840  137.6640 C   0  0  0  0  0  2  0  0  0  0  0  0
  185.5010  176.9710  137.3760 C   0  0  0  0  0  2  0  0  0  0  0  0
  186.4120  178.0960  136.8920 C   0  0  2  0  0  3  0  0  0  0  0  0
  186.8360  177.8600  135.4520 C   0  0  0  0  0  1  0  0  0  0  0  0
  187.2700  178.5800  139.0930 O   0  0  0  0  0  1  0  0  0  0  0  0
  187.6380  178.2530  137.7860 C   0  0  0  0  0  3  0  0  0  0  0  0
  188.4830  179.2380  137.2740 O   0  0  0  0  0  1  0  0  0  0  0  0
  1  7  1  0  0  0  0
  2 12  1  0  0  0  0
  3  8  1  0  0  0  0
  5  2  2  0  0  0  0
  6  4  2  0  0  0  0
  7  2  1  0  0  0  0
  7  6  1  0  0  0  0
  9 15  1  1  0  0  0
  9  8  1  0  0  0  0
 10  4  1  1  0  0  0
 10  3  1  0  0  0  0
 11  9  1  0  0  0  0
 12 11  1  6  0  0  0
 12 10  1  0  0  0  0
 14  6  1  0  0  0  0
 14 13  1  0  0  0  0
 16 18  2  0  0  0  0
 18 17  1  0  0  0  0
 18 15  1  0  0  0  0
 19  1  1  0  0  0  0
 21 25  1  0  0  0  0
 21 26  1  0  0  0  0
 22 19  1  1  0  0  0
 23 27  1  0  0  0  0
 24 22  1  0  0  0  0
 25 23  1  0  0  0  0
 25 28  1  1  0  0  0
 26 22  1  0  0  0  0
 27 24  1  0  0  0  0
 27 20  2  0  0  0  0
 29 28  1  0  0  0  0
 30 31  1  6  0  0  0
 30 29  1  0  0  0  0
 30 33  1  0  0  0  0
 33 32  1  0  0  0  0
 34 33  1  0  0  0  0
M  END
>  <MODEL>
5

>  <REMARK>
 VINA RESULT:      -6.8      2.477      5.046
  Name = 
  10 active torsions:
  status: ('A' for Active; 'I' for Inactive)
    1  A    between atoms: C_7  and  C_15
    2  A    between atoms: C_7  and  C_29
    3  A    between atoms: C_8  and  C_17
    4  A    between atoms: C_10  and  C_17
    5  A    between atoms: C_10  and  N_20
    6  A    between atoms: C_19  and  C_22
    7  A    between atoms: C_24  and  C_25
    8  A    between atoms: C_25  and  C_27
    9  A    between atoms: C_26  and  C_28
   10  A    between atoms: C_26  and  C_29
                            x       y       z     vdW  Elec       q    Type
                         _______ _______ _______ _____ _____    ______ ____

>  <TORSDO>
F 10

$$$$
=
 OpenBabel10262423163D

 34 36  0  0  1  0  0  0  0  0999 V2000
  188.3270  178.9670  141.4740 C   0  0  0  0  0  2  0  0  0  0  0  0
  185.8410  178.6600  141.2920 C   0  0  0  0  0  0  0  0  0  0  0  0
  183.7280  178.1650  138.1460 C   0  0  0  0  0  2  0  0  0  0  0  0
  186.1940  178.2190  138.5030 C   0  0  0  0  0  3  0  0  0  0  0  0
  185.7120  178.9360  142.5160 O   0  0  0  0  0  0  0  0  0  0  0  0
  187.2740  178.2610  139.2910 C   0  0  0  0  0  0  0  0  0  0  0  0
  187.1450  178.6330  140.6820 N   0  0  0  0  0  0  0  0  0  0  0  0
  182.3970  178.7350  138.6420 C   0  0  0  0  0  2  0  0  0  0  0  0
  182.1520  178.4170  140.1230 C   0  0  2  0  0  3  0  0  0  0  0  0
  184.8650  178.6840  139.0160 C   0  0  2  0  0  3  0  0  0  0  0  0
  183.3420  178.8610  140.9880 C   0  0  0  0  0  2  0  0  0  0  0  0
  184.6490  178.2550  140.4700 C   0  0  2  0  0  3  0  0  0  0  0  0
  189.0710  178.8360  137.7020 C   0  0  0  0  0  1  0  0  0  0  0  0
  188.5890  177.8300  138.7290 C   0  0  0  0  0  2  0  0  0  0  0  0
  181.8310  176.9380  140.3120 C   0  0  0  0  0  2  0  0  0  0  0  0
  179.5760  176.8990  141.3770 O   0  0  0  0  0  1  0  0  0  0  0  0
  179.8350  176.2940  139.1800 O   0  0  0  0  0  0  0  0  0  0  0  0
  180.3610  176.7000  140.2490 C   0  0  0  0  0  0  0  0  0  0  0  0
  189.0030  177.7010  141.9840 C   0  0  0  0  0  2  0  0  0  0  0  0
  190.5660  174.5400  143.2170 O   0  0  0  0  0  0  0  0  0  0  0  0
  191.4930  178.6080  144.3760 C   0  0  0  0  0  2  0  0  0  0  0  0
  190.5160  177.8750  142.0730 C   0  0  2  0  0  3  0  0  0  0  0  0
  191.0050  176.1760  144.8760 C   0  0  0  0  0  2  0  0  0  0  0  0
  191.1750  176.6010  142.3500 N   0  0  0  0  0  2  0  0  0  0  0  0
  190.6340  177.6270  145.1720 C   0  0  2  0  0  3  0  0  0  0  0  0
  190.9190  179.0150  143.0170 C   0  0  0  0  0  2  0  0  0  0  0  0
  190.8490  175.7430  143.4490 C   0  0  0  0  0  0  0  0  0  0  0  0
  189.1350  177.9270  145.1270 C   0  0  0  0  0  2  0  0  0  0  0  0
  188.3830  177.2150  146.2440 C   0  0  0  0  0  2  0  0  0  0  0  0
  187.7760  178.2140  147.2250 C   0  0  2  0  0  3  0  0  0  0  0  0
  188.2020  177.8950  148.6480 C   0  0  0  0  0  1  0  0  0  0  0  0
  185.8140  177.6510  145.9400 O   0  0  0  0  0  1  0  0  0  0  0  0
  186.2540  178.2490  147.1240 C   0  0  0  0  0  3  0  0  0  0  0  0
  185.7970  179.5660  147.1840 O   0  0  0  0  0  1  0  0  0  0  0  0
  1 19  1  0  0  0  0
  2  5  2  0  0  0  0
  3  8  1  0  0  0  0
  4 10  1  0  0  0  0
  4  6  2  0  0  0  0
  6  7  1  0  0  0  0
  7  2  1  0  0  0  0
  7  1  1  0  0  0  0
  8  9  1  0  0  0  0
  9 15  1  6  0  0  0
  9 11  1  0  0  0  0
 10  3  1  6  0  0  0
 10 12  1  0  0  0  0
 12 11  1  1  0  0  0
 12  2  1  0  0  0  0
 13 14  1  0  0  0  0
 14  6  1  0  0  0  0
 17 18  2  0  0  0  0
 18 15  1  0  0  0  0
 18 16  1  0  0  0  0
 20 27  2  0  0  0  0
 21 25  1  0  0  0  0
 22 19  1  1  0  0  0
 22 24  1  0  0  0  0
 22 26  1  0  0  0  0
 23 25  1  0  0  0  0
 24 27  1  0  0  0  0
 25 28  1  6  0  0  0
 26 21  1  0  0  0  0
 27 23  1  0  0  0  0
 28 29  1  0  0  0  0
 29 30  1  0  0  0  0
 30 31  1  1  0  0  0
 32 33  1  0  0  0  0
 33 34  1  0  0  0  0
 33 30  1  0  0  0  0
M  END
>  <MODEL>
6

>  <REMARK>
 VINA RESULT:      -6.8      2.745      6.050
  Name = 
  10 active torsions:
  status: ('A' for Active; 'I' for Inactive)
    1  A    between atoms: C_7  and  C_15
    2  A    between atoms: C_7  and  C_29
    3  A    between atoms: C_8  and  C_17
    4  A    between atoms: C_10  and  C_17
    5  A    between atoms: C_10  and  N_20
    6  A    between atoms: C_19  and  C_22
    7  A    between atoms: C_24  and  C_25
    8  A    between atoms: C_25  and  C_27
    9  A    between atoms: C_26  and  C_28
   10  A    between atoms: C_26  and  C_29
                            x       y       z     vdW  Elec       q    Type
                         _______ _______ _______ _____ _____    ______ ____

>  <TORSDO>
F 10

$$$$
=
 OpenBabel10262423163D

 34 36  0  0  1  0  0  0  0  0999 V2000
  189.1670  178.7690  141.2340 C   0  0  0  0  0  2  0  0  0  0  0  0
  187.3060  178.1810  139.6550 C   0  0  0  0  0  0  0  0  0  0  0  0
  187.5500  176.8500  136.0800 C   0  0  0  0  0  2  0  0  0  0  0  0
  189.2760  177.2270  137.8380 C   0  0  0  0  0  3  0  0  0  0  0  0
  186.4650  178.6820  140.4500 O   0  0  0  0  0  0  0  0  0  0  0  0
  189.6460  177.5350  139.0850 C   0  0  0  0  0  0  0  0  0  0  0  0
  188.7070  178.1650  139.9860 N   0  0  0  0  0  0  0  0  0  0  0  0
  186.2210  177.3700  135.5250 C   0  0  0  0  0  2  0  0  0  0  0  0
  185.1050  177.3330  136.5760 C   0  0  2  0  0  3  0  0  0  0  0  0
  187.9350  177.6460  137.3190 C   0  0  2  0  0  3  0  0  0  0  0  0
  185.5310  178.0600  137.8610 C   0  0  0  0  0  2  0  0  0  0  0  0
  186.8530  177.5000  138.3930 C   0  0  2  0  0  3  0  0  0  0  0  0
  191.8250  176.6170  138.3830 C   0  0  0  0  0  1  0  0  0  0  0  0
  191.0090  177.1370  139.5500 C   0  0  0  0  0  2  0  0  0  0  0  0
  184.6700  175.8970  136.8540 C   0  0  0  0  0  2  0  0  0  0  0  0
  183.0520  175.6000  138.7270 O   0  0  0  0  0  1  0  0  0  0  0  0
  182.3040  176.0260  136.6020 O   0  0  0  0  0  0  0  0  0  0  0  0
  183.2770  175.8560  137.3810 C   0  0  0  0  0  0  0  0  0  0  0  0
  189.7630  177.7110  142.1540 C   0  0  0  0  0  2  0  0  0  0  0  0
  191.6550  174.8380  143.6110 O   0  0  0  0  0  0  0  0  0  0  0  0
  190.8470  178.6940  145.4100 C   0  0  0  0  0  2  0  0  0  0  0  0
  191.0190  178.2230  142.8520 C   0  0  2  0  0  3  0  0  0  0  0  0
  190.9650  176.1660  145.4500 C   0  0  0  0  0  2  0  0  0  0  0  0
  191.8850  177.1160  143.2500 N   0  0  0  0  0  2  0  0  0  0  0  0
  190.0960  177.3960  145.7050 C   0  0  2  0  0  3  0  0  0  0  0  0
  190.6990  179.2140  143.9780 C   0  0  0  0  0  2  0  0  0  0  0  0
  191.4630  176.0030  144.0450 C   0  0  0  0  0  0  0  0  0  0  0  0
  188.6950  177.3290  145.0970 C   0  0  0  0  0  2  0  0  0  0  0  0
  187.6400  177.8820  146.0460 C   0  0  0  0  0  2  0  0  0  0  0  0
  186.2540  177.8510  145.4080 C   0  0  2  0  0  3  0  0  0  0  0  0
  186.3610  177.8790  143.8920 C   0  0  0  0  0  1  0  0  0  0  0  0
  185.6850  179.3370  147.2200 O   0  0  0  0  0  1  0  0  0  0  0  0
  185.3820  179.0030  145.8980 C   0  0  0  0  0  3  0  0  0  0  0  0
  184.0320  178.6620  145.7970 O   0  0  0  0  0  1  0  0  0  0  0  0
  1 19  1  0  0  0  0
  2  7  1  0  0  0  0
  2  5  2  0  0  0  0
  4  6  2  0  0  0  0
  6 14  1  0  0  0  0
  6  7  1  0  0  0  0
  7  1  1  0  0  0  0
  8  3  1  0  0  0  0
  8  9  1  0  0  0  0
  9 15  1  1  0  0  0
  9 11  1  0  0  0  0
 10  3  1  6  0  0  0
 10  4  1  0  0  0  0
 10 12  1  0  0  0  0
 12 11  1  6  0  0  0
 12  2  1  0  0  0  0
 13 14  1  0  0  0  0
 15 18  1  0  0  0  0
 17 18  2  0  0  0  0
 18 16  1  0  0  0  0
 20 27  2  0  0  0  0
 21 25  1  0  0  0  0
 22 19  1  1  0  0  0
 22 24  1  0  0  0  0
 22 26  1  0  0  0  0
 23 25  1  0  0  0  0
 24 27  1  0  0  0  0
 25 28  1  6  0  0  0
 26 21  1  0  0  0  0
 27 23  1  0  0  0  0
 28 29  1  0  0  0  0
 30 31  1  6  0  0  0
 30 33  1  0  0  0  0
 30 29  1  0  0  0  0
 33 32  1  0  0  0  0
 34 33  1  0  0  0  0
M  END
>  <MODEL>
7

>  <REMARK>
 VINA RESULT:      -6.5      2.708      7.299
  Name = 
  10 active torsions:
  status: ('A' for Active; 'I' for Inactive)
    1  A    between atoms: C_7  and  C_15
    2  A    between atoms: C_7  and  C_29
    3  A    between atoms: C_8  and  C_17
    4  A    between atoms: C_10  and  C_17
    5  A    between atoms: C_10  and  N_20
    6  A    between atoms: C_19  and  C_22
    7  A    between atoms: C_24  and  C_25
    8  A    between atoms: C_25  and  C_27
    9  A    between atoms: C_26  and  C_28
   10  A    between atoms: C_26  and  C_29
                            x       y       z     vdW  Elec       q    Type
                         _______ _______ _______ _____ _____    ______ ____

>  <TORSDO>
F 10

$$$$
=
 OpenBabel10262423163D

 34 36  0  0  1  0  0  0  0  0999 V2000
  188.7840  178.2960  138.8610 C   0  0  0  0  0  2  0  0  0  0  0  0
  187.3710  178.4180  140.9330 C   0  0  0  0  0  0  0  0  0  0  0  0
  188.0340  176.8640  144.3620 C   0  0  0  0  0  2  0  0  0  0  0  0
  189.4460  177.0490  142.3160 C   0  0  0  0  0  3  0  0  0  0  0  0
  186.4390  178.9550  140.2730 O   0  0  0  0  0  0  0  0  0  0  0  0
  189.6860  177.5050  141.0820 C   0  0  0  0  0  0  0  0  0  0  0  0
  188.6120  178.0680  140.2940 N   0  0  0  0  0  0  0  0  0  0  0  0
  186.5930  176.7170  144.8560 C   0  0  0  0  0  2  0  0  0  0  0  0
  185.7050  177.8780  144.3930 C   0  0  2  0  0  3  0  0  0  0  0  0
  188.0450  176.9950  142.8450 C   0  0  2  0  0  3  0  0  0  0  0  0
  185.7880  178.0650  142.8700 C   0  0  0  0  0  2  0  0  0  0  0  0
  187.2420  178.2270  142.4190 C   0  0  2  0  0  3  0  0  0  0  0  0
  192.0640  177.4690  141.7390 C   0  0  0  0  0  1  0  0  0  0  0  0
  191.0910  177.5020  140.5760 C   0  0  0  0  0  2  0  0  0  0  0  0
  186.0550  179.1600  145.1430 C   0  0  0  0  0  2  0  0  0  0  0  0
  184.4530  178.5870  146.9670 O   0  0  0  0  0  0  0  0  0  0  0  0
  186.5470  179.3780  147.4650 O   0  0  0  0  0  1  0  0  0  0  0  0
  185.7090  179.0410  146.5880 C   0  0  0  0  0  0  0  0  0  0  0  0
  188.1300  177.1780  138.0590 C   0  0  0  0  0  2  0  0  0  0  0  0
  184.4330  177.6830  138.2550 O   0  0  0  0  0  0  0  0  0  0  0  0
  186.7210  175.9010  135.0380 C   0  0  0  0  0  2  0  0  0  0  0  0
  187.6070  177.6860  136.7190 C   0  0  2  0  0  3  0  0  0  0  0  0
  184.7750  175.9670  136.6550 C   0  0  0  0  0  2  0  0  0  0  0  0
  186.2080  178.0900  136.8210 N   0  0  0  0  0  2  0  0  0  0  0  0
  185.9320  175.1380  136.1020 C   0  0  2  0  0  3  0  0  0  0  0  0
  187.9040  176.7130  135.5700 C   0  0  0  0  0  2  0  0  0  0  0  0
  185.1580  177.2550  137.3200 C   0  0  0  0  0  0  0  0  0  0  0  0
  186.8000  174.4620  137.1630 C   0  0  0  0  0  2  0  0  0  0  0  0
  186.4080  173.0050  137.3700 C   0  0  0  0  0  2  0  0  0  0  0  0
  185.4790  172.5210  136.2600 C   0  0  2  0  0  3  0  0  0  0  0  0
  184.1920  171.9630  136.8440 C   0  0  0  0  0  1  0  0  0  0  0  0
  185.3890  170.3110  135.2980 O   0  0  0  0  0  1  0  0  0  0  0  0
  186.1540  171.4770  135.3750 C   0  0  0  0  0  3  0  0  0  0  0  0
  187.4230  171.1750  135.8710 O   0  0  0  0  0  1  0  0  0  0  0  0
  1  7  1  0  0  0  0
  2 12  1  0  0  0  0
  3  8  1  0  0  0  0
  5  2  2  0  0  0  0
  6  4  2  0  0  0  0
  7  2  1  0  0  0  0
  7  6  1  0  0  0  0
  9  8  1  0  0  0  0
  9 15  1  1  0  0  0
 10  4  1  1  0  0  0
 10  3  1  0  0  0  0
 11  9  1  0  0  0  0
 12 10  1  0  0  0  0
 12 11  1  6  0  0  0
 14  6  1  0  0  0  0
 14 13  1  0  0  0  0
 15 18  1  0  0  0  0
 18 16  2  0  0  0  0
 18 17  1  0  0  0  0
 19  1  1  0  0  0  0
 21 26  1  0  0  0  0
 21 25  1  0  0  0  0
 22 24  1  0  0  0  0
 22 19  1  1  0  0  0
 23 27  1  0  0  0  0
 24 27  1  0  0  0  0
 25 23  1  0  0  0  0
 25 28  1  1  0  0  0
 26 22  1  0  0  0  0
 27 20  2  0  0  0  0
 28 29  1  0  0  0  0
 30 31  1  1  0  0  0
 30 29  1  0  0  0  0
 32 33  1  0  0  0  0
 33 34  1  0  0  0  0
 33 30  1  0  0  0  0
M  END
>  <MODEL>
8

>  <REMARK>
 VINA RESULT:      -6.4      2.518      5.601
  Name = 
  10 active torsions:
  status: ('A' for Active; 'I' for Inactive)
    1  A    between atoms: C_7  and  C_15
    2  A    between atoms: C_7  and  C_29
    3  A    between atoms: C_8  and  C_17
    4  A    between atoms: C_10  and  C_17
    5  A    between atoms: C_10  and  N_20
    6  A    between atoms: C_19  and  C_22
    7  A    between atoms: C_24  and  C_25
    8  A    between atoms: C_25  and  C_27
    9  A    between atoms: C_26  and  C_28
   10  A    between atoms: C_26  and  C_29
                            x       y       z     vdW  Elec       q    Type
                         _______ _______ _______ _____ _____    ______ ____

>  <TORSDO>
F 10

$$$$
=
 OpenBabel10262423163D

 34 36  0  0  1  0  0  0  0  0999 V2000
  183.7780  178.4190  138.2030 C   0  0  0  0  0  2  0  0  0  0  0  0
  184.6200  178.6970  140.5530 C   0  0  0  0  0  0  0  0  0  0  0  0
  182.6400  178.5860  143.8200 C   0  0  0  0  0  2  0  0  0  0  0  0
  181.9990  178.0750  141.4660 C   0  0  0  0  0  3  0  0  0  0  0  0
  185.7500  179.0440  140.1120 O   0  0  0  0  0  0  0  0  0  0  0  0
  182.2910  177.8930  140.1740 C   0  0  0  0  0  0  0  0  0  0  0  0
  183.5600  178.3400  139.6460 N   0  0  0  0  0  0  0  0  0  0  0  0
  183.5360  179.4720  144.6900 C   0  0  0  0  0  2  0  0  0  0  0  0
  185.0230  179.2800  144.3650 C   0  0  2  0  0  3  0  0  0  0  0  0
  182.9220  178.8580  142.3490 C   0  0  2  0  0  3  0  0  0  0  0  0
  185.2900  179.4660  142.8630 C   0  0  0  0  0  2  0  0  0  0  0  0
  184.3890  178.5510  142.0310 C   0  0  2  0  0  3  0  0  0  0  0  0
  181.6000  175.6550  139.3990 C   0  0  0  0  0  1  0  0  0  0  0  0
  181.3230  177.1430  139.3180 C   0  0  0  0  0  2  0  0  0  0  0  0
  185.5150  177.9260  144.8670 C   0  0  0  0  0  2  0  0  0  0  0  0
  186.2980  178.4400  147.1780 O   0  0  0  0  0  1  0  0  0  0  0  0
  187.8070  177.9510  145.5230 O   0  0  0  0  0  0  0  0  0  0  0  0
  186.6050  178.0950  145.8690 C   0  0  0  0  0  0  0  0  0  0  0  0
  184.6560  177.2670  137.7320 C   0  0  0  0  0  2  0  0  0  0  0  0
  183.8010  173.6940  137.0560 O   0  0  0  0  0  0  0  0  0  0  0  0
  186.6420  176.2040  134.9630 C   0  0  0  0  0  2  0  0  0  0  0  0
  184.5240  177.0450  136.2290 C   0  0  2  0  0  3  0  0  0  0  0  0
  185.9350  174.0490  136.0870 C   0  0  0  0  0  2  0  0  0  0  0  0
  183.9890  175.7170  135.9410 N   0  0  0  0  0  2  0  0  0  0  0  0
  186.9860  175.1550  136.0200 C   0  0  2  0  0  3  0  0  0  0  0  0
  185.8140  177.3860  135.4720 C   0  0  0  0  0  2  0  0  0  0  0  0
  184.5460  174.4940  136.4350 C   0  0  0  0  0  0  0  0  0  0  0  0
  187.3910  175.7380  137.3740 C   0  0  0  0  0  2  0  0  0  0  0  0
  188.7070  176.5000  137.2910 C   0  0  0  0  0  2  0  0  0  0  0  0
  188.6240  177.8270  138.0400 C   0  0  2  0  0  3  0  0  0  0  0  0
  188.9710  178.9850  137.1200 C   0  0  0  0  0  1  0  0  0  0  0  0
  190.5890  176.9390  139.1210 O   0  0  0  0  0  1  0  0  0  0  0  0
  189.5300  177.8380  139.2680 C   0  0  0  0  0  3  0  0  0  0  0  0
  188.7950  177.5170  140.4100 O   0  0  0  0  0  1  0  0  0  0  0  0
  1  7  1  0  0  0  0
  2 12  1  0  0  0  0
  3  8  1  0  0  0  0
  5  2  2  0  0  0  0
  6  4  2  0  0  0  0
  7  6  1  0  0  0  0
  7  2  1  0  0  0  0
  9  8  1  0  0  0  0
  9 15  1  6  0  0  0
 10  4  1  6  0  0  0
 10  3  1  0  0  0  0
 11  9  1  0  0  0  0
 12 10  1  0  0  0  0
 12 11  1  1  0  0  0
 14 13  1  0  0  0  0
 14  6  1  0  0  0  0
 15 18  1  0  0  0  0
 17 18  2  0  0  0  0
 18 16  1  0  0  0  0
 19  1  1  0  0  0  0
 21 26  1  0  0  0  0
 21 25  1  0  0  0  0
 22 19  1  1  0  0  0
 23 27  1  0  0  0  0
 24 22  1  0  0  0  0
 24 27  1  0  0  0  0
 25 23  1  0  0  0  0
 25 28  1  1  0  0  0
 26 22  1  0  0  0  0
 27 20  2  0  0  0  0
 29 28  1  0  0  0  0
 29 30  1  0  0  0  0
 30 31  1  6  0  0  0
 30 33  1  0  0  0  0
 32 33  1  0  0  0  0
 33 34  1  0  0  0  0
M  END
>  <MODEL>
9

>  <REMARK>
 VINA RESULT:      -6.4      1.806      2.701
  Name = 
  10 active torsions:
  status: ('A' for Active; 'I' for Inactive)
    1  A    between atoms: C_7  and  C_15
    2  A    between atoms: C_7  and  C_29
    3  A    between atoms: C_8  and  C_17
    4  A    between atoms: C_10  and  C_17
    5  A    between atoms: C_10  and  N_20
    6  A    between atoms: C_19  and  C_22
    7  A    between atoms: C_24  and  C_25
    8  A    between atoms: C_25  and  C_27
    9  A    between atoms: C_26  and  C_28
   10  A    between atoms: C_26  and  C_29
                            x       y       z     vdW  Elec       q    Type
                         _______ _______ _______ _____ _____    ______ ____

>  <TORSDO>
F 10

$$$$
