=
 OpenBabel10262419283D

 31 35  0  0  1  0  0  0  0  0999 V2000
  187.4350  178.0780  136.9010 C   0  0  0  0  0  0  0  0  0  0  0  0
  190.7080  176.8600  138.3780 C   0  0  1  0  0  3  0  0  0  0  0  0
  190.6070  175.3430  138.2800 C   0  0  0  0  0  2  0  0  0  0  0  0
  191.3470  173.7470  136.5380 C   0  0  0  0  0  3  0  0  0  0  0  0
  189.3340  177.4500  138.2450 C   0  0  0  0  0  0  0  0  0  0  0  0
  186.7440  178.3850  138.0320 N   0  0  0  0  0  0  0  0  0  0  0  0
  191.6080  174.7710  137.3300 C   0  0  2  0  0  3  0  0  0  0  0  0
  190.4700  177.3930  140.8340 C   0  0  0  0  0  0  0  0  0  0  0  0
  186.8210  178.2350  135.6280 N   0  0  0  0  0  1  0  0  0  0  0  0
  193.5350  176.2120  139.3860 C   0  0  0  0  0  2  0  0  0  0  0  0
  192.6160  173.3670  135.8370 C   0  0  0  0  0  3  0  0  0  0  0  0
  189.2070  177.6620  140.6910 N   0  0  0  0  0  0  0  0  0  0  0  0
  191.3060  177.2170  139.6700 N   0  0  0  0  0  0  0  0  0  0  0  0
  188.7440  177.5950  136.9870 C   0  0  0  0  0  3  0  0  0  0  0  0
  193.6040  174.2940  136.3750 N   0  0  0  0  0  0  0  0  0  0  0  0
  188.6040  177.7750  139.3970 C   0  0  0  0  0  0  0  0  0  0  0  0
  187.2960  178.2460  139.2670 C   0  0  0  0  0  3  0  0  0  0  0  0
  192.7430  177.4570  139.7580 C   0  0  0  0  0  2  0  0  0  0  0  0
  193.0300  175.0660  137.2310 C   0  0  0  0  0  0  0  0  0  0  0  0
  193.7600  176.1930  137.8860 C   0  0  0  0  0  2  0  0  0  0  0  0
  191.0480  177.3450  142.2130 C   0  0  0  0  0  2  0  0  0  0  0  0
  190.3630  175.1480  142.7960 O   0  0  0  0  0  0  0  0  0  0  0  0
  190.2930  176.3760  143.0700 C   0  0  0  0  0  0  0  0  0  0  0  0
  187.8940  177.7750  146.3490 C   0  0  0  0  0  0  0  0  0  0  0  0
  188.1280  177.0950  144.0440 C   0  0  0  0  0  3  0  0  0  0  0  0
  191.7500  176.7620  145.8860 Cl  0  0  0  0  0  0  0  0  0  0  0  0
  186.8970  178.3450  147.6680 Cl  0  0  0  0  0  0  0  0  0  0  0  0
  187.3300  177.5500  145.0930 C   0  0  0  0  0  3  0  0  0  0  0  0
  190.0630  177.0810  145.5080 C   0  0  0  0  0  0  0  0  0  0  0  0
  189.4990  176.8550  144.2280 C   0  0  0  0  0  0  0  0  0  0  0  0
  189.2530  177.5370  146.5540 C   0  0  0  0  0  3  0  0  0  0  0  0
  1 14  2  0  0  0  0
  1  6  1  0  0  0  0
  2  3  1  1  0  0  0
  2 13  1  0  0  0  0
  5  2  1  0  0  0  0
  5 16  2  0  0  0  0
  6 17  2  0  0  0  0
  7  4  1  1  0  0  0
  7  3  1  0  0  0  0
  8 21  1  0  0  0  0
  9  1  1  0  0  0  0
 10 18  1  0  0  0  0
 11 15  1  0  0  0  0
 11  4  2  0  0  0  0
 12  8  2  0  0  0  0
 13 18  1  0  0  0  0
 13  8  1  0  0  0  0
 14  5  1  0  0  0  0
 15 19  2  0  0  0  0
 16 12  1  0  0  0  0
 17 16  1  0  0  0  0
 19  7  1  0  0  0  0
 19 20  1  0  0  0  0
 20 10  1  0  0  0  0
 21 23  1  0  0  0  0
 22 23  2  0  0  0  0
 23 30  1  0  0  0  0
 24 31  1  0  0  0  0
 24 27  1  0  0  0  0
 25 30  2  0  0  0  0
 25 28  1  0  0  0  0
 28 24  2  0  0  0  0
 29 26  1  0  0  0  0
 29 31  2  0  0  0  0
 30 29  1  0  0  0  0
M  END
>  <MODEL>
1

>  <REMARK>
 VINA RESULT:      -8.9      0.000      0.000
  Name = 
  3 active torsions:
  status: ('A' for Active; 'I' for Inactive)
    1  A    between atoms: C_9  and  C_22
    2  A    between atoms: C_9  and  C_23
    3  A    between atoms: C_15  and  C_23
                            x       y       z     vdW  Elec       q    Type
                         _______ _______ _______ _____ _____    ______ ____

>  <TORSDO>
F 3

$$$$
=
 OpenBabel10262419283D

 31 35  0  0  1  0  0  0  0  0999 V2000
  192.4020  177.4080  140.5900 C   0  0  0  0  0  0  0  0  0  0  0  0
  190.3210  177.3790  143.7590 C   0  0  1  0  0  3  0  0  0  0  0  0
  190.6040  176.0110  144.3660 C   0  0  0  0  0  2  0  0  0  0  0  0
  192.2790  175.2530  146.0240 C   0  0  0  0  0  3  0  0  0  0  0  0
  190.7160  177.3630  142.3120 C   0  0  0  0  0  0  0  0  0  0  0  0
  191.4440  177.1670  139.6540 N   0  0  0  0  0  0  0  0  0  0  0  0
  191.3420  176.1090  145.6620 C   0  0  0  0  0  0  0  0  0  0  0  0
  187.9520  177.2570  142.8970 C   0  0  0  0  0  0  0  0  0  0  0  0
  193.7600  177.5520  140.1950 N   0  0  0  0  0  1  0  0  0  0  0  0
  188.7380  177.7680  146.3610 C   0  0  0  0  0  2  0  0  0  0  0  0
  192.6900  175.5810  147.4270 C   0  0  0  0  0  2  0  0  0  0  0  0
  188.3650  177.0020  141.6920 N   0  0  0  0  0  0  0  0  0  0  0  0
  188.8920  177.6810  143.9070 N   0  0  0  0  0  0  0  0  0  0  0  0
  192.0560  177.5030  141.9400 C   0  0  0  0  0  3  0  0  0  0  0  0
  191.8340  176.7040  147.7900 N   0  0  0  0  0  0  0  0  0  0  0  0
  189.7450  177.1160  141.3300 C   0  0  0  0  0  0  0  0  0  0  0  0
  190.1340  177.0210  139.9930 C   0  0  0  0  0  3  0  0  0  0  0  0
  188.4350  178.4700  145.0470 C   0  0  0  0  0  2  0  0  0  0  0  0
  191.0620  176.9780  146.7960 C   0  0  0  0  0  0  0  0  0  0  0  0
  190.1330  178.1480  146.8220 C   0  0  0  0  0  2  0  0  0  0  0  0
  186.4880  177.1730  143.1930 C   0  0  0  0  0  2  0  0  0  0  0  0
  186.4000  179.1430  141.8730 O   0  0  0  0  0  0  0  0  0  0  0  0
  185.7610  178.3440  142.6090 C   0  0  0  0  0  0  0  0  0  0  0  0
  181.5520  178.9110  143.2600 C   0  0  0  0  0  0  0  0  0  0  0  0
  183.4190  178.4480  141.8000 C   0  0  0  0  0  3  0  0  0  0  0  0
  184.8080  178.9080  145.6060 Cl  0  0  0  0  0  0  0  0  0  0  0  0
  179.8340  179.1380  143.4990 Cl  0  0  0  0  0  0  0  0  0  0  0  0
  182.0480  178.6290  141.9870 C   0  0  0  0  0  3  0  0  0  0  0  0
  183.8010  178.8240  144.1670 C   0  0  0  0  0  0  0  0  0  0  0  0
  184.3160  178.5430  142.8760 C   0  0  0  0  0  0  0  0  0  0  0  0
  182.4250  179.0030  144.3430 C   0  0  0  0  0  3  0  0  0  0  0  0
  1 14  1  0  0  0  0
  2 13  1  0  0  0  0
  2  3  1  6  0  0  0
  3  7  1  0  0  0  0
  4 11  1  0  0  0  0
  5  2  1  0  0  0  0
  6 17  1  0  0  0  0
  6  1  2  0  0  0  0
  7  4  2  0  0  0  0
  7 19  1  0  0  0  0
  8 21  1  0  0  0  0
  8 13  1  0  0  0  0
  9  1  1  0  0  0  0
 10 20  1  0  0  0  0
 11 15  1  0  0  0  0
 12  8  2  0  0  0  0
 13 18  1  0  0  0  0
 14  5  2  0  0  0  0
 16 12  1  0  0  0  0
 16  5  1  0  0  0  0
 17 16  2  0  0  0  0
 18 10  1  0  0  0  0
 19 20  1  0  0  0  0
 19 15  2  0  0  0  0
 22 23  2  0  0  0  0
 23 30  1  0  0  0  0
 23 21  1  0  0  0  0
 24 27  1  0  0  0  0
 24 31  1  0  0  0  0
 25 28  1  0  0  0  0
 25 30  2  0  0  0  0
 28 24  2  0  0  0  0
 29 31  2  0  0  0  0
 29 26  1  0  0  0  0
 30 29  1  0  0  0  0
M  END
>  <MODEL>
2

>  <REMARK>
 VINA RESULT:      -8.5      3.545      6.992
  Name = 
  3 active torsions:
  status: ('A' for Active; 'I' for Inactive)
    1  A    between atoms: C_9  and  C_22
    2  A    between atoms: C_9  and  C_23
    3  A    between atoms: C_15  and  C_23
                            x       y       z     vdW  Elec       q    Type
                         _______ _______ _______ _____ _____    ______ ____

>  <TORSDO>
F 3

$$$$
=
 OpenBabel10262419283D

 31 35  0  0  1  0  0  0  0  0999 V2000
  185.5070  177.1310  135.9490 C   0  0  0  0  0  0  0  0  0  0  0  0
  184.3600  178.3320  139.3570 C   0  0  1  0  0  3  0  0  0  0  0  0
  183.8480  179.7420  139.0920 C   0  0  0  0  0  2  0  0  0  0  0  0
  181.5910  180.6070  138.5540 C   0  0  0  0  0  3  0  0  0  0  0  0
  185.2340  177.9060  138.2150 C   0  0  0  0  0  0  0  0  0  0  0  0
  186.8540  177.2820  136.0660 N   0  0  0  0  0  0  0  0  0  0  0  0
  182.3740  179.8580  139.3090 C   0  0  2  0  0  3  0  0  0  0  0  0
  186.5220  178.6280  140.6270 C   0  0  0  0  0  0  0  0  0  0  0  0
  184.9480  176.6620  134.7290 N   0  0  0  0  0  1  0  0  0  0  0  0
  183.2990  178.9040  142.1820 C   0  0  0  0  0  2  0  0  0  0  0  0
  180.2170  180.5870  139.1480 C   0  0  0  0  0  3  0  0  0  0  0  0
  187.2210  178.4880  139.5410 N   0  0  0  0  0  0  0  0  0  0  0  0
  185.1100  178.3260  140.6190 N   0  0  0  0  0  0  0  0  0  0  0  0
  184.6690  177.4490  137.0210 C   0  0  0  0  0  3  0  0  0  0  0  0
  180.3610  179.7590  140.3390 N   0  0  0  0  0  0  0  0  0  0  0  0
  186.6250  178.0520  138.3140 C   0  0  0  0  0  0  0  0  0  0  0  0
  187.4260  177.7310  137.2160 C   0  0  0  0  0  3  0  0  0  0  0  0
  184.4360  177.9480  141.8580 C   0  0  0  0  0  2  0  0  0  0  0  0
  181.5860  179.3720  140.4320 C   0  0  0  0  0  0  0  0  0  0  0  0
  182.0320  178.4240  141.4970 C   0  0  0  0  0  2  0  0  0  0  0  0
  187.2170  179.0330  141.8880 C   0  0  0  0  0  2  0  0  0  0  0  0
  188.3100  176.9260  141.8340 O   0  0  0  0  0  0  0  0  0  0  0  0
  187.8370  177.8450  142.5560 C   0  0  0  0  0  0  0  0  0  0  0  0
  187.9220  177.6120  146.8460 C   0  0  0  0  0  0  0  0  0  0  0  0
  186.7170  177.5820  144.7530 C   0  0  0  0  0  3  0  0  0  0  0  0
  190.6930  178.0380  143.9730 Cl  0  0  0  0  0  0  0  0  0  0  0  0
  187.9300  177.5140  148.5920 Cl  0  0  0  0  0  0  0  0  0  0  0  0
  186.7200  177.5050  146.1460 C   0  0  0  0  0  3  0  0  0  0  0  0
  189.1270  177.8680  144.7540 C   0  0  0  0  0  0  0  0  0  0  0  0
  187.9100  177.7660  144.0350 C   0  0  0  0  0  0  0  0  0  0  0  0
  189.1190  177.7880  146.1510 C   0  0  0  0  0  3  0  0  0  0  0  0
  1  6  2  0  0  0  0
  1 14  1  0  0  0  0
  2  3  1  6  0  0  0
  2 13  1  0  0  0  0
  3  7  1  0  0  0  0
  4 11  2  0  0  0  0
  5 16  1  0  0  0  0
  5  2  1  0  0  0  0
  6 17  1  0  0  0  0
  7  4  1  1  0  0  0
  7 19  1  0  0  0  0
  8 21  1  0  0  0  0
  9  1  1  0  0  0  0
 11 15  1  0  0  0  0
 12  8  2  0  0  0  0
 13  8  1  0  0  0  0
 13 18  1  0  0  0  0
 14  5  2  0  0  0  0
 15 19  2  0  0  0  0
 16 12  1  0  0  0  0
 17 16  2  0  0  0  0
 18 10  1  0  0  0  0
 19 20  1  0  0  0  0
 20 10  1  0  0  0  0
 21 23  1  0  0  0  0
 22 23  2  0  0  0  0
 23 30  1  0  0  0  0
 24 27  1  0  0  0  0
 25 28  1  0  0  0  0
 26 29  1  0  0  0  0
 28 24  2  0  0  0  0
 29 31  2  0  0  0  0
 30 25  2  0  0  0  0
 30 29  1  0  0  0  0
 31 24  1  0  0  0  0
M  END
>  <MODEL>
3

>  <REMARK>
 VINA RESULT:      -8.3      3.761      6.944
  Name = 
  3 active torsions:
  status: ('A' for Active; 'I' for Inactive)
    1  A    between atoms: C_9  and  C_22
    2  A    between atoms: C_9  and  C_23
    3  A    between atoms: C_15  and  C_23
                            x       y       z     vdW  Elec       q    Type
                         _______ _______ _______ _____ _____    ______ ____

>  <TORSDO>
F 3

$$$$
=
 OpenBabel10262419283D

 31 35  0  0  1  0  0  0  0  0999 V2000
  183.3860  179.3030  139.3720 C   0  0  0  0  0  0  0  0  0  0  0  0
  186.9630  178.1900  138.7860 C   0  0  1  0  0  3  0  0  0  0  0  0
  186.8280  176.7230  138.4010 C   0  0  0  0  0  2  0  0  0  0  0  0
  186.6200  175.6030  136.2020 C   0  0  0  0  0  3  0  0  0  0  0  0
  185.7000  178.6360  139.4630 C   0  0  0  0  0  0  0  0  0  0  0  0
  183.3380  179.2970  140.7320 N   0  0  0  0  0  0  0  0  0  0  0  0
  187.2350  176.4700  136.9860 C   0  0  2  0  0  3  0  0  0  0  0  0
  187.9580  178.1890  141.1060 C   0  0  0  0  0  0  0  0  0  0  0  0
  182.2270  179.6430  138.6210 N   0  0  0  0  0  1  0  0  0  0  0  0
  189.9220  177.6770  138.1450 C   0  0  0  0  0  2  0  0  0  0  0  0
  187.3830  175.5170  134.9160 C   0  0  0  0  0  3  0  0  0  0  0  0
  186.7870  178.3370  141.6480 N   0  0  0  0  0  0  0  0  0  0  0  0
  188.1170  178.3460  139.6800 N   0  0  0  0  0  0  0  0  0  0  0  0
  184.5690  178.9640  138.7110 C   0  0  0  0  0  3  0  0  0  0  0  0
  188.5080  176.4230  135.1150 N   0  0  0  0  0  0  0  0  0  0  0  0
  185.6280  178.6390  140.8640 C   0  0  0  0  0  0  0  0  0  0  0  0
  184.4240  178.9760  141.4850 C   0  0  0  0  0  3  0  0  0  0  0  0
  189.4140  178.7240  139.1240 C   0  0  0  0  0  2  0  0  0  0  0  0
  188.4270  176.9370  136.2930 C   0  0  0  0  0  0  0  0  0  0  0  0
  189.3840  177.9850  136.7600 C   0  0  0  0  0  2  0  0  0  0  0  0
  189.1370  177.9300  141.9890 C   0  0  0  0  0  2  0  0  0  0  0  0
  188.7010  175.6630  142.5380 O   0  0  0  0  0  0  0  0  0  0  0  0
  188.8350  176.8390  142.9690 C   0  0  0  0  0  0  0  0  0  0  0  0
  188.3780  177.7310  147.1480 C   0  0  0  0  0  0  0  0  0  0  0  0
  187.4480  177.4250  144.9400 C   0  0  0  0  0  3  0  0  0  0  0  0
  191.4660  176.7480  144.7790 Cl  0  0  0  0  0  0  0  0  0  0  0  0
  188.1660  178.0980  148.8450 Cl  0  0  0  0  0  0  0  0  0  0  0  0
  187.2760  177.7180  146.2930 C   0  0  0  0  0  3  0  0  0  0  0  0
  189.8330  177.1490  145.2940 C   0  0  0  0  0  0  0  0  0  0  0  0
  188.7190  177.1390  144.4170 C   0  0  0  0  0  0  0  0  0  0  0  0
  189.6490  177.4430  146.6490 C   0  0  0  0  0  3  0  0  0  0  0  0
  1  6  1  0  0  0  0
  2  3  1  1  0  0  0
  2  5  1  0  0  0  0
  2 13  1  0  0  0  0
  5 16  2  0  0  0  0
  6 17  2  0  0  0  0
  7  4  1  1  0  0  0
  7  3  1  0  0  0  0
  8 12  2  0  0  0  0
  8 21  1  0  0  0  0
  9  1  1  0  0  0  0
 10 18  1  0  0  0  0
 11 15  1  0  0  0  0
 11  4  2  0  0  0  0
 13  8  1  0  0  0  0
 14  1  2  0  0  0  0
 14  5  1  0  0  0  0
 15 19  2  0  0  0  0
 16 17  1  0  0  0  0
 16 12  1  0  0  0  0
 18 13  1  0  0  0  0
 19 20  1  0  0  0  0
 19  7  1  0  0  0  0
 20 10  1  0  0  0  0
 21 23  1  0  0  0  0
 22 23  2  0  0  0  0
 23 30  1  0  0  0  0
 24 27  1  0  0  0  0
 25 28  1  0  0  0  0
 26 29  1  0  0  0  0
 28 24  2  0  0  0  0
 29 31  2  0  0  0  0
 30 25  2  0  0  0  0
 30 29  1  0  0  0  0
 31 24  1  0  0  0  0
M  END
>  <MODEL>
4

>  <REMARK>
 VINA RESULT:      -8.2      2.616      3.628
  Name = 
  3 active torsions:
  status: ('A' for Active; 'I' for Inactive)
    1  A    between atoms: C_9  and  C_22
    2  A    between atoms: C_9  and  C_23
    3  A    between atoms: C_15  and  C_23
                            x       y       z     vdW  Elec       q    Type
                         _______ _______ _______ _____ _____    ______ ____

>  <TORSDO>
F 3

$$$$
=
 OpenBabel10262419283D

 31 35  0  0  1  0  0  0  0  0999 V2000
  184.8520  178.4300  143.7480 C   0  0  0  0  0  0  0  0  0  0  0  0
  188.3940  177.5190  142.7480 C   0  0  1  0  0  3  0  0  0  0  0  0
  189.2580  178.4660  143.5700 C   0  0  0  0  0  2  0  0  0  0  0  0
  190.3270  178.2200  145.7900 C   0  0  0  0  0  3  0  0  0  0  0  0
  186.9910  178.0500  142.7050 C   0  0  0  0  0  0  0  0  0  0  0  0
  184.4690  179.1750  142.6760 N   0  0  0  0  0  0  0  0  0  0  0  0
  190.0830  177.7410  144.5840 C   0  0  0  0  0  0  0  0  0  0  0  0
  188.5590  178.3510  140.3700 C   0  0  0  0  0  0  0  0  0  0  0  0
  183.9590  178.2410  144.8380 N   0  0  0  0  0  1  0  0  0  0  0  0
  191.1230  176.3780  141.9230 C   0  0  0  0  0  2  0  0  0  0  0  0
  191.2920  177.2970  146.4690 C   0  0  0  0  0  2  0  0  0  0  0  0
  187.4370  178.9970  140.4800 N   0  0  0  0  0  0  0  0  0  0  0  0
  188.9540  177.4140  141.3950 N   0  0  0  0  0  0  0  0  0  0  0  0
  186.1270  177.8590  143.7850 C   0  0  0  0  0  3  0  0  0  0  0  0
  191.5650  176.2750  145.4660 N   0  0  0  0  0  0  0  0  0  0  0  0
  186.5740  178.8190  141.6090 C   0  0  0  0  0  0  0  0  0  0  0  0
  185.2950  179.3790  141.6150 C   0  0  0  0  0  3  0  0  0  0  0  0
  189.8640  176.3190  141.0730 C   0  0  0  0  0  2  0  0  0  0  0  0
  190.8950  176.5470  144.3990 C   0  0  0  0  0  0  0  0  0  0  0  0
  190.8860  175.6290  143.2210 C   0  0  0  0  0  2  0  0  0  0  0  0
  189.3850  178.5420  139.1380 C   0  0  0  0  0  2  0  0  0  0  0  0
  188.3000  179.3930  137.2060 O   0  0  0  0  0  0  0  0  0  0  0  0
  188.5470  178.3760  137.9080 C   0  0  0  0  0  0  0  0  0  0  0  0
  187.1970  174.4630  136.7550 C   0  0  0  0  0  0  0  0  0  0  0  0
  188.9730  176.0310  137.2220 C   0  0  0  0  0  3  0  0  0  0  0  0
  185.3920  177.8820  137.8320 Cl  0  0  0  0  0  0  0  0  0  0  0  0
  186.6720  172.8620  136.2830 Cl  0  0  0  0  0  0  0  0  0  0  0  0
  188.5580  174.7530  136.8440 C   0  0  0  0  0  3  0  0  0  0  0  0
  186.6590  176.7320  137.4290 C   0  0  0  0  0  0  0  0  0  0  0  0
  188.0400  177.0380  137.5170 C   0  0  0  0  0  0  0  0  0  0  0  0
  186.2540  175.4480  137.0510 C   0  0  0  0  0  3  0  0  0  0  0  0
  1 14  1  0  0  0  0
  1  9  1  0  0  0  0
  2  3  1  1  0  0  0
  3  7  1  0  0  0  0
  4 11  1  0  0  0  0
  5  2  1  0  0  0  0
  5 14  2  0  0  0  0
  6  1  2  0  0  0  0
  7  4  2  0  0  0  0
  8 12  2  0  0  0  0
  8 13  1  0  0  0  0
 10 20  1  0  0  0  0
 12 16  1  0  0  0  0
 13  2  1  0  0  0  0
 15 11  1  0  0  0  0
 16 17  2  0  0  0  0
 16  5  1  0  0  0  0
 17  6  1  0  0  0  0
 18 13  1  0  0  0  0
 18 10  1  0  0  0  0
 19  7  1  0  0  0  0
 19 15  2  0  0  0  0
 20 19  1  0  0  0  0
 21  8  1  0  0  0  0
 22 23  2  0  0  0  0
 23 21  1  0  0  0  0
 24 28  2  0  0  0  0
 24 31  1  0  0  0  0
 25 30  2  0  0  0  0
 27 24  1  0  0  0  0
 28 25  1  0  0  0  0
 29 30  1  0  0  0  0
 29 26  1  0  0  0  0
 30 23  1  0  0  0  0
 31 29  2  0  0  0  0
M  END
>  <MODEL>
5

>  <REMARK>
 VINA RESULT:      -8.0      3.986      7.386
  Name = 
  3 active torsions:
  status: ('A' for Active; 'I' for Inactive)
    1  A    between atoms: C_9  and  C_22
    2  A    between atoms: C_9  and  C_23
    3  A    between atoms: C_15  and  C_23
                            x       y       z     vdW  Elec       q    Type
                         _______ _______ _______ _____ _____    ______ ____

>  <TORSDO>
F 3

$$$$
=
 OpenBabel10262419283D

 31 35  0  0  1  0  0  0  0  0999 V2000
  183.6240  177.5670  136.7500 C   0  0  0  0  0  0  0  0  0  0  0  0
  187.3430  177.0210  137.2420 C   0  0  1  0  0  3  0  0  0  0  0  0
  187.4500  175.5420  137.5900 C   0  0  0  0  0  2  0  0  0  0  0  0
  187.8230  173.5370  136.1860 C   0  0  0  0  0  3  0  0  0  0  0  0
  185.9280  177.4710  137.4520 C   0  0  0  0  0  0  0  0  0  0  0  0
  183.2960  178.1640  137.9280 N   0  0  0  0  0  0  0  0  0  0  0  0
  188.1660  174.7630  136.5350 C   0  0  2  0  0  3  0  0  0  0  0  0
  187.8320  178.2540  139.3900 C   0  0  0  0  0  0  0  0  0  0  0  0
  182.6160  177.3020  135.7830 N   0  0  0  0  0  1  0  0  0  0  0  0
  190.4080  176.8540  137.3200 C   0  0  0  0  0  2  0  0  0  0  0  0
  188.8400  173.0300  135.2100 C   0  0  0  0  0  3  0  0  0  0  0  0
  186.5650  178.4010  139.6370 N   0  0  0  0  0  0  0  0  0  0  0  0
  188.2650  177.7800  138.0970 N   0  0  0  0  0  0  0  0  0  0  0  0
  184.9480  177.2010  136.4930 C   0  0  0  0  0  3  0  0  0  0  0  0
  189.7950  174.1260  135.0990 N   0  0  0  0  0  0  0  0  0  0  0  0
  185.5680  178.0890  138.6580 C   0  0  0  0  0  0  0  0  0  0  0  0
  184.2320  178.4310  138.8790 C   0  0  0  0  0  3  0  0  0  0  0  0
  189.5990  178.1100  137.6050 C   0  0  0  0  0  2  0  0  0  0  0  0
  189.4180  175.0890  135.8670 C   0  0  0  0  0  0  0  0  0  0  0  0
  190.1380  176.3970  135.8990 C   0  0  0  0  0  2  0  0  0  0  0  0
  188.8240  178.6520  140.4370 C   0  0  0  0  0  2  0  0  0  0  0  0
  189.7610  176.4990  140.7820 O   0  0  0  0  0  0  0  0  0  0  0  0
  189.1750  177.4840  141.3050 C   0  0  0  0  0  0  0  0  0  0  0  0
  188.1380  177.5040  145.4750 C   0  0  0  0  0  0  0  0  0  0  0  0
  187.5670  177.1280  143.1590 C   0  0  0  0  0  3  0  0  0  0  0  0
  191.4640  178.3060  143.3770 Cl  0  0  0  0  0  0  0  0  0  0  0  0
  187.6910  177.5050  147.1670 Cl  0  0  0  0  0  0  0  0  0  0  0  0
  187.2070  177.1280  144.5070 C   0  0  0  0  0  3  0  0  0  0  0  0
  189.7990  177.8770  143.7450 C   0  0  0  0  0  0  0  0  0  0  0  0
  188.8580  177.5010  142.7540 C   0  0  0  0  0  0  0  0  0  0  0  0
  189.4280  177.8720  145.0940 C   0  0  0  0  0  3  0  0  0  0  0  0
  1  6  1  0  0  0  0
  2  5  1  0  0  0  0
  2  3  1  1  0  0  0
  2 13  1  0  0  0  0
  5 16  2  0  0  0  0
  6 17  2  0  0  0  0
  7  4  1  1  0  0  0
  7  3  1  0  0  0  0
  8 12  2  0  0  0  0
  8 21  1  0  0  0  0
  9  1  1  0  0  0  0
 10 18  1  0  0  0  0
 11  4  2  0  0  0  0
 13  8  1  0  0  0  0
 14  1  2  0  0  0  0
 14  5  1  0  0  0  0
 15 11  1  0  0  0  0
 15 19  2  0  0  0  0
 16 17  1  0  0  0  0
 16 12  1  0  0  0  0
 18 13  1  0  0  0  0
 19 20  1  0  0  0  0
 19  7  1  0  0  0  0
 20 10  1  0  0  0  0
 21 23  1  0  0  0  0
 22 23  2  0  0  0  0
 23 30  1  0  0  0  0
 24 27  1  0  0  0  0
 25 28  1  0  0  0  0
 26 29  1  0  0  0  0
 28 24  2  0  0  0  0
 29 31  2  0  0  0  0
 30 25  2  0  0  0  0
 30 29  1  0  0  0  0
 31 24  1  0  0  0  0
M  END
>  <MODEL>
6

>  <REMARK>
 VINA RESULT:      -7.9      2.326      3.144
  Name = 
  3 active torsions:
  status: ('A' for Active; 'I' for Inactive)
    1  A    between atoms: C_9  and  C_22
    2  A    between atoms: C_9  and  C_23
    3  A    between atoms: C_15  and  C_23
                            x       y       z     vdW  Elec       q    Type
                         _______ _______ _______ _____ _____    ______ ____

>  <TORSDO>
F 3

$$$$
=
 OpenBabel10262419283D

 31 35  0  0  1  0  0  0  0  0999 V2000
  191.4000  177.5150  141.5250 C   0  0  0  0  0  0  0  0  0  0  0  0
  189.9700  177.5060  145.0370 C   0  0  1  0  0  3  0  0  0  0  0  0
  190.3360  176.1280  145.5740 C   0  0  0  0  0  2  0  0  0  0  0  0
  192.2850  175.3280  146.8760 C   0  0  0  0  0  3  0  0  0  0  0  0
  190.0770  177.4910  143.5410 C   0  0  0  0  0  0  0  0  0  0  0  0
  190.2740  177.2970  140.7920 N   0  0  0  0  0  0  0  0  0  0  0  0
  191.3130  176.2040  146.7030 C   0  0  0  0  0  0  0  0  0  0  0  0
  187.4760  177.4340  144.6490 C   0  0  0  0  0  0  0  0  0  0  0  0
  192.6590  177.6350  140.8760 N   0  0  0  0  0  1  0  0  0  0  0  0
  188.9270  177.9080  147.8970 C   0  0  0  0  0  2  0  0  0  0  0  0
  192.9660  175.6390  148.1730 C   0  0  0  0  0  2  0  0  0  0  0  0
  187.6440  177.1800  143.3860 N   0  0  0  0  0  0  0  0  0  0  0  0
  188.6020  177.8340  145.4590 N   0  0  0  0  0  0  0  0  0  0  0  0
  191.3220  177.6080  142.9180 C   0  0  0  0  0  3  0  0  0  0  0  0
  192.2180  176.7760  148.6970 N   0  0  0  0  0  0  0  0  0  0  0  0
  188.9300  177.2690  142.7650 C   0  0  0  0  0  0  0  0  0  0  0  0
  189.0520  177.1750  141.3770 C   0  0  0  0  0  3  0  0  0  0  0  0
  188.3900  178.6250  146.6680 C   0  0  0  0  0  2  0  0  0  0  0  0
  191.2750  177.0720  147.8720 C   0  0  0  0  0  0  0  0  0  0  0  0
  190.3920  178.2590  148.0800 C   0  0  0  0  0  2  0  0  0  0  0  0
  186.0960  177.3770  145.2220 C   0  0  0  0  0  2  0  0  0  0  0  0
  185.1120  179.4900  145.6680 O   0  0  0  0  0  0  0  0  0  0  0  0
  185.3040  178.5810  144.8170 C   0  0  0  0  0  0  0  0  0  0  0  0
  183.8970  178.9610  140.7740 C   0  0  0  0  0  0  0  0  0  0  0  0
  185.6960  178.8390  142.3810 C   0  0  0  0  0  3  0  0  0  0  0  0
  182.1450  178.4760  144.3520 Cl  0  0  0  0  0  0  0  0  0  0  0  0
  183.3500  179.1170  139.1200 Cl  0  0  0  0  0  0  0  0  0  0  0  0
  185.2620  178.9650  141.0610 C   0  0  0  0  0  3  0  0  0  0  0  0
  183.3930  178.6970  143.1330 C   0  0  0  0  0  0  0  0  0  0  0  0
  184.7780  178.7060  143.4350 C   0  0  0  0  0  0  0  0  0  0  0  0
  182.9690  178.8230  141.8060 C   0  0  0  0  0  3  0  0  0  0  0  0
  1 14  1  0  0  0  0
  2 13  1  0  0  0  0
  2  3  1  6  0  0  0
  3  7  1  0  0  0  0
  4 11  1  0  0  0  0
  5  2  1  0  0  0  0
  6 17  1  0  0  0  0
  6  1  2  0  0  0  0
  7  4  2  0  0  0  0
  7 19  1  0  0  0  0
  8 21  1  0  0  0  0
  8 13  1  0  0  0  0
  9  1  1  0  0  0  0
 10 20  1  0  0  0  0
 11 15  1  0  0  0  0
 12  8  2  0  0  0  0
 13 18  1  0  0  0  0
 14  5  2  0  0  0  0
 16 12  1  0  0  0  0
 16  5  1  0  0  0  0
 17 16  2  0  0  0  0
 18 10  1  0  0  0  0
 19 20  1  0  0  0  0
 19 15  2  0  0  0  0
 23 21  1  0  0  0  0
 23 22  2  0  0  0  0
 24 28  2  0  0  0  0
 24 31  1  0  0  0  0
 25 30  2  0  0  0  0
 27 24  1  0  0  0  0
 28 25  1  0  0  0  0
 29 30  1  0  0  0  0
 29 26  1  0  0  0  0
 30 23  1  0  0  0  0
 31 29  2  0  0  0  0
M  END
>  <MODEL>
7

>  <REMARK>
 VINA RESULT:      -7.7      4.255      7.700
  Name = 
  3 active torsions:
  status: ('A' for Active; 'I' for Inactive)
    1  A    between atoms: C_9  and  C_22
    2  A    between atoms: C_9  and  C_23
    3  A    between atoms: C_15  and  C_23
                            x       y       z     vdW  Elec       q    Type
                         _______ _______ _______ _____ _____    ______ ____

>  <TORSDO>
F 3

$$$$
=
 OpenBabel10262419283D

 31 35  0  0  1  0  0  0  0  0999 V2000
  191.2480  176.9070  145.7650 C   0  0  0  0  0  0  0  0  0  0  0  0
  188.3660  177.8530  143.4900 C   0  0  1  0  0  3  0  0  0  0  0  0
  187.2210  176.9700  143.9680 C   0  0  0  0  0  2  0  0  0  0  0  0
  185.4190  177.3540  145.6220 C   0  0  0  0  0  3  0  0  0  0  0  0
  189.6620  177.2860  143.9890 C   0  0  0  0  0  0  0  0  0  0  0  0
  191.9680  176.0990  144.9400 N   0  0  0  0  0  0  0  0  0  0  0  0
  186.1110  177.7640  144.5750 C   0  0  0  0  0  0  0  0  0  0  0  0
  189.0570  176.9060  141.2530 C   0  0  0  0  0  0  0  0  0  0  0  0
  191.6810  177.1280  147.1010 N   0  0  0  0  0  1  0  0  0  0  0  0
  186.1840  179.0160  141.6690 C   0  0  0  0  0  2  0  0  0  0  0  0
  184.3110  178.3330  145.8600 C   0  0  0  0  0  2  0  0  0  0  0  0
  190.0310  176.2390  141.7960 N   0  0  0  0  0  0  0  0  0  0  0  0
  188.3500  177.9020  142.0220 N   0  0  0  0  0  0  0  0  0  0  0  0
  190.0740  177.5100  145.3060 C   0  0  0  0  0  3  0  0  0  0  0  0
  184.4700  179.3100  144.7890 N   0  0  0  0  0  0  0  0  0  0  0  0
  190.4220  176.4520  143.1560 C   0  0  0  0  0  0  0  0  0  0  0  0
  191.5840  175.8620  143.6570 C   0  0  0  0  0  3  0  0  0  0  0  0
  187.6700  179.0020  141.3450 C   0  0  0  0  0  2  0  0  0  0  0  0
  185.4740  178.9670  144.0580 C   0  0  0  0  0  0  0  0  0  0  0  0
  185.9560  179.8240  142.9330 C   0  0  0  0  0  2  0  0  0  0  0  0
  188.7370  176.6740  139.8110 C   0  0  0  0  0  2  0  0  0  0  0  0
  189.4890  178.6990  138.8270 O   0  0  0  0  0  0  0  0  0  0  0  0
  189.6620  177.4550  138.9310 C   0  0  0  0  0  0  0  0  0  0  0  0
  192.7940  175.4540  136.7730 C   0  0  0  0  0  0  0  0  0  0  0  0
  190.4950  176.1640  136.9840 C   0  0  0  0  0  3  0  0  0  0  0  0
  192.5850  177.5030  140.2180 Cl  0  0  0  0  0  0  0  0  0  0  0  0
  194.0520  174.6330  135.8760 Cl  0  0  0  0  0  0  0  0  0  0  0  0
  191.4960  175.5080  136.2660 C   0  0  0  0  0  3  0  0  0  0  0  0
  192.0950  176.7230  138.7210 C   0  0  0  0  0  0  0  0  0  0  0  0
  190.7720  176.7780  138.2160 C   0  0  0  0  0  0  0  0  0  0  0  0
  193.0910  176.0640  137.9930 C   0  0  0  0  0  3  0  0  0  0  0  0
  1  9  1  0  0  0  0
  2  3  1  6  0  0  0
  2  5  1  0  0  0  0
  3  7  1  0  0  0  0
  4 11  1  0  0  0  0
  5 14  2  0  0  0  0
  6  1  2  0  0  0  0
  7  4  2  0  0  0  0
  8 12  2  0  0  0  0
  8 13  1  0  0  0  0
 10 20  1  0  0  0  0
 12 16  1  0  0  0  0
 13  2  1  0  0  0  0
 14  1  1  0  0  0  0
 15 11  1  0  0  0  0
 16 17  2  0  0  0  0
 16  5  1  0  0  0  0
 17  6  1  0  0  0  0
 18 10  1  0  0  0  0
 18 13  1  0  0  0  0
 19  7  1  0  0  0  0
 19 15  2  0  0  0  0
 20 19  1  0  0  0  0
 21  8  1  0  0  0  0
 22 23  2  0  0  0  0
 23 21  1  0  0  0  0
 24 31  1  0  0  0  0
 25 30  2  0  0  0  0
 27 24  1  0  0  0  0
 28 24  2  0  0  0  0
 28 25  1  0  0  0  0
 29 26  1  0  0  0  0
 30 29  1  0  0  0  0
 30 23  1  0  0  0  0
 31 29  2  0  0  0  0
M  END
>  <MODEL>
8

>  <REMARK>
 VINA RESULT:      -7.6      3.413      8.542
  Name = 
  3 active torsions:
  status: ('A' for Active; 'I' for Inactive)
    1  A    between atoms: C_9  and  C_22
    2  A    between atoms: C_9  and  C_23
    3  A    between atoms: C_15  and  C_23
                            x       y       z     vdW  Elec       q    Type
                         _______ _______ _______ _____ _____    ______ ____

>  <TORSDO>
F 3

$$$$
=
 OpenBabel10262419283D

 31 35  0  0  1  0  0  0  0  0999 V2000
  186.5340  177.4920  137.4150 C   0  0  0  0  0  0  0  0  0  0  0  0
  183.7590  178.5990  139.7500 C   0  0  1  0  0  3  0  0  0  0  0  0
  183.3230  179.9440  139.1830 C   0  0  0  0  0  2  0  0  0  0  0  0
  181.5570  180.5580  137.5600 C   0  0  0  0  0  3  0  0  0  0  0  0
  185.1160  178.2570  139.2080 C   0  0  0  0  0  0  0  0  0  0  0  0
  187.6300  177.7860  138.1660 N   0  0  0  0  0  0  0  0  0  0  0  0
  181.9290  179.9050  138.6460 C   0  0  2  0  0  3  0  0  0  0  0  0
  184.9820  179.1360  141.8920 C   0  0  0  0  0  0  0  0  0  0  0  0
  186.6900  176.9530  136.1090 N   0  0  0  0  0  1  0  0  0  0  0  0
  181.4020  179.0840  141.6570 C   0  0  0  0  0  2  0  0  0  0  0  0
  180.0750  180.3990  137.4080 C   0  0  0  0  0  3  0  0  0  0  0  0
  186.1340  179.0600  141.2960 N   0  0  0  0  0  0  0  0  0  0  0  0
  183.7900  178.6850  141.2160 N   0  0  0  0  0  0  0  0  0  0  0  0
  185.2530  177.7300  137.9210 C   0  0  0  0  0  3  0  0  0  0  0  0
  179.6880  179.6030  138.5670 N   0  0  0  0  0  0  0  0  0  0  0  0
  186.2600  178.5500  139.9640 C   0  0  0  0  0  0  0  0  0  0  0  0
  187.5210  178.3050  139.4180 C   0  0  0  0  0  3  0  0  0  0  0  0
  182.6300  178.2510  141.9880 C   0  0  0  0  0  2  0  0  0  0  0  0
  180.7370  179.3490  139.2690 C   0  0  0  0  0  0  0  0  0  0  0  0
  180.6820  178.4650  140.4720 C   0  0  0  0  0  2  0  0  0  0  0  0
  184.9300  179.6260  143.3050 C   0  0  0  0  0  2  0  0  0  0  0  0
  184.0650  177.8780  144.6580 O   0  0  0  0  0  0  0  0  0  0  0  0
  185.0940  178.4890  144.2650 C   0  0  0  0  0  0  0  0  0  0  0  0
  189.0280  177.2610  145.4840 C   0  0  0  0  0  0  0  0  0  0  0  0
  187.3200  177.5000  143.7940 C   0  0  0  0  0  3  0  0  0  0  0  0
  185.9170  179.0240  147.3060 Cl  0  0  0  0  0  0  0  0  0  0  0  0
  190.6340  176.7520  145.9550 Cl  0  0  0  0  0  0  0  0  0  0  0  0
  188.6010  177.0930  144.1670 C   0  0  0  0  0  3  0  0  0  0  0  0
  186.8900  178.2540  146.0600 C   0  0  0  0  0  0  0  0  0  0  0  0
  186.4450  178.0820  144.7250 C   0  0  0  0  0  0  0  0  0  0  0  0
  188.1770  177.8430  146.4230 C   0  0  0  0  0  3  0  0  0  0  0  0
  1 14  2  0  0  0  0
  1  6  1  0  0  0  0
  2  3  1  6  0  0  0
  2 13  1  0  0  0  0
  5  2  1  0  0  0  0
  5 16  2  0  0  0  0
  6 17  2  0  0  0  0
  7  4  1  1  0  0  0
  7  3  1  0  0  0  0
  7 19  1  0  0  0  0
  8 21  1  0  0  0  0
  9  1  1  0  0  0  0
 10 18  1  0  0  0  0
 11  4  2  0  0  0  0
 11 15  1  0  0  0  0
 12  8  2  0  0  0  0
 13  8  1  0  0  0  0
 13 18  1  0  0  0  0
 14  5  1  0  0  0  0
 15 19  2  0  0  0  0
 16 12  1  0  0  0  0
 17 16  1  0  0  0  0
 19 20  1  0  0  0  0
 20 10  1  0  0  0  0
 21 23  1  0  0  0  0
 23 22  2  0  0  0  0
 23 30  1  0  0  0  0
 24 27  1  0  0  0  0
 24 31  1  0  0  0  0
 25 28  1  0  0  0  0
 25 30  2  0  0  0  0
 28 24  2  0  0  0  0
 29 31  2  0  0  0  0
 29 26  1  0  0  0  0
 30 29  1  0  0  0  0
M  END
>  <MODEL>
9

>  <REMARK>
 VINA RESULT:      -7.5      4.073      7.668
  Name = 
  3 active torsions:
  status: ('A' for Active; 'I' for Inactive)
    1  A    between atoms: C_9  and  C_22
    2  A    between atoms: C_9  and  C_23
    3  A    between atoms: C_15  and  C_23
                            x       y       z     vdW  Elec       q    Type
                         _______ _______ _______ _____ _____    ______ ____

>  <TORSDO>
F 3

$$$$
