=
 OpenBabel10262420123D

 27 31  0  0  0  0  0  0  0  0999 V2000
  190.3990  177.9690  142.2300 C   0  0  0  0  0  2  0  0  0  0  0  0
  188.1170  178.1100  141.2440 C   0  0  0  0  0  0  0  0  0  0  0  0
  187.6070  177.6180  143.5660 O   0  0  0  0  0  0  0  0  0  0  0  0
  187.3870  178.5850  140.1200 N   0  0  0  0  0  0  0  0  0  0  0  0
  190.2090  176.1650  147.2940 F   0  0  0  0  0  0  0  0  0  0  0  0
  190.1740  176.8800  146.1450 C   0  0  0  0  0  0  0  0  0  0  0  0
  189.4730  177.6460  141.1830 N   0  0  0  0  0  0  0  0  0  0  0  0
  186.0430  178.5530  141.8690 N   0  0  0  0  0  0  0  0  0  0  0  0
  190.1420  177.9530  143.5370 C   0  0  0  0  0  0  0  0  0  0  0  0
  187.3230  178.0870  142.2830 C   0  0  0  0  0  0  0  0  0  0  0  0
  188.9100  176.9940  145.3950 C   0  0  0  0  0  2  0  0  0  0  0  0
  186.0630  178.8810  140.4990 N   0  0  0  0  0  0  0  0  0  0  0  0
  191.2910  177.4500  145.6850 C   0  0  0  0  0  3  0  0  0  0  0  0
  191.2830  178.3060  144.4490 C   0  0  0  0  0  2  0  0  0  0  0  0
  188.8660  177.5020  144.1600 C   0  0  0  0  0  0  0  0  0  0  0  0
  183.5970  178.6510  142.0940 C   0  0  0  0  0  3  0  0  0  0  0  0
  182.5570  178.9710  144.2570 C   0  0  0  0  0  3  0  0  0  0  0  0
  183.8180  179.0150  144.8560 C   0  0  0  0  0  3  0  0  0  0  0  0
  184.9690  178.8770  144.0740 C   0  0  0  0  0  3  0  0  0  0  0  0
  184.8690  178.6930  142.6860 C   0  0  0  0  0  0  0  0  0  0  0  0
  182.4460  178.7880  142.8760 C   0  0  0  0  0  3  0  0  0  0  0  0
  191.0230  176.1140  137.5230 C   0  0  0  0  0  3  0  0  0  0  0  0
  189.9970  177.1090  139.9480 C   0  0  0  0  0  0  0  0  0  0  0  0
  191.3840  177.0490  139.7260 C   0  0  0  0  0  3  0  0  0  0  0  0
  191.8940  176.5510  138.5230 C   0  0  0  0  0  3  0  0  0  0  0  0
  189.6420  176.1760  137.7240 C   0  0  0  0  0  3  0  0  0  0  0  0
  189.1320  176.6740  138.9280 C   0  0  0  0  0  3  0  0  0  0  0  0
  1  9  1  0  0  0  0
  2 10  2  0  0  0  0
  3 15  1  0  0  0  0
  4 12  2  0  0  0  0
  4  2  1  0  0  0  0
  6  5  1  0  0  0  0
  7  2  1  0  0  0  0
  7  1  1  0  0  0  0
  8 10  1  0  0  0  0
  8 20  1  0  0  0  0
  9 15  2  0  0  0  0
  9 14  1  0  0  0  0
 10  3  1  0  0  0  0
 11  6  1  0  0  0  0
 12  8  1  0  0  0  0
 13  6  2  0  0  0  0
 14 13  1  0  0  0  0
 15 11  1  0  0  0  0
 16 20  2  0  0  0  0
 16 21  1  0  0  0  0
 17 18  1  0  0  0  0
 19 18  2  0  0  0  0
 20 19  1  0  0  0  0
 21 17  2  0  0  0  0
 22 26  2  0  0  0  0
 22 25  1  0  0  0  0
 23  7  1  0  0  0  0
 24 23  1  0  0  0  0
 25 24  2  0  0  0  0
 26 27  1  0  0  0  0
 27 23  2  0  0  0  0
M  END
>  <MODEL>
1

>  <REMARK>
 VINA RESULT:     -10.1      0.000      0.000
  Name = 
  2 active torsions:
  status: ('A' for Active; 'I' for Inactive)
    1  A    between atoms: C_9  and  N_15
    2  A    between atoms: C_14  and  N_17
                            x       y       z     vdW  Elec       q    Type
                         _______ _______ _______ _____ _____    ______ ____

>  <TORSDO>
F 2

$$$$
=
 OpenBabel10262420123D

 27 31  0  0  0  0  0  0  0  0999 V2000
  190.6070  177.8810  142.3010 C   0  0  0  0  0  2  0  0  0  0  0  0
  188.4110  178.0610  141.1390 C   0  0  0  0  0  0  0  0  0  0  0  0
  187.7120  177.5980  143.4170 O   0  0  0  0  0  0  0  0  0  0  0  0
  187.7820  178.5430  139.9590 N   0  0  0  0  0  0  0  0  0  0  0  0
  189.9850  176.1200  147.3460 F   0  0  0  0  0  0  0  0  0  0  0  0
  190.0550  176.8270  146.1930 C   0  0  0  0  0  0  0  0  0  0  0  0
  189.7580  177.5690  141.1870 N   0  0  0  0  0  0  0  0  0  0  0  0
  186.3050  178.5520  141.5990 N   0  0  0  0  0  0  0  0  0  0  0  0
  190.2480  177.8800  143.5840 C   0  0  0  0  0  0  0  0  0  0  0  0
  187.5390  178.0630  142.1140 C   0  0  0  0  0  0  0  0  0  0  0  0
  188.8550  176.9610  145.3470 C   0  0  0  0  0  2  0  0  0  0  0  0
  186.4390  178.8690  140.2320 N   0  0  0  0  0  0  0  0  0  0  0  0
  191.2160  177.3700  145.8180 C   0  0  0  0  0  3  0  0  0  0  0  0
  191.3220  178.2170  144.5800 C   0  0  0  0  0  2  0  0  0  0  0  0
  188.9190  177.4610  144.1080 C   0  0  0  0  0  0  0  0  0  0  0  0
  185.1000  179.1540  143.6550 C   0  0  0  0  0  3  0  0  0  0  0  0
  182.6830  179.0610  143.7550 C   0  0  0  0  0  3  0  0  0  0  0  0
  182.6450  178.6310  142.4270 C   0  0  0  0  0  3  0  0  0  0  0  0
  183.8350  178.4630  141.7120 C   0  0  0  0  0  3  0  0  0  0  0  0
  185.0740  178.7230  142.3200 C   0  0  0  0  0  0  0  0  0  0  0  0
  183.9100  179.3220  144.3700 C   0  0  0  0  0  3  0  0  0  0  0  0
  191.5480  175.8750  137.7130 C   0  0  0  0  0  3  0  0  0  0  0  0
  190.3640  177.0120  140.0000 C   0  0  0  0  0  0  0  0  0  0  0  0
  189.5840  176.3240  139.0540 C   0  0  0  0  0  3  0  0  0  0  0  0
  190.1710  175.7630  137.9160 C   0  0  0  0  0  3  0  0  0  0  0  0
  192.3390  176.5470  138.6480 C   0  0  0  0  0  3  0  0  0  0  0  0
  191.7510  177.1080  139.7860 C   0  0  0  0  0  3  0  0  0  0  0  0
  1  9  1  0  0  0  0
  2  7  1  0  0  0  0
  2 10  2  0  0  0  0
  3 15  1  0  0  0  0
  4 12  2  0  0  0  0
  4  2  1  0  0  0  0
  6  5  1  0  0  0  0
  7  1  1  0  0  0  0
  8 10  1  0  0  0  0
  8 20  1  0  0  0  0
  9 15  2  0  0  0  0
  9 14  1  0  0  0  0
 10  3  1  0  0  0  0
 11  6  1  0  0  0  0
 12  8  1  0  0  0  0
 13  6  2  0  0  0  0
 14 13  1  0  0  0  0
 15 11  1  0  0  0  0
 16 21  1  0  0  0  0
 17 21  2  0  0  0  0
 18 17  1  0  0  0  0
 19 20  1  0  0  0  0
 19 18  2  0  0  0  0
 20 16  2  0  0  0  0
 22 25  2  0  0  0  0
 22 26  1  0  0  0  0
 23  7  1  0  0  0  0
 24 23  2  0  0  0  0
 25 24  1  0  0  0  0
 26 27  2  0  0  0  0
 27 23  1  0  0  0  0
M  END
>  <MODEL>
2

>  <REMARK>
 VINA RESULT:      -9.9      0.400      1.365
  Name = 
  2 active torsions:
  status: ('A' for Active; 'I' for Inactive)
    1  A    between atoms: C_9  and  N_15
    2  A    between atoms: C_14  and  N_17
                            x       y       z     vdW  Elec       q    Type
                         _______ _______ _______ _____ _____    ______ ____

>  <TORSDO>
F 2

$$$$
=
 OpenBabel10262420123D

 27 31  0  0  0  0  0  0  0  0999 V2000
  189.8010  177.8210  140.0560 C   0  0  0  0  0  2  0  0  0  0  0  0
  187.3410  178.2060  140.1120 C   0  0  0  0  0  0  0  0  0  0  0  0
  187.7540  177.4090  142.3680 O   0  0  0  0  0  0  0  0  0  0  0  0
  186.2760  178.8710  139.4470 N   0  0  0  0  0  0  0  0  0  0  0  0
  191.4680  175.3180  144.5160 F   0  0  0  0  0  0  0  0  0  0  0  0
  191.0500  176.1920  143.5700 C   0  0  0  0  0  0  0  0  0  0  0  0
  188.5070  177.6950  139.4500 N   0  0  0  0  0  0  0  0  0  0  0  0
  185.7460  178.6490  141.5770 N   0  0  0  0  0  0  0  0  0  0  0  0
  190.0870  177.6290  141.3440 C   0  0  0  0  0  0  0  0  0  0  0  0
  187.0310  178.0700  141.3760 C   0  0  0  0  0  0  0  0  0  0  0  0
  189.6090  176.4690  143.4220 C   0  0  0  0  0  2  0  0  0  0  0  0
  185.2500  179.1690  140.3650 N   0  0  0  0  0  0  0  0  0  0  0  0
  191.9410  176.7700  142.7620 C   0  0  0  0  0  3  0  0  0  0  0  0
  191.5260  177.7950  141.7420 C   0  0  0  0  0  2  0  0  0  0  0  0
  189.1270  177.1520  142.3780 C   0  0  0  0  0  0  0  0  0  0  0  0
  183.6190  178.8600  142.7920 C   0  0  0  0  0  3  0  0  0  0  0  0
  183.5630  178.8790  145.2120 C   0  0  0  0  0  3  0  0  0  0  0  0
  184.9530  178.7440  145.2450 C   0  0  0  0  0  3  0  0  0  0  0  0
  185.6760  178.6670  144.0500 C   0  0  0  0  0  3  0  0  0  0  0  0
  185.0150  178.7240  142.8120 C   0  0  0  0  0  0  0  0  0  0  0  0
  182.8960  178.9360  143.9860 C   0  0  0  0  0  3  0  0  0  0  0  0
  188.3450  176.5460  135.3520 C   0  0  0  0  0  3  0  0  0  0  0  0
  188.4370  177.3170  138.0580 C   0  0  0  0  0  0  0  0  0  0  0  0
  187.7590  176.1490  137.6660 C   0  0  0  0  0  3  0  0  0  0  0  0
  187.7090  175.7680  136.3220 C   0  0  0  0  0  3  0  0  0  0  0  0
  189.0320  177.7030  135.7260 C   0  0  0  0  0  3  0  0  0  0  0  0
  189.0810  178.0840  137.0700 C   0  0  0  0  0  3  0  0  0  0  0  0
  1  9  1  0  0  0  0
  2 10  2  0  0  0  0
  3 15  1  0  0  0  0
  4  2  1  0  0  0  0
  4 12  2  0  0  0  0
  6  5  1  0  0  0  0
  7  1  1  0  0  0  0
  7  2  1  0  0  0  0
  8 20  1  0  0  0  0
  9 14  1  0  0  0  0
  9 15  2  0  0  0  0
 10  8  1  0  0  0  0
 10  3  1  0  0  0  0
 11  6  1  0  0  0  0
 12  8  1  0  0  0  0
 13  6  2  0  0  0  0
 14 13  1  0  0  0  0
 15 11  1  0  0  0  0
 16 20  2  0  0  0  0
 16 21  1  0  0  0  0
 17 18  1  0  0  0  0
 19 18  2  0  0  0  0
 20 19  1  0  0  0  0
 21 17  2  0  0  0  0
 22 26  2  0  0  0  0
 22 25  1  0  0  0  0
 23  7  1  0  0  0  0
 24 23  1  0  0  0  0
 25 24  2  0  0  0  0
 26 27  1  0  0  0  0
 27 23  2  0  0  0  0
M  END
>  <MODEL>
3

>  <REMARK>
 VINA RESULT:      -9.3      1.692      2.288
  Name = 
  2 active torsions:
  status: ('A' for Active; 'I' for Inactive)
    1  A    between atoms: C_9  and  N_15
    2  A    between atoms: C_14  and  N_17
                            x       y       z     vdW  Elec       q    Type
                         _______ _______ _______ _____ _____    ______ ____

>  <TORSDO>
F 2

$$$$
=
 OpenBabel10262420123D

 27 31  0  0  0  0  0  0  0  0999 V2000
  186.1460  178.6640  140.7610 C   0  0  0  0  0  2  0  0  0  0  0  0
  185.4740  178.4140  143.1460 C   0  0  0  0  0  0  0  0  0  0  0  0
  187.7140  177.4780  143.1780 O   0  0  0  0  0  0  0  0  0  0  0  0
  184.5470  178.8680  144.1230 N   0  0  0  0  0  0  0  0  0  0  0  0
  190.7910  176.1320  139.7860 F   0  0  0  0  0  0  0  0  0  0  0  0
  189.8010  176.9830  140.1470 C   0  0  0  0  0  0  0  0  0  0  0  0
  185.1730  178.2940  141.7490 N   0  0  0  0  0  0  0  0  0  0  0  0
  186.4070  178.2640  145.1450 N   0  0  0  0  0  0  0  0  0  0  0  0
  187.4500  178.3940  140.8050 C   0  0  0  0  0  0  0  0  0  0  0  0
  186.5780  178.0530  143.7480 C   0  0  0  0  0  0  0  0  0  0  0  0
  189.2370  176.9090  141.5070 C   0  0  0  0  0  2  0  0  0  0  0  0
  185.1250  178.7880  145.4060 N   0  0  0  0  0  0  0  0  0  0  0  0
  189.3240  177.8590  139.2590 C   0  0  0  0  0  3  0  0  0  0  0  0
  188.2710  178.8640  139.6370 C   0  0  0  0  0  2  0  0  0  0  0  0
  188.1260  177.5710  141.8460 C   0  0  0  0  0  0  0  0  0  0  0  0
  187.0370  178.2670  147.5210 C   0  0  0  0  0  3  0  0  0  0  0  0
  189.2250  177.5110  148.2310 C   0  0  0  0  0  3  0  0  0  0  0  0
  189.5640  177.2460  146.9010 C   0  0  0  0  0  3  0  0  0  0  0  0
  188.6380  177.4920  145.8820 C   0  0  0  0  0  3  0  0  0  0  0  0
  187.3670  178.0040  146.1830 C   0  0  0  0  0  0  0  0  0  0  0  0
  187.9620  178.0210  148.5410 C   0  0  0  0  0  3  0  0  0  0  0  0
  181.1610  177.7090  140.4450 C   0  0  0  0  0  3  0  0  0  0  0  0
  183.8100  178.0830  141.3210 C   0  0  0  0  0  0  0  0  0  0  0  0
  183.5230  177.2270  140.2430 C   0  0  0  0  0  3  0  0  0  0  0  0
  182.2080  177.0380  139.8100 C   0  0  0  0  0  3  0  0  0  0  0  0
  181.4290  178.5710  141.5110 C   0  0  0  0  0  3  0  0  0  0  0  0
  182.7450  178.7590  141.9440 C   0  0  0  0  0  3  0  0  0  0  0  0
  1  9  1  0  0  0  0
  1  7  1  0  0  0  0
  2 10  2  0  0  0  0
  2  4  1  0  0  0  0
  3 10  1  0  0  0  0
  4 12  2  0  0  0  0
  5  6  1  0  0  0  0
  6 11  1  0  0  0  0
  7  2  1  0  0  0  0
  8 12  1  0  0  0  0
  8 20  1  0  0  0  0
  9 15  2  0  0  0  0
 10  8  1  0  0  0  0
 11 15  1  0  0  0  0
 13 14  1  0  0  0  0
 13  6  2  0  0  0  0
 14  9  1  0  0  0  0
 15  3  1  0  0  0  0
 16 21  1  0  0  0  0
 17 21  2  0  0  0  0
 18 17  1  0  0  0  0
 19 20  1  0  0  0  0
 19 18  2  0  0  0  0
 20 16  2  0  0  0  0
 22 26  1  0  0  0  0
 23  7  1  0  0  0  0
 23 27  1  0  0  0  0
 24 23  2  0  0  0  0
 25 24  1  0  0  0  0
 25 22  2  0  0  0  0
 26 27  2  0  0  0  0
M  END
>  <MODEL>
4

>  <REMARK>
 VINA RESULT:      -8.8      2.489      6.129
  Name = 
  2 active torsions:
  status: ('A' for Active; 'I' for Inactive)
    1  A    between atoms: C_9  and  N_15
    2  A    between atoms: C_14  and  N_17
                            x       y       z     vdW  Elec       q    Type
                         _______ _______ _______ _____ _____    ______ ____

>  <TORSDO>
F 2

$$$$
=
 OpenBabel10262420123D

 27 31  0  0  0  0  0  0  0  0999 V2000
  188.5970  176.7000  144.0320 C   0  0  0  0  0  2  0  0  0  0  0  0
  186.3530  177.7800  144.0870 C   0  0  0  0  0  0  0  0  0  0  0  0
  187.0620  178.2600  141.8150 O   0  0  0  0  0  0  0  0  0  0  0  0
  185.1240  177.8200  144.7990 N   0  0  0  0  0  0  0  0  0  0  0  0
  191.2250  177.9310  139.5030 F   0  0  0  0  0  0  0  0  0  0  0  0
  190.4190  177.4240  140.4660 C   0  0  0  0  0  0  0  0  0  0  0  0
  187.6260  177.5230  144.6960 N   0  0  0  0  0  0  0  0  0  0  0  0
  184.7350  178.3580  142.6950 N   0  0  0  0  0  0  0  0  0  0  0  0
  188.8930  176.7300  142.7330 C   0  0  0  0  0  0  0  0  0  0  0  0
  186.1280  178.1000  142.8390 C   0  0  0  0  0  0  0  0  0  0  0  0
  189.0820  178.0090  140.6790 C   0  0  0  0  0  2  0  0  0  0  0  0
  184.0770  178.1790  143.9280 N   0  0  0  0  0  0  0  0  0  0  0  0
  190.8530  176.4220  141.2330 C   0  0  0  0  0  3  0  0  0  0  0  0
  189.9680  175.7870  142.2710 C   0  0  0  0  0  2  0  0  0  0  0  0
  188.3370  177.6930  141.7440 C   0  0  0  0  0  0  0  0  0  0  0  0
  182.6470  178.6580  141.4330 C   0  0  0  0  0  3  0  0  0  0  0  0
  182.6750  179.4820  139.1570 C   0  0  0  0  0  3  0  0  0  0  0  0
  184.0680  179.5690  139.2060 C   0  0  0  0  0  3  0  0  0  0  0  0
  184.7510  179.2010  140.3700 C   0  0  0  0  0  3  0  0  0  0  0  0
  184.0460  178.7420  141.4940 C   0  0  0  0  0  0  0  0  0  0  0  0
  181.9640  179.0270  140.2700 C   0  0  0  0  0  3  0  0  0  0  0  0
  188.2310  178.3960  148.8210 C   0  0  0  0  0  3  0  0  0  0  0  0
  187.8350  177.8370  146.0900 C   0  0  0  0  0  0  0  0  0  0  0  0
  189.0680  177.5640  146.7080 C   0  0  0  0  0  3  0  0  0  0  0  0
  189.2660  177.8450  148.0630 C   0  0  0  0  0  3  0  0  0  0  0  0
  186.9960  178.6640  148.2250 C   0  0  0  0  0  3  0  0  0  0  0  0
  186.7980  178.3830  146.8690 C   0  0  0  0  0  3  0  0  0  0  0  0
  1  7  1  0  0  0  0
  2  7  1  0  0  0  0
  2  4  1  0  0  0  0
  3 10  1  0  0  0  0
  5  6  1  0  0  0  0
  6 11  1  0  0  0  0
  6 13  2  0  0  0  0
  7 23  1  0  0  0  0
  8 10  1  0  0  0  0
  8 12  1  0  0  0  0
  9  1  1  0  0  0  0
 10  2  2  0  0  0  0
 11 15  1  0  0  0  0
 12  4  2  0  0  0  0
 13 14  1  0  0  0  0
 14  9  1  0  0  0  0
 15  3  1  0  0  0  0
 15  9  2  0  0  0  0
 16 20  1  0  0  0  0
 17 18  2  0  0  0  0
 17 21  1  0  0  0  0
 18 19  1  0  0  0  0
 19 20  2  0  0  0  0
 20  8  1  0  0  0  0
 21 16  2  0  0  0  0
 23 24  2  0  0  0  0
 23 27  1  0  0  0  0
 24 25  1  0  0  0  0
 25 22  2  0  0  0  0
 26 22  1  0  0  0  0
 27 26  2  0  0  0  0
M  END
>  <MODEL>
5

>  <REMARK>
 VINA RESULT:      -8.6      2.704      5.666
  Name = 
  2 active torsions:
  status: ('A' for Active; 'I' for Inactive)
    1  A    between atoms: C_9  and  N_15
    2  A    between atoms: C_14  and  N_17
                            x       y       z     vdW  Elec       q    Type
                         _______ _______ _______ _____ _____    ______ ____

>  <TORSDO>
F 2

$$$$
=
 OpenBabel10262420123D

 27 31  0  0  0  0  0  0  0  0999 V2000
  187.0180  178.7420  141.0850 C   0  0  0  0  0  2  0  0  0  0  0  0
  187.0140  178.2010  143.5160 C   0  0  0  0  0  0  0  0  0  0  0  0
  188.9780  176.9920  142.7590 O   0  0  0  0  0  0  0  0  0  0  0  0
  186.4910  178.6070  144.7740 N   0  0  0  0  0  0  0  0  0  0  0  0
  190.6990  175.8260  138.4620 F   0  0  0  0  0  0  0  0  0  0  0  0
  190.0110  176.7270  139.2010 C   0  0  0  0  0  0  0  0  0  0  0  0
  186.3150  178.3460  142.2720 N   0  0  0  0  0  0  0  0  0  0  0  0
  188.4320  177.6130  145.1070 N   0  0  0  0  0  0  0  0  0  0  0  0
  188.2160  178.3040  140.7000 C   0  0  0  0  0  0  0  0  0  0  0  0
  188.1650  177.6090  143.7090 C   0  0  0  0  0  0  0  0  0  0  0  0
  189.8490  176.5080  140.6510 C   0  0  0  0  0  2  0  0  0  0  0  0
  187.3850  178.2480  145.8020 N   0  0  0  0  0  0  0  0  0  0  0  0
  189.4590  177.7880  138.6080 C   0  0  0  0  0  3  0  0  0  0  0  0
  188.7420  178.8460  139.4010 C   0  0  0  0  0  2  0  0  0  0  0  0
  189.0080  177.2450  141.3850 C   0  0  0  0  0  0  0  0  0  0  0  0
  189.5680  176.8670  147.1550 C   0  0  0  0  0  3  0  0  0  0  0  0
  191.8320  176.0120  147.0840 C   0  0  0  0  0  3  0  0  0  0  0  0
  191.8630  176.2100  145.7020 C   0  0  0  0  0  3  0  0  0  0  0  0
  190.7450  176.7360  145.0460 C   0  0  0  0  0  3  0  0  0  0  0  0
  189.5870  177.0690  145.7670 C   0  0  0  0  0  0  0  0  0  0  0  0
  190.6850  176.3400  147.8110 C   0  0  0  0  0  3  0  0  0  0  0  0
  182.0600  178.5090  142.2060 C   0  0  0  0  0  3  0  0  0  0  0  0
  184.8710  178.3830  142.2550 C   0  0  0  0  0  0  0  0  0  0  0  0
  184.1640  178.1890  141.0560 C   0  0  0  0  0  3  0  0  0  0  0  0
  182.7680  178.2470  141.0310 C   0  0  0  0  0  3  0  0  0  0  0  0
  182.7470  178.7140  143.4050 C   0  0  0  0  0  3  0  0  0  0  0  0
  184.1440  178.6550  143.4280 C   0  0  0  0  0  3  0  0  0  0  0  0
  1  7  1  0  0  0  0
  2 10  2  0  0  0  0
  2  4  1  0  0  0  0
  3 10  1  0  0  0  0
  4 12  2  0  0  0  0
  5  6  1  0  0  0  0
  6 11  1  0  0  0  0
  7  2  1  0  0  0  0
  8 20  1  0  0  0  0
  8 12  1  0  0  0  0
  9  1  1  0  0  0  0
  9 15  2  0  0  0  0
 10  8  1  0  0  0  0
 11 15  1  0  0  0  0
 13  6  2  0  0  0  0
 13 14  1  0  0  0  0
 14  9  1  0  0  0  0
 15  3  1  0  0  0  0
 16 21  1  0  0  0  0
 17 21  2  0  0  0  0
 18 17  1  0  0  0  0
 19 18  2  0  0  0  0
 19 20  1  0  0  0  0
 20 16  2  0  0  0  0
 22 26  1  0  0  0  0
 23  7  1  0  0  0  0
 23 27  1  0  0  0  0
 24 23  2  0  0  0  0
 25 24  1  0  0  0  0
 25 22  2  0  0  0  0
 26 27  2  0  0  0  0
M  END
>  <MODEL>
6

>  <REMARK>
 VINA RESULT:      -8.5      2.403      6.664
  Name = 
  2 active torsions:
  status: ('A' for Active; 'I' for Inactive)
    1  A    between atoms: C_9  and  N_15
    2  A    between atoms: C_14  and  N_17
                            x       y       z     vdW  Elec       q    Type
                         _______ _______ _______ _____ _____    ______ ____

>  <TORSDO>
F 2

$$$$
=
 OpenBabel10262420123D

 27 31  0  0  0  0  0  0  0  0999 V2000
  189.4220  176.6450  143.0800 C   0  0  0  0  0  2  0  0  0  0  0  0
  187.4190  177.2830  144.4140 C   0  0  0  0  0  0  0  0  0  0  0  0
  186.9290  178.3340  142.2810 O   0  0  0  0  0  0  0  0  0  0  0  0
  186.6780  176.9610  145.5840 N   0  0  0  0  0  0  0  0  0  0  0  0
  189.4970  179.2160  138.3550 F   0  0  0  0  0  0  0  0  0  0  0  0
  189.2780  178.3900  139.4060 C   0  0  0  0  0  0  0  0  0  0  0  0
  188.8400  177.1320  144.2980 N   0  0  0  0  0  0  0  0  0  0  0  0
  185.3030  177.8430  144.1010 N   0  0  0  0  0  0  0  0  0  0  0  0
  189.0610  176.9910  141.8450 C   0  0  0  0  0  0  0  0  0  0  0  0
  186.6070  177.8080  143.5320 C   0  0  0  0  0  0  0  0  0  0  0  0
  188.1740  178.6770  140.3400 C   0  0  0  0  0  2  0  0  0  0  0  0
  185.3240  177.3040  145.4020 N   0  0  0  0  0  0  0  0  0  0  0  0
  190.0830  177.3430  139.6040 C   0  0  0  0  0  3  0  0  0  0  0  0
  189.8370  176.3650  140.7200 C   0  0  0  0  0  2  0  0  0  0  0  0
  188.0460  178.0250  141.5010 C   0  0  0  0  0  0  0  0  0  0  0  0
  183.0710  178.8580  144.2790 C   0  0  0  0  0  3  0  0  0  0  0  0
  181.7470  179.3100  142.3030 C   0  0  0  0  0  3  0  0  0  0  0  0
  182.7690  178.7950  141.5010 C   0  0  0  0  0  3  0  0  0  0  0  0
  183.9420  178.3110  142.0890 C   0  0  0  0  0  3  0  0  0  0  0  0
  184.1040  178.3390  143.4830 C   0  0  0  0  0  0  0  0  0  0  0  0
  181.8980  179.3420  143.6910 C   0  0  0  0  0  3  0  0  0  0  0  0
  191.2740  177.2370  147.7910 C   0  0  0  0  0  3  0  0  0  0  0  0
  189.6700  177.1860  145.4790 C   0  0  0  0  0  0  0  0  0  0  0  0
  190.9810  176.6760  145.4560 C   0  0  0  0  0  3  0  0  0  0  0  0
  191.7790  176.7040  146.6030 C   0  0  0  0  0  3  0  0  0  0  0  0
  189.9720  177.7380  147.8340 C   0  0  0  0  0  3  0  0  0  0  0  0
  189.1740  177.7100  146.6860 C   0  0  0  0  0  3  0  0  0  0  0  0
  1  7  1  0  0  0  0
  2  4  1  0  0  0  0
  3 10  1  0  0  0  0
  5  6  1  0  0  0  0
  6 13  2  0  0  0  0
  6 11  1  0  0  0  0
  7  2  1  0  0  0  0
  7 23  1  0  0  0  0
  8 12  1  0  0  0  0
  9  1  1  0  0  0  0
 10  8  1  0  0  0  0
 10  2  2  0  0  0  0
 11 15  1  0  0  0  0
 12  4  2  0  0  0  0
 13 14  1  0  0  0  0
 14  9  1  0  0  0  0
 15  9  2  0  0  0  0
 15  3  1  0  0  0  0
 17 21  2  0  0  0  0
 18 19  2  0  0  0  0
 18 17  1  0  0  0  0
 19 20  1  0  0  0  0
 20  8  1  0  0  0  0
 20 16  2  0  0  0  0
 21 16  1  0  0  0  0
 22 26  1  0  0  0  0
 23 27  1  0  0  0  0
 24 23  2  0  0  0  0
 24 25  1  0  0  0  0
 25 22  2  0  0  0  0
 27 26  2  0  0  0  0
M  END
>  <MODEL>
7

>  <REMARK>
 VINA RESULT:      -8.3      2.616      5.327
  Name = 
  2 active torsions:
  status: ('A' for Active; 'I' for Inactive)
    1  A    between atoms: C_9  and  N_15
    2  A    between atoms: C_14  and  N_17
                            x       y       z     vdW  Elec       q    Type
                         _______ _______ _______ _____ _____    ______ ____

>  <TORSDO>
F 2

$$$$
=
 OpenBabel10262420123D

 27 31  0  0  0  0  0  0  0  0999 V2000
  183.1210  178.9920  142.8350 C   0  0  0  0  0  2  0  0  0  0  0  0
  185.2210  178.5920  141.5590 C   0  0  0  0  0  0  0  0  0  0  0  0
  183.5560  177.6880  140.0400 O   0  0  0  0  0  0  0  0  0  0  0  0
  186.5870  178.9740  141.4610 N   0  0  0  0  0  0  0  0  0  0  0  0
  178.9310  176.5900  140.4660 F   0  0  0  0  0  0  0  0  0  0  0  0
  179.9440  177.4030  140.8490 C   0  0  0  0  0  0  0  0  0  0  0  0
  184.4850  178.5500  142.7890 N   0  0  0  0  0  0  0  0  0  0  0  0
  185.8900  178.3380  139.4670 N   0  0  0  0  0  0  0  0  0  0  0  0
  182.1830  178.7390  141.9230 C   0  0  0  0  0  0  0  0  0  0  0  0
  184.8040  178.2120  140.3780 C   0  0  0  0  0  0  0  0  0  0  0  0
  181.2780  177.2410  140.2420 C   0  0  0  0  0  2  0  0  0  0  0  0
  187.0310  178.8270  140.1330 N   0  0  0  0  0  0  0  0  0  0  0  0
  179.7340  178.3230  141.7940 C   0  0  0  0  0  3  0  0  0  0  0  0
  180.8120  179.2890  142.2020 C   0  0  0  0  0  2  0  0  0  0  0  0
  182.3540  177.8660  140.7290 C   0  0  0  0  0  0  0  0  0  0  0  0
  186.9750  178.3890  137.2610 C   0  0  0  0  0  3  0  0  0  0  0  0
  185.8850  177.4490  135.3150 C   0  0  0  0  0  3  0  0  0  0  0  0
  184.7890  177.0890  136.1030 C   0  0  0  0  0  3  0  0  0  0  0  0
  184.7870  177.3790  137.4710 C   0  0  0  0  0  3  0  0  0  0  0  0
  185.8800  178.0310  138.0620 C   0  0  0  0  0  0  0  0  0  0  0  0
  186.9780  178.0990  135.8940 C   0  0  0  0  0  3  0  0  0  0  0  0
  186.5580  177.9960  146.4680 C   0  0  0  0  0  3  0  0  0  0  0  0
  185.1800  178.3450  144.0390 C   0  0  0  0  0  0  0  0  0  0  0  0
  184.6730  178.8790  145.2360 C   0  0  0  0  0  3  0  0  0  0  0  0
  185.3540  178.7030  146.4430 C   0  0  0  0  0  3  0  0  0  0  0  0
  187.0820  177.4670  145.2860 C   0  0  0  0  0  3  0  0  0  0  0  0
  186.3990  177.6430  144.0790 C   0  0  0  0  0  3  0  0  0  0  0  0
  2  7  1  0  0  0  0
  3 10  1  0  0  0  0
  3 15  1  0  0  0  0
  4  2  1  0  0  0  0
  5  6  1  0  0  0  0
  6 13  2  0  0  0  0
  7  1  1  0  0  0  0
  7 23  1  0  0  0  0
  8 12  1  0  0  0  0
  8 10  1  0  0  0  0
  9 14  1  0  0  0  0
  9  1  1  0  0  0  0
 10  2  2  0  0  0  0
 11 15  1  0  0  0  0
 11  6  1  0  0  0  0
 12  4  2  0  0  0  0
 13 14  1  0  0  0  0
 15  9  2  0  0  0  0
 16 20  1  0  0  0  0
 17 21  1  0  0  0  0
 17 18  2  0  0  0  0
 18 19  1  0  0  0  0
 19 20  2  0  0  0  0
 20  8  1  0  0  0  0
 21 16  2  0  0  0  0
 23 27  2  0  0  0  0
 23 24  1  0  0  0  0
 24 25  2  0  0  0  0
 25 22  1  0  0  0  0
 26 22  2  0  0  0  0
 27 26  1  0  0  0  0
M  END
>  <MODEL>
8

>  <REMARK>
 VINA RESULT:      -8.2      4.032      7.934
  Name = 
  2 active torsions:
  status: ('A' for Active; 'I' for Inactive)
    1  A    between atoms: C_9  and  N_15
    2  A    between atoms: C_14  and  N_17
                            x       y       z     vdW  Elec       q    Type
                         _______ _______ _______ _____ _____    ______ ____

>  <TORSDO>
F 2

$$$$
=
 OpenBabel10262420123D

 27 31  0  0  0  0  0  0  0  0999 V2000
  188.3410  177.9700  139.9900 C   0  0  0  0  0  2  0  0  0  0  0  0
  190.7090  177.2180  140.1560 C   0  0  0  0  0  0  0  0  0  0  0  0
  189.9980  176.1170  138.1120 O   0  0  0  0  0  0  0  0  0  0  0  0
  191.9550  177.5030  140.7780 N   0  0  0  0  0  0  0  0  0  0  0  0
  185.7550  175.3640  136.0580 F   0  0  0  0  0  0  0  0  0  0  0  0
  186.5170  176.1840  136.8210 C   0  0  0  0  0  0  0  0  0  0  0  0
  189.4340  177.4580  140.7670 N   0  0  0  0  0  0  0  0  0  0  0  0
  192.3440  176.5210  138.8410 N   0  0  0  0  0  0  0  0  0  0  0  0
  188.0090  177.5900  138.7570 C   0  0  0  0  0  0  0  0  0  0  0  0
  190.9350  176.6340  139.0070 C   0  0  0  0  0  0  0  0  0  0  0  0
  187.9260  175.8360  137.0810 C   0  0  0  0  0  2  0  0  0  0  0  0
  193.0120  177.0730  139.9510 N   0  0  0  0  0  0  0  0  0  0  0  0
  185.9770  177.2820  137.3550 C   0  0  0  0  0  3  0  0  0  0  0  0
  186.8030  178.2530  138.1540 C   0  0  0  0  0  2  0  0  0  0  0  0
  188.6570  176.4900  137.9900 C   0  0  0  0  0  0  0  0  0  0  0  0
  193.1170  174.5480  137.5930 C   0  0  0  0  0  3  0  0  0  0  0  0
  194.3950  174.7880  135.5510 C   0  0  0  0  0  3  0  0  0  0  0  0
  194.3240  176.1780  135.6700 C   0  0  0  0  0  3  0  0  0  0  0  0
  193.6480  176.7530  136.7520 C   0  0  0  0  0  3  0  0  0  0  0  0
  193.0390  175.9430  137.7230 C   0  0  0  0  0  0  0  0  0  0  0  0
  193.7910  173.9730  136.5120 C   0  0  0  0  0  3  0  0  0  0  0  0
  189.0420  177.5300  145.0070 C   0  0  0  0  0  3  0  0  0  0  0  0
  189.3140  177.4690  142.2060 C   0  0  0  0  0  0  0  0  0  0  0  0
  188.3060  176.7280  142.8460 C   0  0  0  0  0  3  0  0  0  0  0  0
  188.1720  176.7540  144.2370 C   0  0  0  0  0  3  0  0  0  0  0  0
  190.0430  178.2800  144.3870 C   0  0  0  0  0  3  0  0  0  0  0  0
  190.1760  178.2530  142.9950 C   0  0  0  0  0  3  0  0  0  0  0  0
  1  7  1  0  0  0  0
  2  7  1  0  0  0  0
  2  4  1  0  0  0  0
  3 10  1  0  0  0  0
  5  6  1  0  0  0  0
  6 11  1  0  0  0  0
  6 13  2  0  0  0  0
  7 23  1  0  0  0  0
  8 10  1  0  0  0  0
  8 12  1  0  0  0  0
  9  1  1  0  0  0  0
 10  2  2  0  0  0  0
 11 15  1  0  0  0  0
 12  4  2  0  0  0  0
 13 14  1  0  0  0  0
 14  9  1  0  0  0  0
 15  3  1  0  0  0  0
 15  9  2  0  0  0  0
 16 20  1  0  0  0  0
 17 18  2  0  0  0  0
 17 21  1  0  0  0  0
 18 19  1  0  0  0  0
 19 20  2  0  0  0  0
 20  8  1  0  0  0  0
 21 16  2  0  0  0  0
 23 24  2  0  0  0  0
 23 27  1  0  0  0  0
 24 25  1  0  0  0  0
 25 22  2  0  0  0  0
 26 22  1  0  0  0  0
 27 26  2  0  0  0  0
M  END
>  <MODEL>
9

>  <REMARK>
 VINA RESULT:      -8.2      3.832      8.484
  Name = 
  2 active torsions:
  status: ('A' for Active; 'I' for Inactive)
    1  A    between atoms: C_9  and  N_15
    2  A    between atoms: C_14  and  N_17
                            x       y       z     vdW  Elec       q    Type
                         _______ _______ _______ _____ _____    ______ ____

>  <TORSDO>
F 2

$$$$
