=
 OpenBabel10262420503D

 28 32  0  0  1  0  0  0  0  0999 V2000
  188.9920  177.0230  145.2430 C   0  0  1  0  0  3  0  0  0  0  0  0
  185.7630  178.7820  141.4780 C   0  0  0  0  0  2  0  0  0  0  0  0
  186.0910  179.7790  146.5770 C   0  0  0  0  0  1  0  0  0  0  0  0
  183.5870  178.6770  142.7190 C   0  0  0  0  0  0  0  0  0  0  0  0
  185.7790  178.4530  143.9570 C   0  0  2  0  0  3  0  0  0  0  0  0
  183.6550  178.9440  140.3020 C   0  0  0  0  0  0  0  0  0  0  0  0
  185.0120  178.1570  142.6630 C   0  0  2  0  0  3  0  0  0  0  0  0
  183.6370  178.9650  145.1920 C   0  0  0  0  0  2  0  0  0  0  0  0
  182.9430  178.9750  141.5890 C   0  0  0  0  0  3  0  0  0  0  0  0
  186.9000  177.5100  146.4010 C   0  0  2  0  0  3  0  0  0  0  0  0
  187.0340  177.5910  144.0360 C   0  0  0  0  0  2  0  0  0  0  0  0
  182.7940  178.5740  143.9850 C   0  0  0  0  0  2  0  0  0  0  0  0
  188.8340  176.6340  147.7020 C   0  0  0  0  0  2  0  0  0  0  0  0
  185.7010  178.3700  146.4440 N   0  0  0  0  0  0  0  0  0  0  0  0
  187.6290  177.5500  147.7460 C   0  0  0  0  0  2  0  0  0  0  0  0
  182.7470  179.0290  138.8080 Cl  0  0  0  0  0  0  0  0  0  0  0  0
  184.9450  178.7880  140.2650 N   0  0  0  0  0  0  0  0  0  0  0  0
  184.9350  178.1590  145.2060 C   0  0  2  0  0  3  0  0  0  0  0  0
  189.7420  177.0810  146.5760 C   0  0  0  0  0  2  0  0  0  0  0  0
  187.7830  177.8740  145.2650 N   0  0  2  0  0  0  0  0  0  0  0  0
  191.3400  177.8250  144.6050 C   0  0  0  0  0  2  0  0  0  0  0  0
  189.9560  177.4400  144.1200 C   0  0  0  0  0  0  0  0  0  0  0  0
  190.3830  178.8960  144.1100 C   0  0  0  0  0  2  0  0  0  0  0  0
  189.5250  177.4030  141.5860 N   0  0  0  0  0  0  0  0  0  0  0  0
  190.2760  175.5200  142.7470 O   0  0  0  0  0  0  0  0  0  0  0  0
  189.9430  176.7370  142.7900 C   0  0  0  0  0  0  0  0  0  0  0  0
  189.5030  176.6870  140.3210 C   0  0  0  0  0  1  0  0  0  0  0  0
  189.1150  178.7980  141.5830 C   0  0  0  0  0  1  0  0  0  0  0  0
  1 22  1  6  0  0  0
  1 20  1  0  0  0  0
  1 19  1  0  0  0  0
  4 12  1  0  0  0  0
  5 11  1  1  0  0  0
  5 18  1  0  0  0  0
  6  9  1  0  0  0  0
  7  2  1  6  0  0  0
  7  4  1  0  0  0  0
  7  5  1  0  0  0  0
  9  4  2  0  0  0  0
 10 14  1  0  0  0  0
 10 15  1  1  0  0  0
 12  8  1  0  0  0  0
 13 15  1  0  0  0  0
 14  3  1  0  0  0  0
 16  6  1  0  0  0  0
 17  6  2  0  0  0  0
 17  2  1  0  0  0  0
 18  8  1  1  0  0  0
 18 14  1  0  0  0  0
 19 13  1  0  0  0  0
 20 11  1  6  0  0  0
 20 10  1  0  0  0  0
 22 21  1  0  0  0  0
 23 22  1  0  0  0  0
 23 21  1  0  0  0  0
 24 26  1  0  0  0  0
 25 26  2  0  0  0  0
 26 22  1  0  0  0  0
 27 24  1  0  0  0  0
 28 24  1  0  0  0  0
M  END
>  <MODEL>
1

>  <REMARK>
 VINA RESULT:      -9.6      0.000      0.000
  Name = 
  2 active torsions:
  status: ('A' for Active; 'I' for Inactive)
    1  A    between atoms: C_1  and  C_3
    2  A    between atoms: C_3  and  C_11
                            x       y       z     vdW  Elec       q    Type
                         _______ _______ _______ _____ _____    ______ ____

>  <TORSDO>
F 2

$$$$
=
 OpenBabel10262420503D

 28 32  0  0  1  0  0  0  0  0999 V2000
  189.3090  177.0960  138.5970 C   0  0  1  0  0  3  0  0  0  0  0  0
  185.8590  178.8520  142.1610 C   0  0  0  0  0  2  0  0  0  0  0  0
  191.0510  178.4790  142.1820 C   0  0  0  0  0  1  0  0  0  0  0  0
  186.8370  177.8210  144.2270 C   0  0  0  0  0  0  0  0  0  0  0  0
  188.1610  177.8810  142.0740 C   0  0  2  0  0  3  0  0  0  0  0  0
  184.5850  178.7410  144.2150 C   0  0  0  0  0  0  0  0  0  0  0  0
  186.7730  177.7480  142.7120 C   0  0  2  0  0  3  0  0  0  0  0  0
  189.2950  177.4300  144.2850 C   0  0  0  0  0  2  0  0  0  0  0  0
  185.7700  178.2250  144.9180 C   0  0  0  0  0  3  0  0  0  0  0  0
  190.3680  176.6560  140.7520 C   0  0  2  0  0  3  0  0  0  0  0  0
  188.1250  177.4090  140.6250 C   0  0  0  0  0  2  0  0  0  0  0  0
  187.9600  177.1640  144.9670 C   0  0  0  0  0  2  0  0  0  0  0  0
  191.5630  176.0260  138.6600 C   0  0  0  0  0  2  0  0  0  0  0  0
  190.5270  177.1080  142.1480 N   0  0  0  0  0  0  0  0  0  0  0  0
  191.7360  176.5280  140.0780 C   0  0  0  0  0  2  0  0  0  0  0  0
  183.0910  178.9750  145.0960 Cl  0  0  0  0  0  0  0  0  0  0  0  0
  184.6220  178.9620  142.9350 N   0  0  0  0  0  0  0  0  0  0  0  0
  189.2140  177.0390  142.8100 C   0  0  2  0  0  3  0  0  0  0  0  0
  190.6730  176.9950  137.9080 C   0  0  0  0  0  2  0  0  0  0  0  0
  189.4450  177.5430  140.0010 N   0  0  2  0  0  0  0  0  0  0  0  0
  189.0030  178.4470  136.4420 C   0  0  0  0  0  2  0  0  0  0  0  0
  188.4200  178.0510  137.7840 C   0  0  0  0  0  0  0  0  0  0  0  0
  188.9560  179.4540  137.5780 C   0  0  0  0  0  2  0  0  0  0  0  0
  186.2840  176.7020  137.3050 N   0  0  0  0  0  0  0  0  0  0  0  0
  186.2180  178.8660  138.1840 O   0  0  0  0  0  0  0  0  0  0  0  0
  186.9220  177.8990  137.7840 C   0  0  0  0  0  0  0  0  0  0  0  0
  184.8340  176.5980  137.2970 C   0  0  0  0  0  1  0  0  0  0  0  0
  187.0480  175.5660  136.8160 C   0  0  0  0  0  1  0  0  0  0  0  0
  1 22  1  6  0  0  0
  1 20  1  0  0  0  0
  2 17  1  0  0  0  0
  4  9  2  0  0  0  0
  4 12  1  0  0  0  0
  5 11  1  6  0  0  0
  5  7  1  0  0  0  0
  5 18  1  0  0  0  0
  6  9  1  0  0  0  0
  6 16  1  0  0  0  0
  7  2  1  6  0  0  0
  7  4  1  0  0  0  0
  8 12  1  0  0  0  0
 10 15  1  6  0  0  0
 10 14  1  0  0  0  0
 13 15  1  0  0  0  0
 14  3  1  0  0  0  0
 14 18  1  0  0  0  0
 17  6  2  0  0  0  0
 18  8  1  1  0  0  0
 19  1  1  0  0  0  0
 19 13  1  0  0  0  0
 20 11  1  1  0  0  0
 20 10  1  0  0  0  0
 21 23  1  0  0  0  0
 21 22  1  0  0  0  0
 23 22  1  0  0  0  0
 24 26  1  0  0  0  0
 26 22  1  0  0  0  0
 26 25  2  0  0  0  0
 27 24  1  0  0  0  0
 28 24  1  0  0  0  0
M  END
>  <MODEL>
2

>  <REMARK>
 VINA RESULT:      -8.5      2.971      5.992
  Name = 
  2 active torsions:
  status: ('A' for Active; 'I' for Inactive)
    1  A    between atoms: C_1  and  C_3
    2  A    between atoms: C_3  and  C_11
                            x       y       z     vdW  Elec       q    Type
                         _______ _______ _______ _____ _____    ______ ____

>  <TORSDO>
F 2

$$$$
=
 OpenBabel10262420503D

 28 32  0  0  1  0  0  0  0  0999 V2000
  188.6240  177.1510  145.6750 C   0  0  1  0  0  3  0  0  0  0  0  0
  185.9060  178.5720  141.3980 C   0  0  0  0  0  2  0  0  0  0  0  0
  185.7220  180.1350  146.3610 C   0  0  0  0  0  1  0  0  0  0  0  0
  183.6050  178.6810  142.3890 C   0  0  0  0  0  0  0  0  0  0  0  0
  185.6380  178.5290  143.8840 C   0  0  2  0  0  3  0  0  0  0  0  0
  183.9480  178.6660  139.9800 C   0  0  0  0  0  0  0  0  0  0  0  0
  185.0030  178.1110  142.5520 C   0  0  2  0  0  3  0  0  0  0  0  0
  183.3990  179.2480  144.8040 C   0  0  0  0  0  2  0  0  0  0  0  0
  183.1020  178.8680  141.1670 C   0  0  0  0  0  3  0  0  0  0  0  0
  186.4420  177.8360  146.5280 C   0  0  2  0  0  3  0  0  0  0  0  0
  186.8360  177.6410  144.1990 C   0  0  0  0  0  2  0  0  0  0  0  0
  182.6760  178.7490  143.5610 C   0  0  0  0  0  2  0  0  0  0  0  0
  188.1810  177.0520  148.1280 C   0  0  0  0  0  2  0  0  0  0  0  0
  185.2860  178.7330  146.3410 N   0  0  0  0  0  0  0  0  0  0  0  0
  187.0210  178.0050  147.9350 C   0  0  0  0  0  2  0  0  0  0  0  0
  183.2120  178.6100  138.3930 Cl  0  0  0  0  0  0  0  0  0  0  0  0
  185.2260  178.4660  140.1070 N   0  0  0  0  0  0  0  0  0  0  0  0
  184.6500  178.4070  145.0540 C   0  0  2  0  0  3  0  0  0  0  0  0
  189.2270  177.3380  147.0690 C   0  0  0  0  0  2  0  0  0  0  0  0
  187.4590  178.0390  145.4660 N   0  0  2  0  0  0  0  0  0  0  0  0
  190.4720  178.7100  144.8250 C   0  0  0  0  0  2  0  0  0  0  0  0
  189.7220  177.4060  144.6290 C   0  0  0  0  0  0  0  0  0  0  0  0
  189.4870  178.5640  143.6780 C   0  0  0  0  0  2  0  0  0  0  0  0
  191.6270  175.7010  144.9050 N   0  0  0  0  0  0  0  0  0  0  0  0
  190.3720  175.8570  142.9410 O   0  0  0  0  0  0  0  0  0  0  0  0
  190.5740  176.2780  144.1130 C   0  0  0  0  0  0  0  0  0  0  0  0
  192.4460  174.6280  144.3670 C   0  0  0  0  0  1  0  0  0  0  0  0
  191.9120  176.1610  146.2550 C   0  0  0  0  0  1  0  0  0  0  0  0
  1 22  1  6  0  0  0
  1 19  1  0  0  0  0
  4  7  1  0  0  0  0
  4 12  1  0  0  0  0
  5 11  1  1  0  0  0
  5 18  1  0  0  0  0
  6 17  2  0  0  0  0
  6  9  1  0  0  0  0
  7  2  1  6  0  0  0
  7  5  1  0  0  0  0
  9  4  2  0  0  0  0
 10 15  1  1  0  0  0
 12  8  1  0  0  0  0
 14  3  1  0  0  0  0
 14 10  1  0  0  0  0
 15 13  1  0  0  0  0
 16  6  1  0  0  0  0
 17  2  1  0  0  0  0
 18  8  1  6  0  0  0
 18 14  1  0  0  0  0
 19 13  1  0  0  0  0
 20 11  1  6  0  0  0
 20  1  1  0  0  0  0
 20 10  1  0  0  0  0
 22 21  1  0  0  0  0
 23 22  1  0  0  0  0
 23 21  1  0  0  0  0
 24 28  1  0  0  0  0
 25 26  2  0  0  0  0
 26 22  1  0  0  0  0
 26 24  1  0  0  0  0
 27 24  1  0  0  0  0
M  END
>  <MODEL>
3

>  <REMARK>
 VINA RESULT:      -7.9      1.314      1.846
  Name = 
  2 active torsions:
  status: ('A' for Active; 'I' for Inactive)
    1  A    between atoms: C_1  and  C_3
    2  A    between atoms: C_3  and  C_11
                            x       y       z     vdW  Elec       q    Type
                         _______ _______ _______ _____ _____    ______ ____

>  <TORSDO>
F 2

$$$$
=
 OpenBabel10262420503D

 28 32  0  0  1  0  0  0  0  0999 V2000
  189.4880  176.9750  144.1590 C   0  0  1  0  0  3  0  0  0  0  0  0
  192.5280  177.0610  139.8650 C   0  0  0  0  0  2  0  0  0  0  0  0
  187.9270  179.2370  140.9590 C   0  0  0  0  0  1  0  0  0  0  0  0
  190.7670  176.7540  138.1060 C   0  0  0  0  0  0  0  0  0  0  0  0
  190.1190  177.3150  140.4840 C   0  0  2  0  0  3  0  0  0  0  0  0
  193.1290  176.4730  137.5960 C   0  0  0  0  0  0  0  0  0  0  0  0
  191.1020  176.5690  139.5750 C   0  0  2  0  0  3  0  0  0  0  0  0
  188.4750  177.5990  138.5880 C   0  0  0  0  0  2  0  0  0  0  0  0
  191.7250  176.6350  137.1850 C   0  0  0  0  0  3  0  0  0  0  0  0
  187.9260  177.2290  142.3010 C   0  0  2  0  0  3  0  0  0  0  0  0
  190.2240  176.7990  141.9140 C   0  0  0  0  0  2  0  0  0  0  0  0
  189.3400  176.7650  137.6530 C   0  0  0  0  0  2  0  0  0  0  0  0
  187.0420  177.1280  144.6270 C   0  0  0  0  0  2  0  0  0  0  0  0
  187.7180  177.7840  140.9500 N   0  0  0  0  0  0  0  0  0  0  0  0
  186.8410  177.7350  143.2540 C   0  0  0  0  0  2  0  0  0  0  0  0
  194.3300  176.0110  136.4090 Cl  0  0  0  0  0  0  0  0  0  0  0  0
  193.4720  176.6080  138.8420 N   0  0  0  0  0  0  0  0  0  0  0  0
  188.6630  177.1300  140.0300 C   0  0  2  0  0  3  0  0  0  0  0  0
  188.4230  177.5010  145.1250 C   0  0  0  0  0  2  0  0  0  0  0  0
  189.2960  177.5150  142.7960 N   0  0  2  0  0  0  0  0  0  0  0  0
  190.9950  178.7630  145.2060 C   0  0  0  0  0  2  0  0  0  0  0  0
  190.8750  177.3320  144.7180 C   0  0  0  0  0  0  0  0  0  0  0  0
  191.6810  178.3390  143.9190 C   0  0  0  0  0  2  0  0  0  0  0  0
  191.6410  176.3490  146.9670 N   0  0  0  0  0  0  0  0  0  0  0  0
  192.3800  175.4970  144.9210 O   0  0  0  0  0  0  0  0  0  0  0  0
  191.6610  176.3370  145.5290 C   0  0  0  0  0  0  0  0  0  0  0  0
  192.4300  175.3890  147.7190 C   0  0  0  0  0  1  0  0  0  0  0  0
  190.8440  177.3070  147.7160 C   0  0  0  0  0  1  0  0  0  0  0  0
  1 22  1  1  0  0  0
  1 19  1  0  0  0  0
  4  7  1  0  0  0  0
  5 11  1  1  0  0  0
  6 17  2  0  0  0  0
  7  2  1  6  0  0  0
  7  5  1  0  0  0  0
  9  6  1  0  0  0  0
  9  4  2  0  0  0  0
 10 20  1  0  0  0  0
 10 15  1  1  0  0  0
 12  4  1  0  0  0  0
 12  8  1  0  0  0  0
 13 19  1  0  0  0  0
 14  3  1  0  0  0  0
 14 10  1  0  0  0  0
 15 13  1  0  0  0  0
 16  6  1  0  0  0  0
 17  2  1  0  0  0  0
 18  8  1  6  0  0  0
 18  5  1  0  0  0  0
 18 14  1  0  0  0  0
 20 11  1  6  0  0  0
 20  1  1  0  0  0  0
 22 21  1  0  0  0  0
 22 26  1  0  0  0  0
 23 22  1  0  0  0  0
 23 21  1  0  0  0  0
 24 28  1  0  0  0  0
 24 27  1  0  0  0  0
 25 26  2  0  0  0  0
 26 24  1  0  0  0  0
M  END
>  <MODEL>
4

>  <REMARK>
 VINA RESULT:      -7.6      3.491      6.429
  Name = 
  2 active torsions:
  status: ('A' for Active; 'I' for Inactive)
    1  A    between atoms: C_1  and  C_3
    2  A    between atoms: C_3  and  C_11
                            x       y       z     vdW  Elec       q    Type
                         _______ _______ _______ _____ _____    ______ ____

>  <TORSDO>
F 2

$$$$
=
 OpenBabel10262420503D

 28 32  0  0  1  0  0  0  0  0999 V2000
  188.5680  177.2590  144.4090 C   0  0  1  0  0  3  0  0  0  0  0  0
  189.3640  178.1750  139.2890 C   0  0  0  0  0  2  0  0  0  0  0  0
  185.8850  180.0230  142.6910 C   0  0  0  0  0  1  0  0  0  0  0  0
  186.9870  178.1500  138.4900 C   0  0  0  0  0  0  0  0  0  0  0  0
  187.5070  178.2640  140.9610 C   0  0  2  0  0  3  0  0  0  0  0  0
  188.8490  178.0140  136.9300 C   0  0  0  0  0  0  0  0  0  0  0  0
  187.9320  177.7120  139.5950 C   0  0  2  0  0  3  0  0  0  0  0  0
  185.2110  178.8480  140.0890 C   0  0  0  0  0  2  0  0  0  0  0  0
  187.4230  178.2180  137.2310 C   0  0  0  0  0  3  0  0  0  0  0  0
  186.3590  177.8090  143.5280 C   0  0  2  0  0  3  0  0  0  0  0  0
  188.2090  177.5030  142.0800 C   0  0  0  0  0  2  0  0  0  0  0  0
  185.5120  178.2120  138.7390 C   0  0  0  0  0  2  0  0  0  0  0  0
  186.6050  177.2760  145.9480 C   0  0  0  0  0  2  0  0  0  0  0  0
  185.6030  178.5910  142.5320 N   0  0  0  0  0  0  0  0  0  0  0  0
  185.8490  178.1140  144.9390 C   0  0  0  0  0  2  0  0  0  0  0  0
  189.3600  177.7970  135.2700 Cl  0  0  0  0  0  0  0  0  0  0  0  0
  189.7200  177.9320  137.8900 N   0  0  0  0  0  0  0  0  0  0  0  0
  185.9950  178.1330  141.1890 C   0  0  2  0  0  3  0  0  0  0  0  0
  188.0830  177.5830  145.8240 C   0  0  0  0  0  2  0  0  0  0  0  0
  187.8210  178.0300  143.3920 N   0  0  2  0  0  0  0  0  0  0  0  0
  190.4610  178.9620  144.6950 C   0  0  0  0  0  2  0  0  0  0  0  0
  190.0770  177.5400  144.3330 C   0  0  0  0  0  0  0  0  0  0  0  0
  190.5270  178.5010  143.2490 C   0  0  0  0  0  2  0  0  0  0  0  0
  191.4080  176.3020  146.1520 N   0  0  0  0  0  0  0  0  0  0  0  0
  191.6650  175.8230  143.8800 O   0  0  0  0  0  0  0  0  0  0  0  0
  191.0790  176.5040  144.7660 C   0  0  0  0  0  0  0  0  0  0  0  0
  192.3970  175.3090  146.5340 C   0  0  0  0  0  1  0  0  0  0  0  0
  190.7760  177.0730  147.2110 C   0  0  0  0  0  1  0  0  0  0  0  0
  1 22  1  1  0  0  0
  1 19  1  0  0  0  0
  4 12  1  0  0  0  0
  4  7  1  0  0  0  0
  5 18  1  0  0  0  0
  5 11  1  1  0  0  0
  6  9  1  0  0  0  0
  6 17  2  0  0  0  0
  7  2  1  6  0  0  0
  7  5  1  0  0  0  0
  9  4  2  0  0  0  0
 10 15  1  1  0  0  0
 12  8  1  0  0  0  0
 14  3  1  0  0  0  0
 14 10  1  0  0  0  0
 15 13  1  0  0  0  0
 16  6  1  0  0  0  0
 17  2  1  0  0  0  0
 18  8  1  6  0  0  0
 18 14  1  0  0  0  0
 19 13  1  0  0  0  0
 20 11  1  6  0  0  0
 20 10  1  0  0  0  0
 20  1  1  0  0  0  0
 22 21  1  0  0  0  0
 22 26  1  0  0  0  0
 23 22  1  0  0  0  0
 23 21  1  0  0  0  0
 24 27  1  0  0  0  0
 24 28  1  0  0  0  0
 25 26  2  0  0  0  0
 26 24  1  0  0  0  0
M  END
>  <MODEL>
5

>  <REMARK>
 VINA RESULT:      -7.4      2.579      4.311
  Name = 
  2 active torsions:
  status: ('A' for Active; 'I' for Inactive)
    1  A    between atoms: C_1  and  C_3
    2  A    between atoms: C_3  and  C_11
                            x       y       z     vdW  Elec       q    Type
                         _______ _______ _______ _____ _____    ______ ____

>  <TORSDO>
F 2

$$$$
=
 OpenBabel10262420503D

 28 32  0  0  1  0  0  0  0  0999 V2000
  189.2960  177.6650  146.3180 C   0  0  1  0  0  3  0  0  0  0  0  0
  185.7550  178.2280  142.4660 C   0  0  0  0  0  2  0  0  0  0  0  0
  190.0610  175.3330  142.8880 C   0  0  0  0  0  1  0  0  0  0  0  0
  187.3020  178.3400  140.4960 C   0  0  0  0  0  0  0  0  0  0  0  0
  188.1540  177.5840  142.7530 C   0  0  2  0  0  3  0  0  0  0  0  0
  184.9680  178.9990  140.3120 C   0  0  0  0  0  0  0  0  0  0  0  0
  187.1920  178.5100  142.0000 C   0  0  2  0  0  3  0  0  0  0  0  0
  189.4770  177.1360  140.6490 C   0  0  0  0  0  2  0  0  0  0  0  0
  186.2650  178.6430  139.7140 C   0  0  0  0  0  3  0  0  0  0  0  0
  190.5480  177.2580  144.2630 C   0  0  2  0  0  3  0  0  0  0  0  0
  188.3150  178.0480  144.1960 C   0  0  0  0  0  2  0  0  0  0  0  0
  188.6400  178.1320  139.8570 C   0  0  0  0  0  2  0  0  0  0  0  0
  191.7270  177.1220  146.4520 C   0  0  0  0  0  2  0  0  0  0  0  0
  190.4920  176.7370  142.8840 N   0  0  0  0  0  0  0  0  0  0  0  0
  191.6540  176.5510  145.0510 C   0  0  0  0  0  2  0  0  0  0  0  0
  183.7120  179.6890  139.3070 Cl  0  0  0  0  0  0  0  0  0  0  0  0
  184.7710  178.8630  141.5900 N   0  0  0  0  0  0  0  0  0  0  0  0
  189.5510  177.5650  142.1140 C   0  0  2  0  0  3  0  0  0  0  0  0
  190.3800  176.9420  147.1210 C   0  0  0  0  0  2  0  0  0  0  0  0
  189.2250  177.1620  144.9290 N   0  0  2  0  0  0  0  0  0  0  0  0
  187.9290  178.0940  148.4420 C   0  0  0  0  0  2  0  0  0  0  0  0
  187.9530  177.4980  147.0480 C   0  0  0  0  0  0  0  0  0  0  0  0
  187.9570  176.5860  148.2600 C   0  0  0  0  0  2  0  0  0  0  0  0
  185.8130  178.7810  146.4280 N   0  0  0  0  0  0  0  0  0  0  0  0
  186.2760  176.6530  145.5840 O   0  0  0  0  0  0  0  0  0  0  0  0
  186.6500  177.6190  146.3050 C   0  0  0  0  0  0  0  0  0  0  0  0
  184.5500  178.8550  145.7140 C   0  0  0  0  0  1  0  0  0  0  0  0
  186.1890  179.9140  147.2590 C   0  0  0  0  0  1  0  0  0  0  0  0
  1 22  1  1  0  0  0
  1 19  1  0  0  0  0
  4  7  1  0  0  0  0
  5 11  1  1  0  0  0
  6 17  2  0  0  0  0
  7  2  1  1  0  0  0
  7  5  1  0  0  0  0
  9  6  1  0  0  0  0
  9  4  2  0  0  0  0
 10 20  1  0  0  0  0
 10 15  1  1  0  0  0
 12  4  1  0  0  0  0
 12  8  1  0  0  0  0
 13 19  1  0  0  0  0
 14  3  1  0  0  0  0
 14 10  1  0  0  0  0
 15 13  1  0  0  0  0
 16  6  1  0  0  0  0
 17  2  1  0  0  0  0
 18  8  1  6  0  0  0
 18  5  1  0  0  0  0
 18 14  1  0  0  0  0
 20 11  1  6  0  0  0
 20  1  1  0  0  0  0
 22 23  1  0  0  0  0
 22 21  1  0  0  0  0
 23 21  1  0  0  0  0
 24 28  1  0  0  0  0
 25 26  2  0  0  0  0
 26 24  1  0  0  0  0
 26 22  1  0  0  0  0
 27 24  1  0  0  0  0
M  END
>  <MODEL>
6

>  <REMARK>
 VINA RESULT:      -7.3      1.622      4.618
  Name = 
  2 active torsions:
  status: ('A' for Active; 'I' for Inactive)
    1  A    between atoms: C_1  and  C_3
    2  A    between atoms: C_3  and  C_11
                            x       y       z     vdW  Elec       q    Type
                         _______ _______ _______ _____ _____    ______ ____

>  <TORSDO>
F 2

$$$$
=
 OpenBabel10262420503D

 28 32  0  0  1  0  0  0  0  0999 V2000
  183.7380  177.9270  137.3130 C   0  0  1  0  0  3  0  0  0  0  0  0
  184.9510  177.9080  142.4340 C   0  0  0  0  0  2  0  0  0  0  0  0
  180.5840  176.7400  139.8520 C   0  0  0  0  0  1  0  0  0  0  0  0
  182.8660  178.9500  143.3570 C   0  0  0  0  0  0  0  0  0  0  0  0
  182.9390  178.1310  140.9660 C   0  0  2  0  0  3  0  0  0  0  0  0
  184.8810  178.7430  144.7040 C   0  0  0  0  0  0  0  0  0  0  0  0
  183.7230  178.7740  142.1160 C   0  0  2  0  0  3  0  0  0  0  0  0
  180.7380  178.6070  142.1090 C   0  0  0  0  0  2  0  0  0  0  0  0
  183.4400  179.0030  144.5600 C   0  0  0  0  0  3  0  0  0  0  0  0
  181.6310  178.4050  138.4500 C   0  0  2  0  0  3  0  0  0  0  0  0
  183.6750  178.3330  139.6470 C   0  0  0  0  0  2  0  0  0  0  0  0
  181.4330  179.3670  143.2310 C   0  0  0  0  0  2  0  0  0  0  0  0
  181.6700  178.2830  135.9630 C   0  0  0  0  0  2  0  0  0  0  0  0
  180.8190  178.1770  139.6610 N   0  0  0  0  0  0  0  0  0  0  0  0
  180.8420  178.0070  137.2000 C   0  0  0  0  0  2  0  0  0  0  0  0
  185.6800  179.1140  146.2160 Cl  0  0  0  0  0  0  0  0  0  0  0  0
  185.5750  178.3010  143.6980 N   0  0  0  0  0  0  0  0  0  0  0  0
  181.5380  178.7420  140.8140 C   0  0  2  0  0  3  0  0  0  0  0  0
  182.9650  177.5030  136.0620 C   0  0  0  0  0  2  0  0  0  0  0  0
  182.9400  177.7110  138.5400 N   0  0  2  0  0  0  0  0  0  0  0  0
  185.1600  176.0340  136.3340 C   0  0  0  0  0  2  0  0  0  0  0  0
  185.0620  177.1490  137.3570 C   0  0  0  0  0  0  0  0  0  0  0  0
  184.9770  175.7030  137.8050 C   0  0  0  0  0  2  0  0  0  0  0  0
  187.1920  178.3460  136.5530 N   0  0  0  0  0  0  0  0  0  0  0  0
  186.7480  177.9860  138.8180 O   0  0  0  0  0  0  0  0  0  0  0  0
  186.3650  177.8560  137.6230 C   0  0  0  0  0  0  0  0  0  0  0  0
  188.4540  179.0030  136.8440 C   0  0  0  0  0  1  0  0  0  0  0  0
  186.8050  178.2050  135.1580 C   0  0  0  0  0  1  0  0  0  0  0  0
  1 19  1  6  0  0  0
  1 22  1  0  0  0  0
  1 20  1  0  0  0  0
  2 17  1  0  0  0  0
  4  9  2  0  0  0  0
  5 11  1  6  0  0  0
  5  7  1  0  0  0  0
  6 16  1  0  0  0  0
  7  2  1  1  0  0  0
  7  4  1  0  0  0  0
  8 12  1  0  0  0  0
  9  6  1  0  0  0  0
 10 15  1  6  0  0  0
 10 20  1  0  0  0  0
 10 14  1  0  0  0  0
 12  4  1  0  0  0  0
 13 19  1  0  0  0  0
 13 15  1  0  0  0  0
 14  3  1  0  0  0  0
 14 18  1  0  0  0  0
 17  6  2  0  0  0  0
 18  5  1  0  0  0  0
 18  8  1  1  0  0  0
 20 11  1  1  0  0  0
 21 22  1  0  0  0  0
 21 23  1  0  0  0  0
 22 26  1  0  0  0  0
 22 23  1  0  0  0  0
 24 27  1  0  0  0  0
 24 26  1  0  0  0  0
 26 25  2  0  0  0  0
 28 24  1  0  0  0  0
M  END
>  <MODEL>
7

>  <REMARK>
 VINA RESULT:      -6.8      3.929      7.453
  Name = 
  2 active torsions:
  status: ('A' for Active; 'I' for Inactive)
    1  A    between atoms: C_1  and  C_3
    2  A    between atoms: C_3  and  C_11
                            x       y       z     vdW  Elec       q    Type
                         _______ _______ _______ _____ _____    ______ ____

>  <TORSDO>
F 2

$$$$
=
 OpenBabel10262420503D

 28 32  0  0  1  0  0  0  0  0999 V2000
  188.4980  177.4130  145.0730 C   0  0  1  0  0  3  0  0  0  0  0  0
  188.0130  178.4540  139.9380 C   0  0  0  0  0  2  0  0  0  0  0  0
  185.4100  180.1260  144.1250 C   0  0  0  0  0  1  0  0  0  0  0  0
  185.5150  178.3710  139.7340 C   0  0  0  0  0  0  0  0  0  0  0  0
  186.6120  178.4530  142.0100 C   0  0  2  0  0  3  0  0  0  0  0  0
  186.9480  178.3250  137.7690 C   0  0  0  0  0  0  0  0  0  0  0  0
  186.7080  177.9410  140.5670 C   0  0  2  0  0  3  0  0  0  0  0  0
  184.1590  178.9820  141.7320 C   0  0  0  0  0  2  0  0  0  0  0  0
  185.6320  178.4780  138.4090 C   0  0  0  0  0  3  0  0  0  0  0  0
  186.1290  177.9110  144.7640 C   0  0  2  0  0  3  0  0  0  0  0  0
  187.5820  177.6920  142.9060 C   0  0  0  0  0  2  0  0  0  0  0  0
  184.1420  178.3830  140.3320 C   0  0  0  0  0  2  0  0  0  0  0  0
  186.9640  177.3380  147.0400 C   0  0  0  0  0  2  0  0  0  0  0  0
  185.1350  178.6890  144.0000 N   0  0  0  0  0  0  0  0  0  0  0  0
  185.9660  178.1720  146.2640 C   0  0  0  0  0  2  0  0  0  0  0  0
  187.0490  178.1560  136.0300 Cl  0  0  0  0  0  0  0  0  0  0  0  0
  188.0270  178.2500  138.4890 N   0  0  0  0  0  0  0  0  0  0  0  0
  185.2030  178.2700  142.5910 C   0  0  2  0  0  3  0  0  0  0  0  0
  188.3610  177.6930  146.5720 C   0  0  0  0  0  2  0  0  0  0  0  0
  187.5080  178.1800  144.2870 N   0  0  2  0  0  0  0  0  0  0  0  0
  190.2990  179.2090  144.7690 C   0  0  0  0  0  2  0  0  0  0  0  0
  189.9370  177.7420  144.6440 C   0  0  0  0  0  0  0  0  0  0  0  0
  190.0870  178.5920  143.3970 C   0  0  0  0  0  2  0  0  0  0  0  0
  191.2940  175.6080  144.1810 N   0  0  0  0  0  0  0  0  0  0  0  0
  191.8150  177.0550  145.9390 O   0  0  0  0  0  0  0  0  0  0  0  0
  191.0700  176.8000  144.9530 C   0  0  0  0  0  0  0  0  0  0  0  0
  192.3830  174.7080  144.5210 C   0  0  0  0  0  1  0  0  0  0  0  0
  190.4540  175.2580  143.0470 C   0  0  0  0  0  1  0  0  0  0  0  0
  1 22  1  6  0  0  0
  1 19  1  0  0  0  0
  4 12  1  0  0  0  0
  4  7  1  0  0  0  0
  5 18  1  0  0  0  0
  5 11  1  1  0  0  0
  6  9  1  0  0  0  0
  6 17  2  0  0  0  0
  7  2  1  6  0  0  0
  7  5  1  0  0  0  0
  9  4  2  0  0  0  0
 10 15  1  1  0  0  0
 12  8  1  0  0  0  0
 14  3  1  0  0  0  0
 14 10  1  0  0  0  0
 15 13  1  0  0  0  0
 16  6  1  0  0  0  0
 17  2  1  0  0  0  0
 18  8  1  6  0  0  0
 18 14  1  0  0  0  0
 19 13  1  0  0  0  0
 20 11  1  6  0  0  0
 20 10  1  0  0  0  0
 20  1  1  0  0  0  0
 22 21  1  0  0  0  0
 22 26  1  0  0  0  0
 23 22  1  0  0  0  0
 23 21  1  0  0  0  0
 24 27  1  0  0  0  0
 24 26  1  0  0  0  0
 26 25  2  0  0  0  0
 28 24  1  0  0  0  0
M  END
>  <MODEL>
8

>  <REMARK>
 VINA RESULT:      -6.8      2.211      3.033
  Name = 
  2 active torsions:
  status: ('A' for Active; 'I' for Inactive)
    1  A    between atoms: C_1  and  C_3
    2  A    between atoms: C_3  and  C_11
                            x       y       z     vdW  Elec       q    Type
                         _______ _______ _______ _____ _____    ______ ____

>  <TORSDO>
F 2

$$$$
