=
 OpenBabel10262420103D

 27 31  0  0  1  0  0  0  0  0999 V2000
  187.4420  178.6970  141.2860 C   0  0  0  0  0  3  0  0  0  0  0  0
  187.5150  177.9550  143.6920 C   0  0  0  0  0  0  0  0  0  0  0  0
  189.8520  177.6240  142.8230 C   0  0  0  0  0  3  0  0  0  0  0  0
  189.4040  176.6870  146.9800 N   0  0  0  0  0  0  0  0  0  0  0  0
  191.7610  175.8430  147.1830 C   0  0  0  0  0  1  0  0  0  0  0  0
  186.7480  177.6780  144.9460 C   0  0  0  0  0  3  0  0  0  0  0  0
  190.9000  177.5880  145.5230 C   0  0  0  0  0  0  0  0  0  0  0  0
  190.2750  176.1360  139.3670 C   0  0  0  0  0  3  0  0  0  0  0  0
  191.9970  177.8200  144.9480 O   0  0  0  0  0  0  0  0  0  0  0  0
  189.9560  176.9260  138.3440 C   0  0  0  0  0  3  0  0  0  0  0  0
  189.5820  178.2070  145.1860 C   0  0  2  0  0  3  0  0  0  0  0  0
  186.8280  178.2780  142.5640 C   0  0  0  0  0  0  0  0  0  0  0  0
  190.7580  176.7460  146.6510 N   0  0  0  0  0  0  0  0  0  0  0  0
  188.7430  177.4820  146.1990 C   0  0  0  0  0  0  0  0  0  0  0  0
  188.5880  178.3090  140.7360 C   0  0  0  0  0  0  0  0  0  0  0  0
  189.0110  177.9290  143.8140 C   0  0  0  0  0  0  0  0  0  0  0  0
  190.2520  176.4730  140.7970 C   0  0  0  0  0  3  0  0  0  0  0  0
  187.3240  177.4310  146.0860 N   0  0  0  0  0  0  0  0  0  0  0  0
  189.4860  178.3160  138.4050 C   0  0  0  0  0  3  0  0  0  0  0  0
  188.8910  178.9130  139.4340 C   0  0  0  0  0  3  0  0  0  0  0  0
  189.5240  177.4010  141.4190 C   0  0  0  0  0  0  0  0  0  0  0  0
  182.5690  178.5160  142.5690 C   0  0  0  0  0  3  0  0  0  0  0  0
  185.3450  178.3300  142.5570 C   0  0  0  0  0  0  0  0  0  0  0  0
  184.6190  178.0810  141.3840 C   0  0  0  0  0  3  0  0  0  0  0  0
  183.2260  178.1680  141.3870 C   0  0  0  0  0  3  0  0  0  0  0  0
  183.2840  178.7690  143.6980 N   0  0  0  0  0  0  0  0  0  0  0  0
  184.6410  178.6890  143.7140 C   0  0  0  0  0  3  0  0  0  0  0  0
  1 12  1  0  0  0  0
  2 16  1  0  0  0  0
  2  6  1  0  0  0  0
  3 16  2  0  0  0  0
  6 18  2  0  0  0  0
  7 13  1  0  0  0  0
  8 17  1  0  0  0  0
  9  7  2  0  0  0  0
 10 19  1  0  0  0  0
 10  8  2  0  0  0  0
 11 16  1  6  0  0  0
 11  7  1  0  0  0  0
 11 14  1  0  0  0  0
 12  2  2  0  0  0  0
 13  4  1  0  0  0  0
 13  5  1  0  0  0  0
 14  4  2  0  0  0  0
 15  1  2  0  0  0  0
 15 21  1  0  0  0  0
 17 21  2  0  0  0  0
 18 14  1  0  0  0  0
 19 20  2  0  0  0  0
 20 15  1  0  0  0  0
 21  3  1  0  0  0  0
 22 26  1  0  0  0  0
 23 12  1  0  0  0  0
 23 27  1  0  0  0  0
 24 25  1  0  0  0  0
 24 23  2  0  0  0  0
 25 22  2  0  0  0  0
 26 27  2  0  0  0  0
M  END
>  <MODEL>
1

>  <REMARK>
 VINA RESULT:      -9.4      0.000      0.000
  Name = 
  1 active torsions:
  status: ('A' for Active; 'I' for Inactive)
    1  A    between atoms: C_9  and  C_15
                            x       y       z     vdW  Elec       q    Type
                         _______ _______ _______ _____ _____    ______ ____

>  <TORSDO>
F 1

$$$$
=
 OpenBabel10262420103D

 27 31  0  0  1  0  0  0  0  0999 V2000
  187.5700  178.7480  140.6100 C   0  0  0  0  0  3  0  0  0  0  0  0
  187.6750  178.1110  143.0450 C   0  0  0  0  0  0  0  0  0  0  0  0
  189.9830  177.6750  142.1440 C   0  0  0  0  0  3  0  0  0  0  0  0
  189.6000  176.9380  146.3470 N   0  0  0  0  0  0  0  0  0  0  0  0
  191.9360  176.0360  146.5390 C   0  0  0  0  0  1  0  0  0  0  0  0
  186.9280  177.9130  144.3260 C   0  0  0  0  0  3  0  0  0  0  0  0
  191.0880  177.7300  144.8210 C   0  0  0  0  0  0  0  0  0  0  0  0
  190.2890  176.0230  138.7500 C   0  0  0  0  0  3  0  0  0  0  0  0
  192.1780  177.9050  144.2140 O   0  0  0  0  0  0  0  0  0  0  0  0
  189.9700  176.7760  137.6990 C   0  0  0  0  0  3  0  0  0  0  0  0
  189.7800  178.3700  144.4840 C   0  0  2  0  0  3  0  0  0  0  0  0
  186.9730  178.4040  141.9180 C   0  0  0  0  0  0  0  0  0  0  0  0
  190.9470  176.9430  145.9890 N   0  0  0  0  0  0  0  0  0  0  0  0
  188.9440  177.7160  145.5450 C   0  0  0  0  0  0  0  0  0  0  0  0
  188.6930  178.3030  140.0540 C   0  0  0  0  0  0  0  0  0  0  0  0
  189.1720  178.0480  143.1370 C   0  0  0  0  0  0  0  0  0  0  0  0
  190.3070  176.4250  140.1640 C   0  0  0  0  0  3  0  0  0  0  0  0
  187.5220  177.7010  145.4630 N   0  0  0  0  0  0  0  0  0  0  0  0
  189.5400  178.1800  137.7080 C   0  0  0  0  0  3  0  0  0  0  0  0
  188.9840  178.8390  138.7210 C   0  0  0  0  0  3  0  0  0  0  0  0
  189.6180  177.4000  140.7580 C   0  0  0  0  0  0  0  0  0  0  0  0
  182.7120  178.6010  141.9180 C   0  0  0  0  0  3  0  0  0  0  0  0
  185.4920  178.4980  141.9390 C   0  0  0  0  0  0  0  0  0  0  0  0
  184.7740  178.3220  143.1300 C   0  0  0  0  0  3  0  0  0  0  0  0
  183.3790  178.3790  143.1240 C   0  0  0  0  0  3  0  0  0  0  0  0
  183.4180  178.7560  140.7660 N   0  0  0  0  0  0  0  0  0  0  0  0
  184.7760  178.7040  140.7510 C   0  0  0  0  0  3  0  0  0  0  0  0
  1 12  1  0  0  0  0
  2 16  1  0  0  0  0
  2  6  1  0  0  0  0
  3 16  2  0  0  0  0
  6 18  2  0  0  0  0
  7 13  1  0  0  0  0
  8 17  1  0  0  0  0
  9  7  2  0  0  0  0
 10 19  1  0  0  0  0
 10  8  2  0  0  0  0
 11 16  1  6  0  0  0
 11  7  1  0  0  0  0
 11 14  1  0  0  0  0
 12 23  1  0  0  0  0
 12  2  2  0  0  0  0
 13  4  1  0  0  0  0
 13  5  1  0  0  0  0
 14  4  2  0  0  0  0
 15  1  2  0  0  0  0
 15 21  1  0  0  0  0
 17 21  2  0  0  0  0
 18 14  1  0  0  0  0
 19 20  2  0  0  0  0
 20 15  1  0  0  0  0
 21  3  1  0  0  0  0
 22 25  1  0  0  0  0
 23 24  1  0  0  0  0
 25 24  2  0  0  0  0
 26 22  2  0  0  0  0
 27 26  1  0  0  0  0
 27 23  2  0  0  0  0
M  END
>  <MODEL>
2

>  <REMARK>
 VINA RESULT:      -9.0      0.903      1.135
  Name = 
  1 active torsions:
  status: ('A' for Active; 'I' for Inactive)
    1  A    between atoms: C_9  and  C_15
                            x       y       z     vdW  Elec       q    Type
                         _______ _______ _______ _____ _____    ______ ____

>  <TORSDO>
F 1

$$$$
=
 OpenBabel10262420103D

 27 31  0  0  1  0  0  0  0  0999 V2000
  186.4300  177.3500  145.4410 C   0  0  0  0  0  3  0  0  0  0  0  0
  187.2650  177.7720  143.1020 C   0  0  0  0  0  0  0  0  0  0  0  0
  189.3170  177.2320  144.4530 C   0  0  0  0  0  3  0  0  0  0  0  0
  190.1050  177.8710  140.2900 N   0  0  0  0  0  0  0  0  0  0  0  0
  192.5920  177.6910  140.5940 C   0  0  0  0  0  1  0  0  0  0  0  0
  186.9360  178.2090  141.7100 C   0  0  0  0  0  3  0  0  0  0  0  0
  190.7920  176.5940  142.0420 C   0  0  0  0  0  0  0  0  0  0  0  0
  189.6290  178.7510  147.9070 C   0  0  0  0  0  3  0  0  0  0  0  0
  191.5650  176.0030  142.8420 O   0  0  0  0  0  0  0  0  0  0  0  0
  188.8240  178.2530  148.8440 C   0  0  0  0  0  3  0  0  0  0  0  0
  189.2980  176.5830  142.0910 C   0  0  2  0  0  3  0  0  0  0  0  0
  186.3010  177.8550  144.0580 C   0  0  0  0  0  0  0  0  0  0  0  0
  191.2260  177.3130  140.9030 N   0  0  0  0  0  0  0  0  0  0  0  0
  189.0400  177.4800  140.9160 C   0  0  0  0  0  0  0  0  0  0  0  0
  187.5050  177.3040  146.2230 C   0  0  0  0  0  0  0  0  0  0  0  0
  188.6350  177.1920  143.3060 C   0  0  0  0  0  0  0  0  0  0  0  0
  189.7490  178.3170  146.5080 C   0  0  0  0  0  3  0  0  0  0  0  0
  187.7720  178.0990  140.7200 N   0  0  0  0  0  0  0  0  0  0  0  0
  187.8520  177.1630  148.6930 C   0  0  0  0  0  3  0  0  0  0  0  0
  187.2770  176.7550  147.5640 C   0  0  0  0  0  3  0  0  0  0  0  0
  188.8430  177.6980  145.7510 C   0  0  0  0  0  0  0  0  0  0  0  0
  182.4040  179.3220  143.1340 C   0  0  0  0  0  3  0  0  0  0  0  0
  184.9540  178.3950  143.7450 C   0  0  0  0  0  0  0  0  0  0  0  0
  184.1720  179.0030  144.7370 C   0  0  0  0  0  3  0  0  0  0  0  0
  182.8940  179.4740  144.4320 C   0  0  0  0  0  3  0  0  0  0  0  0
  183.1660  178.7180  142.1830 N   0  0  0  0  0  0  0  0  0  0  0  0
  184.4130  178.2530  142.4600 C   0  0  0  0  0  3  0  0  0  0  0  0
  1 15  1  0  0  0  0
  2 16  2  0  0  0  0
  2 12  1  0  0  0  0
  3 21  2  0  0  0  0
  4 13  1  0  0  0  0
  4 14  2  0  0  0  0
  5 13  1  0  0  0  0
  6  2  1  0  0  0  0
  7 11  1  0  0  0  0
  7  9  2  0  0  0  0
  8 10  1  0  0  0  0
 11 14  1  6  0  0  0
 11 16  1  0  0  0  0
 12  1  2  0  0  0  0
 13  7  1  0  0  0  0
 15 20  2  0  0  0  0
 16  3  1  0  0  0  0
 17  8  2  0  0  0  0
 18 14  1  0  0  0  0
 18  6  2  0  0  0  0
 19 10  2  0  0  0  0
 20 19  1  0  0  0  0
 21 15  1  0  0  0  0
 21 17  1  0  0  0  0
 22 25  1  0  0  0  0
 23 12  1  0  0  0  0
 23 24  1  0  0  0  0
 25 24  2  0  0  0  0
 26 27  1  0  0  0  0
 26 22  2  0  0  0  0
 27 23  2  0  0  0  0
M  END
>  <MODEL>
3

>  <REMARK>
 VINA RESULT:      -8.9      2.494      5.275
  Name = 
  1 active torsions:
  status: ('A' for Active; 'I' for Inactive)
    1  A    between atoms: C_9  and  C_15
                            x       y       z     vdW  Elec       q    Type
                         _______ _______ _______ _____ _____    ______ ____

>  <TORSDO>
F 1

$$$$
=
 OpenBabel10262420103D

 27 31  0  0  1  0  0  0  0  0999 V2000
  184.9870  179.2140  140.6840 C   0  0  0  0  0  3  0  0  0  0  0  0
  187.3100  178.2480  140.8210 C   0  0  0  0  0  0  0  0  0  0  0  0
  186.7130  178.2050  138.3770 C   0  0  0  0  0  3  0  0  0  0  0  0
  190.6840  176.8300  139.2130 N   0  0  0  0  0  0  0  0  0  0  0  0
  191.1050  176.1730  136.8250 C   0  0  0  0  0  1  0  0  0  0  0  0
  188.4290  177.7860  141.6980 C   0  0  0  0  0  3  0  0  0  0  0  0
  189.5100  177.9930  137.6510 C   0  0  0  0  0  0  0  0  0  0  0  0
  183.2200  177.1040  137.4130 C   0  0  0  0  0  3  0  0  0  0  0  0
  189.0990  178.3740  136.5230 O   0  0  0  0  0  0  0  0  0  0  0  0
  182.2380  177.9610  137.6860 C   0  0  0  0  0  3  0  0  0  0  0  0
  189.0660  178.5280  138.9750 C   0  0  2  0  0  3  0  0  0  0  0  0
  186.1370  178.6220  141.4000 C   0  0  0  0  0  0  0  0  0  0  0  0
  190.5340  177.0360  137.8430 N   0  0  0  0  0  0  0  0  0  0  0  0
  189.9000  177.6390  139.8520 C   0  0  0  0  0  0  0  0  0  0  0  0
  184.5520  178.9810  139.4490 C   0  0  0  0  0  0  0  0  0  0  0  0
  187.6140  178.3380  139.3530 C   0  0  0  0  0  0  0  0  0  0  0  0
  184.6610  177.2970  137.6350 C   0  0  0  0  0  3  0  0  0  0  0  0
  189.6060  177.4780  141.2370 N   0  0  0  0  0  0  0  0  0  0  0  0
  182.3620  179.2930  138.2910 C   0  0  0  0  0  3  0  0  0  0  0  0
  183.3560  179.7340  139.0570 C   0  0  0  0  0  3  0  0  0  0  0  0
  185.2650  178.0930  138.5160 C   0  0  0  0  0  0  0  0  0  0  0  0
  185.5070  178.3880  145.6120 C   0  0  0  0  0  3  0  0  0  0  0  0
  185.9490  178.5470  142.8700 C   0  0  0  0  0  0  0  0  0  0  0  0
  186.6460  177.6060  143.6400 C   0  0  0  0  0  3  0  0  0  0  0  0
  186.4300  177.5270  145.0170 C   0  0  0  0  0  3  0  0  0  0  0  0
  184.8260  179.2890  144.8530 N   0  0  0  0  0  0  0  0  0  0  0  0
  185.0220  179.3800  143.5110 C   0  0  0  0  0  3  0  0  0  0  0  0
  1 12  1  0  0  0  0
  2 12  2  0  0  0  0
  2  6  1  0  0  0  0
  3 21  1  0  0  0  0
  3 16  2  0  0  0  0
  4 14  2  0  0  0  0
  5 13  1  0  0  0  0
  7 13  1  0  0  0  0
  8 17  1  0  0  0  0
  8 10  2  0  0  0  0
  9  7  2  0  0  0  0
 10 19  1  0  0  0  0
 11  7  1  6  0  0  0
 11 16  1  0  0  0  0
 11 14  1  0  0  0  0
 12 23  1  0  0  0  0
 13  4  1  0  0  0  0
 14 18  1  0  0  0  0
 15  1  2  0  0  0  0
 16  2  1  0  0  0  0
 17 21  2  0  0  0  0
 18  6  2  0  0  0  0
 19 20  2  0  0  0  0
 20 15  1  0  0  0  0
 21 15  1  0  0  0  0
 23 27  2  0  0  0  0
 23 24  1  0  0  0  0
 24 25  2  0  0  0  0
 25 22  1  0  0  0  0
 26 22  2  0  0  0  0
 27 26  1  0  0  0  0
M  END
>  <MODEL>
4

>  <REMARK>
 VINA RESULT:      -8.7      3.602      5.855
  Name = 
  1 active torsions:
  status: ('A' for Active; 'I' for Inactive)
    1  A    between atoms: C_9  and  C_15
                            x       y       z     vdW  Elec       q    Type
                         _______ _______ _______ _____ _____    ______ ____

>  <TORSDO>
F 1

$$$$
=
 OpenBabel10262420103D

 27 31  0  0  1  0  0  0  0  0999 V2000
  191.3440  177.3360  140.2610 C   0  0  0  0  0  3  0  0  0  0  0  0
  189.6630  176.8620  138.4450 C   0  0  0  0  0  0  0  0  0  0  0  0
  188.3120  177.6640  140.4100 C   0  0  0  0  0  3  0  0  0  0  0  0
  185.9710  176.8670  136.9110 N   0  0  0  0  0  0  0  0  0  0  0  0
  183.8000  177.2920  138.1010 C   0  0  0  0  0  1  0  0  0  0  0  0
  189.4120  176.3180  137.0750 C   0  0  0  0  0  3  0  0  0  0  0  0
  186.0800  178.2980  138.6740 C   0  0  0  0  0  0  0  0  0  0  0  0
  189.2300  176.3780  143.8510 C   0  0  0  0  0  3  0  0  0  0  0  0
  185.7060  179.0030  139.6490 O   0  0  0  0  0  0  0  0  0  0  0  0
  190.3590  176.8520  144.3730 C   0  0  0  0  0  3  0  0  0  0  0  0
  187.4790  178.1750  138.1630 C   0  0  2  0  0  3  0  0  0  0  0  0
  190.9090  176.7450  138.9780 C   0  0  0  0  0  0  0  0  0  0  0  0
  185.2030  177.5600  137.8460 N   0  0  0  0  0  0  0  0  0  0  0  0
  187.2160  177.1930  137.0590 C   0  0  0  0  0  0  0  0  0  0  0  0
  190.6490  177.5260  141.3790 C   0  0  0  0  0  0  0  0  0  0  0  0
  188.5110  177.5760  139.0930 C   0  0  0  0  0  0  0  0  0  0  0  0
  188.6190  176.7420  142.5650 C   0  0  0  0  0  3  0  0  0  0  0  0
  188.2730  176.4490  136.4600 N   0  0  0  0  0  0  0  0  0  0  0  0
  191.2700  177.8370  143.7780 C   0  0  0  0  0  3  0  0  0  0  0  0
  191.4010  178.1260  142.4850 C   0  0  0  0  0  3  0  0  0  0  0  0
  189.2100  177.2300  141.4740 C   0  0  0  0  0  0  0  0  0  0  0  0
  194.1020  174.8110  136.9140 C   0  0  0  0  0  3  0  0  0  0  0  0
  191.9990  176.0660  138.2350 C   0  0  0  0  0  0  0  0  0  0  0  0
  191.9010  174.7120  137.8850 C   0  0  0  0  0  3  0  0  0  0  0  0
  192.9520  174.0810  137.2170 C   0  0  0  0  0  3  0  0  0  0  0  0
  194.1930  176.1210  137.2710 N   0  0  0  0  0  0  0  0  0  0  0  0
  193.1800  176.7530  137.9220 C   0  0  0  0  0  3  0  0  0  0  0  0
  1 15  1  0  0  0  0
  2 12  1  0  0  0  0
  2 16  2  0  0  0  0
  3 21  2  0  0  0  0
  4 14  2  0  0  0  0
  4 13  1  0  0  0  0
  6  2  1  0  0  0  0
  7  9  2  0  0  0  0
  8 10  1  0  0  0  0
 11 14  1  6  0  0  0
 11  7  1  0  0  0  0
 11 16  1  0  0  0  0
 12  1  2  0  0  0  0
 13  5  1  0  0  0  0
 13  7  1  0  0  0  0
 15 21  1  0  0  0  0
 15 20  2  0  0  0  0
 16  3  1  0  0  0  0
 17  8  2  0  0  0  0
 18 14  1  0  0  0  0
 18  6  2  0  0  0  0
 19 10  2  0  0  0  0
 20 19  1  0  0  0  0
 21 17  1  0  0  0  0
 22 25  2  0  0  0  0
 22 26  1  0  0  0  0
 23 12  1  0  0  0  0
 24 23  2  0  0  0  0
 25 24  1  0  0  0  0
 26 27  2  0  0  0  0
 27 23  1  0  0  0  0
M  END
>  <MODEL>
5

>  <REMARK>
 VINA RESULT:      -8.6      4.377      8.111
  Name = 
  1 active torsions:
  status: ('A' for Active; 'I' for Inactive)
    1  A    between atoms: C_9  and  C_15
                            x       y       z     vdW  Elec       q    Type
                         _______ _______ _______ _____ _____    ______ ____

>  <TORSDO>
F 1

$$$$
=
 OpenBabel10262420103D

 27 31  0  0  1  0  0  0  0  0999 V2000
  187.7110  177.2400  143.9960 C   0  0  0  0  0  3  0  0  0  0  0  0
  186.8710  178.0470  141.7620 C   0  0  0  0  0  0  0  0  0  0  0  0
  189.3330  177.6400  141.4400 C   0  0  0  0  0  3  0  0  0  0  0  0
  187.3020  178.8700  137.8740 N   0  0  0  0  0  0  0  0  0  0  0  0
  189.4300  179.0020  136.5450 C   0  0  0  0  0  1  0  0  0  0  0  0
  185.7250  178.5960  140.9740 C   0  0  0  0  0  3  0  0  0  0  0  0
  188.9810  177.5030  138.5680 C   0  0  0  0  0  0  0  0  0  0  0  0
  191.6990  178.7680  144.1720 C   0  0  0  0  0  3  0  0  0  0  0  0
  190.1040  176.9330  138.6010 O   0  0  0  0  0  0  0  0  0  0  0  0
  191.6810  178.0560  145.2970 C   0  0  0  0  0  3  0  0  0  0  0  0
  187.8530  177.2790  139.5220 C   0  0  2  0  0  3  0  0  0  0  0  0
  186.7220  177.8820  143.1040 C   0  0  0  0  0  0  0  0  0  0  0  0
  188.5770  178.4040  137.5550 N   0  0  0  0  0  0  0  0  0  0  0  0
  186.8820  178.2650  138.9390 C   0  0  0  0  0  0  0  0  0  0  0  0
  189.0390  177.2500  143.9270 C   0  0  0  0  0  0  0  0  0  0  0  0
  188.0830  177.6420  140.9720 C   0  0  0  0  0  0  0  0  0  0  0  0
  190.9260  178.5230  142.9470 C   0  0  0  0  0  3  0  0  0  0  0  0
  185.7540  178.7210  139.6790 N   0  0  0  0  0  0  0  0  0  0  0  0
  190.8670  176.8670  145.5840 C   0  0  0  0  0  3  0  0  0  0  0  0
  189.7240  176.5210  144.9980 C   0  0  0  0  0  3  0  0  0  0  0  0
  189.7660  177.8790  142.8120 C   0  0  0  0  0  0  0  0  0  0  0  0
  183.1380  179.0620  145.0930 C   0  0  0  0  0  3  0  0  0  0  0  0
  185.4620  178.2640  143.7880 C   0  0  0  0  0  0  0  0  0  0  0  0
  184.2510  178.3340  143.0860 C   0  0  0  0  0  3  0  0  0  0  0  0
  183.0830  178.7300  143.7390 C   0  0  0  0  0  3  0  0  0  0  0  0
  184.3220  179.0030  145.7620 N   0  0  0  0  0  0  0  0  0  0  0  0
  185.4700  178.6210  145.1440 C   0  0  0  0  0  3  0  0  0  0  0  0
  2 12  1  0  0  0  0
  3 21  2  0  0  0  0
  4 14  2  0  0  0  0
  5 13  1  0  0  0  0
  6  2  1  0  0  0  0
  7  9  2  0  0  0  0
  8 10  1  0  0  0  0
 10 19  2  0  0  0  0
 11  7  1  6  0  0  0
 11 16  1  0  0  0  0
 12 23  1  0  0  0  0
 12  1  2  0  0  0  0
 13  4  1  0  0  0  0
 13  7  1  0  0  0  0
 14 11  1  0  0  0  0
 14 18  1  0  0  0  0
 15  1  1  0  0  0  0
 15 20  2  0  0  0  0
 16  3  1  0  0  0  0
 16  2  2  0  0  0  0
 17  8  2  0  0  0  0
 18  6  2  0  0  0  0
 20 19  1  0  0  0  0
 21 17  1  0  0  0  0
 21 15  1  0  0  0  0
 22 26  1  0  0  0  0
 23 27  1  0  0  0  0
 24 25  1  0  0  0  0
 24 23  2  0  0  0  0
 25 22  2  0  0  0  0
 27 26  2  0  0  0  0
M  END
>  <MODEL>
6

>  <REMARK>
 VINA RESULT:      -8.6      2.892      5.493
  Name = 
  1 active torsions:
  status: ('A' for Active; 'I' for Inactive)
    1  A    between atoms: C_9  and  C_15
                            x       y       z     vdW  Elec       q    Type
                         _______ _______ _______ _____ _____    ______ ____

>  <TORSDO>
F 1

$$$$
=
 OpenBabel10262420103D

 27 31  0  0  1  0  0  0  0  0999 V2000
  186.5730  178.8410  144.3090 C   0  0  0  0  0  3  0  0  0  0  0  0
  188.2940  177.6730  142.8860 C   0  0  0  0  0  0  0  0  0  0  0  0
  186.4700  178.3590  141.2950 C   0  0  0  0  0  3  0  0  0  0  0  0
  189.8050  176.4610  139.3890 N   0  0  0  0  0  0  0  0  0  0  0  0
  188.6880  176.4550  137.1390 C   0  0  0  0  0  1  0  0  0  0  0  0
  189.5660  176.8890  142.8440 C   0  0  0  0  0  3  0  0  0  0  0  0
  188.2770  178.1100  139.0450 C   0  0  0  0  0  0  0  0  0  0  0  0
  182.8760  177.8820  142.3890 C   0  0  0  0  0  3  0  0  0  0  0  0
  187.4190  178.8220  138.4590 O   0  0  0  0  0  0  0  0  0  0  0  0
  182.4330  178.7140  143.3300 C   0  0  0  0  0  3  0  0  0  0  0  0
  188.7660  178.2950  140.4450 C   0  0  2  0  0  3  0  0  0  0  0  0
  187.7520  177.9740  144.0970 C   0  0  0  0  0  0  0  0  0  0  0  0
  188.9840  177.0500  138.4290 N   0  0  0  0  0  0  0  0  0  0  0  0
  189.7100  177.1280  140.4960 C   0  0  0  0  0  0  0  0  0  0  0  0
  185.4950  178.9980  143.5460 C   0  0  0  0  0  0  0  0  0  0  0  0
  187.7590  178.1380  141.5620 C   0  0  0  0  0  0  0  0  0  0  0  0
  184.2010  177.8780  141.7530 C   0  0  0  0  0  3  0  0  0  0  0  0
  190.1910  176.6180  141.7350 N   0  0  0  0  0  0  0  0  0  0  0  0
  183.1720  179.8100  143.9680 C   0  0  0  0  0  3  0  0  0  0  0  0
  184.4930  179.9320  144.0680 C   0  0  0  0  0  3  0  0  0  0  0  0
  185.3540  178.3430  142.2350 C   0  0  0  0  0  0  0  0  0  0  0  0
  189.6360  176.7180  147.7120 C   0  0  0  0  0  3  0  0  0  0  0  0
  188.3860  177.5130  145.3570 C   0  0  0  0  0  0  0  0  0  0  0  0
  187.6690  177.4940  146.5620 C   0  0  0  0  0  3  0  0  0  0  0  0
  188.2910  177.0910  147.7440 C   0  0  0  0  0  3  0  0  0  0  0  0
  190.3260  176.7530  146.5400 N   0  0  0  0  0  0  0  0  0  0  0  0
  189.7370  177.1430  145.3790 C   0  0  0  0  0  3  0  0  0  0  0  0
  2 12  2  0  0  0  0
  3 16  2  0  0  0  0
  3 21  1  0  0  0  0
  4 14  2  0  0  0  0
  5 13  1  0  0  0  0
  6  2  1  0  0  0  0
  8 10  2  0  0  0  0
  9  7  2  0  0  0  0
 10 19  1  0  0  0  0
 11  7  1  6  0  0  0
 11 14  1  0  0  0  0
 11 16  1  0  0  0  0
 12  1  1  0  0  0  0
 12 23  1  0  0  0  0
 13  7  1  0  0  0  0
 13  4  1  0  0  0  0
 14 18  1  0  0  0  0
 15 20  1  0  0  0  0
 15  1  2  0  0  0  0
 16  2  1  0  0  0  0
 17 21  2  0  0  0  0
 17  8  1  0  0  0  0
 18  6  2  0  0  0  0
 19 20  2  0  0  0  0
 21 15  1  0  0  0  0
 22 25  1  0  0  0  0
 23 27  2  0  0  0  0
 23 24  1  0  0  0  0
 24 25  2  0  0  0  0
 26 22  2  0  0  0  0
 27 26  1  0  0  0  0
M  END
>  <MODEL>
7

>  <REMARK>
 VINA RESULT:      -8.5      2.922      6.448
  Name = 
  1 active torsions:
  status: ('A' for Active; 'I' for Inactive)
    1  A    between atoms: C_9  and  C_15
                            x       y       z     vdW  Elec       q    Type
                         _______ _______ _______ _____ _____    ______ ____

>  <TORSDO>
F 1

$$$$
=
 OpenBabel10262420103D

 27 31  0  0  1  0  0  0  0  0999 V2000
  183.6550  178.8480  142.5250 C   0  0  0  0  0  3  0  0  0  0  0  0
  186.0160  178.2200  141.9080 C   0  0  0  0  0  0  0  0  0  0  0  0
  184.6880  177.9830  139.7850 C   0  0  0  0  0  3  0  0  0  0  0  0
  188.8740  177.2100  139.3020 N   0  0  0  0  0  0  0  0  0  0  0  0
  188.6070  176.5090  136.9050 C   0  0  0  0  0  1  0  0  0  0  0  0
  187.4100  177.9560  142.3800 C   0  0  0  0  0  3  0  0  0  0  0  0
  187.1090  178.1270  138.2010 C   0  0  0  0  0  0  0  0  0  0  0  0
  181.2690  176.3680  139.9890 C   0  0  0  0  0  3  0  0  0  0  0  0
  186.3110  178.3950  137.2640 O   0  0  0  0  0  0  0  0  0  0  0  0
  180.3110  177.0920  140.5630 C   0  0  0  0  0  3  0  0  0  0  0  0
  187.0360  178.6550  139.5970 C   0  0  2  0  0  3  0  0  0  0  0  0
  185.0460  178.4530  142.8330 C   0  0  0  0  0  0  0  0  0  0  0  0
  188.2690  177.3300  138.0530 N   0  0  0  0  0  0  0  0  0  0  0  0
  188.2250  177.9300  140.1600 C   0  0  0  0  0  0  0  0  0  0  0  0
  182.8900  178.5010  141.4940 C   0  0  0  0  0  0  0  0  0  0  0  0
  185.8230  178.2840  140.4200 C   0  0  0  0  0  0  0  0  0  0  0  0
  182.6610  176.7670  139.7380 C   0  0  0  0  0  3  0  0  0  0  0  0
  188.4120  177.7940  141.5660 N   0  0  0  0  0  0  0  0  0  0  0  0
  180.4250  178.4540  141.0990 C   0  0  0  0  0  3  0  0  0  0  0  0
  181.5360  179.0620  141.5060 C   0  0  0  0  0  3  0  0  0  0  0  0
  183.3910  177.6790  140.3800 C   0  0  0  0  0  0  0  0  0  0  0  0
  185.8250  178.3280  147.0250 C   0  0  0  0  0  3  0  0  0  0  0  0
  185.3470  178.4200  144.2860 C   0  0  0  0  0  0  0  0  0  0  0  0
  186.3620  177.5980  144.7940 C   0  0  0  0  0  3  0  0  0  0  0  0
  186.6080  177.5540  146.1670 C   0  0  0  0  0  3  0  0  0  0  0  0
  184.8330  179.1120  146.5220 N   0  0  0  0  0  0  0  0  0  0  0  0
  184.5780  179.1680  145.1880 C   0  0  0  0  0  3  0  0  0  0  0  0
  1 12  1  0  0  0  0
  2  6  1  0  0  0  0
  2 12  2  0  0  0  0
  3 21  1  0  0  0  0
  3 16  2  0  0  0  0
  4 14  2  0  0  0  0
  5 13  1  0  0  0  0
  8 10  2  0  0  0  0
  9  7  2  0  0  0  0
 10 19  1  0  0  0  0
 11  7  1  6  0  0  0
 11 14  1  0  0  0  0
 11 16  1  0  0  0  0
 12 23  1  0  0  0  0
 13  7  1  0  0  0  0
 13  4  1  0  0  0  0
 14 18  1  0  0  0  0
 15 20  1  0  0  0  0
 15  1  2  0  0  0  0
 16  2  1  0  0  0  0
 17  8  1  0  0  0  0
 17 21  2  0  0  0  0
 18  6  2  0  0  0  0
 19 20  2  0  0  0  0
 21 15  1  0  0  0  0
 23 24  2  0  0  0  0
 23 27  1  0  0  0  0
 24 25  1  0  0  0  0
 25 22  2  0  0  0  0
 26 22  1  0  0  0  0
 27 26  2  0  0  0  0
M  END
>  <MODEL>
8

>  <REMARK>
 VINA RESULT:      -8.3      3.314      6.544
  Name = 
  1 active torsions:
  status: ('A' for Active; 'I' for Inactive)
    1  A    between atoms: C_9  and  C_15
                            x       y       z     vdW  Elec       q    Type
                         _______ _______ _______ _____ _____    ______ ____

>  <TORSDO>
F 1

$$$$
=
 OpenBabel10262420103D

 27 31  0  0  1  0  0  0  0  0999 V2000
  189.4140  177.9890  140.2090 C   0  0  0  0  0  3  0  0  0  0  0  0
  186.9140  178.2150  139.9920 C   0  0  0  0  0  0  0  0  0  0  0  0
  187.3660  178.1720  142.4670 C   0  0  0  0  0  3  0  0  0  0  0  0
  183.2370  178.7330  141.4720 N   0  0  0  0  0  0  0  0  0  0  0  0
  182.5030  178.6230  143.8730 C   0  0  0  0  0  1  0  0  0  0  0  0
  185.7280  178.2350  139.0810 C   0  0  0  0  0  3  0  0  0  0  0  0
  184.7880  179.3780  143.0050 C   0  0  0  0  0  0  0  0  0  0  0  0
  189.9000  175.6790  143.7730 C   0  0  0  0  0  3  0  0  0  0  0  0
  185.3060  179.6450  144.1220 O   0  0  0  0  0  0  0  0  0  0  0  0
  191.1760  175.9390  143.4970 C   0  0  0  0  0  3  0  0  0  0  0  0
  185.4600  179.4900  141.6740 C   0  0  2  0  0  3  0  0  0  0  0  0
  188.1360  177.9280  139.4680 C   0  0  0  0  0  0  0  0  0  0  0  0
  183.4370  178.9970  142.8260 N   0  0  0  0  0  0  0  0  0  0  0  0
  184.3240  179.0030  140.8220 C   0  0  0  0  0  0  0  0  0  0  0  0
  189.6590  177.7190  141.4880 C   0  0  0  0  0  0  0  0  0  0  0  0
  186.6570  178.6010  141.4210 C   0  0  0  0  0  0  0  0  0  0  0  0
  188.7280  176.4980  143.4330 C   0  0  0  0  0  3  0  0  0  0  0  0
  184.5360  178.5690  139.4820 N   0  0  0  0  0  0  0  0  0  0  0  0
  191.7110  177.0970  142.7680 C   0  0  0  0  0  3  0  0  0  0  0  0
  191.0600  177.8630  141.8970 C   0  0  0  0  0  3  0  0  0  0  0  0
  188.5910  177.3800  142.4420 C   0  0  0  0  0  0  0  0  0  0  0  0
  188.6920  177.0310  135.3350 C   0  0  0  0  0  3  0  0  0  0  0  0
  188.2970  177.6090  138.0280 C   0  0  0  0  0  0  0  0  0  0  0  0
  187.9830  176.3380  137.5300 C   0  0  0  0  0  3  0  0  0  0  0  0
  188.1740  176.0460  136.1780 C   0  0  0  0  0  3  0  0  0  0  0  0
  189.0060  178.2570  135.8320 N   0  0  0  0  0  0  0  0  0  0  0  0
  188.8270  178.5610  137.1450 C   0  0  0  0  0  3  0  0  0  0  0  0
  1 15  1  0  0  0  0
  2 16  2  0  0  0  0
  4 13  1  0  0  0  0
  6 18  2  0  0  0  0
  6  2  1  0  0  0  0
  7  9  2  0  0  0  0
 10  8  1  0  0  0  0
 11 14  1  6  0  0  0
 11  7  1  0  0  0  0
 12  2  1  0  0  0  0
 12  1  2  0  0  0  0
 13  7  1  0  0  0  0
 13  5  1  0  0  0  0
 14  4  2  0  0  0  0
 15 20  2  0  0  0  0
 15 21  1  0  0  0  0
 16 11  1  0  0  0  0
 16  3  1  0  0  0  0
 17  8  2  0  0  0  0
 18 14  1  0  0  0  0
 19 10  2  0  0  0  0
 20 19  1  0  0  0  0
 21  3  2  0  0  0  0
 21 17  1  0  0  0  0
 22 26  2  0  0  0  0
 22 25  1  0  0  0  0
 23 12  1  0  0  0  0
 24 23  1  0  0  0  0
 25 24  2  0  0  0  0
 26 27  1  0  0  0  0
 27 23  2  0  0  0  0
M  END
>  <MODEL>
9

>  <REMARK>
 VINA RESULT:      -8.0      3.232      6.169
  Name = 
  1 active torsions:
  status: ('A' for Active; 'I' for Inactive)
    1  A    between atoms: C_9  and  C_15
                            x       y       z     vdW  Elec       q    Type
                         _______ _______ _______ _____ _____    ______ ____

>  <TORSDO>
F 1

$$$$
