=
 OpenBabel10262421503D

 30 37  0  0  1  0  0  0  0  0999 V2000
  188.9200  178.1560  141.9990 C   0  0  2  0  0  3  0  0  0  0  0  0
  191.0770  177.0040  142.7500 C   0  0  1  0  0  3  0  0  0  0  0  0
  187.7700  177.4350  146.2700 C   0  0  0  0  0  2  0  0  0  0  0  0
  187.3930  178.3440  142.1260 C   0  0  1  0  0  3  0  0  0  0  0  0
  189.3340  177.6210  140.2960 S   0  0  0  0  0  0  0  0  0  0  0  0
  185.0540  177.3700  139.0230 C   0  0  0  0  0  2  0  0  0  0  0  0
  184.5400  179.0000  142.9630 C   0  0  2  0  0  0  0  0  0  0  0  0
  185.3680  177.7900  140.4710 C   0  0  1  0  0  3  0  0  0  0  0  0
  187.4310  177.5610  138.3740 C   0  0  0  0  0  2  0  0  0  0  0  0
  185.2420  177.7740  143.4540 N   0  0  1  0  0  0  0  0  0  0  0  0
  186.4580  177.2300  145.5240 C   0  0  1  0  0  3  0  0  0  0  0  0
  187.8270  178.3570  139.6100 C   0  0  1  0  0  3  0  0  0  0  0  0
  186.7920  178.3030  140.7260 C   0  0  2  0  0  0  0  0  0  0  0  0
  192.0100  178.2130  142.9360 C   0  0  0  0  0  2  0  0  0  0  0  0
  183.9180  180.0180  144.3490 S   0  0  0  0  0  0  0  0  0  0  0  0
  183.1540  178.6130  142.4750 C   0  0  0  0  0  2  0  0  0  0  0  0
  185.7010  177.2600  136.6330 C   0  0  0  0  0  1  0  0  0  0  0  0
  191.6790  175.6100  143.6850 Cl  0  0  0  0  0  0  0  0  0  0  0  0
  188.9530  176.8980  145.4790 C   0  0  0  0  0  2  0  0  0  0  0  0
  191.4550  179.2850  143.8750 C   0  0  0  0  0  2  0  0  0  0  0  0
  186.0150  177.9040  137.9670 C   0  0  1  0  0  3  0  0  0  0  0  0
  189.6000  177.2920  143.0830 C   0  0  1  0  0  3  0  0  0  0  0  0
  186.6590  177.4300  143.1090 C   0  0  2  0  0  3  0  0  0  0  0  0
  185.3100  177.4920  146.4800 C   0  0  0  0  0  1  0  0  0  0  0  0
  186.3630  178.1720  144.3310 C   0  0  1  0  0  3  0  0  0  0  0  0
  182.4190  179.3860  143.5470 C   0  0  0  0  0  2  0  0  0  0  0  0
  185.2260  179.9130  141.9220 C   0  0  0  0  0  2  0  0  0  0  0  0
  190.6740  178.6470  145.0130 C   0  0  0  0  0  2  0  0  0  0  0  0
  189.4310  177.9340  144.4760 C   0  0  2  0  0  3  0  0  0  0  0  0
  185.6350  179.2910  140.5670 C   0  0  2  0  0  3  0  0  0  0  0  0
  1  5  1  6  0  0  0
  1  4  1  0  0  0  0
  1 22  1  0  0  0  0
  2 14  1  0  0  0  0
  2 22  1  0  0  0  0
  2 18  1  1  0  0  0
  4 23  1  0  0  0  0
  6  8  1  0  0  0  0
  7 10  1  0  0  0  0
  7 15  1  0  0  0  0
  8 30  1  0  0  0  0
  8 13  1  0  0  0  0
  9 12  1  0  0  0  0
 10 25  1  0  0  0  0
 11  3  1  0  0  0  0
 11 24  1  0  0  0  0
 12  5  1  0  0  0  0
 12 13  1  0  0  0  0
 13  4  1  0  0  0  0
 14 20  1  0  0  0  0
 16  7  1  0  0  0  0
 16 26  1  0  0  0  0
 17 21  1  0  0  0  0
 19  3  1  0  0  0  0
 20 28  1  0  0  0  0
 21  9  1  0  0  0  0
 21  6  1  0  0  0  0
 22 29  1  0  0  0  0
 23 10  1  0  0  0  0
 23 25  1  0  0  0  0
 25 11  1  0  0  0  0
 26 15  1  0  0  0  0
 27  7  1  0  0  0  0
 29 28  1  0  0  0  0
 29 19  1  0  0  0  0
 30 13  1  0  0  0  0
 30 27  1  0  0  0  0
M  END
>  <MODEL>
1

>  <REMARK>
 VINA RESULT:      -6.5      0.000      0.000
  Name = 
  0 active torsions:
  status: ('A' for Active; 'I' for Inactive)
                            x       y       z     vdW  Elec       q    Type
                         _______ _______ _______ _____ _____    ______ ____

>  <TORSDO>
F 0

$$$$
=
 OpenBabel10262421503D

 30 37  0  0  1  0  0  0  0  0999 V2000
  185.1220  178.5610  139.5170 C   0  0  2  0  0  3  0  0  0  0  0  0
  182.6860  178.2090  140.2160 C   0  0  1  0  0  3  0  0  0  0  0  0
  183.7090  176.5120  135.7900 C   0  0  0  0  0  2  0  0  0  0  0  0
  186.3620  178.1020  138.7190 C   0  0  1  0  0  3  0  0  0  0  0  0
  185.5300  178.6260  141.3030 S   0  0  0  0  0  0  0  0  0  0  0  0
  189.6590  177.0110  140.7150 C   0  0  0  0  0  2  0  0  0  0  0  0
  188.4410  177.3830  136.6140 C   0  0  2  0  0  0  0  0  0  0  0  0
  188.7540  177.1850  139.4810 C   0  0  1  0  0  3  0  0  0  0  0  0
  188.0750  178.2580  142.1450 C   0  0  0  0  0  2  0  0  0  0  0  0
  187.3220  176.4540  136.9640 N   0  0  1  0  0  0  0  0  0  0  0  0
  185.1280  175.9810  135.9550 C   0  0  1  0  0  3  0  0  0  0  0  0
  187.2990  178.8470  140.9740 C   0  0  1  0  0  3  0  0  0  0  0  0
  187.5680  178.1430  139.6500 C   0  0  2  0  0  0  0  0  0  0  0  0
  182.1030  179.6110  139.9740 C   0  0  0  0  0  2  0  0  0  0  0  0
  188.4790  177.7380  134.8200 S   0  0  0  0  0  0  0  0  0  0  0  0
  189.7450  176.6040  136.6040 C   0  0  0  0  0  2  0  0  0  0  0  0
  190.3270  177.7010  142.9990 C   0  0  0  0  0  1  0  0  0  0  0  0
  181.3840  176.9920  140.2230 Cl  0  0  0  0  0  0  0  0  0  0  0  0
  183.0140  176.6720  137.1330 C   0  0  0  0  0  2  0  0  0  0  0  0
  182.3300  180.1420  138.5570 C   0  0  0  0  0  2  0  0  0  0  0  0
  189.5330  178.1000  141.7740 C   0  0  1  0  0  3  0  0  0  0  0  0
  183.8020  177.8130  139.2290 C   0  0  1  0  0  3  0  0  0  0  0  0
  186.2500  176.7790  137.9590 C   0  0  2  0  0  3  0  0  0  0  0  0
  185.6460  175.5520  134.5950 C   0  0  0  0  0  1  0  0  0  0  0  0
  186.0390  177.0520  136.5410 C   0  0  1  0  0  3  0  0  0  0  0  0
  189.9810  176.7670  135.1190 C   0  0  0  0  0  2  0  0  0  0  0  0
  188.6210  178.7000  137.4020 C   0  0  0  0  0  2  0  0  0  0  0  0
  182.2400  179.0120  137.5430 C   0  0  0  0  0  2  0  0  0  0  0  0
  183.3760  178.0080  137.7580 C   0  0  2  0  0  3  0  0  0  0  0  0
  188.8360  178.6080  138.9310 C   0  0  2  0  0  3  0  0  0  0  0  0
  1  5  1  1  0  0  0
  2 18  1  6  0  0  0
  3 11  1  0  0  0  0
  3 19  1  0  0  0  0
  4  1  1  0  0  0  0
  4 13  1  0  0  0  0
  6 21  1  0  0  0  0
  7 10  1  0  0  0  0
  7 27  1  0  0  0  0
  8 13  1  0  0  0  0
  8  6  1  0  0  0  0
 10 23  1  0  0  0  0
 11 25  1  0  0  0  0
 12  5  1  0  0  0  0
 12  9  1  0  0  0  0
 13 12  1  0  0  0  0
 14  2  1  0  0  0  0
 15 26  1  0  0  0  0
 15  7  1  0  0  0  0
 16  7  1  0  0  0  0
 19 29  1  0  0  0  0
 20 14  1  0  0  0  0
 21  9  1  0  0  0  0
 21 17  1  0  0  0  0
 22  1  1  0  0  0  0
 22  2  1  0  0  0  0
 23  4  1  0  0  0  0
 24 11  1  0  0  0  0
 25 10  1  0  0  0  0
 25 23  1  0  0  0  0
 26 16  1  0  0  0  0
 27 30  1  0  0  0  0
 28 29  1  0  0  0  0
 28 20  1  0  0  0  0
 29 22  1  0  0  0  0
 30  8  1  0  0  0  0
 30 13  1  0  0  0  0
M  END
>  <MODEL>
2

>  <REMARK>
 VINA RESULT:      -6.4      3.369      8.001
  Name = 
  0 active torsions:
  status: ('A' for Active; 'I' for Inactive)
                            x       y       z     vdW  Elec       q    Type
                         _______ _______ _______ _____ _____    ______ ____

>  <TORSDO>
F 0

$$$$
=
 OpenBabel10262421503D

 30 37  0  0  1  0  0  0  0  0999 V2000
  185.8630  175.4510  136.2500 C   0  0  2  0  0  3  0  0  0  0  0  0
  188.2080  176.1330  137.0130 C   0  0  1  0  0  3  0  0  0  0  0  0
  184.6890  178.9880  138.7390 C   0  0  0  0  0  2  0  0  0  0  0  0
  184.3440  175.3730  136.5120 C   0  0  1  0  0  3  0  0  0  0  0  0
  186.5330  173.7620  136.0070 S   0  0  0  0  0  0  0  0  0  0  0  0
  182.6150  171.7750  136.8480 C   0  0  0  0  0  2  0  0  0  0  0  0
  181.3740  175.8850  136.9480 C   0  0  2  0  0  0  0  0  0  0  0  0
  182.6920  173.3110  136.9180 C   0  0  1  0  0  3  0  0  0  0  0  0
  184.8680  171.6360  135.8410 C   0  0  0  0  0  2  0  0  0  0  0  0
  182.3720  176.0570  138.0490 N   0  0  1  0  0  0  0  0  0  0  0  0
  183.5500  178.0050  138.9830 C   0  0  1  0  0  3  0  0  0  0  0  0
  184.9260  173.1130  135.4770 C   0  0  1  0  0  3  0  0  0  0  0  0
  183.8790  173.9580  136.1920 C   0  0  2  0  0  0  0  0  0  0  0  0
  188.7270  176.8610  135.7610 C   0  0  0  0  0  2  0  0  0  0  0  0
  180.3860  177.4030  136.6960 S   0  0  0  0  0  0  0  0  0  0  0  0
  180.2010  175.0710  137.4670 C   0  0  0  0  0  2  0  0  0  0  0  0
  183.4270  169.6280  135.9140 C   0  0  0  0  0  1  0  0  0  0  0  0
  189.1300  176.6450  138.4510 Cl  0  0  0  0  0  0  0  0  0  0  0  0
  186.0280  178.2760  138.6360 C   0  0  0  0  0  2  0  0  0  0  0  0
  187.8170  177.9940  135.2810 C   0  0  0  0  0  2  0  0  0  0  0  0
  183.4450  171.1320  135.7430 C   0  0  1  0  0  3  0  0  0  0  0  0
  186.6930  176.2880  137.2480 C   0  0  1  0  0  3  0  0  0  0  0  0
  183.8470  175.8620  137.8750 C   0  0  2  0  0  3  0  0  0  0  0  0
  182.3140  178.7860  139.3850 C   0  0  0  0  0  1  0  0  0  0  0  0
  183.2630  177.1910  137.7290 C   0  0  1  0  0  3  0  0  0  0  0  0
  179.1990  176.1970  137.3490 C   0  0  0  0  0  2  0  0  0  0  0  0
  181.8300  175.3350  135.5770 C   0  0  0  0  0  2  0  0  0  0  0  0
  187.1840  178.7090  136.4640 C   0  0  0  0  0  2  0  0  0  0  0  0
  186.2460  177.7660  137.2220 C   0  0  2  0  0  3  0  0  0  0  0  0
  182.4950  173.9390  135.5400 C   0  0  2  0  0  3  0  0  0  0  0  0
  1  5  1  1  0  0  0
  1  4  1  0  0  0  0
  1 22  1  0  0  0  0
  2 22  1  0  0  0  0
  2 18  1  1  0  0  0
  3 11  1  0  0  0  0
  4 23  1  0  0  0  0
  6  8  1  0  0  0  0
  7 16  1  0  0  0  0
  7 10  1  0  0  0  0
 11 24  1  0  0  0  0
 12  9  1  0  0  0  0
 12  5  1  0  0  0  0
 12 13  1  0  0  0  0
 13  4  1  0  0  0  0
 13  8  1  0  0  0  0
 14  2  1  0  0  0  0
 15  7  1  0  0  0  0
 15 26  1  0  0  0  0
 19  3  1  0  0  0  0
 20 14  1  0  0  0  0
 20 28  1  0  0  0  0
 21  9  1  0  0  0  0
 21 17  1  0  0  0  0
 21  6  1  0  0  0  0
 23 10  1  0  0  0  0
 25 23  1  0  0  0  0
 25 10  1  0  0  0  0
 25 11  1  0  0  0  0
 26 16  1  0  0  0  0
 27  7  1  0  0  0  0
 28 29  1  0  0  0  0
 29 22  1  0  0  0  0
 29 19  1  0  0  0  0
 30 27  1  0  0  0  0
 30 13  1  0  0  0  0
 30  8  1  0  0  0  0
M  END
>  <MODEL>
3

>  <REMARK>
 VINA RESULT:      -5.5      5.432      7.440
  Name = 
  0 active torsions:
  status: ('A' for Active; 'I' for Inactive)
                            x       y       z     vdW  Elec       q    Type
                         _______ _______ _______ _____ _____    ______ ____

>  <TORSDO>
F 0

$$$$
=
 OpenBabel10262421503D

 30 37  0  0  1  0  0  0  0  0999 V2000
  182.7430  176.2730  138.5530 C   0  0  2  0  0  3  0  0  0  0  0  0
  182.2120  178.6960  139.1800 C   0  0  1  0  0  3  0  0  0  0  0  0
  186.7550  178.0380  137.6190 C   0  0  0  0  0  2  0  0  0  0  0  0
  183.5290  175.2570  137.6960 C   0  0  1  0  0  3  0  0  0  0  0  0
  180.9450  176.0450  138.2820 S   0  0  0  0  0  0  0  0  0  0  0  0
  181.5210  172.8920  135.1620 C   0  0  0  0  0  2  0  0  0  0  0  0
  185.6020  173.4610  136.3740 C   0  0  2  0  0  0  0  0  0  0  0  0
  182.7670  173.5280  135.8060 C   0  0  1  0  0  3  0  0  0  0  0  0
  180.0300  173.9610  136.8180 C   0  0  0  0  0  2  0  0  0  0  0  0
  185.4210  174.8880  135.9640 N   0  0  1  0  0  0  0  0  0  0  0  0
  186.5870  176.9790  136.5360 C   0  0  1  0  0  3  0  0  0  0  0  0
  181.1570  174.3160  137.7790 C   0  0  1  0  0  3  0  0  0  0  0  0
  182.5420  174.2330  137.1500 C   0  0  2  0  0  0  0  0  0  0  0  0
  182.3100  178.6330  140.7140 C   0  0  0  0  0  2  0  0  0  0  0  0
  187.3350  173.1120  136.8420 S   0  0  0  0  0  0  0  0  0  0  0  0
  185.6420  172.5910  135.1290 C   0  0  0  0  0  2  0  0  0  0  0  0
  179.1400  172.2210  135.3050 C   0  0  0  0  0  1  0  0  0  0  0  0
  182.4150  180.3750  138.6170 Cl  0  0  0  0  0  0  0  0  0  0  0  0
  185.4390  178.7310  137.9310 C   0  0  0  0  0  2  0  0  0  0  0  0
  183.6400  178.0790  141.2280 C   0  0  0  0  0  2  0  0  0  0  0  0
  180.3460  172.6650  136.1050 C   0  0  1  0  0  3  0  0  0  0  0  0
  183.1840  177.7490  138.4490 C   0  0  1  0  0  3  0  0  0  0  0  0
  184.4480  175.8250  136.6130 C   0  0  2  0  0  3  0  0  0  0  0  0
  187.9620  176.5550  136.0560 C   0  0  0  0  0  1  0  0  0  0  0  0
  185.8310  175.7720  137.0750 C   0  0  1  0  0  3  0  0  0  0  0  0
  187.0830  172.1700  135.3130 C   0  0  0  0  0  2  0  0  0  0  0  0
  184.6510  172.8360  137.4210 C   0  0  0  0  0  2  0  0  0  0  0  0
  184.7860  178.5230  140.3330 C   0  0  0  0  0  2  0  0  0  0  0  0
  184.6390  177.9180  138.9340 C   0  0  2  0  0  3  0  0  0  0  0  0
  183.1370  172.8240  137.1110 C   0  0  2  0  0  3  0  0  0  0  0  0
  1  5  1  6  0  0  0
  2 18  1  6  0  0  0
  2 14  1  0  0  0  0
  3 19  1  0  0  0  0
  4  1  1  0  0  0  0
  6  8  1  0  0  0  0
  6 21  1  0  0  0  0
  7 15  1  0  0  0  0
  7 27  1  0  0  0  0
  8 30  1  0  0  0  0
  8 13  1  0  0  0  0
  9 12  1  0  0  0  0
 10  7  1  0  0  0  0
 10 23  1  0  0  0  0
 10 25  1  0  0  0  0
 11 25  1  0  0  0  0
 11  3  1  0  0  0  0
 12  5  1  0  0  0  0
 13  4  1  0  0  0  0
 13 12  1  0  0  0  0
 14 20  1  0  0  0  0
 16 26  1  0  0  0  0
 16  7  1  0  0  0  0
 17 21  1  0  0  0  0
 19 29  1  0  0  0  0
 21  9  1  0  0  0  0
 22  1  1  0  0  0  0
 22 29  1  0  0  0  0
 22  2  1  0  0  0  0
 23 25  1  0  0  0  0
 23  4  1  0  0  0  0
 24 11  1  0  0  0  0
 26 15  1  0  0  0  0
 28 20  1  0  0  0  0
 29 28  1  0  0  0  0
 30 13  1  0  0  0  0
 30 27  1  0  0  0  0
M  END
>  <MODEL>
4

>  <REMARK>
 VINA RESULT:      -5.4      5.246      8.627
  Name = 
  0 active torsions:
  status: ('A' for Active; 'I' for Inactive)
                            x       y       z     vdW  Elec       q    Type
                         _______ _______ _______ _____ _____    ______ ____

>  <TORSDO>
F 0

$$$$
=
 OpenBabel10262421503D

 30 37  0  0  1  0  0  0  0  0999 V2000
  188.9710  176.7230  139.4090 C   0  0  2  0  0  3  0  0  0  0  0  0
  189.6960  176.5870  136.9590 C   0  0  1  0  0  3  0  0  0  0  0  0
  185.1850  178.2580  137.5690 C   0  0  0  0  0  2  0  0  0  0  0  0
  188.1330  177.3940  140.5190 C   0  0  1  0  0  3  0  0  0  0  0  0
  190.7510  176.8250  139.8350 S   0  0  0  0  0  0  0  0  0  0  0  0
  190.0240  179.2420  143.5280 C   0  0  0  0  0  2  0  0  0  0  0  0
  185.9640  178.4360  142.3840 C   0  0  2  0  0  0  0  0  0  0  0  0
  188.8150  178.8260  142.6700 C   0  0  1  0  0  3  0  0  0  0  0  0
  191.5330  177.7570  142.2520 C   0  0  0  0  0  2  0  0  0  0  0  0
  186.2940  179.1250  141.0980 N   0  0  1  0  0  0  0  0  0  0  0  0
  185.3020  179.0810  138.8460 C   0  0  1  0  0  3  0  0  0  0  0  0
  190.4030  176.9660  141.6090 C   0  0  1  0  0  3  0  0  0  0  0  0
  189.0450  177.6490  141.7130 C   0  0  2  0  0  0  0  0  0  0  0  0
  189.5250  175.0840  136.6820 C   0  0  0  0  0  2  0  0  0  0  0  0
  184.1870  178.0160  142.4820 S   0  0  0  0  0  0  0  0  0  0  0  0
  185.8990  179.4700  143.4950 C   0  0  0  0  0  2  0  0  0  0  0  0
  192.3250  178.8120  144.3430 C   0  0  0  0  0  1  0  0  0  0  0  0
  189.6740  177.5030  135.4300 Cl  0  0  0  0  0  0  0  0  0  0  0  0
  186.5450  178.0160  136.9330 C   0  0  0  0  0  2  0  0  0  0  0  0
  188.1280  174.5490  137.0040 C   0  0  0  0  0  2  0  0  0  0  0  0
  191.1310  178.2000  143.6420 C   0  0  1  0  0  3  0  0  0  0  0  0
  188.6740  177.1630  137.9600 C   0  0  1  0  0  3  0  0  0  0  0  0
  187.3190  178.6280  140.1250 C   0  0  2  0  0  3  0  0  0  0  0  0
  183.9170  179.5470  139.2510 C   0  0  0  0  0  1  0  0  0  0  0  0
  185.9180  178.2530  139.9660 C   0  0  1  0  0  3  0  0  0  0  0  0
  184.4180  179.2930  143.7490 C   0  0  0  0  0  2  0  0  0  0  0  0
  186.8060  177.2240  142.8430 C   0  0  0  0  0  2  0  0  0  0  0  0
  187.0690  175.5880  136.6710 C   0  0  0  0  0  2  0  0  0  0  0  0
  187.2200  176.8160  137.5730 C   0  0  2  0  0  3  0  0  0  0  0  0
  188.3250  177.4280  143.0450 C   0  0  2  0  0  3  0  0  0  0  0  0
  1  5  1  1  0  0  0
  1  4  1  0  0  0  0
  2 18  1  6  0  0  0
  2 22  1  0  0  0  0
  3 11  1  0  0  0  0
  4 13  1  0  0  0  0
  5 12  1  0  0  0  0
  6 21  1  0  0  0  0
  7 15  1  0  0  0  0
  7 27  1  0  0  0  0
  7 16  1  0  0  0  0
  8 30  1  0  0  0  0
  8  6  1  0  0  0  0
  9 21  1  0  0  0  0
 10  7  1  0  0  0  0
 11 24  1  0  0  0  0
 11 25  1  0  0  0  0
 12 13  1  0  0  0  0
 12  9  1  0  0  0  0
 13  8  1  0  0  0  0
 13 30  1  0  0  0  0
 14  2  1  0  0  0  0
 14 20  1  0  0  0  0
 15 26  1  0  0  0  0
 16 26  1  0  0  0  0
 19  3  1  0  0  0  0
 19 29  1  0  0  0  0
 21 17  1  0  0  0  0
 22  1  1  0  0  0  0
 23  4  1  0  0  0  0
 23 10  1  0  0  0  0
 25 23  1  0  0  0  0
 25 10  1  0  0  0  0
 27 30  1  0  0  0  0
 28 20  1  0  0  0  0
 28 29  1  0  0  0  0
 29 22  1  0  0  0  0
M  END
>  <MODEL>
5

>  <REMARK>
 VINA RESULT:      -5.4      2.365      5.993
  Name = 
  0 active torsions:
  status: ('A' for Active; 'I' for Inactive)
                            x       y       z     vdW  Elec       q    Type
                         _______ _______ _______ _____ _____    ______ ____

>  <TORSDO>
F 0

$$$$
=
 OpenBabel10262421503D

 30 37  0  0  1  0  0  0  0  0999 V2000
  188.4440  176.9150  138.5070 C   0  0  2  0  0  3  0  0  0  0  0  0
  187.4060  177.6340  136.2810 C   0  0  1  0  0  3  0  0  0  0  0  0
  184.8410  179.0030  140.1630 C   0  0  0  0  0  2  0  0  0  0  0  0
  188.6800  177.1620  140.0120 C   0  0  1  0  0  3  0  0  0  0  0  0
  190.0550  176.8590  137.6330 S   0  0  0  0  0  0  0  0  0  0  0  0
  192.4090  177.8500  141.3050 C   0  0  0  0  0  2  0  0  0  0  0  0
  188.4930  177.5010  143.0320 C   0  0  2  0  0  0  0  0  0  0  0  0
  190.8760  177.7590  141.4150 C   0  0  1  0  0  3  0  0  0  0  0  0
  192.3750  176.8940  139.0260 C   0  0  0  0  0  2  0  0  0  0  0  0
  188.0890  178.5910  142.0920 N   0  0  1  0  0  0  0  0  0  0  0  0
  185.9260  179.3320  141.1810 C   0  0  1  0  0  3  0  0  0  0  0  0
  190.9470  176.3780  139.1360 C   0  0  1  0  0  3  0  0  0  0  0  0
  190.1670  176.9860  140.2950 C   0  0  2  0  0  0  0  0  0  0  0  0
  186.7520  176.3200  135.8220 C   0  0  0  0  0  2  0  0  0  0  0  0
  187.1410  177.0770  144.1880 S   0  0  0  0  0  0  0  0  0  0  0  0
  189.3870  178.0870  144.1120 C   0  0  0  0  0  2  0  0  0  0  0  0
  194.5250  177.1570  140.2160 C   0  0  0  0  0  1  0  0  0  0  0  0
  186.6410  179.0220  135.4660 Cl  0  0  0  0  0  0  0  0  0  0  0  0
  185.3910  178.9930  138.7450 C   0  0  0  0  0  2  0  0  0  0  0  0
  185.7950  175.7100  136.8480 C   0  0  0  0  0  2  0  0  0  0  0  0
  193.0560  176.8300  140.3750 C   0  0  1  0  0  3  0  0  0  0  0  0
  187.4140  177.8300  137.8110 C   0  0  1  0  0  3  0  0  0  0  0  0
  188.1190  178.4590  140.6000 C   0  0  2  0  0  3  0  0  0  0  0  0
  185.2640  179.6330  142.5120 C   0  0  0  0  0  1  0  0  0  0  0  0
  186.8930  178.1660  141.3350 C   0  0  1  0  0  3  0  0  0  0  0  0
  188.4090  177.8370  145.2390 C   0  0  0  0  0  2  0  0  0  0  0  0
  189.1210  176.2020  142.4780 C   0  0  0  0  0  2  0  0  0  0  0  0
  185.0450  176.8030  137.5930 C   0  0  0  0  0  2  0  0  0  0  0  0
  186.0130  177.6430  138.4300 C   0  0  2  0  0  3  0  0  0  0  0  0
  190.4210  176.3200  141.6490 C   0  0  2  0  0  3  0  0  0  0  0  0
  1  5  1  6  0  0  0
  1  4  1  0  0  0  0
  2 18  1  6  0  0  0
  2 22  1  0  0  0  0
  3 11  1  0  0  0  0
  4 13  1  0  0  0  0
  4 23  1  0  0  0  0
  5 12  1  0  0  0  0
  6  8  1  0  0  0  0
  7 16  1  0  0  0  0
  7 15  1  0  0  0  0
  8 30  1  0  0  0  0
  9 12  1  0  0  0  0
  9 21  1  0  0  0  0
 10  7  1  0  0  0  0
 11 25  1  0  0  0  0
 11 24  1  0  0  0  0
 12 13  1  0  0  0  0
 13  8  1  0  0  0  0
 13 30  1  0  0  0  0
 14  2  1  0  0  0  0
 14 20  1  0  0  0  0
 15 26  1  0  0  0  0
 16 26  1  0  0  0  0
 17 21  1  0  0  0  0
 19  3  1  0  0  0  0
 20 28  1  0  0  0  0
 21  6  1  0  0  0  0
 22 29  1  0  0  0  0
 22  1  1  0  0  0  0
 23 25  1  0  0  0  0
 23 10  1  0  0  0  0
 25 10  1  0  0  0  0
 27  7  1  0  0  0  0
 28 29  1  0  0  0  0
 29 19  1  0  0  0  0
 30 27  1  0  0  0  0
M  END
>  <MODEL>
6

>  <REMARK>
 VINA RESULT:      -5.3      2.789      6.308
  Name = 
  0 active torsions:
  status: ('A' for Active; 'I' for Inactive)
                            x       y       z     vdW  Elec       q    Type
                         _______ _______ _______ _____ _____    ______ ____

>  <TORSDO>
F 0

$$$$
=
 OpenBabel10262421503D

 30 37  0  0  1  0  0  0  0  0999 V2000
  182.3220  178.1070  139.0540 C   0  0  2  0  0  3  0  0  0  0  0  0
  181.3730  178.9260  141.2850 C   0  0  1  0  0  3  0  0  0  0  0  0
  179.0940  175.0320  139.5080 C   0  0  0  0  0  2  0  0  0  0  0  0
  182.6120  176.9550  138.0690 C   0  0  1  0  0  3  0  0  0  0  0  0
  183.8940  178.9220  139.5280 S   0  0  0  0  0  0  0  0  0  0  0  0
  186.4190  176.0410  137.2200 C   0  0  0  0  0  2  0  0  0  0  0  0
  182.5180  174.6800  136.0470 C   0  0  2  0  0  0  0  0  0  0  0  0
  184.8910  175.8490  137.2150 C   0  0  1  0  0  3  0  0  0  0  0  0
  186.2110  178.2530  138.3020 C   0  0  0  0  0  2  0  0  0  0  0  0
  182.2680  174.4490  137.5040 N   0  0  1  0  0  0  0  0  0  0  0  0
  180.2290  174.2440  138.8650 C   0  0  1  0  0  3  0  0  0  0  0  0
  184.7230  178.3890  138.0070 C   0  0  1  0  0  3  0  0  0  0  0  0
  184.0590  177.0770  137.6090 C   0  0  2  0  0  0  0  0  0  0  0  0
  180.5240  180.1220  140.8250 C   0  0  0  0  0  2  0  0  0  0  0  0
  181.1330  174.0640  135.0240 S   0  0  0  0  0  0  0  0  0  0  0  0
  183.5040  173.6400  135.5440 C   0  0  0  0  0  2  0  0  0  0  0  0
  188.3920  177.5290  137.3910 C   0  0  0  0  0  1  0  0  0  0  0  0
  180.8140  178.3470  142.8760 Cl  0  0  0  0  0  0  0  0  0  0  0  0
  179.6170  176.0450  140.5140 C   0  0  0  0  0  2  0  0  0  0  0  0
  179.5000  179.7770  139.7420 C   0  0  0  0  0  2  0  0  0  0  0  0
  186.8930  177.4890  137.1880 C   0  0  1  0  0  3  0  0  0  0  0  0
  181.4310  177.7680  140.2690 C   0  0  1  0  0  3  0  0  0  0  0  0
  182.2590  175.5400  138.5310 C   0  0  2  0  0  3  0  0  0  0  0  0
  179.6370  173.0590  138.1250 C   0  0  0  0  0  1  0  0  0  0  0  0
  181.0130  175.1200  137.8980 C   0  0  1  0  0  3  0  0  0  0  0  0
  182.5140  172.9600  134.6230 C   0  0  0  0  0  2  0  0  0  0  0  0
  182.9370  176.0830  135.5530 C   0  0  0  0  0  2  0  0  0  0  0  0
  178.9320  178.3850  139.9690 C   0  0  0  0  0  2  0  0  0  0  0  0
  180.0260  177.3260  139.8070 C   0  0  2  0  0  3  0  0  0  0  0  0
  184.2290  176.7030  136.1350 C   0  0  2  0  0  3  0  0  0  0  0  0
  1  5  1  1  0  0  0
  1 22  1  0  0  0  0
  2 18  1  1  0  0  0
  3 19  1  0  0  0  0
  4 23  1  0  0  0  0
  4  1  1  0  0  0  0
  7 10  1  0  0  0  0
  8  6  1  0  0  0  0
  8 13  1  0  0  0  0
 10 25  1  0  0  0  0
 10 23  1  0  0  0  0
 11  3  1  0  0  0  0
 12  9  1  0  0  0  0
 12  5  1  0  0  0  0
 13 12  1  0  0  0  0
 13  4  1  0  0  0  0
 14  2  1  0  0  0  0
 15  7  1  0  0  0  0
 16  7  1  0  0  0  0
 20 28  1  0  0  0  0
 20 14  1  0  0  0  0
 21  6  1  0  0  0  0
 21 17  1  0  0  0  0
 21  9  1  0  0  0  0
 22  2  1  0  0  0  0
 24 11  1  0  0  0  0
 25 23  1  0  0  0  0
 25 11  1  0  0  0  0
 26 15  1  0  0  0  0
 26 16  1  0  0  0  0
 27  7  1  0  0  0  0
 27 30  1  0  0  0  0
 29 28  1  0  0  0  0
 29 22  1  0  0  0  0
 29 19  1  0  0  0  0
 30  8  1  0  0  0  0
 30 13  1  0  0  0  0
M  END
>  <MODEL>
7

>  <REMARK>
 VINA RESULT:      -5.3      5.487      8.523
  Name = 
  0 active torsions:
  status: ('A' for Active; 'I' for Inactive)
                            x       y       z     vdW  Elec       q    Type
                         _______ _______ _______ _____ _____    ______ ____

>  <TORSDO>
F 0

$$$$
=
 OpenBabel10262421503D

 30 37  0  0  1  0  0  0  0  0999 V2000
  183.8410  177.5940  137.7830 C   0  0  2  0  0  3  0  0  0  0  0  0
  182.8260  179.1000  139.5860 C   0  0  1  0  0  3  0  0  0  0  0  0
  179.9950  175.3630  138.3440 C   0  0  0  0  0  2  0  0  0  0  0  0
  183.9940  176.2000  137.1380 C   0  0  1  0  0  3  0  0  0  0  0  0
  185.4820  178.2040  138.3270 S   0  0  0  0  0  0  0  0  0  0  0  0
  187.5890  174.4320  137.1700 C   0  0  0  0  0  2  0  0  0  0  0  0
  183.6600  173.5500  135.6780 C   0  0  2  0  0  0  0  0  0  0  0  0
  186.0680  174.5240  136.9470 C   0  0  1  0  0  3  0  0  0  0  0  0
  187.7330  176.8440  137.6890 C   0  0  0  0  0  2  0  0  0  0  0  0
  183.1900  173.7370  137.0850 N   0  0  1  0  0  0  0  0  0  0  0  0
  181.0040  174.2490  138.0920 C   0  0  1  0  0  3  0  0  0  0  0  0
  186.3570  177.1690  137.1240 C   0  0  1  0  0  3  0  0  0  0  0  0
  185.4790  175.9410  136.9150 C   0  0  2  0  0  0  0  0  0  0  0  0
  182.3180  180.2770  138.7370 C   0  0  0  0  0  2  0  0  0  0  0  0
  182.3100  172.9590  134.5940 S   0  0  0  0  0  0  0  0  0  0  0  0
  184.4520  172.2560  135.5900 C   0  0  0  0  0  2  0  0  0  0  0  0
  189.8010  175.5350  137.3440 C   0  0  0  0  0  1  0  0  0  0  0  0
  181.9650  179.0460  141.1460 Cl  0  0  0  0  0  0  0  0  0  0  0  0
  180.5980  176.4840  139.1770 C   0  0  0  0  0  2  0  0  0  0  0  0
  181.3840  179.8640  137.5980 C   0  0  0  0  0  2  0  0  0  0  0  0
  188.3640  175.7170  136.9030 C   0  0  1  0  0  3  0  0  0  0  0  0
  182.7570  177.7350  138.8730 C   0  0  1  0  0  3  0  0  0  0  0  0
  183.2900  175.0320  137.8320 C   0  0  2  0  0  3  0  0  0  0  0  0
  180.2660  173.0440  137.5400 C   0  0  0  0  0  1  0  0  0  0  0  0
  182.0700  174.7010  137.1030 C   0  0  1  0  0  3  0  0  0  0  0  0
  183.4590  171.5590  134.6860 C   0  0  0  0  0  2  0  0  0  0  0  0
  184.4290  174.6860  134.9670 C   0  0  0  0  0  2  0  0  0  0  0  0
  180.5050  178.6980  138.0250 C   0  0  0  0  0  2  0  0  0  0  0  0
  181.3570  177.4530  138.2870 C   0  0  2  0  0  3  0  0  0  0  0  0
  185.7430  175.1870  135.6100 C   0  0  2  0  0  3  0  0  0  0  0  0
  1  5  1  1  0  0  0
  1 22  1  0  0  0  0
  2 18  1  1  0  0  0
  3 19  1  0  0  0  0
  4  1  1  0  0  0  0
  4 23  1  0  0  0  0
  7 10  1  0  0  0  0
  8  6  1  0  0  0  0
 10 25  1  0  0  0  0
 10 23  1  0  0  0  0
 11  3  1  0  0  0  0
 12  9  1  0  0  0  0
 12  5  1  0  0  0  0
 13  8  1  0  0  0  0
 13 12  1  0  0  0  0
 13  4  1  0  0  0  0
 14  2  1  0  0  0  0
 15 26  1  0  0  0  0
 15  7  1  0  0  0  0
 16  7  1  0  0  0  0
 20 28  1  0  0  0  0
 20 14  1  0  0  0  0
 21  6  1  0  0  0  0
 21 17  1  0  0  0  0
 21  9  1  0  0  0  0
 22  2  1  0  0  0  0
 24 11  1  0  0  0  0
 25 23  1  0  0  0  0
 25 11  1  0  0  0  0
 26 16  1  0  0  0  0
 27 30  1  0  0  0  0
 27  7  1  0  0  0  0
 28 29  1  0  0  0  0
 29 22  1  0  0  0  0
 29 19  1  0  0  0  0
 30 13  1  0  0  0  0
 30  8  1  0  0  0  0
M  END
>  <MODEL>
8

>  <REMARK>
 VINA RESULT:      -5.3      5.664      8.578
  Name = 
  0 active torsions:
  status: ('A' for Active; 'I' for Inactive)
                            x       y       z     vdW  Elec       q    Type
                         _______ _______ _______ _____ _____    ______ ____

>  <TORSDO>
F 0

$$$$
=
 OpenBabel10262421503D

 30 37  0  0  1  0  0  0  0  0999 V2000
  184.2290  178.7480  139.6560 C   0  0  2  0  0  3  0  0  0  0  0  0
  181.8890  178.4290  140.6410 C   0  0  1  0  0  3  0  0  0  0  0  0
  182.3560  176.7160  136.1290 C   0  0  0  0  0  2  0  0  0  0  0  0
  185.3590  178.2730  138.7170 C   0  0  1  0  0  3  0  0  0  0  0  0
  184.8470  178.8090  141.3800 S   0  0  0  0  0  0  0  0  0  0  0  0
  188.8560  177.1390  140.3090 C   0  0  0  0  0  2  0  0  0  0  0  0
  187.1620  177.5240  136.3810 C   0  0  2  0  0  0  0  0  0  0  0  0
  187.8120  177.3240  139.1920 C   0  0  1  0  0  3  0  0  0  0  0  0
  187.4690  178.4070  141.9140 C   0  0  0  0  0  2  0  0  0  0  0  0
  186.0820  176.6110  136.8650 N   0  0  1  0  0  0  0  0  0  0  0  0
  183.7770  176.1660  136.1240 C   0  0  1  0  0  3  0  0  0  0  0  0
  186.5670  179.0060  140.8440 C   0  0  1  0  0  3  0  0  0  0  0  0
  186.6670  178.2980  139.4980 C   0  0  2  0  0  0  0  0  0  0  0  0
  181.3000  179.8390  140.4670 C   0  0  0  0  0  2  0  0  0  0  0  0
  186.9920  177.8780  134.5950 S   0  0  0  0  0  0  0  0  0  0  0  0
  188.4460  176.7280  136.2180 C   0  0  0  0  0  2  0  0  0  0  0  0
  189.7990  177.8220  142.4960 C   0  0  0  0  0  1  0  0  0  0  0  0
  180.5800  177.2300  140.8060 Cl  0  0  0  0  0  0  0  0  0  0  0  0
  181.8270  176.8860  137.5440 C   0  0  0  0  0  2  0  0  0  0  0  0
  181.3630  180.3650  139.0320 C   0  0  0  0  0  2  0  0  0  0  0  0
  188.8700  178.2300  141.3730 C   0  0  1  0  0  3  0  0  0  0  0  0
  182.8740  178.0180  139.5290 C   0  0  1  0  0  3  0  0  0  0  0  0
  185.1390  176.9510  137.9790 C   0  0  2  0  0  3  0  0  0  0  0  0
  184.1230  175.7290  134.7140 C   0  0  0  0  0  1  0  0  0  0  0  0
  184.7650  177.2250  136.5960 C   0  0  1  0  0  3  0  0  0  0  0  0
  188.5060  176.8860  134.7150 C   0  0  0  0  0  2  0  0  0  0  0  0
  187.4530  178.8390  137.1400 C   0  0  0  0  0  2  0  0  0  0  0  0
  181.1390  179.2360  138.0390 C   0  0  0  0  0  2  0  0  0  0  0  0
  182.2790  178.2180  138.1190 C   0  0  2  0  0  3  0  0  0  0  0  0
  187.8460  178.7450  138.6320 C   0  0  2  0  0  3  0  0  0  0  0  0
  1  5  1  1  0  0  0
  2 18  1  6  0  0  0
  3 19  1  0  0  0  0
  4 13  1  0  0  0  0
  4  1  1  0  0  0  0
  6 21  1  0  0  0  0
  7 10  1  0  0  0  0
  7 27  1  0  0  0  0
  8 13  1  0  0  0  0
  8  6  1  0  0  0  0
 10 23  1  0  0  0  0
 11  3  1  0  0  0  0
 11 25  1  0  0  0  0
 12  5  1  0  0  0  0
 12  9  1  0  0  0  0
 13 12  1  0  0  0  0
 14  2  1  0  0  0  0
 15 26  1  0  0  0  0
 15  7  1  0  0  0  0
 16  7  1  0  0  0  0
 19 29  1  0  0  0  0
 20 14  1  0  0  0  0
 21  9  1  0  0  0  0
 21 17  1  0  0  0  0
 22  1  1  0  0  0  0
 22  2  1  0  0  0  0
 23  4  1  0  0  0  0
 24 11  1  0  0  0  0
 25 10  1  0  0  0  0
 25 23  1  0  0  0  0
 26 16  1  0  0  0  0
 27 30  1  0  0  0  0
 28 29  1  0  0  0  0
 28 20  1  0  0  0  0
 29 22  1  0  0  0  0
 30  8  1  0  0  0  0
 30 13  1  0  0  0  0
M  END
>  <MODEL>
9

>  <REMARK>
 VINA RESULT:      -5.1      3.517      8.083
  Name = 
  0 active torsions:
  status: ('A' for Active; 'I' for Inactive)
                            x       y       z     vdW  Elec       q    Type
                         _______ _______ _______ _____ _____    ______ ____

>  <TORSDO>
F 0

$$$$
