=
 OpenBabel10262422593D

 37 39  0  0  1  0  0  0  0  0999 V2000
  183.8840  179.6160  138.9570 C   0  0  0  0  0  2  0  0  0  0  0  0
  181.0560  176.5030  140.1360 C   0  0  0  0  0  2  0  0  0  0  0  0
  184.8280  178.4350  138.6590 C   0  0  2  0  0  3  0  0  0  0  0  0
  182.1960  177.3020  139.5010 C   0  0  2  0  0  3  0  0  0  0  0  0
  181.6850  178.4790  138.7220 C   0  0  0  0  0  3  0  0  0  0  0  0
  183.1320  176.4110  138.6510 C   0  0  1  0  0  3  0  0  0  0  0  0
  181.2680  174.7420  138.3810 C   0  0  0  0  0  2  0  0  0  0  0  0
  182.4700  179.5170  138.4230 C   0  0  0  0  0  0  0  0  0  0  0  0
  182.3260  175.5630  137.6580 C   0  0  0  0  0  2  0  0  0  0  0  0
  184.1850  177.2450  137.8960 C   0  0  2  0  0  3  0  0  0  0  0  0
  180.3010  175.6750  139.0990 C   0  0  1  0  0  3  0  0  0  0  0  0
  179.3090  174.9250  139.7330 O   0  0  0  0  0  0  0  0  0  0  0  0
  179.3510  175.3290  141.0670 C   0  0  0  0  0  1  0  0  0  0  0  0
  181.2980  181.6780  138.2070 C   0  0  0  0  0  1  0  0  0  0  0  0
  181.9350  180.5420  137.6400 O   0  0  0  0  0  0  0  0  0  0  0  0
  185.6880  178.1500  139.9060 C   0  0  1  0  0  3  0  0  0  0  0  0
  187.8010  178.9750  140.6500 O   0  0  0  0  0  1  0  0  0  0  0  0
  187.2000  178.1130  139.7340 C   0  0  0  0  0  2  0  0  0  0  0  0
  185.2510  178.9730  141.1130 C   0  0  0  0  0  2  0  0  0  0  0  0
  184.5810  178.1190  142.1780 C   0  0  0  0  0  2  0  0  0  0  0  0
  186.6500  177.4470  143.4130 C   0  0  0  0  0  3  0  0  0  0  0  0
  185.4090  178.0940  143.4140 C   0  0  0  0  0  0  0  0  0  0  0  0
  184.9370  178.6980  144.5840 C   0  0  0  0  0  3  0  0  0  0  0  0
  185.2410  179.2660  146.9090 O   0  0  0  0  0  1  0  0  0  0  0  0
  186.9510  178.0220  145.7470 C   0  0  0  0  0  3  0  0  0  0  0  0
  185.7080  178.6640  145.7490 C   0  0  0  0  0  0  0  0  0  0  0  0
  187.4220  177.4130  144.5800 C   0  0  0  0  0  3  0  0  0  0  0  0
  185.0820  176.4690  136.9140 C   0  0  1  0  0  3  0  0  0  0  0  0
  185.8490  177.3810  136.0050 C   0  0  0  0  0  0  0  0  0  0  0  0
  185.2850  177.9920  135.1100 O   0  0  0  0  0  0  0  0  0  0  0  0
  187.6910  178.9880  136.3630 C   0  0  0  0  0  1  0  0  0  0  0  0
  187.3220  177.5260  136.1940 C   0  0  0  0  0  2  0  0  0  0  0  0
  185.9910  175.4340  137.5620 C   0  0  0  0  0  2  0  0  0  0  0  0
  185.9170  174.1220  136.8080 C   0  0  0  0  0  2  0  0  0  0  0  0
  185.0960  173.1310  137.6020 C   0  0  0  0  0  2  0  0  0  0  0  0
  183.2480  171.6070  137.1280 C   0  0  0  0  0  2  0  0  0  0  0  0
  184.2870  172.2990  136.6690 C   0  0  0  0  0  3  0  0  0  0  0  0
  3  1  1  0  0  0  0
  3 16  1  1  0  0  0
  4  5  1  6  0  0  0
  4  2  1  0  0  0  0
  6  9  1  6  0  0  0
  6  4  1  0  0  0  0
  7 11  1  0  0  0  0
  8  5  2  0  0  0  0
  8  1  1  0  0  0  0
  9  7  1  0  0  0  0
 10 28  1  1  0  0  0
 10  6  1  0  0  0  0
 10  3  1  0  0  0  0
 11 12  1  1  0  0  0
 11  2  1  0  0  0  0
 12 13  1  0  0  0  0
 15 14  1  0  0  0  0
 15  8  1  0  0  0  0
 16 18  1  6  0  0  0
 16 19  1  0  0  0  0
 18 17  1  0  0  0  0
 19 20  1  0  0  0  0
 20 22  1  0  0  0  0
 21 22  2  0  0  0  0
 21 27  1  0  0  0  0
 22 23  1  0  0  0  0
 23 26  2  0  0  0  0
 25 26  1  0  0  0  0
 26 24  1  0  0  0  0
 27 25  2  0  0  0  0
 28 33  1  1  0  0  0
 29 32  1  0  0  0  0
 29 28  1  0  0  0  0
 30 29  2  0  0  0  0
 32 31  1  0  0  0  0
 34 33  1  0  0  0  0
 34 35  1  0  0  0  0
 37 36  2  0  0  0  0
 37 35  1  0  0  0  0
M  END
>  <MODEL>
1

>  <REMARK>
 VINA RESULT:      -5.6      0.000      0.000
  Name = 
  14 active torsions:
  status: ('A' for Active; 'I' for Inactive)
    1  A    between atoms: C_1  and  C_23
    2  A    between atoms: C_1  and  C_36
    3  A    between atoms: O_3  and  C_32
    4  A    between atoms: C_6  and  C_31
    5  A    between atoms: C_10  and  C_14
    6  A    between atoms: C_14  and  C_27
    7  A    between atoms: C_14  and  C_37
    8  A    between atoms: C_17  and  C_26
    9  A    between atoms: C_17  and  C_33
   10  A    between atoms: C_24  and  O_28
   11  A    between atoms: C_26  and  C_34
   12  A    between atoms: C_29  and  C_36
   13  A    between atoms: C_31  and  C_37
   14  A    between atoms: C_33  and  C_36
                            x       y       z     vdW  Elec       q    Type
                         _______ _______ _______ _____ _____    ______ ____

>  <TORSDO>
F 14

$$$$
=
 OpenBabel10262422593D

 37 39  0  0  1  0  0  0  0  0999 V2000
  183.1340  180.0340  138.5370 C   0  0  0  0  0  2  0  0  0  0  0  0
  180.9030  178.8690  142.1070 C   0  0  0  0  0  2  0  0  0  0  0  0
  183.3790  178.5220  138.3800 C   0  0  2  0  0  3  0  0  0  0  0  0
  181.5930  178.9100  140.7420 C   0  0  2  0  0  3  0  0  0  0  0  0
  181.0330  179.9940  139.8670 C   0  0  0  0  0  3  0  0  0  0  0  0
  181.5760  177.5340  140.0370 C   0  0  1  0  0  3  0  0  0  0  0  0
  179.5770  176.8720  141.4140 C   0  0  0  0  0  2  0  0  0  0  0  0
  181.7130  180.4740  138.8220 C   0  0  0  0  0  0  0  0  0  0  0  0
  180.1560  176.9510  140.0090 C   0  0  0  0  0  2  0  0  0  0  0  0
  182.1360  177.6190  138.6030 C   0  0  2  0  0  3  0  0  0  0  0  0
  179.5020  178.2710  142.0140 C   0  0  1  0  0  3  0  0  0  0  0  0
  178.9360  178.2050  143.2890 O   0  0  0  0  0  0  0  0  0  0  0  0
  179.7150  179.0590  144.0700 C   0  0  0  0  0  1  0  0  0  0  0  0
  181.5400  182.7830  137.9710 C   0  0  0  0  0  1  0  0  0  0  0  0
  181.0940  181.4360  138.0220 O   0  0  0  0  0  0  0  0  0  0  0  0
  184.7080  178.1530  139.0690 C   0  0  1  0  0  3  0  0  0  0  0  0
  186.3360  179.1060  137.6060 O   0  0  0  0  0  1  0  0  0  0  0  0
  185.9230  177.9080  138.1860 C   0  0  0  0  0  2  0  0  0  0  0  0
  185.0160  179.0560  140.2580 C   0  0  0  0  0  2  0  0  0  0  0  0
  186.2780  178.6290  140.9910 C   0  0  0  0  0  2  0  0  0  0  0  0
  186.9410  177.8430  143.2720 C   0  0  0  0  0  3  0  0  0  0  0  0
  185.9990  178.4640  142.4430 C   0  0  0  0  0  0  0  0  0  0  0  0
  184.7850  178.9080  142.9770 C   0  0  0  0  0  3  0  0  0  0  0  0
  183.3130  179.1860  144.8690 O   0  0  0  0  0  1  0  0  0  0  0  0
  185.4590  178.1250  145.1670 C   0  0  0  0  0  3  0  0  0  0  0  0
  184.5160  178.7410  144.3380 C   0  0  0  0  0  0  0  0  0  0  0  0
  186.6720  177.6750  144.6340 C   0  0  0  0  0  3  0  0  0  0  0  0
  182.0390  176.3310  137.7640 C   0  0  1  0  0  3  0  0  0  0  0  0
  181.1150  176.4850  136.5940 C   0  0  0  0  0  0  0  0  0  0  0  0
  180.6830  175.5060  136.0050 O   0  0  0  0  0  0  0  0  0  0  0  0
  179.3510  178.2130  136.6490 C   0  0  0  0  0  1  0  0  0  0  0  0
  180.7360  177.8560  136.1430 C   0  0  0  0  0  2  0  0  0  0  0  0
  183.3780  175.7420  137.3420 C   0  0  0  0  0  2  0  0  0  0  0  0
  183.5910  174.3930  137.9980 C   0  0  0  0  0  2  0  0  0  0  0  0
  184.8210  173.7370  137.4120 C   0  0  0  0  0  2  0  0  0  0  0  0
  183.3840  171.8070  136.9990 C   0  0  0  0  0  2  0  0  0  0  0  0
  184.5940  172.2700  137.2990 C   0  0  0  0  0  3  0  0  0  0  0  0
  1  8  1  0  0  0  0
  3  1  1  0  0  0  0
  3 10  1  0  0  0  0
  3 16  1  1  0  0  0
  4  5  1  6  0  0  0
  4  2  1  0  0  0  0
  6  9  1  6  0  0  0
  6  4  1  0  0  0  0
  7 11  1  0  0  0  0
  8  5  2  0  0  0  0
  9  7  1  0  0  0  0
 10 28  1  1  0  0  0
 10  6  1  0  0  0  0
 11  2  1  0  0  0  0
 11 12  1  1  0  0  0
 12 13  1  0  0  0  0
 14 15  1  0  0  0  0
 15  8  1  0  0  0  0
 16 18  1  6  0  0  0
 16 19  1  0  0  0  0
 17 18  1  0  0  0  0
 19 20  1  0  0  0  0
 20 22  1  0  0  0  0
 21 27  1  0  0  0  0
 22 23  1  0  0  0  0
 22 21  2  0  0  0  0
 23 26  2  0  0  0  0
 26 24  1  0  0  0  0
 26 25  1  0  0  0  0
 27 25  2  0  0  0  0
 28 33  1  6  0  0  0
 29 28  1  0  0  0  0
 30 29  2  0  0  0  0
 32 29  1  0  0  0  0
 32 31  1  0  0  0  0
 33 34  1  0  0  0  0
 35 34  1  0  0  0  0
 36 37  2  0  0  0  0
 37 35  1  0  0  0  0
M  END
>  <MODEL>
2

>  <REMARK>
 VINA RESULT:      -5.4      2.041      3.116
  Name = 
  14 active torsions:
  status: ('A' for Active; 'I' for Inactive)
    1  A    between atoms: C_1  and  C_23
    2  A    between atoms: C_1  and  C_36
    3  A    between atoms: O_3  and  C_32
    4  A    between atoms: C_6  and  C_31
    5  A    between atoms: C_10  and  C_14
    6  A    between atoms: C_14  and  C_27
    7  A    between atoms: C_14  and  C_37
    8  A    between atoms: C_17  and  C_26
    9  A    between atoms: C_17  and  C_33
   10  A    between atoms: C_24  and  O_28
   11  A    between atoms: C_26  and  C_34
   12  A    between atoms: C_29  and  C_36
   13  A    between atoms: C_31  and  C_37
   14  A    between atoms: C_33  and  C_36
                            x       y       z     vdW  Elec       q    Type
                         _______ _______ _______ _____ _____    ______ ____

>  <TORSDO>
F 14

$$$$
=
 OpenBabel10262422593D

 37 39  0  0  1  0  0  0  0  0999 V2000
  189.8470  177.2890  137.0860 C   0  0  0  0  0  2  0  0  0  0  0  0
  187.6500  173.5160  136.9560 C   0  0  0  0  0  2  0  0  0  0  0  0
  191.0870  176.3880  137.2420 C   0  0  2  0  0  3  0  0  0  0  0  0
  188.7150  174.6110  136.8700 C   0  0  2  0  0  3  0  0  0  0  0  0
  188.3100  175.7110  135.9320 C   0  0  0  0  0  3  0  0  0  0  0  0
  190.1110  174.0420  136.5230 C   0  0  1  0  0  3  0  0  0  0  0  0
  189.0130  172.0270  135.4900 C   0  0  0  0  0  2  0  0  0  0  0  0
  188.8650  176.9240  135.9920 C   0  0  0  0  0  0  0  0  0  0  0  0
  190.0390  173.1330  135.2880 C   0  0  0  0  0  2  0  0  0  0  0  0
  191.1430  175.1630  136.2900 C   0  0  2  0  0  3  0  0  0  0  0  0
  187.6360  172.6420  135.7050 C   0  0  1  0  0  3  0  0  0  0  0  0
  186.6870  171.6290  135.8530 O   0  0  0  0  0  0  0  0  0  0  0  0
  185.5860  172.2530  136.4390 C   0  0  0  0  0  1  0  0  0  0  0  0
  187.1350  177.9960  134.5980 C   0  0  0  0  0  1  0  0  0  0  0  0
  188.4780  177.8710  135.0420 O   0  0  0  0  0  0  0  0  0  0  0  0
  191.3780  176.1870  138.7420 C   0  0  1  0  0  3  0  0  0  0  0  0
  193.5150  177.1170  138.2250 O   0  0  0  0  0  1  0  0  0  0  0  0
  192.7210  176.6640  139.2770 C   0  0  0  0  0  2  0  0  0  0  0  0
  190.2080  176.6110  139.6230 C   0  0  0  0  0  2  0  0  0  0  0  0
  190.6690  177.3330  140.8800 C   0  0  0  0  0  2  0  0  0  0  0  0
  189.8030  176.8050  143.1670 C   0  0  0  0  0  3  0  0  0  0  0  0
  189.5810  177.3440  141.8950 C   0  0  0  0  0  0  0  0  0  0  0  0
  188.3270  177.8730  141.5700 C   0  0  0  0  0  3  0  0  0  0  0  0
  186.0580  178.4000  142.1960 O   0  0  0  0  0  1  0  0  0  0  0  0
  187.5240  177.3380  143.7910 C   0  0  0  0  0  3  0  0  0  0  0  0
  187.3000  177.8720  142.5180 C   0  0  0  0  0  0  0  0  0  0  0  0
  188.7750  176.8030  144.1150 C   0  0  0  0  0  3  0  0  0  0  0  0
  192.5330  174.7100  135.8050 C   0  0  1  0  0  3  0  0  0  0  0  0
  193.3390  175.8460  135.2530 C   0  0  0  0  0  0  0  0  0  0  0  0
  192.8060  176.7340  134.6050 O   0  0  0  0  0  0  0  0  0  0  0  0
  195.4040  177.1720  134.9700 C   0  0  0  0  0  1  0  0  0  0  0  0
  194.8120  175.8750  135.4900 C   0  0  0  0  0  2  0  0  0  0  0  0
  193.3300  173.9010  136.8180 C   0  0  0  0  0  2  0  0  0  0  0  0
  193.8320  172.6160  136.1910 C   0  0  0  0  0  2  0  0  0  0  0  0
  194.8240  171.9560  137.1220 C   0  0  0  0  0  2  0  0  0  0  0  0
  194.0570  169.8990  136.0540 C   0  0  0  0  0  2  0  0  0  0  0  0
  194.6060  170.4830  137.1140 C   0  0  0  0  0  3  0  0  0  0  0  0
  1  3  1  0  0  0  0
  3 16  1  1  0  0  0
  4  5  1  6  0  0  0
  4  2  1  0  0  0  0
  5  8  2  0  0  0  0
  6  9  1  6  0  0  0
  6  4  1  0  0  0  0
  7 11  1  0  0  0  0
  8  1  1  0  0  0  0
  9  7  1  0  0  0  0
 10 28  1  1  0  0  0
 10  6  1  0  0  0  0
 10  3  1  0  0  0  0
 11 12  1  1  0  0  0
 11  2  1  0  0  0  0
 12 13  1  0  0  0  0
 14 15  1  0  0  0  0
 15  8  1  0  0  0  0
 16 18  1  1  0  0  0
 16 19  1  0  0  0  0
 17 18  1  0  0  0  0
 19 20  1  0  0  0  0
 20 22  1  0  0  0  0
 21 27  1  0  0  0  0
 22 21  2  0  0  0  0
 23 22  1  0  0  0  0
 23 26  2  0  0  0  0
 24 26  1  0  0  0  0
 25 27  2  0  0  0  0
 26 25  1  0  0  0  0
 28 33  1  1  0  0  0
 29 32  1  0  0  0  0
 29 28  1  0  0  0  0
 30 29  2  0  0  0  0
 31 32  1  0  0  0  0
 34 33  1  0  0  0  0
 34 35  1  0  0  0  0
 36 37  2  0  0  0  0
 37 35  1  0  0  0  0
M  END
>  <MODEL>
3

>  <REMARK>
 VINA RESULT:      -4.3      5.111      7.270
  Name = 
  14 active torsions:
  status: ('A' for Active; 'I' for Inactive)
    1  A    between atoms: C_1  and  C_23
    2  A    between atoms: C_1  and  C_36
    3  A    between atoms: O_3  and  C_32
    4  A    between atoms: C_6  and  C_31
    5  A    between atoms: C_10  and  C_14
    6  A    between atoms: C_14  and  C_27
    7  A    between atoms: C_14  and  C_37
    8  A    between atoms: C_17  and  C_26
    9  A    between atoms: C_17  and  C_33
   10  A    between atoms: C_24  and  O_28
   11  A    between atoms: C_26  and  C_34
   12  A    between atoms: C_29  and  C_36
   13  A    between atoms: C_31  and  C_37
   14  A    between atoms: C_33  and  C_36
                            x       y       z     vdW  Elec       q    Type
                         _______ _______ _______ _____ _____    ______ ____

>  <TORSDO>
F 14

$$$$
=
 OpenBabel10262422593D

 37 39  0  0  1  0  0  0  0  0999 V2000
  191.0340  176.3510  139.0110 C   0  0  0  0  0  2  0  0  0  0  0  0
  188.9360  176.0970  142.8340 C   0  0  0  0  0  2  0  0  0  0  0  0
  189.6280  176.5800  138.4260 C   0  0  2  0  0  3  0  0  0  0  0  0
  189.3570  176.4030  141.3950 C   0  0  2  0  0  3  0  0  0  0  0  0
  190.6650  177.1380  141.3410 C   0  0  0  0  0  3  0  0  0  0  0  0
  188.2490  177.1410  140.6070 C   0  0  1  0  0  3  0  0  0  0  0  0
  187.2690  177.9530  142.7780 C   0  0  0  0  0  2  0  0  0  0  0  0
  191.4110  177.1620  140.2330 C   0  0  0  0  0  0  0  0  0  0  0  0
  187.7400  178.3590  141.3890 C   0  0  0  0  0  2  0  0  0  0  0  0
  188.7350  177.5780  139.2110 C   0  0  2  0  0  3  0  0  0  0  0  0
  188.4320  177.3460  143.5530 C   0  0  1  0  0  3  0  0  0  0  0  0
  188.0110  177.0060  144.8400 O   0  0  0  0  0  0  0  0  0  0  0  0
  186.9850  177.9050  145.1300 C   0  0  0  0  0  1  0  0  0  0  0  0
  193.8440  177.3790  139.8840 C   0  0  0  0  0  1  0  0  0  0  0  0
  192.5820  177.9210  140.2470 O   0  0  0  0  0  0  0  0  0  0  0  0
  189.0350  175.2250  137.9920 C   0  0  1  0  0  3  0  0  0  0  0  0
  187.1320  174.0160  137.2060 O   0  0  0  0  0  1  0  0  0  0  0  0
  187.7920  175.2400  137.1130 C   0  0  0  0  0  2  0  0  0  0  0  0
  190.1020  174.2600  137.4870 C   0  0  0  0  0  2  0  0  0  0  0  0
  190.4680  174.5180  136.0330 C   0  0  0  0  0  2  0  0  0  0  0  0
  192.6580  173.3810  135.6230 C   0  0  0  0  0  3  0  0  0  0  0  0
  191.9470  174.5590  135.8730 C   0  0  0  0  0  0  0  0  0  0  0  0
  192.6290  175.7740  135.9960 C   0  0  0  0  0  3  0  0  0  0  0  0
  194.6960  177.0180  135.9790 O   0  0  0  0  0  1  0  0  0  0  0  0
  194.7300  174.6350  135.6050 C   0  0  0  0  0  3  0  0  0  0  0  0
  194.0200  175.8120  135.8600 C   0  0  0  0  0  0  0  0  0  0  0  0
  194.0500  173.4190  135.4870 C   0  0  0  0  0  3  0  0  0  0  0  0
  187.7530  178.4400  138.3950 C   0  0  1  0  0  3  0  0  0  0  0  0
  188.3590  178.9300  137.1150 C   0  0  0  0  0  0  0  0  0  0  0  0
  189.2090  179.8080  137.1210 O   0  0  0  0  0  0  0  0  0  0  0  0
  189.0870  177.8290  135.0270 C   0  0  0  0  0  1  0  0  0  0  0  0
  187.9010  178.3440  135.8220 C   0  0  0  0  0  2  0  0  0  0  0  0
  186.3910  177.8040  138.1590 C   0  0  0  0  0  2  0  0  0  0  0  0
  185.2850  178.7830  138.5010 C   0  0  0  0  0  2  0  0  0  0  0  0
  184.3030  178.1230  139.4430 C   0  0  0  0  0  2  0  0  0  0  0  0
  183.7070  178.3710  141.7970 C   0  0  0  0  0  2  0  0  0  0  0  0
  184.2010  178.9230  140.6930 C   0  0  0  0  0  3  0  0  0  0  0  0
  1  8  1  0  0  0  0
  2 11  1  0  0  0  0
  3 16  1  1  0  0  0
  3  1  1  0  0  0  0
  3 10  1  0  0  0  0
  4  5  1  1  0  0  0
  4  2  1  0  0  0  0
  6  9  1  1  0  0  0
  6  4  1  0  0  0  0
  7 11  1  0  0  0  0
  8 15  1  0  0  0  0
  8  5  2  0  0  0  0
  9  7  1  0  0  0  0
 10 28  1  6  0  0  0
 10  6  1  0  0  0  0
 11 12  1  1  0  0  0
 12 13  1  0  0  0  0
 14 15  1  0  0  0  0
 16 18  1  6  0  0  0
 18 17  1  0  0  0  0
 19 16  1  0  0  0  0
 20 19  1  0  0  0  0
 21 22  1  0  0  0  0
 22 23  2  0  0  0  0
 22 20  1  0  0  0  0
 25 26  2  0  0  0  0
 26 24  1  0  0  0  0
 26 23  1  0  0  0  0
 27 25  1  0  0  0  0
 27 21  2  0  0  0  0
 28 33  1  6  0  0  0
 29 30  2  0  0  0  0
 29 28  1  0  0  0  0
 31 32  1  0  0  0  0
 32 29  1  0  0  0  0
 33 34  1  0  0  0  0
 34 35  1  0  0  0  0
 35 37  1  0  0  0  0
 37 36  2  0  0  0  0
M  END
>  <MODEL>
4

>  <REMARK>
 VINA RESULT:      -4.3      4.150      8.505
  Name = 
  14 active torsions:
  status: ('A' for Active; 'I' for Inactive)
    1  A    between atoms: C_1  and  C_23
    2  A    between atoms: C_1  and  C_36
    3  A    between atoms: O_3  and  C_32
    4  A    between atoms: C_6  and  C_31
    5  A    between atoms: C_10  and  C_14
    6  A    between atoms: C_14  and  C_27
    7  A    between atoms: C_14  and  C_37
    8  A    between atoms: C_17  and  C_26
    9  A    between atoms: C_17  and  C_33
   10  A    between atoms: C_24  and  O_28
   11  A    between atoms: C_26  and  C_34
   12  A    between atoms: C_29  and  C_36
   13  A    between atoms: C_31  and  C_37
   14  A    between atoms: C_33  and  C_36
                            x       y       z     vdW  Elec       q    Type
                         _______ _______ _______ _____ _____    ______ ____

>  <TORSDO>
F 14

$$$$
=
 OpenBabel10262422593D

 37 39  0  0  1  0  0  0  0  0999 V2000
  183.8580  178.2600  138.7560 C   0  0  0  0  0  2  0  0  0  0  0  0
  180.4400  177.8550  141.4450 C   0  0  0  0  0  2  0  0  0  0  0  0
  182.8320  178.8770  137.7870 C   0  0  2  0  0  3  0  0  0  0  0  0
  181.4190  178.2900  140.3520 C   0  0  2  0  0  3  0  0  0  0  0  0
  182.7360  178.7250  140.9260 C   0  0  0  0  0  3  0  0  0  0  0  0
  180.8140  179.3650  139.4190 C   0  0  1  0  0  3  0  0  0  0  0  0
  179.1990  180.0100  141.2380 C   0  0  0  0  0  2  0  0  0  0  0  0
  183.8460  178.7650  140.1840 C   0  0  0  0  0  0  0  0  0  0  0  0
  180.2200  180.5230  140.2320 C   0  0  0  0  0  2  0  0  0  0  0  0
  181.8550  179.9050  138.4190 C   0  0  2  0  0  3  0  0  0  0  0  0
  179.8780  179.0510  142.2090 C   0  0  1  0  0  3  0  0  0  0  0  0
  178.9520  178.6080  143.1550 O   0  0  0  0  0  0  0  0  0  0  0  0
  179.3950  179.1410  144.3660 C   0  0  0  0  0  1  0  0  0  0  0  0
  185.2830  179.0880  142.1630 C   0  0  0  0  0  1  0  0  0  0  0  0
  185.0160  179.2430  140.7770 O   0  0  0  0  0  0  0  0  0  0  0  0
  182.2680  177.7690  136.8760 C   0  0  1  0  0  3  0  0  0  0  0  0
  184.2040  177.4040  135.5260 O   0  0  0  0  0  1  0  0  0  0  0  0
  182.8330  177.6500  135.4680 C   0  0  0  0  0  2  0  0  0  0  0  0
  182.1740  176.4240  137.5890 C   0  0  0  0  0  2  0  0  0  0  0  0
  181.7650  175.3030  136.6470 C   0  0  0  0  0  2  0  0  0  0  0  0
  183.9010  174.2820  137.4550 C   0  0  0  0  0  3  0  0  0  0  0  0
  182.6600  174.1280  136.8250 C   0  0  0  0  0  0  0  0  0  0  0  0
  182.2720  172.8730  136.3440 C   0  0  0  0  0  3  0  0  0  0  0  0
  182.7320  170.5260  136.0240 O   0  0  0  0  0  1  0  0  0  0  0  0
  184.3560  171.9240  137.1320 C   0  0  0  0  0  3  0  0  0  0  0  0
  183.1190  171.7720  136.4990 C   0  0  0  0  0  0  0  0  0  0  0  0
  184.7480  173.1800  137.6100 C   0  0  0  0  0  3  0  0  0  0  0  0
  181.3930  181.0770  137.5330 C   0  0  1  0  0  3  0  0  0  0  0  0
  180.1740  180.7350  136.7310 C   0  0  0  0  0  0  0  0  0  0  0  0
  179.0670  180.7260  137.2480 O   0  0  0  0  0  0  0  0  0  0  0  0
  179.4700  179.1820  134.9440 C   0  0  0  0  0  1  0  0  0  0  0  0
  180.3270  180.3860  135.2880 C   0  0  0  0  0  2  0  0  0  0  0  0
  181.2260  182.4020  138.2620 C   0  0  0  0  0  2  0  0  0  0  0  0
  180.2990  183.3180  137.4880 C   0  0  0  0  0  2  0  0  0  0  0  0
  181.1170  184.3420  136.7340 C   0  0  0  0  0  2  0  0  0  0  0  0
  179.4150  184.2000  134.9890 C   0  0  0  0  0  2  0  0  0  0  0  0
  180.6970  184.3570  135.3060 C   0  0  0  0  0  3  0  0  0  0  0  0
  1  8  1  0  0  0  0
  2 11  1  0  0  0  0
  3 16  1  1  0  0  0
  3 10  1  0  0  0  0
  3  1  1  0  0  0  0
  4  5  1  1  0  0  0
  4  2  1  0  0  0  0
  6  9  1  1  0  0  0
  6  4  1  0  0  0  0
  7 11  1  0  0  0  0
  8 15  1  0  0  0  0
  8  5  2  0  0  0  0
  9  7  1  0  0  0  0
 10 28  1  6  0  0  0
 10  6  1  0  0  0  0
 11 12  1  1  0  0  0
 12 13  1  0  0  0  0
 15 14  1  0  0  0  0
 16 18  1  6  0  0  0
 16 19  1  0  0  0  0
 18 17  1  0  0  0  0
 20 22  1  0  0  0  0
 20 19  1  0  0  0  0
 21 27  1  0  0  0  0
 22 21  2  0  0  0  0
 23 26  2  0  0  0  0
 23 22  1  0  0  0  0
 24 26  1  0  0  0  0
 25 27  2  0  0  0  0
 26 25  1  0  0  0  0
 28 33  1  1  0  0  0
 29 30  2  0  0  0  0
 29 28  1  0  0  0  0
 31 32  1  0  0  0  0
 32 29  1  0  0  0  0
 34 33  1  0  0  0  0
 35 34  1  0  0  0  0
 36 37  2  0  0  0  0
 37 35  1  0  0  0  0
M  END
>  <MODEL>
5

>  <REMARK>
 VINA RESULT:      -3.8      2.731      7.573
  Name = 
  14 active torsions:
  status: ('A' for Active; 'I' for Inactive)
    1  A    between atoms: C_1  and  C_23
    2  A    between atoms: C_1  and  C_36
    3  A    between atoms: O_3  and  C_32
    4  A    between atoms: C_6  and  C_31
    5  A    between atoms: C_10  and  C_14
    6  A    between atoms: C_14  and  C_27
    7  A    between atoms: C_14  and  C_37
    8  A    between atoms: C_17  and  C_26
    9  A    between atoms: C_17  and  C_33
   10  A    between atoms: C_24  and  O_28
   11  A    between atoms: C_26  and  C_34
   12  A    between atoms: C_29  and  C_36
   13  A    between atoms: C_31  and  C_37
   14  A    between atoms: C_33  and  C_36
                            x       y       z     vdW  Elec       q    Type
                         _______ _______ _______ _____ _____    ______ ____

>  <TORSDO>
F 14

$$$$
=
 OpenBabel10262422593D

 37 39  0  0  1  0  0  0  0  0999 V2000
  189.1200  177.2250  138.8150 C   0  0  0  0  0  2  0  0  0  0  0  0
  192.7760  176.1870  136.6620 C   0  0  0  0  0  2  0  0  0  0  0  0
  188.4070  176.6710  137.5670 C   0  0  2  0  0  3  0  0  0  0  0  0
  191.3420  176.2660  137.1890 C   0  0  2  0  0  3  0  0  0  0  0  0
  191.2730  175.9910  138.6630 C   0  0  0  0  0  3  0  0  0  0  0  0
  190.3750  175.3620  136.3890 C   0  0  1  0  0  3  0  0  0  0  0  0
  192.3240  173.9420  135.6710 C   0  0  0  0  0  2  0  0  0  0  0  0
  190.2310  176.3810  139.4030 C   0  0  0  0  0  0  0  0  0  0  0  0
  190.9280  173.9350  136.2760 C   0  0  0  0  0  2  0  0  0  0  0  0
  188.9680  175.3310  137.0190 C   0  0  2  0  0  3  0  0  0  0  0  0
  193.2630  174.7440  136.5640 C   0  0  1  0  0  3  0  0  0  0  0  0
  194.5520  174.7210  136.0300 O   0  0  0  0  0  0  0  0  0  0  0  0
  194.8430  176.0540  135.7390 C   0  0  0  0  0  1  0  0  0  0  0  0
  190.3200  176.9950  141.7910 C   0  0  0  0  0  1  0  0  0  0  0  0
  190.2170  176.0300  140.7540 O   0  0  0  0  0  0  0  0  0  0  0  0
  188.1370  177.8290  136.5850 C   0  0  1  0  0  3  0  0  0  0  0  0
  189.4530  177.8980  134.5940 O   0  0  0  0  0  1  0  0  0  0  0  0
  188.2050  177.5280  135.0940 C   0  0  0  0  0  2  0  0  0  0  0  0
  186.9030  178.6380  136.9670 C   0  0  0  0  0  2  0  0  0  0  0  0
  185.6150  177.8570  136.7540 C   0  0  0  0  0  2  0  0  0  0  0  0
  185.1340  178.6840  139.0660 C   0  0  0  0  0  3  0  0  0  0  0  0
  184.8260  177.8130  138.0150 C   0  0  0  0  0  0  0  0  0  0  0  0
  183.7900  176.8840  138.1580 C   0  0  0  0  0  3  0  0  0  0  0  0
  182.0260  175.9140  139.4880 O   0  0  0  0  0  1  0  0  0  0  0  0
  183.3610  177.7060  140.3950 C   0  0  0  0  0  3  0  0  0  0  0  0
  183.0570  176.8320  139.3470 C   0  0  0  0  0  0  0  0  0  0  0  0
  184.4010  178.6310  140.2560 C   0  0  0  0  0  3  0  0  0  0  0  0
  187.9640  174.3540  136.3790 C   0  0  1  0  0  3  0  0  0  0  0  0
  188.2830  172.9250  136.6960 C   0  0  0  0  0  0  0  0  0  0  0  0
  188.3950  172.5500  137.8530 O   0  0  0  0  0  0  0  0  0  0  0  0
  187.3940  170.9010  135.5930 C   0  0  0  0  0  1  0  0  0  0  0  0
  188.4820  171.9590  135.5760 C   0  0  0  0  0  2  0  0  0  0  0  0
  186.5010  174.6730  136.6530 C   0  0  0  0  0  2  0  0  0  0  0  0
  185.6480  174.3100  135.4540 C   0  0  0  0  0  2  0  0  0  0  0  0
  184.2580  173.9380  135.9190 C   0  0  0  0  0  2  0  0  0  0  0  0
  183.8190  171.8800  137.1550 C   0  0  0  0  0  2  0  0  0  0  0  0
  184.3540  173.0970  137.1430 C   0  0  0  0  0  3  0  0  0  0  0  0
  1  8  1  0  0  0  0
  3 16  1  6  0  0  0
  3  1  1  0  0  0  0
  4  2  1  6  0  0  0
  4  5  1  0  0  0  0
  5  8  2  0  0  0  0
  6  9  1  1  0  0  0
  6 10  1  0  0  0  0
  6  4  1  0  0  0  0
  7  9  1  0  0  0  0
  7 11  1  0  0  0  0
  8 15  1  0  0  0  0
 10 28  1  6  0  0  0
 10  3  1  0  0  0  0
 11 12  1  6  0  0  0
 11  2  1  0  0  0  0
 13 12  1  0  0  0  0
 15 14  1  0  0  0  0
 16 18  1  6  0  0  0
 16 19  1  0  0  0  0
 17 18  1  0  0  0  0
 20 19  1  0  0  0  0
 20 22  1  0  0  0  0
 21 27  1  0  0  0  0
 22 23  1  0  0  0  0
 22 21  2  0  0  0  0
 23 26  2  0  0  0  0
 26 24  1  0  0  0  0
 26 25  1  0  0  0  0
 27 25  2  0  0  0  0
 28 33  1  1  0  0  0
 28 29  1  0  0  0  0
 29 30  2  0  0  0  0
 32 31  1  0  0  0  0
 32 29  1  0  0  0  0
 34 35  1  0  0  0  0
 34 33  1  0  0  0  0
 35 37  1  0  0  0  0
 37 36  2  0  0  0  0
M  END
>  <MODEL>
6

>  <REMARK>
 VINA RESULT:      -3.7      3.765      7.852
  Name = 
  14 active torsions:
  status: ('A' for Active; 'I' for Inactive)
    1  A    between atoms: C_1  and  C_23
    2  A    between atoms: C_1  and  C_36
    3  A    between atoms: O_3  and  C_32
    4  A    between atoms: C_6  and  C_31
    5  A    between atoms: C_10  and  C_14
    6  A    between atoms: C_14  and  C_27
    7  A    between atoms: C_14  and  C_37
    8  A    between atoms: C_17  and  C_26
    9  A    between atoms: C_17  and  C_33
   10  A    between atoms: C_24  and  O_28
   11  A    between atoms: C_26  and  C_34
   12  A    between atoms: C_29  and  C_36
   13  A    between atoms: C_31  and  C_37
   14  A    between atoms: C_33  and  C_36
                            x       y       z     vdW  Elec       q    Type
                         _______ _______ _______ _____ _____    ______ ____

>  <TORSDO>
F 14

$$$$
=
 OpenBabel10262422593D

 37 39  0  0  1  0  0  0  0  0999 V2000
  188.8560  177.4440  138.9770 C   0  0  0  0  0  2  0  0  0  0  0  0
  192.9560  176.5840  137.7400 C   0  0  0  0  0  2  0  0  0  0  0  0
  188.4710  176.7280  137.6680 C   0  0  2  0  0  3  0  0  0  0  0  0
  191.4400  176.5700  137.9490 C   0  0  2  0  0  3  0  0  0  0  0  0
  191.0780  176.4090  139.3960 C   0  0  0  0  0  3  0  0  0  0  0  0
  190.7380  175.5190  137.0580 C   0  0  1  0  0  3  0  0  0  0  0  0
  192.8960  174.2350  136.9020 C   0  0  0  0  0  2  0  0  0  0  0  0
  189.8750  176.7580  139.8620 C   0  0  0  0  0  0  0  0  0  0  0  0
  191.4070  174.1450  137.2030 C   0  0  0  0  0  2  0  0  0  0  0  0
  189.2350  175.4070  137.3830 C   0  0  2  0  0  3  0  0  0  0  0  0
  193.5590  175.1890  137.8870 C   0  0  1  0  0  3  0  0  0  0  0  0
  194.9310  175.2450  137.6360 O   0  0  0  0  0  0  0  0  0  0  0  0
  195.5090  174.4580  138.6320 C   0  0  0  0  0  1  0  0  0  0  0  0
  188.6240  177.2590  141.9290 C   0  0  0  0  0  1  0  0  0  0  0  0
  189.5970  176.5160  141.2080 O   0  0  0  0  0  0  0  0  0  0  0  0
  188.3330  177.7730  136.5440 C   0  0  1  0  0  3  0  0  0  0  0  0
  189.7680  177.6580  134.6390 O   0  0  0  0  0  1  0  0  0  0  0  0
  188.5050  177.2990  135.1070 C   0  0  0  0  0  2  0  0  0  0  0  0
  187.1110  178.6660  136.7270 C   0  0  0  0  0  2  0  0  0  0  0  0
  185.8180  177.8660  136.7790 C   0  0  0  0  0  2  0  0  0  0  0  0
  185.6840  178.6440  139.1530 C   0  0  0  0  0  3  0  0  0  0  0  0
  185.0290  178.2410  137.9830 C   0  0  0  0  0  0  0  0  0  0  0  0
  183.6320  178.1680  137.9550 C   0  0  0  0  0  3  0  0  0  0  0  0
  181.5050  178.4380  139.0600 O   0  0  0  0  0  1  0  0  0  0  0  0
  183.5440  178.9150  140.2570 C   0  0  0  0  0  3  0  0  0  0  0  0
  182.8910  178.5070  139.0900 C   0  0  0  0  0  0  0  0  0  0  0  0
  184.9410  178.9830  140.2890 C   0  0  0  0  0  3  0  0  0  0  0  0
  188.4670  174.2920  136.6480 C   0  0  1  0  0  3  0  0  0  0  0  0
  186.9870  174.3870  136.8640 C   0  0  0  0  0  0  0  0  0  0  0  0
  186.5010  174.1840  137.9660 O   0  0  0  0  0  0  0  0  0  0  0  0
  185.1310  173.5810  135.4470 C   0  0  0  0  0  1  0  0  0  0  0  0
  186.1030  174.7170  135.7080 C   0  0  0  0  0  2  0  0  0  0  0  0
  188.8070  174.1500  135.1720 C   0  0  0  0  0  2  0  0  0  0  0  0
  189.0230  172.6930  134.8170 C   0  0  0  0  0  2  0  0  0  0  0  0
  188.8040  171.8380  136.0460 C   0  0  0  0  0  2  0  0  0  0  0  0
  187.1500  170.7490  134.6200 C   0  0  0  0  0  2  0  0  0  0  0  0
  187.9220  170.6900  135.7000 C   0  0  0  0  0  3  0  0  0  0  0  0
  1  8  1  0  0  0  0
  2 11  1  0  0  0  0
  3 16  1  6  0  0  0
  3  1  1  0  0  0  0
  4  2  1  1  0  0  0
  4  5  1  0  0  0  0
  5  8  2  0  0  0  0
  6  9  1  1  0  0  0
  6 10  1  0  0  0  0
  6  4  1  0  0  0  0
  7  9  1  0  0  0  0
  7 11  1  0  0  0  0
  8 15  1  0  0  0  0
 10 28  1  6  0  0  0
 10  3  1  0  0  0  0
 11 12  1  6  0  0  0
 12 13  1  0  0  0  0
 15 14  1  0  0  0  0
 16 18  1  6  0  0  0
 16 19  1  0  0  0  0
 17 18  1  0  0  0  0
 19 20  1  0  0  0  0
 20 22  1  0  0  0  0
 21 27  1  0  0  0  0
 22 21  2  0  0  0  0
 23 22  1  0  0  0  0
 23 26  2  0  0  0  0
 24 26  1  0  0  0  0
 25 27  2  0  0  0  0
 26 25  1  0  0  0  0
 28 33  1  6  0  0  0
 28 29  1  0  0  0  0
 29 30  2  0  0  0  0
 31 32  1  0  0  0  0
 32 29  1  0  0  0  0
 34 33  1  0  0  0  0
 34 35  1  0  0  0  0
 36 37  2  0  0  0  0
 37 35  1  0  0  0  0
M  END
>  <MODEL>
7

>  <REMARK>
 VINA RESULT:      -3.7      3.875      7.778
  Name = 
  14 active torsions:
  status: ('A' for Active; 'I' for Inactive)
    1  A    between atoms: C_1  and  C_23
    2  A    between atoms: C_1  and  C_36
    3  A    between atoms: O_3  and  C_32
    4  A    between atoms: C_6  and  C_31
    5  A    between atoms: C_10  and  C_14
    6  A    between atoms: C_14  and  C_27
    7  A    between atoms: C_14  and  C_37
    8  A    between atoms: C_17  and  C_26
    9  A    between atoms: C_17  and  C_33
   10  A    between atoms: C_24  and  O_28
   11  A    between atoms: C_26  and  C_34
   12  A    between atoms: C_29  and  C_36
   13  A    between atoms: C_31  and  C_37
   14  A    between atoms: C_33  and  C_36
                            x       y       z     vdW  Elec       q    Type
                         _______ _______ _______ _____ _____    ______ ____

>  <TORSDO>
F 14

$$$$
=
 OpenBabel10262422593D

 37 39  0  0  1  0  0  0  0  0999 V2000
  188.9020  177.4320  137.1790 C   0  0  0  0  0  2  0  0  0  0  0  0
  186.1520  174.0380  137.2140 C   0  0  0  0  0  2  0  0  0  0  0  0
  189.9220  176.4180  137.7310 C   0  0  2  0  0  3  0  0  0  0  0  0
  187.3870  174.9410  137.1730 C   0  0  2  0  0  3  0  0  0  0  0  0
  187.3490  175.8840  136.0060 C   0  0  0  0  0  3  0  0  0  0  0  0
  188.7040  174.1320  137.2170 C   0  0  1  0  0  3  0  0  0  0  0  0
  187.4810  172.1240  136.3220 C   0  0  0  0  0  2  0  0  0  0  0  0
  188.0840  177.0000  135.9800 C   0  0  0  0  0  0  0  0  0  0  0  0
  188.7000  173.0210  136.1590 C   0  0  0  0  0  2  0  0  0  0  0  0
  189.9370  175.0360  137.0230 C   0  0  2  0  0  3  0  0  0  0  0  0
  186.2130  172.9490  136.1450 C   0  0  1  0  0  3  0  0  0  0  0  0
  185.0940  172.1220  136.2580 O   0  0  0  0  0  0  0  0  0  0  0  0
  184.4930  172.4940  137.4600 C   0  0  0  0  0  1  0  0  0  0  0  0
  187.0010  178.7300  134.5940 C   0  0  0  0  0  1  0  0  0  0  0  0
  188.0390  177.7890  134.8300 O   0  0  0  0  0  0  0  0  0  0  0  0
  189.9020  176.4710  139.2720 C   0  0  1  0  0  3  0  0  0  0  0  0
  191.8550  177.8450  139.2850 O   0  0  0  0  0  1  0  0  0  0  0  0
  191.1940  176.8390  139.9880 C   0  0  0  0  0  2  0  0  0  0  0  0
  188.6940  177.2280  139.8110 C   0  0  0  0  0  2  0  0  0  0  0  0
  188.9950  177.9270  141.1280 C   0  0  0  0  0  2  0  0  0  0  0  0
  186.6220  178.6680  141.4130 C   0  0  0  0  0  3  0  0  0  0  0  0
  187.7560  178.0430  141.9440 C   0  0  0  0  0  0  0  0  0  0  0  0
  187.7320  177.5460  143.2520 C   0  0  0  0  0  3  0  0  0  0  0  0
  186.5480  177.1700  145.3200 O   0  0  0  0  0  1  0  0  0  0  0  0
  185.4390  178.2870  143.4920 C   0  0  0  0  0  3  0  0  0  0  0  0
  186.5730  177.6670  144.0240 C   0  0  0  0  0  0  0  0  0  0  0  0
  185.4630  178.7890  142.1860 C   0  0  0  0  0  3  0  0  0  0  0  0
  191.2930  174.3140  136.9150 C   0  0  1  0  0  3  0  0  0  0  0  0
  191.8070  174.2800  135.5080 C   0  0  0  0  0  0  0  0  0  0  0  0
  191.5120  175.1590  134.7130 O   0  0  0  0  0  0  0  0  0  0  0  0
  191.8390  171.9000  134.8470 C   0  0  0  0  0  1  0  0  0  0  0  0
  192.6750  173.1450  135.0780 C   0  0  0  0  0  2  0  0  0  0  0  0
  192.3580  174.8060  137.8850 C   0  0  0  0  0  2  0  0  0  0  0  0
  193.4380  175.5660  137.1420 C   0  0  0  0  0  2  0  0  0  0  0  0
  194.7460  174.8130  137.2480 C   0  0  0  0  0  2  0  0  0  0  0  0
  196.2020  174.1700  139.0990 C   0  0  0  0  0  2  0  0  0  0  0  0
  194.9680  174.4040  138.6620 C   0  0  0  0  0  3  0  0  0  0  0  0
  1  3  1  0  0  0  0
  3 16  1  1  0  0  0
  4  5  1  6  0  0  0
  4  2  1  0  0  0  0
  4  6  1  0  0  0  0
  6  9  1  6  0  0  0
  8  5  2  0  0  0  0
  8  1  1  0  0  0  0
  9  7  1  0  0  0  0
 10 28  1  1  0  0  0
 10  6  1  0  0  0  0
 10  3  1  0  0  0  0
 11 12  1  1  0  0  0
 11  7  1  0  0  0  0
 11  2  1  0  0  0  0
 12 13  1  0  0  0  0
 14 15  1  0  0  0  0
 15  8  1  0  0  0  0
 16 19  1  6  0  0  0
 16 18  1  0  0  0  0
 17 18  1  0  0  0  0
 19 20  1  0  0  0  0
 20 22  1  0  0  0  0
 21 22  2  0  0  0  0
 21 27  1  0  0  0  0
 22 23  1  0  0  0  0
 23 26  2  0  0  0  0
 25 26  1  0  0  0  0
 26 24  1  0  0  0  0
 27 25  2  0  0  0  0
 28 33  1  1  0  0  0
 29 28  1  0  0  0  0
 30 29  2  0  0  0  0
 31 32  1  0  0  0  0
 32 29  1  0  0  0  0
 34 35  1  0  0  0  0
 34 33  1  0  0  0  0
 35 37  1  0  0  0  0
 37 36  2  0  0  0  0
M  END
>  <MODEL>
8

>  <REMARK>
 VINA RESULT:      -3.6      4.321      6.515
  Name = 
  14 active torsions:
  status: ('A' for Active; 'I' for Inactive)
    1  A    between atoms: C_1  and  C_23
    2  A    between atoms: C_1  and  C_36
    3  A    between atoms: O_3  and  C_32
    4  A    between atoms: C_6  and  C_31
    5  A    between atoms: C_10  and  C_14
    6  A    between atoms: C_14  and  C_27
    7  A    between atoms: C_14  and  C_37
    8  A    between atoms: C_17  and  C_26
    9  A    between atoms: C_17  and  C_33
   10  A    between atoms: C_24  and  O_28
   11  A    between atoms: C_26  and  C_34
   12  A    between atoms: C_29  and  C_36
   13  A    between atoms: C_31  and  C_37
   14  A    between atoms: C_33  and  C_36
                            x       y       z     vdW  Elec       q    Type
                         _______ _______ _______ _____ _____    ______ ____

>  <TORSDO>
F 14

$$$$
=
 OpenBabel10262422593D

 37 39  0  0  1  0  0  0  0  0999 V2000
  186.1460  175.3090  136.9810 C   0  0  0  0  0  2  0  0  0  0  0  0
  182.7040  177.5810  135.5420 C   0  0  0  0  0  2  0  0  0  0  0  0
  186.6450  176.6740  137.4890 C   0  0  2  0  0  3  0  0  0  0  0  0
  183.9340  177.0830  136.3050 C   0  0  2  0  0  3  0  0  0  0  0  0
  183.6970  175.7380  136.9270 C   0  0  0  0  0  3  0  0  0  0  0  0
  184.4380  178.1160  137.3390 C   0  0  1  0  0  3  0  0  0  0  0  0
  182.1430  179.1460  137.4030 C   0  0  0  0  0  2  0  0  0  0  0  0
  184.7090  174.9440  137.2890 C   0  0  0  0  0  0  0  0  0  0  0  0
  183.2890  178.5950  138.2380 C   0  0  0  0  0  2  0  0  0  0  0  0
  185.5800  177.5480  138.2050 C   0  0  2  0  0  3  0  0  0  0  0  0
  181.6040  178.0510  136.4910 C   0  0  1  0  0  3  0  0  0  0  0  0
  180.5280  178.5440  135.7510 O   0  0  0  0  0  0  0  0  0  0  0  0
  180.3610  179.8570  136.1930 C   0  0  0  0  0  1  0  0  0  0  0  0
  184.3840  172.4990  137.2230 C   0  0  0  0  0  1  0  0  0  0  0  0
  184.4030  173.7370  137.9190 O   0  0  0  0  0  0  0  0  0  0  0  0
  187.5410  177.3170  136.4110 C   0  0  1  0  0  3  0  0  0  0  0  0
  188.9290  179.1630  137.0170 O   0  0  0  0  0  1  0  0  0  0  0  0
  187.7080  178.8300  136.4340 C   0  0  0  0  0  2  0  0  0  0  0  0
  188.8650  176.5800  136.2430 C   0  0  0  0  0  2  0  0  0  0  0  0
  189.2040  175.7250  137.4540 C   0  0  0  0  0  2  0  0  0  0  0  0
  190.4410  176.6530  139.4210 C   0  0  0  0  0  3  0  0  0  0  0  0
  190.4570  176.2120  138.0930 C   0  0  0  0  0  0  0  0  0  0  0  0
  191.6470  176.2500  137.3590 C   0  0  0  0  0  3  0  0  0  0  0  0
  194.0030  176.7530  137.2260 O   0  0  0  0  0  1  0  0  0  0  0  0
  192.8070  177.1560  139.2820 C   0  0  0  0  0  3  0  0  0  0  0  0
  192.8220  176.7190  137.9540 C   0  0  0  0  0  0  0  0  0  0  0  0
  191.6160  177.1230  140.0160 C   0  0  0  0  0  3  0  0  0  0  0  0
  186.0640  178.4470  139.3580 C   0  0  1  0  0  3  0  0  0  0  0  0
  184.9440  178.8550  140.2670 C   0  0  0  0  0  0  0  0  0  0  0  0
  184.4840  179.9860  140.2240 O   0  0  0  0  0  0  0  0  0  0  0  0
  184.4830  178.4190  142.6540 C   0  0  0  0  0  1  0  0  0  0  0  0
  184.4030  177.8650  141.2430 C   0  0  0  0  0  2  0  0  0  0  0  0
  187.2470  177.8980  140.1420 C   0  0  0  0  0  2  0  0  0  0  0  0
  187.8500  178.9810  141.0140 C   0  0  0  0  0  2  0  0  0  0  0  0
  188.6410  178.3420  142.1340 C   0  0  0  0  0  2  0  0  0  0  0  0
  188.4560  176.3870  143.5840 C   0  0  0  0  0  2  0  0  0  0  0  0
  187.9480  177.1050  142.5870 C   0  0  0  0  0  3  0  0  0  0  0  0
  1  8  1  0  0  0  0
  1  3  1  0  0  0  0
  2 11  1  0  0  0  0
  3 16  1  6  0  0  0
  3 10  1  0  0  0  0
  4  2  1  1  0  0  0
  4  5  1  0  0  0  0
  4  6  1  0  0  0  0
  5  8  2  0  0  0  0
  6 10  1  0  0  0  0
  6  9  1  1  0  0  0
  7  9  1  0  0  0  0
  8 15  1  0  0  0  0
 10 28  1  6  0  0  0
 11 12  1  6  0  0  0
 11  7  1  0  0  0  0
 12 13  1  0  0  0  0
 14 15  1  0  0  0  0
 16 19  1  1  0  0  0
 16 18  1  0  0  0  0
 18 17  1  0  0  0  0
 19 20  1  0  0  0  0
 20 22  1  0  0  0  0
 21 27  1  0  0  0  0
 22 21  2  0  0  0  0
 23 26  2  0  0  0  0
 23 22  1  0  0  0  0
 24 26  1  0  0  0  0
 25 27  2  0  0  0  0
 26 25  1  0  0  0  0
 28 33  1  1  0  0  0
 28 29  1  0  0  0  0
 29 32  1  0  0  0  0
 30 29  2  0  0  0  0
 32 31  1  0  0  0  0
 33 34  1  0  0  0  0
 34 35  1  0  0  0  0
 35 37  1  0  0  0  0
 37 36  2  0  0  0  0
M  END
>  <MODEL>
9

>  <REMARK>
 VINA RESULT:      -3.5      2.942      6.485
  Name = 
  14 active torsions:
  status: ('A' for Active; 'I' for Inactive)
    1  A    between atoms: C_1  and  C_23
    2  A    between atoms: C_1  and  C_36
    3  A    between atoms: O_3  and  C_32
    4  A    between atoms: C_6  and  C_31
    5  A    between atoms: C_10  and  C_14
    6  A    between atoms: C_14  and  C_27
    7  A    between atoms: C_14  and  C_37
    8  A    between atoms: C_17  and  C_26
    9  A    between atoms: C_17  and  C_33
   10  A    between atoms: C_24  and  O_28
   11  A    between atoms: C_26  and  C_34
   12  A    between atoms: C_29  and  C_36
   13  A    between atoms: C_31  and  C_37
   14  A    between atoms: C_33  and  C_36
                            x       y       z     vdW  Elec       q    Type
                         _______ _______ _______ _____ _____    ______ ____

>  <TORSDO>
F 14

$$$$
