=
 OpenBabel10262420503D

 28 32  0  0  1  0  0  0  0  0999 V2000
  190.0840  177.7780  141.8530 C   0  0  2  0  0  3  0  0  0  0  0  0
  184.8740  178.2610  142.5320 C   0  0  0  0  0  2  0  0  0  0  0  0
  189.2740  176.5400  145.9660 N   0  0  0  0  0  1  0  0  0  0  0  0
  184.8520  179.1390  144.8640 C   0  0  1  0  0  3  0  0  0  0  0  0
  186.8900  177.9210  144.0560 C   0  0  0  0  0  0  0  0  0  0  0  0
  182.6880  178.8940  143.5720 C   0  0  0  0  0  0  0  0  0  0  0  0
  185.3810  178.0160  143.9530 C   0  0  2  0  0  3  0  0  0  0  0  0
  186.5230  178.0440  146.4880 C   0  0  0  0  0  2  0  0  0  0  0  0
  183.3270  179.0930  144.9260 C   0  0  0  0  0  2  0  0  0  0  0  0
  189.7140  178.2710  144.2770 C   0  0  1  0  0  3  0  0  0  0  0  0
  187.7500  177.9500  142.8080 C   0  0  0  0  0  2  0  0  0  0  0  0
  185.4480  179.1190  146.2850 C   0  0  0  0  0  2  0  0  0  0  0  0
  192.0200  177.7620  143.4800 C   0  0  0  0  0  3  0  0  0  0  0  0
  188.9270  177.8870  145.5330 C   0  0  1  0  0  3  0  0  0  0  0  0
  191.2060  178.1570  144.4680 C   0  0  0  0  0  3  0  0  0  0  0  0
  180.9490  179.0640  143.4320 Cl  0  0  0  0  0  0  0  0  0  0  0  0
  183.3790  178.4450  142.5100 C   0  0  0  0  0  3  0  0  0  0  0  0
  187.4380  177.9690  145.2960 C   0  0  0  0  0  0  0  0  0  0  0  0
  191.5060  177.2940  142.1420 C   0  0  0  0  0  2  0  0  0  0  0  0
  189.1890  177.5000  143.0640 C   0  0  1  0  0  3  0  0  0  0  0  0
  189.5680  177.0550  140.6100 C   0  0  0  0  0  2  0  0  0  0  0  0
  190.0380  177.7050  139.3080 C   0  0  2  0  0  3  0  0  0  0  0  0
  189.8800  177.2370  136.9460 N   0  0  0  0  0  0  0  0  0  0  0  0
  189.0010  178.6240  138.7230 C   0  0  0  0  0  2  0  0  0  0  0  0
  191.8040  176.3790  138.1730 C   0  0  0  0  0  1  0  0  0  0  0  0
  190.3190  176.6850  138.2250 C   0  0  1  0  0  3  0  0  0  0  0  0
  188.8890  176.3200  136.4080 C   0  0  0  0  0  1  0  0  0  0  0  0
  189.1900  178.4950  137.2270 C   0  0  0  0  0  2  0  0  0  0  0  0
  1 21  1  6  0  0  0
  1 19  1  0  0  0  0
  1 20  1  0  0  0  0
  4  9  1  1  0  0  0
  4 12  1  0  0  0  0
  5 18  2  0  0  0  0
  6  9  1  0  0  0  0
  7  2  1  6  0  0  0
  7  5  1  0  0  0  0
  7  4  1  0  0  0  0
 10 15  1  1  0  0  0
 10 14  1  0  0  0  0
 11  5  1  0  0  0  0
 12  8  1  0  0  0  0
 13 15  2  0  0  0  0
 14  3  1  6  0  0  0
 16  6  1  0  0  0  0
 17  2  1  0  0  0  0
 17  6  2  0  0  0  0
 18 14  1  0  0  0  0
 18  8  1  0  0  0  0
 19 13  1  0  0  0  0
 20 11  1  6  0  0  0
 20 10  1  0  0  0  0
 22 21  1  1  0  0  0
 23 28  1  0  0  0  0
 23 26  1  0  0  0  0
 24 22  1  0  0  0  0
 26 25  1  6  0  0  0
 26 22  1  0  0  0  0
 27 23  1  0  0  0  0
 28 24  1  0  0  0  0
M  END
>  <MODEL>
1

>  <REMARK>
 VINA RESULT:     -10.9      0.000      0.000
  Name = 
  2 active torsions:
  status: ('A' for Active; 'I' for Inactive)
    1  A    between atoms: C_1  and  C_2
    2  A    between atoms: C_2  and  C_3
                            x       y       z     vdW  Elec       q    Type
                         _______ _______ _______ _____ _____    ______ ____

>  <TORSDO>
F 2

$$$$
=
 OpenBabel10262420503D

 28 32  0  0  1  0  0  0  0  0999 V2000
  189.8790  177.3790  143.0060 C   0  0  2  0  0  3  0  0  0  0  0  0
  184.7750  178.6330  143.4610 C   0  0  0  0  0  2  0  0  0  0  0  0
  188.7470  179.2570  139.2250 N   0  0  0  0  0  1  0  0  0  0  0  0
  184.0160  178.0710  141.1550 C   0  0  1  0  0  3  0  0  0  0  0  0
  186.4560  178.4900  141.5500 C   0  0  0  0  0  0  0  0  0  0  0  0
  182.3460  178.8360  142.8980 C   0  0  0  0  0  0  0  0  0  0  0  0
  185.0500  178.8620  141.9750 C   0  0  2  0  0  3  0  0  0  0  0  0
  185.6080  178.7600  139.2530 C   0  0  0  0  0  2  0  0  0  0  0  0
  182.6090  178.5980  141.4300 C   0  0  0  0  0  2  0  0  0  0  0  0
  188.9080  177.2990  140.7030 C   0  0  1  0  0  3  0  0  0  0  0  0
  187.4820  178.0540  142.5770 C   0  0  0  0  0  2  0  0  0  0  0  0
  184.2980  178.0600  139.6400 C   0  0  0  0  0  2  0  0  0  0  0  0
  191.3610  176.9670  140.9980 C   0  0  0  0  0  3  0  0  0  0  0  0
  188.0660  178.0480  139.6660 C   0  0  1  0  0  3  0  0  0  0  0  0
  190.2870  176.9590  140.1960 C   0  0  0  0  0  3  0  0  0  0  0  0
  180.7090  179.2060  143.4070 Cl  0  0  0  0  0  0  0  0  0  0  0  0
  183.3370  178.9250  143.8010 C   0  0  0  0  0  3  0  0  0  0  0  0
  186.7080  178.4110  140.2190 C   0  0  0  0  0  0  0  0  0  0  0  0
  191.2970  177.4210  142.4340 C   0  0  0  0  0  2  0  0  0  0  0  0
  188.9110  178.0560  142.0320 C   0  0  1  0  0  3  0  0  0  0  0  0
  189.8800  178.0840  144.3610 C   0  0  0  0  0  2  0  0  0  0  0  0
  189.4030  177.1820  145.5000 C   0  0  2  0  0  3  0  0  0  0  0  0
  189.2780  177.2970  147.9060 N   0  0  0  0  0  0  0  0  0  0  0  0
  187.9710  177.4490  145.8760 C   0  0  0  0  0  2  0  0  0  0  0  0
  191.2790  176.3420  146.8920 C   0  0  0  0  0  1  0  0  0  0  0  0
  190.1940  177.3950  146.7730 C   0  0  1  0  0  3  0  0  0  0  0  0
  189.3530  178.5600  148.6220 C   0  0  0  0  0  1  0  0  0  0  0  0
  187.9240  177.1910  147.3670 C   0  0  0  0  0  2  0  0  0  0  0  0
  1 21  1  1  0  0  0
  2 17  1  0  0  0  0
  4 12  1  6  0  0  0
  4  9  1  0  0  0  0
  4  7  1  0  0  0  0
  5  7  1  0  0  0  0
  5 11  1  0  0  0  0
  6 16  1  0  0  0  0
  6 17  2  0  0  0  0
  7  2  1  1  0  0  0
  8 12  1  0  0  0  0
  8 18  1  0  0  0  0
  9  6  1  0  0  0  0
 10 15  1  6  0  0  0
 10 20  1  0  0  0  0
 13 19  1  0  0  0  0
 14  3  1  1  0  0  0
 14 18  1  0  0  0  0
 14 10  1  0  0  0  0
 15 13  2  0  0  0  0
 18  5  2  0  0  0  0
 19  1  1  0  0  0  0
 20 11  1  1  0  0  0
 20  1  1  0  0  0  0
 22 21  1  6  0  0  0
 22 24  1  0  0  0  0
 22 26  1  0  0  0  0
 23 27  1  0  0  0  0
 24 28  1  0  0  0  0
 26 25  1  1  0  0  0
 26 23  1  0  0  0  0
 28 23  1  0  0  0  0
M  END
>  <MODEL>
2

>  <REMARK>
 VINA RESULT:      -9.8      1.773      5.803
  Name = 
  2 active torsions:
  status: ('A' for Active; 'I' for Inactive)
    1  A    between atoms: C_1  and  C_2
    2  A    between atoms: C_2  and  C_3
                            x       y       z     vdW  Elec       q    Type
                         _______ _______ _______ _____ _____    ______ ____

>  <TORSDO>
F 2

$$$$
=
 OpenBabel10262420503D

 28 32  0  0  1  0  0  0  0  0999 V2000
  186.3490  178.2070  141.8210 C   0  0  2  0  0  3  0  0  0  0  0  0
  190.3770  177.0420  145.0220 C   0  0  0  0  0  2  0  0  0  0  0  0
  185.3600  179.9550  145.7030 N   0  0  0  0  0  1  0  0  0  0  0  0
  189.1040  176.5620  147.1110 C   0  0  1  0  0  3  0  0  0  0  0  0
  188.0060  177.9320  145.3210 C   0  0  0  0  0  0  0  0  0  0  0  0
  191.6170  176.2560  147.0480 C   0  0  0  0  0  0  0  0  0  0  0  0
  189.3240  177.5890  145.9860 C   0  0  2  0  0  3  0  0  0  0  0  0
  187.1420  178.1500  147.6170 C   0  0  0  0  0  2  0  0  0  0  0  0
  190.3880  176.3800  147.9180 C   0  0  0  0  0  2  0  0  0  0  0  0
  185.4120  178.0620  144.1350 C   0  0  1  0  0  3  0  0  0  0  0  0
  187.8540  177.8330  143.8150 C   0  0  0  0  0  2  0  0  0  0  0  0
  187.9270  176.9030  148.0450 C   0  0  0  0  0  2  0  0  0  0  0  0
  183.9270  178.7850  142.2680 C   0  0  0  0  0  3  0  0  0  0  0  0
  185.5730  178.5190  145.5880 C   0  0  1  0  0  3  0  0  0  0  0  0
  184.0720  178.4340  143.5540 C   0  0  0  0  0  3  0  0  0  0  0  0
  193.1340  175.7990  147.8010 Cl  0  0  0  0  0  0  0  0  0  0  0  0
  191.6250  176.6280  145.7570 C   0  0  0  0  0  3  0  0  0  0  0  0
  186.9410  178.1710  146.1260 C   0  0  0  0  0  0  0  0  0  0  0  0
  185.1000  178.9450  141.3340 C   0  0  0  0  0  2  0  0  0  0  0  0
  186.6000  178.5360  143.2950 C   0  0  1  0  0  3  0  0  0  0  0  0
  187.5330  178.6300  140.9520 C   0  0  0  0  0  2  0  0  0  0  0  0
  187.8340  177.6330  139.8330 C   0  0  2  0  0  3  0  0  0  0  0  0
  188.5470  177.7290  137.5310 N   0  0  0  0  0  0  0  0  0  0  0  0
  189.2880  177.2530  139.7840 C   0  0  0  0  0  2  0  0  0  0  0  0
  186.1560  177.7280  138.0050 C   0  0  0  0  0  1  0  0  0  0  0  0
  187.5240  178.1970  138.4620 C   0  0  1  0  0  3  0  0  0  0  0  0
  189.1810  178.9110  136.9700 C   0  0  0  0  0  1  0  0  0  0  0  0
  189.5650  177.0300  138.3130 C   0  0  0  0  0  2  0  0  0  0  0  0
  1 21  1  6  0  0  0
  1 20  1  0  0  0  0
  2 17  1  0  0  0  0
  4  9  1  1  0  0  0
  4 12  1  0  0  0  0
  5  7  1  0  0  0  0
  5 18  2  0  0  0  0
  6 16  1  0  0  0  0
  6  9  1  0  0  0  0
  7  2  1  6  0  0  0
  7  4  1  0  0  0  0
  8 12  1  0  0  0  0
 10 15  1  6  0  0  0
 10 14  1  0  0  0  0
 11  5  1  0  0  0  0
 13 15  2  0  0  0  0
 14  3  1  6  0  0  0
 14 18  1  0  0  0  0
 17  6  2  0  0  0  0
 18  8  1  0  0  0  0
 19  1  1  0  0  0  0
 19 13  1  0  0  0  0
 20 11  1  1  0  0  0
 20 10  1  0  0  0  0
 22 21  1  1  0  0  0
 23 28  1  0  0  0  0
 23 26  1  0  0  0  0
 24 22  1  0  0  0  0
 26 25  1  6  0  0  0
 26 22  1  0  0  0  0
 27 23  1  0  0  0  0
 28 24  1  0  0  0  0
M  END
>  <MODEL>
3

>  <REMARK>
 VINA RESULT:      -9.7      3.151      5.505
  Name = 
  2 active torsions:
  status: ('A' for Active; 'I' for Inactive)
    1  A    between atoms: C_1  and  C_2
    2  A    between atoms: C_2  and  C_3
                            x       y       z     vdW  Elec       q    Type
                         _______ _______ _______ _____ _____    ______ ____

>  <TORSDO>
F 2

$$$$
=
 OpenBabel10262420503D

 28 32  0  0  1  0  0  0  0  0999 V2000
  189.6440  177.9580  139.7340 C   0  0  2  0  0  3  0  0  0  0  0  0
  184.9510  178.3680  142.1080 C   0  0  0  0  0  2  0  0  0  0  0  0
  189.9870  175.7560  143.4940 N   0  0  0  0  0  1  0  0  0  0  0  0
  185.7140  178.6400  144.4650 C   0  0  1  0  0  3  0  0  0  0  0  0
  187.2870  177.6180  142.8000 C   0  0  0  0  0  0  0  0  0  0  0  0
  183.2500  178.7700  143.8990 C   0  0  0  0  0  0  0  0  0  0  0  0
  185.8330  177.7680  143.2020 C   0  0  2  0  0  3  0  0  0  0  0  0
  187.6800  177.1410  145.1840 C   0  0  0  0  0  2  0  0  0  0  0  0
  184.2810  178.6130  144.9910 C   0  0  0  0  0  2  0  0  0  0  0  0
  190.0680  177.8420  142.1960 C   0  0  1  0  0  3  0  0  0  0  0  0
  187.7330  177.9380  141.3870 C   0  0  0  0  0  2  0  0  0  0  0  0
  186.7030  178.2560  145.5820 C   0  0  0  0  0  2  0  0  0  0  0  0
  191.9680  177.4980  140.6200 C   0  0  0  0  0  3  0  0  0  0  0  0
  189.6600  177.1750  143.5120 C   0  0  1  0  0  3  0  0  0  0  0  0
  191.5290  177.6530  141.8770 C   0  0  0  0  0  3  0  0  0  0  0  0
  181.5740  179.0060  144.3560 Cl  0  0  0  0  0  0  0  0  0  0  0  0
  183.5430  178.5840  142.6010 C   0  0  0  0  0  3  0  0  0  0  0  0
  188.1830  177.3450  143.7810 C   0  0  0  0  0  0  0  0  0  0  0  0
  191.0330  177.3880  139.4420 C   0  0  0  0  0  2  0  0  0  0  0  0
  189.1310  177.4080  141.0670 C   0  0  1  0  0  3  0  0  0  0  0  0
  188.7110  177.5780  138.5850 C   0  0  0  0  0  2  0  0  0  0  0  0
  189.4640  177.1860  137.3140 C   0  0  2  0  0  3  0  0  0  0  0  0
  189.0100  175.9080  135.3190 N   0  0  0  0  0  0  0  0  0  0  0  0
  189.2280  178.1550  136.1890 C   0  0  0  0  0  2  0  0  0  0  0  0
  189.9860  174.7590  137.2350 C   0  0  0  0  0  1  0  0  0  0  0  0
  189.0250  175.8400  136.7770 C   0  0  1  0  0  3  0  0  0  0  0  0
  187.6550  175.6000  134.8940 C   0  0  0  0  0  1  0  0  0  0  0  0
  189.2700  177.2960  134.9430 C   0  0  0  0  0  2  0  0  0  0  0  0
  1 21  1  6  0  0  0
  1 20  1  0  0  0  0
  2 17  1  0  0  0  0
  4  9  1  1  0  0  0
  4 12  1  0  0  0  0
  5  7  1  0  0  0  0
  5 18  2  0  0  0  0
  6 16  1  0  0  0  0
  6  9  1  0  0  0  0
  7  2  1  6  0  0  0
  7  4  1  0  0  0  0
  8 12  1  0  0  0  0
 10 15  1  6  0  0  0
 10 14  1  0  0  0  0
 11  5  1  0  0  0  0
 13 15  2  0  0  0  0
 14  3  1  6  0  0  0
 14 18  1  0  0  0  0
 17  6  2  0  0  0  0
 18  8  1  0  0  0  0
 19  1  1  0  0  0  0
 19 13  1  0  0  0  0
 20 11  1  1  0  0  0
 20 10  1  0  0  0  0
 22 21  1  1  0  0  0
 23 26  1  0  0  0  0
 24 22  1  0  0  0  0
 26 25  1  6  0  0  0
 26 22  1  0  0  0  0
 27 23  1  0  0  0  0
 28 23  1  0  0  0  0
 28 24  1  0  0  0  0
M  END
>  <MODEL>
4

>  <REMARK>
 VINA RESULT:      -9.3      1.256      1.993
  Name = 
  2 active torsions:
  status: ('A' for Active; 'I' for Inactive)
    1  A    between atoms: C_1  and  C_2
    2  A    between atoms: C_2  and  C_3
                            x       y       z     vdW  Elec       q    Type
                         _______ _______ _______ _____ _____    ______ ____

>  <TORSDO>
F 2

$$$$
=
 OpenBabel10262420503D

 28 32  0  0  1  0  0  0  0  0999 V2000
  186.3450  178.1020  140.5060 C   0  0  2  0  0  3  0  0  0  0  0  0
  189.7740  177.3400  144.4420 C   0  0  0  0  0  2  0  0  0  0  0  0
  184.6490  180.1060  144.0000 N   0  0  0  0  0  1  0  0  0  0  0  0
  188.1660  176.9740  146.3110 C   0  0  1  0  0  3  0  0  0  0  0  0
  187.3670  178.1600  144.2510 C   0  0  0  0  0  0  0  0  0  0  0  0
  190.6570  176.7600  146.7110 C   0  0  0  0  0  0  0  0  0  0  0  0
  188.5560  177.9200  145.1610 C   0  0  2  0  0  3  0  0  0  0  0  0
  186.1090  178.5220  146.3370 C   0  0  0  0  0  2  0  0  0  0  0  0
  189.2920  176.9040  147.3410 C   0  0  0  0  0  2  0  0  0  0  0  0
  185.0210  178.1010  142.6270 C   0  0  1  0  0  3  0  0  0  0  0  0
  187.4850  177.9400  142.7550 C   0  0  0  0  0  2  0  0  0  0  0  0
  186.8350  177.3420  146.9960 C   0  0  0  0  0  2  0  0  0  0  0  0
  183.8700  178.6220  140.4780 C   0  0  0  0  0  3  0  0  0  0  0  0
  184.9120  178.6750  144.0430 C   0  0  1  0  0  3  0  0  0  0  0  0
  183.7950  178.3770  141.7930 C   0  0  0  0  0  3  0  0  0  0  0  0
  192.0280  176.4200  147.7500 Cl  0  0  0  0  0  0  0  0  0  0  0  0
  190.8830  177.0310  145.4140 C   0  0  0  0  0  3  0  0  0  0  0  0
  186.1720  178.4200  144.8370 C   0  0  0  0  0  0  0  0  0  0  0  0
  185.1850  178.7520  139.7510 C   0  0  0  0  0  2  0  0  0  0  0  0
  186.3260  178.5530  141.9690 C   0  0  1  0  0  3  0  0  0  0  0  0
  187.6530  178.5010  139.8240 C   0  0  0  0  0  2  0  0  0  0  0  0
  188.3220  177.3350  139.0960 C   0  0  2  0  0  3  0  0  0  0  0  0
  189.1290  176.8780  136.8680 N   0  0  0  0  0  0  0  0  0  0  0  0
  189.8230  177.4340  139.1180 C   0  0  0  0  0  2  0  0  0  0  0  0
  186.8270  176.2890  137.4120 C   0  0  0  0  0  1  0  0  0  0  0  0
  187.9500  177.2840  137.6290 C   0  0  1  0  0  3  0  0  0  0  0  0
  189.4070  177.9400  135.9170 C   0  0  0  0  0  1  0  0  0  0  0  0
  190.2560  176.8320  137.7990 C   0  0  0  0  0  2  0  0  0  0  0  0
  1 21  1  6  0  0  0
  1 20  1  0  0  0  0
  2 17  1  0  0  0  0
  4 12  1  1  0  0  0
  4  9  1  0  0  0  0
  5 18  2  0  0  0  0
  5  7  1  0  0  0  0
  6  9  1  0  0  0  0
  6 16  1  0  0  0  0
  7  2  1  6  0  0  0
  7  4  1  0  0  0  0
  8 12  1  0  0  0  0
 10 15  1  6  0  0  0
 10 14  1  0  0  0  0
 11  5  1  0  0  0  0
 13 15  2  0  0  0  0
 14  3  1  6  0  0  0
 14 18  1  0  0  0  0
 17  6  2  0  0  0  0
 18  8  1  0  0  0  0
 19 13  1  0  0  0  0
 19  1  1  0  0  0  0
 20 10  1  0  0  0  0
 20 11  1  1  0  0  0
 22 24  1  0  0  0  0
 22 21  1  6  0  0  0
 23 26  1  0  0  0  0
 23 28  1  0  0  0  0
 26 25  1  1  0  0  0
 26 22  1  0  0  0  0
 27 23  1  0  0  0  0
 28 24  1  0  0  0  0
M  END
>  <MODEL>
5

>  <REMARK>
 VINA RESULT:      -9.2      2.954      5.180
  Name = 
  2 active torsions:
  status: ('A' for Active; 'I' for Inactive)
    1  A    between atoms: C_1  and  C_2
    2  A    between atoms: C_2  and  C_3
                            x       y       z     vdW  Elec       q    Type
                         _______ _______ _______ _____ _____    ______ ____

>  <TORSDO>
F 2

$$$$
=
 OpenBabel10262420503D

 28 32  0  0  1  0  0  0  0  0999 V2000
  186.5230  178.5140  138.8170 C   0  0  2  0  0  3  0  0  0  0  0  0
  187.4620  177.6260  143.9320 C   0  0  0  0  0  2  0  0  0  0  0  0
  190.4050  176.5140  139.0110 N   0  0  0  0  0  1  0  0  0  0  0  0
  189.9060  178.1110  143.9820 C   0  0  1  0  0  3  0  0  0  0  0  0
  188.8350  177.5540  141.7850 C   0  0  0  0  0  0  0  0  0  0  0  0
  188.6720  177.5530  146.1210 C   0  0  0  0  0  0  0  0  0  0  0  0
  188.8050  177.2990  143.2790 C   0  0  2  0  0  3  0  0  0  0  0  0
  191.2670  177.2180  141.9870 C   0  0  0  0  0  2  0  0  0  0  0  0
  190.0160  177.6930  145.4470 C   0  0  0  0  0  2  0  0  0  0  0  0
  189.0070  178.5340  139.1090 C   0  0  1  0  0  3  0  0  0  0  0  0
  187.5780  177.9760  141.0500 C   0  0  0  0  0  2  0  0  0  0  0  0
  191.2820  178.0220  143.2940 C   0  0  0  0  0  2  0  0  0  0  0  0
  188.0520  178.7180  136.8140 C   0  0  0  0  0  3  0  0  0  0  0  0
  190.2110  177.7870  139.6900 C   0  0  1  0  0  3  0  0  0  0  0  0
  189.1210  178.7530  137.6220 C   0  0  0  0  0  3  0  0  0  0  0  0
  188.6260  177.3190  147.8590 Cl  0  0  0  0  0  0  0  0  0  0  0  0
  187.5260  177.4470  145.4270 C   0  0  0  0  0  3  0  0  0  0  0  0
  190.0450  177.5450  141.1720 C   0  0  0  0  0  0  0  0  0  0  0  0
  186.6770  178.3480  137.3050 C   0  0  0  0  0  2  0  0  0  0  0  0
  187.7040  177.8510  139.5310 C   0  0  1  0  0  3  0  0  0  0  0  0
  185.1970  177.8840  139.2440 C   0  0  0  0  0  2  0  0  0  0  0  0
  184.3420  178.8220  140.0940 C   0  0  2  0  0  3  0  0  0  0  0  0
  182.0120  179.0330  140.6870 N   0  0  0  0  0  0  0  0  0  0  0  0
  184.1760  178.3240  141.5040 C   0  0  0  0  0  2  0  0  0  0  0  0
  182.8210  180.2220  138.7190 C   0  0  0  0  0  1  0  0  0  0  0  0
  182.9330  178.9630  139.5560 C   0  0  1  0  0  3  0  0  0  0  0  0
  181.0780  177.9290  140.5420 C   0  0  0  0  0  1  0  0  0  0  0  0
  182.7880  178.7780  141.9000 C   0  0  0  0  0  2  0  0  0  0  0  0
  1 21  1  1  0  0  0
  1 20  1  0  0  0  0
  2 17  1  0  0  0  0
  4 12  1  6  0  0  0
  4  9  1  0  0  0  0
  5  7  1  0  0  0  0
  6 16  1  0  0  0  0
  7  2  1  1  0  0  0
  7  4  1  0  0  0  0
  8 12  1  0  0  0  0
  9  6  1  0  0  0  0
 10 15  1  6  0  0  0
 10 20  1  0  0  0  0
 10 14  1  0  0  0  0
 11  5  1  0  0  0  0
 13 19  1  0  0  0  0
 13 15  2  0  0  0  0
 14  3  1  6  0  0  0
 14 18  1  0  0  0  0
 17  6  2  0  0  0  0
 18  5  2  0  0  0  0
 18  8  1  0  0  0  0
 19  1  1  0  0  0  0
 20 11  1  1  0  0  0
 22 21  1  6  0  0  0
 22 24  1  0  0  0  0
 23 28  1  0  0  0  0
 24 28  1  0  0  0  0
 26 25  1  1  0  0  0
 26 22  1  0  0  0  0
 26 23  1  0  0  0  0
 27 23  1  0  0  0  0
M  END
>  <MODEL>
6

>  <REMARK>
 VINA RESULT:      -9.0      2.980      6.408
  Name = 
  2 active torsions:
  status: ('A' for Active; 'I' for Inactive)
    1  A    between atoms: C_1  and  C_2
    2  A    between atoms: C_2  and  C_3
                            x       y       z     vdW  Elec       q    Type
                         _______ _______ _______ _____ _____    ______ ____

>  <TORSDO>
F 2

$$$$
=
 OpenBabel10262420503D

 28 32  0  0  1  0  0  0  0  0999 V2000
  186.9890  178.2930  144.5590 C   0  0  2  0  0  3  0  0  0  0  0  0
  190.0440  176.9730  140.4660 C   0  0  0  0  0  2  0  0  0  0  0  0
  184.3010  177.7840  141.1510 N   0  0  0  0  0  1  0  0  0  0  0  0
  188.8990  178.2730  138.6740 C   0  0  1  0  0  3  0  0  0  0  0  0
  187.6320  177.7390  140.7710 C   0  0  0  0  0  0  0  0  0  0  0  0
  191.0120  176.9750  138.1580 C   0  0  0  0  0  0  0  0  0  0  0  0
  188.6940  177.2510  139.8060 C   0  0  2  0  0  3  0  0  0  0  0  0
  186.3250  178.2520  138.7460 C   0  0  0  0  0  2  0  0  0  0  0  0
  189.8050  177.6880  137.5930 C   0  0  0  0  0  2  0  0  0  0  0  0
  185.8450  179.1380  142.5020 C   0  0  1  0  0  3  0  0  0  0  0  0
  187.9150  177.8060  142.2590 C   0  0  0  0  0  2  0  0  0  0  0  0
  187.5860  178.7860  138.0530 C   0  0  0  0  0  2  0  0  0  0  0  0
  184.6940  179.3450  144.7040 C   0  0  0  0  0  3  0  0  0  0  0  0
  185.3630  178.7790  141.0940 C   0  0  1  0  0  3  0  0  0  0  0  0
  184.7290  179.6220  143.3930 C   0  0  0  0  0  3  0  0  0  0  0  0
  192.2750  176.4620  137.0550 Cl  0  0  0  0  0  0  0  0  0  0  0  0
  191.0810  176.5880  139.4430 C   0  0  0  0  0  3  0  0  0  0  0  0
  186.4950  178.2560  140.2410 C   0  0  0  0  0  0  0  0  0  0  0  0
  185.6990  178.4400  145.3680 C   0  0  0  0  0  2  0  0  0  0  0  0
  186.6490  177.9810  143.0990 C   0  0  1  0  0  3  0  0  0  0  0  0
  187.8280  177.1760  145.1800 C   0  0  0  0  0  2  0  0  0  0  0  0
  189.1500  177.6800  145.7610 C   0  0  2  0  0  3  0  0  0  0  0  0
  190.9150  176.8000  147.1490 N   0  0  0  0  0  0  0  0  0  0  0  0
  190.3210  177.3630  144.8730 C   0  0  0  0  0  2  0  0  0  0  0  0
  189.0560  177.9520  148.2270 C   0  0  0  0  0  1  0  0  0  0  0  0
  189.4750  177.0370  147.0920 C   0  0  1  0  0  3  0  0  0  0  0  0
  191.1010  175.3720  147.3440 C   0  0  0  0  0  1  0  0  0  0  0  0
  191.4650  177.1270  145.8350 C   0  0  0  0  0  2  0  0  0  0  0  0
  1 21  1  1  0  0  0
  1 19  1  0  0  0  0
  4  9  1  6  0  0  0
  4  7  1  0  0  0  0
  5 11  1  0  0  0  0
  6 17  2  0  0  0  0
  7  2  1  1  0  0  0
  7  5  1  0  0  0  0
  8 18  1  0  0  0  0
  9  6  1  0  0  0  0
 10 20  1  0  0  0  0
 10 15  1  1  0  0  0
 12  4  1  0  0  0  0
 12  8  1  0  0  0  0
 13 19  1  0  0  0  0
 14  3  1  1  0  0  0
 14 10  1  0  0  0  0
 15 13  2  0  0  0  0
 16  6  1  0  0  0  0
 17  2  1  0  0  0  0
 18  5  2  0  0  0  0
 18 14  1  0  0  0  0
 20 11  1  6  0  0  0
 20  1  1  0  0  0  0
 22 21  1  6  0  0  0
 22 26  1  0  0  0  0
 23 27  1  0  0  0  0
 24 22  1  0  0  0  0
 24 28  1  0  0  0  0
 26 23  1  0  0  0  0
 26 25  1  1  0  0  0
 28 23  1  0  0  0  0
M  END
>  <MODEL>
7

>  <REMARK>
 VINA RESULT:      -8.9      3.256      7.604
  Name = 
  2 active torsions:
  status: ('A' for Active; 'I' for Inactive)
    1  A    between atoms: C_1  and  C_2
    2  A    between atoms: C_2  and  C_3
                            x       y       z     vdW  Elec       q    Type
                         _______ _______ _______ _____ _____    ______ ____

>  <TORSDO>
F 2

$$$$
=
 OpenBabel10262420503D

 28 32  0  0  1  0  0  0  0  0999 V2000
  185.6830  178.0240  143.5940 C   0  0  2  0  0  3  0  0  0  0  0  0
  187.5640  178.0570  138.6650 C   0  0  0  0  0  2  0  0  0  0  0  0
  189.9630  178.8460  143.9310 N   0  0  0  0  0  1  0  0  0  0  0  0
  189.7440  176.9160  139.0590 C   0  0  1  0  0  3  0  0  0  0  0  0
  188.5750  177.9820  141.0040 C   0  0  0  0  0  0  0  0  0  0  0  0
  189.0440  177.5560  136.7110 C   0  0  0  0  0  0  0  0  0  0  0  0
  188.8350  178.0710  139.5140 C   0  0  2  0  0  3  0  0  0  0  0  0
  191.0030  177.6130  141.1940 C   0  0  0  0  0  2  0  0  0  0  0  0
  190.1790  177.1250  137.6100 C   0  0  0  0  0  2  0  0  0  0  0  0
  188.0700  177.2900  143.7270 C   0  0  1  0  0  3  0  0  0  0  0  0
  187.1580  178.0040  141.5420 C   0  0  0  0  0  2  0  0  0  0  0  0
  190.9730  176.6980  139.9620 C   0  0  0  0  0  2  0  0  0  0  0  0
  186.7840  177.6260  145.8360 C   0  0  0  0  0  3  0  0  0  0  0  0
  189.5090  177.6090  143.3120 C   0  0  1  0  0  3  0  0  0  0  0  0
  187.9020  177.2110  145.2240 C   0  0  0  0  0  3  0  0  0  0  0  0
  189.3180  177.6020  134.9800 Cl  0  0  0  0  0  0  0  0  0  0  0  0
  187.8910  178.0470  137.1940 C   0  0  0  0  0  3  0  0  0  0  0  0
  189.6350  177.7250  141.8110 C   0  0  0  0  0  0  0  0  0  0  0  0
  185.6590  178.3050  145.0970 C   0  0  0  0  0  2  0  0  0  0  0  0
  187.0960  178.2550  143.0490 C   0  0  1  0  0  3  0  0  0  0  0  0
  184.6720  178.9440  142.9110 C   0  0  0  0  0  2  0  0  0  0  0  0
  183.4200  178.2030  142.4410 C   0  0  2  0  0  3  0  0  0  0  0  0
  181.2830  178.7850  141.4830 N   0  0  0  0  0  0  0  0  0  0  0  0
  183.4670  177.8780  140.9730 C   0  0  0  0  0  2  0  0  0  0  0  0
  181.4630  178.6270  143.9090 C   0  0  0  0  0  1  0  0  0  0  0  0
  182.1620  179.0270  142.6240 C   0  0  1  0  0  3  0  0  0  0  0  0
  181.0480  180.0710  140.8500 C   0  0  0  0  0  1  0  0  0  0  0  0
  182.0240  177.9660  140.5250 C   0  0  0  0  0  2  0  0  0  0  0  0
  1 21  1  6  0  0  0
  1 19  1  0  0  0  0
  4  9  1  6  0  0  0
  4  7  1  0  0  0  0
  4 12  1  0  0  0  0
  5 11  1  0  0  0  0
  5 18  2  0  0  0  0
  6 17  2  0  0  0  0
  6  9  1  0  0  0  0
  7  2  1  6  0  0  0
  7  5  1  0  0  0  0
  8 18  1  0  0  0  0
 10 15  1  1  0  0  0
 12  8  1  0  0  0  0
 14 10  1  0  0  0  0
 14  3  1  1  0  0  0
 15 13  2  0  0  0  0
 16  6  1  0  0  0  0
 17  2  1  0  0  0  0
 18 14  1  0  0  0  0
 19 13  1  0  0  0  0
 20 11  1  6  0  0  0
 20  1  1  0  0  0  0
 20 10  1  0  0  0  0
 22 26  1  0  0  0  0
 22 21  1  6  0  0  0
 23 26  1  0  0  0  0
 24 22  1  0  0  0  0
 26 25  1  1  0  0  0
 27 23  1  0  0  0  0
 28 24  1  0  0  0  0
 28 23  1  0  0  0  0
M  END
>  <MODEL>
8

>  <REMARK>
 VINA RESULT:      -8.9      3.198      7.091
  Name = 
  2 active torsions:
  status: ('A' for Active; 'I' for Inactive)
    1  A    between atoms: C_1  and  C_2
    2  A    between atoms: C_2  and  C_3
                            x       y       z     vdW  Elec       q    Type
                         _______ _______ _______ _____ _____    ______ ____

>  <TORSDO>
F 2

$$$$
=
 OpenBabel10262420503D

 28 32  0  0  1  0  0  0  0  0999 V2000
  184.2360  178.3980  140.0690 C   0  0  2  0  0  3  0  0  0  0  0  0
  188.5630  177.6700  142.9980 C   0  0  0  0  0  2  0  0  0  0  0  0
  183.4100  180.2520  143.9400 N   0  0  0  0  0  1  0  0  0  0  0  0
  187.4870  177.2000  145.1960 C   0  0  1  0  0  3  0  0  0  0  0  0
  186.1620  178.4040  143.4400 C   0  0  0  0  0  0  0  0  0  0  0  0
  190.0040  177.0690  144.9530 C   0  0  0  0  0  0  0  0  0  0  0  0
  187.5470  178.1860  144.0160 C   0  0  2  0  0  3  0  0  0  0  0  0
  185.4560  178.6680  145.7850 C   0  0  0  0  0  2  0  0  0  0  0  0
  188.8370  177.1470  145.9090 C   0  0  0  0  0  2  0  0  0  0  0  0
  183.4860  178.2960  142.4530 C   0  0  1  0  0  3  0  0  0  0  0  0
  185.9080  178.2250  141.9560 C   0  0  0  0  0  2  0  0  0  0  0  0
  186.3600  177.5010  146.2030 C   0  0  0  0  0  2  0  0  0  0  0  0
  181.8180  178.8250  140.6770 C   0  0  0  0  0  3  0  0  0  0  0  0
  183.7190  178.8310  143.8680 C   0  0  1  0  0  3  0  0  0  0  0  0
  182.0820  178.5460  141.9610 C   0  0  0  0  0  3  0  0  0  0  0  0
  191.6010  176.7560  145.6060 Cl  0  0  0  0  0  0  0  0  0  0  0  0
  189.8900  177.3800  143.6510 C   0  0  0  0  0  3  0  0  0  0  0  0
  185.1440  178.6050  144.3140 C   0  0  0  0  0  0  0  0  0  0  0  0
  182.9040  179.0220  139.6500 C   0  0  0  0  0  2  0  0  0  0  0  0
  184.5700  178.8120  141.5050 C   0  0  1  0  0  3  0  0  0  0  0  0
  185.3190  178.8620  139.0960 C   0  0  0  0  0  2  0  0  0  0  0  0
  186.0330  177.7000  138.4050 C   0  0  2  0  0  3  0  0  0  0  0  0
  186.7420  177.1460  136.1660 N   0  0  0  0  0  0  0  0  0  0  0  0
  187.5200  177.9100  138.3260 C   0  0  0  0  0  2  0  0  0  0  0  0
  184.5280  176.4290  136.8930 C   0  0  0  0  0  1  0  0  0  0  0  0
  185.5810  177.5180  136.9710 C   0  0  1  0  0  3  0  0  0  0  0  0
  186.8790  178.1570  135.1310 C   0  0  0  0  0  1  0  0  0  0  0  0
  187.9210  177.2510  137.0240 C   0  0  0  0  0  2  0  0  0  0  0  0
  1 21  1  6  0  0  0
  1 20  1  0  0  0  0
  2 17  1  0  0  0  0
  4  9  1  1  0  0  0
  4 12  1  0  0  0  0
  5  7  1  0  0  0  0
  5 18  2  0  0  0  0
  6 16  1  0  0  0  0
  6  9  1  0  0  0  0
  7  2  1  6  0  0  0
  7  4  1  0  0  0  0
  8 12  1  0  0  0  0
 10 15  1  6  0  0  0
 10 14  1  0  0  0  0
 11  5  1  0  0  0  0
 13 15  2  0  0  0  0
 14  3  1  6  0  0  0
 14 18  1  0  0  0  0
 17  6  2  0  0  0  0
 18  8  1  0  0  0  0
 19  1  1  0  0  0  0
 19 13  1  0  0  0  0
 20 11  1  1  0  0  0
 20 10  1  0  0  0  0
 22 21  1  6  0  0  0
 23 26  1  0  0  0  0
 23 28  1  0  0  0  0
 24 22  1  0  0  0  0
 26 25  1  1  0  0  0
 26 22  1  0  0  0  0
 27 23  1  0  0  0  0
 28 24  1  0  0  0  0
M  END
>  <MODEL>
9

>  <REMARK>
 VINA RESULT:      -8.8      3.213      5.760
  Name = 
  2 active torsions:
  status: ('A' for Active; 'I' for Inactive)
    1  A    between atoms: C_1  and  C_2
    2  A    between atoms: C_2  and  C_3
                            x       y       z     vdW  Elec       q    Type
                         _______ _______ _______ _____ _____    ______ ____

>  <TORSDO>
F 2

$$$$
