=
 OpenBabel10262422023D

 30 35  0  0  1  0  0  0  0  0999 V2000
  191.0020  175.5770  138.3450 C   0  0  2  0  0  3  0  0  0  0  0  0
  194.6550  175.1240  137.0610 C   0  0  0  0  0  2  0  0  0  0  0  0
  190.5150  173.2160  136.6600 C   0  0  0  0  0  2  0  0  0  0  0  0
  189.8630  176.2960  137.6020 C   0  0  2  0  0  0  0  0  0  0  0  0
  190.9630  177.1090  138.2160 C   0  0  1  0  0  3  0  0  0  0  0  0
  186.7800  178.3980  135.6310 C   0  0  0  0  0  2  0  0  0  0  0  0
  189.0970  177.6810  139.3740 C   0  0  1  0  0  3  0  0  0  0  0  0
  188.8850  175.2740  135.5140 N   0  0  0  0  0  0  0  0  0  0  0  0
  189.4270  174.2800  134.5970 C   0  0  0  0  0  2  0  0  0  0  0  0
  190.5040  177.6570  139.4310 O   0  0  0  0  0  0  0  0  0  0  0  0
  188.6200  176.6300  138.3910 C   0  0  1  0  0  3  0  0  0  0  0  0
  194.4850  174.8910  135.5700 C   0  0  0  0  0  2  0  0  0  0  0  0
  187.6210  174.9690  136.1870 C   0  0  0  0  0  2  0  0  0  0  0  0
  186.5470  176.9960  135.3040 N   0  0  0  0  0  2  0  0  0  0  0  0
  193.3590  175.5260  137.7110 C   0  0  0  0  0  3  0  0  0  0  0  0
  191.8590  173.9150  136.4430 C   0  0  1  0  0  3  0  0  0  0  0  0
  194.0670  173.4480  135.2960 C   0  0  0  0  0  2  0  0  0  0  0  0
  192.1290  175.0070  137.4910 C   0  0  0  0  0  0  0  0  0  0  0  0
  190.6020  176.8540  135.3790 O   0  0  0  0  0  0  0  0  0  0  0  0
  189.7880  172.9810  135.3320 C   0  0  0  0  0  2  0  0  0  0  0  0
  189.8100  176.1930  136.1050 C   0  0  0  0  0  0  0  0  0  0  0  0
  186.8120  176.2300  136.5190 C   0  0  2  0  0  3  0  0  0  0  0  0
  187.7270  178.4480  136.8050 C   0  0  0  0  0  2  0  0  0  0  0  0
  193.0210  172.9150  136.2760 C   0  0  2  0  0  3  0  0  0  0  0  0
  192.5820  171.6690  135.8220 O   0  0  0  0  0  1  0  0  0  0  0  0
  187.4340  177.1730  137.5560 C   0  0  2  0  0  3  0  0  0  0  0  0
  188.5690  177.4170  140.6390 O   0  0  0  0  0  0  0  0  0  0  0  0
  188.1700  178.6630  141.1250 C   0  0  0  0  0  2  0  0  0  0  0  0
  186.6890  178.6290  141.4400 C   0  0  0  0  0  2  0  0  0  0  0  0
  185.9660  178.9820  140.3020 O   0  0  0  0  0  1  0  0  0  0  0  0
  1 18  1  6  0  0  0
  2 15  1  0  0  0  0
  4 21  1  6  0  0  0
  4  5  1  0  0  0  0
  4  1  1  0  0  0  0
  4 11  1  0  0  0  0
  5  1  1  0  0  0  0
  5 10  1  1  0  0  0
  6 23  1  0  0  0  0
  7 10  1  0  0  0  0
  7 27  1  1  0  0  0
  8 21  1  0  0  0  0
  8 13  1  0  0  0  0
  9 20  1  0  0  0  0
  9  8  1  0  0  0  0
 11  7  1  0  0  0  0
 12  2  1  0  0  0  0
 13 22  1  0  0  0  0
 14  6  1  0  0  0  0
 14 22  1  0  0  0  0
 16  3  1  0  0  0  0
 16 18  1  0  0  0  0
 17 12  1  0  0  0  0
 17 24  1  0  0  0  0
 18 15  2  0  0  0  0
 19 21  2  0  0  0  0
 20  3  1  0  0  0  0
 22 26  1  0  0  0  0
 23 26  1  0  0  0  0
 24 16  1  0  0  0  0
 25 24  1  0  0  0  0
 26 11  1  0  0  0  0
 27 28  1  0  0  0  0
 28 29  1  0  0  0  0
 30 29  1  0  0  0  0
M  END
>  <MODEL>
1

>  <REMARK>
 VINA RESULT:      -5.8      0.000      0.000
  Name = 
  3 active torsions:
  status: ('A' for Active; 'I' for Inactive)
    1  A    between atoms: O_6  and  C_8
    2  A    between atoms: O_6  and  C_21
    3  A    between atoms: C_9  and  C_21
                            x       y       z     vdW  Elec       q    Type
                         _______ _______ _______ _____ _____    ______ ____

>  <TORSDO>
F 3

$$$$
=
 OpenBabel10262422023D

 30 35  0  0  1  0  0  0  0  0999 V2000
  191.0090  175.5710  138.3290 C   0  0  2  0  0  3  0  0  0  0  0  0
  194.6360  175.1020  136.9800 C   0  0  0  0  0  2  0  0  0  0  0  0
  190.4790  173.2170  136.6460 C   0  0  0  0  0  2  0  0  0  0  0  0
  189.8610  176.2980  137.6080 C   0  0  2  0  0  0  0  0  0  0  0  0
  190.9760  177.1030  138.2060 C   0  0  1  0  0  3  0  0  0  0  0  0
  186.7560  178.4230  135.6980 C   0  0  0  0  0  2  0  0  0  0  0  0
  189.1340  177.6810  139.3980 C   0  0  1  0  0  3  0  0  0  0  0  0
  188.8410  175.2880  135.5340 N   0  0  0  0  0  0  0  0  0  0  0  0
  189.3620  174.2940  134.6050 C   0  0  0  0  0  2  0  0  0  0  0  0
  190.5410  177.6500  139.4300 O   0  0  0  0  0  0  0  0  0  0  0  0
  188.6330  176.6370  138.4200 C   0  0  1  0  0  3  0  0  0  0  0  0
  194.4390  174.8750  135.4910 C   0  0  0  0  0  2  0  0  0  0  0  0
  187.5870  174.9880  136.2290 C   0  0  0  0  0  2  0  0  0  0  0  0
  186.5090  177.0230  135.3710 N   0  0  0  0  0  2  0  0  0  0  0  0
  193.3540  175.5090  137.6530 C   0  0  0  0  0  3  0  0  0  0  0  0
  191.8240  173.9100  136.4080 C   0  0  1  0  0  3  0  0  0  0  0  0
  194.0090  173.4340  135.2200 C   0  0  0  0  0  2  0  0  0  0  0  0
  192.1170  174.9970  137.4530 C   0  0  0  0  0  0  0  0  0  0  0  0
  190.5640  176.8590  135.3750 O   0  0  0  0  0  0  0  0  0  0  0  0
  189.7280  172.9900  135.3310 C   0  0  0  0  0  2  0  0  0  0  0  0
  189.7810  176.2000  136.1120 C   0  0  0  0  0  0  0  0  0  0  0  0
  186.7910  176.2520  136.5780 C   0  0  2  0  0  3  0  0  0  0  0  0
  187.7230  178.4640  136.8550 C   0  0  0  0  0  2  0  0  0  0  0  0
  192.9770  172.9050  136.2170 C   0  0  2  0  0  3  0  0  0  0  0  0
  192.5230  171.6620  135.7670 O   0  0  0  0  0  1  0  0  0  0  0  0
  187.4360  177.1880  137.6080 C   0  0  2  0  0  3  0  0  0  0  0  0
  188.6260  177.4170  140.6710 O   0  0  0  0  0  0  0  0  0  0  0  0
  189.7540  177.2500  141.4760 C   0  0  0  0  0  2  0  0  0  0  0  0
  189.3800  176.4460  142.7040 C   0  0  0  0  0  2  0  0  0  0  0  0
  190.2230  175.3410  142.8080 O   0  0  0  0  0  1  0  0  0  0  0  0
  1 18  1  6  0  0  0
  2 15  1  0  0  0  0
  4 21  1  6  0  0  0
  4  5  1  0  0  0  0
  4  1  1  0  0  0  0
  4 11  1  0  0  0  0
  5  1  1  0  0  0  0
  5 10  1  1  0  0  0
  6 23  1  0  0  0  0
  7 10  1  0  0  0  0
  7 27  1  1  0  0  0
  8 21  1  0  0  0  0
  8 13  1  0  0  0  0
  9 20  1  0  0  0  0
  9  8  1  0  0  0  0
 11  7  1  0  0  0  0
 12  2  1  0  0  0  0
 13 22  1  0  0  0  0
 14  6  1  0  0  0  0
 14 22  1  0  0  0  0
 16  3  1  0  0  0  0
 16 18  1  0  0  0  0
 17 12  1  0  0  0  0
 17 24  1  0  0  0  0
 18 15  2  0  0  0  0
 19 21  2  0  0  0  0
 20  3  1  0  0  0  0
 22 26  1  0  0  0  0
 23 26  1  0  0  0  0
 24 16  1  0  0  0  0
 25 24  1  0  0  0  0
 26 11  1  0  0  0  0
 27 28  1  0  0  0  0
 28 29  1  0  0  0  0
 29 30  1  0  0  0  0
M  END
>  <MODEL>
2

>  <REMARK>
 VINA RESULT:      -5.8      0.921      1.366
  Name = 
  3 active torsions:
  status: ('A' for Active; 'I' for Inactive)
    1  A    between atoms: O_6  and  C_8
    2  A    between atoms: O_6  and  C_21
    3  A    between atoms: C_9  and  C_21
                            x       y       z     vdW  Elec       q    Type
                         _______ _______ _______ _____ _____    ______ ____

>  <TORSDO>
F 3

$$$$
=
 OpenBabel10262422023D

 30 35  0  0  1  0  0  0  0  0999 V2000
  183.3230  179.1880  140.3060 C   0  0  2  0  0  3  0  0  0  0  0  0
  182.0770  178.9160  143.9900 C   0  0  0  0  0  2  0  0  0  0  0  0
  180.5270  179.9620  139.8130 C   0  0  0  0  0  2  0  0  0  0  0  0
  183.1770  178.1110  139.2190 C   0  0  2  0  0  0  0  0  0  0  0  0
  184.1760  177.9100  140.3180 C   0  0  1  0  0  3  0  0  0  0  0  0
  182.9110  175.0960  136.2780 C   0  0  0  0  0  2  0  0  0  0  0  0
  185.4170  178.0950  138.4270 C   0  0  1  0  0  3  0  0  0  0  0  0
  180.8960  177.5630  138.2910 N   0  0  0  0  0  0  0  0  0  0  0  0
  179.5660  177.7950  138.8380 C   0  0  0  0  0  2  0  0  0  0  0  0
  185.4620  178.2160  139.8300 O   0  0  0  0  0  0  0  0  0  0  0  0
  183.9880  178.2810  137.9560 C   0  0  1  0  0  3  0  0  0  0  0  0
  180.7640  178.1620  143.8700 C   0  0  0  0  0  2  0  0  0  0  0  0
  181.2180  178.1610  136.9930 C   0  0  0  0  0  2  0  0  0  0  0  0
  181.7790  175.9770  136.0150 N   0  0  0  0  0  2  0  0  0  0  0  0
  182.8210  178.9450  142.6830 C   0  0  0  0  0  3  0  0  0  0  0  0
  180.8090  179.3440  141.1850 C   0  0  1  0  0  3  0  0  0  0  0  0
  179.6450  179.1000  143.4200 C   0  0  0  0  0  2  0  0  0  0  0  0
  182.3110  179.1550  141.4470 C   0  0  0  0  0  0  0  0  0  0  0  0
  181.7950  176.3260  140.0590 O   0  0  0  0  0  0  0  0  0  0  0  0
  179.3350  179.2850  139.1310 C   0  0  0  0  0  2  0  0  0  0  0  0
  181.9410  177.2570  139.2200 C   0  0  0  0  0  0  0  0  0  0  0  0
  182.2540  177.3430  136.2110 C   0  0  2  0  0  3  0  0  0  0  0  0
  183.8720  175.8320  137.1800 C   0  0  0  0  0  2  0  0  0  0  0  0
  180.0680  180.0760  142.3220 C   0  0  2  0  0  3  0  0  0  0  0  0
  178.9310  180.7460  141.8630 O   0  0  0  0  0  1  0  0  0  0  0  0
  183.6610  177.2820  136.8200 C   0  0  2  0  0  3  0  0  0  0  0  0
  186.2360  179.0630  137.8440 O   0  0  0  0  0  0  0  0  0  0  0  0
  187.2090  178.3380  137.1560 C   0  0  0  0  0  2  0  0  0  0  0  0
  188.5390  179.0580  137.2590 C   0  0  0  0  0  2  0  0  0  0  0  0
  188.9540  179.0730  138.5890 O   0  0  0  0  0  1  0  0  0  0  0  0
  1  5  1  0  0  0  0
  1 18  1  1  0  0  0
  3 16  1  0  0  0  0
  4 21  1  6  0  0  0
  4  1  1  0  0  0  0
  4  5  1  0  0  0  0
  5 10  1  6  0  0  0
  6 23  1  0  0  0  0
  7 27  1  6  0  0  0
  7 10  1  0  0  0  0
  8  9  1  0  0  0  0
  8 21  1  0  0  0  0
  9 20  1  0  0  0  0
 11  7  1  0  0  0  0
 11  4  1  0  0  0  0
 12  2  1  0  0  0  0
 13  8  1  0  0  0  0
 14 22  1  0  0  0  0
 14  6  1  0  0  0  0
 15  2  1  0  0  0  0
 16 18  1  0  0  0  0
 16 24  1  0  0  0  0
 17 12  1  0  0  0  0
 18 15  2  0  0  0  0
 20  3  1  0  0  0  0
 21 19  2  0  0  0  0
 22 26  1  0  0  0  0
 22 13  1  0  0  0  0
 24 17  1  0  0  0  0
 25 24  1  0  0  0  0
 26 23  1  0  0  0  0
 26 11  1  0  0  0  0
 28 29  1  0  0  0  0
 28 27  1  0  0  0  0
 29 30  1  0  0  0  0
M  END
>  <MODEL>
3

>  <REMARK>
 VINA RESULT:      -5.4      4.962      9.951
  Name = 
  3 active torsions:
  status: ('A' for Active; 'I' for Inactive)
    1  A    between atoms: O_6  and  C_8
    2  A    between atoms: O_6  and  C_21
    3  A    between atoms: C_9  and  C_21
                            x       y       z     vdW  Elec       q    Type
                         _______ _______ _______ _____ _____    ______ ____

>  <TORSDO>
F 3

$$$$
=
 OpenBabel10262422023D

 30 35  0  0  1  0  0  0  0  0999 V2000
  185.0140  177.4940  139.2130 C   0  0  2  0  0  3  0  0  0  0  0  0
  186.8530  177.8950  135.7990 C   0  0  0  0  0  2  0  0  0  0  0  0
  183.8540  175.1380  137.8850 C   0  0  0  0  0  2  0  0  0  0  0  0
  183.5870  177.9680  139.5350 C   0  0  2  0  0  0  0  0  0  0  0  0
  184.6840  178.9820  139.4070 C   0  0  1  0  0  3  0  0  0  0  0  0
  179.7290  179.4040  140.4620 C   0  0  0  0  0  2  0  0  0  0  0  0
  184.0360  179.0930  141.5790 C   0  0  1  0  0  3  0  0  0  0  0  0
  181.6120  176.8240  138.4610 N   0  0  0  0  0  0  0  0  0  0  0  0
  181.5240  176.0040  137.2610 C   0  0  0  0  0  2  0  0  0  0  0  0
  185.0950  179.3770  140.6960 O   0  0  0  0  0  0  0  0  0  0  0  0
  183.1730  177.9950  140.9870 C   0  0  1  0  0  3  0  0  0  0  0  0
  185.7550  177.6790  134.7720 C   0  0  0  0  0  2  0  0  0  0  0  0
  181.1950  176.2270  139.7330 C   0  0  0  0  0  2  0  0  0  0  0  0
  179.5360  177.9960  140.1340 N   0  0  0  0  0  2  0  0  0  0  0  0
  186.2980  177.9810  137.1940 C   0  0  0  0  0  3  0  0  0  0  0  0
  184.5830  176.1230  136.9660 C   0  0  1  0  0  3  0  0  0  0  0  0
  185.4700  176.1890  134.5960 C   0  0  0  0  0  2  0  0  0  0  0  0
  185.3320  177.2130  137.7480 C   0  0  0  0  0  0  0  0  0  0  0  0
  182.5410  178.7460  137.5100 O   0  0  0  0  0  0  0  0  0  0  0  0
  182.4650  174.7920  137.3430 C   0  0  0  0  0  2  0  0  0  0  0  0
  182.5510  177.9040  138.4490 C   0  0  0  0  0  0  0  0  0  0  0  0
  180.6560  177.2690  140.7220 C   0  0  2  0  0  3  0  0  0  0  0  0
  181.2010  179.6230  140.7160 C   0  0  0  0  0  2  0  0  0  0  0  0
  185.4500  175.4080  135.9110 C   0  0  2  0  0  3  0  0  0  0  0  0
  185.0010  174.1110  135.6500 O   0  0  0  0  0  1  0  0  0  0  0  0
  181.6750  178.2910  141.2420 C   0  0  2  0  0  3  0  0  0  0  0  0
  184.5460  178.6790  142.8110 O   0  0  0  0  0  0  0  0  0  0  0  0
  184.1150  179.6470  143.7180 C   0  0  0  0  0  2  0  0  0  0  0  0
  183.1880  179.0090  144.7320 C   0  0  0  0  0  2  0  0  0  0  0  0
  183.8070  178.9990  145.9810 O   0  0  0  0  0  1  0  0  0  0  0  0
  1 18  1  6  0  0  0
  1  5  1  0  0  0  0
  1  4  1  0  0  0  0
  2 15  1  0  0  0  0
  4 21  1  6  0  0  0
  4 11  1  0  0  0  0
  5  4  1  0  0  0  0
  5 10  1  1  0  0  0
  6 23  1  0  0  0  0
  7 27  1  1  0  0  0
  8 13  1  0  0  0  0
  9 20  1  0  0  0  0
  9  8  1  0  0  0  0
 10  7  1  0  0  0  0
 11 26  1  0  0  0  0
 11  7  1  0  0  0  0
 12  2  1  0  0  0  0
 13 22  1  0  0  0  0
 14  6  1  0  0  0  0
 14 22  1  0  0  0  0
 15 18  2  0  0  0  0
 16 18  1  0  0  0  0
 16  3  1  0  0  0  0
 17 12  1  0  0  0  0
 17 24  1  0  0  0  0
 19 21  2  0  0  0  0
 20  3  1  0  0  0  0
 21  8  1  0  0  0  0
 22 26  1  0  0  0  0
 23 26  1  0  0  0  0
 24 16  1  0  0  0  0
 25 24  1  0  0  0  0
 27 28  1  0  0  0  0
 28 29  1  0  0  0  0
 29 30  1  0  0  0  0
M  END
>  <MODEL>
4

>  <REMARK>
 VINA RESULT:      -5.2      5.373      7.347
  Name = 
  3 active torsions:
  status: ('A' for Active; 'I' for Inactive)
    1  A    between atoms: O_6  and  C_8
    2  A    between atoms: O_6  and  C_21
    3  A    between atoms: C_9  and  C_21
                            x       y       z     vdW  Elec       q    Type
                         _______ _______ _______ _____ _____    ______ ____

>  <TORSDO>
F 3

$$$$
=
 OpenBabel10262422023D

 30 35  0  0  1  0  0  0  0  0999 V2000
  182.5040  175.6330  139.2010 C   0  0  2  0  0  3  0  0  0  0  0  0
  179.1700  177.3130  140.3240 C   0  0  0  0  0  2  0  0  0  0  0  0
  183.6940  177.7420  140.8720 C   0  0  0  0  0  2  0  0  0  0  0  0
  183.4060  176.0950  138.0430 C   0  0  2  0  0  0  0  0  0  0  0  0
  182.1030  175.4200  137.7320 C   0  0  1  0  0  3  0  0  0  0  0  0
  185.8000  177.2700  134.7730 C   0  0  0  0  0  2  0  0  0  0  0  0
  183.6960  174.0010  136.9590 C   0  0  1  0  0  3  0  0  0  0  0  0
  184.6890  178.2580  138.2360 N   0  0  0  0  0  0  0  0  0  0  0  0
  184.4790  179.4150  139.0950 C   0  0  0  0  0  2  0  0  0  0  0  0
  182.3550  174.0790  137.3810 O   0  0  0  0  0  0  0  0  0  0  0  0
  184.4800  175.1420  137.5750 C   0  0  1  0  0  3  0  0  0  0  0  0
  179.4370  178.7970  140.1430 C   0  0  0  0  0  2  0  0  0  0  0  0
  185.9710  177.5550  138.3310 C   0  0  0  0  0  2  0  0  0  0  0  0
  186.4360  177.8720  135.9390 N   0  0  0  0  0  2  0  0  0  0  0  0
  180.2790  176.4760  139.7460 C   0  0  0  0  0  3  0  0  0  0  0  0
  182.2100  177.9220  140.5380 C   0  0  1  0  0  3  0  0  0  0  0  0
  180.2600  179.3400  141.3100 C   0  0  0  0  0  2  0  0  0  0  0  0
  181.6120  176.6910  139.8400 C   0  0  0  0  0  0  0  0  0  0  0  0
  182.5930  178.1990  137.2030 O   0  0  0  0  0  0  0  0  0  0  0  0
  184.4900  179.0170  140.5790 C   0  0  0  0  0  2  0  0  0  0  0  0
  183.5240  177.5670  137.7720 C   0  0  0  0  0  0  0  0  0  0  0  0
  186.3730  176.8840  137.0120 C   0  0  2  0  0  3  0  0  0  0  0  0
  184.8500  176.2040  135.2620 C   0  0  0  0  0  2  0  0  0  0  0  0
  181.3910  178.4090  141.7500 C   0  0  2  0  0  3  0  0  0  0  0  0
  182.1810  179.0830  142.6840 O   0  0  0  0  0  1  0  0  0  0  0  0
  185.4800  175.7260  136.5470 C   0  0  2  0  0  3  0  0  0  0  0  0
  184.2460  172.7810  137.3570 O   0  0  0  0  0  0  0  0  0  0  0  0
  184.2390  171.9940  136.2050 C   0  0  0  0  0  2  0  0  0  0  0  0
  183.4370  170.7350  136.4610 C   0  0  0  0  0  2  0  0  0  0  0  0
  182.1610  170.8800  135.9180 O   0  0  0  0  0  1  0  0  0  0  0  0
  1 18  1  6  0  0  0
  4 21  1  6  0  0  0
  4  1  1  0  0  0  0
  5 10  1  1  0  0  0
  5  4  1  0  0  0  0
  5  1  1  0  0  0  0
  6 23  1  0  0  0  0
  6 14  1  0  0  0  0
  7 27  1  1  0  0  0
  7 10  1  0  0  0  0
  7 11  1  0  0  0  0
  8 13  1  0  0  0  0
  8  9  1  0  0  0  0
  9 20  1  0  0  0  0
 11  4  1  0  0  0  0
 12  2  1  0  0  0  0
 12 17  1  0  0  0  0
 14 22  1  0  0  0  0
 15 18  2  0  0  0  0
 15  2  1  0  0  0  0
 16  3  1  0  0  0  0
 16 24  1  0  0  0  0
 17 24  1  0  0  0  0
 18 16  1  0  0  0  0
 19 21  2  0  0  0  0
 20  3  1  0  0  0  0
 21  8  1  0  0  0  0
 22 13  1  0  0  0  0
 23 26  1  0  0  0  0
 24 25  1  0  0  0  0
 26 22  1  0  0  0  0
 26 11  1  0  0  0  0
 28 29  1  0  0  0  0
 28 27  1  0  0  0  0
 30 29  1  0  0  0  0
M  END
>  <MODEL>
5

>  <REMARK>
 VINA RESULT:      -5.2      5.459      9.528
  Name = 
  3 active torsions:
  status: ('A' for Active; 'I' for Inactive)
    1  A    between atoms: O_6  and  C_8
    2  A    between atoms: O_6  and  C_21
    3  A    between atoms: C_9  and  C_21
                            x       y       z     vdW  Elec       q    Type
                         _______ _______ _______ _____ _____    ______ ____

>  <TORSDO>
F 3

$$$$
=
 OpenBabel10262422023D

 30 35  0  0  1  0  0  0  0  0999 V2000
  184.1080  178.9570  138.5810 C   0  0  2  0  0  3  0  0  0  0  0  0
  181.7020  179.0000  141.6490 C   0  0  0  0  0  2  0  0  0  0  0  0
  181.5840  178.7690  137.0790 C   0  0  0  0  0  2  0  0  0  0  0  0
  184.6010  177.7070  137.8340 C   0  0  2  0  0  0  0  0  0  0  0  0
  185.1530  178.0110  139.1950 C   0  0  1  0  0  3  0  0  0  0  0  0
  186.0750  174.2680  135.8810 C   0  0  0  0  0  2  0  0  0  0  0  0
  186.9230  178.2100  137.7890 C   0  0  1  0  0  3  0  0  0  0  0  0
  182.9870  176.3520  136.4480 N   0  0  0  0  0  0  0  0  0  0  0  0
  181.5320  176.2760  136.4850 C   0  0  0  0  0  2  0  0  0  0  0  0
  186.4300  178.5900  139.0520 O   0  0  0  0  0  0  0  0  0  0  0  0
  185.7570  177.8780  136.8780 C   0  0  1  0  0  3  0  0  0  0  0  0
  180.7170  177.8830  141.3480 C   0  0  0  0  0  2  0  0  0  0  0  0
  183.6200  176.7740  135.1960 C   0  0  0  0  0  2  0  0  0  0  0  0
  184.9540  174.7130  135.0620 N   0  0  0  0  0  2  0  0  0  0  0  0
  182.8440  179.0100  140.6690 C   0  0  0  0  0  3  0  0  0  0  0  0
  181.4760  178.5200  138.5860 C   0  0  1  0  0  3  0  0  0  0  0  0
  179.6640  178.3520  140.3460 C   0  0  0  0  0  2  0  0  0  0  0  0
  182.7850  178.8340  139.3290 C   0  0  0  0  0  0  0  0  0  0  0  0
  183.4280  175.7760  138.6700 O   0  0  0  0  0  0  0  0  0  0  0  0
  180.8960  177.6590  136.2800 C   0  0  0  0  0  2  0  0  0  0  0  0
  183.6640  176.5410  137.6950 C   0  0  0  0  0  0  0  0  0  0  0  0
  185.0190  176.1710  135.0140 C   0  0  2  0  0  3  0  0  0  0  0  0
  186.4600  175.4050  136.7960 C   0  0  0  0  0  2  0  0  0  0  0  0
  180.2350  179.1940  139.2050 C   0  0  2  0  0  3  0  0  0  0  0  0
  179.2250  179.4040  138.2620 O   0  0  0  0  0  1  0  0  0  0  0  0
  186.0870  176.6380  136.0110 C   0  0  2  0  0  3  0  0  0  0  0  0
  187.6680  179.2540  137.2390 O   0  0  0  0  0  0  0  0  0  0  0  0
  188.9860  178.9840  137.6090 C   0  0  0  0  0  2  0  0  0  0  0  0
  189.4670  177.7440  136.8850 C   0  0  0  0  0  2  0  0  0  0  0  0
  190.4720  177.1320  137.6330 O   0  0  0  0  0  1  0  0  0  0  0  0
  1  5  1  0  0  0  0
  1 18  1  1  0  0  0
  3 16  1  0  0  0  0
  4 21  1  6  0  0  0
  4  1  1  0  0  0  0
  4  5  1  0  0  0  0
  5 10  1  6  0  0  0
  6 23  1  0  0  0  0
  7 27  1  6  0  0  0
  7 10  1  0  0  0  0
  8  9  1  0  0  0  0
  8 21  1  0  0  0  0
 11  7  1  0  0  0  0
 11  4  1  0  0  0  0
 12  2  1  0  0  0  0
 13  8  1  0  0  0  0
 14  6  1  0  0  0  0
 15  2  1  0  0  0  0
 16 24  1  0  0  0  0
 16 18  1  0  0  0  0
 17 12  1  0  0  0  0
 18 15  2  0  0  0  0
 20  9  1  0  0  0  0
 20  3  1  0  0  0  0
 21 19  2  0  0  0  0
 22 14  1  0  0  0  0
 22 13  1  0  0  0  0
 22 26  1  0  0  0  0
 24 17  1  0  0  0  0
 25 24  1  0  0  0  0
 26 23  1  0  0  0  0
 26 11  1  0  0  0  0
 27 28  1  0  0  0  0
 29 28  1  0  0  0  0
 29 30  1  0  0  0  0
M  END
>  <MODEL>
6

>  <REMARK>
 VINA RESULT:      -5.1      4.106      8.677
  Name = 
  3 active torsions:
  status: ('A' for Active; 'I' for Inactive)
    1  A    between atoms: O_6  and  C_8
    2  A    between atoms: O_6  and  C_21
    3  A    between atoms: C_9  and  C_21
                            x       y       z     vdW  Elec       q    Type
                         _______ _______ _______ _____ _____    ______ ____

>  <TORSDO>
F 3

$$$$
=
 OpenBabel10262422023D

 30 35  0  0  1  0  0  0  0  0999 V2000
  183.1850  176.5670  138.5190 C   0  0  2  0  0  3  0  0  0  0  0  0
  183.1400  173.8860  135.6880 C   0  0  0  0  0  2  0  0  0  0  0  0
  180.6690  175.2510  139.2910 C   0  0  0  0  0  2  0  0  0  0  0  0
  182.4350  177.9090  138.5070 C   0  0  2  0  0  0  0  0  0  0  0  0
  183.6450  177.7390  137.6380 C   0  0  1  0  0  3  0  0  0  0  0  0
  180.5010  181.6580  138.4090 C   0  0  0  0  0  2  0  0  0  0  0  0
  184.2300  179.3270  139.1500 C   0  0  1  0  0  3  0  0  0  0  0  0
  179.9180  177.9440  138.6650 N   0  0  0  0  0  0  0  0  0  0  0  0
  178.9330  176.9070  138.3880 C   0  0  0  0  0  2  0  0  0  0  0  0
  184.7450  178.3690  138.2560 O   0  0  0  0  0  0  0  0  0  0  0  0
  182.8220  178.9310  139.5490 C   0  0  1  0  0  3  0  0  0  0  0  0
  181.7110  173.9280  135.1770 C   0  0  0  0  0  2  0  0  0  0  0  0
  179.9550  178.5130  140.0150 C   0  0  0  0  0  2  0  0  0  0  0  0
  179.6060  180.7940  139.1700 N   0  0  0  0  0  2  0  0  0  0  0  0
  183.4150  175.0030  136.6580 C   0  0  0  0  0  3  0  0  0  0  0  0
  181.2040  174.8910  137.9020 C   0  0  1  0  0  3  0  0  0  0  0  0
  180.7830  173.1520  136.1100 C   0  0  0  0  0  2  0  0  0  0  0  0
  182.6120  175.4510  137.6510 C   0  0  0  0  0  0  0  0  0  0  0  0
  180.9850  177.9840  136.5860 O   0  0  0  0  0  0  0  0  0  0  0  0
  179.1920  175.6510  139.2330 C   0  0  0  0  0  2  0  0  0  0  0  0
  181.0900  177.9710  137.8430 C   0  0  0  0  0  0  0  0  0  0  0  0
  180.4480  179.9650  140.0270 C   0  0  2  0  0  3  0  0  0  0  0  0
  181.8500  180.9850  138.3440 C   0  0  0  0  0  2  0  0  0  0  0  0
  181.0700  173.3860  137.5930 C   0  0  2  0  0  3  0  0  0  0  0  0
  180.0560  172.7840  138.3410 O   0  0  0  0  0  1  0  0  0  0  0  0
  181.9110  180.1820  139.6190 C   0  0  2  0  0  3  0  0  0  0  0  0
  185.0400  179.3960  140.2850 O   0  0  0  0  0  0  0  0  0  0  0  0
  184.3550  178.6650  141.2560 C   0  0  0  0  0  2  0  0  0  0  0  0
  185.0040  178.8900  142.6060 C   0  0  0  0  0  2  0  0  0  0  0  0
  184.2540  178.2530  143.5930 O   0  0  0  0  0  1  0  0  0  0  0  0
  1 18  1  6  0  0  0
  2 15  1  0  0  0  0
  4 21  1  6  0  0  0
  4  1  1  0  0  0  0
  4 11  1  0  0  0  0
  5 10  1  1  0  0  0
  5  4  1  0  0  0  0
  5  1  1  0  0  0  0
  6 14  1  0  0  0  0
  7 11  1  0  0  0  0
  7 27  1  1  0  0  0
  8 13  1  0  0  0  0
  9  8  1  0  0  0  0
  9 20  1  0  0  0  0
 10  7  1  0  0  0  0
 11 26  1  0  0  0  0
 12  2  1  0  0  0  0
 12 17  1  0  0  0  0
 13 22  1  0  0  0  0
 14 22  1  0  0  0  0
 15 18  2  0  0  0  0
 16  3  1  0  0  0  0
 17 24  1  0  0  0  0
 18 16  1  0  0  0  0
 19 21  2  0  0  0  0
 20  3  1  0  0  0  0
 21  8  1  0  0  0  0
 23  6  1  0  0  0  0
 23 26  1  0  0  0  0
 24 16  1  0  0  0  0
 24 25  1  0  0  0  0
 26 22  1  0  0  0  0
 27 28  1  0  0  0  0
 28 29  1  0  0  0  0
 29 30  1  0  0  0  0
M  END
>  <MODEL>
7

>  <REMARK>
 VINA RESULT:      -4.8      7.201      9.028
  Name = 
  3 active torsions:
  status: ('A' for Active; 'I' for Inactive)
    1  A    between atoms: O_6  and  C_8
    2  A    between atoms: O_6  and  C_21
    3  A    between atoms: C_9  and  C_21
                            x       y       z     vdW  Elec       q    Type
                         _______ _______ _______ _____ _____    ______ ____

>  <TORSDO>
F 3

$$$$
=
 OpenBabel10262422023D

 30 35  0  0  1  0  0  0  0  0999 V2000
  182.5200  176.1310  139.4800 C   0  0  2  0  0  3  0  0  0  0  0  0
  184.2980  173.8380  136.8770 C   0  0  0  0  0  2  0  0  0  0  0  0
  180.1090  174.7980  138.4500 C   0  0  0  0  0  2  0  0  0  0  0  0
  181.8510  177.4840  139.1880 C   0  0  2  0  0  0  0  0  0  0  0  0
  183.3480  177.3940  139.1900 C   0  0  1  0  0  3  0  0  0  0  0  0
  180.1490  181.2680  138.4120 C   0  0  0  0  0  2  0  0  0  0  0  0
  182.8420  178.7580  140.9320 C   0  0  1  0  0  3  0  0  0  0  0  0
  179.7280  177.5680  137.8290 N   0  0  0  0  0  0  0  0  0  0  0  0
  179.1530  176.6030  136.9010 C   0  0  0  0  0  2  0  0  0  0  0  0
  183.8350  177.9090  140.4090 O   0  0  0  0  0  0  0  0  0  0  0  0
  181.4930  178.3540  140.3690 C   0  0  1  0  0  3  0  0  0  0  0  0
  183.4450  173.9840  135.6280 C   0  0  0  0  0  2  0  0  0  0  0  0
  178.9310  177.9590  138.9940 C   0  0  0  0  0  2  0  0  0  0  0  0
  179.0250  180.3380  138.3860 N   0  0  0  0  0  2  0  0  0  0  0  0
  183.8870  174.8130  137.9460 C   0  0  0  0  0  3  0  0  0  0  0  0
  181.3780  174.6040  137.6160 C   0  0  1  0  0  3  0  0  0  0  0  0
  182.1890  173.1210  135.7300 C   0  0  0  0  0  2  0  0  0  0  0  0
  182.6310  175.1530  138.3160 C   0  0  0  0  0  0  0  0  0  0  0  0
  181.8120  177.8450  136.8070 O   0  0  0  0  0  0  0  0  0  0  0  0
  178.9310  175.2430  137.5780 C   0  0  0  0  0  2  0  0  0  0  0  0
  181.1550  177.6680  137.8690 C   0  0  0  0  0  0  0  0  0  0  0  0
  179.2430  179.3830  139.4690 C   0  0  2  0  0  3  0  0  0  0  0  0
  181.3110  180.5710  139.0780 C   0  0  0  0  0  2  0  0  0  0  0  0
  181.5330  173.1550  137.1110 C   0  0  2  0  0  3  0  0  0  0  0  0
  180.3070  172.4900  137.0350 O   0  0  0  0  0  1  0  0  0  0  0  0
  180.6500  179.6100  140.0350 C   0  0  2  0  0  3  0  0  0  0  0  0
  182.8210  178.6590  142.3240 O   0  0  0  0  0  0  0  0  0  0  0  0
  184.1640  178.6050  142.6970 C   0  0  0  0  0  2  0  0  0  0  0  0
  184.3750  179.4440  143.9400 C   0  0  0  0  0  2  0  0  0  0  0  0
  183.4240  179.0980  144.8990 O   0  0  0  0  0  1  0  0  0  0  0  0
  1 18  1  6  0  0  0
  2 15  1  0  0  0  0
  4 21  1  6  0  0  0
  4  5  1  0  0  0  0
  4  1  1  0  0  0  0
  4 11  1  0  0  0  0
  5  1  1  0  0  0  0
  5 10  1  1  0  0  0
  6 23  1  0  0  0  0
  7 27  1  1  0  0  0
  8 21  1  0  0  0  0
  8 13  1  0  0  0  0
  9 20  1  0  0  0  0
  9  8  1  0  0  0  0
 10  7  1  0  0  0  0
 11  7  1  0  0  0  0
 12 17  1  0  0  0  0
 12  2  1  0  0  0  0
 13 22  1  0  0  0  0
 14  6  1  0  0  0  0
 14 22  1  0  0  0  0
 15 18  2  0  0  0  0
 16 18  1  0  0  0  0
 16  3  1  0  0  0  0
 17 24  1  0  0  0  0
 19 21  2  0  0  0  0
 20  3  1  0  0  0  0
 22 26  1  0  0  0  0
 23 26  1  0  0  0  0
 24 16  1  0  0  0  0
 25 24  1  0  0  0  0
 26 11  1  0  0  0  0
 27 28  1  0  0  0  0
 28 29  1  0  0  0  0
 29 30  1  0  0  0  0
M  END
>  <MODEL>
8

>  <REMARK>
 VINA RESULT:      -4.8      7.050      8.984
  Name = 
  3 active torsions:
  status: ('A' for Active; 'I' for Inactive)
    1  A    between atoms: O_6  and  C_8
    2  A    between atoms: O_6  and  C_21
    3  A    between atoms: C_9  and  C_21
                            x       y       z     vdW  Elec       q    Type
                         _______ _______ _______ _____ _____    ______ ____

>  <TORSDO>
F 3

$$$$
=
 OpenBabel10262422023D

 30 35  0  0  1  0  0  0  0  0999 V2000
  186.3230  177.2430  138.0760 C   0  0  2  0  0  3  0  0  0  0  0  0
  189.5200  177.5300  135.8630 C   0  0  0  0  0  2  0  0  0  0  0  0
  186.4380  174.4310  137.2200 C   0  0  0  0  0  2  0  0  0  0  0  0
  184.8700  177.2960  137.5780 C   0  0  2  0  0  0  0  0  0  0  0  0
  185.6770  178.5600  137.6150 C   0  0  1  0  0  3  0  0  0  0  0  0
  180.8810  177.5950  136.2310 C   0  0  0  0  0  2  0  0  0  0  0  0
  184.0180  178.8810  139.1300 C   0  0  1  0  0  3  0  0  0  0  0  0
  183.9460  175.4020  136.1930 N   0  0  0  0  0  0  0  0  0  0  0  0
  184.6240  174.3780  135.4090 C   0  0  0  0  0  2  0  0  0  0  0  0
  185.3060  179.3070  138.7510 O   0  0  0  0  0  0  0  0  0  0  0  0
  183.7850  177.4750  138.6140 C   0  0  1  0  0  3  0  0  0  0  0  0
  189.1470  176.7820  134.5950 C   0  0  0  0  0  2  0  0  0  0  0  0
  183.0630  174.9640  137.2770 C   0  0  0  0  0  2  0  0  0  0  0  0
  181.1390  176.1620  136.3270 N   0  0  0  0  0  2  0  0  0  0  0  0
  188.3340  177.7070  136.7720 C   0  0  0  0  0  3  0  0  0  0  0  0
  187.3360  175.3960  136.4410 C   0  0  1  0  0  3  0  0  0  0  0  0
  189.2660  175.2740  134.8060 C   0  0  0  0  0  2  0  0  0  0  0  0
  187.3790  176.7970  137.0710 C   0  0  0  0  0  0  0  0  0  0  0  0
  184.8610  177.2940  135.1700 O   0  0  0  0  0  0  0  0  0  0  0  0
  185.5980  173.5660  136.2760 C   0  0  0  0  0  2  0  0  0  0  0  0
  184.5510  176.6990  136.2380 C   0  0  0  0  0  0  0  0  0  0  0  0
  181.9220  175.9550  137.5410 C   0  0  2  0  0  3  0  0  0  0  0  0
  181.9580  178.3120  137.0090 C   0  0  0  0  0  2  0  0  0  0  0  0
  188.7300  174.8000  136.1570 C   0  0  2  0  0  3  0  0  0  0  0  0
  188.7160  173.4030  136.1630 O   0  0  0  0  0  1  0  0  0  0  0  0
  182.3370  177.3270  138.0870 C   0  0  2  0  0  3  0  0  0  0  0  0
  183.9050  178.8990  140.5210 O   0  0  0  0  0  0  0  0  0  0  0  0
  185.2170  179.0030  140.9830 C   0  0  0  0  0  2  0  0  0  0  0  0
  185.2120  179.0930  142.4950 C   0  0  0  0  0  2  0  0  0  0  0  0
  184.2090  178.2710  143.0050 O   0  0  0  0  0  1  0  0  0  0  0  0
  1 18  1  6  0  0  0
  2 15  1  0  0  0  0
  4 21  1  6  0  0  0
  4  5  1  0  0  0  0
  4  1  1  0  0  0  0
  4 11  1  0  0  0  0
  5  1  1  0  0  0  0
  5 10  1  1  0  0  0
  6 14  1  0  0  0  0
  6 23  1  0  0  0  0
  7 27  1  1  0  0  0
  8 21  1  0  0  0  0
  8 13  1  0  0  0  0
  9  8  1  0  0  0  0
  9 20  1  0  0  0  0
 10  7  1  0  0  0  0
 11  7  1  0  0  0  0
 12 17  1  0  0  0  0
 12  2  1  0  0  0  0
 13 22  1  0  0  0  0
 14 22  1  0  0  0  0
 15 18  2  0  0  0  0
 16 18  1  0  0  0  0
 16  3  1  0  0  0  0
 17 24  1  0  0  0  0
 19 21  2  0  0  0  0
 20  3  1  0  0  0  0
 22 26  1  0  0  0  0
 23 26  1  0  0  0  0
 24 25  1  0  0  0  0
 24 16  1  0  0  0  0
 26 11  1  0  0  0  0
 27 28  1  0  0  0  0
 28 29  1  0  0  0  0
 29 30  1  0  0  0  0
M  END
>  <MODEL>
9

>  <REMARK>
 VINA RESULT:      -4.7      3.377      4.977
  Name = 
  3 active torsions:
  status: ('A' for Active; 'I' for Inactive)
    1  A    between atoms: O_6  and  C_8
    2  A    between atoms: O_6  and  C_21
    3  A    between atoms: C_9  and  C_21
                            x       y       z     vdW  Elec       q    Type
                         _______ _______ _______ _____ _____    ______ ____

>  <TORSDO>
F 3

$$$$
