=
 OpenBabel10262421393D

 32 36  0  0  1  0  0  0  0  0999 V2000
  187.4340  177.8020  143.9200 C   0  0  0  0  0  0  0  0  0  0  0  0
  183.7320  178.8400  140.6360 C   0  0  0  0  0  0  0  0  0  0  0  0
  183.1580  178.0110  138.3170 C   0  0  2  0  0  3  0  0  0  0  0  0
  182.2650  178.1740  137.1250 C   0  0  0  0  0  0  0  0  0  0  0  0
  185.8990  178.4980  141.6770 C   0  0  0  0  0  0  0  0  0  0  0  0
  183.8710  178.1620  142.9700 C   0  0  0  0  0  3  0  0  0  0  0  0
  180.5790  178.3700  134.8950 C   0  0  0  0  0  3  0  0  0  0  0  0
  186.0320  177.8050  144.0020 C   0  0  0  0  0  3  0  0  0  0  0  0
  183.0930  178.5070  141.8570 C   0  0  0  0  0  0  0  0  0  0  0  0
  181.5930  178.5940  142.0300 C   0  0  2  0  0  3  0  0  0  0  0  0
  181.4670  179.4410  139.6590 C   0  0  2  0  0  3  0  0  0  0  0  0
  181.7890  177.6760  134.7990 C   0  0  0  0  0  3  0  0  0  0  0  0
  188.0580  178.1470  142.7150 C   0  0  0  0  0  3  0  0  0  0  0  0
  185.2640  178.1500  142.8870 C   0  0  0  0  0  0  0  0  0  0  0  0
  182.6270  177.5760  135.9120 C   0  0  0  0  0  3  0  0  0  0  0  0
  187.2940  178.4940  141.5960 C   0  0  0  0  0  3  0  0  0  0  0  0
  180.8250  178.5280  140.7080 C   0  0  1  0  0  3  0  0  0  0  0  0
  180.6660  179.5080  138.4410 N   0  0  0  0  0  2  0  0  0  0  0  0
  185.1310  178.8340  140.5620 C   0  0  0  0  0  3  0  0  0  0  0  0
  183.0010  176.7330  138.8590 O   0  0  0  0  0  1  0  0  0  0  0  0
  180.2090  178.9650  136.1040 C   0  0  0  0  0  3  0  0  0  0  0  0
  182.9470  179.1130  139.3780 C   0  0  1  0  0  3  0  0  0  0  0  0
  181.0430  178.8650  137.2210 C   0  0  0  0  0  0  0  0  0  0  0  0
  179.8480  180.1370  142.5880 O   0  0  0  0  0  1  0  0  0  0  0  0
  181.2040  179.8660  142.7730 C   0  0  0  0  0  2  0  0  0  0  0  0
  179.5570  176.7170  140.8330 C   0  0  0  0  0  1  0  0  0  0  0  0
  180.7320  177.2080  140.2610 O   0  0  0  0  0  0  0  0  0  0  0  0
  187.9080  177.7710  146.2320 N   0  0  0  0  0  0  0  0  0  0  0  0
  188.2410  177.4520  145.0460 N   0  0  0  0  0  0  0  0  0  0  0  0
  188.7230  177.4150  147.3480 C   0  0  0  0  0  0  0  0  0  0  0  0
  188.4610  178.0310  148.6750 C   0  0  0  0  0  1  0  0  0  0  0  0
  189.6630  176.5850  147.2210 O   0  0  0  0  0  0  0  0  0  0  0  0
  1  8  1  0  0  0  0
  1 29  1  0  0  0  0
  2  9  1  0  0  0  0
  3 20  1  1  0  0  0
  3 22  1  0  0  0  0
  4 23  1  0  0  0  0
  4  3  1  0  0  0  0
  5 14  1  0  0  0  0
  7 21  1  0  0  0  0
  9 10  1  0  0  0  0
  9  6  2  0  0  0  0
 10 25  1  6  0  0  0
 11 18  1  6  0  0  0
 11 17  1  0  0  0  0
 12  7  2  0  0  0  0
 12 15  1  0  0  0  0
 13  1  2  0  0  0  0
 14  6  1  0  0  0  0
 14  8  2  0  0  0  0
 15  4  2  0  0  0  0
 16  5  2  0  0  0  0
 16 13  1  0  0  0  0
 17 27  1  6  0  0  0
 17 10  1  0  0  0  0
 19  2  2  0  0  0  0
 19  5  1  0  0  0  0
 21 23  2  0  0  0  0
 22 11  1  0  0  0  0
 22  2  1  1  0  0  0
 23 18  1  0  0  0  0
 24 25  1  0  0  0  0
 27 26  1  0  0  0  0
 28 30  1  0  0  0  0
 29 28  2  0  0  0  0
 30 31  1  0  0  0  0
 32 30  2  0  0  0  0
M  END
>  <MODEL>
1

>  <REMARK>
 VINA RESULT:      -7.6      0.000      0.000
  Name = 
  4 active torsions:
  status: ('A' for Active; 'I' for Inactive)
    1  A    between atoms: C_1  and  N_10
    2  A    between atoms: C_2  and  N_24
    3  A    between atoms: C_13  and  C_15
    4  A    between atoms: O_25  and  C_26
                            x       y       z     vdW  Elec       q    Type
                         _______ _______ _______ _____ _____    ______ ____

>  <TORSDO>
F 4

$$$$
=
 OpenBabel10262421393D

 32 36  0  0  1  0  0  0  0  0999 V2000
  188.5870  177.5380  143.7240 C   0  0  0  0  0  0  0  0  0  0  0  0
  190.7320  176.9150  139.1880 C   0  0  0  0  0  0  0  0  0  0  0  0
  192.0600  175.0510  138.1140 C   0  0  2  0  0  3  0  0  0  0  0  0
  192.8630  174.6220  136.9230 C   0  0  0  0  0  0  0  0  0  0  0  0
  190.3310  177.0630  141.5780 C   0  0  0  0  0  0  0  0  0  0  0  0
  188.5220  177.5050  140.0200 C   0  0  0  0  0  3  0  0  0  0  0  0
  194.3050  173.7280  134.6930 C   0  0  0  0  0  3  0  0  0  0  0  0
  188.1180  177.6370  142.4040 C   0  0  0  0  0  3  0  0  0  0  0  0
  189.3820  177.2700  138.9390 C   0  0  0  0  0  0  0  0  0  0  0  0
  188.8520  177.4900  137.5400 C   0  0  2  0  0  3  0  0  0  0  0  0
  191.1800  177.0260  136.6910 C   0  0  2  0  0  3  0  0  0  0  0  0
  194.3890  173.0350  135.9040 C   0  0  0  0  0  3  0  0  0  0  0  0
  189.9250  177.2020  143.9610 C   0  0  0  0  0  3  0  0  0  0  0  0
  188.9840  177.4000  141.3320 C   0  0  0  0  0  0  0  0  0  0  0  0
  193.6660  173.4790  137.0150 C   0  0  0  0  0  3  0  0  0  0  0  0
  190.7960  176.9650  142.8920 C   0  0  0  0  0  3  0  0  0  0  0  0
  189.6840  176.7950  136.4600 C   0  0  1  0  0  3  0  0  0  0  0  0
  191.9830  176.4990  135.5920 N   0  0  0  0  0  2  0  0  0  0  0  0
  191.1910  176.8180  140.5070 C   0  0  0  0  0  3  0  0  0  0  0  0
  190.9390  174.2290  138.2530 O   0  0  0  0  0  1  0  0  0  0  0  0
  193.5010  174.8660  134.5940 C   0  0  0  0  0  3  0  0  0  0  0  0
  191.6740  176.5440  138.0700 C   0  0  1  0  0  3  0  0  0  0  0  0
  192.7750  175.3130  135.7010 C   0  0  0  0  0  0  0  0  0  0  0  0
  187.4250  179.3600  137.0830 O   0  0  0  0  0  1  0  0  0  0  0  0
  188.7600  178.9770  137.2210 C   0  0  0  0  0  2  0  0  0  0  0  0
  188.0340  175.3900  136.0070 C   0  0  0  0  0  1  0  0  0  0  0  0
  189.3720  175.4340  136.4020 O   0  0  0  0  0  0  0  0  0  0  0  0
  188.1570  177.7870  146.0310 N   0  0  0  0  0  0  0  0  0  0  0  0
  187.7210  177.7750  144.8360 N   0  0  0  0  0  0  0  0  0  0  0  0
  187.2820  178.0250  147.1330 C   0  0  0  0  0  0  0  0  0  0  0  0
  185.9640  178.6700  146.8980 C   0  0  0  0  0  1  0  0  0  0  0  0
  187.6140  177.6930  148.3030 O   0  0  0  0  0  0  0  0  0  0  0  0
  1 13  1  0  0  0  0
  1 29  1  0  0  0  0
  2 19  1  0  0  0  0
  3 20  1  6  0  0  0
  4 15  1  0  0  0  0
  4  3  1  0  0  0  0
  5 16  1  0  0  0  0
  6 14  2  0  0  0  0
  7 12  1  0  0  0  0
  8  1  2  0  0  0  0
  9  2  2  0  0  0  0
  9  6  1  0  0  0  0
 10 25  1  6  0  0  0
 10  9  1  0  0  0  0
 11 18  1  6  0  0  0
 11 22  1  0  0  0  0
 12 15  2  0  0  0  0
 14  5  1  0  0  0  0
 14  8  1  0  0  0  0
 16 13  2  0  0  0  0
 17 27  1  1  0  0  0
 17 11  1  0  0  0  0
 17 10  1  0  0  0  0
 18 23  1  0  0  0  0
 19  5  2  0  0  0  0
 21  7  2  0  0  0  0
 21 23  1  0  0  0  0
 22  3  1  0  0  0  0
 22  2  1  1  0  0  0
 23  4  2  0  0  0  0
 24 25  1  0  0  0  0
 26 27  1  0  0  0  0
 28 30  1  0  0  0  0
 29 28  2  0  0  0  0
 30 32  2  0  0  0  0
 31 30  1  0  0  0  0
M  END
>  <MODEL>
2

>  <REMARK>
 VINA RESULT:      -7.2      5.989      8.489
  Name = 
  4 active torsions:
  status: ('A' for Active; 'I' for Inactive)
    1  A    between atoms: C_1  and  N_10
    2  A    between atoms: C_2  and  N_24
    3  A    between atoms: C_13  and  C_15
    4  A    between atoms: O_25  and  C_26
                            x       y       z     vdW  Elec       q    Type
                         _______ _______ _______ _____ _____    ______ ____

>  <TORSDO>
F 4

$$$$
=
 OpenBabel10262421393D

 32 36  0  0  1  0  0  0  0  0999 V2000
  188.2920  177.6020  143.5900 C   0  0  0  0  0  0  0  0  0  0  0  0
  190.5630  176.8800  139.1310 C   0  0  0  0  0  0  0  0  0  0  0  0
  191.7520  174.9210  138.0620 C   0  0  2  0  0  3  0  0  0  0  0  0
  192.5620  174.4450  136.8940 C   0  0  0  0  0  0  0  0  0  0  0  0
  190.0750  177.0110  141.5060 C   0  0  0  0  0  0  0  0  0  0  0  0
  188.3850  177.6620  139.8870 C   0  0  0  0  0  3  0  0  0  0  0  0
  194.0080  173.4680  134.7020 C   0  0  0  0  0  3  0  0  0  0  0  0
  187.8930  177.7760  142.2550 C   0  0  0  0  0  3  0  0  0  0  0  0
  189.2660  177.3700  138.8360 C   0  0  0  0  0  0  0  0  0  0  0  0
  188.8200  177.6730  137.4230 C   0  0  2  0  0  3  0  0  0  0  0  0
  191.1280  177.0050  136.6590 C   0  0  2  0  0  3  0  0  0  0  0  0
  193.9720  172.7420  135.8960 C   0  0  0  0  0  3  0  0  0  0  0  0
  189.5810  177.1330  143.8720 C   0  0  0  0  0  3  0  0  0  0  0  0
  188.7780  177.4810  141.2140 C   0  0  0  0  0  0  0  0  0  0  0  0
  193.2470  173.2280  136.9870 C   0  0  0  0  0  3  0  0  0  0  0  0
  190.4700  176.8370  142.8340 C   0  0  0  0  0  3  0  0  0  0  0  0
  189.6290  176.9250  136.3600 C   0  0  1  0  0  3  0  0  0  0  0  0
  191.9240  176.4280  135.5790 N   0  0  0  0  0  2  0  0  0  0  0  0
  190.9530  176.7090  140.4650 C   0  0  0  0  0  3  0  0  0  0  0  0
  190.5530  174.2090  138.1330 O   0  0  0  0  0  1  0  0  0  0  0  0
  193.3210  174.6810  134.6000 C   0  0  0  0  0  3  0  0  0  0  0  0
  191.5140  176.4460  138.0430 C   0  0  1  0  0  3  0  0  0  0  0  0
  192.5930  175.1700  135.6890 C   0  0  0  0  0  0  0  0  0  0  0  0
  187.6080  179.6640  136.8730 O   0  0  0  0  0  1  0  0  0  0  0  0
  188.8850  179.1680  137.1410 C   0  0  0  0  0  2  0  0  0  0  0  0
  187.8740  175.6970  135.7960 C   0  0  0  0  0  1  0  0  0  0  0  0
  189.1900  175.6020  136.2520 O   0  0  0  0  0  0  0  0  0  0  0  0
  186.2230  178.3190  144.4700 N   0  0  0  0  0  0  0  0  0  0  0  0
  187.4050  177.8950  144.6720 N   0  0  0  0  0  0  0  0  0  0  0  0
  185.3480  178.6080  145.5600 C   0  0  0  0  0  0  0  0  0  0  0  0
  185.7990  178.3520  146.9530 C   0  0  0  0  0  1  0  0  0  0  0  0
  184.1970  179.0800  145.3550 O   0  0  0  0  0  0  0  0  0  0  0  0
  1 13  1  0  0  0  0
  1 29  1  0  0  0  0
  2 19  1  0  0  0  0
  3 20  1  6  0  0  0
  4 15  1  0  0  0  0
  4  3  1  0  0  0  0
  5 16  1  0  0  0  0
  6 14  2  0  0  0  0
  7 12  1  0  0  0  0
  8  1  2  0  0  0  0
  9  2  2  0  0  0  0
  9  6  1  0  0  0  0
 10 25  1  6  0  0  0
 10  9  1  0  0  0  0
 11 18  1  6  0  0  0
 11 22  1  0  0  0  0
 12 15  2  0  0  0  0
 14  5  1  0  0  0  0
 14  8  1  0  0  0  0
 16 13  2  0  0  0  0
 17 27  1  1  0  0  0
 17 11  1  0  0  0  0
 17 10  1  0  0  0  0
 18 23  1  0  0  0  0
 19  5  2  0  0  0  0
 21  7  2  0  0  0  0
 21 23  1  0  0  0  0
 22  3  1  0  0  0  0
 22  2  1  1  0  0  0
 23  4  2  0  0  0  0
 24 25  1  0  0  0  0
 26 27  1  0  0  0  0
 28 29  2  0  0  0  0
 28 30  1  0  0  0  0
 30 31  1  0  0  0  0
 32 30  2  0  0  0  0
M  END
>  <MODEL>
3

>  <REMARK>
 VINA RESULT:      -7.2      6.004      8.484
  Name = 
  4 active torsions:
  status: ('A' for Active; 'I' for Inactive)
    1  A    between atoms: C_1  and  N_10
    2  A    between atoms: C_2  and  N_24
    3  A    between atoms: C_13  and  C_15
    4  A    between atoms: O_25  and  C_26
                            x       y       z     vdW  Elec       q    Type
                         _______ _______ _______ _____ _____    ______ ____

>  <TORSDO>
F 4

$$$$
=
 OpenBabel10262421393D

 32 36  0  0  1  0  0  0  0  0999 V2000
  189.3220  177.4100  143.1700 C   0  0  0  0  0  0  0  0  0  0  0  0
  191.7680  176.7880  138.7890 C   0  0  0  0  0  0  0  0  0  0  0  0
  193.6890  175.3230  138.0440 C   0  0  2  0  0  3  0  0  0  0  0  0
  194.6450  174.9940  136.9370 C   0  0  0  0  0  0  0  0  0  0  0  0
  191.2260  177.1930  141.1210 C   0  0  0  0  0  0  0  0  0  0  0  0
  189.4500  176.7350  139.5300 C   0  0  0  0  0  3  0  0  0  0  0  0
  196.4090  174.2730  134.8820 C   0  0  0  0  0  3  0  0  0  0  0  0
  188.9110  177.1230  141.8580 C   0  0  0  0  0  3  0  0  0  0  0  0
  190.3900  176.6230  138.4970 C   0  0  0  0  0  0  0  0  0  0  0  0
  189.8860  176.4140  137.0870 C   0  0  2  0  0  3  0  0  0  0  0  0
  192.2740  176.6210  136.3070 C   0  0  2  0  0  3  0  0  0  0  0  0
  196.6580  173.8620  136.1940 C   0  0  0  0  0  3  0  0  0  0  0  0
  190.6820  177.5870  143.4470 C   0  0  0  0  0  3  0  0  0  0  0  0
  189.8570  177.0130  140.8350 C   0  0  0  0  0  0  0  0  0  0  0  0
  195.7770  174.2190  137.2180 C   0  0  0  0  0  3  0  0  0  0  0  0
  191.6330  177.4780  142.4270 C   0  0  0  0  0  3  0  0  0  0  0  0
  190.9520  175.8660  136.1370 C   0  0  1  0  0  3  0  0  0  0  0  0
  193.2580  176.2150  135.3080 N   0  0  0  0  0  2  0  0  0  0  0  0
  192.1690  177.0740  140.1010 C   0  0  0  0  0  3  0  0  0  0  0  0
  192.8990  174.2090  138.3370 O   0  0  0  0  0  1  0  0  0  0  0  0
  195.2780  175.0420  134.5940 C   0  0  0  0  0  3  0  0  0  0  0  0
  192.8330  176.5710  137.7440 C   0  0  1  0  0  3  0  0  0  0  0  0
  194.3920  175.4000  135.6140 C   0  0  0  0  0  0  0  0  0  0  0  0
  187.9290  177.6390  136.4450 O   0  0  0  0  0  1  0  0  0  0  0  0
  189.3210  177.7080  136.5140 C   0  0  0  0  0  2  0  0  0  0  0  0
  190.5030  173.9070  135.2080 C   0  0  0  0  0  1  0  0  0  0  0  0
  191.1120  174.4900  136.3200 O   0  0  0  0  0  0  0  0  0  0  0  0
  188.7410  177.6810  145.4420 N   0  0  0  0  0  0  0  0  0  0  0  0
  188.3740  177.5270  144.2340 N   0  0  0  0  0  0  0  0  0  0  0  0
  187.7830  177.7960  146.4940 C   0  0  0  0  0  0  0  0  0  0  0  0
  188.2480  177.8820  147.9040 C   0  0  0  0  0  1  0  0  0  0  0  0
  186.5490  177.8260  146.2420 O   0  0  0  0  0  0  0  0  0  0  0  0
  1 13  1  0  0  0  0
  1 29  1  0  0  0  0
  2 19  1  0  0  0  0
  3 20  1  6  0  0  0
  4 15  1  0  0  0  0
  4  3  1  0  0  0  0
  5 16  1  0  0  0  0
  6 14  2  0  0  0  0
  7 12  1  0  0  0  0
  8  1  2  0  0  0  0
  9  2  2  0  0  0  0
  9  6  1  0  0  0  0
 10 25  1  6  0  0  0
 10  9  1  0  0  0  0
 11 18  1  6  0  0  0
 11 22  1  0  0  0  0
 12 15  2  0  0  0  0
 14  5  1  0  0  0  0
 14  8  1  0  0  0  0
 16 13  2  0  0  0  0
 17 11  1  0  0  0  0
 17 27  1  1  0  0  0
 17 10  1  0  0  0  0
 18 23  1  0  0  0  0
 19  5  2  0  0  0  0
 21  7  2  0  0  0  0
 21 23  1  0  0  0  0
 22  3  1  0  0  0  0
 22  2  1  1  0  0  0
 23  4  2  0  0  0  0
 24 25  1  0  0  0  0
 26 27  1  0  0  0  0
 28 30  1  0  0  0  0
 29 28  2  0  0  0  0
 30 31  1  0  0  0  0
 32 30  2  0  0  0  0
M  END
>  <MODEL>
4

>  <REMARK>
 VINA RESULT:      -6.4      6.898      9.734
  Name = 
  4 active torsions:
  status: ('A' for Active; 'I' for Inactive)
    1  A    between atoms: C_1  and  N_10
    2  A    between atoms: C_2  and  N_24
    3  A    between atoms: C_13  and  C_15
    4  A    between atoms: O_25  and  C_26
                            x       y       z     vdW  Elec       q    Type
                         _______ _______ _______ _____ _____    ______ ____

>  <TORSDO>
F 4

$$$$
=
 OpenBabel10262421393D

 32 36  0  0  1  0  0  0  0  0999 V2000
  186.7560  178.6250  141.3690 C   0  0  0  0  0  0  0  0  0  0  0  0
  189.9580  177.0090  137.8050 C   0  0  0  0  0  0  0  0  0  0  0  0
  191.7290  175.2060  137.7220 C   0  0  2  0  0  3  0  0  0  0  0  0
  192.8350  174.5850  136.9240 C   0  0  0  0  0  0  0  0  0  0  0  0
  188.9980  177.8410  139.8740 C   0  0  0  0  0  0  0  0  0  0  0  0
  187.5580  177.3790  137.9740 C   0  0  0  0  0  3  0  0  0  0  0  0
  194.8590  173.3260  135.4500 C   0  0  0  0  0  3  0  0  0  0  0  0
  186.5990  178.1930  140.0420 C   0  0  0  0  0  3  0  0  0  0  0  0
  188.6690  176.9840  137.2160 C   0  0  0  0  0  0  0  0  0  0  0  0
  188.4550  176.6260  135.7620 C   0  0  2  0  0  3  0  0  0  0  0  0
  190.9570  176.3920  135.5540 C   0  0  2  0  0  3  0  0  0  0  0  0
  194.7470  173.0960  136.8240 C   0  0  0  0  0  3  0  0  0  0  0  0
  188.0350  178.6620  141.9390 C   0  0  0  0  0  3  0  0  0  0  0  0
  187.7120  177.8010  139.2950 C   0  0  0  0  0  0  0  0  0  0  0  0
  193.7350  173.7210  137.5570 C   0  0  0  0  0  3  0  0  0  0  0  0
  189.1530  178.2710  141.1940 C   0  0  0  0  0  3  0  0  0  0  0  0
  189.5980  175.8010  135.1670 C   0  0  1  0  0  3  0  0  0  0  0  0
  192.0540  175.7090  134.8750 N   0  0  0  0  0  2  0  0  0  0  0  0
  190.1070  177.4410  139.1300 C   0  0  0  0  0  3  0  0  0  0  0  0
  190.7210  174.2650  137.9520 O   0  0  0  0  0  1  0  0  0  0  0  0
  193.9590  174.1830  134.8100 C   0  0  0  0  0  3  0  0  0  0  0  0
  191.1750  176.4940  137.0770 C   0  0  1  0  0  3  0  0  0  0  0  0
  192.9440  174.8090  135.5390 C   0  0  0  0  0  0  0  0  0  0  0  0
  186.8990  178.0260  134.5970 O   0  0  0  0  0  1  0  0  0  0  0  0
  188.2490  177.8780  134.9190 C   0  0  0  0  0  2  0  0  0  0  0  0
  188.1280  174.1630  135.4170 C   0  0  0  0  0  1  0  0  0  0  0  0
  189.4860  174.4610  135.5490 O   0  0  0  0  0  0  0  0  0  0  0  0
  184.6140  178.2830  142.2980 N   0  0  0  0  0  0  0  0  0  0  0  0
  185.6330  179.0310  142.1540 N   0  0  0  0  0  0  0  0  0  0  0  0
  183.4980  178.7010  143.0850 C   0  0  0  0  0  0  0  0  0  0  0  0
  183.6890  179.0070  144.5260 C   0  0  0  0  0  1  0  0  0  0  0  0
  182.3530  178.8130  142.5700 O   0  0  0  0  0  0  0  0  0  0  0  0
  1 13  1  0  0  0  0
  1 29  1  0  0  0  0
  2 19  1  0  0  0  0
  3 20  1  6  0  0  0
  4 15  1  0  0  0  0
  4  3  1  0  0  0  0
  5 16  1  0  0  0  0
  6 14  2  0  0  0  0
  7 12  1  0  0  0  0
  8  1  2  0  0  0  0
  9  2  2  0  0  0  0
  9  6  1  0  0  0  0
 10 25  1  6  0  0  0
 10  9  1  0  0  0  0
 11 18  1  1  0  0  0
 11 22  1  0  0  0  0
 12 15  2  0  0  0  0
 14  5  1  0  0  0  0
 14  8  1  0  0  0  0
 16 13  2  0  0  0  0
 17 27  1  1  0  0  0
 17 11  1  0  0  0  0
 17 10  1  0  0  0  0
 18 23  1  0  0  0  0
 19  5  2  0  0  0  0
 21  7  2  0  0  0  0
 21 23  1  0  0  0  0
 22  3  1  0  0  0  0
 22  2  1  1  0  0  0
 23  4  2  0  0  0  0
 24 25  1  0  0  0  0
 26 27  1  0  0  0  0
 28 30  1  0  0  0  0
 29 28  2  0  0  0  0
 30 31  1  0  0  0  0
 32 30  2  0  0  0  0
M  END
>  <MODEL>
5

>  <REMARK>
 VINA RESULT:      -6.2      6.357      9.124
  Name = 
  4 active torsions:
  status: ('A' for Active; 'I' for Inactive)
    1  A    between atoms: C_1  and  N_10
    2  A    between atoms: C_2  and  N_24
    3  A    between atoms: C_13  and  C_15
    4  A    between atoms: O_25  and  C_26
                            x       y       z     vdW  Elec       q    Type
                         _______ _______ _______ _____ _____    ______ ____

>  <TORSDO>
F 4

$$$$
=
 OpenBabel10262421393D

 32 36  0  0  1  0  0  0  0  0999 V2000
  185.4020  178.4750  144.7600 C   0  0  0  0  0  0  0  0  0  0  0  0
  182.3080  178.7970  140.7740 C   0  0  0  0  0  0  0  0  0  0  0  0
  181.4970  180.7080  139.3310 C   0  0  2  0  0  3  0  0  0  0  0  0
  180.5740  181.1280  138.2270 C   0  0  0  0  0  0  0  0  0  0  0  0
  183.3690  179.1140  142.9350 C   0  0  0  0  0  0  0  0  0  0  0  0
  184.2830  177.5020  141.3650 C   0  0  0  0  0  3  0  0  0  0  0  0
  178.9320  181.9630  136.1150 C   0  0  0  0  0  3  0  0  0  0  0  0
  185.3500  177.8300  143.5130 C   0  0  0  0  0  3  0  0  0  0  0  0
  183.2730  177.8130  140.4440 C   0  0  0  0  0  0  0  0  0  0  0  0
  183.2050  177.0160  139.1600 C   0  0  2  0  0  3  0  0  0  0  0  0
  181.0750  178.2540  138.6220 C   0  0  2  0  0  3  0  0  0  0  0  0
  179.5050  182.9070  136.9720 C   0  0  0  0  0  3  0  0  0  0  0  0
  184.4350  179.4340  145.0850 C   0  0  0  0  0  3  0  0  0  0  0  0
  184.3400  178.1470  142.6010 C   0  0  0  0  0  0  0  0  0  0  0  0
  180.3260  182.4900  138.0220 C   0  0  0  0  0  3  0  0  0  0  0  0
  183.4220  179.7540  144.1750 C   0  0  0  0  0  3  0  0  0  0  0  0
  182.3910  177.7050  138.0620 C   0  0  1  0  0  3  0  0  0  0  0  0
  180.2180  178.7810  137.5640 N   0  0  0  0  0  2  0  0  0  0  0  0
  182.3670  179.4350  142.0200 C   0  0  0  0  0  3  0  0  0  0  0  0
  182.8230  180.9300  138.9520 O   0  0  0  0  0  1  0  0  0  0  0  0
  179.1800  180.6010  136.3100 C   0  0  0  0  0  3  0  0  0  0  0  0
  181.2650  179.2510  139.7830 C   0  0  1  0  0  3  0  0  0  0  0  0
  180.0030  180.1800  137.3580 C   0  0  0  0  0  0  0  0  0  0  0  0
  182.4480  174.9550  138.2020 O   0  0  0  0  0  1  0  0  0  0  0  0
  182.6320  175.6270  139.4110 C   0  0  0  0  0  2  0  0  0  0  0  0
  184.3400  178.0740  137.0770 C   0  0  0  0  0  1  0  0  0  0  0  0
  183.1490  178.7030  137.4440 O   0  0  0  0  0  0  0  0  0  0  0  0
  187.5880  177.8040  145.3440 N   0  0  0  0  0  0  0  0  0  0  0  0
  186.4250  178.1690  145.7100 N   0  0  0  0  0  0  0  0  0  0  0  0
  188.6010  177.5010  146.3030 C   0  0  0  0  0  0  0  0  0  0  0  0
  188.3030  177.6350  147.7530 C   0  0  0  0  0  1  0  0  0  0  0  0
  189.7440  177.1210  145.9340 O   0  0  0  0  0  0  0  0  0  0  0  0
  1 13  1  0  0  0  0
  1 29  1  0  0  0  0
  2 19  1  0  0  0  0
  3 20  1  6  0  0  0
  3 22  1  0  0  0  0
  4  3  1  0  0  0  0
  5 16  1  0  0  0  0
  6 14  2  0  0  0  0
  7 21  2  0  0  0  0
  7 12  1  0  0  0  0
  8  1  2  0  0  0  0
  9  2  2  0  0  0  0
  9  6  1  0  0  0  0
 10 25  1  1  0  0  0
 10  9  1  0  0  0  0
 11 18  1  6  0  0  0
 11 22  1  0  0  0  0
 12 15  2  0  0  0  0
 14  5  1  0  0  0  0
 14  8  1  0  0  0  0
 15  4  1  0  0  0  0
 16 13  2  0  0  0  0
 17 27  1  1  0  0  0
 17 11  1  0  0  0  0
 17 10  1  0  0  0  0
 19  5  2  0  0  0  0
 21 23  1  0  0  0  0
 22  2  1  6  0  0  0
 23 18  1  0  0  0  0
 23  4  2  0  0  0  0
 24 25  1  0  0  0  0
 26 27  1  0  0  0  0
 28 29  2  0  0  0  0
 28 30  1  0  0  0  0
 30 31  1  0  0  0  0
 32 30  2  0  0  0  0
M  END
>  <MODEL>
6

>  <REMARK>
 VINA RESULT:      -5.7      1.988      3.500
  Name = 
  4 active torsions:
  status: ('A' for Active; 'I' for Inactive)
    1  A    between atoms: C_1  and  N_10
    2  A    between atoms: C_2  and  N_24
    3  A    between atoms: C_13  and  C_15
    4  A    between atoms: O_25  and  C_26
                            x       y       z     vdW  Elec       q    Type
                         _______ _______ _______ _____ _____    ______ ____

>  <TORSDO>
F 4

$$$$
=
 OpenBabel10262421393D

 32 36  0  0  1  0  0  0  0  0999 V2000
  193.2750  175.9880  137.0240 C   0  0  0  0  0  0  0  0  0  0  0  0
  188.2370  176.1190  137.4250 C   0  0  0  0  0  0  0  0  0  0  0  0
  186.5770  177.8880  138.1380 C   0  0  2  0  0  3  0  0  0  0  0  0
  185.1420  178.1960  138.4440 C   0  0  0  0  0  0  0  0  0  0  0  0
  190.6170  176.2620  137.8800 C   0  0  0  0  0  0  0  0  0  0  0  0
  189.8460  175.5410  135.6930 C   0  0  0  0  0  3  0  0  0  0  0  0
  182.4680  178.8600  138.9530 C   0  0  0  0  0  3  0  0  0  0  0  0
  192.2200  175.6990  136.1420 C   0  0  0  0  0  3  0  0  0  0  0  0
  188.5150  175.6740  136.1080 C   0  0  0  0  0  0  0  0  0  0  0  0
  187.4210  175.2520  135.1520 C   0  0  2  0  0  3  0  0  0  0  0  0
  185.7670  175.7080  137.0000 C   0  0  2  0  0  3  0  0  0  0  0  0
  183.4930  179.7060  139.3850 C   0  0  0  0  0  3  0  0  0  0  0  0
  192.9920  176.4120  138.3270 C   0  0  0  0  0  3  0  0  0  0  0  0
  190.8950  175.8360  136.5650 C   0  0  0  0  0  0  0  0  0  0  0  0
  184.8270  179.3760  139.1270 C   0  0  0  0  0  3  0  0  0  0  0  0
  191.6670  176.5490  138.7550 C   0  0  0  0  0  3  0  0  0  0  0  0
  186.0520  175.8400  135.5010 C   0  0  1  0  0  3  0  0  0  0  0  0
  184.4080  176.1260  137.3290 N   0  0  0  0  0  2  0  0  0  0  0  0
  189.2940  176.4050  138.2970 C   0  0  0  0  0  3  0  0  0  0  0  0
  187.0130  178.6700  137.0650 O   0  0  0  0  0  1  0  0  0  0  0  0
  182.7760  177.6830  138.2660 C   0  0  0  0  0  3  0  0  0  0  0  0
  186.8280  176.3850  137.8920 C   0  0  1  0  0  3  0  0  0  0  0  0
  184.1080  177.3500  138.0040 C   0  0  0  0  0  0  0  0  0  0  0  0
  186.0610  173.3600  134.5940 O   0  0  0  0  0  1  0  0  0  0  0  0
  187.3120  173.7340  135.0870 C   0  0  0  0  0  2  0  0  0  0  0  0
  184.6590  177.3030  134.5940 C   0  0  0  0  0  1  0  0  0  0  0  0
  185.9640  177.1660  135.0700 O   0  0  0  0  0  0  0  0  0  0  0  0
  195.3930  174.9480  137.0870 N   0  0  0  0  0  0  0  0  0  0  0  0
  194.6380  175.8570  136.6150 N   0  0  0  0  0  0  0  0  0  0  0  0
  196.7530  174.8290  136.6700 C   0  0  0  0  0  0  0  0  0  0  0  0
  197.1460  173.7290  135.7500 C   0  0  0  0  0  1  0  0  0  0  0  0
  197.6240  175.6460  137.0720 O   0  0  0  0  0  0  0  0  0  0  0  0
  1 13  1  0  0  0  0
  2 19  1  0  0  0  0
  3 20  1  6  0  0  0
  3  4  1  0  0  0  0
  4 15  1  0  0  0  0
  5 19  2  0  0  0  0
  5 16  1  0  0  0  0
  6  9  1  0  0  0  0
  6 14  2  0  0  0  0
  7 12  1  0  0  0  0
  8 14  1  0  0  0  0
  8  1  2  0  0  0  0
  9  2  2  0  0  0  0
 10 25  1  1  0  0  0
 10 17  1  0  0  0  0
 10  9  1  0  0  0  0
 11 18  1  6  0  0  0
 11 22  1  0  0  0  0
 13 16  2  0  0  0  0
 14  5  1  0  0  0  0
 15 12  2  0  0  0  0
 17 27  1  1  0  0  0
 17 11  1  0  0  0  0
 18 23  1  0  0  0  0
 21  7  2  0  0  0  0
 22  2  1  6  0  0  0
 22  3  1  0  0  0  0
 23 21  1  0  0  0  0
 23  4  2  0  0  0  0
 24 25  1  0  0  0  0
 26 27  1  0  0  0  0
 29  1  1  0  0  0  0
 29 28  2  0  0  0  0
 30 32  2  0  0  0  0
 30 28  1  0  0  0  0
 31 30  1  0  0  0  0
M  END
>  <MODEL>
7

>  <REMARK>
 VINA RESULT:      -5.4      6.453      8.436
  Name = 
  4 active torsions:
  status: ('A' for Active; 'I' for Inactive)
    1  A    between atoms: C_1  and  N_10
    2  A    between atoms: C_2  and  N_24
    3  A    between atoms: C_13  and  C_15
    4  A    between atoms: O_25  and  C_26
                            x       y       z     vdW  Elec       q    Type
                         _______ _______ _______ _____ _____    ______ ____

>  <TORSDO>
F 4

$$$$
=
 OpenBabel10262421393D

 32 36  0  0  1  0  0  0  0  0999 V2000
  192.3570  174.8310  137.5850 C   0  0  0  0  0  0  0  0  0  0  0  0
  187.5400  174.7680  136.0520 C   0  0  0  0  0  0  0  0  0  0  0  0
  185.6610  173.0850  136.2320 C   0  0  2  0  0  3  0  0  0  0  0  0
  184.2600  172.7380  135.8290 C   0  0  0  0  0  0  0  0  0  0  0  0
  189.8710  174.2130  136.4410 C   0  0  0  0  0  0  0  0  0  0  0  0
  188.9480  176.2640  137.3580 C   0  0  0  0  0  3  0  0  0  0  0  0
  181.6170  172.0670  135.1820 C   0  0  0  0  0  3  0  0  0  0  0  0
  191.2690  175.7010  137.7590 C   0  0  0  0  0  3  0  0  0  0  0  0
  187.7010  175.9670  136.7920 C   0  0  0  0  0  0  0  0  0  0  0  0
  186.5930  176.9870  136.9240 C   0  0  2  0  0  3  0  0  0  0  0  0
  185.1870  175.5060  135.4460 C   0  0  2  0  0  3  0  0  0  0  0  0
  182.4850  171.0920  135.6810 C   0  0  0  0  0  3  0  0  0  0  0  0
  192.1940  173.6570  136.8400 C   0  0  0  0  0  3  0  0  0  0  0  0
  190.0290  175.3960  137.1920 C   0  0  0  0  0  0  0  0  0  0  0  0
  183.8010  171.4280  136.0070 C   0  0  0  0  0  3  0  0  0  0  0  0
  190.9540  173.3480  136.2700 C   0  0  0  0  0  3  0  0  0  0  0  0
  185.1990  176.4020  136.6880 C   0  0  1  0  0  3  0  0  0  0  0  0
  183.8370  175.0580  135.1170 N   0  0  0  0  0  2  0  0  0  0  0  0
  188.6300  173.9050  135.8840 C   0  0  0  0  0  3  0  0  0  0  0  0
  185.7420  173.2070  137.6210 O   0  0  0  0  0  1  0  0  0  0  0  0
  182.0670  173.3790  135.0070 C   0  0  0  0  0  3  0  0  0  0  0  0
  186.1970  174.3420  135.5140 C   0  0  1  0  0  3  0  0  0  0  0  0
  183.3830  173.7200  135.3340 C   0  0  0  0  0  0  0  0  0  0  0  0
  187.2780  179.2690  136.6730 O   0  0  0  0  0  1  0  0  0  0  0  0
  186.8130  178.1560  135.9720 C   0  0  0  0  0  2  0  0  0  0  0  0
  183.6360  176.4360  138.2560 C   0  0  0  0  0  1  0  0  0  0  0  0
  184.7540  175.7210  137.8240 O   0  0  0  0  0  0  0  0  0  0  0  0
  194.5170  174.2170  138.3130 N   0  0  0  0  0  0  0  0  0  0  0  0
  193.6360  175.1210  138.1560 N   0  0  0  0  0  0  0  0  0  0  0  0
  195.7900  174.5210  138.8840 C   0  0  0  0  0  0  0  0  0  0  0  0
  197.0250  173.9850  138.2540 C   0  0  0  0  0  1  0  0  0  0  0  0
  195.8780  175.2380  139.9170 O   0  0  0  0  0  0  0  0  0  0  0  0
  1  8  1  0  0  0  0
  1 29  1  0  0  0  0
  2  9  1  0  0  0  0
  3 20  1  1  0  0  0
  4 15  1  0  0  0  0
  4  3  1  0  0  0  0
  5 14  1  0  0  0  0
  7 12  1  0  0  0  0
  9 10  1  0  0  0  0
  9  6  2  0  0  0  0
 10 25  1  6  0  0  0
 11 18  1  1  0  0  0
 11 22  1  0  0  0  0
 11 17  1  0  0  0  0
 12 15  2  0  0  0  0
 13  1  2  0  0  0  0
 14  6  1  0  0  0  0
 14  8  2  0  0  0  0
 16  5  2  0  0  0  0
 16 13  1  0  0  0  0
 17 10  1  0  0  0  0
 17 27  1  1  0  0  0
 18 23  1  0  0  0  0
 19  2  2  0  0  0  0
 19  5  1  0  0  0  0
 21  7  2  0  0  0  0
 21 23  1  0  0  0  0
 22  2  1  1  0  0  0
 22  3  1  0  0  0  0
 23  4  2  0  0  0  0
 25 24  1  0  0  0  0
 27 26  1  0  0  0  0
 28 30  1  0  0  0  0
 29 28  2  0  0  0  0
 30 32  2  0  0  0  0
 31 30  1  0  0  0  0
M  END
>  <MODEL>
8

>  <REMARK>
 VINA RESULT:      -5.2      6.395      7.891
  Name = 
  4 active torsions:
  status: ('A' for Active; 'I' for Inactive)
    1  A    between atoms: C_1  and  N_10
    2  A    between atoms: C_2  and  N_24
    3  A    between atoms: C_13  and  C_15
    4  A    between atoms: O_25  and  C_26
                            x       y       z     vdW  Elec       q    Type
                         _______ _______ _______ _____ _____    ______ ____

>  <TORSDO>
F 4

$$$$
=
 OpenBabel10262421393D

 32 36  0  0  1  0  0  0  0  0999 V2000
  179.7640  181.3410  139.0320 C   0  0  0  0  0  0  0  0  0  0  0  0
  182.2150  176.9760  138.3260 C   0  0  0  0  0  0  0  0  0  0  0  0
  181.6170  174.7860  137.2110 C   0  0  2  0  0  3  0  0  0  0  0  0
  182.0380  173.3740  136.9390 C   0  0  0  0  0  0  0  0  0  0  0  0
  180.5710  178.6560  138.9350 C   0  0  0  0  0  0  0  0  0  0  0  0
  182.6570  179.3290  137.8880 C   0  0  0  0  0  3  0  0  0  0  0  0
  182.8020  170.7490  136.3230 C   0  0  0  0  0  3  0  0  0  0  0  0
  181.0110  181.0030  138.4800 C   0  0  0  0  0  3  0  0  0  0  0  0
  183.0720  177.9920  137.8330 C   0  0  0  0  0  0  0  0  0  0  0  0
  184.4640  177.6940  137.3230 C   0  0  2  0  0  3  0  0  0  0  0  0
  184.0580  175.2780  137.9190 C   0  0  2  0  0  3  0  0  0  0  0  0
  181.4710  171.1460  136.1660 C   0  0  0  0  0  3  0  0  0  0  0  0
  178.9310  180.3330  139.5310 C   0  0  0  0  0  3  0  0  0  0  0  0
  181.4150  179.6660  138.4290 C   0  0  0  0  0  0  0  0  0  0  0  0
  181.0920  172.4560  136.4690 C   0  0  0  0  0  3  0  0  0  0  0  0
  179.3320  178.9940  139.4820 C   0  0  0  0  0  3  0  0  0  0  0  0
  184.6510  176.2400  136.8850 C   0  0  1  0  0  3  0  0  0  0  0  0
  184.3570  173.8870  137.5930 N   0  0  0  0  0  2  0  0  0  0  0  0
  180.9730  177.3220  138.8740 C   0  0  0  0  0  3  0  0  0  0  0  0
  181.4830  175.4840  136.0080 O   0  0  0  0  0  1  0  0  0  0  0  0
  183.7530  171.6620  136.7860 C   0  0  0  0  0  3  0  0  0  0  0  0
  182.5590  175.5130  138.1940 C   0  0  1  0  0  3  0  0  0  0  0  0
  183.3790  172.9750  137.0890 C   0  0  0  0  0  0  0  0  0  0  0  0
  186.5610  178.7540  137.7920 O   0  0  0  0  0  1  0  0  0  0  0  0
  185.5130  178.0390  138.3730 C   0  0  0  0  0  2  0  0  0  0  0  0
  184.6380  177.0600  134.8280 C   0  0  0  0  0  1  0  0  0  0  0  0
  184.1050  176.0380  135.6140 O   0  0  0  0  0  0  0  0  0  0  0  0
  179.6320  183.5430  138.1920 N   0  0  0  0  0  0  0  0  0  0  0  0
  179.3270  182.7010  139.0960 N   0  0  0  0  0  0  0  0  0  0  0  0
  179.1890  184.8980  138.2680 C   0  0  0  0  0  0  0  0  0  0  0  0
  179.0310  185.6900  137.0210 C   0  0  0  0  0  1  0  0  0  0  0  0
  178.9310  185.4300  139.3810 O   0  0  0  0  0  0  0  0  0  0  0  0
  1 29  1  0  0  0  0
  1 13  1  0  0  0  0
  2 19  1  0  0  0  0
  3 20  1  6  0  0  0
  3 22  1  0  0  0  0
  4 23  1  0  0  0  0
  4  3  1  0  0  0  0
  5 16  1  0  0  0  0
  6 14  2  0  0  0  0
  7 21  1  0  0  0  0
  8  1  2  0  0  0  0
  9  6  1  0  0  0  0
  9  2  2  0  0  0  0
 10  9  1  0  0  0  0
 10 25  1  1  0  0  0
 11 18  1  6  0  0  0
 11 22  1  0  0  0  0
 12  7  2  0  0  0  0
 12 15  1  0  0  0  0
 14  8  1  0  0  0  0
 14  5  1  0  0  0  0
 15  4  2  0  0  0  0
 16 13  2  0  0  0  0
 17 27  1  6  0  0  0
 17 10  1  0  0  0  0
 17 11  1  0  0  0  0
 19  5  2  0  0  0  0
 21 23  2  0  0  0  0
 22  2  1  6  0  0  0
 23 18  1  0  0  0  0
 24 25  1  0  0  0  0
 26 27  1  0  0  0  0
 28 30  1  0  0  0  0
 28 29  2  0  0  0  0
 30 32  2  0  0  0  0
 31 30  1  0  0  0  0
M  END
>  <MODEL>
9

>  <REMARK>
 VINA RESULT:      -5.1      5.146      8.311
  Name = 
  4 active torsions:
  status: ('A' for Active; 'I' for Inactive)
    1  A    between atoms: C_1  and  N_10
    2  A    between atoms: C_2  and  N_24
    3  A    between atoms: C_13  and  C_15
    4  A    between atoms: O_25  and  C_26
                            x       y       z     vdW  Elec       q    Type
                         _______ _______ _______ _____ _____    ______ ____

>  <TORSDO>
F 4

$$$$
