=
 OpenBabel10262419523D

 25 29  0  0  1  0  0  0  0  0999 V2000
  186.8170  178.0030  145.4170 C   0  0  0  0  0  0  0  0  0  0  0  0
  187.9960  177.1130  145.1670 C   0  0  1  0  0  3  0  0  0  0  0  0
  187.3980  178.4590  147.7310 C   0  0  0  0  0  3  0  0  0  0  0  0
  185.7100  178.2160  144.7300 C   0  0  0  0  0  0  0  0  0  0  0  0
  183.2070  178.8870  143.7460 C   0  0  0  0  0  3  0  0  0  0  0  0
  188.7040  177.7970  147.4860 C   0  0  0  0  0  3  0  0  0  0  0  0
  184.8110  178.9120  145.5320 C   0  0  0  0  0  0  0  0  0  0  0  0
  183.5490  179.2630  145.0560 C   0  0  0  0  0  3  0  0  0  0  0  0
  190.3580  176.7060  146.0160 C   0  0  0  0  0  0  0  0  0  0  0  0
  191.2870  176.3160  147.1140 C   0  0  0  0  0  1  0  0  0  0  0  0
  188.6540  177.3480  143.8390 C   0  0  0  0  0  3  0  0  0  0  0  0
  184.1150  178.1650  142.9430 C   0  0  0  0  0  3  0  0  0  0  0  0
  186.5440  178.5610  146.7160 C   0  0  0  0  0  0  0  0  0  0  0  0
  185.2450  179.1460  146.7350 N   0  0  0  0  0  0  0  0  0  0  0  0
  190.7640  176.6400  144.7810 N   0  0  0  0  0  0  0  0  0  0  0  0
  185.3830  177.8160  143.4350 C   0  0  0  0  0  3  0  0  0  0  0  0
  189.9540  177.0560  143.6590 C   0  0  0  0  0  0  0  0  0  0  0  0
  189.0050  177.2200  146.3010 C   0  0  0  0  0  0  0  0  0  0  0  0
  190.3600  177.3050  139.9060 C   0  0  0  0  0  0  0  0  0  0  0  0
  190.5800  177.2060  142.3270 C   0  0  0  0  0  0  0  0  0  0  0  0
  189.7840  177.1640  141.1720 C   0  0  0  0  0  3  0  0  0  0  0  0
  189.5610  177.2610  138.7720 O   0  0  0  0  0  1  0  0  0  0  0  0
  191.9660  177.3950  142.1910 C   0  0  0  0  0  3  0  0  0  0  0  0
  191.7390  177.4910  139.7830 C   0  0  0  0  0  3  0  0  0  0  0  0
  192.5420  177.5350  140.9250 C   0  0  0  0  0  3  0  0  0  0  0  0
  1 13  1  0  0  0  0
  2 11  1  6  0  0  0
  2  1  1  0  0  0  0
  2 18  1  0  0  0  0
  4  1  2  0  0  0  0
  4  7  1  0  0  0  0
  5  8  2  0  0  0  0
  6  3  1  0  0  0  0
  7 14  2  0  0  0  0
  8  7  1  0  0  0  0
  9 18  1  0  0  0  0
  9 10  1  0  0  0  0
 12 16  2  0  0  0  0
 12  5  1  0  0  0  0
 13 14  1  0  0  0  0
 13  3  2  0  0  0  0
 15  9  2  0  0  0  0
 16  4  1  0  0  0  0
 17 11  2  0  0  0  0
 17 15  1  0  0  0  0
 18  6  2  0  0  0  0
 19 21  1  0  0  0  0
 20 17  1  0  0  0  0
 21 20  2  0  0  0  0
 22 19  1  0  0  0  0
 23 20  1  0  0  0  0
 24 19  2  0  0  0  0
 24 25  1  0  0  0  0
 25 23  2  0  0  0  0
M  END
>  <MODEL>
1

>  <REMARK>
 VINA RESULT:     -11.1      0.000      0.000
  Name = 
  1 active torsions:
  status: ('A' for Active; 'I' for Inactive)
    1  A    between atoms: C_6  and  C_23
                            x       y       z     vdW  Elec       q    Type
                         _______ _______ _______ _____ _____    ______ ____

>  <TORSDO>
F 1

$$$$
=
 OpenBabel10262419523D

 25 29  0  0  1  0  0  0  0  0999 V2000
  185.6470  178.1740  144.5980 C   0  0  0  0  0  0  0  0  0  0  0  0
  186.8720  177.3140  144.6580 C   0  0  1  0  0  3  0  0  0  0  0  0
  185.7200  178.7900  146.9470 C   0  0  0  0  0  3  0  0  0  0  0  0
  184.7040  178.3050  143.6840 C   0  0  0  0  0  0  0  0  0  0  0  0
  182.4470  178.8240  142.1590 C   0  0  0  0  0  3  0  0  0  0  0  0
  187.0640  178.1630  147.0230 C   0  0  0  0  0  3  0  0  0  0  0  0
  183.6410  179.0150  144.2340 C   0  0  0  0  0  0  0  0  0  0  0  0
  182.5000  179.2900  143.4840 C   0  0  0  0  0  3  0  0  0  0  0  0
  189.0130  177.0450  146.0040 C   0  0  0  0  0  0  0  0  0  0  0  0
  189.7010  176.7580  147.2940 C   0  0  0  0  0  1  0  0  0  0  0  0
  187.7880  177.4930  143.4830 C   0  0  0  0  0  3  0  0  0  0  0  0
  183.5200  178.0880  141.6130 C   0  0  0  0  0  3  0  0  0  0  0  0
  185.0950  178.7990  145.7720 C   0  0  0  0  0  0  0  0  0  0  0  0
  183.8090  179.3370  145.4820 N   0  0  0  0  0  0  0  0  0  0  0  0
  189.6700  176.9200  144.8870 N   0  0  0  0  0  0  0  0  0  0  0  0
  184.6640  177.8160  142.3790 C   0  0  0  0  0  3  0  0  0  0  0  0
  189.1030  177.2370  143.5960 C   0  0  0  0  0  0  0  0  0  0  0  0
  187.6190  177.5260  145.9670 C   0  0  0  0  0  0  0  0  0  0  0  0
  190.2640  177.4210  140.0010 C   0  0  0  0  0  0  0  0  0  0  0  0
  189.9910  177.3290  142.4160 C   0  0  0  0  0  0  0  0  0  0  0  0
  189.4390  177.3340  141.1260 C   0  0  0  0  0  3  0  0  0  0  0  0
  189.7050  177.4230  138.7300 O   0  0  0  0  0  1  0  0  0  0  0  0
  191.3860  177.4160  142.5590 C   0  0  0  0  0  3  0  0  0  0  0  0
  191.6500  177.5060  140.1550 C   0  0  0  0  0  3  0  0  0  0  0  0
  192.2110  177.5030  141.4330 C   0  0  0  0  0  3  0  0  0  0  0  0
  1  2  1  0  0  0  0
  1 13  1  0  0  0  0
  2 11  1  6  0  0  0
  2 18  1  0  0  0  0
  3  6  1  0  0  0  0
  4  7  1  0  0  0  0
  4  1  2  0  0  0  0
  5  8  2  0  0  0  0
  7 14  2  0  0  0  0
  8  7  1  0  0  0  0
  9 10  1  0  0  0  0
 11 17  2  0  0  0  0
 12  5  1  0  0  0  0
 12 16  2  0  0  0  0
 13  3  2  0  0  0  0
 14 13  1  0  0  0  0
 15  9  2  0  0  0  0
 16  4  1  0  0  0  0
 17 15  1  0  0  0  0
 18  9  1  0  0  0  0
 18  6  2  0  0  0  0
 19 24  2  0  0  0  0
 19 21  1  0  0  0  0
 20 23  1  0  0  0  0
 20 17  1  0  0  0  0
 21 20  2  0  0  0  0
 22 19  1  0  0  0  0
 24 25  1  0  0  0  0
 25 23  2  0  0  0  0
M  END
>  <MODEL>
2

>  <REMARK>
 VINA RESULT:     -11.1      0.915      1.325
  Name = 
  1 active torsions:
  status: ('A' for Active; 'I' for Inactive)
    1  A    between atoms: C_6  and  C_23
                            x       y       z     vdW  Elec       q    Type
                         _______ _______ _______ _____ _____    ______ ____

>  <TORSDO>
F 1

$$$$
=
 OpenBabel10262419523D

 25 29  0  0  0  0  0  0  0  0999 V2000
  187.0770  177.7280  144.2220 C   0  0  0  0  0  0  0  0  0  0  0  0
  188.0280  176.8280  143.4950 C   0  0  0  0  0  0  0  0  0  0  0  0
  188.4100  177.8340  146.2490 C   0  0  0  0  0  3  0  0  0  0  0  0
  185.8310  178.0850  143.9690 C   0  0  0  0  0  0  0  0  0  0  0  0
  183.2140  179.0000  143.9530 C   0  0  0  0  0  3  0  0  0  0  0  0
  189.5040  177.1530  145.5110 C   0  0  0  0  0  3  0  0  0  0  0  0
  185.3040  178.7050  145.0980 C   0  0  0  0  0  0  0  0  0  0  0  0
  183.9920  179.1760  145.1090 C   0  0  0  0  0  3  0  0  0  0  0  0
  190.4920  176.1990  143.4620 C   0  0  0  0  0  0  0  0  0  0  0  0
  191.6870  175.6200  144.1380 C   0  0  0  0  0  1  0  0  0  0  0  0
  188.2410  177.2130  142.0600 C   0  0  0  0  0  2  0  0  0  0  0  0
  183.7470  178.3540  142.8180 C   0  0  0  0  0  3  0  0  0  0  0  0
  187.2870  178.1140  145.5930 C   0  0  0  0  0  0  0  0  0  0  0  0
  186.1220  178.7510  146.1080 N   0  0  0  0  0  0  0  0  0  0  0  0
  190.4710  176.2850  142.1630 N   0  0  0  0  0  0  0  0  0  0  0  0
  185.0700  177.8820  142.8190 C   0  0  0  0  0  3  0  0  0  0  0  0
  189.3820  176.8880  141.4280 C   0  0  0  0  0  0  0  0  0  0  0  0
  189.3540  176.7310  144.2360 C   0  0  0  0  0  0  0  0  0  0  0  0
  188.8890  178.4470  138.0170 C   0  0  0  0  0  0  0  0  0  0  0  0
  189.5560  177.1910  139.9900 C   0  0  0  0  0  0  0  0  0  0  0  0
  188.7370  178.1490  139.3740 C   0  0  0  0  0  3  0  0  0  0  0  0
  188.0710  179.3950  137.4190 O   0  0  0  0  0  1  0  0  0  0  0  0
  190.5350  176.5380  139.2210 C   0  0  0  0  0  3  0  0  0  0  0  0
  189.8650  177.7910  137.2620 C   0  0  0  0  0  3  0  0  0  0  0  0
  190.6870  176.8360  137.8640 C   0  0  0  0  0  3  0  0  0  0  0  0
  1 13  1  0  0  0  0
  2  1  2  0  0  0  0
  2 18  1  0  0  0  0
  4  1  1  0  0  0  0
  4  7  1  0  0  0  0
  5  8  1  0  0  0  0
  6  3  2  0  0  0  0
  7  8  2  0  0  0  0
  7 14  1  0  0  0  0
  9 10  1  0  0  0  0
  9 18  2  0  0  0  0
 11  2  1  0  0  0  0
 12 16  1  0  0  0  0
 12  5  2  0  0  0  0
 13 14  2  0  0  0  0
 13  3  1  0  0  0  0
 15  9  1  0  0  0  0
 16  4  2  0  0  0  0
 17 11  1  0  0  0  0
 17 15  2  0  0  0  0
 18  6  1  0  0  0  0
 19 21  1  0  0  0  0
 20 17  1  0  0  0  0
 21 20  2  0  0  0  0
 22 19  1  0  0  0  0
 23 20  1  0  0  0  0
 24 25  1  0  0  0  0
 24 19  2  0  0  0  0
 25 23  2  0  0  0  0
M  END
>  <MODEL>
3

>  <REMARK>
 VINA RESULT:     -11.0      1.526      2.167
  Name = 
  1 active torsions:
  status: ('A' for Active; 'I' for Inactive)
    1  A    between atoms: C_6  and  C_23
                            x       y       z     vdW  Elec       q    Type
                         _______ _______ _______ _____ _____    ______ ____

>  <TORSDO>
F 1

$$$$
=
 OpenBabel10262419523D

 25 29  0  0  1  0  0  0  0  0999 V2000
  188.6210  177.4660  142.4520 C   0  0  0  0  0  0  0  0  0  0  0  0
  187.7210  178.2500  143.3570 C   0  0  1  0  0  3  0  0  0  0  0  0
  189.8200  176.3740  144.2590 C   0  0  0  0  0  3  0  0  0  0  0  0
  188.8750  177.5620  141.1600 C   0  0  0  0  0  0  0  0  0  0  0  0
  189.8380  177.4540  138.5620 C   0  0  0  0  0  3  0  0  0  0  0  0
  188.8110  176.9220  145.2000 C   0  0  0  0  0  3  0  0  0  0  0  0
  189.9970  176.7930  140.8650 C   0  0  0  0  0  0  0  0  0  0  0  0
  190.4940  176.7210  139.5650 C   0  0  0  0  0  3  0  0  0  0  0  0
  186.7330  178.1560  145.6970 C   0  0  0  0  0  0  0  0  0  0  0  0
  186.9120  178.1440  147.1770 C   0  0  0  0  0  1  0  0  0  0  0  0
  186.2930  178.2870  142.8960 C   0  0  0  0  0  3  0  0  0  0  0  0
  188.7130  178.2480  138.8700 C   0  0  0  0  0  3  0  0  0  0  0  0
  189.6780  176.6310  142.9620 C   0  0  0  0  0  0  0  0  0  0  0  0
  190.5290  176.2120  141.8990 N   0  0  0  0  0  0  0  0  0  0  0  0
  185.5770  178.4860  145.1970 N   0  0  0  0  0  0  0  0  0  0  0  0
  188.2220  178.3130  140.1840 C   0  0  0  0  0  3  0  0  0  0  0  0
  185.2950  178.4650  143.7790 C   0  0  0  0  0  0  0  0  0  0  0  0
  187.8190  177.7440  144.7880 C   0  0  0  0  0  0  0  0  0  0  0  0
  182.2850  178.6090  141.4930 C   0  0  0  0  0  0  0  0  0  0  0  0
  183.8950  178.5880  143.3160 C   0  0  0  0  0  0  0  0  0  0  0  0
  183.6020  178.4950  141.9470 C   0  0  0  0  0  3  0  0  0  0  0  0
  182.0090  178.5170  140.1360 O   0  0  0  0  0  1  0  0  0  0  0  0
  182.8420  178.7930  144.2240 C   0  0  0  0  0  3  0  0  0  0  0  0
  181.2460  178.8140  142.4050 C   0  0  0  0  0  3  0  0  0  0  0  0
  181.5250  178.9070  143.7700 C   0  0  0  0  0  3  0  0  0  0  0  0
  1 13  1  0  0  0  0
  1  2  1  0  0  0  0
  2 11  1  6  0  0  0
  2 18  1  0  0  0  0
  3  6  1  0  0  0  0
  4  1  2  0  0  0  0
  5 12  1  0  0  0  0
  5  8  2  0  0  0  0
  7  4  1  0  0  0  0
  7 14  2  0  0  0  0
  8  7  1  0  0  0  0
  9 10  1  0  0  0  0
 11 17  2  0  0  0  0
 12 16  2  0  0  0  0
 13  3  2  0  0  0  0
 14 13  1  0  0  0  0
 15  9  2  0  0  0  0
 16  4  1  0  0  0  0
 17 15  1  0  0  0  0
 18  6  2  0  0  0  0
 18  9  1  0  0  0  0
 19 21  2  0  0  0  0
 19 24  1  0  0  0  0
 20 17  1  0  0  0  0
 20 23  2  0  0  0  0
 21 20  1  0  0  0  0
 22 19  1  0  0  0  0
 24 25  2  0  0  0  0
 25 23  1  0  0  0  0
M  END
>  <MODEL>
4

>  <REMARK>
 VINA RESULT:      -9.9      2.180      6.586
  Name = 
  1 active torsions:
  status: ('A' for Active; 'I' for Inactive)
    1  A    between atoms: C_6  and  C_23
                            x       y       z     vdW  Elec       q    Type
                         _______ _______ _______ _____ _____    ______ ____

>  <TORSDO>
F 1

$$$$
=
 OpenBabel10262419523D

 25 29  0  0  1  0  0  0  0  0999 V2000
  187.5510  177.9050  141.5790 C   0  0  0  0  0  0  0  0  0  0  0  0
  186.8580  177.5030  142.8450 C   0  0  1  0  0  3  0  0  0  0  0  0
  185.6500  179.1250  140.6880 C   0  0  0  0  0  3  0  0  0  0  0  0
  188.6730  177.4930  141.0180 C   0  0  0  0  0  0  0  0  0  0  0  0
  190.8370  176.8760  139.3980 C   0  0  0  0  0  3  0  0  0  0  0  0
  184.9920  178.9770  142.0110 C   0  0  0  0  0  3  0  0  0  0  0  0
  188.7240  177.9720  139.7120 C   0  0  0  0  0  0  0  0  0  0  0  0
  189.8040  177.6770  138.8830 C   0  0  0  0  0  3  0  0  0  0  0  0
  184.9740  178.2650  144.3730 C   0  0  0  0  0  0  0  0  0  0  0  0
  183.5300  178.5580  144.5970 C   0  0  0  0  0  1  0  0  0  0  0  0
  187.7220  177.6230  144.0660 C   0  0  0  0  0  3  0  0  0  0  0  0
  190.7720  176.3780  140.7170 C   0  0  0  0  0  3  0  0  0  0  0  0
  186.8740  178.6280  140.5340 C   0  0  0  0  0  0  0  0  0  0  0  0
  187.6760  178.6550  139.3570 N   0  0  0  0  0  0  0  0  0  0  0  0
  185.7480  178.0460  145.3960 N   0  0  0  0  0  0  0  0  0  0  0  0
  189.6770  176.6810  141.5420 C   0  0  0  0  0  3  0  0  0  0  0  0
  187.1700  177.8160  145.2770 C   0  0  0  0  0  0  0  0  0  0  0  0
  185.5580  178.2750  143.0190 C   0  0  0  0  0  0  0  0  0  0  0  0
  190.1780  177.5000  147.5490 C   0  0  0  0  0  0  0  0  0  0  0  0
  188.0160  177.8480  146.4900 C   0  0  0  0  0  0  0  0  0  0  0  0
  189.3660  177.4750  146.4110 C   0  0  0  0  0  3  0  0  0  0  0  0
  191.5120  177.1280  147.4570 O   0  0  0  0  0  1  0  0  0  0  0  0
  187.4930  178.2500  147.7320 C   0  0  0  0  0  3  0  0  0  0  0  0
  189.6480  177.9010  148.7780 C   0  0  0  0  0  3  0  0  0  0  0  0
  188.3050  178.2750  148.8690 C   0  0  0  0  0  3  0  0  0  0  0  0
  1  2  1  0  0  0  0
  2 18  1  0  0  0  0
  2 11  1  1  0  0  0
  3  6  1  0  0  0  0
  4 16  1  0  0  0  0
  4  1  2  0  0  0  0
  5 12  1  0  0  0  0
  6 18  2  0  0  0  0
  7  4  1  0  0  0  0
  8  5  2  0  0  0  0
  8  7  1  0  0  0  0
  9 10  1  0  0  0  0
  9 15  2  0  0  0  0
 11 17  2  0  0  0  0
 12 16  2  0  0  0  0
 13  3  2  0  0  0  0
 13  1  1  0  0  0  0
 14  7  2  0  0  0  0
 14 13  1  0  0  0  0
 17 15  1  0  0  0  0
 17 20  1  0  0  0  0
 18  9  1  0  0  0  0
 19 24  1  0  0  0  0
 20 23  2  0  0  0  0
 21 20  1  0  0  0  0
 21 19  2  0  0  0  0
 22 19  1  0  0  0  0
 23 25  1  0  0  0  0
 24 25  2  0  0  0  0
M  END
>  <MODEL>
5

>  <REMARK>
 VINA RESULT:      -9.8      2.653      6.652
  Name = 
  1 active torsions:
  status: ('A' for Active; 'I' for Inactive)
    1  A    between atoms: C_6  and  C_23
                            x       y       z     vdW  Elec       q    Type
                         _______ _______ _______ _____ _____    ______ ____

>  <TORSDO>
F 1

$$$$
=
 OpenBabel10262419523D

 25 29  0  0  1  0  0  0  0  0999 V2000
  188.2630  177.6250  142.8610 C   0  0  0  0  0  0  0  0  0  0  0  0
  187.2490  178.4450  143.5970 C   0  0  1  0  0  3  0  0  0  0  0  0
  189.2880  176.7230  144.8700 C   0  0  0  0  0  3  0  0  0  0  0  0
  188.6540  177.6280  141.6000 C   0  0  0  0  0  0  0  0  0  0  0  0
  189.8960  177.3490  139.1360 C   0  0  0  0  0  3  0  0  0  0  0  0
  188.1680  177.3070  145.6490 C   0  0  0  0  0  3  0  0  0  0  0  0
  189.8210  176.8780  141.4900 C   0  0  0  0  0  0  0  0  0  0  0  0
  190.4590  176.7220  140.2600 C   0  0  0  0  0  3  0  0  0  0  0  0
  186.0150  178.5000  145.8200 C   0  0  0  0  0  0  0  0  0  0  0  0
  186.0330  178.6120  147.3060 C   0  0  0  0  0  1  0  0  0  0  0  0
  185.8790  178.3930  142.9870 C   0  0  0  0  0  3  0  0  0  0  0  0
  188.7220  178.1240  139.2570 C   0  0  0  0  0  3  0  0  0  0  0  0
  189.2810  176.8720  143.5480 C   0  0  0  0  0  0  0  0  0  0  0  0
  190.2530  176.4010  142.6200 N   0  0  0  0  0  0  0  0  0  0  0  0
  184.9120  178.7480  145.1740 N   0  0  0  0  0  0  0  0  0  0  0  0
  188.0900  178.2750  140.5010 C   0  0  0  0  0  3  0  0  0  0  0  0
  184.7860  178.6050  143.7410 C   0  0  0  0  0  0  0  0  0  0  0  0
  187.2040  178.0570  145.0680 C   0  0  0  0  0  0  0  0  0  0  0  0
  181.0300  178.8340  143.3630 C   0  0  0  0  0  0  0  0  0  0  0  0
  183.4420  178.6390  143.1230 C   0  0  0  0  0  0  0  0  0  0  0  0
  182.3060  178.7990  143.9310 C   0  0  0  0  0  3  0  0  0  0  0  0
  179.9140  178.9900  144.1740 O   0  0  0  0  0  1  0  0  0  0  0  0
  183.2760  178.5190  141.7320 C   0  0  0  0  0  3  0  0  0  0  0  0
  180.8760  178.7120  141.9790 C   0  0  0  0  0  3  0  0  0  0  0  0
  181.9990  178.5540  141.1640 C   0  0  0  0  0  3  0  0  0  0  0  0
  1 13  1  0  0  0  0
  1  2  1  0  0  0  0
  2 11  1  6  0  0  0
  2 18  1  0  0  0  0
  3  6  1  0  0  0  0
  4  1  2  0  0  0  0
  5 12  1  0  0  0  0
  5  8  2  0  0  0  0
  7  4  1  0  0  0  0
  7 14  2  0  0  0  0
  8  7  1  0  0  0  0
  9 10  1  0  0  0  0
 11 17  2  0  0  0  0
 12 16  2  0  0  0  0
 13  3  2  0  0  0  0
 14 13  1  0  0  0  0
 15  9  2  0  0  0  0
 16  4  1  0  0  0  0
 17 15  1  0  0  0  0
 18  6  2  0  0  0  0
 18  9  1  0  0  0  0
 19 21  1  0  0  0  0
 19 22  1  0  0  0  0
 20 17  1  0  0  0  0
 20 21  2  0  0  0  0
 23 20  1  0  0  0  0
 24 19  2  0  0  0  0
 25 23  2  0  0  0  0
 25 24  1  0  0  0  0
M  END
>  <MODEL>
6

>  <REMARK>
 VINA RESULT:      -9.7      2.685      6.815
  Name = 
  1 active torsions:
  status: ('A' for Active; 'I' for Inactive)
    1  A    between atoms: C_6  and  C_23
                            x       y       z     vdW  Elec       q    Type
                         _______ _______ _______ _____ _____    ______ ____

>  <TORSDO>
F 1

$$$$
=
 OpenBabel10262419523D

 25 29  0  0  0  0  0  0  0  0999 V2000
  188.3550  177.6550  144.2230 C   0  0  0  0  0  0  0  0  0  0  0  0
  188.2310  178.2870  142.8700 C   0  0  0  0  0  0  0  0  0  0  0  0
  185.9850  177.8070  144.7320 C   0  0  0  0  0  3  0  0  0  0  0  0
  189.4030  177.3920  144.9820 C   0  0  0  0  0  0  0  0  0  0  0  0
  191.2360  176.7800  146.9700 C   0  0  0  0  0  3  0  0  0  0  0  0
  185.7530  178.2080  143.3210 C   0  0  0  0  0  3  0  0  0  0  0  0
  188.9600  177.0670  146.2610 C   0  0  0  0  0  0  0  0  0  0  0  0
  189.8640  176.7520  147.2730 C   0  0  0  0  0  3  0  0  0  0  0  0
  186.5250  178.6280  141.0160 C   0  0  0  0  0  0  0  0  0  0  0  0
  185.2340  179.1960  140.5360 C   0  0  0  0  0  1  0  0  0  0  0  0
  189.0510  177.6060  141.8130 C   0  0  0  0  0  2  0  0  0  0  0  0
  191.6800  177.1280  145.6770 C   0  0  0  0  0  3  0  0  0  0  0  0
  187.2290  177.5270  145.1110 C   0  0  0  0  0  0  0  0  0  0  0  0
  187.6700  177.1330  146.4070 N   0  0  0  0  0  0  0  0  0  0  0  0
  187.4360  178.2900  140.1490 N   0  0  0  0  0  0  0  0  0  0  0  0
  190.7590  177.4450  144.6660 C   0  0  0  0  0  3  0  0  0  0  0  0
  188.6910  177.6750  140.5200 C   0  0  0  0  0  0  0  0  0  0  0  0
  186.7720  178.3840  142.4500 C   0  0  0  0  0  0  0  0  0  0  0  0
  191.7620  176.5910  138.5970 C   0  0  0  0  0  0  0  0  0  0  0  0
  189.5450  177.0780  139.4700 C   0  0  0  0  0  0  0  0  0  0  0  0
  190.9410  177.1510  139.5800 C   0  0  0  0  0  3  0  0  0  0  0  0
  193.1430  176.6710  138.7180 O   0  0  0  0  0  1  0  0  0  0  0  0
  188.9840  176.4310  138.3550 C   0  0  0  0  0  3  0  0  0  0  0  0
  191.1940  175.9510  137.4930 C   0  0  0  0  0  3  0  0  0  0  0  0
  189.8050  175.8720  137.3710 C   0  0  0  0  0  3  0  0  0  0  0  0
  1  4  1  0  0  0  0
  1 13  1  0  0  0  0
  2  1  2  0  0  0  0
  3 13  1  0  0  0  0
  4  7  1  0  0  0  0
  5  8  1  0  0  0  0
  6  3  2  0  0  0  0
  7 14  1  0  0  0  0
  7  8  2  0  0  0  0
  9 18  2  0  0  0  0
 10  9  1  0  0  0  0
 11  2  1  0  0  0  0
 12  5  2  0  0  0  0
 13 14  2  0  0  0  0
 15 17  2  0  0  0  0
 15  9  1  0  0  0  0
 16  4  2  0  0  0  0
 16 12  1  0  0  0  0
 17 11  1  0  0  0  0
 18  2  1  0  0  0  0
 18  6  1  0  0  0  0
 19 22  1  0  0  0  0
 19 21  1  0  0  0  0
 20 21  2  0  0  0  0
 20 17  1  0  0  0  0
 23 20  1  0  0  0  0
 24 19  2  0  0  0  0
 25 24  1  0  0  0  0
 25 23  2  0  0  0  0
M  END
>  <MODEL>
7

>  <REMARK>
 VINA RESULT:      -9.7      2.165      4.959
  Name = 
  1 active torsions:
  status: ('A' for Active; 'I' for Inactive)
    1  A    between atoms: C_6  and  C_23
                            x       y       z     vdW  Elec       q    Type
                         _______ _______ _______ _____ _____    ______ ____

>  <TORSDO>
F 1

$$$$
=
 OpenBabel10262419523D

 25 29  0  0  1  0  0  0  0  0999 V2000
  188.9280  177.4100  141.6300 C   0  0  0  0  0  0  0  0  0  0  0  0
  188.0590  178.1380  142.6080 C   0  0  1  0  0  3  0  0  0  0  0  0
  190.1750  176.2020  143.3290 C   0  0  0  0  0  3  0  0  0  0  0  0
  189.1450  177.5860  140.3390 C   0  0  0  0  0  0  0  0  0  0  0  0
  190.0290  177.6370  137.7120 C   0  0  0  0  0  3  0  0  0  0  0  0
  189.1970  176.6940  144.3320 C   0  0  0  0  0  3  0  0  0  0  0  0
  190.2530  176.8320  139.9630 C   0  0  0  0  0  0  0  0  0  0  0  0
  190.7110  176.8410  138.6470 C   0  0  0  0  0  3  0  0  0  0  0  0
  187.1410  177.9010  144.9670 C   0  0  0  0  0  0  0  0  0  0  0  0
  187.3640  177.7960  146.4370 C   0  0  0  0  0  1  0  0  0  0  0  0
  186.6180  178.2080  142.1940 C   0  0  0  0  0  3  0  0  0  0  0  0
  188.9180  178.4140  138.1030 C   0  0  0  0  0  3  0  0  0  0  0  0
  189.9950  176.5410  142.0550 C   0  0  0  0  0  0  0  0  0  0  0  0
  190.8120  176.1870  140.9430 N   0  0  0  0  0  0  0  0  0  0  0  0
  185.9720  178.2660  144.5230 N   0  0  0  0  0  0  0  0  0  0  0  0
  188.4660  178.3980  139.4320 C   0  0  0  0  0  3  0  0  0  0  0  0
  185.6480  178.3340  143.1160 C   0  0  0  0  0  0  0  0  0  0  0  0
  188.1970  177.5430  144.0020 C   0  0  0  0  0  0  0  0  0  0  0  0
  181.8980  178.7920  143.3030 C   0  0  0  0  0  0  0  0  0  0  0  0
  184.2360  178.4900  142.7040 C   0  0  0  0  0  0  0  0  0  0  0  0
  183.2370  178.6430  143.6770 C   0  0  0  0  0  3  0  0  0  0  0  0
  180.9190  178.9410  144.2770 O   0  0  0  0  0  1  0  0  0  0  0  0
  183.8690  178.4930  141.3470 C   0  0  0  0  0  3  0  0  0  0  0  0
  181.5450  178.7920  141.9510 C   0  0  0  0  0  3  0  0  0  0  0  0
  182.5300  178.6410  140.9730 C   0  0  0  0  0  3  0  0  0  0  0  0
  1 13  1  0  0  0  0
  1  2  1  0  0  0  0
  2 11  1  6  0  0  0
  2 18  1  0  0  0  0
  3  6  1  0  0  0  0
  4  1  2  0  0  0  0
  5 12  1  0  0  0  0
  5  8  2  0  0  0  0
  7  4  1  0  0  0  0
  7 14  2  0  0  0  0
  8  7  1  0  0  0  0
  9 10  1  0  0  0  0
 11 17  2  0  0  0  0
 12 16  2  0  0  0  0
 13  3  2  0  0  0  0
 14 13  1  0  0  0  0
 15  9  2  0  0  0  0
 16  4  1  0  0  0  0
 17 15  1  0  0  0  0
 18  6  2  0  0  0  0
 18  9  1  0  0  0  0
 19 21  1  0  0  0  0
 19 22  1  0  0  0  0
 20 17  1  0  0  0  0
 20 21  2  0  0  0  0
 23 20  1  0  0  0  0
 24 19  2  0  0  0  0
 25 23  2  0  0  0  0
 25 24  1  0  0  0  0
M  END
>  <MODEL>
8

>  <REMARK>
 VINA RESULT:      -9.4      2.720      6.898
  Name = 
  1 active torsions:
  status: ('A' for Active; 'I' for Inactive)
    1  A    between atoms: C_6  and  C_23
                            x       y       z     vdW  Elec       q    Type
                         _______ _______ _______ _____ _____    ______ ____

>  <TORSDO>
F 1

$$$$
=
 OpenBabel10262419523D

 25 29  0  0  0  0  0  0  0  0999 V2000
  185.6170  178.2240  143.7990 C   0  0  0  0  0  0  0  0  0  0  0  0
  184.5880  178.7450  142.8440 C   0  0  0  0  0  0  0  0  0  0  0  0
  184.2660  178.6090  145.7800 C   0  0  0  0  0  3  0  0  0  0  0  0
  186.8990  177.9430  143.6490 C   0  0  0  0  0  0  0  0  0  0  0  0
  189.6000  177.3580  143.8760 C   0  0  0  0  0  3  0  0  0  0  0  0
  183.1190  178.9040  144.8850 C   0  0  0  0  0  3  0  0  0  0  0  0
  187.4690  177.7660  144.9060 C   0  0  0  0  0  0  0  0  0  0  0  0
  188.8240  177.4670  145.0420 C   0  0  0  0  0  3  0  0  0  0  0  0
  182.0720  179.0610  142.6570 C   0  0  0  0  0  0  0  0  0  0  0  0
  180.8090  179.6890  143.1390 C   0  0  0  0  0  1  0  0  0  0  0  0
  184.4440  177.9130  141.6040 C   0  0  0  0  0  2  0  0  0  0  0  0
  189.0200  177.5580  142.6050 C   0  0  0  0  0  3  0  0  0  0  0  0
  185.4250  178.2630  145.2250 C   0  0  0  0  0  0  0  0  0  0  0  0
  186.6430  177.9470  145.8930 N   0  0  0  0  0  0  0  0  0  0  0  0
  182.1260  178.5790  141.4490 N   0  0  0  0  0  0  0  0  0  0  0  0
  187.6550  177.8600  142.4810 C   0  0  0  0  0  3  0  0  0  0  0  0
  183.2870  177.8990  140.9200 C   0  0  0  0  0  0  0  0  0  0  0  0
  183.2460  178.9230  143.5390 C   0  0  0  0  0  0  0  0  0  0  0  0
  183.7900  176.8730  137.3140 C   0  0  0  0  0  0  0  0  0  0  0  0
  183.1720  177.1470  139.6510 C   0  0  0  0  0  0  0  0  0  0  0  0
  183.8870  177.5720  138.5210 C   0  0  0  0  0  3  0  0  0  0  0  0
  184.5010  177.3050  136.2030 O   0  0  0  0  0  1  0  0  0  0  0  0
  182.3600  176.0050  139.5520 C   0  0  0  0  0  3  0  0  0  0  0  0
  182.9780  175.7390  137.2270 C   0  0  0  0  0  3  0  0  0  0  0  0
  182.2630  175.3050  138.3450 C   0  0  0  0  0  3  0  0  0  0  0  0
  1 13  1  0  0  0  0
  2 18  1  0  0  0  0
  2  1  2  0  0  0  0
  4  1  1  0  0  0  0
  4  7  1  0  0  0  0
  5  8  1  0  0  0  0
  6  3  2  0  0  0  0
  7  8  2  0  0  0  0
  7 14  1  0  0  0  0
  9 10  1  0  0  0  0
  9 18  2  0  0  0  0
 11  2  1  0  0  0  0
 12  5  2  0  0  0  0
 13  3  1  0  0  0  0
 13 14  2  0  0  0  0
 15  9  1  0  0  0  0
 16 12  1  0  0  0  0
 16  4  2  0  0  0  0
 17 15  2  0  0  0  0
 17 11  1  0  0  0  0
 18  6  1  0  0  0  0
 19 21  1  0  0  0  0
 20 17  1  0  0  0  0
 21 20  2  0  0  0  0
 22 19  1  0  0  0  0
 23 20  1  0  0  0  0
 24 19  2  0  0  0  0
 24 25  1  0  0  0  0
 25 23  2  0  0  0  0
M  END
>  <MODEL>
9

>  <REMARK>
 VINA RESULT:      -9.0      3.222      6.702
  Name = 
  1 active torsions:
  status: ('A' for Active; 'I' for Inactive)
    1  A    between atoms: C_6  and  C_23
                            x       y       z     vdW  Elec       q    Type
                         _______ _______ _______ _____ _____    ______ ____

>  <TORSDO>
F 1

$$$$
