=
 OpenBabel10262421213D

 32 33  0  0  1  0  0  0  0  0999 V2000
  188.3080  176.8080  142.6430 C   0  0  0  0  0  2  0  0  0  0  0  0
  189.4440  177.5900  142.1830 N   0  0  0  0  0  2  0  0  0  0  0  0
  190.3660  176.6650  141.5370 C   0  0  1  0  0  3  0  0  0  0  0  0
  190.5090  176.9220  140.0320 C   0  0  2  0  0  3  0  0  0  0  0  0
  191.5550  177.4330  141.0000 C   0  0  0  0  0  2  0  0  0  0  0  0
  189.6770  178.0920  139.5140 C   0  0  0  0  0  2  0  0  0  0  0  0
  189.2330  177.8430  138.0800 C   0  0  2  0  0  3  0  0  0  0  0  0
  189.0990  179.1610  137.3250 C   0  0  0  0  0  1  0  0  0  0  0  0
  187.9450  177.0090  138.0610 C   0  0  1  0  0  3  0  0  0  0  0  0
  186.2150  178.5500  139.0400 O   0  0  0  0  0  1  0  0  0  0  0  0
  186.6710  177.7980  137.9640 C   0  0  0  0  0  0  0  0  0  0  0  0
  186.0050  177.7730  136.8960 O   0  0  0  0  0  0  0  0  0  0  0  0
  187.9940  175.8030  137.1220 C   0  0  0  0  0  2  0  0  0  0  0  0
  189.3820  175.5590  136.5400 C   0  0  0  0  0  2  0  0  0  0  0  0
  191.4900  174.5560  137.4030 C   0  0  0  0  0  1  0  0  0  0  0  0
  190.0100  174.3280  137.1680 C   0  0  0  0  0  2  0  0  0  0  0  0
  188.1420  176.9590  144.1520 C   0  0  2  0  0  3  0  0  0  0  0  0
  186.8140  177.5690  144.4870 C   0  0  0  0  0  0  0  0  0  0  0  0
  186.3990  177.7240  145.8180 C   0  0  0  0  0  3  0  0  0  0  0  0
  185.9880  178.0160  143.4510 C   0  0  0  0  0  3  0  0  0  0  0  0
  183.1160  179.3390  145.3710 O   0  0  0  0  0  1  0  0  0  0  0  0
  184.3400  178.7550  145.0690 C   0  0  0  0  0  0  0  0  0  0  0  0
  185.1660  178.3140  146.1060 C   0  0  0  0  0  3  0  0  0  0  0  0
  184.7460  178.6080  143.7330 C   0  0  0  0  0  0  0  0  0  0  0  0
  183.8940  179.0680  142.6790 N   0  0  0  0  0  2  0  0  0  0  0  0
  183.5910  178.2890  141.4850 C   0  0  0  0  0  2  0  0  0  0  0  0
  182.1300  178.4560  141.1140 C   0  0  0  0  0  1  0  0  0  0  0  0
  189.2760  177.7850  144.7490 C   0  0  0  0  0  2  0  0  0  0  0  0
  190.0110  177.0100  145.8320 C   0  0  2  0  0  3  0  0  0  0  0  0
  189.6610  177.6020  147.1840 C   0  0  0  0  0  1  0  0  0  0  0  0
  192.1880  176.4420  146.6420 O   0  0  0  0  0  1  0  0  0  0  0  0
  191.5140  177.0950  145.6110 C   0  0  0  0  0  2  0  0  0  0  0  0
  2  1  1  0  0  0  0
  3  2  1  1  0  0  0
  4  6  1  1  0  0  0
  4  5  1  0  0  0  0
  4  3  1  0  0  0  0
  5  3  1  0  0  0  0
  7  8  1  1  0  0  0
  7  6  1  0  0  0  0
  9 13  1  6  0  0  0
  9  7  1  0  0  0  0
 11  9  1  0  0  0  0
 11 10  1  0  0  0  0
 12 11  2  0  0  0  0
 14 13  1  0  0  0  0
 14 16  1  0  0  0  0
 16 15  1  0  0  0  0
 17  1  1  6  0  0  0
 17 18  1  0  0  0  0
 17 28  1  0  0  0  0
 18 19  1  0  0  0  0
 19 23  2  0  0  0  0
 20 24  1  0  0  0  0
 20 18  2  0  0  0  0
 22 21  1  0  0  0  0
 22 23  1  0  0  0  0
 24 22  2  0  0  0  0
 25 24  1  0  0  0  0
 26 25  1  0  0  0  0
 27 26  1  0  0  0  0
 28 29  1  0  0  0  0
 29 30  1  1  0  0  0
 32 29  1  0  0  0  0
 32 31  1  0  0  0  0
M  END
>  <MODEL>
1

>  <REMARK>
 VINA RESULT:      -7.2      0.000      0.000
  Name = 
  16 active torsions:
  status: ('A' for Active; 'I' for Inactive)
    1  A    between atoms: N_1  and  C_4
    2  A    between atoms: N_1  and  C_5
    3  A    between atoms: C_2  and  C_14
    4  A    between atoms: C_3  and  C_15
    5  A    between atoms: C_3  and  C_20
    6  A    between atoms: C_3  and  C_22
    7  A    between atoms: C_5  and  C_14
    8  A    between atoms: C_9  and  N_28
    9  A    between atoms: C_13  and  C_29
   10  A    between atoms: C_13  and  C_30
   11  A    between atoms: C_14  and  C_30
   12  A    between atoms: C_15  and  C_26
   13  A    between atoms: C_16  and  C_20
   14  A    between atoms: C_16  and  C_24
   15  A    between atoms: C_19  and  C_26
   16  A    between atoms: N_28  and  C_32
                            x       y       z     vdW  Elec       q    Type
                         _______ _______ _______ _____ _____    ______ ____

>  <TORSDO>
F 16

$$$$
=
 OpenBabel10262421213D

 32 33  0  0  1  0  0  0  0  0999 V2000
  188.2590  176.9420  142.8020 C   0  0  0  0  0  2  0  0  0  0  0  0
  189.2610  177.6580  142.0290 N   0  0  0  0  0  2  0  0  0  0  0  0
  190.2020  176.6650  141.5270 C   0  0  1  0  0  3  0  0  0  0  0  0
  190.3580  176.7110  140.0020 C   0  0  2  0  0  3  0  0  0  0  0  0
  191.3870  177.3690  140.8980 C   0  0  0  0  0  2  0  0  0  0  0  0
  189.5150  177.7850  139.3180 C   0  0  0  0  0  2  0  0  0  0  0  0
  189.7950  177.8180  137.8230 C   0  0  2  0  0  3  0  0  0  0  0  0
  188.9600  178.8990  137.1460 C   0  0  0  0  0  1  0  0  0  0  0  0
  189.5820  176.4260  137.2120 C   0  0  1  0  0  3  0  0  0  0  0  0
  188.1400  176.2330  135.1600 O   0  0  0  0  0  0  0  0  0  0  0  0
  188.2530  176.2160  136.5450 C   0  0  0  0  0  0  0  0  0  0  0  0
  187.2280  176.0270  137.2510 O   0  0  0  0  0  1  0  0  0  0  0  0
  190.7680  175.9120  136.3960 C   0  0  0  0  0  2  0  0  0  0  0  0
  191.3890  174.6480  136.9820 C   0  0  0  0  0  2  0  0  0  0  0  0
  193.1920  176.3370  137.2840 C   0  0  0  0  0  1  0  0  0  0  0  0
  192.6710  174.9830  137.7220 C   0  0  0  0  0  2  0  0  0  0  0  0
  187.3330  177.9300  143.5070 C   0  0  2  0  0  3  0  0  0  0  0  0
  187.5620  177.9160  144.9880 C   0  0  0  0  0  0  0  0  0  0  0  0
  186.5350  178.2410  145.8860 C   0  0  0  0  0  3  0  0  0  0  0  0
  188.8180  177.5460  145.4810 C   0  0  0  0  0  3  0  0  0  0  0  0
  188.2390  177.8040  149.1260 O   0  0  0  0  0  1  0  0  0  0  0  0
  188.0230  177.8370  147.7530 C   0  0  0  0  0  0  0  0  0  0  0  0
  186.7670  178.2020  147.2630 C   0  0  0  0  0  3  0  0  0  0  0  0
  189.0580  177.5070  146.8640 C   0  0  0  0  0  0  0  0  0  0  0  0
  190.3410  177.1300  147.3780 N   0  0  0  0  0  2  0  0  0  0  0  0
  191.4090  176.5750  146.5570 C   0  0  0  0  0  2  0  0  0  0  0  0
  192.3200  175.7100  147.4070 C   0  0  0  0  0  1  0  0  0  0  0  0
  185.8720  177.6320  143.1880 C   0  0  0  0  0  2  0  0  0  0  0  0
  185.1700  178.8600  142.6280 C   0  0  2  0  0  3  0  0  0  0  0  0
  183.9860  179.1970  143.5130 C   0  0  0  0  0  1  0  0  0  0  0  0
  185.0680  179.6290  140.3660 O   0  0  0  0  0  1  0  0  0  0  0  0
  184.6870  178.5880  141.2100 C   0  0  0  0  0  2  0  0  0  0  0  0
  2  1  1  0  0  0  0
  3  2  1  6  0  0  0
  4  6  1  6  0  0  0
  4  5  1  0  0  0  0
  4  3  1  0  0  0  0
  5  3  1  0  0  0  0
  7  8  1  6  0  0  0
  7  6  1  0  0  0  0
  9 13  1  6  0  0  0
  9  7  1  0  0  0  0
 10 11  2  0  0  0  0
 11  9  1  0  0  0  0
 11 12  1  0  0  0  0
 13 14  1  0  0  0  0
 14 16  1  0  0  0  0
 15 16  1  0  0  0  0
 17  1  1  6  0  0  0
 17 18  1  0  0  0  0
 18 20  2  0  0  0  0
 18 19  1  0  0  0  0
 19 23  2  0  0  0  0
 20 24  1  0  0  0  0
 22 21  1  0  0  0  0
 23 22  1  0  0  0  0
 24 25  1  0  0  0  0
 24 22  2  0  0  0  0
 26 25  1  0  0  0  0
 26 27  1  0  0  0  0
 28 17  1  0  0  0  0
 29 28  1  0  0  0  0
 29 30  1  1  0  0  0
 31 32  1  0  0  0  0
 32 29  1  0  0  0  0
M  END
>  <MODEL>
2

>  <REMARK>
 VINA RESULT:      -7.1      2.007      4.864
  Name = 
  16 active torsions:
  status: ('A' for Active; 'I' for Inactive)
    1  A    between atoms: N_1  and  C_4
    2  A    between atoms: N_1  and  C_5
    3  A    between atoms: C_2  and  C_14
    4  A    between atoms: C_3  and  C_15
    5  A    between atoms: C_3  and  C_20
    6  A    between atoms: C_3  and  C_22
    7  A    between atoms: C_5  and  C_14
    8  A    between atoms: C_9  and  N_28
    9  A    between atoms: C_13  and  C_29
   10  A    between atoms: C_13  and  C_30
   11  A    between atoms: C_14  and  C_30
   12  A    between atoms: C_15  and  C_26
   13  A    between atoms: C_16  and  C_20
   14  A    between atoms: C_16  and  C_24
   15  A    between atoms: C_19  and  C_26
   16  A    between atoms: N_28  and  C_32
                            x       y       z     vdW  Elec       q    Type
                         _______ _______ _______ _____ _____    ______ ____

>  <TORSDO>
F 16

$$$$
=
 OpenBabel10262421213D

 32 33  0  0  1  0  0  0  0  0999 V2000
  188.8190  178.0550  142.8720 C   0  0  0  0  0  2  0  0  0  0  0  0
  188.9270  176.9570  141.9260 N   0  0  0  0  0  2  0  0  0  0  0  0
  190.2800  176.4280  142.0390 C   0  0  1  0  0  3  0  0  0  0  0  0
  191.1280  176.6920  140.7880 C   0  0  2  0  0  3  0  0  0  0  0  0
  191.2710  177.5720  142.0120 C   0  0  0  0  0  2  0  0  0  0  0  0
  190.4000  177.4620  139.6880 C   0  0  0  0  0  2  0  0  0  0  0  0
  189.9550  176.5220  138.5780 C   0  0  2  0  0  3  0  0  0  0  0  0
  190.9090  176.6040  137.3920 C   0  0  0  0  0  1  0  0  0  0  0  0
  188.4970  176.8070  138.1940 C   0  0  1  0  0  3  0  0  0  0  0  0
  188.5070  179.2130  137.4600 O   0  0  0  0  0  0  0  0  0  0  0  0
  188.0620  178.2370  138.3440 C   0  0  0  0  0  0  0  0  0  0  0  0
  187.2900  178.5550  139.2850 O   0  0  0  0  0  1  0  0  0  0  0  0
  188.0590  176.1660  136.8770 C   0  0  0  0  0  2  0  0  0  0  0  0
  186.7860  175.3370  137.0130 C   0  0  0  0  0  2  0  0  0  0  0  0
  184.7970  176.7780  137.4140 C   0  0  0  0  0  1  0  0  0  0  0  0
  185.6160  176.0530  136.3650 C   0  0  0  0  0  2  0  0  0  0  0  0
  188.3840  177.5320  144.2380 C   0  0  2  0  0  3  0  0  0  0  0  0
  186.9790  177.9500  144.5500 C   0  0  0  0  0  0  0  0  0  0  0  0
  186.5800  178.2410  145.8630 C   0  0  0  0  0  3  0  0  0  0  0  0
  186.0570  178.0770  143.5060 C   0  0  0  0  0  3  0  0  0  0  0  0
  183.0490  179.1720  145.3590 O   0  0  0  0  0  1  0  0  0  0  0  0
  184.3490  178.7680  145.0820 C   0  0  0  0  0  0  0  0  0  0  0  0
  185.2700  178.6470  146.1260 C   0  0  0  0  0  3  0  0  0  0  0  0
  184.7380  178.4830  143.7630 C   0  0  0  0  0  0  0  0  0  0  0  0
  183.7880  178.6160  142.7000 N   0  0  0  0  0  2  0  0  0  0  0  0
  183.9610  178.0210  141.3810 C   0  0  0  0  0  2  0  0  0  0  0  0
  184.1170  179.1100  140.3380 C   0  0  0  0  0  1  0  0  0  0  0  0
  189.3370  178.0020  145.3320 C   0  0  0  0  0  2  0  0  0  0  0  0
  190.0240  176.8240  146.0070 C   0  0  2  0  0  3  0  0  0  0  0  0
  189.6840  176.8370  147.4850 C   0  0  0  0  0  1  0  0  0  0  0  0
  192.1690  175.9250  146.5650 O   0  0  0  0  0  1  0  0  0  0  0  0
  191.5320  176.9230  145.8280 C   0  0  0  0  0  2  0  0  0  0  0  0
  2  1  1  0  0  0  0
  3  2  1  6  0  0  0
  4  6  1  6  0  0  0
  4  5  1  0  0  0  0
  4  3  1  0  0  0  0
  5  3  1  0  0  0  0
  7  8  1  6  0  0  0
  7  6  1  0  0  0  0
  9 13  1  6  0  0  0
  9 11  1  0  0  0  0
  9  7  1  0  0  0  0
 10 11  2  0  0  0  0
 11 12  1  0  0  0  0
 13 14  1  0  0  0  0
 16 14  1  0  0  0  0
 16 15  1  0  0  0  0
 17  1  1  6  0  0  0
 17 18  1  0  0  0  0
 17 28  1  0  0  0  0
 18 19  1  0  0  0  0
 19 23  2  0  0  0  0
 20 24  1  0  0  0  0
 20 18  2  0  0  0  0
 22 21  1  0  0  0  0
 22 23  1  0  0  0  0
 24 22  2  0  0  0  0
 25 24  1  0  0  0  0
 26 25  1  0  0  0  0
 27 26  1  0  0  0  0
 28 29  1  0  0  0  0
 29 30  1  1  0  0  0
 32 29  1  0  0  0  0
 32 31  1  0  0  0  0
M  END
>  <MODEL>
3

>  <REMARK>
 VINA RESULT:      -6.9      1.139      1.976
  Name = 
  16 active torsions:
  status: ('A' for Active; 'I' for Inactive)
    1  A    between atoms: N_1  and  C_4
    2  A    between atoms: N_1  and  C_5
    3  A    between atoms: C_2  and  C_14
    4  A    between atoms: C_3  and  C_15
    5  A    between atoms: C_3  and  C_20
    6  A    between atoms: C_3  and  C_22
    7  A    between atoms: C_5  and  C_14
    8  A    between atoms: C_9  and  N_28
    9  A    between atoms: C_13  and  C_29
   10  A    between atoms: C_13  and  C_30
   11  A    between atoms: C_14  and  C_30
   12  A    between atoms: C_15  and  C_26
   13  A    between atoms: C_16  and  C_20
   14  A    between atoms: C_16  and  C_24
   15  A    between atoms: C_19  and  C_26
   16  A    between atoms: N_28  and  C_32
                            x       y       z     vdW  Elec       q    Type
                         _______ _______ _______ _____ _____    ______ ____

>  <TORSDO>
F 16

$$$$
=
 OpenBabel10262421213D

 32 33  0  0  1  0  0  0  0  0999 V2000
  189.2150  178.4920  144.7720 C   0  0  0  0  0  2  0  0  0  0  0  0
  190.0380  178.1090  143.6370 N   0  0  0  0  0  2  0  0  0  0  0  0
  189.8680  176.6750  143.4490 C   0  0  1  0  0  3  0  0  0  0  0  0
  190.1410  176.2270  142.0080 C   0  0  2  0  0  3  0  0  0  0  0  0
  191.1980  176.0550  143.0780 C   0  0  0  0  0  2  0  0  0  0  0  0
  190.5460  177.3590  141.0660 C   0  0  0  0  0  2  0  0  0  0  0  0
  191.3670  176.8230  139.9040 C   0  0  2  0  0  3  0  0  0  0  0  0
  192.8030  177.3310  139.9830 C   0  0  0  0  0  1  0  0  0  0  0  0
  190.6850  177.1610  138.5710 C   0  0  1  0  0  3  0  0  0  0  0  0
  190.1660  174.8130  137.8330 O   0  0  0  0  0  1  0  0  0  0  0  0
  190.7010  176.0630  137.5460 C   0  0  0  0  0  0  0  0  0  0  0  0
  191.2100  176.2780  136.4160 O   0  0  0  0  0  0  0  0  0  0  0  0
  189.3260  177.8460  138.7180 C   0  0  0  0  0  2  0  0  0  0  0  0
  189.0240  178.8170  137.5830 C   0  0  0  0  0  2  0  0  0  0  0  0
  187.9560  177.7890  135.5840 C   0  0  0  0  0  1  0  0  0  0  0  0
  187.7070  178.4620  136.9190 C   0  0  0  0  0  2  0  0  0  0  0  0
  188.2360  177.3720  145.1140 C   0  0  2  0  0  3  0  0  0  0  0  0
  186.8200  177.8160  144.9050 C   0  0  0  0  0  0  0  0  0  0  0  0
  186.0330  178.2660  145.9760 C   0  0  0  0  0  3  0  0  0  0  0  0
  186.2840  177.8050  143.6130 C   0  0  0  0  0  3  0  0  0  0  0  0
  182.8810  179.1040  144.2580 O   0  0  0  0  0  1  0  0  0  0  0  0
  184.1870  178.6770  144.4630 C   0  0  0  0  0  0  0  0  0  0  0  0
  184.7220  178.6930  145.7540 C   0  0  0  0  0  3  0  0  0  0  0  0
  184.9660  178.2310  143.3830 C   0  0  0  0  0  0  0  0  0  0  0  0
  184.4100  178.2240  142.0640 N   0  0  0  0  0  2  0  0  0  0  0  0
  184.8070  179.1530  141.0130 C   0  0  0  0  0  2  0  0  0  0  0  0
  185.9910  178.5960  140.2480 C   0  0  0  0  0  1  0  0  0  0  0  0
  188.4380  176.8840  146.5440 C   0  0  0  0  0  2  0  0  0  0  0  0
  189.5850  177.6220  147.2190 C   0  0  2  0  0  3  0  0  0  0  0  0
  190.7130  176.6420  147.4830 C   0  0  0  0  0  1  0  0  0  0  0  0
  187.9430  177.6070  148.9580 O   0  0  0  0  0  1  0  0  0  0  0  0
  189.1170  178.2280  148.5350 C   0  0  0  0  0  2  0  0  0  0  0  0
  2  1  1  0  0  0  0
  3  2  1  6  0  0  0
  4  6  1  6  0  0  0
  4  5  1  0  0  0  0
  4  3  1  0  0  0  0
  5  3  1  0  0  0  0
  7  8  1  6  0  0  0
  7  6  1  0  0  0  0
  9 13  1  1  0  0  0
  9  7  1  0  0  0  0
 11 10  1  0  0  0  0
 11  9  1  0  0  0  0
 12 11  2  0  0  0  0
 14 13  1  0  0  0  0
 15 16  1  0  0  0  0
 16 14  1  0  0  0  0
 17  1  1  1  0  0  0
 17 28  1  0  0  0  0
 18 17  1  0  0  0  0
 18 19  1  0  0  0  0
 20 18  2  0  0  0  0
 21 22  1  0  0  0  0
 22 23  1  0  0  0  0
 23 19  2  0  0  0  0
 24 20  1  0  0  0  0
 24 22  2  0  0  0  0
 25 24  1  0  0  0  0
 26 25  1  0  0  0  0
 27 26  1  0  0  0  0
 28 29  1  0  0  0  0
 29 30  1  1  0  0  0
 29 32  1  0  0  0  0
 32 31  1  0  0  0  0
M  END
>  <MODEL>
4

>  <REMARK>
 VINA RESULT:      -6.9      2.069      3.025
  Name = 
  16 active torsions:
  status: ('A' for Active; 'I' for Inactive)
    1  A    between atoms: N_1  and  C_4
    2  A    between atoms: N_1  and  C_5
    3  A    between atoms: C_2  and  C_14
    4  A    between atoms: C_3  and  C_15
    5  A    between atoms: C_3  and  C_20
    6  A    between atoms: C_3  and  C_22
    7  A    between atoms: C_5  and  C_14
    8  A    between atoms: C_9  and  N_28
    9  A    between atoms: C_13  and  C_29
   10  A    between atoms: C_13  and  C_30
   11  A    between atoms: C_14  and  C_30
   12  A    between atoms: C_15  and  C_26
   13  A    between atoms: C_16  and  C_20
   14  A    between atoms: C_16  and  C_24
   15  A    between atoms: C_19  and  C_26
   16  A    between atoms: N_28  and  C_32
                            x       y       z     vdW  Elec       q    Type
                         _______ _______ _______ _____ _____    ______ ____

>  <TORSDO>
F 16

$$$$
=
 OpenBabel10262421213D

 32 33  0  0  1  0  0  0  0  0999 V2000
  189.4070  177.0520  140.6610 C   0  0  0  0  0  2  0  0  0  0  0  0
  190.2930  177.6350  141.6560 N   0  0  0  0  0  2  0  0  0  0  0  0
  191.1790  176.5730  142.1140 C   0  0  1  0  0  3  0  0  0  0  0  0
  191.5130  176.6800  143.6070 C   0  0  2  0  0  3  0  0  0  0  0  0
  190.4520  175.7120  143.1250 C   0  0  0  0  0  2  0  0  0  0  0  0
  190.8470  177.8560  144.3160 C   0  0  0  0  0  2  0  0  0  0  0  0
  190.6860  177.5690  145.8010 C   0  0  2  0  0  3  0  0  0  0  0  0
  191.6250  176.4490  146.2340 C   0  0  0  0  0  1  0  0  0  0  0  0
  189.2150  177.2760  146.1290 C   0  0  1  0  0  3  0  0  0  0  0  0
  189.1290  178.5470  148.2980 O   0  0  0  0  0  1  0  0  0  0  0  0
  188.8470  177.3910  147.5810 C   0  0  0  0  0  0  0  0  0  0  0  0
  188.2820  176.4240  148.1540 O   0  0  0  0  0  0  0  0  0  0  0  0
  188.2170  177.9500  145.1860 C   0  0  0  0  0  2  0  0  0  0  0  0
  186.8200  177.3470  145.2700 C   0  0  0  0  0  2  0  0  0  0  0  0
  185.4360  178.5370  146.9620 C   0  0  0  0  0  1  0  0  0  0  0  0
  185.7850  178.4350  145.4910 C   0  0  0  0  0  2  0  0  0  0  0  0
  189.1630  178.0440  139.5280 C   0  0  2  0  0  3  0  0  0  0  0  0
  187.6950  178.2290  139.2860 C   0  0  0  0  0  0  0  0  0  0  0  0
  187.1310  177.9970  138.0220 C   0  0  0  0  0  3  0  0  0  0  0  0
  186.8710  178.6150  140.3470 C   0  0  0  0  0  3  0  0  0  0  0  0
  183.5730  178.7040  138.6750 O   0  0  0  0  0  1  0  0  0  0  0  0
  184.9370  178.5480  138.8870 C   0  0  0  0  0  0  0  0  0  0  0  0
  185.7580  178.1570  137.8250 C   0  0  0  0  0  3  0  0  0  0  0  0
  185.4900  178.7800  140.1560 C   0  0  0  0  0  0  0  0  0  0  0  0
  184.6390  179.1750  141.2380 N   0  0  0  0  0  2  0  0  0  0  0  0
  184.1650  178.2610  142.2690 C   0  0  0  0  0  2  0  0  0  0  0  0
  183.0790  178.9260  143.0920 C   0  0  0  0  0  1  0  0  0  0  0  0
  189.8640  177.5990  138.2500 C   0  0  0  0  0  2  0  0  0  0  0  0
  190.4300  176.1940  138.3930 C   0  0  2  0  0  3  0  0  0  0  0  0
  191.9190  176.2320  138.1080 C   0  0  0  0  0  1  0  0  0  0  0  0
  189.4560  175.9180  136.2270 O   0  0  0  0  0  1  0  0  0  0  0  0
  189.7470  175.2490  137.4150 C   0  0  0  0  0  2  0  0  0  0  0  0
  1  2  1  0  0  0  0
  3  2  1  1  0  0  0
  3  5  1  0  0  0  0
  3  4  1  0  0  0  0
  4  6  1  1  0  0  0
  5  4  1  0  0  0  0
  6  7  1  0  0  0  0
  7  9  1  0  0  0  0
  7  8  1  6  0  0  0
  9 13  1  6  0  0  0
  9 11  1  0  0  0  0
 11 12  2  0  0  0  0
 11 10  1  0  0  0  0
 13 14  1  0  0  0  0
 14 16  1  0  0  0  0
 16 15  1  0  0  0  0
 17 28  1  6  0  0  0
 17  1  1  0  0  0  0
 18 17  1  0  0  0  0
 18 20  1  0  0  0  0
 19 18  2  0  0  0  0
 21 22  1  0  0  0  0
 22 24  1  0  0  0  0
 23 19  1  0  0  0  0
 23 22  2  0  0  0  0
 24 20  2  0  0  0  0
 24 25  1  0  0  0  0
 25 26  1  0  0  0  0
 26 27  1  0  0  0  0
 28 29  1  0  0  0  0
 29 30  1  6  0  0  0
 31 32  1  0  0  0  0
 32 29  1  0  0  0  0
M  END
>  <MODEL>
5

>  <REMARK>
 VINA RESULT:      -6.8      2.007      7.250
  Name = 
  16 active torsions:
  status: ('A' for Active; 'I' for Inactive)
    1  A    between atoms: N_1  and  C_4
    2  A    between atoms: N_1  and  C_5
    3  A    between atoms: C_2  and  C_14
    4  A    between atoms: C_3  and  C_15
    5  A    between atoms: C_3  and  C_20
    6  A    between atoms: C_3  and  C_22
    7  A    between atoms: C_5  and  C_14
    8  A    between atoms: C_9  and  N_28
    9  A    between atoms: C_13  and  C_29
   10  A    between atoms: C_13  and  C_30
   11  A    between atoms: C_14  and  C_30
   12  A    between atoms: C_15  and  C_26
   13  A    between atoms: C_16  and  C_20
   14  A    between atoms: C_16  and  C_24
   15  A    between atoms: C_19  and  C_26
   16  A    between atoms: N_28  and  C_32
                            x       y       z     vdW  Elec       q    Type
                         _______ _______ _______ _____ _____    ______ ____

>  <TORSDO>
F 16

$$$$
=
 OpenBabel10262421213D

 32 33  0  0  1  0  0  0  0  0999 V2000
  185.2700  179.0610  141.1680 C   0  0  0  0  0  2  0  0  0  0  0  0
  184.9970  178.0270  142.1530 N   0  0  0  0  0  2  0  0  0  0  0  0
  184.0870  178.6030  143.1350 C   0  0  1  0  0  3  0  0  0  0  0  0
  184.6360  178.5360  144.5650 C   0  0  2  0  0  3  0  0  0  0  0  0
  184.7330  179.8190  143.7660 C   0  0  0  0  0  2  0  0  0  0  0  0
  186.0190  177.8990  144.6770 C   0  0  0  0  0  2  0  0  0  0  0  0
  186.4050  177.7030  146.1350 C   0  0  2  0  0  3  0  0  0  0  0  0
  185.5900  178.6260  147.0340 C   0  0  0  0  0  1  0  0  0  0  0  0
  187.9200  177.8810  146.3120 C   0  0  1  0  0  3  0  0  0  0  0  0
  189.2070  178.5310  148.3730 O   0  0  0  0  0  1  0  0  0  0  0  0
  188.4420  177.5930  147.6910 C   0  0  0  0  0  0  0  0  0  0  0  0
  188.1880  176.4860  148.2310 O   0  0  0  0  0  0  0  0  0  0  0  0
  188.7580  177.2600  145.1940 C   0  0  0  0  0  2  0  0  0  0  0  0
  190.1020  177.9540  145.0040 C   0  0  0  0  0  2  0  0  0  0  0  0
  191.6830  176.4950  146.2560 C   0  0  0  0  0  1  0  0  0  0  0  0
  191.2150  176.9290  144.8820 C   0  0  0  0  0  2  0  0  0  0  0  0
  184.7560  178.6310  139.7970 C   0  0  2  0  0  3  0  0  0  0  0  0
  185.8930  178.3350  138.8670 C   0  0  0  0  0  0  0  0  0  0  0  0
  185.6740  178.1000  137.5010 C   0  0  0  0  0  3  0  0  0  0  0  0
  187.1990  178.3190  139.3670 C   0  0  0  0  0  3  0  0  0  0  0  0
  189.1160  177.5700  136.2940 O   0  0  0  0  0  1  0  0  0  0  0  0
  188.0550  177.8260  137.1530 C   0  0  0  0  0  0  0  0  0  0  0  0
  186.7510  177.8460  136.6500 C   0  0  0  0  0  3  0  0  0  0  0  0
  188.2860  178.0620  138.5180 C   0  0  0  0  0  0  0  0  0  0  0  0
  189.6260  178.0440  139.0220 N   0  0  0  0  0  2  0  0  0  0  0  0
  190.2640  176.8600  139.5820 C   0  0  0  0  0  2  0  0  0  0  0  0
  190.4270  177.0180  141.0810 C   0  0  0  0  0  1  0  0  0  0  0  0
  183.8380  179.6910  139.2000 C   0  0  0  0  0  2  0  0  0  0  0  0
  182.3950  179.2090  139.1560 C   0  0  2  0  0  3  0  0  0  0  0  0
  182.3440  177.7670  139.6220 C   0  0  0  0  0  1  0  0  0  0  0  0
  182.1710  178.1560  137.0200 O   0  0  0  0  0  1  0  0  0  0  0  0
  181.8510  179.3080  137.7380 C   0  0  0  0  0  2  0  0  0  0  0  0
  1  2  1  0  0  0  0
  3  2  1  6  0  0  0
  3  5  1  0  0  0  0
  3  4  1  0  0  0  0
  4  6  1  6  0  0  0
  5  4  1  0  0  0  0
  6  7  1  0  0  0  0
  7  9  1  0  0  0  0
  7  8  1  1  0  0  0
  9 13  1  6  0  0  0
  9 11  1  0  0  0  0
 11 12  2  0  0  0  0
 11 10  1  0  0  0  0
 14 13  1  0  0  0  0
 16 14  1  0  0  0  0
 16 15  1  0  0  0  0
 17 28  1  6  0  0  0
 17  1  1  0  0  0  0
 18 20  1  0  0  0  0
 18 17  1  0  0  0  0
 19 18  2  0  0  0  0
 21 22  1  0  0  0  0
 22 24  1  0  0  0  0
 23 22  2  0  0  0  0
 23 19  1  0  0  0  0
 24 25  1  0  0  0  0
 24 20  2  0  0  0  0
 25 26  1  0  0  0  0
 26 27  1  0  0  0  0
 29 28  1  0  0  0  0
 29 30  1  6  0  0  0
 31 32  1  0  0  0  0
 32 29  1  0  0  0  0
M  END
>  <MODEL>
6

>  <REMARK>
 VINA RESULT:      -6.8      2.289      8.669
  Name = 
  16 active torsions:
  status: ('A' for Active; 'I' for Inactive)
    1  A    between atoms: N_1  and  C_4
    2  A    between atoms: N_1  and  C_5
    3  A    between atoms: C_2  and  C_14
    4  A    between atoms: C_3  and  C_15
    5  A    between atoms: C_3  and  C_20
    6  A    between atoms: C_3  and  C_22
    7  A    between atoms: C_5  and  C_14
    8  A    between atoms: C_9  and  N_28
    9  A    between atoms: C_13  and  C_29
   10  A    between atoms: C_13  and  C_30
   11  A    between atoms: C_14  and  C_30
   12  A    between atoms: C_15  and  C_26
   13  A    between atoms: C_16  and  C_20
   14  A    between atoms: C_16  and  C_24
   15  A    between atoms: C_19  and  C_26
   16  A    between atoms: N_28  and  C_32
                            x       y       z     vdW  Elec       q    Type
                         _______ _______ _______ _____ _____    ______ ____

>  <TORSDO>
F 16

$$$$
=
 OpenBabel10262421213D

 32 33  0  0  1  0  0  0  0  0999 V2000
  186.1450  178.4000  143.1560 C   0  0  0  0  0  2  0  0  0  0  0  0
  184.7200  178.1390  143.0390 N   0  0  0  0  0  2  0  0  0  0  0  0
  184.0280  179.2430  143.6900 C   0  0  1  0  0  3  0  0  0  0  0  0
  182.5700  179.3840  143.2340 C   0  0  2  0  0  3  0  0  0  0  0  0
  182.9020  178.6980  144.5430 C   0  0  0  0  0  2  0  0  0  0  0  0
  182.1310  178.3410  142.2080 C   0  0  0  0  0  2  0  0  0  0  0  0
  181.7360  179.0070  140.8990 C   0  0  2  0  0  3  0  0  0  0  0  0
  180.2920  178.6720  140.5430 C   0  0  0  0  0  1  0  0  0  0  0  0
  182.7290  178.6320  139.7910 C   0  0  1  0  0  3  0  0  0  0  0  0
  183.4520  180.8140  138.7690 O   0  0  0  0  0  0  0  0  0  0  0  0
  183.7730  179.6680  139.4880 C   0  0  0  0  0  0  0  0  0  0  0  0
  184.9540  179.4930  139.8850 O   0  0  0  0  0  1  0  0  0  0  0  0
  183.2860  177.2120  139.9030 C   0  0  0  0  0  2  0  0  0  0  0  0
  182.8390  176.3070  138.7610 C   0  0  0  0  0  2  0  0  0  0  0  0
  183.0310  176.8730  136.3450 C   0  0  0  0  0  1  0  0  0  0  0  0
  183.7870  176.4340  137.5830 C   0  0  0  0  0  2  0  0  0  0  0  0
  186.8490  177.2070  143.7960 C   0  0  2  0  0  3  0  0  0  0  0  0
  187.2330  177.5080  145.2130 C   0  0  0  0  0  0  0  0  0  0  0  0
  186.3470  178.1570  146.0850 C   0  0  0  0  0  3  0  0  0  0  0  0
  188.4900  177.1100  145.6780 C   0  0  0  0  0  3  0  0  0  0  0  0
  188.3370  178.2740  149.1860 O   0  0  0  0  0  1  0  0  0  0  0  0
  187.9790  178.0150  147.8690 C   0  0  0  0  0  0  0  0  0  0  0  0
  186.7200  178.4100  147.4070 C   0  0  0  0  0  3  0  0  0  0  0  0
  188.8730  177.3630  147.0050 C   0  0  0  0  0  0  0  0  0  0  0  0
  190.1590  176.9580  147.4900 N   0  0  0  0  0  2  0  0  0  0  0  0
  191.2990  176.6830  146.6260 C   0  0  0  0  0  2  0  0  0  0  0  0
  192.1870  175.6290  147.2590 C   0  0  0  0  0  1  0  0  0  0  0  0
  188.0720  176.7940  142.9850 C   0  0  0  0  0  2  0  0  0  0  0  0
  188.7680  178.0060  142.3830 C   0  0  2  0  0  3  0  0  0  0  0  0
  188.3670  178.1310  140.9260 C   0  0  0  0  0  1  0  0  0  0  0  0
  190.6600  176.5820  142.0430 O   0  0  0  0  0  1  0  0  0  0  0  0
  190.2790  177.8480  142.4850 C   0  0  0  0  0  2  0  0  0  0  0  0
  1 17  1  0  0  0  0
  2  1  1  0  0  0  0
  3  2  1  6  0  0  0
  3  5  1  0  0  0  0
  4  6  1  6  0  0  0
  4  3  1  0  0  0  0
  4  5  1  0  0  0  0
  7  8  1  6  0  0  0
  7  6  1  0  0  0  0
  9 13  1  1  0  0  0
  9  7  1  0  0  0  0
 10 11  2  0  0  0  0
 11  9  1  0  0  0  0
 11 12  1  0  0  0  0
 14 13  1  0  0  0  0
 15 16  1  0  0  0  0
 16 14  1  0  0  0  0
 17 28  1  6  0  0  0
 17 18  1  0  0  0  0
 18 20  2  0  0  0  0
 18 19  1  0  0  0  0
 19 23  2  0  0  0  0
 20 24  1  0  0  0  0
 22 21  1  0  0  0  0
 23 22  1  0  0  0  0
 24 25  1  0  0  0  0
 24 22  2  0  0  0  0
 26 27  1  0  0  0  0
 26 25  1  0  0  0  0
 29 30  1  6  0  0  0
 29 32  1  0  0  0  0
 29 28  1  0  0  0  0
 31 32  1  0  0  0  0
M  END
>  <MODEL>
7

>  <REMARK>
 VINA RESULT:      -6.7      2.993      6.261
  Name = 
  16 active torsions:
  status: ('A' for Active; 'I' for Inactive)
    1  A    between atoms: N_1  and  C_4
    2  A    between atoms: N_1  and  C_5
    3  A    between atoms: C_2  and  C_14
    4  A    between atoms: C_3  and  C_15
    5  A    between atoms: C_3  and  C_20
    6  A    between atoms: C_3  and  C_22
    7  A    between atoms: C_5  and  C_14
    8  A    between atoms: C_9  and  N_28
    9  A    between atoms: C_13  and  C_29
   10  A    between atoms: C_13  and  C_30
   11  A    between atoms: C_14  and  C_30
   12  A    between atoms: C_15  and  C_26
   13  A    between atoms: C_16  and  C_20
   14  A    between atoms: C_16  and  C_24
   15  A    between atoms: C_19  and  C_26
   16  A    between atoms: N_28  and  C_32
                            x       y       z     vdW  Elec       q    Type
                         _______ _______ _______ _____ _____    ______ ____

>  <TORSDO>
F 16

$$$$
=
 OpenBabel10262421213D

 32 33  0  0  1  0  0  0  0  0999 V2000
  187.8700  176.6970  144.6350 C   0  0  0  0  0  2  0  0  0  0  0  0
  186.5190  177.0820  144.2630 N   0  0  0  0  0  2  0  0  0  0  0  0
  186.3330  178.4610  144.6960 C   0  0  1  0  0  3  0  0  0  0  0  0
  185.1140  179.1280  144.0470 C   0  0  2  0  0  3  0  0  0  0  0  0
  185.0280  178.5770  145.4550 C   0  0  0  0  0  2  0  0  0  0  0  0
  184.3350  178.2230  143.0960 C   0  0  0  0  0  2  0  0  0  0  0  0
  184.8400  178.3800  141.6700 C   0  0  2  0  0  3  0  0  0  0  0  0
  186.0580  179.2960  141.6310 C   0  0  0  0  0  1  0  0  0  0  0  0
  183.7040  178.8560  140.7540 C   0  0  1  0  0  3  0  0  0  0  0  0
  184.5800  178.3410  138.4520 O   0  0  0  0  0  0  0  0  0  0  0  0
  184.1260  179.2770  139.3750 C   0  0  0  0  0  0  0  0  0  0  0  0
  184.0730  180.4920  139.0540 O   0  0  0  0  0  1  0  0  0  0  0  0
  182.4670  177.9580  140.7710 C   0  0  0  0  0  2  0  0  0  0  0  0
  181.2200  178.6530  140.2360 C   0  0  0  0  0  2  0  0  0  0  0  0
  180.4130  178.9400  142.5720 C   0  0  0  0  0  1  0  0  0  0  0  0
  180.0530  178.4510  141.1840 C   0  0  0  0  0  2  0  0  0  0  0  0
  188.8370  177.8490  144.3760 C   0  0  2  0  0  3  0  0  0  0  0  0
  189.6070  177.6270  143.1090 C   0  0  0  0  0  0  0  0  0  0  0  0
  191.0080  177.5520  143.1130 C   0  0  0  0  0  3  0  0  0  0  0  0
  188.9120  177.4660  141.9060 C   0  0  0  0  0  3  0  0  0  0  0  0
  191.7120  176.9460  139.5460 O   0  0  0  0  0  1  0  0  0  0  0  0
  191.0070  177.1700  140.7220 C   0  0  0  0  0  0  0  0  0  0  0  0
  191.7030  177.3250  141.9240 C   0  0  0  0  0  3  0  0  0  0  0  0
  189.6050  177.2400  140.7060 C   0  0  0  0  0  0  0  0  0  0  0  0
  188.9010  177.0740  139.4700 N   0  0  0  0  0  2  0  0  0  0  0  0
  188.0920  178.1180  138.8540 C   0  0  0  0  0  2  0  0  0  0  0  0
  188.8940  178.8310  137.7820 C   0  0  0  0  0  1  0  0  0  0  0  0
  189.7860  178.0430  145.5530 C   0  0  0  0  0  2  0  0  0  0  0  0
  189.4210  177.1270  146.7110 C   0  0  2  0  0  3  0  0  0  0  0  0
  188.5910  177.9070  147.7130 C   0  0  0  0  0  1  0  0  0  0  0  0
  191.7930  176.8530  146.5830 O   0  0  0  0  0  1  0  0  0  0  0  0
  190.6810  176.6060  147.3870 C   0  0  0  0  0  2  0  0  0  0  0  0
  2  1  1  0  0  0  0
  3  2  1  6  0  0  0
  3  5  1  0  0  0  0
  4  6  1  6  0  0  0
  4  3  1  0  0  0  0
  4  5  1  0  0  0  0
  7  8  1  1  0  0  0
  7  6  1  0  0  0  0
  9 13  1  6  0  0  0
  9  7  1  0  0  0  0
 10 11  2  0  0  0  0
 11  9  1  0  0  0  0
 12 11  1  0  0  0  0
 14 13  1  0  0  0  0
 14 16  1  0  0  0  0
 16 15  1  0  0  0  0
 17  1  1  1  0  0  0
 17 28  1  0  0  0  0
 18 19  1  0  0  0  0
 18 17  1  0  0  0  0
 20 18  2  0  0  0  0
 21 22  1  0  0  0  0
 22 23  1  0  0  0  0
 23 19  2  0  0  0  0
 24 22  2  0  0  0  0
 24 20  1  0  0  0  0
 25 24  1  0  0  0  0
 26 25  1  0  0  0  0
 27 26  1  0  0  0  0
 28 29  1  0  0  0  0
 29 32  1  0  0  0  0
 29 30  1  1  0  0  0
 31 32  1  0  0  0  0
M  END
>  <MODEL>
8

>  <REMARK>
 VINA RESULT:      -6.7      2.221      6.168
  Name = 
  16 active torsions:
  status: ('A' for Active; 'I' for Inactive)
    1  A    between atoms: N_1  and  C_4
    2  A    between atoms: N_1  and  C_5
    3  A    between atoms: C_2  and  C_14
    4  A    between atoms: C_3  and  C_15
    5  A    between atoms: C_3  and  C_20
    6  A    between atoms: C_3  and  C_22
    7  A    between atoms: C_5  and  C_14
    8  A    between atoms: C_9  and  N_28
    9  A    between atoms: C_13  and  C_29
   10  A    between atoms: C_13  and  C_30
   11  A    between atoms: C_14  and  C_30
   12  A    between atoms: C_15  and  C_26
   13  A    between atoms: C_16  and  C_20
   14  A    between atoms: C_16  and  C_24
   15  A    between atoms: C_19  and  C_26
   16  A    between atoms: N_28  and  C_32
                            x       y       z     vdW  Elec       q    Type
                         _______ _______ _______ _____ _____    ______ ____

>  <TORSDO>
F 16

$$$$
=
 OpenBabel10262421213D

 32 33  0  0  1  0  0  0  0  0999 V2000
  188.7890  177.7130  142.9620 C   0  0  0  0  0  2  0  0  0  0  0  0
  189.2490  176.5340  142.2470 N   0  0  0  0  0  2  0  0  0  0  0  0
  190.7050  176.5440  142.2980 C   0  0  1  0  0  3  0  0  0  0  0  0
  191.3480  176.7130  140.9160 C   0  0  2  0  0  3  0  0  0  0  0  0
  191.2150  177.8980  141.8500 C   0  0  0  0  0  2  0  0  0  0  0  0
  190.3470  176.8500  139.7720 C   0  0  0  0  0  2  0  0  0  0  0  0
  190.7490  175.9730  138.5960 C   0  0  2  0  0  3  0  0  0  0  0  0
  192.0120  176.5130  137.9330 C   0  0  0  0  0  1  0  0  0  0  0  0
  189.5770  175.8250  137.6170 C   0  0  1  0  0  3  0  0  0  0  0  0
  190.2740  173.4270  137.3150 O   0  0  0  0  0  1  0  0  0  0  0  0
  189.3330  174.4300  137.1160 C   0  0  0  0  0  0  0  0  0  0  0  0
  188.2660  174.1690  136.5030 O   0  0  0  0  0  0  0  0  0  0  0  0
  188.3040  176.5540  138.0490 C   0  0  0  0  0  2  0  0  0  0  0  0
  187.6730  177.3660  136.9230 C   0  0  0  0  0  2  0  0  0  0  0  0
  189.0410  179.3790  137.4430 C   0  0  0  0  0  1  0  0  0  0  0  0
  188.6690  178.3710  136.3740 C   0  0  0  0  0  2  0  0  0  0  0  0
  188.3800  177.3400  144.3840 C   0  0  2  0  0  3  0  0  0  0  0  0
  186.9840  177.7990  144.6780 C   0  0  0  0  0  0  0  0  0  0  0  0
  186.5170  177.9110  145.9970 C   0  0  0  0  0  3  0  0  0  0  0  0
  186.1420  178.1490  143.6180 C   0  0  0  0  0  3  0  0  0  0  0  0
  183.0880  179.1480  145.4490 O   0  0  0  0  0  1  0  0  0  0  0  0
  184.3770  178.7030  145.1850 C   0  0  0  0  0  0  0  0  0  0  0  0
  185.2180  178.3600  146.2470 C   0  0  0  0  0  3  0  0  0  0  0  0
  184.8350  178.5990  143.8610 C   0  0  0  0  0  0  0  0  0  0  0  0
  183.9660  178.9580  142.7810 N   0  0  0  0  0  2  0  0  0  0  0  0
  184.2370  178.6390  141.3850 C   0  0  0  0  0  2  0  0  0  0  0  0
  183.0920  177.8320  140.8060 C   0  0  0  0  0  1  0  0  0  0  0  0
  189.3580  177.9140  145.4040 C   0  0  0  0  0  2  0  0  0  0  0  0
  189.9800  176.8130  146.2500 C   0  0  2  0  0  3  0  0  0  0  0  0
  189.6840  177.0890  147.7110 C   0  0  0  0  0  1  0  0  0  0  0  0
  192.0780  175.9000  146.9460 O   0  0  0  0  0  1  0  0  0  0  0  0
  191.4860  176.7710  146.0330 C   0  0  0  0  0  2  0  0  0  0  0  0
  2  1  1  0  0  0  0
  3  2  1  6  0  0  0
  4  6  1  6  0  0  0
  4  5  1  0  0  0  0
  4  3  1  0  0  0  0
  5  3  1  0  0  0  0
  7  8  1  6  0  0  0
  7  6  1  0  0  0  0
  9 13  1  1  0  0  0
  9  7  1  0  0  0  0
 11 10  1  0  0  0  0
 11  9  1  0  0  0  0
 12 11  2  0  0  0  0
 14 13  1  0  0  0  0
 16 14  1  0  0  0  0
 16 15  1  0  0  0  0
 17  1  1  6  0  0  0
 17 18  1  0  0  0  0
 17 28  1  0  0  0  0
 18 19  1  0  0  0  0
 19 23  2  0  0  0  0
 20 24  1  0  0  0  0
 20 18  2  0  0  0  0
 22 21  1  0  0  0  0
 22 23  1  0  0  0  0
 24 22  2  0  0  0  0
 25 24  1  0  0  0  0
 26 25  1  0  0  0  0
 27 26  1  0  0  0  0
 28 29  1  0  0  0  0
 29 30  1  1  0  0  0
 32 29  1  0  0  0  0
 32 31  1  0  0  0  0
M  END
>  <MODEL>
9

>  <REMARK>
 VINA RESULT:      -6.7      1.552      2.354
  Name = 
  16 active torsions:
  status: ('A' for Active; 'I' for Inactive)
    1  A    between atoms: N_1  and  C_4
    2  A    between atoms: N_1  and  C_5
    3  A    between atoms: C_2  and  C_14
    4  A    between atoms: C_3  and  C_15
    5  A    between atoms: C_3  and  C_20
    6  A    between atoms: C_3  and  C_22
    7  A    between atoms: C_5  and  C_14
    8  A    between atoms: C_9  and  N_28
    9  A    between atoms: C_13  and  C_29
   10  A    between atoms: C_13  and  C_30
   11  A    between atoms: C_14  and  C_30
   12  A    between atoms: C_15  and  C_26
   13  A    between atoms: C_16  and  C_20
   14  A    between atoms: C_16  and  C_24
   15  A    between atoms: C_19  and  C_26
   16  A    between atoms: N_28  and  C_32
                            x       y       z     vdW  Elec       q    Type
                         _______ _______ _______ _____ _____    ______ ____

>  <TORSDO>
F 16

$$$$
