=
 OpenBabel10262422473D

 37 42  0  0  1  0  0  0  0  0999 V2000
  186.2720  178.5160  137.7970 C   0  0  0  0  0  2  0  0  0  0  0  0
  184.9430  179.3040  142.3780 C   0  0  1  0  0  3  0  0  0  0  0  0
  187.1520  177.8220  136.7300 C   0  0  1  0  0  0  0  0  0  0  0  0
  187.9480  177.8470  141.1650 O   0  0  0  0  0  0  0  0  0  0  0  0
  182.5890  178.3080  142.1120 C   0  0  1  0  0  3  0  0  0  0  0  0
  185.9340  178.5060  141.5650 C   0  0  2  0  0  3  0  0  0  0  0  0
  188.6480  178.1340  136.8100 C   0  0  2  0  0  3  0  0  0  0  0  0
  183.6480  179.2470  141.5210 C   0  0  2  0  0  3  0  0  0  0  0  0
  187.2790  178.8470  141.7360 O   0  0  0  0  0  0  0  0  0  0  0  0
  182.2460  178.6730  143.5610 C   0  0  0  0  0  2  0  0  0  0  0  0
  187.4520  176.3900  137.1490 C   0  0  0  0  0  2  0  0  0  0  0  0
  184.0800  178.7550  140.1300 C   0  0  2  0  0  3  0  0  0  0  0  0
  183.4430  179.1750  144.3780 C   0  0  0  0  0  2  0  0  0  0  0  0
  188.8460  176.8270  137.5820 C   0  0  2  0  0  3  0  0  0  0  0  0
  187.9010  178.0220  139.7530 C   0  0  1  0  0  3  0  0  0  0  0  0
  184.7710  178.7170  143.7880 C   0  0  2  0  0  3  0  0  0  0  0  0
  185.5900  178.8530  140.1600 C   0  0  2  0  0  3  0  0  0  0  0  0
  181.4270  178.3430  141.3420 O   0  0  0  0  0  1  0  0  0  0  0  0
  188.8380  176.9650  139.1220 C   0  0  0  0  0  2  0  0  0  0  0  0
  189.0580  179.4400  137.4920 C   0  0  0  0  0  1  0  0  0  0  0  0
  186.4220  177.9730  139.2350 C   0  0  1  0  0  3  0  0  0  0  0  0
  185.4520  177.0860  135.3980 C   0  0  0  0  0  1  0  0  0  0  0  0
  186.6230  177.8610  135.4240 O   0  0  0  0  0  0  0  0  0  0  0  0
  185.8990  179.1760  144.6950 C   0  0  0  0  0  2  0  0  0  0  0  0
  185.9600  178.2950  145.9310 C   0  0  0  0  0  2  0  0  0  0  0  0
  187.8640  177.5020  147.2050 C   0  0  0  0  0  3  0  0  0  0  0  0
  187.8580  177.0800  144.7580 C   0  0  0  0  0  3  0  0  0  0  0  0
  189.1600  176.9880  144.4610 C   0  0  0  0  0  3  0  0  0  0  0  0
  191.4430  177.8640  144.7030 O   0  0  0  0  0  1  0  0  0  0  0  0
  190.2680  177.3310  146.6520 C   0  0  0  0  0  3  0  0  0  0  0  0
  190.2880  177.4020  145.3200 C   0  0  0  0  0  0  0  0  0  0  0  0
  187.2800  177.6140  146.0100 C   0  0  0  0  0  0  0  0  0  0  0  0
  189.1350  176.7520  147.4320 C   0  0  0  0  0  2  0  0  0  0  0  0
  183.4510  179.5830  139.0030 C   0  0  0  0  0  2  0  0  0  0  0  0
  181.5450  179.4370  137.3900 O   0  0  0  0  0  1  0  0  0  0  0  0
  182.5420  178.7940  138.1120 C   0  0  0  0  0  0  0  0  0  0  0  0
  182.6890  177.4820  138.0060 C   0  0  0  0  0  2  0  0  0  0  0  0
  1 21  1  0  0  0  0
  2 16  1  0  0  0  0
  3  7  1  0  0  0  0
  3 11  1  0  0  0  0
  3  1  1  0  0  0  0
  4  9  1  0  0  0  0
  5 10  1  0  0  0  0
  6  9  1  0  0  0  0
  6  2  1  0  0  0  0
  7 20  1  0  0  0  0
  7 14  1  0  0  0  0
  8  5  1  0  0  0  0
  8  2  1  0  0  0  0
 10 13  1  0  0  0  0
 11 14  1  0  0  0  0
 12 17  1  0  0  0  0
 12  8  1  0  0  0  0
 14 19  1  0  0  0  0
 15  4  1  0  0  0  0
 16 13  1  0  0  0  0
 16 24  1  0  0  0  0
 17  6  1  0  0  0  0
 18  5  1  0  0  0  0
 19 15  1  0  0  0  0
 21 15  1  0  0  0  0
 21 17  1  0  0  0  0
 22 23  1  0  0  0  0
 23  3  1  0  0  0  0
 24 25  1  0  0  0  0
 25 32  1  0  0  0  0
 26 33  1  0  0  0  0
 27 32  1  0  0  0  0
 28 27  2  0  0  0  0
 28 31  1  0  0  0  0
 29 31  1  0  0  0  0
 30 33  1  0  0  0  0
 31 30  2  0  0  0  0
 32 26  2  0  0  0  0
 34 12  1  0  0  0  0
 35 36  1  0  0  0  0
 36 34  1  0  0  0  0
 37 36  2  0  0  0  0
M  END
>  <MODEL>
1

>  <REMARK>
 VINA RESULT:      -9.2      0.000      0.000
  Name = 
  6 active torsions:
  status: ('A' for Active; 'I' for Inactive)
    1  A    between atoms: C_5  and  O_23
    2  A    between atoms: C_20  and  C_25
    3  A    between atoms: C_21  and  C_25
    4  A    between atoms: C_22  and  C_28
    5  A    between atoms: C_22  and  C_37
    6  A    between atoms: C_31  and  C_37
                            x       y       z     vdW  Elec       q    Type
                         _______ _______ _______ _____ _____    ______ ____

>  <TORSDO>
F 6

$$$$
=
 OpenBabel10262422473D

 37 42  0  0  1  0  0  0  0  0999 V2000
  189.3510  177.3680  144.9290 C   0  0  0  0  0  2  0  0  0  0  0  0
  185.1210  177.7720  142.6250 C   0  0  1  0  0  3  0  0  0  0  0  0
  190.8810  177.5820  145.0240 C   0  0  1  0  0  0  0  0  0  0  0  0
  188.4030  178.0370  141.2890 O   0  0  0  0  0  0  0  0  0  0  0  0
  184.0750  179.3760  144.3380 C   0  0  1  0  0  3  0  0  0  0  0  0
  186.5860  178.0910  142.4500 C   0  0  2  0  0  3  0  0  0  0  0  0
  191.7120  176.8490  143.9680 C   0  0  2  0  0  3  0  0  0  0  0  0
  184.8640  178.0780  144.1260 C   0  0  2  0  0  3  0  0  0  0  0  0
  187.2470  177.3920  141.4350 O   0  0  0  0  0  0  0  0  0  0  0  0
  182.7500  179.3720  143.5670 C   0  0  0  0  0  2  0  0  0  0  0  0
  191.2680  178.9040  144.3780 C   0  0  0  0  0  2  0  0  0  0  0  0
  186.2510  178.1840  144.7820 C   0  0  2  0  0  3  0  0  0  0  0  0
  182.8230  178.6720  142.2050 C   0  0  0  0  0  2  0  0  0  0  0  0
  191.7510  178.1430  143.1500 C   0  0  2  0  0  3  0  0  0  0  0  0
  189.2680  177.6580  142.3540 C   0  0  1  0  0  3  0  0  0  0  0  0
  184.2480  178.6050  141.6720 C   0  0  2  0  0  3  0  0  0  0  0  0
  187.1950  177.6410  143.7310 C   0  0  2  0  0  3  0  0  0  0  0  0
  183.8160  179.5690  145.6960 O   0  0  0  0  0  1  0  0  0  0  0  0
  190.6600  178.2650  142.0610 C   0  0  0  0  0  2  0  0  0  0  0  0
  191.0920  175.6100  143.3220 C   0  0  0  0  0  1  0  0  0  0  0  0
  188.6570  178.0660  143.7390 C   0  0  1  0  0  3  0  0  0  0  0  0
  190.7940  176.4030  146.9760 C   0  0  0  0  0  1  0  0  0  0  0  0
  191.4010  177.4930  146.3320 O   0  0  0  0  0  0  0  0  0  0  0  0
  184.2290  177.9800  140.2880 C   0  0  0  0  0  2  0  0  0  0  0  0
  184.8960  178.9110  139.2900 C   0  0  0  0  0  2  0  0  0  0  0  0
  184.6030  177.4630  137.3680 C   0  0  0  0  0  3  0  0  0  0  0  0
  186.9160  178.1570  137.9480 C   0  0  0  0  0  3  0  0  0  0  0  0
  187.6660  177.1660  137.4490 C   0  0  0  0  0  3  0  0  0  0  0  0
  188.0410  174.7570  137.1460 O   0  0  0  0  0  1  0  0  0  0  0  0
  185.9910  175.6360  136.4480 C   0  0  0  0  0  3  0  0  0  0  0  0
  187.1870  175.8410  137.0030 C   0  0  0  0  0  0  0  0  0  0  0  0
  185.4520  178.1300  138.1540 C   0  0  0  0  0  0  0  0  0  0  0  0
  185.0240  176.7300  136.1380 C   0  0  0  0  0  2  0  0  0  0  0  0
  186.3240  177.4130  146.1060 C   0  0  0  0  0  2  0  0  0  0  0  0
  185.9800  179.4420  147.5280 O   0  0  0  0  0  1  0  0  0  0  0  0
  186.6830  178.2700  147.2810 C   0  0  0  0  0  0  0  0  0  0  0  0
  187.6660  177.9090  148.0910 C   0  0  0  0  0  2  0  0  0  0  0  0
  1  3  1  0  0  0  0
  2  8  1  0  0  0  0
  3 23  1  0  0  0  0
  4  9  1  0  0  0  0
  4 15  1  0  0  0  0
  5 18  1  0  0  0  0
  6  2  1  0  0  0  0
  6 17  1  0  0  0  0
  7  3  1  0  0  0  0
  8  5  1  0  0  0  0
  8 12  1  0  0  0  0
  9  6  1  0  0  0  0
 10  5  1  0  0  0  0
 11  3  1  0  0  0  0
 12 34  1  0  0  0  0
 13 10  1  0  0  0  0
 14  7  1  0  0  0  0
 14 11  1  0  0  0  0
 15 21  1  0  0  0  0
 16 13  1  0  0  0  0
 16  2  1  0  0  0  0
 17 21  1  0  0  0  0
 17 12  1  0  0  0  0
 19 15  1  0  0  0  0
 19 14  1  0  0  0  0
 20  7  1  0  0  0  0
 21  1  1  0  0  0  0
 23 22  1  0  0  0  0
 24 16  1  0  0  0  0
 25 24  1  0  0  0  0
 26 32  2  0  0  0  0
 27 32  1  0  0  0  0
 28 27  2  0  0  0  0
 30 31  2  0  0  0  0
 31 29  1  0  0  0  0
 31 28  1  0  0  0  0
 32 25  1  0  0  0  0
 33 30  1  0  0  0  0
 33 26  1  0  0  0  0
 34 36  1  0  0  0  0
 36 35  1  0  0  0  0
 36 37  2  0  0  0  0
M  END
>  <MODEL>
2

>  <REMARK>
 VINA RESULT:      -9.1      2.043      7.382
  Name = 
  6 active torsions:
  status: ('A' for Active; 'I' for Inactive)
    1  A    between atoms: C_5  and  O_23
    2  A    between atoms: C_20  and  C_25
    3  A    between atoms: C_21  and  C_25
    4  A    between atoms: C_22  and  C_28
    5  A    between atoms: C_22  and  C_37
    6  A    between atoms: C_31  and  C_37
                            x       y       z     vdW  Elec       q    Type
                         _______ _______ _______ _____ _____    ______ ____

>  <TORSDO>
F 6

$$$$
=
 OpenBabel10262422473D

 37 42  0  0  1  0  0  0  0  0999 V2000
  189.4180  177.2090  145.0170 C   0  0  0  0  0  2  0  0  0  0  0  0
  185.2540  177.8320  142.6410 C   0  0  1  0  0  3  0  0  0  0  0  0
  190.9450  177.4060  145.1720 C   0  0  1  0  0  0  0  0  0  0  0  0
  188.5720  178.1930  141.4230 O   0  0  0  0  0  0  0  0  0  0  0  0
  184.1650  179.2880  144.4560 C   0  0  1  0  0  3  0  0  0  0  0  0
  186.7250  178.1570  142.5350 C   0  0  2  0  0  3  0  0  0  0  0  0
  191.8030  176.7630  144.0790 C   0  0  2  0  0  3  0  0  0  0  0  0
  184.9570  178.0090  144.1550 C   0  0  2  0  0  3  0  0  0  0  0  0
  187.4110  177.5440  141.4820 O   0  0  0  0  0  0  0  0  0  0  0  0
  182.8620  179.3570  143.6520 C   0  0  0  0  0  2  0  0  0  0  0  0
  191.3530  178.7760  144.6520 C   0  0  0  0  0  2  0  0  0  0  0  0
  186.3250  178.0510  144.8550 C   0  0  2  0  0  3  0  0  0  0  0  0
  182.9710  178.7760  142.2370 C   0  0  0  0  0  2  0  0  0  0  0  0
  191.8680  178.1210  143.3770 C   0  0  2  0  0  3  0  0  0  0  0  0
  189.4060  177.7200  142.4740 C   0  0  1  0  0  3  0  0  0  0  0  0
  184.4110  178.7480  141.7390 C   0  0  2  0  0  3  0  0  0  0  0  0
  187.2960  177.5950  143.7880 C   0  0  2  0  0  3  0  0  0  0  0  0
  183.8700  179.3650  145.8180 O   0  0  0  0  0  1  0  0  0  0  0  0
  190.8080  178.3420  142.2730 C   0  0  0  0  0  2  0  0  0  0  0  0
  191.1970  175.5860  143.3120 C   0  0  0  0  0  1  0  0  0  0  0  0
  188.7590  178.0100  143.8730 C   0  0  1  0  0  3  0  0  0  0  0  0
  192.0180  175.9290  146.5410 C   0  0  0  0  0  1  0  0  0  0  0  0
  191.4290  177.2020  146.4810 O   0  0  0  0  0  0  0  0  0  0  0  0
  184.4280  178.2450  140.3070 C   0  0  0  0  0  2  0  0  0  0  0  0
  184.2540  179.4090  139.3470 C   0  0  0  0  0  2  0  0  0  0  0  0
  182.7080  178.1580  137.9600 C   0  0  0  0  0  3  0  0  0  0  0  0
  182.0140  180.4220  138.7070 C   0  0  0  0  0  3  0  0  0  0  0  0
  181.1490  180.8040  137.7590 C   0  0  0  0  0  3  0  0  0  0  0  0
  180.5790  180.9830  135.3760 O   0  0  0  0  0  1  0  0  0  0  0  0
  181.1090  178.8660  136.2130 C   0  0  0  0  0  3  0  0  0  0  0  0
  180.9600  180.1730  136.4370 C   0  0  0  0  0  0  0  0  0  0  0  0
  182.9590  179.2880  138.6260 C   0  0  0  0  0  0  0  0  0  0  0  0
  181.4070  177.8720  137.2850 C   0  0  0  0  0  2  0  0  0  0  0  0
  186.3590  177.1690  146.1090 C   0  0  0  0  0  2  0  0  0  0  0  0
  187.8690  177.1310  148.1030 O   0  0  0  0  0  1  0  0  0  0  0  0
  186.9850  177.8350  147.2960 C   0  0  0  0  0  0  0  0  0  0  0  0
  186.7010  179.0980  147.5760 C   0  0  0  0  0  2  0  0  0  0  0  0
  1  3  1  0  0  0  0
  2  8  1  0  0  0  0
  3 23  1  0  0  0  0
  4  9  1  0  0  0  0
  4 15  1  0  0  0  0
  5 18  1  0  0  0  0
  6  2  1  0  0  0  0
  6 17  1  0  0  0  0
  7  3  1  0  0  0  0
  8  5  1  0  0  0  0
  8 12  1  0  0  0  0
  9  6  1  0  0  0  0
 10  5  1  0  0  0  0
 11  3  1  0  0  0  0
 12 34  1  0  0  0  0
 13 10  1  0  0  0  0
 14  7  1  0  0  0  0
 14 11  1  0  0  0  0
 15 21  1  0  0  0  0
 16 13  1  0  0  0  0
 16  2  1  0  0  0  0
 17 21  1  0  0  0  0
 17 12  1  0  0  0  0
 19 15  1  0  0  0  0
 19 14  1  0  0  0  0
 20  7  1  0  0  0  0
 21  1  1  0  0  0  0
 23 22  1  0  0  0  0
 24 16  1  0  0  0  0
 25 24  1  0  0  0  0
 26 32  2  0  0  0  0
 28 27  2  0  0  0  0
 29 31  1  0  0  0  0
 30 31  2  0  0  0  0
 30 33  1  0  0  0  0
 31 28  1  0  0  0  0
 32 27  1  0  0  0  0
 32 25  1  0  0  0  0
 33 26  1  0  0  0  0
 34 36  1  0  0  0  0
 36 37  2  0  0  0  0
 36 35  1  0  0  0  0
M  END
>  <MODEL>
3

>  <REMARK>
 VINA RESULT:      -8.9      2.707      8.246
  Name = 
  6 active torsions:
  status: ('A' for Active; 'I' for Inactive)
    1  A    between atoms: C_5  and  O_23
    2  A    between atoms: C_20  and  C_25
    3  A    between atoms: C_21  and  C_25
    4  A    between atoms: C_22  and  C_28
    5  A    between atoms: C_22  and  C_37
    6  A    between atoms: C_31  and  C_37
                            x       y       z     vdW  Elec       q    Type
                         _______ _______ _______ _____ _____    ______ ____

>  <TORSDO>
F 6

$$$$
=
 OpenBabel10262422473D

 37 42  0  0  1  0  0  0  0  0999 V2000
  189.5980  177.2610  145.0030 C   0  0  0  0  0  2  0  0  0  0  0  0
  185.3290  177.8310  142.8070 C   0  0  1  0  0  3  0  0  0  0  0  0
  191.1280  177.4710  145.0890 C   0  0  1  0  0  0  0  0  0  0  0  0
  188.5880  178.2090  141.4420 O   0  0  0  0  0  0  0  0  0  0  0  0
  184.3090  179.2940  144.6570 C   0  0  1  0  0  3  0  0  0  0  0  0
  186.7910  178.1670  142.6340 C   0  0  2  0  0  3  0  0  0  0  0  0
  191.9430  176.8250  143.9650 C   0  0  2  0  0  3  0  0  0  0  0  0
  185.0970  178.0190  144.3310 C   0  0  2  0  0  3  0  0  0  0  0  0
  187.4350  177.5510  141.5560 O   0  0  0  0  0  0  0  0  0  0  0  0
  182.9710  179.3460  143.9100 C   0  0  0  0  0  2  0  0  0  0  0  0
  191.5020  178.8400  144.5410 C   0  0  0  0  0  2  0  0  0  0  0  0
  186.4940  178.0770  144.9710 C   0  0  2  0  0  3  0  0  0  0  0  0
  183.0230  178.7540  142.4960 C   0  0  0  0  0  2  0  0  0  0  0  0
  191.9660  178.1780  143.2500 C   0  0  2  0  0  3  0  0  0  0  0  0
  189.4710  177.7500  142.4590 C   0  0  1  0  0  3  0  0  0  0  0  0
  184.4390  178.7330  141.9360 C   0  0  2  0  0  3  0  0  0  0  0  0
  187.4210  177.6200  143.8650 C   0  0  2  0  0  3  0  0  0  0  0  0
  184.0730  179.3800  146.0290 O   0  0  0  0  0  1  0  0  0  0  0  0
  190.8570  178.3820  142.1910 C   0  0  0  0  0  2  0  0  0  0  0  0
  191.3140  175.6380  143.2350 C   0  0  0  0  0  1  0  0  0  0  0  0
  188.8830  178.0480  143.8820 C   0  0  1  0  0  3  0  0  0  0  0  0
  191.2500  176.0300  146.8540 C   0  0  0  0  0  1  0  0  0  0  0  0
  191.6710  177.2820  146.3770 O   0  0  0  0  0  0  0  0  0  0  0  0
  184.3980  178.2180  140.5080 C   0  0  0  0  0  2  0  0  0  0  0  0
  184.3100  179.3850  139.5400 C   0  0  0  0  0  2  0  0  0  0  0  0
  182.1560  180.1780  138.7590 C   0  0  0  0  0  3  0  0  0  0  0  0
  183.0460  178.0860  137.7600 C   0  0  0  0  0  3  0  0  0  0  0  0
  181.9390  177.4400  137.3700 C   0  0  0  0  0  3  0  0  0  0  0  0
  179.6490  176.6990  137.8630 O   0  0  0  0  0  1  0  0  0  0  0  0
  180.1170  178.9820  138.0370 C   0  0  0  0  0  3  0  0  0  0  0  0
  180.5530  177.7490  137.7760 C   0  0  0  0  0  0  0  0  0  0  0  0
  183.1070  179.2440  138.6770 C   0  0  0  0  0  0  0  0  0  0  0  0
  180.9540  180.2070  137.8750 C   0  0  0  0  0  2  0  0  0  0  0  0
  186.5910  177.2060  146.2290 C   0  0  0  0  0  2  0  0  0  0  0  0
  186.5710  179.1840  147.7590 O   0  0  0  0  0  1  0  0  0  0  0  0
  187.0960  177.9410  147.4320 C   0  0  0  0  0  0  0  0  0  0  0  0
  188.0400  177.4060  148.1900 C   0  0  0  0  0  2  0  0  0  0  0  0
  1  3  1  0  0  0  0
  2  8  1  0  0  0  0
  3 23  1  0  0  0  0
  4  9  1  0  0  0  0
  4 15  1  0  0  0  0
  5 18  1  0  0  0  0
  6  2  1  0  0  0  0
  6 17  1  0  0  0  0
  7  3  1  0  0  0  0
  8  5  1  0  0  0  0
  8 12  1  0  0  0  0
  9  6  1  0  0  0  0
 10  5  1  0  0  0  0
 11  3  1  0  0  0  0
 12 34  1  0  0  0  0
 13 10  1  0  0  0  0
 14  7  1  0  0  0  0
 14 11  1  0  0  0  0
 15 21  1  0  0  0  0
 16 13  1  0  0  0  0
 16  2  1  0  0  0  0
 17 21  1  0  0  0  0
 17 12  1  0  0  0  0
 19 15  1  0  0  0  0
 19 14  1  0  0  0  0
 20  7  1  0  0  0  0
 21  1  1  0  0  0  0
 23 22  1  0  0  0  0
 24 16  1  0  0  0  0
 25 24  1  0  0  0  0
 27 32  1  0  0  0  0
 28 27  2  0  0  0  0
 28 31  1  0  0  0  0
 31 29  1  0  0  0  0
 31 30  2  0  0  0  0
 32 26  2  0  0  0  0
 32 25  1  0  0  0  0
 33 30  1  0  0  0  0
 33 26  1  0  0  0  0
 34 36  1  0  0  0  0
 36 35  1  0  0  0  0
 36 37  2  0  0  0  0
M  END
>  <MODEL>
4

>  <REMARK>
 VINA RESULT:      -8.7      2.668      8.095
  Name = 
  6 active torsions:
  status: ('A' for Active; 'I' for Inactive)
    1  A    between atoms: C_5  and  O_23
    2  A    between atoms: C_20  and  C_25
    3  A    between atoms: C_21  and  C_25
    4  A    between atoms: C_22  and  C_28
    5  A    between atoms: C_22  and  C_37
    6  A    between atoms: C_31  and  C_37
                            x       y       z     vdW  Elec       q    Type
                         _______ _______ _______ _____ _____    ______ ____

>  <TORSDO>
F 6

$$$$
=
 OpenBabel10262422473D

 37 42  0  0  1  0  0  0  0  0999 V2000
  189.6020  177.1510  145.0140 C   0  0  0  0  0  2  0  0  0  0  0  0
  185.3360  177.8340  142.8440 C   0  0  1  0  0  3  0  0  0  0  0  0
  191.1370  177.3270  145.0950 C   0  0  1  0  0  0  0  0  0  0  0  0
  188.5960  178.1550  141.4670 O   0  0  0  0  0  0  0  0  0  0  0  0
  184.3560  179.3000  144.7130 C   0  0  1  0  0  3  0  0  0  0  0  0
  186.8040  178.1400  142.6670 C   0  0  2  0  0  3  0  0  0  0  0  0
  191.9330  176.6750  143.9610 C   0  0  2  0  0  3  0  0  0  0  0  0
  185.1150  178.0110  144.3710 C   0  0  2  0  0  3  0  0  0  0  0  0
  187.4300  177.5200  141.5810 O   0  0  0  0  0  0  0  0  0  0  0  0
  183.0170  179.3880  143.9730 C   0  0  0  0  0  2  0  0  0  0  0  0
  191.5380  178.6930  144.5580 C   0  0  0  0  0  2  0  0  0  0  0  0
  186.5160  178.0340  145.0050 C   0  0  2  0  0  3  0  0  0  0  0  0
  183.0490  178.8090  142.5530 C   0  0  0  0  0  2  0  0  0  0  0  0
  191.9810  178.0340  143.2590 C   0  0  2  0  0  3  0  0  0  0  0  0
  189.4740  177.6670  142.4760 C   0  0  1  0  0  3  0  0  0  0  0  0
  184.4620  178.7630  141.9860 C   0  0  2  0  0  3  0  0  0  0  0  0
  187.4280  177.5670  143.8910 C   0  0  2  0  0  3  0  0  0  0  0  0
  184.1280  179.3780  146.0870 O   0  0  0  0  0  1  0  0  0  0  0  0
  190.8720  178.2720  142.2080 C   0  0  0  0  0  2  0  0  0  0  0  0
  191.2750  175.5080  143.2220 C   0  0  0  0  0  1  0  0  0  0  0  0
  188.8990  177.9630  143.9040 C   0  0  1  0  0  3  0  0  0  0  0  0
  192.0600  175.7660  146.4790 C   0  0  0  0  0  1  0  0  0  0  0  0
  191.6810  177.1130  146.3780 O   0  0  0  0  0  0  0  0  0  0  0  0
  184.4040  178.2630  140.5540 C   0  0  0  0  0  2  0  0  0  0  0  0
  182.9940  178.4170  140.0090 C   0  0  0  0  0  2  0  0  0  0  0  0
  182.3670  176.1810  139.3090 C   0  0  0  0  0  3  0  0  0  0  0  0
  182.9090  177.8350  137.5370 C   0  0  0  0  0  3  0  0  0  0  0  0
  183.3140  177.0680  136.5180 C   0  0  0  0  0  3  0  0  0  0  0  0
  184.6530  175.1730  135.7100 O   0  0  0  0  0  1  0  0  0  0  0  0
  183.1160  174.7690  137.4240 C   0  0  0  0  0  3  0  0  0  0  0  0
  183.6820  175.6390  136.5860 C   0  0  0  0  0  0  0  0  0  0  0  0
  182.7450  177.4090  138.9440 C   0  0  0  0  0  0  0  0  0  0  0  0
  181.9870  175.1150  138.3370 C   0  0  0  0  0  2  0  0  0  0  0  0
  186.6000  177.1480  146.2540 C   0  0  0  0  0  2  0  0  0  0  0  0
  186.7380  179.1130  147.7960 O   0  0  0  0  0  1  0  0  0  0  0  0
  187.1800  177.8440  147.4460 C   0  0  0  0  0  0  0  0  0  0  0  0
  188.1130  177.2500  148.1740 C   0  0  0  0  0  2  0  0  0  0  0  0
  1  3  1  0  0  0  0
  2  8  1  0  0  0  0
  3 23  1  0  0  0  0
  4  9  1  0  0  0  0
  4 15  1  0  0  0  0
  5 18  1  0  0  0  0
  6  2  1  0  0  0  0
  6 17  1  0  0  0  0
  7  3  1  0  0  0  0
  8  5  1  0  0  0  0
  8 12  1  0  0  0  0
  9  6  1  0  0  0  0
 10  5  1  0  0  0  0
 11  3  1  0  0  0  0
 12 34  1  0  0  0  0
 13 10  1  0  0  0  0
 14  7  1  0  0  0  0
 14 11  1  0  0  0  0
 15 21  1  0  0  0  0
 16 13  1  0  0  0  0
 16  2  1  0  0  0  0
 17 21  1  0  0  0  0
 17 12  1  0  0  0  0
 19 15  1  0  0  0  0
 19 14  1  0  0  0  0
 20  7  1  0  0  0  0
 21  1  1  0  0  0  0
 23 22  1  0  0  0  0
 24 16  1  0  0  0  0
 25 24  1  0  0  0  0
 27 32  1  0  0  0  0
 28 31  1  0  0  0  0
 28 27  2  0  0  0  0
 29 31  1  0  0  0  0
 30 33  1  0  0  0  0
 31 30  2  0  0  0  0
 32 26  2  0  0  0  0
 32 25  1  0  0  0  0
 33 26  1  0  0  0  0
 34 36  1  0  0  0  0
 36 35  1  0  0  0  0
 36 37  2  0  0  0  0
M  END
>  <MODEL>
5

>  <REMARK>
 VINA RESULT:      -8.6      2.656      7.817
  Name = 
  6 active torsions:
  status: ('A' for Active; 'I' for Inactive)
    1  A    between atoms: C_5  and  O_23
    2  A    between atoms: C_20  and  C_25
    3  A    between atoms: C_21  and  C_25
    4  A    between atoms: C_22  and  C_28
    5  A    between atoms: C_22  and  C_37
    6  A    between atoms: C_31  and  C_37
                            x       y       z     vdW  Elec       q    Type
                         _______ _______ _______ _____ _____    ______ ____

>  <TORSDO>
F 6

$$$$
=
 OpenBabel10262422473D

 37 42  0  0  1  0  0  0  0  0999 V2000
  182.7050  179.3170  141.1820 C   0  0  0  0  0  2  0  0  0  0  0  0
  187.4390  178.6220  141.8740 C   0  0  1  0  0  3  0  0  0  0  0  0
  181.3870  179.0710  140.4110 C   0  0  1  0  0  0  0  0  0  0  0  0
  185.5110  177.9820  138.9590 O   0  0  0  0  0  0  0  0  0  0  0  0
  187.1710  177.4240  144.1310 C   0  0  1  0  0  3  0  0  0  0  0  0
  186.3190  178.2220  140.9440 C   0  0  2  0  0  3  0  0  0  0  0  0
  181.3790  179.5520  138.9570 C   0  0  2  0  0  3  0  0  0  0  0  0
  186.7600  178.6260  143.2710 C   0  0  2  0  0  3  0  0  0  0  0  0
  186.4230  178.6840  139.6280 O   0  0  0  0  0  0  0  0  0  0  0  0
  188.6930  177.3250  144.2850 C   0  0  0  0  0  2  0  0  0  0  0  0
  181.3310  177.6350  139.9110 C   0  0  0  0  0  2  0  0  0  0  0  0
  185.2460  178.6000  143.0090 C   0  0  2  0  0  3  0  0  0  0  0  0
  189.4750  177.7410  143.0330 C   0  0  0  0  0  2  0  0  0  0  0  0
  181.7070  178.1220  138.5180 C   0  0  2  0  0  3  0  0  0  0  0  0
  184.2270  178.5310  139.2360 C   0  0  1  0  0  3  0  0  0  0  0  0
  188.6260  177.6500  141.7720 C   0  0  2  0  0  3  0  0  0  0  0  0
  185.1260  178.8930  141.5280 C   0  0  2  0  0  3  0  0  0  0  0  0
  186.5860  177.5100  145.3950 O   0  0  0  0  0  1  0  0  0  0  0  0
  183.2100  177.8280  138.3060 C   0  0  0  0  0  2  0  0  0  0  0  0
  182.3600  180.6620  138.5790 C   0  0  0  0  0  1  0  0  0  0  0  0
  183.8940  178.4250  140.7640 C   0  0  1  0  0  3  0  0  0  0  0  0
  179.7060  178.2180  141.6960 C   0  0  0  0  0  1  0  0  0  0  0  0
  180.2200  179.3960  141.1320 O   0  0  0  0  0  0  0  0  0  0  0  0
  189.4890  177.9910  140.5700 C   0  0  0  0  0  2  0  0  0  0  0  0
  189.7010  176.7530  139.7170 C   0  0  0  0  0  2  0  0  0  0  0  0
  189.2790  178.2580  137.8630 C   0  0  0  0  0  3  0  0  0  0  0  0
  188.7930  175.8470  137.5240 C   0  0  0  0  0  3  0  0  0  0  0  0
  187.8500  175.8570  136.5730 C   0  0  0  0  0  3  0  0  0  0  0  0
  185.7670  176.8070  135.6830 O   0  0  0  0  0  1  0  0  0  0  0  0
  187.5380  178.2720  136.1080 C   0  0  0  0  0  3  0  0  0  0  0  0
  187.0630  177.0250  136.1290 C   0  0  0  0  0  0  0  0  0  0  0  0
  189.2430  177.0060  138.3250 C   0  0  0  0  0  0  0  0  0  0  0  0
  188.9450  178.6270  136.4560 C   0  0  0  0  0  2  0  0  0  0  0  0
  184.4910  179.6130  143.8790 C   0  0  0  0  0  2  0  0  0  0  0  0
  183.8060  178.7840  146.1370 O   0  0  0  0  0  1  0  0  0  0  0  0
  183.4900  178.9860  144.8000 C   0  0  0  0  0  0  0  0  0  0  0  0
  182.3000  178.6280  144.3440 C   0  0  0  0  0  2  0  0  0  0  0  0
  2  8  1  0  0  0  0
  3 23  1  0  0  0  0
  3  1  1  0  0  0  0
  4 15  1  0  0  0  0
  4  9  1  0  0  0  0
  5 10  1  0  0  0  0
  5 18  1  0  0  0  0
  6 17  1  0  0  0  0
  6  2  1  0  0  0  0
  7  3  1  0  0  0  0
  8  5  1  0  0  0  0
  9  6  1  0  0  0  0
 11  3  1  0  0  0  0
 12  8  1  0  0  0  0
 12 34  1  0  0  0  0
 13 10  1  0  0  0  0
 14  7  1  0  0  0  0
 14 11  1  0  0  0  0
 15 21  1  0  0  0  0
 16  2  1  0  0  0  0
 16 13  1  0  0  0  0
 17 12  1  0  0  0  0
 19 14  1  0  0  0  0
 19 15  1  0  0  0  0
 20  7  1  0  0  0  0
 21  1  1  0  0  0  0
 21 17  1  0  0  0  0
 23 22  1  0  0  0  0
 24 16  1  0  0  0  0
 25 24  1  0  0  0  0
 26 32  2  0  0  0  0
 27 32  1  0  0  0  0
 28 27  2  0  0  0  0
 29 31  1  0  0  0  0
 30 31  2  0  0  0  0
 30 33  1  0  0  0  0
 31 28  1  0  0  0  0
 32 25  1  0  0  0  0
 33 26  1  0  0  0  0
 34 36  1  0  0  0  0
 36 35  1  0  0  0  0
 37 36  2  0  0  0  0
M  END
>  <MODEL>
6

>  <REMARK>
 VINA RESULT:      -8.1      1.877      6.809
  Name = 
  6 active torsions:
  status: ('A' for Active; 'I' for Inactive)
    1  A    between atoms: C_5  and  O_23
    2  A    between atoms: C_20  and  C_25
    3  A    between atoms: C_21  and  C_25
    4  A    between atoms: C_22  and  C_28
    5  A    between atoms: C_22  and  C_37
    6  A    between atoms: C_31  and  C_37
                            x       y       z     vdW  Elec       q    Type
                         _______ _______ _______ _____ _____    ______ ____

>  <TORSDO>
F 6

$$$$
=
 OpenBabel10262422473D

 37 42  0  0  1  0  0  0  0  0999 V2000
  182.7560  179.3730  141.1930 C   0  0  0  0  0  2  0  0  0  0  0  0
  187.5070  178.5500  141.5260 C   0  0  1  0  0  3  0  0  0  0  0  0
  181.3770  179.1660  140.5210 C   0  0  1  0  0  0  0  0  0  0  0  0
  185.3510  177.9760  138.7620 O   0  0  0  0  0  0  0  0  0  0  0  0
  187.3770  177.3480  143.7940 C   0  0  1  0  0  3  0  0  0  0  0  0
  186.3100  178.1850  140.6820 C   0  0  2  0  0  3  0  0  0  0  0  0
  181.2730  179.6540  139.0730 C   0  0  2  0  0  3  0  0  0  0  0  0
  186.9350  178.5640  142.9710 C   0  0  2  0  0  3  0  0  0  0  0  0
  186.3290  178.6510  139.3630 O   0  0  0  0  0  0  0  0  0  0  0  0
  188.9030  177.2080  143.8330 C   0  0  0  0  0  2  0  0  0  0  0  0
  181.2460  177.7350  140.0230 C   0  0  0  0  0  2  0  0  0  0  0  0
  185.4050  178.5800  142.8220 C   0  0  2  0  0  3  0  0  0  0  0  0
  189.6000  177.6100  142.5280 C   0  0  0  0  0  2  0  0  0  0  0  0
  181.5290  178.2190  138.6070 C   0  0  2  0  0  3  0  0  0  0  0  0
  184.1070  178.5570  139.1350 C   0  0  1  0  0  3  0  0  0  0  0  0
  188.6570  177.5480  141.3330 C   0  0  2  0  0  3  0  0  0  0  0  0
  185.1830  178.8840  141.3560 C   0  0  2  0  0  3  0  0  0  0  0  0
  186.8900  177.4430  145.0980 O   0  0  0  0  0  1  0  0  0  0  0  0
  183.0050  177.8870  138.2820 C   0  0  0  0  0  2  0  0  0  0  0  0
  182.2530  180.7400  138.6270 C   0  0  0  0  0  1  0  0  0  0  0  0
  183.8860  178.4520  140.6840 C   0  0  1  0  0  3  0  0  0  0  0  0
  179.7400  178.3440  141.8810 C   0  0  0  0  0  1  0  0  0  0  0  0
  180.2760  179.5180  141.3290 O   0  0  0  0  0  0  0  0  0  0  0  0
  189.4370  177.8720  140.0710 C   0  0  0  0  0  2  0  0  0  0  0  0
  190.8780  177.4190  140.2220 C   0  0  0  0  0  2  0  0  0  0  0  0
  190.4010  175.9810  138.3300 C   0  0  0  0  0  3  0  0  0  0  0  0
  192.7330  176.7890  138.6040 C   0  0  0  0  0  3  0  0  0  0  0  0
  193.4570  175.8450  137.9900 C   0  0  0  0  0  3  0  0  0  0  0  0
  193.9100  173.4630  137.5930 O   0  0  0  0  0  1  0  0  0  0  0  0
  191.7410  174.2400  137.1960 C   0  0  0  0  0  3  0  0  0  0  0  0
  192.9900  174.5030  137.5880 C   0  0  0  0  0  0  0  0  0  0  0  0
  191.3140  176.6820  139.0060 C   0  0  0  0  0  0  0  0  0  0  0  0
  190.6870  175.2850  137.0410 C   0  0  0  0  0  2  0  0  0  0  0  0
  184.7450  179.6080  143.7500 C   0  0  0  0  0  2  0  0  0  0  0  0
  184.1810  178.8400  146.0620 O   0  0  0  0  0  1  0  0  0  0  0  0
  183.7960  179.0030  144.7380 C   0  0  0  0  0  0  0  0  0  0  0  0
  182.5850  178.6280  144.3540 C   0  0  0  0  0  2  0  0  0  0  0  0
  2  8  1  0  0  0  0
  3  1  1  0  0  0  0
  3 23  1  0  0  0  0
  4 15  1  0  0  0  0
  4  9  1  0  0  0  0
  5 10  1  0  0  0  0
  5 18  1  0  0  0  0
  6 17  1  0  0  0  0
  6  2  1  0  0  0  0
  7  3  1  0  0  0  0
  8  5  1  0  0  0  0
  9  6  1  0  0  0  0
 11  3  1  0  0  0  0
 12  8  1  0  0  0  0
 12 34  1  0  0  0  0
 13 10  1  0  0  0  0
 14  7  1  0  0  0  0
 14 11  1  0  0  0  0
 15 21  1  0  0  0  0
 16  2  1  0  0  0  0
 16 13  1  0  0  0  0
 17 12  1  0  0  0  0
 19 14  1  0  0  0  0
 19 15  1  0  0  0  0
 20  7  1  0  0  0  0
 21  1  1  0  0  0  0
 21 17  1  0  0  0  0
 23 22  1  0  0  0  0
 24 25  1  0  0  0  0
 24 16  1  0  0  0  0
 26 32  2  0  0  0  0
 27 32  1  0  0  0  0
 28 27  2  0  0  0  0
 30 31  2  0  0  0  0
 31 29  1  0  0  0  0
 31 28  1  0  0  0  0
 32 25  1  0  0  0  0
 33 30  1  0  0  0  0
 33 26  1  0  0  0  0
 34 36  1  0  0  0  0
 36 35  1  0  0  0  0
 37 36  2  0  0  0  0
M  END
>  <MODEL>
7

>  <REMARK>
 VINA RESULT:      -8.1      2.748      6.717
  Name = 
  6 active torsions:
  status: ('A' for Active; 'I' for Inactive)
    1  A    between atoms: C_5  and  O_23
    2  A    between atoms: C_20  and  C_25
    3  A    between atoms: C_21  and  C_25
    4  A    between atoms: C_22  and  C_28
    5  A    between atoms: C_22  and  C_37
    6  A    between atoms: C_31  and  C_37
                            x       y       z     vdW  Elec       q    Type
                         _______ _______ _______ _____ _____    ______ ____

>  <TORSDO>
F 6

$$$$
=
 OpenBabel10262422473D

 37 42  0  0  1  0  0  0  0  0999 V2000
  189.3880  176.7560  140.0330 C   0  0  0  0  0  2  0  0  0  0  0  0
  186.6030  177.3050  143.9460 C   0  0  1  0  0  3  0  0  0  0  0  0
  189.8490  177.1720  138.6160 C   0  0  1  0  0  0  0  0  0  0  0  0
  186.1170  178.6210  140.6820 O   0  0  0  0  0  0  0  0  0  0  0  0
  188.5370  177.9120  145.5260 C   0  0  1  0  0  3  0  0  0  0  0  0
  186.8430  177.9100  142.5840 C   0  0  2  0  0  3  0  0  0  0  0  0
  188.7840  177.0610  137.5210 C   0  0  2  0  0  3  0  0  0  0  0  0
  188.0340  176.9530  144.4390 C   0  0  2  0  0  3  0  0  0  0  0  0
  185.7940  177.7840  141.6670 O   0  0  0  0  0  0  0  0  0  0  0  0
  187.5730  177.9850  146.7150 C   0  0  0  0  0  2  0  0  0  0  0  0
  189.8060  178.6860  138.4720 C   0  0  0  0  0  2  0  0  0  0  0  0
  188.9410  177.0280  143.2000 C   0  0  2  0  0  3  0  0  0  0  0  0
  186.0930  177.8940  146.3250 C   0  0  0  0  0  2  0  0  0  0  0  0
  188.5070  178.5570  137.6870 C   0  0  2  0  0  3  0  0  0  0  0  0
  187.1220  178.0090  139.8820 C   0  0  1  0  0  3  0  0  0  0  0  0
  185.8600  178.2830  144.8710 C   0  0  2  0  0  3  0  0  0  0  0  0
  187.9710  177.1050  142.0410 C   0  0  2  0  0  3  0  0  0  0  0  0
  189.7960  177.5140  145.9770 O   0  0  0  0  0  1  0  0  0  0  0  0
  187.3420  178.9080  138.6430 C   0  0  0  0  0  2  0  0  0  0  0  0
  187.6300  176.0860  137.7600 C   0  0  0  0  0  1  0  0  0  0  0  0
  188.4150  177.7350  140.7270 C   0  0  1  0  0  3  0  0  0  0  0  0
  192.0270  176.9750  139.2640 C   0  0  0  0  0  1  0  0  0  0  0  0
  191.1130  176.6690  138.2440 O   0  0  0  0  0  0  0  0  0  0  0  0
  184.3690  178.2540  144.5850 C   0  0  0  0  0  2  0  0  0  0  0  0
  183.9930  179.4100  143.6750 C   0  0  0  0  0  2  0  0  0  0  0  0
  182.7950  178.7280  141.6810 C   0  0  0  0  0  3  0  0  0  0  0  0
  181.4600  179.2240  143.7150 C   0  0  0  0  0  3  0  0  0  0  0  0
  180.2690  179.5810  143.2180 C   0  0  0  0  0  3  0  0  0  0  0  0
  178.9710  180.8630  141.5730 O   0  0  0  0  0  1  0  0  0  0  0  0
  180.5940  179.3860  140.7680 C   0  0  0  0  0  3  0  0  0  0  0  0
  179.9720  179.9320  141.8140 C   0  0  0  0  0  0  0  0  0  0  0  0
  182.7260  179.1070  142.9590 C   0  0  0  0  0  0  0  0  0  0  0  0
  181.6080  178.2970  140.8850 C   0  0  0  0  0  2  0  0  0  0  0  0
  189.8890  175.8270  143.1050 C   0  0  0  0  0  2  0  0  0  0  0  0
  192.0700  175.2600  144.1900 O   0  0  0  0  0  1  0  0  0  0  0  0
  191.3100  176.1540  143.4470 C   0  0  0  0  0  0  0  0  0  0  0  0
  191.8480  177.2920  143.0380 C   0  0  0  0  0  2  0  0  0  0  0  0
  1 21  1  0  0  0  0
  2  8  1  0  0  0  0
  2 16  1  0  0  0  0
  3  1  1  0  0  0  0
  4  9  1  0  0  0  0
  5 18  1  0  0  0  0
  5 10  1  0  0  0  0
  6  2  1  0  0  0  0
  7 14  1  0  0  0  0
  7 20  1  0  0  0  0
  7  3  1  0  0  0  0
  8  5  1  0  0  0  0
  9  6  1  0  0  0  0
 11  3  1  0  0  0  0
 12  8  1  0  0  0  0
 13 10  1  0  0  0  0
 14 11  1  0  0  0  0
 14 19  1  0  0  0  0
 15  4  1  0  0  0  0
 15 21  1  0  0  0  0
 16 13  1  0  0  0  0
 17  6  1  0  0  0  0
 17 12  1  0  0  0  0
 19 15  1  0  0  0  0
 21 17  1  0  0  0  0
 23  3  1  0  0  0  0
 23 22  1  0  0  0  0
 24 16  1  0  0  0  0
 25 24  1  0  0  0  0
 26 32  2  0  0  0  0
 28 27  2  0  0  0  0
 29 31  1  0  0  0  0
 30 33  1  0  0  0  0
 30 31  2  0  0  0  0
 31 28  1  0  0  0  0
 32 25  1  0  0  0  0
 32 27  1  0  0  0  0
 33 26  1  0  0  0  0
 34 12  1  0  0  0  0
 34 36  1  0  0  0  0
 36 35  1  0  0  0  0
 37 36  2  0  0  0  0
M  END
>  <MODEL>
8

>  <REMARK>
 VINA RESULT:      -7.8      2.079      6.766
  Name = 
  6 active torsions:
  status: ('A' for Active; 'I' for Inactive)
    1  A    between atoms: C_5  and  O_23
    2  A    between atoms: C_20  and  C_25
    3  A    between atoms: C_21  and  C_25
    4  A    between atoms: C_22  and  C_28
    5  A    between atoms: C_22  and  C_37
    6  A    between atoms: C_31  and  C_37
                            x       y       z     vdW  Elec       q    Type
                         _______ _______ _______ _____ _____    ______ ____

>  <TORSDO>
F 6

$$$$
=
 OpenBabel10262422473D

 37 42  0  0  1  0  0  0  0  0999 V2000
  182.6820  177.2940  137.2930 C   0  0  0  0  0  2  0  0  0  0  0  0
  187.4270  177.4120  138.2090 C   0  0  1  0  0  3  0  0  0  0  0  0
  181.2800  177.9490  137.2610 C   0  0  1  0  0  0  0  0  0  0  0  0
  184.8890  179.5960  139.3970 O   0  0  0  0  0  0  0  0  0  0  0  0
  188.1450  177.1550  135.7550 C   0  0  1  0  0  3  0  0  0  0  0  0
  186.1940  178.2790  138.2960 C   0  0  2  0  0  3  0  0  0  0  0  0
  180.7170  178.3590  138.6240 C   0  0  2  0  0  3  0  0  0  0  0  0
  187.2300  176.6420  136.8740 C   0  0  2  0  0  3  0  0  0  0  0  0
  185.7820  178.6250  139.5870 O   0  0  0  0  0  0  0  0  0  0  0  0
  189.6210  177.1280  136.1660 C   0  0  0  0  0  2  0  0  0  0  0  0
  181.3970  179.4210  136.8940 C   0  0  0  0  0  2  0  0  0  0  0  0
  185.7540  176.8330  136.4870 C   0  0  2  0  0  3  0  0  0  0  0  0
  189.8650  177.4660  137.6410 C   0  0  0  0  0  2  0  0  0  0  0  0
  181.2050  179.7850  138.3600 C   0  0  2  0  0  3  0  0  0  0  0  0
  183.6650  179.0060  138.9750 C   0  0  1  0  0  3  0  0  0  0  0  0
  188.7110  178.2570  138.2450 C   0  0  2  0  0  3  0  0  0  0  0  0
  185.1220  177.4160  137.7320 C   0  0  2  0  0  3  0  0  0  0  0  0
  187.9740  176.3900  134.6010 O   0  0  0  0  0  1  0  0  0  0  0  0
  182.5960  180.1230  138.9470 C   0  0  0  0  0  2  0  0  0  0  0  0
  181.2580  177.6310  139.8550 C   0  0  0  0  0  1  0  0  0  0  0  0
  183.8520  178.2490  137.6140 C   0  0  1  0  0  3  0  0  0  0  0  0
  180.5240  175.9110  136.5700 C   0  0  0  0  0  1  0  0  0  0  0  0
  180.3510  177.2960  136.4250 O   0  0  0  0  0  0  0  0  0  0  0  0
  189.0620  178.6280  139.6750 C   0  0  0  0  0  2  0  0  0  0  0  0
  189.9690  177.5700  140.2780 C   0  0  0  0  0  2  0  0  0  0  0  0
  188.2200  177.5180  141.9560 C   0  0  0  0  0  3  0  0  0  0  0  0
  190.3470  176.3460  142.4720 C   0  0  0  0  0  3  0  0  0  0  0  0
  190.3880  176.3620  143.8100 C   0  0  0  0  0  3  0  0  0  0  0  0
  190.1020  177.6040  145.9110 O   0  0  0  0  0  1  0  0  0  0  0  0
  188.2980  177.5460  144.4260 C   0  0  0  0  0  3  0  0  0  0  0  0
  189.5540  177.1920  144.7030 C   0  0  0  0  0  0  0  0  0  0  0  0
  189.4580  177.1560  141.6110 C   0  0  0  0  0  0  0  0  0  0  0  0
  187.5550  177.0800  143.2180 C   0  0  0  0  0  2  0  0  0  0  0  0
  185.0980  175.5200  136.0430 C   0  0  0  0  0  2  0  0  0  0  0  0
  184.1700  174.2210  137.9690 O   0  0  0  0  0  1  0  0  0  0  0  0
  185.2000  174.4240  137.0590 C   0  0  0  0  0  0  0  0  0  0  0  0
  186.2680  173.6420  137.0890 C   0  0  0  0  0  2  0  0  0  0  0  0
  1 21  1  0  0  0  0
  2 16  1  0  0  0  0
  2  6  1  0  0  0  0
  3  1  1  0  0  0  0
  3  7  1  0  0  0  0
  4  9  1  0  0  0  0
  5 10  1  0  0  0  0
  5  8  1  0  0  0  0
  6  9  1  0  0  0  0
  7 20  1  0  0  0  0
  8  2  1  0  0  0  0
 10 13  1  0  0  0  0
 11  3  1  0  0  0  0
 11 14  1  0  0  0  0
 12  8  1  0  0  0  0
 12 17  1  0  0  0  0
 13 16  1  0  0  0  0
 14  7  1  0  0  0  0
 14 19  1  0  0  0  0
 15  4  1  0  0  0  0
 16 24  1  0  0  0  0
 17  6  1  0  0  0  0
 18  5  1  0  0  0  0
 19 15  1  0  0  0  0
 21 17  1  0  0  0  0
 21 15  1  0  0  0  0
 23 22  1  0  0  0  0
 23  3  1  0  0  0  0
 24 25  1  0  0  0  0
 25 32  1  0  0  0  0
 26 33  1  0  0  0  0
 27 28  2  0  0  0  0
 28 31  1  0  0  0  0
 30 31  2  0  0  0  0
 31 29  1  0  0  0  0
 32 26  2  0  0  0  0
 32 27  1  0  0  0  0
 33 30  1  0  0  0  0
 34 12  1  0  0  0  0
 34 36  1  0  0  0  0
 36 37  2  0  0  0  0
 36 35  1  0  0  0  0
M  END
>  <MODEL>
9

>  <REMARK>
 VINA RESULT:      -7.6      2.288      5.900
  Name = 
  6 active torsions:
  status: ('A' for Active; 'I' for Inactive)
    1  A    between atoms: C_5  and  O_23
    2  A    between atoms: C_20  and  C_25
    3  A    between atoms: C_21  and  C_25
    4  A    between atoms: C_22  and  C_28
    5  A    between atoms: C_22  and  C_37
    6  A    between atoms: C_31  and  C_37
                            x       y       z     vdW  Elec       q    Type
                         _______ _______ _______ _____ _____    ______ ____

>  <TORSDO>
F 6

$$$$
