=
 OpenBabel10262420343D

 55 60  0  0  1  0  0  0  0  0999 V2000
  186.3480  176.6550  137.9930 O   0  0  0  0  0  0  0  0  0  0  0  0
  188.8510  178.6890  138.7740 C   0  0  0  0  0  2  0  0  0  0  0  0
  192.0960  176.7350  138.3610 C   0  0  0  0  0  1  0  0  0  0  0  0
  191.5630  174.5580  136.2010 C   0  0  0  0  0  2  0  0  0  0  0  0
  191.5770  172.4150  134.7550 C   0  0  0  0  0  2  0  0  0  0  0  0
  189.4960  173.2160  135.8560 C   0  0  0  0  0  0  0  0  0  0  0  0
  190.4100  172.0420  135.6770 C   0  0  0  0  0  2  0  0  0  0  0  0
  189.7940  175.8100  138.1340 C   0  0  0  0  0  2  0  0  0  0  0  0
  192.3240  173.7000  135.1800 C   0  0  0  0  0  2  0  0  0  0  0  0
  184.4130  178.0890  137.9100 C   0  0  0  0  0  2  0  0  0  0  0  0
  190.0680  174.6140  135.8730 C   0  0  1  0  0  3  0  0  0  0  0  0
  185.4420  178.4230  140.5360 C   0  0  2  0  0  3  0  0  0  0  0  0
  187.0570  176.5980  136.7950 C   0  0  0  0  0  2  0  0  0  0  0  0
  186.4130  178.6680  139.3720 C   0  0  1  0  0  3  0  0  0  0  0  0
  187.3330  174.1190  136.4070 C   0  0  0  0  0  0  0  0  0  0  0  0
  187.8150  178.1970  139.7700 C   0  0  0  0  0  2  0  0  0  0  0  0
  188.2420  173.0320  136.1310 N   0  0  0  0  0  0  0  0  0  0  0  0
  190.2020  178.1000  139.1250 C   0  0  0  0  0  2  0  0  0  0  0  0
  190.6490  177.0820  138.0900 C   0  0  1  0  0  3  0  0  0  0  0  0
  183.7730  177.5930  139.0550 O   0  0  0  0  0  0  0  0  0  0  0  0
  185.9360  177.9900  138.0660 C   0  0  1  0  0  3  0  0  0  0  0  0
  189.2890  175.4520  136.8000 N   0  0  0  0  0  0  0  0  0  0  0  0
  187.8610  175.3440  136.6840 C   0  0  0  0  0  0  0  0  0  0  0  0
  183.9970  178.5470  140.0530 C   0  0  0  0  0  2  0  0  0  0  0  0
  185.3910  172.9700  137.4320 C   0  0  0  0  0  3  0  0  0  0  0  0
  183.0110  173.4200  136.7150 C   0  0  1  0  0  3  0  0  0  0  0  0
  184.9490  174.4690  135.5130 C   0  0  0  0  0  2  0  0  0  0  0  0
  183.6040  173.7610  135.3500 C   0  0  0  0  0  2  0  0  0  0  0  0
  183.9660  172.4960  137.4670 C   0  0  0  0  0  2  0  0  0  0  0  0
  185.8820  173.7810  136.4860 C   0  0  0  0  0  0  0  0  0  0  0  0
  182.7760  174.5810  137.4590 O   0  0  0  0  0  0  0  0  0  0  0  0
  181.7820  175.2650  136.7570 C   0  0  0  0  0  2  0  0  0  0  0  0
  180.6400  175.5920  137.6970 C   0  0  0  0  0  1  0  0  0  0  0  0
  185.6990  179.4280  141.6480 C   0  0  0  0  0  2  0  0  0  0  0  0
  183.9700  179.1190  145.8220 O   0  0  0  0  0  0  0  0  0  0  0  0
  184.7230  178.7850  144.9020 C   0  0  0  0  0  0  0  0  0  0  0  0
  186.0500  177.4110  142.9250 C   0  0  1  0  0  3  0  0  0  0  0  0
  185.5040  178.4400  143.9170 C   0  0  0  0  0  0  0  0  0  0  0  0
  186.4720  178.7690  142.7740 C   0  0  2  0  0  3  0  0  0  0  0  0
  187.1160  176.5000  143.5570 C   0  0  2  0  0  3  0  0  0  0  0  0
  187.1180  176.5560  144.9580 O   0  0  0  0  0  1  0  0  0  0  0  0
  188.5130  176.8130  143.0170 C   0  0  2  0  0  3  0  0  0  0  0  0
  189.2740  175.6460  142.8810 O   0  0  0  0  0  1  0  0  0  0  0  0
  189.2020  177.8800  143.8860 C   0  0  0  0  0  2  0  0  0  0  0  0
  191.2560  179.1420  144.1850 C   0  0  0  0  0  1  0  0  0  0  0  0
  191.4250  176.9160  143.1900 C   0  0  0  0  0  1  0  0  0  0  0  0
  190.6970  177.7350  144.2540 C   0  0  0  0  0  0  0  0  0  0  0  0
  190.9360  177.1910  145.6970 C   0  0  2  0  0  3  0  0  0  0  0  0
  191.8410  175.9400  145.7400 C   0  0  0  0  0  2  0  0  0  0  0  0
  192.2260  175.5590  147.1660 C   0  0  0  0  0  2  0  0  0  0  0  0
  192.4370  176.7070  147.9370 O   0  0  0  0  0  1  0  0  0  0  0  0
  189.7300  176.9600  146.3850 O   0  0  0  0  0  0  0  0  0  0  0  0
  189.5150  178.0590  147.2370 C   0  0  0  0  0  2  0  0  0  0  0  0
  187.1000  178.2580  147.8820 C   0  0  0  0  0  1  0  0  0  0  0  0
  188.4660  177.7540  148.2990 C   0  0  0  0  0  2  0  0  0  0  0  0
  1 21  1  0  0  0  0
  2 18  1  0  0  0  0
  2 16  1  0  0  0  0
  5  9  1  0  0  0  0
  5  7  1  0  0  0  0
  6 11  1  0  0  0  0
  6 17  2  0  0  0  0
  7  6  1  0  0  0  0
  9  4  1  0  0  0  0
 10 20  1  0  0  0  0
 11  4  1  1  0  0  0
 11 22  1  0  0  0  0
 12 34  1  1  0  0  0
 13  1  1  0  0  0  0
 14 16  1  1  0  0  0
 14 12  1  0  0  0  0
 15 30  1  0  0  0  0
 15 23  2  0  0  0  0
 17 15  1  0  0  0  0
 19  8  1  0  0  0  0
 19  3  1  1  0  0  0
 19 18  1  0  0  0  0
 20 24  1  0  0  0  0
 21 10  1  1  0  0  0
 21 14  1  0  0  0  0
 22  8  1  0  0  0  0
 23 13  1  0  0  0  0
 23 22  1  0  0  0  0
 24 12  1  0  0  0  0
 25 29  1  0  0  0  0
 26 31  1  1  0  0  0
 26 29  1  0  0  0  0
 27 30  1  0  0  0  0
 28 27  1  0  0  0  0
 28 26  1  0  0  0  0
 30 25  2  0  0  0  0
 32 31  1  0  0  0  0
 32 33  1  0  0  0  0
 36 35  2  0  0  0  0
 37 40  1  1  0  0  0
 37 38  1  0  0  0  0
 38 36  2  0  0  0  0
 39 34  1  6  0  0  0
 39 37  1  0  0  0  0
 39 38  1  0  0  0  0
 40 41  1  1  0  0  0
 42 43  1  1  0  0  0
 42 40  1  0  0  0  0
 42 44  1  0  0  0  0
 44 47  1  0  0  0  0
 45 47  1  0  0  0  0
 46 47  1  0  0  0  0
 47 48  1  0  0  0  0
 48 49  1  6  0  0  0
 48 52  1  0  0  0  0
 49 50  1  0  0  0  0
 50 51  1  0  0  0  0
 52 53  1  0  0  0  0
 53 55  1  0  0  0  0
 54 55  1  0  0  0  0
M  END
>  <MODEL>
1

>  <REMARK>
 VINA RESULT:      -7.6      0.000      0.000
  Name = 
  15 active torsions:
  status: ('A' for Active; 'I' for Inactive)
    1  A    between atoms: C_3  and  C_14
    2  A    between atoms: C_3  and  O_38
    3  A    between atoms: C_6  and  C_20
    4  A    between atoms: C_6  and  C_53
    5  A    between atoms: O_10  and  C_18
    6  A    between atoms: O_10  and  C_32
    7  A    between atoms: C_11  and  C_29
    8  A    between atoms: C_20  and  C_22
    9  A    between atoms: C_27  and  C_54
   10  A    between atoms: C_29  and  C_50
   11  A    between atoms: C_30  and  C_50
   12  A    between atoms: C_30  and  C_53
   13  A    between atoms: C_33  and  C_52
   14  A    between atoms: O_38  and  C_50
   15  A    between atoms: C_51  and  C_54
                            x       y       z     vdW  Elec       q    Type
                         _______ _______ _______ _____ _____    ______ ____

>  <TORSDO>
F 15

$$$$
=
 OpenBabel10262420343D

 55 60  0  0  1  0  0  0  0  0999 V2000
  187.4930  177.7180  143.0990 O   0  0  0  0  0  0  0  0  0  0  0  0
  185.5650  177.7700  140.3990 C   0  0  0  0  0  2  0  0  0  0  0  0
  187.8260  178.3070  137.3790 C   0  0  0  0  0  1  0  0  0  0  0  0
  190.6120  177.1390  138.1250 C   0  0  0  0  0  2  0  0  0  0  0  0
  193.1410  176.6410  138.3290 C   0  0  0  0  0  2  0  0  0  0  0  0
  191.7780  177.2410  140.3220 C   0  0  0  0  0  0  0  0  0  0  0  0
  193.0100  177.5770  139.5370 C   0  0  0  0  0  2  0  0  0  0  0  0
  188.5410  178.3440  139.7650 C   0  0  0  0  0  2  0  0  0  0  0  0
  191.8700  176.5700  137.4530 C   0  0  0  0  0  2  0  0  0  0  0  0
  186.0280  176.9890  144.8690 C   0  0  0  0  0  2  0  0  0  0  0  0
  190.5470  176.7420  139.6030 C   0  0  1  0  0  3  0  0  0  0  0  0
  184.7930  179.3270  143.8310 C   0  0  2  0  0  3  0  0  0  0  0  0
  188.0820  176.6730  142.3920 C   0  0  0  0  0  2  0  0  0  0  0  0
  185.1170  178.2080  142.8300 C   0  0  1  0  0  3  0  0  0  0  0  0
  190.5290  177.2910  142.3800 C   0  0  0  0  0  0  0  0  0  0  0  0
  185.5260  178.8260  141.4890 C   0  0  0  0  0  2  0  0  0  0  0  0
  191.7190  177.5040  141.5900 N   0  0  0  0  0  0  0  0  0  0  0  0
  186.0960  178.3870  139.1220 C   0  0  0  0  0  2  0  0  0  0  0  0
  187.4750  177.8520  138.7790 C   0  0  1  0  0  3  0  0  0  0  0  0
  185.9720  178.2050  145.5670 O   0  0  0  0  0  0  0  0  0  0  0  0
  186.2030  177.2470  143.3670 C   0  0  1  0  0  3  0  0  0  0  0  0
  189.3430  177.2320  140.2950 N   0  0  0  0  0  0  0  0  0  0  0  0
  189.3500  177.0970  141.7250 C   0  0  0  0  0  0  0  0  0  0  0  0
  184.7310  178.7640  145.2500 C   0  0  0  0  0  2  0  0  0  0  0  0
  190.2900  178.5310  144.5130 C   0  0  0  0  0  3  0  0  0  0  0  0
  190.7240  177.4630  146.7610 C   0  0  1  0  0  3  0  0  0  0  0  0
  191.1650  176.2180  144.6260 C   0  0  0  0  0  2  0  0  0  0  0  0
  191.7010  176.5560  146.0180 C   0  0  0  0  0  2  0  0  0  0  0  0
  190.5380  178.7600  145.9760 C   0  0  0  0  0  2  0  0  0  0  0  0
  190.6690  177.4240  143.8590 C   0  0  0  0  0  0  0  0  0  0  0  0
  189.4910  176.8250  146.9390 O   0  0  0  0  0  0  0  0  0  0  0  0
  188.6190  177.8360  147.3480 C   0  0  0  0  0  2  0  0  0  0  0  0
  188.1610  177.5590  148.7650 C   0  0  0  0  0  1  0  0  0  0  0  0
  183.4630  179.9720  143.4760 C   0  0  0  0  0  2  0  0  0  0  0  0
  179.2370  179.1470  144.8810 O   0  0  0  0  0  0  0  0  0  0  0  0
  180.1480  179.1690  144.0470 C   0  0  0  0  0  0  0  0  0  0  0  0
  181.7160  179.6530  141.8420 C   0  0  1  0  0  3  0  0  0  0  0  0
  181.1200  179.2090  143.1780 C   0  0  0  0  0  0  0  0  0  0  0  0
  182.5750  178.9720  142.7600 C   0  0  2  0  0  3  0  0  0  0  0  0
  181.2440  178.7740  140.6710 C   0  0  2  0  0  3  0  0  0  0  0  0
  180.8230  177.5010  141.0820 O   0  0  0  0  0  1  0  0  0  0  0  0
  182.3230  178.6470  139.5940 C   0  0  2  0  0  3  0  0  0  0  0  0
  182.8890  179.8920  139.2980 O   0  0  0  0  0  1  0  0  0  0  0  0
  181.7640  177.9320  138.3510 C   0  0  0  0  0  2  0  0  0  0  0  0
  183.0240  176.0000  139.1110 C   0  0  0  0  0  1  0  0  0  0  0  0
  183.5270  176.8800  136.8860 C   0  0  0  0  0  1  0  0  0  0  0  0
  182.3920  176.6030  137.8720 C   0  0  0  0  0  0  0  0  0  0  0  0
  181.3510  175.5820  137.3160 C   0  0  2  0  0  3  0  0  0  0  0  0
  180.6880  174.7220  138.4150 C   0  0  0  0  0  2  0  0  0  0  0  0
  179.2420  175.1330  138.6710 C   0  0  0  0  0  2  0  0  0  0  0  0
  178.9310  175.0060  140.0280 O   0  0  0  0  0  1  0  0  0  0  0  0
  181.8920  174.7700  136.3030 O   0  0  0  0  0  0  0  0  0  0  0  0
  182.0360  173.4750  136.8350 C   0  0  0  0  0  2  0  0  0  0  0  0
  183.3730  171.3530  136.8030 C   0  0  0  0  0  1  0  0  0  0  0  0
  183.2870  172.7820  136.3070 C   0  0  0  0  0  2  0  0  0  0  0  0
  1 21  1  0  0  0  0
  2 16  1  0  0  0  0
  5  7  1  0  0  0  0
  6 17  2  0  0  0  0
  7  6  1  0  0  0  0
  8 22  1  0  0  0  0
  9  4  1  0  0  0  0
  9  5  1  0  0  0  0
 10 20  1  0  0  0  0
 11  4  1  6  0  0  0
 11 22  1  0  0  0  0
 11  6  1  0  0  0  0
 12 34  1  6  0  0  0
 12 24  1  0  0  0  0
 13  1  1  0  0  0  0
 14 16  1  6  0  0  0
 14 21  1  0  0  0  0
 14 12  1  0  0  0  0
 15 30  1  0  0  0  0
 17 15  1  0  0  0  0
 18  2  1  0  0  0  0
 19  3  1  6  0  0  0
 19 18  1  0  0  0  0
 19  8  1  0  0  0  0
 21 10  1  1  0  0  0
 22 23  1  0  0  0  0
 23 15  2  0  0  0  0
 23 13  1  0  0  0  0
 24 20  1  0  0  0  0
 25 29  1  0  0  0  0
 26 31  1  6  0  0  0
 27 28  1  0  0  0  0
 28 26  1  0  0  0  0
 29 26  1  0  0  0  0
 30 25  2  0  0  0  0
 30 27  1  0  0  0  0
 31 32  1  0  0  0  0
 32 33  1  0  0  0  0
 36 35  2  0  0  0  0
 37 40  1  6  0  0  0
 37 39  1  0  0  0  0
 37 38  1  0  0  0  0
 38 36  2  0  0  0  0
 39 38  1  0  0  0  0
 39 34  1  1  0  0  0
 40 41  1  1  0  0  0
 42 43  1  6  0  0  0
 42 40  1  0  0  0  0
 44 42  1  0  0  0  0
 46 47  1  0  0  0  0
 47 44  1  0  0  0  0
 47 45  1  0  0  0  0
 48 47  1  0  0  0  0
 48 49  1  1  0  0  0
 49 50  1  0  0  0  0
 50 51  1  0  0  0  0
 52 53  1  0  0  0  0
 52 48  1  0  0  0  0
 55 54  1  0  0  0  0
 55 53  1  0  0  0  0
M  END
>  <MODEL>
2

>  <REMARK>
 VINA RESULT:      -7.3      2.339      8.841
  Name = 
  15 active torsions:
  status: ('A' for Active; 'I' for Inactive)
    1  A    between atoms: C_3  and  C_14
    2  A    between atoms: C_3  and  O_38
    3  A    between atoms: C_6  and  C_20
    4  A    between atoms: C_6  and  C_53
    5  A    between atoms: O_10  and  C_18
    6  A    between atoms: O_10  and  C_32
    7  A    between atoms: C_11  and  C_29
    8  A    between atoms: C_20  and  C_22
    9  A    between atoms: C_27  and  C_54
   10  A    between atoms: C_29  and  C_50
   11  A    between atoms: C_30  and  C_50
   12  A    between atoms: C_30  and  C_53
   13  A    between atoms: C_33  and  C_52
   14  A    between atoms: O_38  and  C_50
   15  A    between atoms: C_51  and  C_54
                            x       y       z     vdW  Elec       q    Type
                         _______ _______ _______ _____ _____    ______ ____

>  <TORSDO>
F 15

$$$$
=
 OpenBabel10262420343D

 55 60  0  0  1  0  0  0  0  0999 V2000
  187.4990  177.7290  143.0010 O   0  0  0  0  0  0  0  0  0  0  0  0
  185.5620  177.7550  140.3070 C   0  0  0  0  0  2  0  0  0  0  0  0
  187.8100  178.2840  137.2760 C   0  0  0  0  0  1  0  0  0  0  0  0
  190.6050  177.1340  138.0210 C   0  0  0  0  0  2  0  0  0  0  0  0
  193.1360  176.6500  138.2210 C   0  0  0  0  0  2  0  0  0  0  0  0
  191.7770  177.2560  140.2140 C   0  0  0  0  0  0  0  0  0  0  0  0
  193.0050  177.5930  139.4230 C   0  0  0  0  0  2  0  0  0  0  0  0
  188.5330  178.3400  139.6600 C   0  0  0  0  0  2  0  0  0  0  0  0
  191.8640  176.5670  137.3480 C   0  0  0  0  0  2  0  0  0  0  0  0
  186.0420  177.0050  144.7800 C   0  0  0  0  0  2  0  0  0  0  0  0
  190.5460  176.7460  139.5020 C   0  0  1  0  0  3  0  0  0  0  0  0
  184.7930  179.3290  143.7310 C   0  0  2  0  0  3  0  0  0  0  0  0
  188.0900  176.6820  142.2990 C   0  0  0  0  0  2  0  0  0  0  0  0
  185.1200  178.2060  142.7370 C   0  0  1  0  0  3  0  0  0  0  0  0
  190.5340  177.3120  142.2750 C   0  0  2  0  0  3  0  0  0  0  0  0
  185.5210  178.8170  141.3910 C   0  0  0  0  0  2  0  0  0  0  0  0
  191.7210  177.5260  141.4810 N   0  0  0  0  0  0  0  0  0  0  0  0
  186.0860  178.3670  139.0240 C   0  0  0  0  0  2  0  0  0  0  0  0
  187.4670  177.8360  138.6800 C   0  0  1  0  0  3  0  0  0  0  0  0
  185.9830  178.2240  145.4710 O   0  0  0  0  0  0  0  0  0  0  0  0
  186.2120  177.2540  143.2760 C   0  0  1  0  0  3  0  0  0  0  0  0
  189.3420  177.2340  140.1950 N   0  0  1  0  0  0  0  0  0  0  0  0
  189.3540  177.1080  141.6250 C   0  0  1  0  0  3  0  0  0  0  0  0
  184.7380  178.7750  145.1540 C   0  0  0  0  0  2  0  0  0  0  0  0
  190.3620  178.5900  144.3920 C   0  0  0  0  0  3  0  0  0  0  0  0
  190.7280  177.5270  146.6540 C   0  0  1  0  0  3  0  0  0  0  0  0
  191.1020  176.2330  144.5360 C   0  0  0  0  0  2  0  0  0  0  0  0
  191.6530  176.5560  145.9260 C   0  0  0  0  0  2  0  0  0  0  0  0
  190.6190  178.8230  145.8540 C   0  0  0  0  0  2  0  0  0  0  0  0
  190.6780  177.4560  143.7530 C   0  0  0  0  0  0  0  0  0  0  0  0
  189.4610  176.9640  146.8370 O   0  0  0  0  0  0  0  0  0  0  0  0
  189.0750  177.3530  148.1210 C   0  0  0  0  0  2  0  0  0  0  0  0
  187.7030  177.9920  148.0600 C   0  0  0  0  0  1  0  0  0  0  0  0
  183.4580  179.9670  143.3770 C   0  0  0  0  0  2  0  0  0  0  0  0
  179.2980  179.0420  144.9070 O   0  0  0  0  0  0  0  0  0  0  0  0
  180.1810  179.0890  144.0460 C   0  0  0  0  0  0  0  0  0  0  0  0
  181.6680  179.6240  141.7960 C   0  0  1  0  0  3  0  0  0  0  0  0
  181.1230  179.1570  143.1460 C   0  0  0  0  0  0  0  0  0  0  0  0
  182.5690  178.9540  142.6800 C   0  0  2  0  0  3  0  0  0  0  0  0
  181.1770  178.7460  140.6330 C   0  0  2  0  0  3  0  0  0  0  0  0
  180.7340  177.4840  141.0540 O   0  0  0  0  0  1  0  0  0  0  0  0
  182.2500  178.5920  139.5530 C   0  0  2  0  0  3  0  0  0  0  0  0
  182.8940  179.8100  139.3050 O   0  0  0  0  0  1  0  0  0  0  0  0
  181.6530  177.9610  138.2830 C   0  0  0  0  0  2  0  0  0  0  0  0
  180.6320  175.7790  137.9730 C   0  0  0  0  0  1  0  0  0  0  0  0
  182.8450  175.8600  139.0070 C   0  0  0  0  0  1  0  0  0  0  0  0
  181.9700  176.4900  137.9250 C   0  0  0  0  0  0  0  0  0  0  0  0
  182.5620  176.3080  136.4930 C   0  0  2  0  0  3  0  0  0  0  0  0
  183.8490  177.1280  136.2510 C   0  0  0  0  0  2  0  0  0  0  0  0
  185.0620  176.2340  136.0180 C   0  0  0  0  0  2  0  0  0  0  0  0
  184.6830  174.8880  136.0120 O   0  0  0  0  0  1  0  0  0  0  0  0
  181.6100  176.5640  135.4880 O   0  0  0  0  0  0  0  0  0  0  0  0
  181.9520  177.7900  134.8880 C   0  0  0  0  0  2  0  0  0  0  0  0
  180.8180  179.9930  135.2710 C   0  0  0  0  0  1  0  0  0  0  0  0
  180.7220  178.6400  134.5970 C   0  0  0  0  0  2  0  0  0  0  0  0
  1 21  1  0  0  0  0
  2 16  1  0  0  0  0
  5  7  1  0  0  0  0
  6 17  2  0  0  0  0
  7  6  1  0  0  0  0
  9  4  1  0  0  0  0
  9  5  1  0  0  0  0
 10 20  1  0  0  0  0
 11  4  1  6  0  0  0
 11 22  1  0  0  0  0
 11  6  1  0  0  0  0
 12 34  1  6  0  0  0
 12 24  1  0  0  0  0
 13  1  1  0  0  0  0
 14 16  1  6  0  0  0
 14 21  1  0  0  0  0
 14 12  1  0  0  0  0
 15 30  1  1  0  0  0
 17 15  1  0  0  0  0
 18  2  1  0  0  0  0
 19  3  1  6  0  0  0
 19 18  1  0  0  0  0
 19  8  1  0  0  0  0
 21 10  1  1  0  0  0
 22  8  1  1  0  0  0
 22 23  1  0  0  0  0
 23 15  1  0  0  0  0
 23 13  1  6  0  0  0
 24 20  1  0  0  0  0
 25 29  1  0  0  0  0
 26 31  1  6  0  0  0
 27 28  1  0  0  0  0
 28 26  1  0  0  0  0
 29 26  1  0  0  0  0
 30 25  2  0  0  0  0
 30 27  1  0  0  0  0
 31 32  1  0  0  0  0
 33 32  1  0  0  0  0
 36 35  2  0  0  0  0
 37 40  1  6  0  0  0
 37 39  1  0  0  0  0
 37 38  1  0  0  0  0
 38 36  2  0  0  0  0
 39 38  1  0  0  0  0
 39 34  1  1  0  0  0
 40 41  1  1  0  0  0
 42 43  1  6  0  0  0
 42 40  1  0  0  0  0
 44 42  1  0  0  0  0
 47 45  1  0  0  0  0
 47 44  1  0  0  0  0
 47 46  1  0  0  0  0
 48 49  1  6  0  0  0
 48 47  1  0  0  0  0
 50 49  1  0  0  0  0
 51 50  1  0  0  0  0
 52 48  1  0  0  0  0
 53 52  1  0  0  0  0
 55 53  1  0  0  0  0
 55 54  1  0  0  0  0
M  END
>  <MODEL>
3

>  <REMARK>
 VINA RESULT:      -7.1      2.369      8.848
  Name = 
  15 active torsions:
  status: ('A' for Active; 'I' for Inactive)
    1  A    between atoms: C_3  and  C_14
    2  A    between atoms: C_3  and  O_38
    3  A    between atoms: C_6  and  C_20
    4  A    between atoms: C_6  and  C_53
    5  A    between atoms: O_10  and  C_18
    6  A    between atoms: O_10  and  C_32
    7  A    between atoms: C_11  and  C_29
    8  A    between atoms: C_20  and  C_22
    9  A    between atoms: C_27  and  C_54
   10  A    between atoms: C_29  and  C_50
   11  A    between atoms: C_30  and  C_50
   12  A    between atoms: C_30  and  C_53
   13  A    between atoms: C_33  and  C_52
   14  A    between atoms: O_38  and  C_50
   15  A    between atoms: C_51  and  C_54
                            x       y       z     vdW  Elec       q    Type
                         _______ _______ _______ _____ _____    ______ ____

>  <TORSDO>
F 15

$$$$
=
 OpenBabel10262420343D

 55 60  0  0  1  0  0  0  0  0999 V2000
  183.5370  174.9210  137.0070 O   0  0  0  0  0  0  0  0  0  0  0  0
  184.2310  178.0810  137.7460 C   0  0  0  0  0  2  0  0  0  0  0  0
  188.0230  178.4380  137.8350 C   0  0  0  0  0  1  0  0  0  0  0  0
  189.1730  176.2790  135.9120 C   0  0  0  0  0  2  0  0  0  0  0  0
  190.6410  174.5060  134.7360 C   0  0  0  0  0  2  0  0  0  0  0  0
  188.3600  173.9530  135.5580 C   0  0  0  0  0  0  0  0  0  0  0  0
  189.8040  173.5510  135.5960 C   0  0  0  0  0  2  0  0  0  0  0  0
  186.7620  176.3110  137.5300 C   0  0  0  0  0  2  0  0  0  0  0  0
  190.4240  176.0000  135.0660 C   0  0  0  0  0  2  0  0  0  0  0  0
  181.1620  174.9080  136.5950 C   0  0  0  0  0  2  0  0  0  0  0  0
  187.9930  175.4140  135.4580 C   0  0  1  0  0  3  0  0  0  0  0  0
  181.4270  175.9110  139.2390 C   0  0  2  0  0  3  0  0  0  0  0  0
  184.2990  175.2440  135.8870 C   0  0  0  0  0  2  0  0  0  0  0  0
  182.2170  176.6340  138.1390 C   0  0  1  0  0  3  0  0  0  0  0  0
  186.0300  173.4080  135.8180 C   0  0  2  0  0  3  0  0  0  0  0  0
  183.5570  177.1140  138.7040 C   0  0  0  0  0  2  0  0  0  0  0  0
  187.4310  173.0690  135.7490 N   0  0  0  0  0  0  0  0  0  0  0  0
  185.6060  178.4330  138.2740 C   0  0  0  0  0  2  0  0  0  0  0  0
  186.7020  177.8380  137.4070 C   0  0  1  0  0  3  0  0  0  0  0  0
  180.7870  174.1810  137.7350 O   0  0  0  0  0  0  0  0  0  0  0  0
  182.4140  175.7470  136.8880 C   0  0  1  0  0  3  0  0  0  0  0  0
  186.7520  175.6620  136.2110 N   0  0  1  0  0  0  0  0  0  0  0  0
  185.6930  174.7170  135.9920 C   0  0  1  0  0  3  0  0  0  0  0  0
  180.2690  175.1240  138.6280 C   0  0  0  0  0  2  0  0  0  0  0  0
  184.1820  172.0880  136.8110 C   0  0  0  0  0  3  0  0  0  0  0  0
  183.0390  170.2050  135.5730 C   0  0  1  0  0  3  0  0  0  0  0  0
  185.0290  171.3820  134.5950 C   0  0  0  0  0  2  0  0  0  0  0  0
  184.3670  170.0260  134.8440 C   0  0  0  0  0  2  0  0  0  0  0  0
  183.2850  170.8870  136.9180 C   0  0  0  0  0  2  0  0  0  0  0  0
  185.0600  172.2730  135.8170 C   0  0  0  0  0  0  0  0  0  0  0  0
  182.1480  170.9610  134.8040 O   0  0  0  0  0  0  0  0  0  0  0  0
  180.9220  170.8530  135.4630 C   0  0  0  0  0  2  0  0  0  0  0  0
  179.9400  171.8360  134.8600 C   0  0  0  0  0  1  0  0  0  0  0  0
  180.8900  176.9200  140.2420 C   0  0  0  0  0  2  0  0  0  0  0  0
  179.6930  181.0930  141.5310 O   0  0  0  0  0  0  0  0  0  0  0  0
  180.4750  180.1430  141.4240 C   0  0  0  0  0  0  0  0  0  0  0  0
  182.2060  178.0640  141.9100 C   0  0  1  0  0  3  0  0  0  0  0  0
  181.2830  179.1260  141.3110 C   0  0  0  0  0  0  0  0  0  0  0  0
  181.9300  177.9910  140.5090 C   0  0  2  0  0  3  0  0  0  0  0  0
  183.6020  178.6210  142.2350 C   0  0  2  0  0  3  0  0  0  0  0  0
  184.6370  177.8660  141.6640 O   0  0  0  0  0  1  0  0  0  0  0  0
  183.8180  178.7490  143.7440 C   0  0  2  0  0  3  0  0  0  0  0  0
  182.8540  179.5810  144.3230 O   0  0  0  0  0  1  0  0  0  0  0  0
  185.2580  179.1990  144.0480 C   0  0  0  0  0  2  0  0  0  0  0  0
  185.3350  177.2080  145.4360 C   0  0  0  0  0  1  0  0  0  0  0  0
  185.9870  179.3300  146.4580 C   0  0  0  0  0  1  0  0  0  0  0  0
  186.0660  178.5100  145.1720 C   0  0  0  0  0  0  0  0  0  0  0  0
  187.5340  178.1650  144.7690 C   0  0  2  0  0  3  0  0  0  0  0  0
  187.6840  176.7630  144.1370 C   0  0  0  0  0  2  0  0  0  0  0  0
  188.2980  176.8260  142.7420 C   0  0  0  0  0  2  0  0  0  0  0  0
  187.9320  178.0140  142.1010 O   0  0  0  0  0  1  0  0  0  0  0  0
  188.4310  178.3300  145.8400 O   0  0  0  0  0  0  0  0  0  0  0  0
  188.8300  177.0460  146.2550 C   0  0  0  0  0  2  0  0  0  0  0  0
  188.9030  178.2320  148.4640 C   0  0  0  0  0  1  0  0  0  0  0  0
  188.7580  176.8940  147.7700 C   0  0  0  0  0  2  0  0  0  0  0  0
  2 18  1  0  0  0  0
  2 16  1  0  0  0  0
  5  9  1  0  0  0  0
  5  7  1  0  0  0  0
  6  7  1  0  0  0  0
  6 17  2  0  0  0  0
  9  4  1  0  0  0  0
 10 20  1  0  0  0  0
 11  6  1  0  0  0  0
 11  4  1  1  0  0  0
 11 22  1  0  0  0  0
 12 34  1  1  0  0  0
 13  1  1  0  0  0  0
 14 16  1  1  0  0  0
 14 12  1  0  0  0  0
 15 30  1  1  0  0  0
 15 23  1  0  0  0  0
 17 15  1  0  0  0  0
 19  8  1  0  0  0  0
 19  3  1  1  0  0  0
 19 18  1  0  0  0  0
 20 24  1  0  0  0  0
 21 10  1  1  0  0  0
 21  1  1  0  0  0  0
 21 14  1  0  0  0  0
 22  8  1  1  0  0  0
 23 13  1  6  0  0  0
 23 22  1  0  0  0  0
 24 12  1  0  0  0  0
 25 29  1  0  0  0  0
 26 31  1  6  0  0  0
 26 29  1  0  0  0  0
 27 28  1  0  0  0  0
 27 30  1  0  0  0  0
 28 26  1  0  0  0  0
 30 25  2  0  0  0  0
 31 32  1  0  0  0  0
 33 32  1  0  0  0  0
 36 35  2  0  0  0  0
 37 40  1  6  0  0  0
 38 36  2  0  0  0  0
 38 37  1  0  0  0  0
 39 34  1  1  0  0  0
 39 38  1  0  0  0  0
 39 37  1  0  0  0  0
 40 41  1  1  0  0  0
 40 42  1  0  0  0  0
 42 44  1  0  0  0  0
 42 43  1  6  0  0  0
 44 47  1  0  0  0  0
 47 45  1  0  0  0  0
 47 46  1  0  0  0  0
 48 49  1  1  0  0  0
 48 47  1  0  0  0  0
 48 52  1  0  0  0  0
 50 49  1  0  0  0  0
 51 50  1  0  0  0  0
 52 53  1  0  0  0  0
 53 55  1  0  0  0  0
 55 54  1  0  0  0  0
M  END
>  <MODEL>
4

>  <REMARK>
 VINA RESULT:      -7.0      2.168      4.243
  Name = 
  15 active torsions:
  status: ('A' for Active; 'I' for Inactive)
    1  A    between atoms: C_3  and  C_14
    2  A    between atoms: C_3  and  O_38
    3  A    between atoms: C_6  and  C_20
    4  A    between atoms: C_6  and  C_53
    5  A    between atoms: O_10  and  C_18
    6  A    between atoms: O_10  and  C_32
    7  A    between atoms: C_11  and  C_29
    8  A    between atoms: C_20  and  C_22
    9  A    between atoms: C_27  and  C_54
   10  A    between atoms: C_29  and  C_50
   11  A    between atoms: C_30  and  C_50
   12  A    between atoms: C_30  and  C_53
   13  A    between atoms: C_33  and  C_52
   14  A    between atoms: O_38  and  C_50
   15  A    between atoms: C_51  and  C_54
                            x       y       z     vdW  Elec       q    Type
                         _______ _______ _______ _____ _____    ______ ____

>  <TORSDO>
F 15

$$$$
=
 OpenBabel10262420343D

 55 60  0  0  1  0  0  0  0  0999 V2000
  183.9790  178.0480  138.6970 O   0  0  0  0  0  0  0  0  0  0  0  0
  186.1420  177.8000  141.2020 C   0  0  0  0  0  2  0  0  0  0  0  0
  184.5740  179.4660  144.2490 C   0  0  0  0  0  1  0  0  0  0  0  0
  181.4890  179.2240  143.9150 C   0  0  0  0  0  2  0  0  0  0  0  0
  178.9310  179.5910  143.9820 C   0  0  0  0  0  2  0  0  0  0  0  0
  180.1540  179.4240  141.8230 C   0  0  0  0  0  0  0  0  0  0  0  0
  179.2050  180.2590  142.6300 C   0  0  0  0  0  2  0  0  0  0  0  0
  183.6160  179.4280  141.9490 C   0  0  0  0  0  2  0  0  0  0  0  0
  180.2090  179.2100  144.7630 C   0  0  0  0  0  2  0  0  0  0  0  0
  184.8960  176.6390  136.9700 C   0  0  0  0  0  2  0  0  0  0  0  0
  181.2370  178.6370  142.5220 C   0  0  1  0  0  3  0  0  0  0  0  0
  186.9410  178.5340  137.5120 C   0  0  2  0  0  3  0  0  0  0  0  0
  183.1770  177.3680  139.6100 C   0  0  0  0  0  2  0  0  0  0  0  0
  186.4000  177.7350  138.7050 C   0  0  1  0  0  3  0  0  0  0  0  0
  181.0840  178.7750  139.6990 C   0  0  0  0  0  0  0  0  0  0  0  0
  186.3840  178.6260  139.9510 C   0  0  0  0  0  2  0  0  0  0  0  0
  180.1360  179.4810  140.5280 N   0  0  0  0  0  0  0  0  0  0  0  0
  186.0030  178.7230  142.3940 C   0  0  0  0  0  2  0  0  0  0  0  0
  184.5800  178.7380  142.9220 C   0  0  1  0  0  3  0  0  0  0  0  0
  185.2550  177.6600  136.0770 O   0  0  0  0  0  0  0  0  0  0  0  0
  185.0030  177.1360  138.4180 C   0  0  1  0  0  3  0  0  0  0  0  0
  182.4380  178.5930  141.6720 N   0  0  0  0  0  0  0  0  0  0  0  0
  182.2090  178.2810  140.2890 C   0  0  0  0  0  0  0  0  0  0  0  0
  186.6400  177.8010  136.2050 C   0  0  0  0  0  2  0  0  0  0  0  0
  179.8930  177.9380  137.6940 C   0  0  0  0  0  3  0  0  0  0  0  0
  180.1670  178.9890  135.4130 C   0  0  1  0  0  3  0  0  0  0  0  0
  181.5410  179.7550  137.3690 C   0  0  0  0  0  2  0  0  0  0  0  0
  181.5630  179.3850  135.8850 C   0  0  0  0  0  2  0  0  0  0  0  0
  179.6830  177.7830  136.2140 C   0  0  0  0  0  2  0  0  0  0  0  0
  180.8110  178.7510  138.2330 C   0  0  0  0  0  0  0  0  0  0  0  0
  179.2730  180.0550  135.5560 O   0  0  0  0  0  0  0  0  0  0  0  0
  179.7010  181.0120  134.6350 C   0  0  0  0  0  2  0  0  0  0  0  0
  179.6940  182.3770  135.2900 C   0  0  0  0  0  1  0  0  0  0  0  0
  188.4420  178.7310  137.6550 C   0  0  0  0  0  2  0  0  0  0  0  0
  191.1580  176.0970  135.1660 O   0  0  0  0  0  0  0  0  0  0  0  0
  190.7120  176.5500  136.2250 C   0  0  0  0  0  0  0  0  0  0  0  0
  190.4070  177.7680  138.6710 C   0  0  1  0  0  3  0  0  0  0  0  0
  190.2360  177.0460  137.3330 C   0  0  0  0  0  0  0  0  0  0  0  0
  189.0760  177.4820  138.2360 C   0  0  2  0  0  3  0  0  0  0  0  0
  190.9090  176.8290  139.7800 C   0  0  2  0  0  3  0  0  0  0  0  0
  189.8860  176.0430  140.3320 O   0  0  0  0  0  1  0  0  0  0  0  0
  191.6310  177.6010  140.8860 C   0  0  2  0  0  3  0  0  0  0  0  0
  193.0160  177.5950  140.6850 O   0  0  0  0  0  1  0  0  0  0  0  0
  191.2250  177.0700  142.2720 C   0  0  0  0  0  2  0  0  0  0  0  0
  189.3830  178.5940  142.6970 C   0  0  0  0  0  1  0  0  0  0  0  0
  191.5870  179.2090  143.5560 C   0  0  0  0  0  1  0  0  0  0  0  0
  190.6400  178.0320  143.3310 C   0  0  0  0  0  0  0  0  0  0  0  0
  190.2330  177.3260  144.6630 C   0  0  2  0  0  3  0  0  0  0  0  0
  191.2630  176.2790  145.1410 C   0  0  0  0  0  2  0  0  0  0  0  0
  191.6700  176.4980  146.5950 C   0  0  0  0  0  2  0  0  0  0  0  0
  190.5370  176.5670  147.4130 O   0  0  0  0  0  1  0  0  0  0  0  0
  188.9440  176.7650  144.5940 O   0  0  0  0  0  0  0  0  0  0  0  0
  188.0520  177.6920  145.1630 C   0  0  0  0  0  2  0  0  0  0  0  0
  186.8890  178.3990  147.2700 C   0  0  0  0  0  1  0  0  0  0  0  0
  187.6200  177.2750  146.5640 C   0  0  0  0  0  2  0  0  0  0  0  0
  1 13  1  0  0  0  0
  2 18  1  0  0  0  0
  4  9  1  0  0  0  0
  5  9  1  0  0  0  0
  6 11  1  0  0  0  0
  6  7  1  0  0  0  0
  7  5  1  0  0  0  0
  8 19  1  0  0  0  0
 11  4  1  1  0  0  0
 12 34  1  1  0  0  0
 12 14  1  0  0  0  0
 13 23  1  0  0  0  0
 14 16  1  1  0  0  0
 15 23  2  0  0  0  0
 15 17  1  0  0  0  0
 16  2  1  0  0  0  0
 17  6  2  0  0  0  0
 18 19  1  0  0  0  0
 19  3  1  1  0  0  0
 20 24  1  0  0  0  0
 20 10  1  0  0  0  0
 21 10  1  6  0  0  0
 21  1  1  0  0  0  0
 21 14  1  0  0  0  0
 22  8  1  0  0  0  0
 22 11  1  0  0  0  0
 23 22  1  0  0  0  0
 24 12  1  0  0  0  0
 25 30  2  0  0  0  0
 26 31  1  1  0  0  0
 26 28  1  0  0  0  0
 26 29  1  0  0  0  0
 27 30  1  0  0  0  0
 28 27  1  0  0  0  0
 29 25  1  0  0  0  0
 30 15  1  0  0  0  0
 32 33  1  0  0  0  0
 32 31  1  0  0  0  0
 35 36  2  0  0  0  0
 36 38  2  0  0  0  0
 37 40  1  1  0  0  0
 38 39  1  0  0  0  0
 38 37  1  0  0  0  0
 39 34  1  6  0  0  0
 39 37  1  0  0  0  0
 40 41  1  1  0  0  0
 40 42  1  0  0  0  0
 42 43  1  6  0  0  0
 42 44  1  0  0  0  0
 44 47  1  0  0  0  0
 45 47  1  0  0  0  0
 47 46  1  0  0  0  0
 47 48  1  0  0  0  0
 48 49  1  6  0  0  0
 49 50  1  0  0  0  0
 50 51  1  0  0  0  0
 52 48  1  0  0  0  0
 52 53  1  0  0  0  0
 53 55  1  0  0  0  0
 55 54  1  0  0  0  0
M  END
>  <MODEL>
5

>  <REMARK>
 VINA RESULT:      -6.5      3.446      7.361
  Name = 
  15 active torsions:
  status: ('A' for Active; 'I' for Inactive)
    1  A    between atoms: C_3  and  C_14
    2  A    between atoms: C_3  and  O_38
    3  A    between atoms: C_6  and  C_20
    4  A    between atoms: C_6  and  C_53
    5  A    between atoms: O_10  and  C_18
    6  A    between atoms: O_10  and  C_32
    7  A    between atoms: C_11  and  C_29
    8  A    between atoms: C_20  and  C_22
    9  A    between atoms: C_27  and  C_54
   10  A    between atoms: C_29  and  C_50
   11  A    between atoms: C_30  and  C_50
   12  A    between atoms: C_30  and  C_53
   13  A    between atoms: C_33  and  C_52
   14  A    between atoms: O_38  and  C_50
   15  A    between atoms: C_51  and  C_54
                            x       y       z     vdW  Elec       q    Type
                         _______ _______ _______ _____ _____    ______ ____

>  <TORSDO>
F 15

$$$$
=
 OpenBabel10262420343D

 55 60  0  0  1  0  0  0  0  0999 V2000
  183.9600  177.9060  138.1520 O   0  0  0  0  0  0  0  0  0  0  0  0
  186.1010  177.5320  140.6600 C   0  0  0  0  0  2  0  0  0  0  0  0
  184.5670  179.1720  143.7380 C   0  0  0  0  0  1  0  0  0  0  0  0
  181.4780  179.0320  143.3840 C   0  0  0  0  0  2  0  0  0  0  0  0
  178.9320  179.4750  143.4490 C   0  0  0  0  0  2  0  0  0  0  0  0
  180.1610  179.3230  141.2920 C   0  0  0  0  0  0  0  0  0  0  0  0
  179.2340  180.1670  142.1130 C   0  0  0  0  0  2  0  0  0  0  0  0
  183.6210  179.2180  141.4340 C   0  0  0  0  0  2  0  0  0  0  0  0
  180.1940  179.0370  144.2260 C   0  0  0  0  0  2  0  0  0  0  0  0
  184.8430  176.5110  136.3960 C   0  0  0  0  0  2  0  0  0  0  0  0
  181.2160  178.4870  141.9770 C   0  0  1  0  0  3  0  0  0  0  0  0
  186.9420  178.3300  136.9920 C   0  0  2  0  0  3  0  0  0  0  0  0
  183.1330  177.2290  139.0440 C   0  0  0  0  0  2  0  0  0  0  0  0
  186.3700  177.5190  138.1630 C   0  0  1  0  0  3  0  0  0  0  0  0
  181.0830  178.6970  139.1570 C   0  0  0  0  0  0  0  0  0  0  0  0
  186.3740  178.3800  139.4300 C   0  0  0  0  0  2  0  0  0  0  0  0
  180.1520  179.4110  139.9980 N   0  0  0  0  0  0  0  0  0  0  0  0
  185.9840  178.4310  141.8730 C   0  0  0  0  0  2  0  0  0  0  0  0
  184.5580  178.4760  142.3950 C   0  0  1  0  0  3  0  0  0  0  0  0
  185.2370  177.5410  135.5290 O   0  0  0  0  0  0  0  0  0  0  0  0
  184.9580  176.9700  137.8550 C   0  0  1  0  0  3  0  0  0  0  0  0
  182.4200  178.4260  141.1310 N   0  0  0  0  0  0  0  0  0  0  0  0
  182.1890  178.1550  139.7400 C   0  0  0  0  0  0  0  0  0  0  0  0
  186.6250  177.6380  135.6670 C   0  0  0  0  0  2  0  0  0  0  0  0
  181.5550  179.4460  136.8420 C   0  0  0  0  0  3  0  0  0  0  0  0
  180.3920  178.4570  134.8300 C   0  0  1  0  0  3  0  0  0  0  0  0
  179.7380  177.7960  137.1610 C   0  0  0  0  0  2  0  0  0  0  0  0
  179.2250  178.1870  135.7750 C   0  0  0  0  0  2  0  0  0  0  0  0
  181.2390  179.6020  135.3820 C   0  0  0  0  0  2  0  0  0  0  0  0
  180.8170  178.7160  137.6890 C   0  0  0  0  0  0  0  0  0  0  0  0
  181.1760  177.3100  134.6680 O   0  0  0  0  0  0  0  0  0  0  0  0
  180.3620  176.2540  135.0820 C   0  0  0  0  0  2  0  0  0  0  0  0
  181.2300  175.1030  135.5440 C   0  0  0  0  0  1  0  0  0  0  0  0
  188.4470  178.4780  137.1470 C   0  0  0  0  0  2  0  0  0  0  0  0
  191.8600  176.0270  135.4570 O   0  0  0  0  0  0  0  0  0  0  0  0
  191.1430  176.4570  136.3650 C   0  0  0  0  0  0  0  0  0  0  0  0
  190.1750  177.6790  138.6300 C   0  0  1  0  0  3  0  0  0  0  0  0
  190.3810  176.9300  137.3130 C   0  0  0  0  0  0  0  0  0  0  0  0
  189.0100  177.2870  137.8990 C   0  0  2  0  0  3  0  0  0  0  0  0
  190.4610  176.7950  139.8550 C   0  0  2  0  0  3  0  0  0  0  0  0
  189.2940  176.2960  140.4500 O   0  0  0  0  0  1  0  0  0  0  0  0
  191.3060  177.5330  140.8950 C   0  0  2  0  0  3  0  0  0  0  0  0
  192.6640  177.5040  140.5560 O   0  0  0  0  0  1  0  0  0  0  0  0
  191.0300  176.9830  142.3060 C   0  0  0  0  0  2  0  0  0  0  0  0
  189.3280  178.6780  142.6620 C   0  0  0  0  0  1  0  0  0  0  0  0
  191.4350  178.9110  143.8790 C   0  0  0  0  0  1  0  0  0  0  0  0
  190.4050  177.8960  143.3860 C   0  0  0  0  0  0  0  0  0  0  0  0
  189.7290  177.1120  144.5540 C   0  0  2  0  0  3  0  0  0  0  0  0
  188.1850  177.1700  144.5200 C   0  0  0  0  0  2  0  0  0  0  0  0
  187.5800  177.1350  145.9190 C   0  0  0  0  0  2  0  0  0  0  0  0
  187.1990  178.4210  146.3190 O   0  0  0  0  0  1  0  0  0  0  0  0
  190.2170  177.5100  145.8130 O   0  0  0  0  0  0  0  0  0  0  0  0
  190.8060  176.3810  146.4110 C   0  0  0  0  0  2  0  0  0  0  0  0
  192.5490  175.6130  148.0430 C   0  0  0  0  0  1  0  0  0  0  0  0
  191.6520  176.7590  147.6210 C   0  0  0  0  0  2  0  0  0  0  0  0
  1 13  1  0  0  0  0
  2 18  1  0  0  0  0
  4  9  1  0  0  0  0
  5  9  1  0  0  0  0
  6 11  1  0  0  0  0
  6  7  1  0  0  0  0
  7  5  1  0  0  0  0
  8 19  1  0  0  0  0
 11  4  1  1  0  0  0
 12 34  1  1  0  0  0
 12 14  1  0  0  0  0
 13 23  1  0  0  0  0
 14 16  1  1  0  0  0
 15 23  2  0  0  0  0
 15 17  1  0  0  0  0
 16  2  1  0  0  0  0
 17  6  2  0  0  0  0
 18 19  1  0  0  0  0
 19  3  1  1  0  0  0
 20 24  1  0  0  0  0
 20 10  1  0  0  0  0
 21 10  1  6  0  0  0
 21  1  1  0  0  0  0
 21 14  1  0  0  0  0
 22  8  1  0  0  0  0
 22 11  1  0  0  0  0
 23 22  1  0  0  0  0
 24 12  1  0  0  0  0
 25 30  2  0  0  0  0
 26 31  1  1  0  0  0
 26 29  1  0  0  0  0
 26 28  1  0  0  0  0
 27 30  1  0  0  0  0
 28 27  1  0  0  0  0
 29 25  1  0  0  0  0
 30 15  1  0  0  0  0
 31 32  1  0  0  0  0
 32 33  1  0  0  0  0
 35 36  2  0  0  0  0
 36 38  2  0  0  0  0
 37 40  1  1  0  0  0
 38 39  1  0  0  0  0
 38 37  1  0  0  0  0
 39 34  1  6  0  0  0
 39 37  1  0  0  0  0
 40 41  1  1  0  0  0
 40 42  1  0  0  0  0
 42 43  1  6  0  0  0
 42 44  1  0  0  0  0
 44 47  1  0  0  0  0
 45 47  1  0  0  0  0
 47 46  1  0  0  0  0
 47 48  1  0  0  0  0
 48 49  1  1  0  0  0
 48 52  1  0  0  0  0
 49 50  1  0  0  0  0
 50 51  1  0  0  0  0
 52 53  1  0  0  0  0
 53 55  1  0  0  0  0
 55 54  1  0  0  0  0
M  END
>  <MODEL>
6

>  <REMARK>
 VINA RESULT:      -6.3      3.196      7.266
  Name = 
  15 active torsions:
  status: ('A' for Active; 'I' for Inactive)
    1  A    between atoms: C_3  and  C_14
    2  A    between atoms: C_3  and  O_38
    3  A    between atoms: C_6  and  C_20
    4  A    between atoms: C_6  and  C_53
    5  A    between atoms: O_10  and  C_18
    6  A    between atoms: O_10  and  C_32
    7  A    between atoms: C_11  and  C_29
    8  A    between atoms: C_20  and  C_22
    9  A    between atoms: C_27  and  C_54
   10  A    between atoms: C_29  and  C_50
   11  A    between atoms: C_30  and  C_50
   12  A    between atoms: C_30  and  C_53
   13  A    between atoms: C_33  and  C_52
   14  A    between atoms: O_38  and  C_50
   15  A    between atoms: C_51  and  C_54
                            x       y       z     vdW  Elec       q    Type
                         _______ _______ _______ _____ _____    ______ ____

>  <TORSDO>
F 15

$$$$
=
 OpenBabel10262420343D

 55 60  0  0  1  0  0  0  0  0999 V2000
  185.0500  176.4260  137.4510 O   0  0  0  0  0  0  0  0  0  0  0  0
  186.8640  174.0710  135.9770 C   0  0  0  0  0  2  0  0  0  0  0  0
  184.8460  170.8410  136.0580 C   0  0  0  0  0  1  0  0  0  0  0  0
  181.8440  171.6600  136.1070 C   0  0  0  0  0  2  0  0  0  0  0  0
  179.2880  171.7710  136.4840 C   0  0  0  0  0  2  0  0  0  0  0  0
  180.7950  173.5660  137.3150 C   0  0  0  0  0  0  0  0  0  0  0  0
  179.7190  172.5970  137.7020 C   0  0  0  0  0  2  0  0  0  0  0  0
  184.2070  172.9910  137.1430 C   0  0  0  0  0  2  0  0  0  0  0  0
  180.4630  171.0990  135.7370 C   0  0  0  0  0  2  0  0  0  0  0  0
  186.2370  178.4730  136.9950 C   0  0  0  0  0  2  0  0  0  0  0  0
  181.8010  173.1840  136.2560 C   0  0  1  0  0  3  0  0  0  0  0  0
  188.1250  176.8320  138.3400 C   0  0  2  0  0  3  0  0  0  0  0  0
  184.1560  176.0600  136.4480 C   0  0  0  0  0  2  0  0  0  0  0  0
  187.4570  176.2420  137.0900 C   0  0  1  0  0  3  0  0  0  0  0  0
  182.0230  175.5980  137.7160 C   0  0  0  0  0  0  0  0  0  0  0  0
  187.2430  174.7390  137.2880 C   0  0  0  0  0  2  0  0  0  0  0  0
  180.9490  174.6700  137.9780 N   0  0  0  0  0  0  0  0  0  0  0  0
  186.5360  172.6150  136.2330 C   0  0  0  0  0  2  0  0  0  0  0  0
  185.0540  172.3390  136.0440 C   0  0  1  0  0  3  0  0  0  0  0  0
  186.6770  178.7210  138.3040 O   0  0  0  0  0  0  0  0  0  0  0  0
  186.1330  176.9630  136.7460 C   0  0  1  0  0  3  0  0  0  0  0  0
  183.1060  173.7840  136.5780 N   0  0  0  0  0  0  0  0  0  0  0  0
  183.0750  175.1680  136.9640 C   0  0  0  0  0  0  0  0  0  0  0  0
  188.0270  178.3570  138.3220 C   0  0  0  0  0  2  0  0  0  0  0  0
  181.3790  177.9900  137.8190 C   0  0  0  0  0  3  0  0  0  0  0  0
  181.6150  179.3710  139.9210 C   0  0  1  0  0  3  0  0  0  0  0  0
  182.4590  177.0100  139.8180 C   0  0  0  0  0  2  0  0  0  0  0  0
  182.7680  178.4360  140.2740 C   0  0  0  0  0  2  0  0  0  0  0  0
  181.4050  179.3710  138.4080 C   0  0  0  0  0  2  0  0  0  0  0  0
  181.9500  176.9240  138.3960 C   0  0  0  0  0  0  0  0  0  0  0  0
  180.4400  178.9780  140.5710 O   0  0  0  0  0  0  0  0  0  0  0  0
  180.1930  179.9840  141.5070 C   0  0  0  0  0  2  0  0  0  0  0  0
  180.3910  179.4300  142.9020 C   0  0  0  0  0  1  0  0  0  0  0  0
  189.5860  176.4130  138.3960 C   0  0  0  0  0  2  0  0  0  0  0  0
  193.9780  177.1880  137.6070 O   0  0  0  0  0  0  0  0  0  0  0  0
  192.8650  176.7220  137.3420 C   0  0  0  0  0  0  0  0  0  0  0  0
  190.7510  175.0600  136.7730 C   0  0  1  0  0  3  0  0  0  0  0  0
  191.6850  176.2300  137.0840 C   0  0  0  0  0  0  0  0  0  0  0  0
  190.1590  176.3420  136.9940 C   0  0  2  0  0  3  0  0  0  0  0  0
  190.8020  174.6510  135.2910 C   0  0  2  0  0  3  0  0  0  0  0  0
  189.5520  174.7360  134.6600 O   0  0  0  0  0  1  0  0  0  0  0  0
  191.3830  173.2460  135.1160 C   0  0  2  0  0  3  0  0  0  0  0  0
  190.3780  172.2730  135.1770 O   0  0  0  0  0  1  0  0  0  0  0  0
  192.5170  173.0000  136.1270 C   0  0  0  0  0  2  0  0  0  0  0  0
  194.2310  174.2390  134.9330 C   0  0  0  0  0  1  0  0  0  0  0  0
  194.1390  171.8190  134.6000 C   0  0  0  0  0  1  0  0  0  0  0  0
  193.9830  172.9230  135.6440 C   0  0  0  0  0  0  0  0  0  0  0  0
  195.0200  172.8010  136.8050 C   0  0  2  0  0  3  0  0  0  0  0  0
  195.5950  174.1600  137.2600 C   0  0  0  0  0  2  0  0  0  0  0  0
  197.0740  174.0640  137.6230 C   0  0  0  0  0  2  0  0  0  0  0  0
  197.7340  175.2530  137.3000 O   0  0  0  0  0  1  0  0  0  0  0  0
  196.0540  171.8970  136.5000 O   0  0  0  0  0  0  0  0  0  0  0  0
  195.8920  170.7760  137.3360 C   0  0  0  0  0  2  0  0  0  0  0  0
  198.3640  170.6190  136.9430 C   0  0  0  0  0  1  0  0  0  0  0  0
  197.2250  170.2800  137.8820 C   0  0  0  0  0  2  0  0  0  0  0  0
  2 18  1  0  0  0  0
  2 16  1  0  0  0  0
  5  7  1  0  0  0  0
  6  7  1  0  0  0  0
  6 17  2  0  0  0  0
  9  4  1  0  0  0  0
  9  5  1  0  0  0  0
 10 20  1  0  0  0  0
 11  4  1  1  0  0  0
 11 22  1  0  0  0  0
 11  6  1  0  0  0  0
 12 34  1  6  0  0  0
 13 23  1  0  0  0  0
 13  1  1  0  0  0  0
 14 16  1  1  0  0  0
 14 12  1  0  0  0  0
 15 17  1  0  0  0  0
 15 30  1  0  0  0  0
 19  3  1  1  0  0  0
 19 18  1  0  0  0  0
 19  8  1  0  0  0  0
 20 24  1  0  0  0  0
 21 10  1  1  0  0  0
 21 14  1  0  0  0  0
 21  1  1  0  0  0  0
 22 23  1  0  0  0  0
 22  8  1  0  0  0  0
 23 15  2  0  0  0  0
 24 12  1  0  0  0  0
 25 30  2  0  0  0  0
 25 29  1  0  0  0  0
 26 28  1  0  0  0  0
 26 31  1  1  0  0  0
 27 28  1  0  0  0  0
 29 26  1  0  0  0  0
 30 27  1  0  0  0  0
 31 32  1  0  0  0  0
 32 33  1  0  0  0  0
 36 35  2  0  0  0  0
 37 40  1  6  0  0  0
 37 39  1  0  0  0  0
 37 38  1  0  0  0  0
 38 36  2  0  0  0  0
 39 38  1  0  0  0  0
 39 34  1  1  0  0  0
 40 41  1  1  0  0  0
 42 43  1  1  0  0  0
 42 40  1  0  0  0  0
 42 44  1  0  0  0  0
 45 47  1  0  0  0  0
 46 47  1  0  0  0  0
 47 44  1  0  0  0  0
 47 48  1  0  0  0  0
 48 49  1  6  0  0  0
 49 50  1  0  0  0  0
 51 50  1  0  0  0  0
 52 48  1  0  0  0  0
 52 53  1  0  0  0  0
 53 55  1  0  0  0  0
 54 55  1  0  0  0  0
M  END
>  <MODEL>
7

>  <REMARK>
 VINA RESULT:      -5.9      4.650      8.804
  Name = 
  15 active torsions:
  status: ('A' for Active; 'I' for Inactive)
    1  A    between atoms: C_3  and  C_14
    2  A    between atoms: C_3  and  O_38
    3  A    between atoms: C_6  and  C_20
    4  A    between atoms: C_6  and  C_53
    5  A    between atoms: O_10  and  C_18
    6  A    between atoms: O_10  and  C_32
    7  A    between atoms: C_11  and  C_29
    8  A    between atoms: C_20  and  C_22
    9  A    between atoms: C_27  and  C_54
   10  A    between atoms: C_29  and  C_50
   11  A    between atoms: C_30  and  C_50
   12  A    between atoms: C_30  and  C_53
   13  A    between atoms: C_33  and  C_52
   14  A    between atoms: O_38  and  C_50
   15  A    between atoms: C_51  and  C_54
                            x       y       z     vdW  Elec       q    Type
                         _______ _______ _______ _____ _____    ______ ____

>  <TORSDO>
F 15

$$$$
=
 OpenBabel10262420343D

 55 60  0  0  1  0  0  0  0  0999 V2000
  187.2180  178.0800  141.1380 O   0  0  0  0  0  0  0  0  0  0  0  0
  185.0000  178.8990  143.4660 C   0  0  0  0  0  2  0  0  0  0  0  0
  186.2370  177.4900  146.7830 C   0  0  0  0  0  1  0  0  0  0  0  0
  189.3400  177.3410  146.5930 C   0  0  0  0  0  2  0  0  0  0  0  0
  191.8320  176.7040  146.8490 C   0  0  0  0  0  2  0  0  0  0  0  0
  190.7250  176.7160  144.6220 C   0  0  0  0  0  0  0  0  0  0  0  0
  191.5360  175.8960  145.5800 C   0  0  0  0  0  2  0  0  0  0  0  0
  187.2840  177.1150  144.5540 C   0  0  0  0  0  2  0  0  0  0  0  0
  190.5770  177.3250  147.5020 C   0  0  0  0  0  2  0  0  0  0  0  0
  186.5440  179.3400  139.1960 C   0  0  0  0  0  2  0  0  0  0  0  0
  189.7150  177.7050  145.1530 C   0  0  1  0  0  3  0  0  0  0  0  0
  184.2700  177.7730  139.8610 C   0  0  2  0  0  3  0  0  0  0  0  0
  188.0570  178.7830  141.9990 C   0  0  0  0  0  2  0  0  0  0  0  0
  184.8530  178.6590  140.9710 C   0  0  1  0  0  3  0  0  0  0  0  0
  189.9650  177.1760  142.3840 C   0  0  2  0  0  3  0  0  0  0  0  0
  184.7130  177.9460  142.3190 C   0  0  0  0  0  2  0  0  0  0  0  0
  190.7890  176.4850  143.3470 N   0  0  0  0  0  0  0  0  0  0  0  0
  184.9800  178.1330  144.7720 C   0  0  0  0  0  2  0  0  0  0  0  0
  186.3700  178.0310  145.3760 C   0  0  1  0  0  3  0  0  0  0  0  0
  186.1040  178.2550  138.4230 O   0  0  0  0  0  0  0  0  0  0  0  0
  186.3200  179.0540  140.6870 C   0  0  1  0  0  3  0  0  0  0  0  0
  188.5630  177.7690  144.2380 N   0  0  1  0  0  0  0  0  0  0  0  0
  188.8830  177.8660  142.8420 C   0  0  1  0  0  3  0  0  0  0  0  0
  184.7080  178.2870  138.4900 C   0  0  0  0  0  2  0  0  0  0  0  0
  191.5450  177.1160  140.4750 C   0  0  0  0  0  3  0  0  0  0  0  0
  190.8790  176.2820  138.1850 C   0  0  1  0  0  3  0  0  0  0  0  0
  189.1900  176.5000  140.0290 C   0  0  0  0  0  2  0  0  0  0  0  0
  189.4710  176.7470  138.5470 C   0  0  0  0  0  2  0  0  0  0  0  0
  191.8990  177.0580  139.0170 C   0  0  0  0  0  2  0  0  0  0  0  0
  190.2980  176.9740  140.9430 C   0  0  0  0  0  0  0  0  0  0  0  0
  191.0210  174.9080  138.4060 O   0  0  0  0  0  0  0  0  0  0  0  0
  191.4070  174.3830  137.1710 C   0  0  0  0  0  2  0  0  0  0  0  0
  192.9120  174.4820  137.0330 C   0  0  0  0  0  1  0  0  0  0  0  0
  182.7520  177.7640  139.9440 C   0  0  0  0  0  2  0  0  0  0  0  0
  184.2590  174.0200  137.8900 O   0  0  0  0  0  0  0  0  0  0  0  0
  183.4260  174.9000  138.1270 C   0  0  0  0  0  0  0  0  0  0  0  0
  181.1740  176.2930  138.8650 C   0  0  1  0  0  3  0  0  0  0  0  0
  182.5550  175.8330  138.3980 C   0  0  0  0  0  0  0  0  0  0  0  0
  182.1630  177.2970  138.6270 C   0  0  2  0  0  3  0  0  0  0  0  0
  180.1170  176.1910  137.7520 C   0  0  2  0  0  3  0  0  0  0  0  0
  179.1080  177.1580  137.8700 O   0  0  0  0  0  1  0  0  0  0  0  0
  179.5000  174.7930  137.6890 C   0  0  2  0  0  3  0  0  0  0  0  0
  179.1200  174.3510  138.9620 O   0  0  0  0  0  1  0  0  0  0  0  0
  180.4470  173.8140  136.9740 C   0  0  0  0  0  2  0  0  0  0  0  0
  181.2800  174.6360  134.8460 C   0  0  0  0  0  1  0  0  0  0  0  0
  178.9350  173.9590  134.9620 C   0  0  0  0  0  1  0  0  0  0  0  0
  180.3410  173.6090  135.4450 C   0  0  0  0  0  0  0  0  0  0  0  0
  180.8050  172.1960  134.9690 C   0  0  2  0  0  3  0  0  0  0  0  0
  179.6350  171.2590  134.5950 C   0  0  0  0  0  2  0  0  0  0  0  0
  179.4890  170.1040  135.5810 C   0  0  0  0  0  2  0  0  0  0  0  0
  178.9350  170.5550  136.7830 O   0  0  0  0  0  1  0  0  0  0  0  0
  181.6640  171.5790  135.8970 O   0  0  0  0  0  0  0  0  0  0  0  0
  182.9730  171.6850  135.3930 C   0  0  0  0  0  2  0  0  0  0  0  0
  185.2650  170.6690  135.3290 C   0  0  0  0  0  1  0  0  0  0  0  0
  183.8440  170.5120  135.8260 C   0  0  0  0  0  2  0  0  0  0  0  0
  1 13  1  0  0  0  0
  2 18  1  0  0  0  0
  4  9  1  0  0  0  0
  5  9  1  0  0  0  0
  6 11  1  0  0  0  0
  6  7  1  0  0  0  0
  7  5  1  0  0  0  0
  8 19  1  0  0  0  0
 11  4  1  1  0  0  0
 12 34  1  6  0  0  0
 12 14  1  0  0  0  0
 14 16  1  1  0  0  0
 15 30  1  6  0  0  0
 15 23  1  0  0  0  0
 15 17  1  0  0  0  0
 16  2  1  0  0  0  0
 17  6  2  0  0  0  0
 18 19  1  0  0  0  0
 19  3  1  1  0  0  0
 20 24  1  0  0  0  0
 20 10  1  0  0  0  0
 21 10  1  6  0  0  0
 21 14  1  0  0  0  0
 21  1  1  0  0  0  0
 22  8  1  6  0  0  0
 22 11  1  0  0  0  0
 23 13  1  1  0  0  0
 23 22  1  0  0  0  0
 24 12  1  0  0  0  0
 25 30  2  0  0  0  0
 26 31  1  1  0  0  0
 26 28  1  0  0  0  0
 26 29  1  0  0  0  0
 27 30  1  0  0  0  0
 28 27  1  0  0  0  0
 29 25  1  0  0  0  0
 32 31  1  0  0  0  0
 33 32  1  0  0  0  0
 35 36  2  0  0  0  0
 36 38  2  0  0  0  0
 37 40  1  6  0  0  0
 38 39  1  0  0  0  0
 38 37  1  0  0  0  0
 39 37  1  0  0  0  0
 39 34  1  1  0  0  0
 40 41  1  1  0  0  0
 42 40  1  0  0  0  0
 42 43  1  1  0  0  0
 44 42  1  0  0  0  0
 45 47  1  0  0  0  0
 46 47  1  0  0  0  0
 47 44  1  0  0  0  0
 48 49  1  1  0  0  0
 48 47  1  0  0  0  0
 48 52  1  0  0  0  0
 49 50  1  0  0  0  0
 50 51  1  0  0  0  0
 53 55  1  0  0  0  0
 53 52  1  0  0  0  0
 54 55  1  0  0  0  0
M  END
>  <MODEL>
8

>  <REMARK>
 VINA RESULT:      -5.8      2.905     10.156
  Name = 
  15 active torsions:
  status: ('A' for Active; 'I' for Inactive)
    1  A    between atoms: C_3  and  C_14
    2  A    between atoms: C_3  and  O_38
    3  A    between atoms: C_6  and  C_20
    4  A    between atoms: C_6  and  C_53
    5  A    between atoms: O_10  and  C_18
    6  A    between atoms: O_10  and  C_32
    7  A    between atoms: C_11  and  C_29
    8  A    between atoms: C_20  and  C_22
    9  A    between atoms: C_27  and  C_54
   10  A    between atoms: C_29  and  C_50
   11  A    between atoms: C_30  and  C_50
   12  A    between atoms: C_30  and  C_53
   13  A    between atoms: C_33  and  C_52
   14  A    between atoms: O_38  and  C_50
   15  A    between atoms: C_51  and  C_54
                            x       y       z     vdW  Elec       q    Type
                         _______ _______ _______ _____ _____    ______ ____

>  <TORSDO>
F 15

$$$$
=
 OpenBabel10262420343D

 55 60  0  0  1  0  0  0  0  0999 V2000
  185.5980  176.6190  138.0000 O   0  0  0  0  0  0  0  0  0  0  0  0
  188.3220  178.4880  138.3160 C   0  0  0  0  0  2  0  0  0  0  0  0
  191.3390  176.2380  137.7210 C   0  0  0  0  0  1  0  0  0  0  0  0
  190.3930  173.9490  135.8360 C   0  0  0  0  0  2  0  0  0  0  0  0
  190.0750  171.7050  134.5940 C   0  0  0  0  0  2  0  0  0  0  0  0
  188.2040  172.7650  135.8420 C   0  0  0  0  0  0  0  0  0  0  0  0
  189.0000  171.5060  135.6680 C   0  0  0  0  0  2  0  0  0  0  0  0
  188.9620  175.4970  137.8330 C   0  0  0  0  0  2  0  0  0  0  0  0
  190.9620  172.9500  134.8180 C   0  0  0  0  0  2  0  0  0  0  0  0
  183.7800  178.2020  138.0040 C   0  0  0  0  0  2  0  0  0  0  0  0
  188.8780  174.1060  135.6720 C   0  0  1  0  0  3  0  0  0  0  0  0
  185.1320  178.6550  140.4600 C   0  0  2  0  0  3  0  0  0  0  0  0
  186.1540  176.4070  136.7410 C   0  0  0  0  0  2  0  0  0  0  0  0
  185.9760  178.7220  139.1790 C   0  0  1  0  0  3  0  0  0  0  0  0
  186.1950  173.8900  136.5460 C   0  0  2  0  0  3  0  0  0  0  0  0
  187.3750  178.1670  139.4590 C   0  0  0  0  0  2  0  0  0  0  0  0
  186.9810  172.7110  136.2690 N   0  0  0  0  0  0  0  0  0  0  0  0
  189.6560  177.8160  138.5660 C   0  0  0  0  0  2  0  0  0  0  0  0
  189.9000  176.6840  137.5830 C   0  0  1  0  0  3  0  0  0  0  0  0
  183.2430  177.8550  139.2530 O   0  0  0  0  0  0  0  0  0  0  0  0
  185.2990  177.9860  138.0000 C   0  0  1  0  0  3  0  0  0  0  0  0
  188.2790  175.0780  136.6010 N   0  0  1  0  0  0  0  0  0  0  0  0
  186.8440  175.0840  136.6540 C   0  0  1  0  0  3  0  0  0  0  0  0
  183.6540  178.8620  140.1310 C   0  0  0  0  0  2  0  0  0  0  0  0
  184.0640  174.4480  137.6830 C   0  0  0  0  0  3  0  0  0  0  0  0
  181.8650  173.3790  137.0480 C   0  0  1  0  0  3  0  0  0  0  0  0
  184.0200  172.6380  135.9950 C   0  0  0  0  0  2  0  0  0  0  0  0
  182.7000  172.1770  136.6150 C   0  0  0  0  0  2  0  0  0  0  0  0
  182.6400  174.1900  138.0840 C   0  0  0  0  0  2  0  0  0  0  0  0
  184.7420  173.6850  136.8150 C   0  0  0  0  0  0  0  0  0  0  0  0
  181.5430  174.1820  135.9490 O   0  0  0  0  0  0  0  0  0  0  0  0
  180.1700  174.0070  135.7640 C   0  0  0  0  0  2  0  0  0  0  0  0
  179.5780  175.2710  135.1780 C   0  0  0  0  0  1  0  0  0  0  0  0
  185.5930  179.7190  141.4430 C   0  0  0  0  0  2  0  0  0  0  0  0
  182.2100  178.9490  144.3540 O   0  0  0  0  0  0  0  0  0  0  0  0
  183.3390  178.7660  143.8860 C   0  0  0  0  0  0  0  0  0  0  0  0
  185.5960  177.6890  142.7470 C   0  0  1  0  0  3  0  0  0  0  0  0
  184.5220  178.5800  143.3720 C   0  0  0  0  0  0  0  0  0  0  0  0
  185.8490  179.0950  142.8020 C   0  0  2  0  0  3  0  0  0  0  0  0
  186.3700  176.8810  143.8020 C   0  0  2  0  0  3  0  0  0  0  0  0
  185.9760  177.1810  145.1140 O   0  0  0  0  0  1  0  0  0  0  0  0
  187.8820  177.0660  143.6540 C   0  0  2  0  0  3  0  0  0  0  0  0
  188.3210  176.6440  142.3940 O   0  0  0  0  0  1  0  0  0  0  0  0
  188.6280  176.3770  144.8100 C   0  0  0  0  0  2  0  0  0  0  0  0
  189.0520  176.8040  147.1630 C   0  0  0  0  0  1  0  0  0  0  0  0
  189.1890  178.6970  145.6220 C   0  0  0  0  0  1  0  0  0  0  0  0
  189.5040  177.2100  145.7740 C   0  0  0  0  0  0  0  0  0  0  0  0
  191.0300  176.9050  145.6550 C   0  0  2  0  0  3  0  0  0  0  0  0
  191.7450  176.8060  147.0220 C   0  0  0  0  0  2  0  0  0  0  0  0
  192.4070  175.4470  147.2250 C   0  0  0  0  0  2  0  0  0  0  0  0
  193.3620  175.5180  148.2440 O   0  0  0  0  0  1  0  0  0  0  0  0
  191.6900  177.8170  144.8110 O   0  0  0  0  0  0  0  0  0  0  0  0
  192.0130  177.1320  143.6240 C   0  0  0  0  0  2  0  0  0  0  0  0
  192.0300  177.4210  141.1330 C   0  0  0  0  0  1  0  0  0  0  0  0
  191.2860  177.7160  142.4190 C   0  0  0  0  0  2  0  0  0  0  0  0
  2 18  1  0  0  0  0
  2 16  1  0  0  0  0
  5  9  1  0  0  0  0
  5  7  1  0  0  0  0
  6 17  2  0  0  0  0
  7  6  1  0  0  0  0
  9  4  1  0  0  0  0
 10 20  1  0  0  0  0
 11  4  1  1  0  0  0
 11  6  1  0  0  0  0
 11 22  1  0  0  0  0
 12 34  1  1  0  0  0
 13  1  1  0  0  0  0
 14 16  1  1  0  0  0
 14 12  1  0  0  0  0
 15 23  1  0  0  0  0
 15 30  1  1  0  0  0
 17 15  1  0  0  0  0
 19  3  1  1  0  0  0
 19  8  1  0  0  0  0
 19 18  1  0  0  0  0
 20 24  1  0  0  0  0
 21  1  1  0  0  0  0
 21 10  1  1  0  0  0
 21 14  1  0  0  0  0
 22 23  1  0  0  0  0
 22  8  1  1  0  0  0
 23 13  1  6  0  0  0
 24 12  1  0  0  0  0
 25 29  1  0  0  0  0
 26 31  1  6  0  0  0
 26 29  1  0  0  0  0
 27 28  1  0  0  0  0
 27 30  1  0  0  0  0
 28 26  1  0  0  0  0
 30 25  2  0  0  0  0
 32 31  1  0  0  0  0
 33 32  1  0  0  0  0
 36 35  2  0  0  0  0
 37 39  1  0  0  0  0
 37 38  1  0  0  0  0
 37 40  1  1  0  0  0
 38 36  2  0  0  0  0
 39 34  1  6  0  0  0
 39 38  1  0  0  0  0
 40 41  1  1  0  0  0
 42 43  1  6  0  0  0
 42 40  1  0  0  0  0
 42 44  1  0  0  0  0
 44 47  1  0  0  0  0
 46 47  1  0  0  0  0
 47 45  1  0  0  0  0
 48 47  1  0  0  0  0
 48 49  1  1  0  0  0
 49 50  1  0  0  0  0
 50 51  1  0  0  0  0
 52 48  1  0  0  0  0
 53 52  1  0  0  0  0
 54 55  1  0  0  0  0
 55 53  1  0  0  0  0
M  END
>  <MODEL>
9

>  <REMARK>
 VINA RESULT:      -5.7      1.299      2.200
  Name = 
  15 active torsions:
  status: ('A' for Active; 'I' for Inactive)
    1  A    between atoms: C_3  and  C_14
    2  A    between atoms: C_3  and  O_38
    3  A    between atoms: C_6  and  C_20
    4  A    between atoms: C_6  and  C_53
    5  A    between atoms: O_10  and  C_18
    6  A    between atoms: O_10  and  C_32
    7  A    between atoms: C_11  and  C_29
    8  A    between atoms: C_20  and  C_22
    9  A    between atoms: C_27  and  C_54
   10  A    between atoms: C_29  and  C_50
   11  A    between atoms: C_30  and  C_50
   12  A    between atoms: C_30  and  C_53
   13  A    between atoms: C_33  and  C_52
   14  A    between atoms: O_38  and  C_50
   15  A    between atoms: C_51  and  C_54
                            x       y       z     vdW  Elec       q    Type
                         _______ _______ _______ _____ _____    ______ ____

>  <TORSDO>
F 15

$$$$
