=
 OpenBabel10262420053D

 27 31  0  0  0  0  0  0  0  0999 V2000
  187.1650  178.1910  141.5660 N   0  0  0  0  0  0  0  0  0  0  0  0
  187.7040  177.7490  143.9500 C   0  0  0  0  0  0  0  0  0  0  0  0
  189.6870  177.0950  142.5070 N   0  0  0  0  0  0  0  0  0  0  0  0
  189.9960  176.8810  147.2950 C   0  0  0  0  0  3  0  0  0  0  0  0
  192.0790  176.1570  148.3440 F   0  0  0  0  0  0  0  0  0  0  0  0
  187.2440  177.8650  145.2320 N   0  0  0  0  0  0  0  0  0  0  0  0
  191.2540  176.5290  144.7310 C   0  0  0  0  0  2  0  0  0  0  0  0
  190.1910  177.2320  138.9710 C   0  0  0  0  0  0  0  0  0  0  0  0
  191.9750  176.2550  146.0250 C   0  0  0  0  0  3  0  0  0  0  0  0
  191.2580  176.8710  138.0000 C   0  0  0  0  0  1  0  0  0  0  0  0
  189.8250  177.0100  144.9090 C   0  0  0  0  0  0  0  0  0  0  0  0
  186.8420  178.0840  142.9570 C   0  0  0  0  0  0  0  0  0  0  0  0
  191.3880  176.4180  147.2090 C   0  0  0  0  0  0  0  0  0  0  0  0
  189.2830  177.1530  146.1990 C   0  0  0  0  0  0  0  0  0  0  0  0
  188.1790  177.8990  140.8190 C   0  0  0  0  0  0  0  0  0  0  0  0
  189.0430  177.3080  143.7670 C   0  0  0  0  0  0  0  0  0  0  0  0
  190.3710  176.9860  140.3300 C   0  0  0  0  0  3  0  0  0  0  0  0
  187.9780  177.5860  146.3340 C   0  0  0  0  0  3  0  0  0  0  0  0
  189.0140  177.8250  138.5280 C   0  0  0  0  0  3  0  0  0  0  0  0
  188.0210  178.1510  139.4490 C   0  0  0  0  0  3  0  0  0  0  0  0
  189.3840  177.3190  141.2700 C   0  0  0  0  0  0  0  0  0  0  0  0
  182.7650  179.0240  143.8110 C   0  0  0  0  0  3  0  0  0  0  0  0
  185.4360  178.4510  143.2710 C   0  0  0  0  0  0  0  0  0  0  0  0
  185.0410  178.8160  144.5660 C   0  0  0  0  0  3  0  0  0  0  0  0
  183.7050  179.1100  144.8390 C   0  0  0  0  0  3  0  0  0  0  0  0
  183.1540  178.6510  142.5620 N   0  0  0  0  0  0  0  0  0  0  0  0
  184.4520  178.3620  142.2760 C   0  0  0  0  0  3  0  0  0  0  0  0
  1 12  1  0  0  0  0
  2  6  1  0  0  0  0
  3 16  1  0  0  0  0
  6 18  2  0  0  0  0
  7 11  1  0  0  0  0
  7  9  1  0  0  0  0
  8 17  2  0  0  0  0
  9 13  2  0  0  0  0
 10  8  1  0  0  0  0
 11 14  1  0  0  0  0
 12 23  1  0  0  0  0
 12  2  2  0  0  0  0
 13  4  1  0  0  0  0
 13  5  1  0  0  0  0
 14 18  1  0  0  0  0
 14  4  2  0  0  0  0
 15 21  1  0  0  0  0
 15  1  2  0  0  0  0
 16  2  1  0  0  0  0
 16 11  2  0  0  0  0
 17 21  1  0  0  0  0
 19  8  1  0  0  0  0
 19 20  2  0  0  0  0
 20 15  1  0  0  0  0
 21  3  2  0  0  0  0
 22 25  1  0  0  0  0
 23 24  1  0  0  0  0
 24 25  2  0  0  0  0
 26 22  2  0  0  0  0
 27 26  1  0  0  0  0
 27 23  2  0  0  0  0
M  END
>  <MODEL>
1

>  <REMARK>
 VINA RESULT:     -11.4      0.000      0.000
  Name = 
  1 active torsions:
  status: ('A' for Active; 'I' for Inactive)
    1  A    between atoms: C_9  and  C_15
                            x       y       z     vdW  Elec       q    Type
                         _______ _______ _______ _____ _____    ______ ____

>  <TORSDO>
F 1

$$$$
=
 OpenBabel10262420053D

 27 31  0  0  1  0  0  0  0  0999 V2000
  187.0970  177.9100  141.4790 N   0  0  0  0  0  0  0  0  0  0  0  0
  189.2350  177.4100  142.6400 C   0  0  0  0  0  0  0  0  0  0  0  0
  187.4390  177.9010  144.3650 N   0  0  0  0  0  0  0  0  0  0  0  0
  191.8180  176.5010  145.7520 C   0  0  0  0  0  3  0  0  0  0  0  0
  192.3120  176.2440  148.1300 F   0  0  0  0  0  0  0  0  0  0  0  0
  190.5350  177.0290  142.4560 N   0  0  0  0  0  0  0  0  0  0  0  0
  189.1420  177.2740  146.4700 C   0  0  0  0  0  3  0  0  0  0  0  0
  183.9840  178.7500  144.0130 C   0  0  0  0  0  0  0  0  0  0  0  0
  190.1780  176.9140  147.5010 C   0  0  0  0  0  3  0  0  0  0  0  0
  182.8410  179.0830  144.9020 C   0  0  0  0  0  1  0  0  0  0  0  0
  189.6360  177.1830  145.0380 C   0  0  0  0  0  0  0  0  0  0  0  0
  188.5060  177.6600  141.5220 C   0  0  0  0  0  0  0  0  0  0  0  0
  191.4160  176.5580  147.1650 C   0  0  0  0  0  0  0  0  0  0  0  0
  190.9630  176.7990  144.7710 C   0  0  0  0  0  0  0  0  0  0  0  0
  186.1600  178.1260  142.3440 C   0  0  2  0  0  3  0  0  0  0  0  0
  188.7540  177.4910  143.9750 C   0  0  0  0  0  0  0  0  0  0  0  0
  185.2420  178.4930  144.5560 C   0  0  0  0  0  3  0  0  0  0  0  0
  191.3910  176.7300  143.4600 C   0  0  0  0  0  3  0  0  0  0  0  0
  183.8030  178.6800  142.6370 C   0  0  0  0  0  3  0  0  0  0  0  0
  184.8860  178.3740  141.8150 C   0  0  0  0  0  3  0  0  0  0  0  0
  186.3380  178.1720  143.7430 C   0  0  0  0  0  0  0  0  0  0  0  0
  190.2960  177.4320  137.6520 C   0  0  0  0  0  3  0  0  0  0  0  0
  189.1450  177.6220  140.1800 C   0  0  0  0  0  0  0  0  0  0  0  0
  188.8530  178.5810  139.1990 C   0  0  0  0  0  3  0  0  0  0  0  0
  189.4320  178.4920  137.9330 C   0  0  0  0  0  3  0  0  0  0  0  0
  190.5580  176.4970  138.6040 N   0  0  0  0  0  0  0  0  0  0  0  0
  190.0030  176.5660  139.8440 C   0  0  0  0  0  3  0  0  0  0  0  0
  1 12  2  0  0  0  0
  1 15  1  0  0  0  0
  2 16  1  0  0  0  0
  4 13  2  0  0  0  0
  6  2  2  0  0  0  0
  6 18  1  0  0  0  0
  7  9  2  0  0  0  0
  8 17  2  0  0  0  0
  8 10  1  0  0  0  0
 11  7  1  0  0  0  0
 12  2  1  0  0  0  0
 13  9  1  0  0  0  0
 13  5  1  0  0  0  0
 14 11  1  0  0  0  0
 14  4  1  0  0  0  0
 15 20  1  6  0  0  0
 15 21  1  0  0  0  0
 16  3  1  0  0  0  0
 16 11  2  0  0  0  0
 18 14  2  0  0  0  0
 19  8  1  0  0  0  0
 20 19  2  0  0  0  0
 21  3  2  0  0  0  0
 21 17  1  0  0  0  0
 22 25  2  0  0  0  0
 22 26  1  0  0  0  0
 23 12  1  0  0  0  0
 24 23  2  0  0  0  0
 25 24  1  0  0  0  0
 26 27  2  0  0  0  0
 27 23  1  0  0  0  0
M  END
>  <MODEL>
2

>  <REMARK>
 VINA RESULT:     -11.3      1.114      5.315
  Name = 
  1 active torsions:
  status: ('A' for Active; 'I' for Inactive)
    1  A    between atoms: C_9  and  C_15
                            x       y       z     vdW  Elec       q    Type
                         _______ _______ _______ _____ _____    ______ ____

>  <TORSDO>
F 1

$$$$
=
 OpenBabel10262420053D

 27 31  0  0  0  0  0  0  0  0999 V2000
  189.8400  177.2170  142.8690 N   0  0  0  0  0  0  0  0  0  0  0  0
  187.7790  177.7020  144.1680 C   0  0  0  0  0  0  0  0  0  0  0  0
  187.3490  178.1660  141.7100 N   0  0  0  0  0  0  0  0  0  0  0  0
  183.7820  178.5220  144.9070 C   0  0  0  0  0  3  0  0  0  0  0  0
  181.5400  179.1350  144.1580 F   0  0  0  0  0  0  0  0  0  0  0  0
  187.2170  177.6630  145.4140 N   0  0  0  0  0  0  0  0  0  0  0  0
  184.6600  178.6970  142.1720 C   0  0  0  0  0  2  0  0  0  0  0  0
  189.4590  177.8740  138.8390 C   0  0  0  0  0  0  0  0  0  0  0  0
  183.2350  178.9650  142.5770 C   0  0  0  0  0  3  0  0  0  0  0  0
  189.3630  178.1250  137.3780 C   0  0  0  0  0  1  0  0  0  0  0  0
  185.5720  178.3240  143.3270 C   0  0  0  0  0  0  0  0  0  0  0  0
  189.0980  177.3940  144.0810 C   0  0  0  0  0  0  0  0  0  0  0  0
  182.8330  178.8840  143.8440 C   0  0  0  0  0  0  0  0  0  0  0  0
  185.0640  178.2630  144.6370 C   0  0  0  0  0  0  0  0  0  0  0  0
  189.6270  177.4120  141.6090 C   0  0  0  0  0  0  0  0  0  0  0  0
  186.9360  178.0420  143.0750 C   0  0  0  0  0  0  0  0  0  0  0  0
  188.3750  178.1520  139.6700 C   0  0  0  0  0  3  0  0  0  0  0  0
  185.9160  177.9270  145.6720 C   0  0  0  0  0  3  0  0  0  0  0  0
  190.6250  177.3490  139.3840 C   0  0  0  0  0  3  0  0  0  0  0  0
  190.7030  177.1250  140.7570 C   0  0  0  0  0  3  0  0  0  0  0  0
  188.4340  177.9220  141.0520 C   0  0  0  0  0  0  0  0  0  0  0  0
  191.4800  176.7360  147.5640 C   0  0  0  0  0  3  0  0  0  0  0  0
  189.8960  177.1370  145.3090 C   0  0  0  0  0  0  0  0  0  0  0  0
  189.3670  177.3570  146.5900 C   0  0  0  0  0  3  0  0  0  0  0  0
  190.1560  177.1510  147.7220 C   0  0  0  0  0  3  0  0  0  0  0  0
  191.9890  176.5430  146.3170 N   0  0  0  0  0  0  0  0  0  0  0  0
  191.2350  176.7380  145.2010 C   0  0  0  0  0  3  0  0  0  0  0  0
  1 12  1  0  0  0  0
  2  6  1  0  0  0  0
  3 16  1  0  0  0  0
  6 18  2  0  0  0  0
  7  9  1  0  0  0  0
  7 11  1  0  0  0  0
  8 19  1  0  0  0  0
  8 17  2  0  0  0  0
  9 13  2  0  0  0  0
 10  8  1  0  0  0  0
 11 14  1  0  0  0  0
 12  2  2  0  0  0  0
 12 23  1  0  0  0  0
 13  5  1  0  0  0  0
 13  4  1  0  0  0  0
 14  4  2  0  0  0  0
 14 18  1  0  0  0  0
 15  1  2  0  0  0  0
 16 11  2  0  0  0  0
 16  2  1  0  0  0  0
 17 21  1  0  0  0  0
 19 20  2  0  0  0  0
 20 15  1  0  0  0  0
 21 15  1  0  0  0  0
 21  3  2  0  0  0  0
 22 25  1  0  0  0  0
 23 24  1  0  0  0  0
 24 25  2  0  0  0  0
 26 22  2  0  0  0  0
 27 23  2  0  0  0  0
 27 26  1  0  0  0  0
M  END
>  <MODEL>
3

>  <REMARK>
 VINA RESULT:     -11.2      2.492      5.732
  Name = 
  1 active torsions:
  status: ('A' for Active; 'I' for Inactive)
    1  A    between atoms: C_9  and  C_15
                            x       y       z     vdW  Elec       q    Type
                         _______ _______ _______ _____ _____    ______ ____

>  <TORSDO>
F 1

$$$$
=
 OpenBabel10262420053D

 27 31  0  0  0  0  0  0  0  0999 V2000
  187.6840  177.8810  145.2560 N   0  0  0  0  0  0  0  0  0  0  0  0
  189.2070  177.5080  143.3300 C   0  0  0  0  0  0  0  0  0  0  0  0
  186.8740  178.0110  142.4680 N   0  0  0  0  0  0  0  0  0  0  0  0
  190.5340  177.4900  139.4030 C   0  0  0  0  0  3  0  0  0  0  0  0
  190.1480  177.7280  137.0030 F   0  0  0  0  0  0  0  0  0  0  0  0
  190.5040  177.2660  142.9720 N   0  0  0  0  0  0  0  0  0  0  0  0
  187.7390  178.0280  139.8270 C   0  0  0  0  0  3  0  0  0  0  0  0
  183.8170  178.7210  144.1800 C   0  0  0  0  0  0  0  0  0  0  0  0
  188.3510  177.9970  138.4520 C   0  0  0  0  0  3  0  0  0  0  0  0
  182.4020  179.0030  143.8250 C   0  0  0  0  0  1  0  0  0  0  0  0
  188.7250  177.7610  140.9500 C   0  0  0  0  0  0  0  0  0  0  0  0
  188.9270  177.4970  144.6580 C   0  0  0  0  0  0  0  0  0  0  0  0
  189.6450  177.7460  138.2600 C   0  0  0  0  0  0  0  0  0  0  0  0
  190.0760  177.5030  140.6570 C   0  0  0  0  0  0  0  0  0  0  0  0
  186.4980  178.1760  144.8340 C   0  0  0  0  0  0  0  0  0  0  0  0
  188.2730  177.7690  142.2910 C   0  0  0  0  0  0  0  0  0  0  0  0
  184.7490  178.4540  143.1790 C   0  0  0  0  0  2  0  0  0  0  0  0
  190.9530  177.2560  141.6960 C   0  0  0  0  0  3  0  0  0  0  0  0
  184.2210  178.7330  145.5100 C   0  0  0  0  0  3  0  0  0  0  0  0
  185.5490  178.4600  145.8280 C   0  0  0  0  0  3  0  0  0  0  0  0
  186.0920  178.1890  143.4830 C   0  0  0  0  0  0  0  0  0  0  0  0
  191.8400  176.3780  147.5730 C   0  0  0  0  0  3  0  0  0  0  0  0
  189.9730  177.1270  145.6480 C   0  0  0  0  0  0  0  0  0  0  0  0
  191.1000  176.3750  145.2820 C   0  0  0  0  0  3  0  0  0  0  0  0
  192.0400  176.0030  146.2430 C   0  0  0  0  0  3  0  0  0  0  0  0
  190.7350  177.0910  147.9210 N   0  0  0  0  0  0  0  0  0  0  0  0
  189.8070  177.4630  146.9990 C   0  0  0  0  0  3  0  0  0  0  0  0
  2 12  1  0  0  0  0
  3 21  2  0  0  0  0
  4 14  1  0  0  0  0
  5 13  1  0  0  0  0
  6  2  1  0  0  0  0
  7 11  1  0  0  0  0
  8 19  2  0  0  0  0
  9  7  2  0  0  0  0
 10  8  1  0  0  0  0
 11 16  1  0  0  0  0
 12  1  2  0  0  0  0
 12 23  1  0  0  0  0
 13  9  1  0  0  0  0
 13  4  2  0  0  0  0
 14 11  2  0  0  0  0
 14 18  1  0  0  0  0
 15  1  1  0  0  0  0
 15 20  2  0  0  0  0
 16  3  1  0  0  0  0
 16  2  2  0  0  0  0
 17 21  1  0  0  0  0
 17  8  1  0  0  0  0
 18  6  2  0  0  0  0
 19 20  1  0  0  0  0
 21 15  1  0  0  0  0
 22 26  1  0  0  0  0
 23 27  1  0  0  0  0
 24 23  2  0  0  0  0
 24 25  1  0  0  0  0
 25 22  2  0  0  0  0
 27 26  2  0  0  0  0
M  END
>  <MODEL>
4

>  <REMARK>
 VINA RESULT:     -11.2      2.536      6.955
  Name = 
  1 active torsions:
  status: ('A' for Active; 'I' for Inactive)
    1  A    between atoms: C_9  and  C_15
                            x       y       z     vdW  Elec       q    Type
                         _______ _______ _______ _____ _____    ______ ____

>  <TORSDO>
F 1

$$$$
=
 OpenBabel10262420053D

 27 31  0  0  1  0  0  0  0  0999 V2000
  189.7740  177.6550  141.9040 N   0  0  0  0  0  0  0  0  0  0  0  0
  187.3660  178.1050  141.4920 C   0  0  0  0  0  0  0  0  0  0  0  0
  187.7370  177.7360  143.9760 N   0  0  0  0  0  0  0  0  0  0  0  0
  183.4070  179.0030  142.3310 C   0  0  0  0  0  3  0  0  0  0  0  0
  181.5580  179.3090  143.8970 F   0  0  0  0  0  0  0  0  0  0  0  0
  186.4460  178.4280  140.5340 N   0  0  0  0  0  0  0  0  0  0  0  0
  185.0940  178.3560  144.5700 C   0  0  0  0  0  3  0  0  0  0  0  0
  190.6950  177.0140  145.8480 C   0  0  0  0  0  0  0  0  0  0  0  0
  183.6390  178.7050  144.7350 C   0  0  0  0  0  3  0  0  0  0  0  0
  191.0600  176.7530  147.2650 C   0  0  0  0  0  1  0  0  0  0  0  0
  185.5790  178.3860  143.1320 C   0  0  0  0  0  0  0  0  0  0  0  0
  188.6300  177.8510  141.0660 C   0  0  0  0  0  0  0  0  0  0  0  0
  182.8610  179.0030  143.6960 C   0  0  0  0  0  0  0  0  0  0  0  0
  184.6870  178.7090  142.0920 C   0  0  0  0  0  0  0  0  0  0  0  0
  189.9880  177.5020  143.1700 C   0  0  2  0  0  3  0  0  0  0  0  0
  186.9310  178.0820  142.8450 C   0  0  0  0  0  0  0  0  0  0  0  0
  189.3650  177.2360  145.4970 C   0  0  0  0  0  3  0  0  0  0  0  0
  185.1500  178.7230  140.7910 C   0  0  0  0  0  3  0  0  0  0  0  0
  191.6800  177.0500  144.8680 C   0  0  0  0  0  3  0  0  0  0  0  0
  191.3230  177.2900  143.5430 C   0  0  0  0  0  3  0  0  0  0  0  0
  188.9920  177.4900  144.1700 C   0  0  0  0  0  0  0  0  0  0  0  0
  189.4340  177.6960  136.8750 C   0  0  0  0  0  3  0  0  0  0  0  0
  188.9460  177.8240  139.6130 C   0  0  0  0  0  0  0  0  0  0  0  0
  189.0430  179.0030  138.8590 C   0  0  0  0  0  3  0  0  0  0  0  0
  189.2950  178.9430  137.4880 C   0  0  0  0  0  3  0  0  0  0  0  0
  189.3190  176.5580  137.6120 N   0  0  0  0  0  0  0  0  0  0  0  0
  189.0750  176.5970  138.9490 C   0  0  0  0  0  3  0  0  0  0  0  0
  1 15  1  0  0  0  0
  2 16  1  0  0  0  0
  3 21  2  0  0  0  0
  4 13  2  0  0  0  0
  6 18  1  0  0  0  0
  6  2  2  0  0  0  0
  7  9  2  0  0  0  0
  8 10  1  0  0  0  0
 11  7  1  0  0  0  0
 12  2  1  0  0  0  0
 12  1  2  0  0  0  0
 13  5  1  0  0  0  0
 13  9  1  0  0  0  0
 14  4  1  0  0  0  0
 14 11  1  0  0  0  0
 15 20  1  6  0  0  0
 15 21  1  0  0  0  0
 16 11  2  0  0  0  0
 16  3  1  0  0  0  0
 17  8  2  0  0  0  0
 18 14  2  0  0  0  0
 19  8  1  0  0  0  0
 20 19  2  0  0  0  0
 21 17  1  0  0  0  0
 22 25  2  0  0  0  0
 22 26  1  0  0  0  0
 23 12  1  0  0  0  0
 24 23  2  0  0  0  0
 25 24  1  0  0  0  0
 26 27  2  0  0  0  0
 27 23  1  0  0  0  0
M  END
>  <MODEL>
5

>  <REMARK>
 VINA RESULT:     -11.0      2.651      6.651
  Name = 
  1 active torsions:
  status: ('A' for Active; 'I' for Inactive)
    1  A    between atoms: C_9  and  C_15
                            x       y       z     vdW  Elec       q    Type
                         _______ _______ _______ _____ _____    ______ ____

>  <TORSDO>
F 1

$$$$
=
 OpenBabel10262420053D

 27 31  0  0  1  0  0  0  0  0999 V2000
  188.8340  177.8900  143.3160 N   0  0  0  0  0  0  0  0  0  0  0  0
  186.7300  178.1850  142.0280 C   0  0  0  0  0  0  0  0  0  0  0  0
  186.1890  178.0770  144.5050 N   0  0  0  0  0  0  0  0  0  0  0  0
  182.7260  178.9740  141.3000 C   0  0  0  0  0  3  0  0  0  0  0  0
  180.4360  179.3460  142.0630 F   0  0  0  0  0  0  0  0  0  0  0  0
  186.2120  178.3700  140.7760 N   0  0  0  0  0  0  0  0  0  0  0  0
  183.5030  178.6290  144.0490 C   0  0  0  0  0  3  0  0  0  0  0  0
  188.2830  177.6810  147.3740 C   0  0  0  0  0  0  0  0  0  0  0  0
  182.0820  178.9240  143.6470 C   0  0  0  0  0  3  0  0  0  0  0  0
  188.1170  177.5760  148.8470 C   0  0  0  0  0  1  0  0  0  0  0  0
  184.4710  178.5400  142.8830 C   0  0  0  0  0  0  0  0  0  0  0  0
  188.0650  177.9500  142.1100 C   0  0  0  0  0  0  0  0  0  0  0  0
  181.7270  179.0820  142.3730 C   0  0  0  0  0  0  0  0  0  0  0  0
  184.0090  178.7190  141.5670 C   0  0  0  0  0  0  0  0  0  0  0  0
  188.5800  177.8720  144.5840 C   0  0  2  0  0  3  0  0  0  0  0  0
  185.8380  178.2730  143.1310 C   0  0  0  0  0  0  0  0  0  0  0  0
  187.1660  177.8050  146.5510 C   0  0  0  0  0  3  0  0  0  0  0  0
  184.9080  178.6270  140.5220 C   0  0  0  0  0  3  0  0  0  0  0  0
  189.5540  177.6660  146.8110 C   0  0  0  0  0  3  0  0  0  0  0  0
  189.6940  177.7590  145.4280 C   0  0  0  0  0  3  0  0  0  0  0  0
  187.2920  177.9100  145.1580 C   0  0  0  0  0  0  0  0  0  0  0  0
  190.3730  177.3840  138.5620 C   0  0  0  0  0  3  0  0  0  0  0  0
  188.8810  177.7960  140.8760 C   0  0  0  0  0  0  0  0  0  0  0  0
  188.6790  178.6120  139.7530 C   0  0  0  0  0  3  0  0  0  0  0  0
  189.4290  178.4120  138.5940 C   0  0  0  0  0  3  0  0  0  0  0  0
  190.5480  176.5860  139.6490 N   0  0  0  0  0  0  0  0  0  0  0  0
  189.8270  176.7650  140.7890 C   0  0  0  0  0  3  0  0  0  0  0  0
  1 15  1  0  0  0  0
  2 12  1  0  0  0  0
  2 16  1  0  0  0  0
  3 21  2  0  0  0  0
  4 14  1  0  0  0  0
  4 13  2  0  0  0  0
  5 13  1  0  0  0  0
  6  2  2  0  0  0  0
  8 10  1  0  0  0  0
  9  7  2  0  0  0  0
 11 16  2  0  0  0  0
 11  7  1  0  0  0  0
 12  1  2  0  0  0  0
 13  9  1  0  0  0  0
 14 11  1  0  0  0  0
 15 21  1  0  0  0  0
 15 20  1  6  0  0  0
 16  3  1  0  0  0  0
 17  8  2  0  0  0  0
 18  6  1  0  0  0  0
 18 14  2  0  0  0  0
 19  8  1  0  0  0  0
 20 19  2  0  0  0  0
 21 17  1  0  0  0  0
 22 25  2  0  0  0  0
 22 26  1  0  0  0  0
 23 12  1  0  0  0  0
 24 23  2  0  0  0  0
 25 24  1  0  0  0  0
 26 27  2  0  0  0  0
 27 23  1  0  0  0  0
M  END
>  <MODEL>
6

>  <REMARK>
 VINA RESULT:     -10.7      2.958      7.408
  Name = 
  1 active torsions:
  status: ('A' for Active; 'I' for Inactive)
    1  A    between atoms: C_9  and  C_15
                            x       y       z     vdW  Elec       q    Type
                         _______ _______ _______ _____ _____    ______ ____

>  <TORSDO>
F 1

$$$$
=
 OpenBabel10262420053D

 27 31  0  0  0  0  0  0  0  0999 V2000
  186.7060  178.4290  139.9710 N   0  0  0  0  0  0  0  0  0  0  0  0
  186.0040  178.3540  142.3530 C   0  0  0  0  0  0  0  0  0  0  0  0
  188.4100  177.5690  142.1630 N   0  0  0  0  0  0  0  0  0  0  0  0
  186.3500  178.0570  146.4740 C   0  0  0  0  0  3  0  0  0  0  0  0
  187.6320  177.5640  148.4930 F   0  0  0  0  0  0  0  0  0  0  0  0
  184.9850  178.6370  143.2190 N   0  0  0  0  0  0  0  0  0  0  0  0
  188.6780  177.3840  144.9230 C   0  0  0  0  0  2  0  0  0  0  0  0
  190.5700  177.2120  139.3380 C   0  0  0  0  0  0  0  0  0  0  0  0
  188.6700  177.3240  146.4270 C   0  0  0  0  0  3  0  0  0  0  0  0
  191.9580  176.7530  139.0690 C   0  0  0  0  0  1  0  0  0  0  0  0
  187.3630  177.8350  144.3140 C   0  0  0  0  0  0  0  0  0  0  0  0
  185.7450  178.5120  141.0300 C   0  0  0  0  0  0  0  0  0  0  0  0
  187.5890  177.6350  147.1410 C   0  0  0  0  0  0  0  0  0  0  0  0
  186.2690  178.1430  145.1430 C   0  0  0  0  0  0  0  0  0  0  0  0
  187.9430  178.0680  139.8610 C   0  0  0  0  0  0  0  0  0  0  0  0
  187.2450  177.9380  142.9080 C   0  0  0  0  0  0  0  0  0  0  0  0
  190.0580  177.1710  140.6330 C   0  0  0  0  0  3  0  0  0  0  0  0
  185.0810  178.5450  144.5650 C   0  0  0  0  0  3  0  0  0  0  0  0
  189.7800  177.6940  138.3000 C   0  0  0  0  0  3  0  0  0  0  0  0
  188.4790  178.1140  138.5660 C   0  0  0  0  0  3  0  0  0  0  0  0
  188.7540  177.6010  140.9170 C   0  0  0  0  0  0  0  0  0  0  0  0
  181.8490  179.4910  139.5810 C   0  0  0  0  0  3  0  0  0  0  0  0
  184.3790  178.8720  140.5650 C   0  0  0  0  0  0  0  0  0  0  0  0
  183.2320  178.4470  141.2530 C   0  0  0  0  0  3  0  0  0  0  0  0
  181.9630  178.7610  140.7660 C   0  0  0  0  0  3  0  0  0  0  0  0
  182.9670  179.8830  138.9120 N   0  0  0  0  0  0  0  0  0  0  0  0
  184.2130  179.5870  139.3710 C   0  0  0  0  0  3  0  0  0  0  0  0
  1 12  1  0  0  0  0
  2 16  1  0  0  0  0
  2  6  1  0  0  0  0
  3 16  1  0  0  0  0
  4 13  1  0  0  0  0
  6 18  2  0  0  0  0
  7  9  1  0  0  0  0
  8 17  2  0  0  0  0
  9 13  2  0  0  0  0
 10  8  1  0  0  0  0
 11  7  1  0  0  0  0
 11 14  1  0  0  0  0
 12  2  2  0  0  0  0
 13  5  1  0  0  0  0
 14  4  2  0  0  0  0
 15  1  2  0  0  0  0
 15 21  1  0  0  0  0
 16 11  2  0  0  0  0
 17 21  1  0  0  0  0
 18 14  1  0  0  0  0
 19 20  2  0  0  0  0
 19  8  1  0  0  0  0
 20 15  1  0  0  0  0
 21  3  2  0  0  0  0
 22 25  1  0  0  0  0
 23 12  1  0  0  0  0
 23 24  1  0  0  0  0
 25 24  2  0  0  0  0
 26 27  1  0  0  0  0
 26 22  2  0  0  0  0
 27 23  2  0  0  0  0
M  END
>  <MODEL>
7

>  <REMARK>
 VINA RESULT:     -10.6      1.939      2.888
  Name = 
  1 active torsions:
  status: ('A' for Active; 'I' for Inactive)
    1  A    between atoms: C_9  and  C_15
                            x       y       z     vdW  Elec       q    Type
                         _______ _______ _______ _____ _____    ______ ____

>  <TORSDO>
F 1

$$$$
=
 OpenBabel10262420053D

 27 31  0  0  0  0  0  0  0  0999 V2000
  187.5140  177.4870  145.2830 N   0  0  0  0  0  0  0  0  0  0  0  0
  187.5720  177.8380  142.8240 C   0  0  0  0  0  0  0  0  0  0  0  0
  189.8960  177.2230  143.6390 N   0  0  0  0  0  0  0  0  0  0  0  0
  189.0300  177.7530  138.9440 C   0  0  0  0  0  3  0  0  0  0  0  0
  190.8340  177.4100  137.3330 F   0  0  0  0  0  0  0  0  0  0  0  0
  186.8080  178.1120  141.7240 N   0  0  0  0  0  0  0  0  0  0  0  0
  190.8960  177.1350  141.0460 C   0  0  0  0  0  3  0  0  0  0  0  0
  191.1420  176.4740  146.9040 C   0  0  0  0  0  0  0  0  0  0  0  0
  191.2930  177.1350  139.5940 C   0  0  0  0  0  3  0  0  0  0  0  0
  192.4460  176.1300  147.5280 C   0  0  0  0  0  1  0  0  0  0  0  0
  189.4370  177.4790  141.2890 C   0  0  0  0  0  0  0  0  0  0  0  0
  186.9510  177.8910  144.0300 C   0  0  0  0  0  0  0  0  0  0  0  0
  190.4270  177.4230  138.6250 C   0  0  0  0  0  0  0  0  0  0  0  0
  188.5900  177.7720  140.2050 C   0  0  0  0  0  0  0  0  0  0  0  0
  188.6830  177.1350  145.7090 C   0  0  0  0  0  0  0  0  0  0  0  0
  188.9380  177.5060  142.6130 C   0  0  0  0  0  0  0  0  0  0  0  0
  191.0670  176.7340  145.5370 C   0  0  0  0  0  2  0  0  0  0  0  0
  187.2690  178.0880  140.4520 C   0  0  0  0  0  3  0  0  0  0  0  0
  189.9890  176.5270  147.6780 C   0  0  0  0  0  3  0  0  0  0  0  0
  188.7740  176.8570  147.0810 C   0  0  0  0  0  3  0  0  0  0  0  0
  189.8500  177.0570  144.9200 C   0  0  0  0  0  0  0  0  0  0  0  0
  182.9250  179.2750  144.3710 C   0  0  0  0  0  3  0  0  0  0  0  0
  185.5350  178.3340  144.1300 C   0  0  0  0  0  0  0  0  0  0  0  0
  184.6970  178.3830  143.0060 C   0  0  0  0  0  3  0  0  0  0  0  0
  183.3870  178.8480  143.1240 C   0  0  0  0  0  3  0  0  0  0  0  0
  183.7510  179.2410  145.4510 N   0  0  0  0  0  0  0  0  0  0  0  0
  185.0310  178.7910  145.3560 C   0  0  0  0  0  3  0  0  0  0  0  0
  1 15  1  0  0  0  0
  2 12  1  0  0  0  0
  3 21  2  0  0  0  0
  4 14  1  0  0  0  0
  5 13  1  0  0  0  0
  6  2  2  0  0  0  0
  7 11  1  0  0  0  0
  8 10  1  0  0  0  0
  8 19  2  0  0  0  0
  9  7  2  0  0  0  0
 11 16  2  0  0  0  0
 12 23  1  0  0  0  0
 12  1  2  0  0  0  0
 13  4  2  0  0  0  0
 13  9  1  0  0  0  0
 14 18  2  0  0  0  0
 14 11  1  0  0  0  0
 15 20  2  0  0  0  0
 16  2  1  0  0  0  0
 16  3  1  0  0  0  0
 17  8  1  0  0  0  0
 18  6  1  0  0  0  0
 20 19  1  0  0  0  0
 21 17  1  0  0  0  0
 21 15  1  0  0  0  0
 22 26  1  0  0  0  0
 23 27  1  0  0  0  0
 24 25  1  0  0  0  0
 24 23  2  0  0  0  0
 25 22  2  0  0  0  0
 27 26  2  0  0  0  0
M  END
>  <MODEL>
8

>  <REMARK>
 VINA RESULT:     -10.5      2.351      5.584
  Name = 
  1 active torsions:
  status: ('A' for Active; 'I' for Inactive)
    1  A    between atoms: C_9  and  C_15
                            x       y       z     vdW  Elec       q    Type
                         _______ _______ _______ _____ _____    ______ ____

>  <TORSDO>
F 1

$$$$
=
 OpenBabel10262420053D

 27 31  0  0  0  0  0  0  0  0999 V2000
  186.3490  178.5500  139.2440 N   0  0  0  0  0  0  0  0  0  0  0  0
  185.0130  178.5950  141.3370 C   0  0  0  0  0  0  0  0  0  0  0  0
  187.4140  177.9860  141.8890 N   0  0  0  0  0  0  0  0  0  0  0  0
  184.2040  178.6280  145.4030 C   0  0  0  0  0  3  0  0  0  0  0  0
  184.8930  178.3850  147.7330 F   0  0  0  0  0  0  0  0  0  0  0  0
  183.7780  178.8620  141.8600 N   0  0  0  0  0  2  0  0  0  0  0  0
  186.9070  178.0250  144.6210 C   0  0  0  0  0  3  0  0  0  0  0  0
  190.2960  177.5920  139.8110 C   0  0  0  0  0  0  0  0  0  0  0  0
  186.4800  178.0750  146.0640 C   0  0  0  0  0  3  0  0  0  0  0  0
  191.7260  177.2230  139.9780 C   0  0  0  0  0  1  0  0  0  0  0  0
  185.7930  178.3270  143.6350 C   0  0  0  0  0  0  0  0  0  0  0  0
  185.1270  178.6360  139.9850 C   0  0  0  0  0  0  0  0  0  0  0  0
  185.2280  178.3530  146.4210 C   0  0  0  0  0  0  0  0  0  0  0  0
  184.4960  178.6100  144.1000 C   0  0  0  0  0  0  0  0  0  0  0  0
  187.5850  178.2790  139.5110 C   0  0  0  0  0  0  0  0  0  0  0  0
  186.0690  178.3190  142.2470 C   0  0  0  0  0  0  0  0  0  0  0  0
  189.4440  177.6070  140.9140 C   0  0  0  0  0  3  0  0  0  0  0  0
  183.4970  178.8760  143.1830 C   0  0  0  0  0  3  0  0  0  0  0  0
  189.8040  177.9350  138.5570 C   0  0  0  0  0  3  0  0  0  0  0  0
  188.4590  178.2710  138.4150 C   0  0  0  0  0  3  0  0  0  0  0  0
  188.0910  177.9540  140.7880 C   0  0  0  0  0  0  0  0  0  0  0  0
  181.6250  179.1680  137.6000 C   0  0  0  0  0  3  0  0  0  0  0  0
  183.9290  178.8540  139.1320 C   0  0  0  0  0  0  0  0  0  0  0  0
  183.3150  180.1110  139.0330 C   0  0  0  0  0  3  0  0  0  0  0  0
  182.1640  180.2740  138.2610 C   0  0  0  0  0  3  0  0  0  0  0  0
  182.2180  177.9490  137.7180 N   0  0  0  0  0  0  0  0  0  0  0  0
  183.3400  177.7710  138.4650 C   0  0  0  0  0  3  0  0  0  0  0  0
  1 15  2  0  0  0  0
  1 12  1  0  0  0  0
  2  6  1  0  0  0  0
  2 16  1  0  0  0  0
  3 16  1  0  0  0  0
  4 13  2  0  0  0  0
  6 18  1  0  0  0  0
  7  9  2  0  0  0  0
  8 10  1  0  0  0  0
  8 17  2  0  0  0  0
  9 13  1  0  0  0  0
 11 14  1  0  0  0  0
 11  7  1  0  0  0  0
 12  2  2  0  0  0  0
 13  5  1  0  0  0  0
 14  4  1  0  0  0  0
 15 21  1  0  0  0  0
 16 11  2  0  0  0  0
 18 14  2  0  0  0  0
 19  8  1  0  0  0  0
 20 19  2  0  0  0  0
 20 15  1  0  0  0  0
 21 17  1  0  0  0  0
 21  3  2  0  0  0  0
 22 26  2  0  0  0  0
 22 25  1  0  0  0  0
 23 12  1  0  0  0  0
 24 23  1  0  0  0  0
 25 24  2  0  0  0  0
 26 27  1  0  0  0  0
 27 23  2  0  0  0  0
M  END
>  <MODEL>
9

>  <REMARK>
 VINA RESULT:     -10.4      2.779      4.499
  Name = 
  1 active torsions:
  status: ('A' for Active; 'I' for Inactive)
    1  A    between atoms: C_9  and  C_15
                            x       y       z     vdW  Elec       q    Type
                         _______ _______ _______ _____ _____    ______ ____

>  <TORSDO>
F 1

$$$$
