=
 OpenBabel10262421333D

 32 36  0  0  1  0  0  0  0  0999 V2000
  190.9390  176.3780  140.4480 N   0  0  0  0  0  0  0  0  0  0  0  0
  186.5100  178.4050  141.8040 C   0  0  0  0  0  0  0  0  0  0  0  0
  186.0900  177.6750  146.5910 C   0  0  0  0  0  3  0  0  0  0  0  0
  184.8180  178.2450  146.5550 C   0  0  0  0  0  3  0  0  0  0  0  0
  188.5020  177.7470  140.5900 C   0  0  0  0  0  0  0  0  0  0  0  0
  188.3630  177.3660  142.9830 C   0  0  0  0  0  3  0  0  0  0  0  0
  190.4860  176.7340  141.7960 C   0  0  0  0  0  0  0  0  0  0  0  0
  186.8440  177.5660  145.4210 C   0  0  0  0  0  3  0  0  0  0  0  0
  187.0750  177.9260  143.0060 C   0  0  0  0  0  0  0  0  0  0  0  0
  186.3310  178.0280  144.1960 C   0  0  0  0  0  0  0  0  0  0  0  0
  184.5260  179.0720  142.9350 C   0  0  0  0  0  0  0  0  0  0  0  0
  190.3690  176.9450  139.2610 C   0  0  0  0  0  3  0  0  0  0  0  0
  189.0780  177.2730  141.7840 C   0  0  0  0  0  0  0  0  0  0  0  0
  189.2180  177.6100  139.3150 C   0  0  0  0  0  3  0  0  0  0  0  0
  184.2940  178.7100  145.3460 C   0  0  0  0  0  3  0  0  0  0  0  0
  185.0380  178.6070  144.1610 C   0  0  0  0  0  0  0  0  0  0  0  0
  187.2240  178.3110  140.6060 C   0  0  0  0  0  3  0  0  0  0  0  0
  185.2680  178.9540  141.8020 N   0  0  0  0  0  0  0  0  0  0  0  0
  191.4250  177.7700  142.3930 C   0  0  0  0  0  2  0  0  0  0  0  0
  191.6130  176.5620  144.5940 C   0  0  0  0  0  0  0  0  0  0  0  0
  191.3350  177.7430  143.8440 N   0  0  0  0  0  2  0  0  0  0  0  0
  191.9490  175.4960  144.0130 O   0  0  0  0  0  0  0  0  0  0  0  0
  191.5070  176.5900  146.0760 C   0  0  0  0  0  1  0  0  0  0  0  0
  183.1520  179.6620  142.8330 C   0  0  0  0  0  2  0  0  0  0  0  0
  182.3280  178.7600  140.8170 C   0  0  2  0  0  3  0  0  0  0  0  0
  181.1650  179.5030  140.1450 C   0  0  0  0  0  2  0  0  0  0  0  0
  180.8860  179.0010  142.8150 C   0  0  1  0  0  3  0  0  0  0  0  0
  179.7860  178.3710  141.9660 C   0  0  0  0  0  2  0  0  0  0  0  0
  179.8060  178.9160  140.5370 C   0  0  0  0  0  2  0  0  0  0  0  0
  182.5050  177.3720  140.2270 C   0  0  0  0  0  1  0  0  0  0  0  0
  180.7630  178.5140  144.1790 N   0  0  0  0  0  1  0  0  0  0  0  0
  182.2240  178.6780  142.2890 N   0  0  0  0  0  0  0  0  0  0  0  0
  1  7  1  0  0  0  0
  2  9  1  0  0  0  0
  4  3  1  0  0  0  0
  5 17  1  0  0  0  0
  5 13  1  0  0  0  0
  6  9  2  0  0  0  0
  7 19  1  0  0  0  0
  8  3  2  0  0  0  0
  9 10  1  0  0  0  0
 10  8  1  0  0  0  0
 11 16  1  0  0  0  0
 12 14  1  0  0  0  0
 12  1  2  0  0  0  0
 13  7  2  0  0  0  0
 13  6  1  0  0  0  0
 14  5  2  0  0  0  0
 15  4  2  0  0  0  0
 16 10  2  0  0  0  0
 16 15  1  0  0  0  0
 17  2  2  0  0  0  0
 18  2  1  0  0  0  0
 18 11  2  0  0  0  0
 19 21  1  0  0  0  0
 20 23  1  0  0  0  0
 21 20  1  0  0  0  0
 22 20  2  0  0  0  0
 24 11  1  0  0  0  0
 25 30  1  6  0  0  0
 25 32  1  0  0  0  0
 26 29  1  0  0  0  0
 26 25  1  0  0  0  0
 27 31  1  1  0  0  0
 28 27  1  0  0  0  0
 29 28  1  0  0  0  0
 32 27  1  0  0  0  0
 32 24  1  0  0  0  0
M  END
>  <MODEL>
1

>  <REMARK>
 VINA RESULT:      -9.8      0.000      0.000
  Name = 
  4 active torsions:
  status: ('A' for Active; 'I' for Inactive)
    1  A    between atoms: N_10  and  C_24
    2  A    between atoms: C_12  and  C_24
    3  A    between atoms: C_16  and  C_27
    4  A    between atoms: C_27  and  N_32
                            x       y       z     vdW  Elec       q    Type
                         _______ _______ _______ _____ _____    ______ ____

>  <TORSDO>
F 4

$$$$
=
 OpenBabel10262421333D

 32 36  0  0  1  0  0  0  0  0999 V2000
  190.8250  176.3240  143.7050 N   0  0  0  0  0  0  0  0  0  0  0  0
  186.9060  178.3270  141.2180 C   0  0  0  0  0  0  0  0  0  0  0  0
  183.2480  178.5650  144.4120 C   0  0  0  0  0  3  0  0  0  0  0  0
  182.4130  179.0420  143.4020 C   0  0  0  0  0  3  0  0  0  0  0  0
  189.1080  177.5510  141.8670 C   0  0  0  0  0  0  0  0  0  0  0  0
  187.3300  177.6580  143.5150 C   0  0  0  0  0  3  0  0  0  0  0  0
  189.6110  176.9210  144.2690 C   0  0  0  0  0  0  0  0  0  0  0  0
  184.5830  178.2640  144.1340 C   0  0  0  0  0  3  0  0  0  0  0  0
  186.4410  178.1360  142.5390 C   0  0  0  0  0  0  0  0  0  0  0  0
  185.0990  178.4360  142.8380 C   0  0  0  0  0  0  0  0  0  0  0  0
  184.7660  179.0950  140.5150 C   0  0  0  0  0  0  0  0  0  0  0  0
  191.2850  176.6040  142.3770 C   0  0  0  0  0  3  0  0  0  0  0  0
  188.6570  177.3640  143.1880 C   0  0  0  0  0  0  0  0  0  0  0  0
  190.4840  177.1990  141.4960 C   0  0  0  0  0  3  0  0  0  0  0  0
  182.9100  179.2190  142.1080 C   0  0  0  0  0  3  0  0  0  0  0  0
  184.2490  178.9200  141.8130 C   0  0  0  0  0  0  0  0  0  0  0  0
  188.2310  178.0320  140.8910 C   0  0  0  0  0  3  0  0  0  0  0  0
  186.0660  178.7910  140.2580 N   0  0  0  0  0  0  0  0  0  0  0  0
  189.9830  178.1090  145.1410 C   0  0  0  0  0  2  0  0  0  0  0  0
  189.3110  177.6340  147.5210 C   0  0  0  0  0  0  0  0  0  0  0  0
  189.0480  178.2230  146.2490 N   0  0  0  0  0  2  0  0  0  0  0  0
  190.3750  176.9900  147.7230 O   0  0  0  0  0  0  0  0  0  0  0  0
  188.3200  177.7810  148.6190 C   0  0  0  0  0  1  0  0  0  0  0  0
  183.9050  179.5720  139.3860 C   0  0  0  0  0  2  0  0  0  0  0  0
  183.2800  177.4500  138.5710 C   0  0  2  0  0  3  0  0  0  0  0  0
  182.9640  177.3440  137.0730 C   0  0  0  0  0  2  0  0  0  0  0  0
  181.7620  179.3990  138.4100 C   0  0  1  0  0  3  0  0  0  0  0  0
  180.7680  178.4380  137.7660 C   0  0  0  0  0  2  0  0  0  0  0  0
  181.4660  177.4880  136.7910 C   0  0  0  0  0  2  0  0  0  0  0  0
  182.7910  176.2240  139.3220 C   0  0  0  0  0  1  0  0  0  0  0  0
  181.0330  180.3300  139.2560 N   0  0  0  0  0  1  0  0  0  0  0  0
  182.7660  178.6780  139.2120 N   0  0  0  0  0  0  0  0  0  0  0  0
  1  7  1  0  0  0  0
  2  9  1  0  0  0  0
  4  3  2  0  0  0  0
  5 13  1  0  0  0  0
  7 19  1  0  0  0  0
  8  3  1  0  0  0  0
  9 10  1  0  0  0  0
  9  6  2  0  0  0  0
 10  8  2  0  0  0  0
 11 16  1  0  0  0  0
 12  1  2  0  0  0  0
 13  6  1  0  0  0  0
 13  7  2  0  0  0  0
 14  5  2  0  0  0  0
 14 12  1  0  0  0  0
 15  4  1  0  0  0  0
 16 15  2  0  0  0  0
 16 10  1  0  0  0  0
 17  2  2  0  0  0  0
 17  5  1  0  0  0  0
 18 11  2  0  0  0  0
 18  2  1  0  0  0  0
 19 21  1  0  0  0  0
 20 22  2  0  0  0  0
 20 23  1  0  0  0  0
 21 20  1  0  0  0  0
 24 11  1  0  0  0  0
 25 32  1  0  0  0  0
 25 30  1  1  0  0  0
 26 25  1  0  0  0  0
 27 32  1  0  0  0  0
 27 31  1  1  0  0  0
 28 27  1  0  0  0  0
 29 26  1  0  0  0  0
 29 28  1  0  0  0  0
 32 24  1  0  0  0  0
M  END
>  <MODEL>
2

>  <REMARK>
 VINA RESULT:      -9.6      2.135      3.156
  Name = 
  4 active torsions:
  status: ('A' for Active; 'I' for Inactive)
    1  A    between atoms: N_10  and  C_24
    2  A    between atoms: C_12  and  C_24
    3  A    between atoms: C_16  and  C_27
    4  A    between atoms: C_27  and  N_32
                            x       y       z     vdW  Elec       q    Type
                         _______ _______ _______ _____ _____    ______ ____

>  <TORSDO>
F 4

$$$$
=
 OpenBabel10262421333D

 32 36  0  0  1  0  0  0  0  0999 V2000
  180.0660  178.4060  142.3600 N   0  0  0  0  0  0  0  0  0  0  0  0
  185.1130  178.6660  142.1920 C   0  0  0  0  0  0  0  0  0  0  0  0
  186.3460  178.1340  137.5200 C   0  0  0  0  0  3  0  0  0  0  0  0
  187.6920  178.1710  137.8840 C   0  0  0  0  0  3  0  0  0  0  0  0
  182.7940  178.7440  142.8910 C   0  0  0  0  0  0  0  0  0  0  0  0
  183.3400  178.4910  140.5400 C   0  0  0  0  0  3  0  0  0  0  0  0
  180.9180  178.6460  141.1910 C   0  0  0  0  0  0  0  0  0  0  0  0
  185.3530  178.2490  138.4950 C   0  0  0  0  0  3  0  0  0  0  0  0
  184.7100  178.5160  140.8460 C   0  0  0  0  0  0  0  0  0  0  0  0
  185.6970  178.4010  139.8500 C   0  0  0  0  0  0  0  0  0  0  0  0
  187.4090  178.5920  141.5730 C   0  0  0  0  0  0  0  0  0  0  0  0
  180.5080  178.6360  143.7040 C   0  0  0  0  0  3  0  0  0  0  0  0
  182.3810  178.6040  141.5520 C   0  0  0  0  0  0  0  0  0  0  0  0
  181.8000  178.8120  143.9700 C   0  0  0  0  0  3  0  0  0  0  0  0
  188.0510  178.3220  139.2250 C   0  0  0  0  0  3  0  0  0  0  0  0
  187.0650  178.4370  140.2170 C   0  0  0  0  0  0  0  0  0  0  0  0
  184.1550  178.7760  143.2030 C   0  0  0  0  0  3  0  0  0  0  0  0
  186.4320  178.6960  142.5130 N   0  0  0  0  0  0  0  0  0  0  0  0
  180.5810  179.9980  140.5830 C   0  0  0  0  0  2  0  0  0  0  0  0
  181.1360  180.4540  138.1690 C   0  0  0  0  0  0  0  0  0  0  0  0
  180.3100  179.8490  139.1620 N   0  0  0  0  0  2  0  0  0  0  0  0
  182.1370  181.1430  138.4990 O   0  0  0  0  0  0  0  0  0  0  0  0
  180.8120  180.2690  136.7300 C   0  0  0  0  0  1  0  0  0  0  0  0
  188.8380  178.6040  142.0230 C   0  0  0  0  0  2  0  0  0  0  0  0
  189.0940  177.9890  144.2840 C   0  0  2  0  0  3  0  0  0  0  0  0
  190.4910  178.1520  144.8970 C   0  0  0  0  0  2  0  0  0  0  0  0
  190.3800  176.8760  142.4850 C   0  0  1  0  0  3  0  0  0  0  0  0
  190.9820  176.0180  143.5920 C   0  0  0  0  0  2  0  0  0  0  0  0
  191.3010  176.8530  144.8330 C   0  0  0  0  0  2  0  0  0  0  0  0
  188.2060  177.1280  145.1650 C   0  0  0  0  0  1  0  0  0  0  0  0
  190.1800  176.0500  141.3060 N   0  0  0  0  0  1  0  0  0  0  0  0
  189.0960  177.4690  142.9010 N   0  0  0  0  0  0  0  0  0  0  0  0
  1 12  1  0  0  0  0
  2 18  1  0  0  0  0
  2 17  1  0  0  0  0
  3  4  2  0  0  0  0
  3  8  1  0  0  0  0
  4 15  1  0  0  0  0
  5 17  2  0  0  0  0
  5 14  1  0  0  0  0
  6  9  1  0  0  0  0
  6 13  2  0  0  0  0
  7 13  1  0  0  0  0
  7  1  2  0  0  0  0
  8 10  2  0  0  0  0
  9  2  2  0  0  0  0
 10 16  1  0  0  0  0
 10  9  1  0  0  0  0
 11 24  1  0  0  0  0
 11 18  2  0  0  0  0
 12 14  2  0  0  0  0
 13  5  1  0  0  0  0
 15 16  2  0  0  0  0
 16 11  1  0  0  0  0
 19  7  1  0  0  0  0
 20 22  2  0  0  0  0
 20 21  1  0  0  0  0
 21 19  1  0  0  0  0
 23 20  1  0  0  0  0
 24 32  1  0  0  0  0
 25 26  1  0  0  0  0
 25 30  1  1  0  0  0
 27 31  1  6  0  0  0
 27 32  1  0  0  0  0
 27 28  1  0  0  0  0
 28 29  1  0  0  0  0
 29 26  1  0  0  0  0
 32 25  1  0  0  0  0
M  END
>  <MODEL>
3

>  <REMARK>
 VINA RESULT:      -9.1      2.848      8.832
  Name = 
  4 active torsions:
  status: ('A' for Active; 'I' for Inactive)
    1  A    between atoms: N_10  and  C_24
    2  A    between atoms: C_12  and  C_24
    3  A    between atoms: C_16  and  C_27
    4  A    between atoms: C_27  and  N_32
                            x       y       z     vdW  Elec       q    Type
                         _______ _______ _______ _____ _____    ______ ____

>  <TORSDO>
F 4

$$$$
=
 OpenBabel10262421333D

 32 36  0  0  1  0  0  0  0  0999 V2000
  189.3390  178.0780  137.1460 N   0  0  0  0  0  0  0  0  0  0  0  0
  188.7170  177.2170  142.0880 C   0  0  0  0  0  0  0  0  0  0  0  0
  184.5410  179.3750  143.3290 C   0  0  0  0  0  3  0  0  0  0  0  0
  184.7630  179.0130  144.6580 C   0  0  0  0  0  3  0  0  0  0  0  0
  189.4970  177.1880  139.7940 C   0  0  0  0  0  0  0  0  0  0  0  0
  187.3960  178.2710  140.3430 C   0  0  0  0  0  3  0  0  0  0  0  0
  188.1100  178.2050  137.9350 C   0  0  0  0  0  0  0  0  0  0  0  0
  185.4650  179.0220  142.3430 C   0  0  0  0  0  3  0  0  0  0  0  0
  187.5680  177.9400  141.6970 C   0  0  0  0  0  0  0  0  0  0  0  0
  186.6250  178.3020  142.6760 C   0  0  0  0  0  0  0  0  0  0  0  0
  188.0100  177.2130  144.3610 C   0  0  0  0  0  0  0  0  0  0  0  0
  190.4520  177.2780  137.5640 C   0  0  0  0  0  3  0  0  0  0  0  0
  188.3510  177.9010  139.3910 C   0  0  0  0  0  0  0  0  0  0  0  0
  190.5350  176.8370  138.8160 C   0  0  0  0  0  3  0  0  0  0  0  0
  185.9110  178.2980  145.0060 C   0  0  0  0  0  3  0  0  0  0  0  0
  186.8490  177.9370  144.0270 C   0  0  0  0  0  0  0  0  0  0  0  0
  189.6730  176.8490  141.1380 C   0  0  0  0  0  3  0  0  0  0  0  0
  188.9040  176.8830  143.3910 N   0  0  0  0  0  0  0  0  0  0  0  0
  187.0510  177.2620  137.3850 C   0  0  0  0  0  2  0  0  0  0  0  0
  184.5380  177.1510  137.5140 C   0  0  0  0  0  0  0  0  0  0  0  0
  185.7460  177.9040  137.4270 N   0  0  0  0  0  2  0  0  0  0  0  0
  184.5670  175.8920  137.5570 O   0  0  0  0  0  0  0  0  0  0  0  0
  183.2320  177.8580  137.5530 C   0  0  0  0  0  1  0  0  0  0  0  0
  188.3140  176.8290  145.7760 C   0  0  0  0  0  2  0  0  0  0  0  0
  190.6600  176.8950  145.5530 C   0  0  2  0  0  3  0  0  0  0  0  0
  191.4710  175.9380  146.4370 C   0  0  0  0  0  2  0  0  0  0  0  0
  189.5480  177.4040  147.7050 C   0  0  1  0  0  3  0  0  0  0  0  0
  190.9510  177.6530  148.2490 C   0  0  0  0  0  2  0  0  0  0  0  0
  191.9420  176.6100  147.7290 C   0  0  0  0  0  2  0  0  0  0  0  0
  191.5510  177.9610  144.9390 C   0  0  0  0  0  1  0  0  0  0  0  0
  188.6360  178.3670  148.3000 N   0  0  0  0  0  1  0  0  0  0  0  0
  189.5110  177.5230  146.2370 N   0  0  0  0  0  0  0  0  0  0  0  0
  1 12  2  0  0  0  0
  1  7  1  0  0  0  0
  2 18  1  0  0  0  0
  3  4  1  0  0  0  0
  4 15  2  0  0  0  0
  5 17  1  0  0  0  0
  6  9  2  0  0  0  0
  7 13  2  0  0  0  0
  8 10  1  0  0  0  0
  8  3  2  0  0  0  0
  9  2  1  0  0  0  0
  9 10  1  0  0  0  0
 10 16  2  0  0  0  0
 11 24  1  0  0  0  0
 12 14  1  0  0  0  0
 13  5  1  0  0  0  0
 13  6  1  0  0  0  0
 14  5  2  0  0  0  0
 16 11  1  0  0  0  0
 16 15  1  0  0  0  0
 17  2  2  0  0  0  0
 18 11  2  0  0  0  0
 19 21  1  0  0  0  0
 19  7  1  0  0  0  0
 20 23  1  0  0  0  0
 20 22  2  0  0  0  0
 21 20  1  0  0  0  0
 24 32  1  0  0  0  0
 25 30  1  1  0  0  0
 25 32  1  0  0  0  0
 25 26  1  0  0  0  0
 26 29  1  0  0  0  0
 27 28  1  0  0  0  0
 27 31  1  1  0  0  0
 29 28  1  0  0  0  0
 32 27  1  0  0  0  0
M  END
>  <MODEL>
4

>  <REMARK>
 VINA RESULT:      -9.0      3.366      7.152
  Name = 
  4 active torsions:
  status: ('A' for Active; 'I' for Inactive)
    1  A    between atoms: N_10  and  C_24
    2  A    between atoms: C_12  and  C_24
    3  A    between atoms: C_16  and  C_27
    4  A    between atoms: C_27  and  N_32
                            x       y       z     vdW  Elec       q    Type
                         _______ _______ _______ _____ _____    ______ ____

>  <TORSDO>
F 4

$$$$
=
 OpenBabel10262421333D

 32 36  0  0  1  0  0  0  0  0999 V2000
  179.1310  178.8650  139.0060 N   0  0  0  0  0  0  0  0  0  0  0  0
  183.9660  178.8760  140.4820 C   0  0  0  0  0  0  0  0  0  0  0  0
  183.9040  178.7730  145.3420 C   0  0  0  0  0  3  0  0  0  0  0  0
  185.2960  178.8690  145.3490 C   0  0  0  0  0  3  0  0  0  0  0  0
  181.9220  178.7690  139.1850 C   0  0  0  0  0  0  0  0  0  0  0  0
  181.8210  178.6980  141.6080 C   0  0  0  0  0  3  0  0  0  0  0  0
  179.6730  178.5020  140.3190 C   0  0  0  0  0  0  0  0  0  0  0  0
  183.2100  178.7480  144.1300 C   0  0  0  0  0  3  0  0  0  0  0  0
  183.2200  178.7990  141.6790 C   0  0  0  0  0  0  0  0  0  0  0  0
  183.9020  178.8210  142.9090 C   0  0  0  0  0  0  0  0  0  0  0  0
  186.0090  178.9900  141.6960 C   0  0  0  0  0  0  0  0  0  0  0  0
  179.9220  178.8650  137.8110 C   0  0  0  0  0  3  0  0  0  0  0  0
  181.1690  178.6830  140.3710 C   0  0  0  0  0  0  0  0  0  0  0  0
  181.2500  178.8060  137.8800 C   0  0  0  0  0  3  0  0  0  0  0  0
  185.9990  178.9420  144.1450 C   0  0  0  0  0  3  0  0  0  0  0  0
  185.3160  178.9200  142.9190 C   0  0  0  0  0  0  0  0  0  0  0  0
  183.3150  178.8640  139.2460 C   0  0  0  0  0  3  0  0  0  0  0  0
  185.3200  178.9710  140.5240 N   0  0  0  0  0  0  0  0  0  0  0  0
  179.3220  177.0570  140.6350 C   0  0  0  0  0  2  0  0  0  0  0  0
  180.3060  175.4010  139.0120 C   0  0  0  0  0  0  0  0  0  0  0  0
  179.2560  176.2830  139.4060 N   0  0  0  0  0  2  0  0  0  0  0  0
  181.3340  175.2670  139.7280 O   0  0  0  0  0  0  0  0  0  0  0  0
  180.1870  174.6340  137.7450 C   0  0  0  0  0  1  0  0  0  0  0  0
  187.5000  179.1280  141.6470 C   0  0  0  0  0  2  0  0  0  0  0  0
  188.8260  177.5220  142.7520 C   0  0  2  0  0  3  0  0  0  0  0  0
  190.3480  177.7060  142.6800 C   0  0  0  0  0  2  0  0  0  0  0  0
  189.0030  177.8910  140.3110 C   0  0  1  0  0  3  0  0  0  0  0  0
  190.0450  176.7770  140.3250 C   0  0  0  0  0  2  0  0  0  0  0  0
  190.9700  176.8970  141.5370 C   0  0  0  0  0  2  0  0  0  0  0  0
  188.4650  176.1300  143.2410 C   0  0  0  0  0  1  0  0  0  0  0  0
  188.2120  177.7780  139.0960 N   0  0  0  0  0  1  0  0  0  0  0  0
  188.1200  177.8180  141.4890 N   0  0  0  0  0  0  0  0  0  0  0  0
  1  7  1  0  0  0  0
  2 18  1  0  0  0  0
  2  9  1  0  0  0  0
  3  4  1  0  0  0  0
  5 17  1  0  0  0  0
  5 13  1  0  0  0  0
  6  9  2  0  0  0  0
  7 13  2  0  0  0  0
  7 19  1  0  0  0  0
  8  3  2  0  0  0  0
  9 10  1  0  0  0  0
 10 16  2  0  0  0  0
 10  8  1  0  0  0  0
 11 16  1  0  0  0  0
 12 14  1  0  0  0  0
 12  1  2  0  0  0  0
 13  6  1  0  0  0  0
 14  5  2  0  0  0  0
 15  4  2  0  0  0  0
 16 15  1  0  0  0  0
 17  2  2  0  0  0  0
 18 11  2  0  0  0  0
 20 21  1  0  0  0  0
 20 22  2  0  0  0  0
 21 19  1  0  0  0  0
 23 20  1  0  0  0  0
 24 11  1  0  0  0  0
 25 30  1  6  0  0  0
 26 25  1  0  0  0  0
 27 31  1  6  0  0  0
 27 28  1  0  0  0  0
 27 32  1  0  0  0  0
 28 29  1  0  0  0  0
 29 26  1  0  0  0  0
 32 24  1  0  0  0  0
 32 25  1  0  0  0  0
M  END
>  <MODEL>
5

>  <REMARK>
 VINA RESULT:      -8.8      2.890      8.198
  Name = 
  4 active torsions:
  status: ('A' for Active; 'I' for Inactive)
    1  A    between atoms: N_10  and  C_24
    2  A    between atoms: C_12  and  C_24
    3  A    between atoms: C_16  and  C_27
    4  A    between atoms: C_27  and  N_32
                            x       y       z     vdW  Elec       q    Type
                         _______ _______ _______ _____ _____    ______ ____

>  <TORSDO>
F 4

$$$$
=
 OpenBabel10262421333D

 32 36  0  0  1  0  0  0  0  0999 V2000
  184.3810  179.4220  145.3870 N   0  0  0  0  0  0  0  0  0  0  0  0
  187.0030  178.0600  141.2850 C   0  0  0  0  0  0  0  0  0  0  0  0
  191.6520  177.7710  142.6780 C   0  0  0  0  0  3  0  0  0  0  0  0
  192.0160  177.4860  141.3620 C   0  0  0  0  0  3  0  0  0  0  0  0
  185.2350  178.5660  142.8630 C   0  0  0  0  0  0  0  0  0  0  0  0
  187.5340  178.4230  143.6280 C   0  0  0  0  0  3  0  0  0  0  0  0
  185.7380  178.8710  145.3270 C   0  0  0  0  0  0  0  0  0  0  0  0
  190.3110  177.9870  143.0030 C   0  0  0  0  0  3  0  0  0  0  0  0
  187.9610  178.1380  142.3210 C   0  0  0  0  0  0  0  0  0  0  0  0
  189.3160  177.9210  142.0120 C   0  0  0  0  0  0  0  0  0  0  0  0
  188.6920  177.5640  139.6840 C   0  0  0  0  0  0  0  0  0  0  0  0
  183.4270  179.2580  144.3290 C   0  0  0  0  0  3  0  0  0  0  0  0
  186.1800  178.6370  143.9050 C   0  0  0  0  0  0  0  0  0  0  0  0
  183.8170  178.8390  143.1280 C   0  0  0  0  0  3  0  0  0  0  0  0
  191.0400  177.4170  140.3650 C   0  0  0  0  0  3  0  0  0  0  0  0
  189.6890  177.6330  140.6760 C   0  0  0  0  0  0  0  0  0  0  0  0
  185.6510  178.2770  141.5610 C   0  0  0  0  0  3  0  0  0  0  0  0
  187.3910  177.7830  140.0140 N   0  0  0  0  0  0  0  0  0  0  0  0
  185.7920  177.5620  146.1000 C   0  0  0  0  0  2  0  0  0  0  0  0
  187.8880  177.6790  147.4900 C   0  0  0  0  0  0  0  0  0  0  0  0
  186.4700  177.7650  147.3710 N   0  0  0  0  0  2  0  0  0  0  0  0
  188.6040  177.4230  146.4860 O   0  0  0  0  0  0  0  0  0  0  0  0
  188.5290  177.8950  148.8140 C   0  0  0  0  0  1  0  0  0  0  0  0
  189.0310  177.2950  138.2490 C   0  0  0  0  0  2  0  0  0  0  0  0
  187.7820  175.7440  136.9890 C   0  0  2  0  0  3  0  0  0  0  0  0
  188.1650  175.5770  135.5120 C   0  0  0  0  0  2  0  0  0  0  0  0
  187.8540  178.1450  136.3880 C   0  0  1  0  0  3  0  0  0  0  0  0
  186.9070  177.7780  135.2490 C   0  0  0  0  0  2  0  0  0  0  0  0
  187.3100  176.4560  134.5950 C   0  0  0  0  0  2  0  0  0  0  0  0
  186.4280  175.1200  137.2780 C   0  0  0  0  0  1  0  0  0  0  0  0
  187.4760  179.4470  136.9120 N   0  0  0  0  0  1  0  0  0  0  0  0
  187.8110  177.1410  137.4670 N   0  0  0  0  0  0  0  0  0  0  0  0
  2 17  2  0  0  0  0
  2  9  1  0  0  0  0
  3  8  1  0  0  0  0
  4  3  2  0  0  0  0
  5 14  2  0  0  0  0
  5 13  1  0  0  0  0
  6 13  1  0  0  0  0
  7  1  1  0  0  0  0
  7 19  1  0  0  0  0
  9  6  2  0  0  0  0
 10  9  1  0  0  0  0
 10  8  2  0  0  0  0
 11 18  2  0  0  0  0
 11 16  1  0  0  0  0
 12  1  2  0  0  0  0
 13  7  2  0  0  0  0
 14 12  1  0  0  0  0
 15 16  2  0  0  0  0
 15  4  1  0  0  0  0
 16 10  1  0  0  0  0
 17  5  1  0  0  0  0
 18  2  1  0  0  0  0
 19 21  1  0  0  0  0
 20 23  1  0  0  0  0
 21 20  1  0  0  0  0
 22 20  2  0  0  0  0
 24 11  1  0  0  0  0
 25 30  1  6  0  0  0
 25 32  1  0  0  0  0
 26 25  1  0  0  0  0
 27 31  1  1  0  0  0
 27 32  1  0  0  0  0
 28 27  1  0  0  0  0
 29 28  1  0  0  0  0
 29 26  1  0  0  0  0
 32 24  1  0  0  0  0
M  END
>  <MODEL>
6

>  <REMARK>
 VINA RESULT:      -8.6      2.895      6.607
  Name = 
  4 active torsions:
  status: ('A' for Active; 'I' for Inactive)
    1  A    between atoms: N_10  and  C_24
    2  A    between atoms: C_12  and  C_24
    3  A    between atoms: C_16  and  C_27
    4  A    between atoms: C_27  and  N_32
                            x       y       z     vdW  Elec       q    Type
                         _______ _______ _______ _____ _____    ______ ____

>  <TORSDO>
F 4

$$$$
=
 OpenBabel10262421333D

 32 36  0  0  1  0  0  0  0  0999 V2000
  186.9710  178.5700  147.3360 N   0  0  0  0  0  0  0  0  0  0  0  0
  185.8710  178.4410  142.4030 C   0  0  0  0  0  0  0  0  0  0  0  0
  190.1020  177.8490  140.0830 C   0  0  0  0  0  3  0  0  0  0  0  0
  189.4320  177.9460  138.8630 C   0  0  0  0  0  3  0  0  0  0  0  0
  185.7440  178.4610  144.8230 C   0  0  0  0  0  0  0  0  0  0  0  0
  187.8860  178.1470  143.7280 C   0  0  0  0  0  3  0  0  0  0  0  0
  187.8090  178.0780  146.2390 C   0  0  0  0  0  0  0  0  0  0  0  0
  189.3910  177.9450  141.2810 C   0  0  0  0  0  3  0  0  0  0  0  0
  187.2680  178.2430  142.4710 C   0  0  0  0  0  0  0  0  0  0  0  0
  188.0000  178.1410  141.2730 C   0  0  0  0  0  0  0  0  0  0  0  0
  185.9280  178.4350  140.0240 C   0  0  0  0  0  0  0  0  0  0  0  0
  185.5460  178.6910  147.2320 C   0  0  0  0  0  3  0  0  0  0  0  0
  187.1350  178.2550  144.9020 C   0  0  0  0  0  0  0  0  0  0  0  0
  184.9470  178.6280  146.0460 C   0  0  0  0  0  3  0  0  0  0  0  0
  188.0490  178.1410  138.8370 C   0  0  0  0  0  3  0  0  0  0  0  0
  187.3220  178.2410  140.0330 C   0  0  0  0  0  0  0  0  0  0  0  0
  185.1200  178.5510  143.5760 C   0  0  0  0  0  3  0  0  0  0  0  0
  185.2500  178.5330  141.1990 N   0  0  0  0  0  0  0  0  0  0  0  0
  188.1280  176.6080  146.4590 C   0  0  0  0  0  2  0  0  0  0  0  0
  190.6230  176.5600  146.7980 C   0  0  0  0  0  0  0  0  0  0  0  0
  189.2960  176.4760  147.3150 N   0  0  0  0  0  2  0  0  0  0  0  0
  190.8230  176.7540  145.5700 O   0  0  0  0  0  0  0  0  0  0  0  0
  191.7810  176.4190  147.7190 C   0  0  0  0  0  1  0  0  0  0  0  0
  185.1640  178.5800  138.7430 C   0  0  0  0  0  2  0  0  0  0  0  0
  183.4480  176.9870  138.4700 C   0  0  2  0  0  3  0  0  0  0  0  0
  182.7250  176.9660  137.1170 C   0  0  0  0  0  2  0  0  0  0  0  0
  183.0030  179.4160  138.2910 C   0  0  1  0  0  3  0  0  0  0  0  0
  181.5480  179.0230  138.0540 C   0  0  0  0  0  2  0  0  0  0  0  0
  181.4430  177.8040  137.1380 C   0  0  0  0  0  2  0  0  0  0  0  0
  182.6800  176.1940  139.5140 C   0  0  0  0  0  1  0  0  0  0  0  0
  183.0380  180.6280  139.0930 N   0  0  0  0  0  1  0  0  0  0  0  0
  183.7450  178.3420  138.9770 N   0  0  0  0  0  0  0  0  0  0  0  0
  2  9  2  0  0  0  0
  2 17  1  0  0  0  0
  3  8  1  0  0  0  0
  4  3  2  0  0  0  0
  5 13  1  0  0  0  0
  5 14  1  0  0  0  0
  6 13  2  0  0  0  0
  7 19  1  0  0  0  0
  7  1  2  0  0  0  0
  9  6  1  0  0  0  0
 10  8  2  0  0  0  0
 10  9  1  0  0  0  0
 11 16  1  0  0  0  0
 11 18  2  0  0  0  0
 12  1  1  0  0  0  0
 13  7  1  0  0  0  0
 14 12  2  0  0  0  0
 15  4  1  0  0  0  0
 15 16  2  0  0  0  0
 16 10  1  0  0  0  0
 17  5  2  0  0  0  0
 18  2  1  0  0  0  0
 19 21  1  0  0  0  0
 20 21  1  0  0  0  0
 20 23  1  0  0  0  0
 22 20  2  0  0  0  0
 24 32  1  0  0  0  0
 24 11  1  0  0  0  0
 25 32  1  0  0  0  0
 25 30  1  1  0  0  0
 26 29  1  0  0  0  0
 26 25  1  0  0  0  0
 27 32  1  0  0  0  0
 27 31  1  1  0  0  0
 28 27  1  0  0  0  0
 29 28  1  0  0  0  0
M  END
>  <MODEL>
7

>  <REMARK>
 VINA RESULT:      -8.5      2.470      4.978
  Name = 
  4 active torsions:
  status: ('A' for Active; 'I' for Inactive)
    1  A    between atoms: N_10  and  C_24
    2  A    between atoms: C_12  and  C_24
    3  A    between atoms: C_16  and  C_27
    4  A    between atoms: C_27  and  N_32
                            x       y       z     vdW  Elec       q    Type
                         _______ _______ _______ _____ _____    ______ ____

>  <TORSDO>
F 4

$$$$
=
 OpenBabel10262421333D

 32 36  0  0  1  0  0  0  0  0999 V2000
  188.6530  178.2970  147.6000 N   0  0  0  0  0  0  0  0  0  0  0  0
  185.6270  178.5480  143.5570 C   0  0  0  0  0  0  0  0  0  0  0  0
  188.5080  178.0550  139.6720 C   0  0  0  0  0  3  0  0  0  0  0  0
  187.4030  178.2530  138.8430 C   0  0  0  0  0  3  0  0  0  0  0  0
  186.5020  178.3930  145.8120 C   0  0  0  0  0  0  0  0  0  0  0  0
  187.9930  178.1230  143.9170 C   0  0  0  0  0  3  0  0  0  0  0  0
  188.9460  177.8720  146.2280 C   0  0  0  0  0  0  0  0  0  0  0  0
  188.3550  178.0760  141.0600 C   0  0  0  0  0  3  0  0  0  0  0  0
  186.9190  178.3210  143.0320 C   0  0  0  0  0  0  0  0  0  0  0  0
  187.0920  178.2950  141.6370 C   0  0  0  0  0  0  0  0  0  0  0  0
  184.7060  178.7140  141.3690 C   0  0  0  0  0  0  0  0  0  0  0  0
  187.3170  178.4500  148.0990 C   0  0  0  0  0  3  0  0  0  0  0  0
  187.7920  178.1580  145.3000 C   0  0  0  0  0  0  0  0  0  0  0  0
  186.2830  178.4840  147.2610 C   0  0  0  0  0  3  0  0  0  0  0  0
  186.1410  178.4720  139.4000 C   0  0  0  0  0  3  0  0  0  0  0  0
  185.9720  178.4970  140.7920 C   0  0  0  0  0  0  0  0  0  0  0  0
  185.4280  178.5850  144.9390 C   0  0  0  0  0  3  0  0  0  0  0  0
  184.5740  178.7380  142.7230 N   0  0  0  0  0  0  0  0  0  0  0  0
  189.2590  176.3850  146.2090 C   0  0  0  0  0  2  0  0  0  0  0  0
  191.6330  175.9700  146.9410 C   0  0  0  0  0  0  0  0  0  0  0  0
  190.2410  176.0720  147.2350 N   0  0  0  0  0  2  0  0  0  0  0  0
  192.0570  176.1510  145.7690 O   0  0  0  0  0  0  0  0  0  0  0  0
  192.5930  175.6480  148.0290 C   0  0  0  0  0  1  0  0  0  0  0  0
  183.4930  178.9660  140.5270 C   0  0  0  0  0  2  0  0  0  0  0  0
  182.4980  177.2030  139.3180 C   0  0  2  0  0  3  0  0  0  0  0  0
  181.2320  177.5350  138.5170 C   0  0  0  0  0  2  0  0  0  0  0  0
  181.2750  178.4010  141.1060 C   0  0  1  0  0  3  0  0  0  0  0  0
  180.1220  177.4470  140.8090 C   0  0  0  0  0  2  0  0  0  0  0  0
  179.9570  177.2260  139.3050 C   0  0  0  0  0  2  0  0  0  0  0  0
  182.6800  175.7020  139.4580 C   0  0  0  0  0  1  0  0  0  0  0  0
  181.3280  178.6420  142.5390 N   0  0  0  0  0  1  0  0  0  0  0  0
  182.5620  177.8500  140.6450 N   0  0  0  0  0  0  0  0  0  0  0  0
  1 12  1  0  0  0  0
  2 17  1  0  0  0  0
  3  8  1  0  0  0  0
  4 15  1  0  0  0  0
  4  3  2  0  0  0  0
  5 14  1  0  0  0  0
  6 13  2  0  0  0  0
  7  1  2  0  0  0  0
  8 10  2  0  0  0  0
  9  2  2  0  0  0  0
  9  6  1  0  0  0  0
 10  9  1  0  0  0  0
 11 18  2  0  0  0  0
 13  5  1  0  0  0  0
 13  7  1  0  0  0  0
 14 12  2  0  0  0  0
 15 16  2  0  0  0  0
 16 11  1  0  0  0  0
 16 10  1  0  0  0  0
 17  5  2  0  0  0  0
 18  2  1  0  0  0  0
 19  7  1  0  0  0  0
 19 21  1  0  0  0  0
 20 21  1  0  0  0  0
 20 23  1  0  0  0  0
 22 20  2  0  0  0  0
 24 32  1  0  0  0  0
 24 11  1  0  0  0  0
 25 30  1  1  0  0  0
 25 32  1  0  0  0  0
 26 29  1  0  0  0  0
 26 25  1  0  0  0  0
 27 31  1  1  0  0  0
 28 27  1  0  0  0  0
 29 28  1  0  0  0  0
 32 27  1  0  0  0  0
M  END
>  <MODEL>
8

>  <REMARK>
 VINA RESULT:      -8.5      2.054      4.376
  Name = 
  4 active torsions:
  status: ('A' for Active; 'I' for Inactive)
    1  A    between atoms: N_10  and  C_24
    2  A    between atoms: C_12  and  C_24
    3  A    between atoms: C_16  and  C_27
    4  A    between atoms: C_27  and  N_32
                            x       y       z     vdW  Elec       q    Type
                         _______ _______ _______ _____ _____    ______ ____

>  <TORSDO>
F 4

$$$$
=
 OpenBabel10262421333D

 32 36  0  0  1  0  0  0  0  0999 V2000
  190.9050  176.3180  144.8990 N   0  0  0  0  0  0  0  0  0  0  0  0
  187.7180  177.9430  141.3260 C   0  0  0  0  0  0  0  0  0  0  0  0
  183.4250  178.5740  143.5190 C   0  0  0  0  0  3  0  0  0  0  0  0
  182.8590  178.9060  142.2880 C   0  0  0  0  0  3  0  0  0  0  0  0
  189.6900  177.2760  142.5660 C   0  0  0  0  0  0  0  0  0  0  0  0
  187.5810  177.5880  143.7260 C   0  0  0  0  0  3  0  0  0  0  0  0
  189.6070  176.9750  145.0800 C   0  0  0  0  0  0  0  0  0  0  0  0
  184.7810  178.2490  143.6010 C   0  0  0  0  0  3  0  0  0  0  0  0
  186.9550  177.9250  142.5140 C   0  0  0  0  0  0  0  0  0  0  0  0
  185.5880  178.2520  142.4510 C   0  0  0  0  0  0  0  0  0  0  0  0
  185.8190  178.5940  140.0490 C   0  0  0  0  0  0  0  0  0  0  0  0
  191.6670  176.4220  143.6890 C   0  0  0  0  0  3  0  0  0  0  0  0
  188.9410  177.2640  143.7590 C   0  0  0  0  0  0  0  0  0  0  0  0
  191.1070  176.8890  142.5760 C   0  0  0  0  0  3  0  0  0  0  0  0
  183.6470  178.9140  141.1340 C   0  0  0  0  0  3  0  0  0  0  0  0
  185.0100  178.5880  141.2010 C   0  0  0  0  0  0  0  0  0  0  0  0
  189.0760  177.6160  141.3590 C   0  0  0  0  0  3  0  0  0  0  0  0
  187.1360  178.2680  140.1440 N   0  0  0  0  0  0  0  0  0  0  0  0
  189.7940  178.2720  145.8520 C   0  0  0  0  0  2  0  0  0  0  0  0
  188.1680  178.0840  147.7660 C   0  0  0  0  0  0  0  0  0  0  0  0
  189.5020  178.0570  147.2600 N   0  0  0  0  0  2  0  0  0  0  0  0
  187.1930  178.2950  146.9970 O   0  0  0  0  0  0  0  0  0  0  0  0
  187.9260  177.8580  149.2150 C   0  0  0  0  0  1  0  0  0  0  0  0
  185.2550  178.9100  138.6970 C   0  0  0  0  0  2  0  0  0  0  0  0
  186.2120  177.4800  137.0860 C   0  0  2  0  0  3  0  0  0  0  0  0
  185.9820  177.8390  135.6110 C   0  0  0  0  0  2  0  0  0  0  0  0
  183.7660  177.8420  137.2070 C   0  0  1  0  0  3  0  0  0  0  0  0
  183.6700  176.8580  136.0460 C   0  0  0  0  0  2  0  0  0  0  0  0
  184.7800  177.0970  135.0210 C   0  0  0  0  0  2  0  0  0  0  0  0
  186.7330  176.0610  137.2290 C   0  0  0  0  0  1  0  0  0  0  0  0
  182.6400  177.6260  138.1010 N   0  0  0  0  0  1  0  0  0  0  0  0
  185.0300  177.6790  137.9480 N   0  0  0  0  0  0  0  0  0  0  0  0
  1  7  1  0  0  0  0
  2 17  2  0  0  0  0
  2  9  1  0  0  0  0
  3  8  1  0  0  0  0
  4  3  2  0  0  0  0
  5 14  2  0  0  0  0
  5 13  1  0  0  0  0
  6 13  1  0  0  0  0
  7 19  1  0  0  0  0
  9  6  2  0  0  0  0
 10  9  1  0  0  0  0
 10  8  2  0  0  0  0
 11 18  2  0  0  0  0
 11 16  1  0  0  0  0
 12  1  2  0  0  0  0
 13  7  2  0  0  0  0
 14 12  1  0  0  0  0
 15 16  2  0  0  0  0
 15  4  1  0  0  0  0
 16 10  1  0  0  0  0
 17  5  1  0  0  0  0
 18  2  1  0  0  0  0
 19 21  1  0  0  0  0
 20 23  1  0  0  0  0
 21 20  1  0  0  0  0
 22 20  2  0  0  0  0
 24 11  1  0  0  0  0
 25 30  1  6  0  0  0
 25 32  1  0  0  0  0
 26 25  1  0  0  0  0
 27 32  1  0  0  0  0
 27 31  1  1  0  0  0
 28 27  1  0  0  0  0
 29 26  1  0  0  0  0
 29 28  1  0  0  0  0
 32 24  1  0  0  0  0
M  END
>  <MODEL>
9

>  <REMARK>
 VINA RESULT:      -8.4      2.878      4.497
  Name = 
  4 active torsions:
  status: ('A' for Active; 'I' for Inactive)
    1  A    between atoms: N_10  and  C_24
    2  A    between atoms: C_12  and  C_24
    3  A    between atoms: C_16  and  C_27
    4  A    between atoms: C_27  and  N_32
                            x       y       z     vdW  Elec       q    Type
                         _______ _______ _______ _____ _____    ______ ____

>  <TORSDO>
F 4

$$$$
