=
 OpenBabel10262420533D

 28 31  0  0  1  0  0  0  0  0999 V2000
  190.2870  176.3380  144.7010 C   0  0  0  0  0  0  0  0  0  0  0  0
  185.6910  177.9670  142.8250 C   0  0  0  0  0  3  0  0  0  0  0  0
  187.9760  178.1980  148.5000 O   0  0  0  0  0  0  0  0  0  0  0  0
  184.4670  178.6040  144.8260 C   0  0  0  0  0  0  0  0  0  0  0  0
  186.9310  178.0070  145.0230 C   0  0  2  0  0  3  0  0  0  0  0  0
  183.3610  178.5970  142.6680 C   0  0  0  0  0  0  0  0  0  0  0  0
  185.6590  178.1450  144.2180 C   0  0  0  0  0  0  0  0  0  0  0  0
  185.7290  178.9850  146.9740 C   0  0  0  0  0  2  0  0  0  0  0  0
  183.3220  178.8060  144.0480 C   0  0  0  0  0  3  0  0  0  0  0  0
  189.1620  177.2800  146.6510 C   0  0  0  0  0  0  0  0  0  0  0  0
  187.8090  176.8450  144.5570 C   0  0  0  0  0  2  0  0  0  0  0  0
  184.3640  178.8020  146.3150 C   0  0  0  0  0  2  0  0  0  0  0  0
  191.5170  176.7040  146.7600 C   0  0  0  0  0  3  0  0  0  0  0  0
  187.9460  177.8280  147.2940 C   0  0  0  0  0  0  0  0  0  0  0  0
  190.3670  177.2130  147.3640 C   0  0  0  0  0  3  0  0  0  0  0  0
  182.1930  178.8100  141.8840 N   0  0  0  0  0  1  0  0  0  0  0  0
  184.5450  178.1840  142.0560 C   0  0  0  0  0  3  0  0  0  0  0  0
  186.6520  177.8590  146.5240 C   0  0  2  0  0  3  0  0  0  0  0  0
  191.4750  176.2640  145.4370 C   0  0  0  0  0  3  0  0  0  0  0  0
  189.1170  176.8390  145.3080 C   0  0  0  0  0  0  0  0  0  0  0  0
  190.2880  175.8440  143.3150 C   0  0  0  0  0  0  0  0  0  0  0  0
  189.9320  176.6830  142.2060 N   0  0  0  0  0  2  0  0  0  0  0  0
  190.6160  174.6480  143.0960 O   0  0  0  0  0  0  0  0  0  0  0  0
  190.6540  178.9720  142.7750 C   0  0  0  0  0  1  0  0  0  0  0  0
  189.5280  178.0860  142.2640 C   0  0  1  0  0  3  0  0  0  0  0  0
  188.9390  178.5530  140.9660 C   0  0  0  0  0  0  0  0  0  0  0  0
  189.5050  178.1320  139.7700 O   0  0  0  0  0  0  0  0  0  0  0  0
  187.9470  179.3300  140.9430 O   0  0  0  0  0  1  0  0  0  0  0  0
  1 20  2  0  0  0  0
  1 19  1  0  0  0  0
  2  7  1  0  0  0  0
  4 12  1  0  0  0  0
  5 11  1  6  0  0  0
  5 18  1  0  0  0  0
  6  9  2  0  0  0  0
  7  4  2  0  0  0  0
  7  5  1  0  0  0  0
  9  4  1  0  0  0  0
 10 14  1  0  0  0  0
 10 15  2  0  0  0  0
 11 20  1  0  0  0  0
 12  8  1  0  0  0  0
 13 15  1  0  0  0  0
 14  3  2  0  0  0  0
 16  6  1  0  0  0  0
 17  6  1  0  0  0  0
 17  2  2  0  0  0  0
 18  8  1  1  0  0  0
 18 14  1  0  0  0  0
 19 13  2  0  0  0  0
 20 10  1  0  0  0  0
 21  1  1  0  0  0  0
 22 25  1  0  0  0  0
 22 21  1  0  0  0  0
 23 21  2  0  0  0  0
 25 24  1  6  0  0  0
 26 25  1  0  0  0  0
 27 26  2  0  0  0  0
 28 26  1  0  0  0  0
M  END
>  <MODEL>
1

>  <REMARK>
 VINA RESULT:     -10.4      0.000      0.000
  Name = 
  3 active torsions:
  status: ('A' for Active; 'I' for Inactive)
    1  A    between atoms: C_1  and  C_2
    2  A    between atoms: N_3  and  CA_11
    3  A    between atoms: C_6  and  CA_11
                            x       y       z     vdW  Elec       q    Type
                         _______ _______ _______ _____ _____    ______ ____

>  <TORSDO>
F 3

$$$$
=
 OpenBabel10262420533D

 28 31  0  0  1  0  0  0  0  0999 V2000
  183.5870  178.7240  141.7820 C   0  0  0  0  0  0  0  0  0  0  0  0
  188.4040  176.8880  142.6300 C   0  0  0  0  0  3  0  0  0  0  0  0
  184.1120  178.7560  146.5740 O   0  0  0  0  0  0  0  0  0  0  0  0
  188.7140  177.2180  145.0180 C   0  0  0  0  0  0  0  0  0  0  0  0
  186.4190  177.6260  144.0020 C   0  0  2  0  0  3  0  0  0  0  0  0
  190.5590  176.4550  143.6410 C   0  0  0  0  0  0  0  0  0  0  0  0
  187.8870  177.2880  143.8720 C   0  0  0  0  0  0  0  0  0  0  0  0
  186.7010  177.6230  146.4770 C   0  0  0  0  0  2  0  0  0  0  0  0
  190.0490  176.8220  144.8880 C   0  0  0  0  0  3  0  0  0  0  0  0
  183.8000  178.7460  144.2140 C   0  0  0  0  0  0  0  0  0  0  0  0
  185.8820  178.4210  142.8120 C   0  0  0  0  0  2  0  0  0  0  0  0
  188.2240  177.6440  146.3750 C   0  0  0  0  0  2  0  0  0  0  0  0
  181.6380  179.1100  143.1750 C   0  0  0  0  0  3  0  0  0  0  0  0
  184.6300  178.6110  145.4320 C   0  0  0  0  0  0  0  0  0  0  0  0
  182.4240  178.9890  144.3210 C   0  0  0  0  0  3  0  0  0  0  0  0
  191.9170  176.0470  143.5190 N   0  0  0  0  0  1  0  0  0  0  0  0
  189.7360  176.4820  142.5130 C   0  0  0  0  0  3  0  0  0  0  0  0
  186.1130  178.3870  145.2980 C   0  0  2  0  0  3  0  0  0  0  0  0
  182.2170  178.9830  141.9130 C   0  0  0  0  0  3  0  0  0  0  0  0
  184.3910  178.6140  142.9350 C   0  0  0  0  0  0  0  0  0  0  0  0
  184.1560  178.6180  140.4300 C   0  0  0  0  0  0  0  0  0  0  0  0
  183.6070  177.7390  139.4370 N   0  0  0  0  0  2  0  0  0  0  0  0
  185.1540  179.3260  140.1340 O   0  0  0  0  0  0  0  0  0  0  0  0
  181.1460  177.5820  139.3630 C   0  0  0  0  0  1  0  0  0  0  0  0
  182.4580  176.8480  139.5950 C   0  0  1  0  0  3  0  0  0  0  0  0
  182.6010  175.6000  138.7770 C   0  0  0  0  0  0  0  0  0  0  0  0
  181.4750  174.8410  138.4900 O   0  0  0  0  0  1  0  0  0  0  0  0
  183.7270  175.2240  138.3540 O   0  0  0  0  0  0  0  0  0  0  0  0
  1 19  2  0  0  0  0
  1 20  1  0  0  0  0
  2  7  1  0  0  0  0
  4 12  1  0  0  0  0
  5 11  1  6  0  0  0
  5 18  1  0  0  0  0
  6  9  2  0  0  0  0
  7  5  1  0  0  0  0
  7  4  2  0  0  0  0
  9  4  1  0  0  0  0
 10 15  1  0  0  0  0
 10 14  1  0  0  0  0
 11 20  1  0  0  0  0
 12  8  1  0  0  0  0
 13 15  2  0  0  0  0
 14  3  2  0  0  0  0
 16  6  1  0  0  0  0
 17  2  2  0  0  0  0
 17  6  1  0  0  0  0
 18 14  1  0  0  0  0
 18  8  1  1  0  0  0
 19 13  1  0  0  0  0
 20 10  2  0  0  0  0
 21  1  1  0  0  0  0
 22 25  1  0  0  0  0
 22 21  1  0  0  0  0
 23 21  2  0  0  0  0
 25 24  1  6  0  0  0
 26 25  1  0  0  0  0
 27 26  1  0  0  0  0
 28 26  2  0  0  0  0
M  END
>  <MODEL>
2

>  <REMARK>
 VINA RESULT:     -10.2      2.824      6.720
  Name = 
  3 active torsions:
  status: ('A' for Active; 'I' for Inactive)
    1  A    between atoms: C_1  and  C_2
    2  A    between atoms: N_3  and  CA_11
    3  A    between atoms: C_6  and  CA_11
                            x       y       z     vdW  Elec       q    Type
                         _______ _______ _______ _____ _____    ______ ____

>  <TORSDO>
F 3

$$$$
=
 OpenBabel10262420533D

 28 31  0  0  1  0  0  0  0  0999 V2000
  186.9000  178.3920  140.7370 C   0  0  0  0  0  0  0  0  0  0  0  0
  190.0620  176.9540  144.6410 C   0  0  0  0  0  3  0  0  0  0  0  0
  184.1660  178.5990  144.7020 O   0  0  0  0  0  0  0  0  0  0  0  0
  188.7230  177.3730  146.6260 C   0  0  0  0  0  0  0  0  0  0  0  0
  187.6350  177.5760  144.3360 C   0  0  2  0  0  3  0  0  0  0  0  0
  191.0480  176.7150  146.8370 C   0  0  0  0  0  0  0  0  0  0  0  0
  188.8430  177.3480  145.2160 C   0  0  0  0  0  0  0  0  0  0  0  0
  186.2310  177.6650  146.3930 C   0  0  0  0  0  2  0  0  0  0  0  0
  189.8330  177.0770  147.4230 C   0  0  0  0  0  3  0  0  0  0  0  0
  185.4720  178.4990  142.7150 C   0  0  0  0  0  0  0  0  0  0  0  0
  187.9750  178.2940  143.0300 C   0  0  0  0  0  2  0  0  0  0  0  0
  187.4490  177.7990  147.3030 C   0  0  0  0  0  2  0  0  0  0  0  0
  184.5010  178.6670  140.4970 C   0  0  0  0  0  3  0  0  0  0  0  0
  185.3090  178.4620  144.1860 C   0  0  0  0  0  0  0  0  0  0  0  0
  184.3520  178.6390  141.8850 C   0  0  0  0  0  3  0  0  0  0  0  0
  192.1700  176.4090  147.6560 N   0  0  0  0  0  1  0  0  0  0  0  0
  191.1610  176.6470  145.4470 C   0  0  0  0  0  3  0  0  0  0  0  0
  186.5270  178.3490  145.0630 C   0  0  2  0  0  3  0  0  0  0  0  0
  185.7690  178.5490  139.9280 C   0  0  0  0  0  3  0  0  0  0  0  0
  186.7590  178.3760  142.1410 C   0  0  0  0  0  0  0  0  0  0  0  0
  188.2180  178.2920  140.0920 C   0  0  0  0  0  0  0  0  0  0  0  0
  188.3640  177.9590  138.7040 N   0  0  0  0  0  2  0  0  0  0  0  0
  189.2490  178.5110  140.7800 O   0  0  0  0  0  0  0  0  0  0  0  0
  187.3130  178.6410  136.5790 C   0  0  0  0  0  1  0  0  0  0  0  0
  187.2910  177.6750  137.7530 C   0  0  1  0  0  3  0  0  0  0  0  0
  187.2730  176.2320  137.3440 C   0  0  0  0  0  0  0  0  0  0  0  0
  186.0600  175.6170  137.0660 O   0  0  0  0  0  0  0  0  0  0  0  0
  188.3400  175.5670  137.2570 O   0  0  0  0  0  1  0  0  0  0  0  0
  1 20  1  0  0  0  0
  2  7  2  0  0  0  0
  2 17  1  0  0  0  0
  4 12  1  0  0  0  0
  4  9  2  0  0  0  0
  5 11  1  6  0  0  0
  5 18  1  0  0  0  0
  5  7  1  0  0  0  0
  6  9  1  0  0  0  0
  6 16  1  0  0  0  0
  7  4  1  0  0  0  0
  8 12  1  0  0  0  0
 10 14  1  0  0  0  0
 13 15  2  0  0  0  0
 14  3  2  0  0  0  0
 14 18  1  0  0  0  0
 15 10  1  0  0  0  0
 17  6  2  0  0  0  0
 18  8  1  1  0  0  0
 19 13  1  0  0  0  0
 19  1  2  0  0  0  0
 20 10  2  0  0  0  0
 20 11  1  0  0  0  0
 21  1  1  0  0  0  0
 21 23  2  0  0  0  0
 22 21  1  0  0  0  0
 25 24  1  6  0  0  0
 25 22  1  0  0  0  0
 26 25  1  0  0  0  0
 27 26  2  0  0  0  0
 28 26  1  0  0  0  0
M  END
>  <MODEL>
3

>  <REMARK>
 VINA RESULT:      -9.2      2.681      5.906
  Name = 
  3 active torsions:
  status: ('A' for Active; 'I' for Inactive)
    1  A    between atoms: C_1  and  C_2
    2  A    between atoms: N_3  and  CA_11
    3  A    between atoms: C_6  and  CA_11
                            x       y       z     vdW  Elec       q    Type
                         _______ _______ _______ _____ _____    ______ ____

>  <TORSDO>
F 3

$$$$
=
 OpenBabel10262420533D

 28 31  0  0  1  0  0  0  0  0999 V2000
  190.1400  177.6220  139.9290 C   0  0  0  0  0  0  0  0  0  0  0  0
  185.5090  178.7360  142.0790 C   0  0  0  0  0  3  0  0  0  0  0  0
  190.7290  176.8330  144.6470 O   0  0  0  0  0  0  0  0  0  0  0  0
  185.7820  178.0290  144.3880 C   0  0  0  0  0  0  0  0  0  0  0  0
  187.8100  178.0460  142.8530 C   0  0  2  0  0  3  0  0  0  0  0  0
  183.6150  178.7620  143.5830 C   0  0  0  0  0  0  0  0  0  0  0  0
  186.3290  178.2240  143.0970 C   0  0  0  0  0  0  0  0  0  0  0  0
  188.1030  177.6560  145.2960 C   0  0  0  0  0  2  0  0  0  0  0  0
  184.4250  178.2800  144.6130 C   0  0  0  0  0  3  0  0  0  0  0  0
  190.4910  177.2220  142.3110 C   0  0  0  0  0  0  0  0  0  0  0  0
  188.1240  177.5010  141.4590 C   0  0  0  0  0  2  0  0  0  0  0  0
  186.6040  177.4710  145.5180 C   0  0  0  0  0  2  0  0  0  0  0  0
  192.3800  177.2700  140.7900 C   0  0  0  0  0  3  0  0  0  0  0  0
  189.9530  177.0800  143.6840 C   0  0  0  0  0  0  0  0  0  0  0  0
  191.8700  177.1300  142.0810 C   0  0  0  0  0  3  0  0  0  0  0  0
  182.2370  179.0200  143.8230 N   0  0  0  0  0  1  0  0  0  0  0  0
  184.1580  178.9960  142.3180 C   0  0  0  0  0  3  0  0  0  0  0  0
  188.4660  177.1450  143.9070 C   0  0  2  0  0  3  0  0  0  0  0  0
  191.5190  177.5100  139.7200 C   0  0  0  0  0  3  0  0  0  0  0  0
  189.6140  177.4690  141.2290 C   0  0  0  0  0  0  0  0  0  0  0  0
  189.2690  177.8560  138.7670 C   0  0  0  0  0  0  0  0  0  0  0  0
  188.9710  176.8220  137.8160 N   0  0  0  0  0  2  0  0  0  0  0  0
  188.7650  178.9980  138.6050 O   0  0  0  0  0  0  0  0  0  0  0  0
  188.4550  174.4850  137.2170 C   0  0  0  0  0  1  0  0  0  0  0  0
  189.4590  175.4450  137.8390 C   0  0  1  0  0  3  0  0  0  0  0  0
  190.8380  175.3290  137.2600 C   0  0  0  0  0  0  0  0  0  0  0  0
  191.6400  174.2540  137.6180 O   0  0  0  0  0  1  0  0  0  0  0  0
  191.2840  176.1970  136.4620 O   0  0  0  0  0  0  0  0  0  0  0  0
  1 20  1  0  0  0  0
  2 17  2  0  0  0  0
  2  7  1  0  0  0  0
  4  9  1  0  0  0  0
  4 12  1  0  0  0  0
  5 11  1  6  0  0  0
  5  7  1  0  0  0  0
  5 18  1  0  0  0  0
  6 16  1  0  0  0  0
  6  9  2  0  0  0  0
  7  4  2  0  0  0  0
  8 12  1  0  0  0  0
 10 14  1  0  0  0  0
 13 15  2  0  0  0  0
 14 18  1  0  0  0  0
 14  3  2  0  0  0  0
 15 10  1  0  0  0  0
 17  6  1  0  0  0  0
 18  8  1  1  0  0  0
 19  1  2  0  0  0  0
 19 13  1  0  0  0  0
 20 11  1  0  0  0  0
 20 10  2  0  0  0  0
 21  1  1  0  0  0  0
 22 25  1  0  0  0  0
 22 21  1  0  0  0  0
 23 21  2  0  0  0  0
 25 24  1  6  0  0  0
 26 27  1  0  0  0  0
 26 25  1  0  0  0  0
 28 26  2  0  0  0  0
M  END
>  <MODEL>
4

>  <REMARK>
 VINA RESULT:      -9.1      2.697      4.333
  Name = 
  3 active torsions:
  status: ('A' for Active; 'I' for Inactive)
    1  A    between atoms: C_1  and  C_2
    2  A    between atoms: N_3  and  CA_11
    3  A    between atoms: C_6  and  CA_11
                            x       y       z     vdW  Elec       q    Type
                         _______ _______ _______ _____ _____    ______ ____

>  <TORSDO>
F 3

$$$$
=
 OpenBabel10262420533D

 28 31  0  0  1  0  0  0  0  0999 V2000
  186.1760  178.4770  139.6810 C   0  0  0  0  0  0  0  0  0  0  0  0
  188.7390  177.2010  144.0520 C   0  0  0  0  0  3  0  0  0  0  0  0
  182.9950  179.1550  143.2380 O   0  0  0  0  0  0  0  0  0  0  0  0
  187.1960  177.8540  145.8130 C   0  0  0  0  0  0  0  0  0  0  0  0
  186.4120  177.9240  143.3950 C   0  0  2  0  0  3  0  0  0  0  0  0
  189.4310  177.0930  146.3670 C   0  0  0  0  0  0  0  0  0  0  0  0
  187.4860  177.7050  144.4360 C   0  0  0  0  0  0  0  0  0  0  0  0
  184.7750  178.2550  145.2440 C   0  0  0  0  0  2  0  0  0  0  0  0
  188.1790  177.5660  146.7660 C   0  0  0  0  0  3  0  0  0  0  0  0
  184.5260  178.8220  141.4470 C   0  0  0  0  0  0  0  0  0  0  0  0
  186.9540  178.5120  142.0920 C   0  0  0  0  0  2  0  0  0  0  0  0
  185.8770  178.4000  146.2890 C   0  0  0  0  0  2  0  0  0  0  0  0
  183.8470  178.8570  139.1170 C   0  0  0  0  0  3  0  0  0  0  0  0
  184.1820  178.9150  142.8840 C   0  0  0  0  0  0  0  0  0  0  0  0
  183.5270  178.9510  140.4730 C   0  0  0  0  0  3  0  0  0  0  0  0
  190.4230  176.7970  147.3430 N   0  0  0  0  0  1  0  0  0  0  0  0
  189.7100  176.9050  145.0120 C   0  0  0  0  0  3  0  0  0  0  0  0
  185.2740  178.8110  143.9150 C   0  0  2  0  0  3  0  0  0  0  0  0
  185.1650  178.6260  138.7250 C   0  0  0  0  0  3  0  0  0  0  0  0
  185.8640  178.5840  141.0520 C   0  0  0  0  0  0  0  0  0  0  0  0
  187.5540  178.2540  139.2180 C   0  0  0  0  0  0  0  0  0  0  0  0
  187.8560  177.4040  138.1020 N   0  0  0  0  0  2  0  0  0  0  0  0
  188.4980  178.8340  139.8180 O   0  0  0  0  0  0  0  0  0  0  0  0
  186.6940  177.3040  135.9280 C   0  0  0  0  0  1  0  0  0  0  0  0
  186.9010  176.6540  137.2880 C   0  0  1  0  0  3  0  0  0  0  0  0
  187.2530  175.1990  137.2100 C   0  0  0  0  0  0  0  0  0  0  0  0
  188.5860  174.8240  137.1140 O   0  0  0  0  0  0  0  0  0  0  0  0
  186.3580  174.3110  137.2210 O   0  0  0  0  0  1  0  0  0  0  0  0
  1 20  1  0  0  0  0
  2  7  2  0  0  0  0
  2 17  1  0  0  0  0
  4 12  1  0  0  0  0
  4  9  2  0  0  0  0
  5 11  1  6  0  0  0
  5 18  1  0  0  0  0
  5  7  1  0  0  0  0
  6  9  1  0  0  0  0
  6 16  1  0  0  0  0
  7  4  1  0  0  0  0
  8 12  1  0  0  0  0
 10 14  1  0  0  0  0
 13 15  2  0  0  0  0
 14  3  2  0  0  0  0
 14 18  1  0  0  0  0
 15 10  1  0  0  0  0
 17  6  2  0  0  0  0
 18  8  1  1  0  0  0
 19 13  1  0  0  0  0
 19  1  2  0  0  0  0
 20 10  2  0  0  0  0
 20 11  1  0  0  0  0
 21  1  1  0  0  0  0
 21 23  2  0  0  0  0
 22 21  1  0  0  0  0
 25 24  1  6  0  0  0
 25 22  1  0  0  0  0
 26 28  1  0  0  0  0
 26 25  1  0  0  0  0
 27 26  2  0  0  0  0
M  END
>  <MODEL>
5

>  <REMARK>
 VINA RESULT:      -8.9      3.066      6.200
  Name = 
  3 active torsions:
  status: ('A' for Active; 'I' for Inactive)
    1  A    between atoms: C_1  and  C_2
    2  A    between atoms: N_3  and  CA_11
    3  A    between atoms: C_6  and  CA_11
                            x       y       z     vdW  Elec       q    Type
                         _______ _______ _______ _____ _____    ______ ____

>  <TORSDO>
F 3

$$$$
=
 OpenBabel10262420533D

 28 31  0  0  1  0  0  0  0  0999 V2000
  188.9060  176.8010  144.2110 C   0  0  0  0  0  0  0  0  0  0  0  0
  184.6310  177.8780  141.4070 C   0  0  0  0  0  3  0  0  0  0  0  0
  185.8780  178.9130  147.3100 O   0  0  0  0  0  0  0  0  0  0  0  0
  183.0460  178.6500  143.0800 C   0  0  0  0  0  0  0  0  0  0  0  0
  185.4650  178.2540  143.7590 C   0  0  2  0  0  3  0  0  0  0  0  0
  182.3350  178.3200  140.7860 C   0  0  0  0  0  0  0  0  0  0  0  0
  184.3480  178.2100  142.7410 C   0  0  0  0  0  0  0  0  0  0  0  0
  183.8940  179.3600  145.3450 C   0  0  0  0  0  2  0  0  0  0  0  0
  182.0460  178.6810  142.1030 C   0  0  0  0  0  3  0  0  0  0  0  0
  187.4120  177.8770  145.8140 C   0  0  0  0  0  0  0  0  0  0  0  0
  186.4680  177.1120  143.5940 C   0  0  0  0  0  2  0  0  0  0  0  0
  182.6760  179.0080  144.4950 C   0  0  0  0  0  2  0  0  0  0  0  0
  189.7380  177.4840  146.3850 C   0  0  0  0  0  3  0  0  0  0  0  0
  186.0770  178.4070  146.1710 C   0  0  0  0  0  0  0  0  0  0  0  0
  188.4760  177.9770  146.7210 C   0  0  0  0  0  3  0  0  0  0  0  0
  181.3130  178.3590  139.7970 N   0  0  0  0  0  1  0  0  0  0  0  0
  183.6270  177.9240  140.4360 C   0  0  0  0  0  3  0  0  0  0  0  0
  184.9370  178.2590  145.1990 C   0  0  2  0  0  3  0  0  0  0  0  0
  189.9500  176.8960  145.1390 C   0  0  0  0  0  3  0  0  0  0  0  0
  187.6240  177.2840  144.5480 C   0  0  0  0  0  0  0  0  0  0  0  0
  189.1720  176.1540  142.9170 C   0  0  0  0  0  0  0  0  0  0  0  0
  189.0450  176.8570  141.6720 N   0  0  0  0  0  2  0  0  0  0  0  0
  189.5290  174.9470  142.9040 O   0  0  0  0  0  0  0  0  0  0  0  0
  189.6210  179.2040  142.1670 C   0  0  0  0  0  1  0  0  0  0  0  0
  188.6460  178.2510  141.4900 C   0  0  1  0  0  3  0  0  0  0  0  0
  188.3910  178.5770  140.0490 C   0  0  0  0  0  0  0  0  0  0  0  0
  187.0830  178.6270  139.5830 O   0  0  0  0  0  1  0  0  0  0  0  0
  189.3420  178.7960  139.2520 O   0  0  0  0  0  0  0  0  0  0  0  0
  1 20  2  0  0  0  0
  1 19  1  0  0  0  0
  2  7  1  0  0  0  0
  4 12  1  0  0  0  0
  5 11  1  1  0  0  0
  5 18  1  0  0  0  0
  6  9  2  0  0  0  0
  7  4  2  0  0  0  0
  7  5  1  0  0  0  0
  9  4  1  0  0  0  0
 10 14  1  0  0  0  0
 10 15  2  0  0  0  0
 11 20  1  0  0  0  0
 12  8  1  0  0  0  0
 13 15  1  0  0  0  0
 14  3  2  0  0  0  0
 16  6  1  0  0  0  0
 17  6  1  0  0  0  0
 17  2  2  0  0  0  0
 18  8  1  6  0  0  0
 18 14  1  0  0  0  0
 19 13  2  0  0  0  0
 20 10  1  0  0  0  0
 21  1  1  0  0  0  0
 22 21  1  0  0  0  0
 23 21  2  0  0  0  0
 25 22  1  0  0  0  0
 25 24  1  6  0  0  0
 26 25  1  0  0  0  0
 27 26  1  0  0  0  0
 28 26  2  0  0  0  0
M  END
>  <MODEL>
6

>  <REMARK>
 VINA RESULT:      -8.9      1.241      1.948
  Name = 
  3 active torsions:
  status: ('A' for Active; 'I' for Inactive)
    1  A    between atoms: C_1  and  C_2
    2  A    between atoms: N_3  and  CA_11
    3  A    between atoms: C_6  and  CA_11
                            x       y       z     vdW  Elec       q    Type
                         _______ _______ _______ _____ _____    ______ ____

>  <TORSDO>
F 3

$$$$
=
 OpenBabel10262420533D

 28 31  0  0  1  0  0  0  0  0999 V2000
  186.9510  178.2560  139.2050 C   0  0  0  0  0  0  0  0  0  0  0  0
  190.0320  177.0980  143.2630 C   0  0  0  0  0  3  0  0  0  0  0  0
  184.0380  178.3210  143.0450 O   0  0  0  0  0  0  0  0  0  0  0  0
  188.5820  177.4480  145.1820 C   0  0  0  0  0  0  0  0  0  0  0  0
  187.5830  177.5430  142.8450 C   0  0  2  0  0  3  0  0  0  0  0  0
  190.9350  176.9590  145.5030 C   0  0  0  0  0  0  0  0  0  0  0  0
  188.7650  177.4120  143.7790 C   0  0  0  0  0  0  0  0  0  0  0  0
  186.0880  177.5580  144.8380 C   0  0  0  0  0  2  0  0  0  0  0  0
  189.6740  177.2420  146.0310 C   0  0  0  0  0  3  0  0  0  0  0  0
  185.4340  178.2880  141.1180 C   0  0  0  0  0  0  0  0  0  0  0  0
  187.9290  178.2650  141.5430 C   0  0  0  0  0  2  0  0  0  0  0  0
  187.2520  177.7910  145.7980 C   0  0  0  0  0  2  0  0  0  0  0  0
  184.5520  178.3570  138.8580 C   0  0  0  0  0  3  0  0  0  0  0  0
  185.2090  178.2590  142.5810 C   0  0  0  0  0  0  0  0  0  0  0  0
  184.3440  178.3370  140.2380 C   0  0  0  0  0  3  0  0  0  0  0  0
  192.0390  176.7450  146.3740 N   0  0  0  0  0  1  0  0  0  0  0  0
  191.1140  176.8810  144.1200 C   0  0  0  0  0  3  0  0  0  0  0  0
  186.3930  178.2440  143.5110 C   0  0  2  0  0  3  0  0  0  0  0  0
  185.8480  178.3220  138.3460 C   0  0  0  0  0  3  0  0  0  0  0  0
  186.7500  178.2490  140.6010 C   0  0  0  0  0  0  0  0  0  0  0  0
  188.3000  178.2410  138.6190 C   0  0  0  0  0  0  0  0  0  0  0  0
  188.7500  177.1760  137.7690 N   0  0  0  0  0  2  0  0  0  0  0  0
  189.0800  179.1970  138.8660 O   0  0  0  0  0  0  0  0  0  0  0  0
  187.3000  176.1950  136.0310 C   0  0  0  0  0  1  0  0  0  0  0  0
  187.9910  175.9920  137.3710 C   0  0  1  0  0  3  0  0  0  0  0  0
  188.8230  174.7460  137.4340 C   0  0  0  0  0  0  0  0  0  0  0  0
  190.1080  174.8100  137.9550 O   0  0  0  0  0  1  0  0  0  0  0  0
  188.3790  173.6440  137.0130 O   0  0  0  0  0  0  0  0  0  0  0  0
  1 20  1  0  0  0  0
  2  7  2  0  0  0  0
  2 17  1  0  0  0  0
  4 12  1  0  0  0  0
  4  9  2  0  0  0  0
  5 11  1  6  0  0  0
  5 18  1  0  0  0  0
  5  7  1  0  0  0  0
  6  9  1  0  0  0  0
  6 16  1  0  0  0  0
  7  4  1  0  0  0  0
  8 12  1  0  0  0  0
 10 14  1  0  0  0  0
 13 15  2  0  0  0  0
 14  3  2  0  0  0  0
 14 18  1  0  0  0  0
 15 10  1  0  0  0  0
 17  6  2  0  0  0  0
 18  8  1  1  0  0  0
 19 13  1  0  0  0  0
 19  1  2  0  0  0  0
 20 10  2  0  0  0  0
 20 11  1  0  0  0  0
 21 23  2  0  0  0  0
 21  1  1  0  0  0  0
 22 21  1  0  0  0  0
 25 24  1  6  0  0  0
 25 26  1  0  0  0  0
 25 22  1  0  0  0  0
 26 27  1  0  0  0  0
 28 26  2  0  0  0  0
M  END
>  <MODEL>
7

>  <REMARK>
 VINA RESULT:      -8.8      3.009      6.376
  Name = 
  3 active torsions:
  status: ('A' for Active; 'I' for Inactive)
    1  A    between atoms: C_1  and  C_2
    2  A    between atoms: N_3  and  CA_11
    3  A    between atoms: C_6  and  CA_11
                            x       y       z     vdW  Elec       q    Type
                         _______ _______ _______ _____ _____    ______ ____

>  <TORSDO>
F 3

$$$$
=
 OpenBabel10262420533D

 28 31  0  0  1  0  0  0  0  0999 V2000
  183.2030  178.7390  141.3300 C   0  0  0  0  0  0  0  0  0  0  0  0
  188.1310  177.2410  142.2100 C   0  0  0  0  0  3  0  0  0  0  0  0
  183.7130  178.8710  146.1210 O   0  0  0  0  0  0  0  0  0  0  0  0
  188.4120  177.6240  144.5940 C   0  0  0  0  0  0  0  0  0  0  0  0
  186.0970  177.8630  143.5690 C   0  0  2  0  0  3  0  0  0  0  0  0
  190.3070  176.9670  143.2300 C   0  0  0  0  0  0  0  0  0  0  0  0
  187.5840  177.6230  143.4460 C   0  0  0  0  0  0  0  0  0  0  0  0
  186.3720  177.9130  146.0450 C   0  0  0  0  0  2  0  0  0  0  0  0
  189.7710  177.3160  144.4720 C   0  0  0  0  0  3  0  0  0  0  0  0
  183.4090  178.8090  143.7610 C   0  0  0  0  0  0  0  0  0  0  0  0
  185.5110  178.6040  142.3670 C   0  0  0  0  0  2  0  0  0  0  0  0
  187.8910  178.0350  145.9450 C   0  0  0  0  0  2  0  0  0  0  0  0
  181.2290  179.0120  142.7140 C   0  0  0  0  0  3  0  0  0  0  0  0
  184.2430  178.7460  144.9830 C   0  0  0  0  0  0  0  0  0  0  0  0
  182.0190  178.9600  143.8630 C   0  0  0  0  0  3  0  0  0  0  0  0
  191.6890  176.6500  143.1160 N   0  0  0  0  0  1  0  0  0  0  0  0
  189.4870  176.9240  142.1010 C   0  0  0  0  0  3  0  0  0  0  0  0
  185.7370  178.6200  144.8540 C   0  0  2  0  0  3  0  0  0  0  0  0
  181.8190  178.9070  141.4550 C   0  0  0  0  0  3  0  0  0  0  0  0
  184.0100  178.6980  142.4860 C   0  0  0  0  0  0  0  0  0  0  0  0
  183.7810  178.6530  139.9810 C   0  0  0  0  0  0  0  0  0  0  0  0
  183.1910  179.3160  138.8530 N   0  0  0  0  0  2  0  0  0  0  0  0
  184.8320  177.9800  139.8120 O   0  0  0  0  0  0  0  0  0  0  0  0
  182.3010  181.6050  138.6140 C   0  0  0  0  0  1  0  0  0  0  0  0
  181.9810  180.1370  138.8550 C   0  0  1  0  0  3  0  0  0  0  0  0
  180.9330  179.5920  137.9320 C   0  0  0  0  0  0  0  0  0  0  0  0
  180.5300  178.2690  138.0640 O   0  0  0  0  0  1  0  0  0  0  0  0
  180.4190  180.3100  137.0330 O   0  0  0  0  0  0  0  0  0  0  0  0
  1 19  2  0  0  0  0
  1 20  1  0  0  0  0
  2  7  1  0  0  0  0
  4 12  1  0  0  0  0
  5 11  1  6  0  0  0
  5 18  1  0  0  0  0
  6  9  2  0  0  0  0
  7  5  1  0  0  0  0
  7  4  2  0  0  0  0
  9  4  1  0  0  0  0
 10 15  1  0  0  0  0
 10 14  1  0  0  0  0
 11 20  1  0  0  0  0
 12  8  1  0  0  0  0
 13 15  2  0  0  0  0
 14  3  2  0  0  0  0
 16  6  1  0  0  0  0
 17  2  2  0  0  0  0
 17  6  1  0  0  0  0
 18 14  1  0  0  0  0
 18  8  1  1  0  0  0
 19 13  1  0  0  0  0
 20 10  2  0  0  0  0
 21  1  1  0  0  0  0
 22 25  1  0  0  0  0
 22 21  1  0  0  0  0
 23 21  2  0  0  0  0
 25 24  1  6  0  0  0
 26 27  1  0  0  0  0
 26 25  1  0  0  0  0
 28 26  2  0  0  0  0
M  END
>  <MODEL>
8

>  <REMARK>
 VINA RESULT:      -8.7      3.246      7.022
  Name = 
  3 active torsions:
  status: ('A' for Active; 'I' for Inactive)
    1  A    between atoms: C_1  and  C_2
    2  A    between atoms: N_3  and  CA_11
    3  A    between atoms: C_6  and  CA_11
                            x       y       z     vdW  Elec       q    Type
                         _______ _______ _______ _____ _____    ______ ____

>  <TORSDO>
F 3

$$$$
=
 OpenBabel10262420533D

 28 31  0  0  1  0  0  0  0  0999 V2000
  183.7350  178.3910  139.2680 C   0  0  0  0  0  0  0  0  0  0  0  0
  187.2570  177.4560  143.0130 C   0  0  0  0  0  3  0  0  0  0  0  0
  181.4140  179.2400  143.4070 O   0  0  0  0  0  0  0  0  0  0  0  0
  186.1290  178.1930  145.0360 C   0  0  0  0  0  0  0  0  0  0  0  0
  184.8180  178.0880  142.8590 C   0  0  2  0  0  3  0  0  0  0  0  0
  188.4550  177.5140  145.1140 C   0  0  0  0  0  0  0  0  0  0  0  0
  186.1060  177.9600  143.6400 C   0  0  0  0  0  0  0  0  0  0  0  0
  183.6290  178.5100  145.0070 C   0  0  0  0  0  2  0  0  0  0  0  0
  187.3100  177.9870  145.7560 C   0  0  0  0  0  3  0  0  0  0  0  0
  182.5140  178.8200  141.3380 C   0  0  0  0  0  0  0  0  0  0  0  0
  185.0330  178.6000  141.4340 C   0  0  0  0  0  2  0  0  0  0  0  0
  184.9330  178.7440  145.7650 C   0  0  0  0  0  2  0  0  0  0  0  0
  181.3270  178.6890  139.2260 C   0  0  0  0  0  3  0  0  0  0  0  0
  182.4990  179.0010  142.8080 C   0  0  0  0  0  0  0  0  0  0  0  0
  181.3180  178.8660  140.6100 C   0  0  0  0  0  3  0  0  0  0  0  0
  189.6510  177.3020  145.8550 N   0  0  0  0  0  1  0  0  0  0  0  0
  188.4280  177.2420  143.7440 C   0  0  0  0  0  3  0  0  0  0  0  0
  183.7970  178.9860  143.5690 C   0  0  2  0  0  3  0  0  0  0  0  0
  182.5300  178.4580  138.5590 C   0  0  0  0  0  3  0  0  0  0  0  0
  183.7360  178.5820  140.6660 C   0  0  0  0  0  0  0  0  0  0  0  0
  184.9800  178.1650  138.5190 C   0  0  0  0  0  0  0  0  0  0  0  0
  185.1370  177.0630  137.6130 N   0  0  0  0  0  2  0  0  0  0  0  0
  185.9370  178.9680  138.6750 O   0  0  0  0  0  0  0  0  0  0  0  0
  183.4400  176.3170  135.9850 C   0  0  0  0  0  1  0  0  0  0  0  0
  184.1440  176.0360  137.3040 C   0  0  1  0  0  3  0  0  0  0  0  0
  184.7200  174.6540  137.3950 C   0  0  0  0  0  0  0  0  0  0  0  0
  183.8680  173.5680  137.5430 O   0  0  0  0  0  1  0  0  0  0  0  0
  185.9650  174.4640  137.3480 O   0  0  0  0  0  0  0  0  0  0  0  0
  1 20  1  0  0  0  0
  2  7  2  0  0  0  0
  2 17  1  0  0  0  0
  4  9  2  0  0  0  0
  4 12  1  0  0  0  0
  5 11  1  6  0  0  0
  5 18  1  0  0  0  0
  5  7  1  0  0  0  0
  6  9  1  0  0  0  0
  6 16  1  0  0  0  0
  7  4  1  0  0  0  0
  8 12  1  0  0  0  0
 10 14  1  0  0  0  0
 13 15  2  0  0  0  0
 14  3  2  0  0  0  0
 14 18  1  0  0  0  0
 15 10  1  0  0  0  0
 17  6  2  0  0  0  0
 18  8  1  1  0  0  0
 19 13  1  0  0  0  0
 19  1  2  0  0  0  0
 20 10  2  0  0  0  0
 20 11  1  0  0  0  0
 21 23  2  0  0  0  0
 21  1  1  0  0  0  0
 22 21  1  0  0  0  0
 25 24  1  6  0  0  0
 25 26  1  0  0  0  0
 25 22  1  0  0  0  0
 26 27  1  0  0  0  0
 28 26  2  0  0  0  0
M  END
>  <MODEL>
9

>  <REMARK>
 VINA RESULT:      -8.7      3.649      7.145
  Name = 
  3 active torsions:
  status: ('A' for Active; 'I' for Inactive)
    1  A    between atoms: C_1  and  C_2
    2  A    between atoms: N_3  and  CA_11
    3  A    between atoms: C_6  and  CA_11
                            x       y       z     vdW  Elec       q    Type
                         _______ _______ _______ _____ _____    ______ ____

>  <TORSDO>
F 3

$$$$
