=
 OpenBabel10262421593D

 30 35  0  0  1  0  0  0  0  0999 V2000
  187.8080  178.2840  141.4550 C   0  0  1  0  0  3  0  0  0  0  0  0
  189.5940  176.2700  138.8290 C   0  0  2  0  0  3  0  0  0  0  0  0
  191.7060  178.2390  142.4660 N   0  0  0  0  0  2  0  0  0  0  0  0
  188.5860  177.0590  140.9540 C   0  0  1  0  0  3  0  0  0  0  0  0
  187.0160  178.8700  140.3870 N   0  0  0  0  0  0  0  0  0  0  0  0
  183.9930  178.0540  142.2700 S   0  0  0  0  0  0  0  0  0  0  0  0
  186.2450  177.9880  145.0180 C   0  0  1  0  0  3  0  0  0  0  0  0
  185.6300  178.8650  142.2590 C   0  0  2  0  0  3  0  0  0  0  0  0
  184.7400  179.4120  140.0310 N   0  0  0  0  0  2  0  0  0  0  0  0
  188.4850  177.0430  144.2150 C   0  0  2  0  0  3  0  0  0  0  0  0
  190.5340  178.2250  143.2910 C   0  0  0  0  0  0  0  0  0  0  0  0
  185.8750  179.2290  140.8540 C   0  0  0  0  0  0  0  0  0  0  0  0
  186.7850  177.9100  142.5450 C   0  0  2  0  0  3  0  0  0  0  0  0
  190.9530  175.6240  139.0070 C   0  0  0  0  0  2  0  0  0  0  0  0
  189.0400  177.0300  145.6500 C   0  0  0  0  0  2  0  0  0  0  0  0
  186.6250  177.2250  146.2890 C   0  0  0  0  0  2  0  0  0  0  0  0
  182.4320  179.3670  140.4960 N   0  0  0  0  0  2  0  0  0  0  0  0
  189.3910  176.7380  137.3980 C   0  0  0  0  0  1  0  0  0  0  0  0
  192.0200  177.2230  141.4760 C   0  0  0  0  0  2  0  0  0  0  0  0
  192.0080  176.7020  138.9980 C   0  0  0  0  0  2  0  0  0  0  0  0
  183.6150  178.9110  140.7350 C   0  0  0  0  0  0  0  0  0  0  0  0
  189.3770  177.3860  139.7610 N   0  0  1  0  0  0  0  0  0  0  0  0
  189.4030  176.3340  142.0350 C   0  0  0  0  0  2  0  0  0  0  0  0
  190.3680  179.1760  144.1010 O   0  0  0  0  0  0  0  0  0  0  0  0
  189.5640  177.1540  143.2320 N   0  0  0  0  0  0  0  0  0  0  0  0
  188.0530  177.5510  146.6940 C   0  0  0  0  0  2  0  0  0  0  0  0
  185.8130  179.2710  145.3550 O   0  0  0  0  0  1  0  0  0  0  0  0
  191.6750  177.7180  140.0770 C   0  0  1  0  0  3  0  0  0  0  0  0
  190.3840  178.3100  139.9580 O   0  0  0  0  0  0  0  0  0  0  0  0
  187.3690  178.0820  143.9620 C   0  0  1  0  0  3  0  0  0  0  0  0
  1  5  1  6  0  0  0
  1 13  1  0  0  0  0
  2 18  1  6  0  0  0
  2 14  1  0  0  0  0
  2 22  1  0  0  0  0
  3 11  1  0  0  0  0
  4  1  1  0  0  0  0
  4 23  1  1  0  0  0
  5 12  2  0  0  0  0
  7 27  1  1  0  0  0
  7 16  1  0  0  0  0
  8 12  1  6  0  0  0
  8  6  1  0  0  0  0
  8 13  1  0  0  0  0
  9 21  1  0  0  0  0
  9 12  1  0  0  0  0
 10 15  1  1  0  0  0
 11 24  2  0  0  0  0
 13 30  1  0  0  0  0
 15 26  1  0  0  0  0
 16 26  1  0  0  0  0
 17 21  2  0  0  0  0
 19  3  1  0  0  0  0
 20 14  1  0  0  0  0
 20 28  1  0  0  0  0
 21  6  1  0  0  0  0
 22 29  1  0  0  0  0
 22  4  1  0  0  0  0
 23 25  1  0  0  0  0
 25 11  1  0  0  0  0
 25 10  1  0  0  0  0
 28 19  1  0  0  0  0
 29 28  1  0  0  0  0
 30 10  1  0  0  0  0
 30  7  1  0  0  0  0
M  END
>  <MODEL>
1

>  <REMARK>
 VINA RESULT:      -8.2      0.000      0.000
  Name = 
  0 active torsions:
  status: ('A' for Active; 'I' for Inactive)
                            x       y       z     vdW  Elec       q    Type
                         _______ _______ _______ _____ _____    ______ ____

>  <TORSDO>
F 0

$$$$
=
 OpenBabel10262421593D

 30 35  0  0  1  0  0  0  0  0999 V2000
  183.9220  179.0360  142.0500 C   0  0  1  0  0  3  0  0  0  0  0  0
  180.3470  177.9280  142.4260 C   0  0  2  0  0  3  0  0  0  0  0  0
  181.8910  180.5510  138.9190 N   0  0  0  0  0  2  0  0  0  0  0  0
  182.6800  178.2290  141.6390 C   0  0  1  0  0  3  0  0  0  0  0  0
  183.9430  179.2630  143.4850 N   0  0  0  0  0  0  0  0  0  0  0  0
  187.0110  177.2890  143.6830 S   0  0  0  0  0  0  0  0  0  0  0  0
  187.2490  178.1110  140.2340 C   0  0  1  0  0  3  0  0  0  0  0  0
  186.1270  178.6880  142.9120 C   0  0  2  0  0  3  0  0  0  0  0  0
  185.4410  178.8490  145.2690 N   0  0  0  0  0  2  0  0  0  0  0  0
  184.8900  178.1510  139.2400 C   0  0  2  0  0  3  0  0  0  0  0  0
  183.2350  180.0630  139.0030 C   0  0  0  0  0  0  0  0  0  0  0  0
  185.1460  179.1300  143.9160 C   0  0  0  0  0  0  0  0  0  0  0  0
  185.2270  178.2750  141.7500 C   0  0  2  0  0  3  0  0  0  0  0  0
  179.3310  177.8800  141.3030 C   0  0  0  0  0  2  0  0  0  0  0  0
  185.4480  178.3500  137.8200 C   0  0  0  0  0  2  0  0  0  0  0  0
  187.5900  177.5550  138.8510 C   0  0  0  0  0  2  0  0  0  0  0  0
  187.3210  177.8780  146.3030 N   0  0  0  0  0  2  0  0  0  0  0  0
  179.6890  178.2860  143.7470 C   0  0  0  0  0  1  0  0  0  0  0  0
  180.7120  179.7550  139.2120 C   0  0  0  0  0  2  0  0  0  0  0  0
  178.9310  179.2910  140.9500 C   0  0  0  0  0  2  0  0  0  0  0  0
  186.5240  177.9330  145.2900 C   0  0  0  0  0  0  0  0  0  0  0  0
  181.4520  178.8560  142.1430 N   0  0  1  0  0  0  0  0  0  0  0  0
  182.6080  177.8860  140.1430 C   0  0  0  0  0  2  0  0  0  0  0  0
  184.1750  180.8600  138.7390 O   0  0  0  0  0  0  0  0  0  0  0  0
  183.5360  178.6920  139.3570 N   0  0  0  0  0  0  0  0  0  0  0  0
  186.9740  178.4240  137.7660 C   0  0  0  0  0  2  0  0  0  0  0  0
  188.1620  179.1110  140.5750 O   0  0  0  0  0  1  0  0  0  0  0  0
  180.1810  180.0800  140.6020 C   0  0  1  0  0  3  0  0  0  0  0  0
  181.1720  180.1050  141.6260 O   0  0  0  0  0  0  0  0  0  0  0  0
  185.8100  178.6560  140.3750 C   0  0  1  0  0  3  0  0  0  0  0  0
  1  5  1  1  0  0  0
  2 18  1  1  0  0  0
  3 11  1  0  0  0  0
  3 19  1  0  0  0  0
  4 23  1  6  0  0  0
  4  1  1  0  0  0  0
  4 22  1  0  0  0  0
  5 12  2  0  0  0  0
  6 21  1  0  0  0  0
  7 30  1  0  0  0  0
  7 27  1  6  0  0  0
  8  6  1  1  0  0  0
  8 12  1  0  0  0  0
  9 21  1  0  0  0  0
 10 15  1  6  0  0  0
 10 25  1  0  0  0  0
 10 30  1  0  0  0  0
 11 25  1  0  0  0  0
 12  9  1  0  0  0  0
 13  1  1  0  0  0  0
 13  8  1  0  0  0  0
 14  2  1  0  0  0  0
 16  7  1  0  0  0  0
 19 28  1  0  0  0  0
 20 14  1  0  0  0  0
 21 17  2  0  0  0  0
 22  2  1  0  0  0  0
 24 11  2  0  0  0  0
 25 23  1  0  0  0  0
 26 15  1  0  0  0  0
 26 16  1  0  0  0  0
 28 20  1  0  0  0  0
 28 29  1  0  0  0  0
 29 22  1  0  0  0  0
 30 13  1  0  0  0  0
M  END
>  <MODEL>
2

>  <REMARK>
 VINA RESULT:      -7.2      3.263      7.970
  Name = 
  0 active torsions:
  status: ('A' for Active; 'I' for Inactive)
                            x       y       z     vdW  Elec       q    Type
                         _______ _______ _______ _____ _____    ______ ____

>  <TORSDO>
F 0

$$$$
=
 OpenBabel10262421593D

 30 35  0  0  1  0  0  0  0  0999 V2000
  188.1410  178.2430  143.7700 C   0  0  1  0  0  3  0  0  0  0  0  0
  189.1520  176.3840  146.8800 C   0  0  2  0  0  3  0  0  0  0  0  0
  185.8820  179.6800  146.7780 N   0  0  0  0  0  2  0  0  0  0  0  0
  187.9030  177.2540  144.9210 C   0  0  1  0  0  3  0  0  0  0  0  0
  189.5480  178.2900  143.4100 N   0  0  0  0  0  0  0  0  0  0  0  0
  188.6810  176.9820  140.1120 S   0  0  0  0  0  0  0  0  0  0  0  0
  185.4650  178.2530  140.9310 C   0  0  1  0  0  3  0  0  0  0  0  0
  188.3890  178.2530  141.3900 C   0  0  2  0  0  3  0  0  0  0  0  0
  190.8330  177.9780  141.4480 N   0  0  0  0  0  2  0  0  0  0  0  0
  185.0740  177.9280  143.4410 C   0  0  2  0  0  3  0  0  0  0  0  0
  185.5630  179.4720  145.3970 C   0  0  0  0  0  0  0  0  0  0  0  0
  189.6560  178.3570  142.1320 C   0  0  0  0  0  0  0  0  0  0  0  0
  187.4180  177.8090  142.4810 C   0  0  2  0  0  3  0  0  0  0  0  0
  188.3070  176.2660  148.1330 C   0  0  0  0  0  2  0  0  0  0  0  0
  183.6190  178.4110  143.3180 C   0  0  0  0  0  2  0  0  0  0  0  0
  183.9650  177.9540  140.8780 C   0  0  0  0  0  2  0  0  0  0  0  0
  191.2150  177.2950  139.2270 N   0  0  0  0  0  2  0  0  0  0  0  0
  190.6320  176.4340  147.2180 C   0  0  0  0  0  1  0  0  0  0  0  0
  186.3030  178.6280  147.6870 C   0  0  0  0  0  2  0  0  0  0  0  0
  188.3060  177.5970  148.8440 C   0  0  0  0  0  2  0  0  0  0  0  0
  190.4420  177.3090  140.2600 C   0  0  0  0  0  0  0  0  0  0  0  0
  188.7800  177.5480  146.0610 N   0  0  1  0  0  0  0  0  0  0  0  0
  186.4290  177.0890  145.3270 C   0  0  0  0  0  2  0  0  0  0  0  0
  185.2260  180.4730  144.7080 O   0  0  0  0  0  0  0  0  0  0  0  0
  185.5970  178.1610  144.7880 N   0  0  0  0  0  0  0  0  0  0  0  0
  183.2210  178.8030  141.8950 C   0  0  0  0  0  2  0  0  0  0  0  0
  185.7470  179.3700  140.1430 O   0  0  0  0  0  1  0  0  0  0  0  0
  187.8140  178.6630  147.8800 C   0  0  1  0  0  3  0  0  0  0  0  0
  188.5640  178.7660  146.6730 O   0  0  0  0  0  0  0  0  0  0  0  0
  186.0310  178.4690  142.3530 C   0  0  1  0  0  3  0  0  0  0  0  0
  1  5  1  6  0  0  0
  1  4  1  0  0  0  0
  2 18  1  1  0  0  0
  2 14  1  0  0  0  0
  3 19  1  0  0  0  0
  4 23  1  1  0  0  0
  4 22  1  0  0  0  0
  6 21  1  0  0  0  0
  7 27  1  6  0  0  0
  7 30  1  0  0  0  0
  8  6  1  6  0  0  0
  8 12  1  0  0  0  0
  8 13  1  0  0  0  0
  9 12  1  0  0  0  0
 10 15  1  1  0  0  0
 10 25  1  0  0  0  0
 11  3  1  0  0  0  0
 12  5  2  0  0  0  0
 13  1  1  0  0  0  0
 14 20  1  0  0  0  0
 16  7  1  0  0  0  0
 16 26  1  0  0  0  0
 17 21  2  0  0  0  0
 19 28  1  0  0  0  0
 21  9  1  0  0  0  0
 22 29  1  0  0  0  0
 22  2  1  0  0  0  0
 24 11  2  0  0  0  0
 25 23  1  0  0  0  0
 25 11  1  0  0  0  0
 26 15  1  0  0  0  0
 28 20  1  0  0  0  0
 29 28  1  0  0  0  0
 30 13  1  0  0  0  0
 30 10  1  0  0  0  0
M  END
>  <MODEL>
3

>  <REMARK>
 VINA RESULT:      -6.6      2.501      6.339
  Name = 
  0 active torsions:
  status: ('A' for Active; 'I' for Inactive)
                            x       y       z     vdW  Elec       q    Type
                         _______ _______ _______ _____ _____    ______ ____

>  <TORSDO>
F 0

$$$$
=
 OpenBabel10262421593D

 30 35  0  0  1  0  0  0  0  0999 V2000
  191.3660  176.8010  139.0740 C   0  0  1  0  0  3  0  0  0  0  0  0
  190.5190  176.0260  142.6550 C   0  0  2  0  0  3  0  0  0  0  0  0
  188.3750  179.2820  140.1320 N   0  0  0  0  0  2  0  0  0  0  0  0
  190.4530  176.2660  140.1870 C   0  0  1  0  0  3  0  0  0  0  0  0
  192.7660  176.6460  139.4310 N   0  0  0  0  0  0  0  0  0  0  0  0
  193.1680  174.3680  136.6040 S   0  0  0  0  0  0  0  0  0  0  0  0
  190.2540  176.0200  135.4160 C   0  0  1  0  0  3  0  0  0  0  0  0
  192.6190  176.0060  137.1960 C   0  0  2  0  0  3  0  0  0  0  0  0
  194.6810  175.6280  138.4840 N   0  0  0  0  0  2  0  0  0  0  0  0
  188.7550  176.5700  137.4180 C   0  0  2  0  0  3  0  0  0  0  0  0
  188.6520  178.6460  138.8780 C   0  0  0  0  0  0  0  0  0  0  0  0
  193.4290  176.2780  138.3940 C   0  0  0  0  0  0  0  0  0  0  0  0
  191.2030  176.0060  137.7650 C   0  0  2  0  0  3  0  0  0  0  0  0
  189.2100  176.3790  143.3330 C   0  0  0  0  0  2  0  0  0  0  0  0
  187.6310  177.0670  136.4920 C   0  0  0  0  0  2  0  0  0  0  0  0
  188.9000  175.8070  134.7360 C   0  0  0  0  0  2  0  0  0  0  0  0
  195.8390  174.2250  136.9880 N   0  0  0  0  0  2  0  0  0  0  0  0
  191.6800  176.1000  143.6320 C   0  0  0  0  0  1  0  0  0  0  0  0
  188.1330  178.5690  141.3740 C   0  0  0  0  0  2  0  0  0  0  0  0
  189.1740  177.8680  143.5730 C   0  0  0  0  0  2  0  0  0  0  0  0
  194.7160  174.6250  137.4810 C   0  0  0  0  0  0  0  0  0  0  0  0
  190.7890  176.8710  141.4830 N   0  0  1  0  0  0  0  0  0  0  0  0
  188.9510  176.3290  139.8680 C   0  0  0  0  0  2  0  0  0  0  0  0
  188.8620  179.3780  137.8740 O   0  0  0  0  0  0  0  0  0  0  0  0
  188.6760  177.2060  138.7340 N   0  0  0  0  0  0  0  0  0  0  0  0
  187.9810  176.9860  135.0070 C   0  0  0  0  0  2  0  0  0  0  0  0
  191.0740  176.7940  134.5940 O   0  0  0  0  0  1  0  0  0  0  0  0
  189.3810  178.5800  142.2470 C   0  0  1  0  0  3  0  0  0  0  0  0
  190.5850  178.2340  141.5680 O   0  0  0  0  0  0  0  0  0  0  0  0
  190.1770  176.6630  136.8200 C   0  0  1  0  0  3  0  0  0  0  0  0
  1  5  1  1  0  0  0
  1  4  1  0  0  0  0
  2 14  1  0  0  0  0
  2 18  1  1  0  0  0
  3 19  1  0  0  0  0
  4 23  1  6  0  0  0
  4 22  1  0  0  0  0
  6 21  1  0  0  0  0
  7 27  1  6  0  0  0
  7 30  1  0  0  0  0
  8  6  1  1  0  0  0
  8 13  1  0  0  0  0
  8 12  1  0  0  0  0
 10 15  1  6  0  0  0
 10 25  1  0  0  0  0
 11  3  1  0  0  0  0
 12  9  1  0  0  0  0
 12  5  2  0  0  0  0
 13  1  1  0  0  0  0
 14 20  1  0  0  0  0
 16 26  1  0  0  0  0
 16  7  1  0  0  0  0
 17 21  2  0  0  0  0
 19 28  1  0  0  0  0
 21  9  1  0  0  0  0
 22 29  1  0  0  0  0
 22  2  1  0  0  0  0
 24 11  2  0  0  0  0
 25 11  1  0  0  0  0
 25 23  1  0  0  0  0
 26 15  1  0  0  0  0
 28 20  1  0  0  0  0
 29 28  1  0  0  0  0
 30 10  1  0  0  0  0
 30 13  1  0  0  0  0
M  END
>  <MODEL>
4

>  <REMARK>
 VINA RESULT:      -6.3      3.441      7.894
  Name = 
  0 active torsions:
  status: ('A' for Active; 'I' for Inactive)
                            x       y       z     vdW  Elec       q    Type
                         _______ _______ _______ _____ _____    ______ ____

>  <TORSDO>
F 0

$$$$
=
 OpenBabel10262421593D

 30 35  0  0  1  0  0  0  0  0999 V2000
  188.0690  177.3620  144.2190 C   0  0  1  0  0  3  0  0  0  0  0  0
  189.3340  178.4610  147.5860 C   0  0  2  0  0  3  0  0  0  0  0  0
  191.5610  175.4520  144.8380 N   0  0  0  0  0  2  0  0  0  0  0  0
  189.0460  178.0960  145.1500 C   0  0  1  0  0  3  0  0  0  0  0  0
  186.7380  177.3110  144.7990 N   0  0  0  0  0  0  0  0  0  0  0  0
  185.5200  179.3340  142.0110 S   0  0  0  0  0  0  0  0  0  0  0  0
  188.4420  178.1040  140.4060 C   0  0  1  0  0  3  0  0  0  0  0  0
  186.4200  177.8410  142.5520 C   0  0  2  0  0  3  0  0  0  0  0  0
  184.5550  177.9570  144.1530 N   0  0  0  0  0  2  0  0  0  0  0  0
  190.3100  177.9130  142.1470 C   0  0  2  0  0  3  0  0  0  0  0  0
  190.9860  175.9640  143.6290 C   0  0  0  0  0  0  0  0  0  0  0  0
  185.8670  177.5110  143.8760 C   0  0  0  0  0  0  0  0  0  0  0  0
  187.8890  178.0980  142.8780 C   0  0  2  0  0  3  0  0  0  0  0  0
  190.7740  178.3590  148.0480 C   0  0  0  0  0  2  0  0  0  0  0  0
  191.3390  177.5500  141.0620 C   0  0  0  0  0  2  0  0  0  0  0  0
  189.6160  178.4910  139.5050 C   0  0  0  0  0  2  0  0  0  0  0  0
  182.9570  179.0720  142.8300 N   0  0  0  0  0  2  0  0  0  0  0  0
  188.3710  178.2570  148.7440 C   0  0  0  0  0  1  0  0  0  0  0  0
  191.8750  176.2630  146.0020 C   0  0  0  0  0  2  0  0  0  0  0  0
  191.0940  176.9100  148.3210 C   0  0  0  0  0  2  0  0  0  0  0  0
  184.1950  178.8840  143.1410 C   0  0  0  0  0  0  0  0  0  0  0  0
  189.0260  177.5200  146.5000 N   0  0  1  0  0  0  0  0  0  0  0  0
  190.4680  178.2550  144.5870 C   0  0  0  0  0  2  0  0  0  0  0  0
  190.7440  175.1530  142.6960 O   0  0  0  0  0  0  0  0  0  0  0  0
  190.7010  177.3710  143.4490 N   0  0  0  0  0  0  0  0  0  0  0  0
  190.7490  177.4900  139.6540 C   0  0  0  0  0  2  0  0  0  0  0  0
  187.6420  177.1650  139.7540 O   0  0  0  0  0  1  0  0  0  0  0  0
  190.8010  176.1010  147.0700 C   0  0  1  0  0  3  0  0  0  0  0  0
  189.4640  176.2130  146.5890 O   0  0  0  0  0  0  0  0  0  0  0  0
  188.8460  177.5600  141.7960 C   0  0  1  0  0  3  0  0  0  0  0  0
  1  5  1  1  0  0  0
  1  4  1  0  0  0  0
  2 14  1  0  0  0  0
  2 18  1  1  0  0  0
  3 19  1  0  0  0  0
  4 23  1  6  0  0  0
  4 22  1  0  0  0  0
  6 21  1  0  0  0  0
  7 27  1  6  0  0  0
  7 30  1  0  0  0  0
  8  6  1  1  0  0  0
  8 13  1  0  0  0  0
  8 12  1  0  0  0  0
 10 15  1  6  0  0  0
 10 25  1  0  0  0  0
 11  3  1  0  0  0  0
 12  9  1  0  0  0  0
 12  5  2  0  0  0  0
 13  1  1  0  0  0  0
 14 20  1  0  0  0  0
 16 26  1  0  0  0  0
 16  7  1  0  0  0  0
 17 21  2  0  0  0  0
 19 28  1  0  0  0  0
 21  9  1  0  0  0  0
 22 29  1  0  0  0  0
 22  2  1  0  0  0  0
 24 11  2  0  0  0  0
 25 11  1  0  0  0  0
 25 23  1  0  0  0  0
 26 15  1  0  0  0  0
 28 20  1  0  0  0  0
 29 28  1  0  0  0  0
 30 10  1  0  0  0  0
 30 13  1  0  0  0  0
M  END
>  <MODEL>
5

>  <REMARK>
 VINA RESULT:      -6.3      2.402      5.566
  Name = 
  0 active torsions:
  status: ('A' for Active; 'I' for Inactive)
                            x       y       z     vdW  Elec       q    Type
                         _______ _______ _______ _____ _____    ______ ____

>  <TORSDO>
F 0

$$$$
=
 OpenBabel10262421593D

 30 35  0  0  1  0  0  0  0  0999 V2000
  188.1410  177.4710  138.5670 C   0  0  1  0  0  3  0  0  0  0  0  0
  184.5540  176.4730  138.0310 C   0  0  2  0  0  3  0  0  0  0  0  0
  187.4850  177.5520  134.5940 N   0  0  0  0  0  2  0  0  0  0  0  0
  187.0340  176.5240  138.0800 C   0  0  1  0  0  3  0  0  0  0  0  0
  187.6940  178.2460  139.7120 N   0  0  0  0  0  0  0  0  0  0  0  0
  190.2700  176.6240  141.7310 S   0  0  0  0  0  0  0  0  0  0  0  0
  191.7650  176.0250  138.5630 C   0  0  1  0  0  3  0  0  0  0  0  0
  189.8640  177.5720  140.2240 C   0  0  2  0  0  3  0  0  0  0  0  0
  188.4350  178.6250  141.9270 N   0  0  0  0  0  2  0  0  0  0  0  0
  189.9080  175.5840  136.8560 C   0  0  2  0  0  3  0  0  0  0  0  0
  188.6570  177.1860  135.3330 C   0  0  0  0  0  0  0  0  0  0  0  0
  188.6540  178.3380  140.5610 C   0  0  0  0  0  0  0  0  0  0  0  0
  189.3770  176.7010  139.0690 C   0  0  2  0  0  3  0  0  0  0  0  0
  183.9850  175.9480  136.7280 C   0  0  0  0  0  2  0  0  0  0  0  0
  190.9370  175.2270  135.7690 C   0  0  0  0  0  2  0  0  0  0  0  0
  192.4950  174.9810  137.7170 C   0  0  0  0  0  2  0  0  0  0  0  0
  189.7280  178.2100  143.8520 N   0  0  0  0  0  2  0  0  0  0  0  0
  183.5260  177.2990  138.7860 C   0  0  0  0  0  1  0  0  0  0  0  0
  186.1960  176.8940  134.7260 C   0  0  0  0  0  2  0  0  0  0  0  0
  183.8880  177.0900  135.7470 C   0  0  0  0  0  2  0  0  0  0  0  0
  189.3370  177.8310  142.6820 C   0  0  0  0  0  0  0  0  0  0  0  0
  185.7840  177.2530  137.8320 N   0  0  1  0  0  0  0  0  0  0  0  0
  187.4400  175.6140  136.9100 C   0  0  0  0  0  2  0  0  0  0  0  0
  189.7120  177.8480  135.1410 O   0  0  0  0  0  0  0  0  0  0  0  0
  188.6640  176.0780  136.2640 N   0  0  0  0  0  0  0  0  0  0  0  0
  192.3870  175.3280  136.2410 C   0  0  0  0  0  2  0  0  0  0  0  0
  192.6100  177.1110  138.7990 O   0  0  0  0  0  1  0  0  0  0  0  0
  185.2610  177.7220  135.5970 C   0  0  1  0  0  3  0  0  0  0  0  0
  185.8380  178.1860  136.8150 O   0  0  0  0  0  0  0  0  0  0  0  0
  190.4340  176.5290  137.9600 C   0  0  1  0  0  3  0  0  0  0  0  0
  1 13  1  0  0  0  0
  1  5  1  1  0  0  0
  2 18  1  6  0  0  0
  3 19  1  0  0  0  0
  3 11  1  0  0  0  0
  4 23  1  6  0  0  0
  4  1  1  0  0  0  0
  5 12  2  0  0  0  0
  6 21  1  0  0  0  0
  7 27  1  6  0  0  0
  8 12  1  1  0  0  0
  8  6  1  0  0  0  0
  9 21  1  0  0  0  0
 10 15  1  6  0  0  0
 10 30  1  0  0  0  0
 11 25  1  0  0  0  0
 12  9  1  0  0  0  0
 13  8  1  0  0  0  0
 14  2  1  0  0  0  0
 15 26  1  0  0  0  0
 16  7  1  0  0  0  0
 19 28  1  0  0  0  0
 20 14  1  0  0  0  0
 21 17  2  0  0  0  0
 22  2  1  0  0  0  0
 22  4  1  0  0  0  0
 24 11  2  0  0  0  0
 25 10  1  0  0  0  0
 25 23  1  0  0  0  0
 26 16  1  0  0  0  0
 28 20  1  0  0  0  0
 28 29  1  0  0  0  0
 29 22  1  0  0  0  0
 30  7  1  0  0  0  0
 30 13  1  0  0  0  0
M  END
>  <MODEL>
6

>  <REMARK>
 VINA RESULT:      -5.8      3.334      7.203
  Name = 
  0 active torsions:
  status: ('A' for Active; 'I' for Inactive)
                            x       y       z     vdW  Elec       q    Type
                         _______ _______ _______ _____ _____    ______ ____

>  <TORSDO>
F 0

$$$$
=
 OpenBabel10262421593D

 30 35  0  0  1  0  0  0  0  0999 V2000
  184.9400  177.1180  137.6300 C   0  0  1  0  0  3  0  0  0  0  0  0
  188.2850  178.1710  136.2700 C   0  0  2  0  0  3  0  0  0  0  0  0
  187.1610  173.7780  137.2700 N   0  0  0  0  0  2  0  0  0  0  0  0
  186.0260  177.1840  136.5460 C   0  0  1  0  0  3  0  0  0  0  0  0
  184.9720  178.3040  138.4690 N   0  0  0  0  0  0  0  0  0  0  0  0
  181.6220  179.1500  137.2850 S   0  0  0  0  0  0  0  0  0  0  0  0
  181.4860  175.6830  136.5190 C   0  0  1  0  0  3  0  0  0  0  0  0
  182.7170  177.9010  138.0430 C   0  0  2  0  0  3  0  0  0  0  0  0
  183.4450  179.9880  139.1250 N   0  0  0  0  0  2  0  0  0  0  0  0
  183.8090  174.9250  135.7520 C   0  0  2  0  0  3  0  0  0  0  0  0
  185.7560  173.9810  137.0820 C   0  0  0  0  0  0  0  0  0  0  0  0
  183.7690  178.6710  138.7280 C   0  0  0  0  0  0  0  0  0  0  0  0
  183.5240  177.0990  137.0260 C   0  0  2  0  0  3  0  0  0  0  0  0
  189.2670  177.2510  135.5740 C   0  0  0  0  0  2  0  0  0  0  0  0
  183.2770  173.5290  135.3850 C   0  0  0  0  0  2  0  0  0  0  0  0
  181.0440  174.6640  135.4680 C   0  0  0  0  0  2  0  0  0  0  0  0
  181.4410  181.2200  139.0130 N   0  0  0  0  0  2  0  0  0  0  0  0
  189.0080  179.2410  137.0700 C   0  0  0  0  0  1  0  0  0  0  0  0
  188.1950  174.4650  136.5150 C   0  0  0  0  0  2  0  0  0  0  0  0
  189.8930  176.3420  136.6020 C   0  0  0  0  0  2  0  0  0  0  0  0
  182.2250  180.3390  138.4910 C   0  0  0  0  0  0  0  0  0  0  0  0
  187.3470  177.4400  137.1340 N   0  0  1  0  0  0  0  0  0  0  0  0
  186.0250  175.9980  135.5680 C   0  0  0  0  0  2  0  0  0  0  0  0
  184.9590  173.3340  137.8130 O   0  0  0  0  0  0  0  0  0  0  0  0
  185.2360  174.8790  136.0740 N   0  0  0  0  0  0  0  0  0  0  0  0
  181.7840  173.3500  135.6600 C   0  0  0  0  0  2  0  0  0  0  0  0
  180.7560  175.4910  137.6930 O   0  0  0  0  0  1  0  0  0  0  0  0
  188.7870  175.6030  137.3370 C   0  0  1  0  0  3  0  0  0  0  0  0
  187.8250  176.4460  137.9650 O   0  0  0  0  0  0  0  0  0  0  0  0
  182.9980  175.6620  136.8420 C   0  0  1  0  0  3  0  0  0  0  0  0
  1  5  1  1  0  0  0
  2 18  1  1  0  0  0
  2 22  1  0  0  0  0
  4 23  1  1  0  0  0
  4 22  1  0  0  0  0
  4  1  1  0  0  0  0
  5 12  2  0  0  0  0
  6 21  1  0  0  0  0
  7 30  1  0  0  0  0
  7 27  1  1  0  0  0
  8  6  1  6  0  0  0
  8 12  1  0  0  0  0
 10 15  1  1  0  0  0
 10 25  1  0  0  0  0
 10 30  1  0  0  0  0
 11  3  1  0  0  0  0
 11 24  2  0  0  0  0
 12  9  1  0  0  0  0
 13  1  1  0  0  0  0
 13  8  1  0  0  0  0
 14  2  1  0  0  0  0
 14 20  1  0  0  0  0
 15 26  1  0  0  0  0
 16 26  1  0  0  0  0
 16  7  1  0  0  0  0
 19  3  1  0  0  0  0
 19 28  1  0  0  0  0
 20 28  1  0  0  0  0
 21 17  2  0  0  0  0
 21  9  1  0  0  0  0
 22 29  1  0  0  0  0
 23 25  1  0  0  0  0
 25 11  1  0  0  0  0
 28 29  1  0  0  0  0
 30 13  1  0  0  0  0
M  END
>  <MODEL>
7

>  <REMARK>
 VINA RESULT:      -5.8      5.358      7.211
  Name = 
  0 active torsions:
  status: ('A' for Active; 'I' for Inactive)
                            x       y       z     vdW  Elec       q    Type
                         _______ _______ _______ _____ _____    ______ ____

>  <TORSDO>
F 0

$$$$
=
 OpenBabel10262421593D

 30 35  0  0  1  0  0  0  0  0999 V2000
  187.8640  177.2630  141.6640 C   0  0  1  0  0  3  0  0  0  0  0  0
  189.0550  178.6790  138.3890 C   0  0  2  0  0  3  0  0  0  0  0  0
  184.6100  177.7240  139.3350 N   0  0  0  0  0  2  0  0  0  0  0  0
  187.9840  178.3700  140.6050 C   0  0  1  0  0  3  0  0  0  0  0  0
  189.0380  176.4060  141.6550 N   0  0  0  0  0  0  0  0  0  0  0  0
  189.7820  177.5040  145.0580 S   0  0  0  0  0  0  0  0  0  0  0  0
  186.3240  178.3210  145.0890 C   0  0  1  0  0  3  0  0  0  0  0  0
  188.5620  176.7890  143.9030 C   0  0  2  0  0  3  0  0  0  0  0  0
  190.6570  175.6910  143.2250 N   0  0  0  0  0  2  0  0  0  0  0  0
  185.6610  179.1500  142.7590 C   0  0  2  0  0  3  0  0  0  0  0  0
  184.7660  177.8780  140.7510 C   0  0  0  0  0  0  0  0  0  0  0  0
  189.3580  176.1160  142.8640 C   0  0  0  0  0  0  0  0  0  0  0  0
  187.8040  177.8370  143.0920 C   0  0  2  0  0  3  0  0  0  0  0  0
  188.1810  179.4110  137.3910 C   0  0  0  0  0  2  0  0  0  0  0  0
  184.2520  179.5270  143.2500 C   0  0  0  0  0  2  0  0  0  0  0  0
  185.3060  179.3780  145.5190 C   0  0  0  0  0  2  0  0  0  0  0  0
  191.8190  175.7400  145.2730 N   0  0  0  0  0  2  0  0  0  0  0  0
  190.1380  177.8780  137.6870 C   0  0  0  0  0  1  0  0  0  0  0  0
  185.3460  178.4900  138.3430 C   0  0  0  0  0  2  0  0  0  0  0  0
  187.2790  178.4100  136.7110 C   0  0  0  0  0  2  0  0  0  0  0  0
  190.9740  176.2930  144.4700 C   0  0  0  0  0  0  0  0  0  0  0  0
  188.2780  177.8060  139.2810 N   0  0  1  0  0  0  0  0  0  0  0  0
  186.8140  179.3660  140.5860 C   0  0  0  0  0  2  0  0  0  0  0  0
  184.0810  177.1390  141.5080 O   0  0  0  0  0  0  0  0  0  0  0  0
  185.6610  178.8590  141.3240 N   0  0  0  0  0  0  0  0  0  0  0  0
  184.0170  179.2230  144.7280 C   0  0  0  0  0  2  0  0  0  0  0  0
  186.0890  177.1340  145.7850 O   0  0  0  0  0  1  0  0  0  0  0  0
  186.4910  177.6630  137.7730 C   0  0  1  0  0  3  0  0  0  0  0  0
  187.2900  177.0010  138.7500 O   0  0  0  0  0  0  0  0  0  0  0  0
  186.3520  178.0310  143.5710 C   0  0  1  0  0  3  0  0  0  0  0  0
  1  5  1  1  0  0  0
  1 13  1  0  0  0  0
  2 18  1  6  0  0  0
  2 22  1  0  0  0  0
  3 11  1  0  0  0  0
  4 23  1  6  0  0  0
  4  1  1  0  0  0  0
  5 12  2  0  0  0  0
  7 16  1  0  0  0  0
  7 27  1  1  0  0  0
  8 12  1  6  0  0  0
  8  6  1  0  0  0  0
  9 21  1  0  0  0  0
 10 15  1  1  0  0  0
 10 30  1  0  0  0  0
 11 25  1  0  0  0  0
 11 24  2  0  0  0  0
 12  9  1  0  0  0  0
 13 30  1  0  0  0  0
 13  8  1  0  0  0  0
 14  2  1  0  0  0  0
 15 26  1  0  0  0  0
 19  3  1  0  0  0  0
 20 14  1  0  0  0  0
 20 28  1  0  0  0  0
 21  6  1  0  0  0  0
 21 17  2  0  0  0  0
 22  4  1  0  0  0  0
 23 25  1  0  0  0  0
 25 10  1  0  0  0  0
 26 16  1  0  0  0  0
 28 19  1  0  0  0  0
 28 29  1  0  0  0  0
 29 22  1  0  0  0  0
 30  7  1  0  0  0  0
M  END
>  <MODEL>
8

>  <REMARK>
 VINA RESULT:      -5.7      2.428      5.162
  Name = 
  0 active torsions:
  status: ('A' for Active; 'I' for Inactive)
                            x       y       z     vdW  Elec       q    Type
                         _______ _______ _______ _____ _____    ______ ____

>  <TORSDO>
F 0

$$$$
=
 OpenBabel10262421593D

 30 35  0  0  1  0  0  0  0  0999 V2000
  184.7660  175.3260  137.5930 C   0  0  1  0  0  3  0  0  0  0  0  0
  181.5700  177.2900  137.8680 C   0  0  2  0  0  3  0  0  0  0  0  0
  185.6820  178.8030  139.4070 N   0  0  0  0  0  2  0  0  0  0  0  0
  183.8350  176.4980  137.2420 C   0  0  1  0  0  3  0  0  0  0  0  0
  184.0000  174.1410  137.9390 N   0  0  0  0  0  0  0  0  0  0  0  0
  185.4320  172.4480  135.0370 S   0  0  0  0  0  0  0  0  0  0  0  0
  187.9480  174.9350  135.3700 C   0  0  1  0  0  3  0  0  0  0  0  0
  185.7300  173.3880  136.5730 C   0  0  2  0  0  3  0  0  0  0  0  0
  183.8780  171.8960  137.2030 N   0  0  0  0  0  2  0  0  0  0  0  0
  186.8460  177.1130  136.1440 C   0  0  2  0  0  3  0  0  0  0  0  0
  186.4400  178.0110  138.4850 C   0  0  0  0  0  0  0  0  0  0  0  0
  184.5690  173.1070  137.4330 C   0  0  0  0  0  0  0  0  0  0  0  0
  185.6310  174.9010  136.3920 C   0  0  2  0  0  3  0  0  0  0  0  0
  181.4880  178.7900  138.0710 C   0  0  0  0  0  2  0  0  0  0  0  0
  188.1670  177.8850  135.9890 C   0  0  0  0  0  2  0  0  0  0  0  0
  188.8340  175.9120  134.5940 C   0  0  0  0  0  2  0  0  0  0  0  0
  184.2920  170.1000  135.7370 N   0  0  0  0  0  2  0  0  0  0  0  0
  180.4240  176.5790  138.5670 C   0  0  0  0  0  1  0  0  0  0  0  0
  184.3800  179.3770  139.1140 C   0  0  0  0  0  2  0  0  0  0  0  0
  181.8900  179.1100  139.4900 C   0  0  0  0  0  2  0  0  0  0  0  0
  184.3380  171.3680  135.9690 C   0  0  0  0  0  0  0  0  0  0  0  0
  182.8570  176.7340  138.3110 N   0  0  1  0  0  0  0  0  0  0  0  0
  184.5600  177.7780  136.7980 C   0  0  0  0  0  2  0  0  0  0  0  0
  187.5510  177.5550  138.8660 O   0  0  0  0  0  0  0  0  0  0  0  0
  185.9780  177.7440  137.1400 N   0  0  0  0  0  0  0  0  0  0  0  0
  189.3310  177.0180  135.5110 C   0  0  0  0  0  2  0  0  0  0  0  0
  188.7480  173.9870  136.0100 O   0  0  0  0  0  1  0  0  0  0  0  0
  183.2740  178.5390  139.7450 C   0  0  1  0  0  3  0  0  0  0  0  0
  183.3900  177.1370  139.5190 O   0  0  0  0  0  0  0  0  0  0  0  0
  187.0070  175.5970  136.4020 C   0  0  1  0  0  3  0  0  0  0  0  0
  1  5  1  6  0  0  0
  2 14  1  0  0  0  0
  2 22  1  0  0  0  0
  2 18  1  1  0  0  0
  4 23  1  1  0  0  0
  4  1  1  0  0  0  0
  4 22  1  0  0  0  0
  6 21  1  0  0  0  0
  7 27  1  1  0  0  0
  7 30  1  0  0  0  0
  8  6  1  6  0  0  0
  8 12  1  0  0  0  0
  9 12  1  0  0  0  0
 10 15  1  1  0  0  0
 10 30  1  0  0  0  0
 10 25  1  0  0  0  0
 11 24  2  0  0  0  0
 11  3  1  0  0  0  0
 12  5  2  0  0  0  0
 13 30  1  0  0  0  0
 13  8  1  0  0  0  0
 13  1  1  0  0  0  0
 14 20  1  0  0  0  0
 16  7  1  0  0  0  0
 16 26  1  0  0  0  0
 17 21  2  0  0  0  0
 19  3  1  0  0  0  0
 19 28  1  0  0  0  0
 20 28  1  0  0  0  0
 21  9  1  0  0  0  0
 22 29  1  0  0  0  0
 23 25  1  0  0  0  0
 25 11  1  0  0  0  0
 26 15  1  0  0  0  0
 29 28  1  0  0  0  0
M  END
>  <MODEL>
9

>  <REMARK>
 VINA RESULT:      -5.5      5.227      8.479
  Name = 
  0 active torsions:
  status: ('A' for Active; 'I' for Inactive)
                            x       y       z     vdW  Elec       q    Type
                         _______ _______ _______ _____ _____    ______ ____

>  <TORSDO>
F 0

$$$$
