=
 OpenBabel10262419433D

 25 27  0  0  1  0  0  0  0  0999 V2000
  186.9720  178.0660  145.4570 N   0  0  0  0  0  0  0  0  0  0  0  0
  188.1530  177.3000  145.2090 C   0  0  0  0  0  0  0  0  0  0  0  0
  188.1490  177.6560  148.7180 N   0  0  0  0  0  2  0  0  0  0  0  0
  188.0790  177.8100  147.4380 C   0  0  0  0  0  0  0  0  0  0  0  0
  190.3190  177.4480  146.3390 C   0  0  1  0  0  3  0  0  0  0  0  0
  191.0220  177.2380  147.5090 F   0  0  0  0  0  0  0  0  0  0  0  0
  188.7500  177.2090  144.0180 C   0  0  0  0  0  3  0  0  0  0  0  0
  186.9290  178.3790  146.8170 N   0  0  0  0  0  2  0  0  0  0  0  0
  190.9860  176.6830  145.1900 C   0  0  0  0  0  2  0  0  0  0  0  0
  190.1290  176.6040  143.8960 C   0  0  2  0  0  3  0  0  0  0  0  0
  188.8730  176.9760  146.4830 C   0  0  2  0  0  3  0  0  0  0  0  0
  185.8730  178.2860  144.5470 C   0  0  0  0  0  0  0  0  0  0  0  0
  183.7610  178.6900  142.7300 C   0  0  0  0  0  3  0  0  0  0  0  0
  184.5900  178.6660  145.0090 C   0  0  0  0  0  0  0  0  0  0  0  0
  183.5470  178.8590  144.1000 C   0  0  0  0  0  3  0  0  0  0  0  0
  185.0220  178.3230  142.2620 C   0  0  0  0  0  3  0  0  0  0  0  0
  184.3290  178.8720  146.3950 N   0  0  0  0  0  1  0  0  0  0  0  0
  186.0680  178.1230  143.1640 C   0  0  0  0  0  3  0  0  0  0  0  0
  190.8140  177.2050  142.8340 O   0  0  0  0  0  0  0  0  0  0  0  0
  189.9040  177.2290  141.7740 C   0  0  0  0  0  2  0  0  0  0  0  0
  190.6480  177.1250  140.4380 C   0  0  2  0  0  3  0  0  0  0  0  0
  191.9510  177.5930  140.5880 O   0  0  0  0  0  1  0  0  0  0  0  0
  189.9810  177.8350  139.3400 N   0  0  0  0  0  0  0  0  0  0  0  0
  189.8350  176.9310  138.2090 C   0  0  0  0  0  1  0  0  0  0  0  0
  188.6460  178.2710  139.7350 C   0  0  0  0  0  1  0  0  0  0  0  0
  1  8  1  0  0  0  0
  2  1  1  0  0  0  0
  4  3  2  0  0  0  0
  5 11  1  0  0  0  0
  5  6  1  1  0  0  0
  7  2  2  0  0  0  0
  8  4  1  0  0  0  0
  9  5  1  0  0  0  0
 10 19  1  6  0  0  0
 10  7  1  0  0  0  0
 10  9  1  0  0  0  0
 11  2  1  6  0  0  0
 11  4  1  0  0  0  0
 12 14  1  0  0  0  0
 12  1  1  0  0  0  0
 13 15  1  0  0  0  0
 14 17  1  0  0  0  0
 15 14  2  0  0  0  0
 16 13  2  0  0  0  0
 16 18  1  0  0  0  0
 18 12  2  0  0  0  0
 20 19  1  0  0  0  0
 21 22  1  1  0  0  0
 21 20  1  0  0  0  0
 23 25  1  0  0  0  0
 23 21  1  0  0  0  0
 24 23  1  0  0  0  0
M  END
>  <MODEL>
1

>  <REMARK>
 VINA RESULT:      -8.9      0.000      0.000
  Name = 
  5 active torsions:
  status: ('A' for Active; 'I' for Inactive)
    1  A    between atoms: N_1  and  C_5
    2  A    between atoms: N_2  and  C_21
    3  A    between atoms: O_6  and  C_15
    4  A    between atoms: O_6  and  C_23
    5  A    between atoms: C_15  and  C_21
                            x       y       z     vdW  Elec       q    Type
                         _______ _______ _______ _____ _____    ______ ____

>  <TORSDO>
F 5

$$$$
=
 OpenBabel10262419433D

 25 27  0  0  1  0  0  0  0  0999 V2000
  187.3370  177.9760  145.1320 N   0  0  0  0  0  0  0  0  0  0  0  0
  188.3590  177.2880  144.4050 C   0  0  0  0  0  0  0  0  0  0  0  0
  189.5420  177.2040  147.7270 N   0  0  0  0  0  2  0  0  0  0  0  0
  189.0460  177.5140  146.5760 C   0  0  0  0  0  0  0  0  0  0  0  0
  190.7800  177.3690  144.7520 C   0  0  1  0  0  3  0  0  0  0  0  0
  191.8340  177.0390  145.5800 F   0  0  0  0  0  0  0  0  0  0  0  0
  188.5170  177.3670  143.0820 C   0  0  0  0  0  3  0  0  0  0  0  0
  187.7590  178.1160  146.4550 N   0  0  0  0  0  2  0  0  0  0  0  0
  191.0120  176.7760  143.3570 C   0  0  0  0  0  2  0  0  0  0  0  0
  189.7690  176.8300  142.4270 C   0  0  2  0  0  3  0  0  0  0  0  0
  189.4630  176.8330  145.3100 C   0  0  2  0  0  3  0  0  0  0  0  0
  185.9980  178.2700  144.6800 C   0  0  0  0  0  0  0  0  0  0  0  0
  183.3990  178.8180  143.7490 C   0  0  0  0  0  3  0  0  0  0  0  0
  184.9920  178.7080  145.5740 C   0  0  0  0  0  0  0  0  0  0  0  0
  183.7030  178.9710  145.1030 C   0  0  0  0  0  3  0  0  0  0  0  0
  184.3840  178.3940  142.8570 C   0  0  0  0  0  3  0  0  0  0  0  0
  185.2600  178.9000  146.9610 N   0  0  0  0  0  1  0  0  0  0  0  0
  185.6730  178.1240  143.3200 C   0  0  0  0  0  3  0  0  0  0  0  0
  190.0610  177.5820  141.2840 O   0  0  0  0  0  0  0  0  0  0  0  0
  188.8220  177.8730  140.7070 C   0  0  0  0  0  2  0  0  0  0  0  0
  188.8600  177.5850  139.2030 C   0  0  2  0  0  3  0  0  0  0  0  0
  190.1820  177.4890  138.7750 O   0  0  0  0  0  1  0  0  0  0  0  0
  188.1420  178.5800  138.3970 N   0  0  0  0  0  0  0  0  0  0  0  0
  188.9880  178.9880  137.2840 C   0  0  0  0  0  1  0  0  0  0  0  0
  186.9180  178.0160  137.8400 C   0  0  0  0  0  1  0  0  0  0  0  0
  1  8  1  0  0  0  0
  2  1  1  0  0  0  0
  4  3  2  0  0  0  0
  5 11  1  0  0  0  0
  5  6  1  1  0  0  0
  7  2  2  0  0  0  0
  8  4  1  0  0  0  0
  9  5  1  0  0  0  0
 10 19  1  6  0  0  0
 10  7  1  0  0  0  0
 10  9  1  0  0  0  0
 11  2  1  6  0  0  0
 11  4  1  0  0  0  0
 12  1  1  0  0  0  0
 12 14  1  0  0  0  0
 13 15  1  0  0  0  0
 14 17  1  0  0  0  0
 15 14  2  0  0  0  0
 16 18  1  0  0  0  0
 16 13  2  0  0  0  0
 18 12  2  0  0  0  0
 20 19  1  0  0  0  0
 21 22  1  6  0  0  0
 21 20  1  0  0  0  0
 23 21  1  0  0  0  0
 24 23  1  0  0  0  0
 25 23  1  0  0  0  0
M  END
>  <MODEL>
2

>  <REMARK>
 VINA RESULT:      -8.9      1.365      1.570
  Name = 
  5 active torsions:
  status: ('A' for Active; 'I' for Inactive)
    1  A    between atoms: N_1  and  C_5
    2  A    between atoms: N_2  and  C_21
    3  A    between atoms: O_6  and  C_15
    4  A    between atoms: O_6  and  C_23
    5  A    between atoms: C_15  and  C_21
                            x       y       z     vdW  Elec       q    Type
                         _______ _______ _______ _____ _____    ______ ____

>  <TORSDO>
F 5

$$$$
=
 OpenBabel10262419433D

 25 27  0  0  1  0  0  0  0  0999 V2000
  187.7450  178.2490  141.6750 N   0  0  0  0  0  0  0  0  0  0  0  0
  187.0890  177.7920  142.8590 C   0  0  0  0  0  0  0  0  0  0  0  0
  184.4820  179.3120  141.0340 N   0  0  0  0  0  2  0  0  0  0  0  0
  185.5860  178.9940  141.6220 C   0  0  0  0  0  0  0  0  0  0  0  0
  185.3070  178.8920  144.1250 C   0  0  1  0  0  3  0  0  0  0  0  0
  183.9860  179.2910  144.1400 F   0  0  0  0  0  0  0  0  0  0  0  0
  187.7240  177.4620  143.9860 C   0  0  0  0  0  3  0  0  0  0  0  0
  186.8290  178.9860  140.9220 N   0  0  0  0  0  2  0  0  0  0  0  0
  185.5880  177.9890  145.3310 C   0  0  0  0  0  2  0  0  0  0  0  0
  186.9500  177.2450  145.2660 C   0  0  2  0  0  3  0  0  0  0  0  0
  185.6290  178.1280  142.8420 C   0  0  2  0  0  3  0  0  0  0  0  0
  189.0420  177.8420  141.1870 C   0  0  0  0  0  0  0  0  0  0  0  0
  191.5890  177.0450  140.2920 C   0  0  0  0  0  3  0  0  0  0  0  0
  189.2350  177.4270  139.8480 C   0  0  0  0  0  0  0  0  0  0  0  0
  190.5020  177.0280  139.4150 C   0  0  0  0  0  3  0  0  0  0  0  0
  191.4110  177.4590  141.6120 C   0  0  0  0  0  3  0  0  0  0  0  0
  188.1620  177.4150  138.9100 N   0  0  0  0  0  1  0  0  0  0  0  0
  190.1480  177.8540  142.0540 C   0  0  0  0  0  3  0  0  0  0  0  0
  187.7430  177.6060  146.3610 O   0  0  0  0  0  0  0  0  0  0  0  0
  189.0600  177.3630  145.9610 C   0  0  0  0  0  2  0  0  0  0  0  0
  189.9180  176.9830  147.1720 C   0  0  2  0  0  3  0  0  0  0  0  0
  189.6390  177.8410  148.2340 O   0  0  0  0  0  1  0  0  0  0  0  0
  191.3590  176.9820  146.8920 N   0  0  0  0  0  0  0  0  0  0  0  0
  191.9570  175.7970  147.4890 C   0  0  0  0  0  1  0  0  0  0  0  0
  191.6110  176.9300  145.4560 C   0  0  0  0  0  1  0  0  0  0  0  0
  1  2  1  0  0  0  0
  2  7  2  0  0  0  0
  3  4  2  0  0  0  0
  5  6  1  6  0  0  0
  5  9  1  0  0  0  0
  7 10  1  0  0  0  0
  8  4  1  0  0  0  0
  8  1  1  0  0  0  0
 10  9  1  0  0  0  0
 10 19  1  1  0  0  0
 11  4  1  6  0  0  0
 11  2  1  0  0  0  0
 11  5  1  0  0  0  0
 12  1  1  0  0  0  0
 12 18  1  0  0  0  0
 13 16  1  0  0  0  0
 14 12  2  0  0  0  0
 15 14  1  0  0  0  0
 15 13  2  0  0  0  0
 16 18  2  0  0  0  0
 17 14  1  0  0  0  0
 20 19  1  0  0  0  0
 20 21  1  0  0  0  0
 21 22  1  1  0  0  0
 23 21  1  0  0  0  0
 23 24  1  0  0  0  0
 25 23  1  0  0  0  0
M  END
>  <MODEL>
3

>  <REMARK>
 VINA RESULT:      -8.8      3.153      6.428
  Name = 
  5 active torsions:
  status: ('A' for Active; 'I' for Inactive)
    1  A    between atoms: N_1  and  C_5
    2  A    between atoms: N_2  and  C_21
    3  A    between atoms: O_6  and  C_15
    4  A    between atoms: O_6  and  C_23
    5  A    between atoms: C_15  and  C_21
                            x       y       z     vdW  Elec       q    Type
                         _______ _______ _______ _____ _____    ______ ____

>  <TORSDO>
F 5

$$$$
=
 OpenBabel10262419433D

 25 27  0  0  1  0  0  0  0  0999 V2000
  187.2200  177.4460  144.8010 N   0  0  0  0  0  0  0  0  0  0  0  0
  186.3420  178.2780  144.0380 C   0  0  0  0  0  0  0  0  0  0  0  0
  185.0140  178.4900  147.2980 N   0  0  0  0  0  2  0  0  0  0  0  0
  185.5210  178.1270  146.1680 C   0  0  0  0  0  0  0  0  0  0  0  0
  183.9190  178.5330  144.2630 C   0  0  1  0  0  3  0  0  0  0  0  0
  182.8810  178.9990  145.0450 F   0  0  0  0  0  0  0  0  0  0  0  0
  186.2420  178.2370  142.7070 C   0  0  0  0  0  3  0  0  0  0  0  0
  186.7160  177.3520  146.0990 N   0  0  0  0  0  2  0  0  0  0  0  0
  183.8430  179.1680  142.8700 C   0  0  0  0  0  2  0  0  0  0  0  0
  185.1120  178.9510  142.0010 C   0  0  2  0  0  3  0  0  0  0  0  0
  185.2680  178.8740  144.8950 C   0  0  2  0  0  3  0  0  0  0  0  0
  188.5260  176.9730  144.4100 C   0  0  0  0  0  0  0  0  0  0  0  0
  191.0530  176.0360  143.5950 C   0  0  0  0  0  3  0  0  0  0  0  0
  189.6780  177.2460  145.1860 C   0  0  0  0  0  0  0  0  0  0  0  0
  190.9290  176.7820  144.7690 C   0  0  0  0  0  3  0  0  0  0  0  0
  189.9230  175.7550  142.8260 C   0  0  0  0  0  3  0  0  0  0  0  0
  189.5980  177.9830  146.4030 N   0  0  0  0  0  1  0  0  0  0  0  0
  188.6720  176.2190  143.2320 C   0  0  0  0  0  3  0  0  0  0  0  0
  184.7780  178.2600  140.8320 O   0  0  0  0  0  0  0  0  0  0  0  0
  183.4560  178.6190  140.5550 C   0  0  0  0  0  2  0  0  0  0  0  0
  183.3620  179.2550  139.1640 C   0  0  2  0  0  3  0  0  0  0  0  0
  184.2300  180.3410  139.0830 O   0  0  0  0  0  1  0  0  0  0  0  0
  182.0010  179.6700  138.8010 N   0  0  0  0  0  0  0  0  0  0  0  0
  181.1280  179.4950  139.9520 C   0  0  0  0  0  1  0  0  0  0  0  0
  181.9690  181.0810  138.4310 C   0  0  0  0  0  1  0  0  0  0  0  0
  1  8  1  0  0  0  0
  2  1  1  0  0  0  0
  4  3  2  0  0  0  0
  5 11  1  0  0  0  0
  5  6  1  1  0  0  0
  7  2  2  0  0  0  0
  8  4  1  0  0  0  0
  9  5  1  0  0  0  0
 10 19  1  6  0  0  0
 10  7  1  0  0  0  0
 10  9  1  0  0  0  0
 11  2  1  6  0  0  0
 11  4  1  0  0  0  0
 12  1  1  0  0  0  0
 12 14  1  0  0  0  0
 13 15  1  0  0  0  0
 14 17  1  0  0  0  0
 15 14  2  0  0  0  0
 16 18  1  0  0  0  0
 16 13  2  0  0  0  0
 18 12  2  0  0  0  0
 20 19  1  0  0  0  0
 21 22  1  1  0  0  0
 21 20  1  0  0  0  0
 23 21  1  0  0  0  0
 23 24  1  0  0  0  0
 25 23  1  0  0  0  0
M  END
>  <MODEL>
4

>  <REMARK>
 VINA RESULT:      -8.5      3.640      6.082
  Name = 
  5 active torsions:
  status: ('A' for Active; 'I' for Inactive)
    1  A    between atoms: N_1  and  C_5
    2  A    between atoms: N_2  and  C_21
    3  A    between atoms: O_6  and  C_15
    4  A    between atoms: O_6  and  C_23
    5  A    between atoms: C_15  and  C_21
                            x       y       z     vdW  Elec       q    Type
                         _______ _______ _______ _____ _____    ______ ____

>  <TORSDO>
F 5

$$$$
=
 OpenBabel10262419433D

 25 27  0  0  1  0  0  0  0  0999 V2000
  188.4970  177.6550  145.2260 N   0  0  0  0  0  0  0  0  0  0  0  0
  187.2250  178.2830  145.0450 C   0  0  0  0  0  0  0  0  0  0  0  0
  187.5310  178.0890  148.5530 N   0  0  0  0  0  2  0  0  0  0  0  0
  187.5200  177.8850  147.2790 C   0  0  0  0  0  0  0  0  0  0  0  0
  185.1790  177.9650  146.3480 C   0  0  1  0  0  3  0  0  0  0  0  0
  184.5480  178.1550  147.5610 F   0  0  0  0  0  0  0  0  0  0  0  0
  186.5350  178.2580  143.9020 C   0  0  0  0  0  3  0  0  0  0  0  0
  188.6750  177.4100  146.5890 N   0  0  0  0  0  2  0  0  0  0  0  0
  184.3500  178.6040  145.2280 C   0  0  0  0  0  2  0  0  0  0  0  0
  185.0940  178.7120  143.8680 C   0  0  2  0  0  3  0  0  0  0  0  0
  186.5730  178.5900  146.3580 C   0  0  2  0  0  3  0  0  0  0  0  0
  189.5410  177.5080  144.2410 C   0  0  0  0  0  0  0  0  0  0  0  0
  191.6130  177.2550  142.3510 C   0  0  0  0  0  3  0  0  0  0  0  0
  189.4960  176.4910  143.2570 C   0  0  0  0  0  0  0  0  0  0  0  0
  190.5330  176.3700  142.3270 C   0  0  0  0  0  3  0  0  0  0  0  0
  191.6640  178.2650  143.3110 C   0  0  0  0  0  3  0  0  0  0  0  0
  188.4040  175.5790  143.1780 N   0  0  0  0  0  1  0  0  0  0  0  0
  190.6360  178.3890  144.2470 C   0  0  0  0  0  3  0  0  0  0  0  0
  184.3990  177.9960  142.8870 O   0  0  0  0  0  0  0  0  0  0  0  0
  183.8770  178.9630  142.0240 C   0  0  0  0  0  2  0  0  0  0  0  0
  184.2580  178.6380  140.5750 C   0  0  2  0  0  3  0  0  0  0  0  0
  184.9540  179.7090  140.0200 O   0  0  0  0  0  1  0  0  0  0  0  0
  183.1080  178.2940  139.7300 N   0  0  0  0  0  0  0  0  0  0  0  0
  182.5610  179.5140  139.1540 C   0  0  0  0  0  1  0  0  0  0  0  0
  183.5110  177.4250  138.6300 C   0  0  0  0  0  1  0  0  0  0  0  0
  1  8  1  0  0  0  0
  2  1  1  0  0  0  0
  4  3  2  0  0  0  0
  5 11  1  0  0  0  0
  5  6  1  1  0  0  0
  7  2  2  0  0  0  0
  8  4  1  0  0  0  0
  9  5  1  0  0  0  0
 10 19  1  6  0  0  0
 10  7  1  0  0  0  0
 10  9  1  0  0  0  0
 11  2  1  6  0  0  0
 11  4  1  0  0  0  0
 12 18  1  0  0  0  0
 12  1  1  0  0  0  0
 13 16  1  0  0  0  0
 14 12  2  0  0  0  0
 15 13  2  0  0  0  0
 15 14  1  0  0  0  0
 16 18  2  0  0  0  0
 17 14  1  0  0  0  0
 20 19  1  0  0  0  0
 21 22  1  6  0  0  0
 21 20  1  0  0  0  0
 23 21  1  0  0  0  0
 24 23  1  0  0  0  0
 25 23  1  0  0  0  0
M  END
>  <MODEL>
5

>  <REMARK>
 VINA RESULT:      -8.4      3.233      5.506
  Name = 
  5 active torsions:
  status: ('A' for Active; 'I' for Inactive)
    1  A    between atoms: N_1  and  C_5
    2  A    between atoms: N_2  and  C_21
    3  A    between atoms: O_6  and  C_15
    4  A    between atoms: O_6  and  C_23
    5  A    between atoms: C_15  and  C_21
                            x       y       z     vdW  Elec       q    Type
                         _______ _______ _______ _____ _____    ______ ____

>  <TORSDO>
F 5

$$$$
=
 OpenBabel10262419433D

 25 27  0  0  1  0  0  0  0  0999 V2000
  185.9900  178.2730  142.5960 N   0  0  0  0  0  0  0  0  0  0  0  0
  187.2320  178.2690  141.8890 C   0  0  0  0  0  0  0  0  0  0  0  0
  184.9290  179.3790  139.4590 N   0  0  0  0  0  2  0  0  0  0  0  0
  185.5620  178.7780  140.4090 C   0  0  0  0  0  0  0  0  0  0  0  0
  187.6480  177.6440  139.5600 C   0  0  1  0  0  3  0  0  0  0  0  0
  187.4570  177.9680  138.2320 F   0  0  0  0  0  0  0  0  0  0  0  0
  188.3190  177.6060  142.2900 C   0  0  0  0  0  3  0  0  0  0  0  0
  184.9710  178.5800  141.6920 N   0  0  0  0  0  2  0  0  0  0  0  0
  189.1470  177.5090  139.8500 C   0  0  0  0  0  2  0  0  0  0  0  0
  189.4990  177.4360  141.3610 C   0  0  2  0  0  3  0  0  0  0  0  0
  187.0570  178.7190  140.4700 C   0  0  2  0  0  3  0  0  0  0  0  0
  185.8040  178.2190  144.0270 C   0  0  0  0  0  0  0  0  0  0  0  0
  185.4990  178.0980  146.8230 C   0  0  0  0  0  3  0  0  0  0  0  0
  184.6490  178.7520  144.6470 C   0  0  0  0  0  0  0  0  0  0  0  0
  184.5100  178.6930  146.0360 C   0  0  0  0  0  3  0  0  0  0  0  0
  186.6390  177.5630  146.2220 C   0  0  0  0  0  3  0  0  0  0  0  0
  183.6030  179.3470  143.8840 N   0  0  0  0  0  1  0  0  0  0  0  0
  186.7880  177.6230  144.8360 C   0  0  0  0  0  3  0  0  0  0  0  0
  190.1470  176.2280  141.6420 O   0  0  0  0  0  0  0  0  0  0  0  0
  190.1370  176.1180  143.0350 C   0  0  0  0  0  2  0  0  0  0  0  0
  191.5440  176.3530  143.5930 C   0  0  2  0  0  3  0  0  0  0  0  0
  192.0550  175.1600  144.0990 O   0  0  0  0  0  1  0  0  0  0  0  0
  191.5990  177.4000  144.6210 N   0  0  0  0  0  0  0  0  0  0  0  0
  191.6810  178.7000  143.9710 C   0  0  0  0  0  1  0  0  0  0  0  0
  190.3930  177.3890  145.4410 C   0  0  0  0  0  1  0  0  0  0  0  0
  1 12  1  0  0  0  0
  2  7  2  0  0  0  0
  2  1  1  0  0  0  0
  3  4  2  0  0  0  0
  4  8  1  0  0  0  0
  5  6  1  6  0  0  0
  5  9  1  0  0  0  0
  5 11  1  0  0  0  0
  8  1  1  0  0  0  0
  9 10  1  0  0  0  0
 10 19  1  6  0  0  0
 10  7  1  0  0  0  0
 11  4  1  6  0  0  0
 11  2  1  0  0  0  0
 12 14  2  0  0  0  0
 12 18  1  0  0  0  0
 14 15  1  0  0  0  0
 15 13  2  0  0  0  0
 16 13  1  0  0  0  0
 17 14  1  0  0  0  0
 18 16  2  0  0  0  0
 19 20  1  0  0  0  0
 20 21  1  0  0  0  0
 21 22  1  1  0  0  0
 21 23  1  0  0  0  0
 23 25  1  0  0  0  0
 24 23  1  0  0  0  0
M  END
>  <MODEL>
6

>  <REMARK>
 VINA RESULT:      -8.4      3.047      5.072
  Name = 
  5 active torsions:
  status: ('A' for Active; 'I' for Inactive)
    1  A    between atoms: N_1  and  C_5
    2  A    between atoms: N_2  and  C_21
    3  A    between atoms: O_6  and  C_15
    4  A    between atoms: O_6  and  C_23
    5  A    between atoms: C_15  and  C_21
                            x       y       z     vdW  Elec       q    Type
                         _______ _______ _______ _____ _____    ______ ____

>  <TORSDO>
F 5

$$$$
=
 OpenBabel10262419433D

 25 27  0  0  1  0  0  0  0  0999 V2000
  187.5680  177.8840  144.7930 N   0  0  0  0  0  0  0  0  0  0  0  0
  186.5530  178.5610  144.0470 C   0  0  0  0  0  0  0  0  0  0  0  0
  185.3020  178.6270  147.3440 N   0  0  0  0  0  2  0  0  0  0  0  0
  185.8250  178.3250  146.2030 C   0  0  0  0  0  0  0  0  0  0  0  0
  184.1270  178.4520  144.3440 C   0  0  1  0  0  3  0  0  0  0  0  0
  183.0530  178.7700  145.1520 F   0  0  0  0  0  0  0  0  0  0  0  0
  186.4230  178.4830  142.7210 C   0  0  0  0  0  3  0  0  0  0  0  0
  187.1210  177.7380  146.1080 N   0  0  0  0  0  2  0  0  0  0  0  0
  183.9160  179.0450  142.9460 C   0  0  0  0  0  2  0  0  0  0  0  0
  185.1780  179.0060  142.0420 C   0  0  2  0  0  3  0  0  0  0  0  0
  185.4260  179.0030  144.9300 C   0  0  2  0  0  3  0  0  0  0  0  0
  188.9190  177.6060  144.3690 C   0  0  0  0  0  0  0  0  0  0  0  0
  191.5740  177.1040  143.5780 C   0  0  0  0  0  3  0  0  0  0  0  0
  189.2380  176.4510  143.6140 C   0  0  0  0  0  0  0  0  0  0  0  0
  190.5600  176.2080  143.2320 C   0  0  0  0  0  3  0  0  0  0  0  0
  191.2700  178.2480  144.3150 C   0  0  0  0  0  3  0  0  0  0  0  0
  188.2340  175.5200  143.2180 N   0  0  0  0  0  1  0  0  0  0  0  0
  189.9540  178.4960  144.7060 C   0  0  0  0  0  3  0  0  0  0  0  0
  184.9190  178.2530  140.8920 O   0  0  0  0  0  0  0  0  0  0  0  0
  183.5680  178.4700  140.6050 C   0  0  0  0  0  2  0  0  0  0  0  0
  183.4170  179.0790  139.2070 C   0  0  2  0  0  3  0  0  0  0  0  0
  184.2320  180.2030  139.0940 O   0  0  0  0  0  1  0  0  0  0  0  0
  182.0320  179.4260  138.8660 N   0  0  0  0  0  0  0  0  0  0  0  0
  181.1960  179.2560  140.0450 C   0  0  0  0  0  1  0  0  0  0  0  0
  181.9320  180.8200  138.4480 C   0  0  0  0  0  1  0  0  0  0  0  0
  1  8  1  0  0  0  0
  2  1  1  0  0  0  0
  4  3  2  0  0  0  0
  5 11  1  0  0  0  0
  5  6  1  1  0  0  0
  7  2  2  0  0  0  0
  8  4  1  0  0  0  0
  9  5  1  0  0  0  0
 10 19  1  6  0  0  0
 10  7  1  0  0  0  0
 10  9  1  0  0  0  0
 11  2  1  6  0  0  0
 11  4  1  0  0  0  0
 12 18  1  0  0  0  0
 12  1  1  0  0  0  0
 13 16  1  0  0  0  0
 14 12  2  0  0  0  0
 15 13  2  0  0  0  0
 15 14  1  0  0  0  0
 16 18  2  0  0  0  0
 17 14  1  0  0  0  0
 20 19  1  0  0  0  0
 21 22  1  1  0  0  0
 21 20  1  0  0  0  0
 23 21  1  0  0  0  0
 23 24  1  0  0  0  0
 25 23  1  0  0  0  0
M  END
>  <MODEL>
7

>  <REMARK>
 VINA RESULT:      -8.4      3.638      6.098
  Name = 
  5 active torsions:
  status: ('A' for Active; 'I' for Inactive)
    1  A    between atoms: N_1  and  C_5
    2  A    between atoms: N_2  and  C_21
    3  A    between atoms: O_6  and  C_15
    4  A    between atoms: O_6  and  C_23
    5  A    between atoms: C_15  and  C_21
                            x       y       z     vdW  Elec       q    Type
                         _______ _______ _______ _____ _____    ______ ____

>  <TORSDO>
F 5

$$$$
=
 OpenBabel10262419433D

 25 27  0  0  1  0  0  0  0  0999 V2000
  188.3610  177.7360  144.8300 N   0  0  0  0  0  0  0  0  0  0  0  0
  188.7760  177.3430  143.5190 C   0  0  0  0  0  0  0  0  0  0  0  0
  191.5250  176.4380  145.5340 N   0  0  0  0  0  2  0  0  0  0  0  0
  190.5250  177.0150  144.9560 C   0  0  0  0  0  0  0  0  0  0  0  0
  191.0080  177.4900  142.5280 C   0  0  1  0  0  3  0  0  0  0  0  0
  192.3060  177.0190  142.5440 F   0  0  0  0  0  0  0  0  0  0  0  0
  188.2160  177.7890  142.3920 C   0  0  0  0  0  3  0  0  0  0  0  0
  189.4300  177.5390  145.7050 N   0  0  0  0  0  2  0  0  0  0  0  0
  190.4120  177.3170  141.1270 C   0  0  0  0  0  2  0  0  0  0  0  0
  188.8760  177.5370  141.0560 C   0  0  2  0  0  3  0  0  0  0  0  0
  190.1450  176.7340  143.5360 C   0  0  2  0  0  3  0  0  0  0  0  0
  187.0190  178.0500  145.2590 C   0  0  0  0  0  0  0  0  0  0  0  0
  184.3830  178.6510  146.0420 C   0  0  0  0  0  3  0  0  0  0  0  0
  186.6890  178.1820  146.6290 C   0  0  0  0  0  0  0  0  0  0  0  0
  185.3760  178.4740  147.0070 C   0  0  0  0  0  3  0  0  0  0  0  0
  184.6980  178.5310  144.6880 C   0  0  0  0  0  3  0  0  0  0  0  0
  187.6730  178.0330  147.6490 N   0  0  0  0  0  1  0  0  0  0  0  0
  186.0060  178.2340  144.3020 C   0  0  0  0  0  3  0  0  0  0  0  0
  188.5840  178.5890  140.1820 O   0  0  0  0  0  0  0  0  0  0  0  0
  188.2400  177.9810  138.9720 C   0  0  0  0  0  2  0  0  0  0  0  0
  189.2250  178.3950  137.8740 C   0  0  2  0  0  3  0  0  0  0  0  0
  188.7550  179.5350  137.2260 O   0  0  0  0  0  1  0  0  0  0  0  0
  189.4900  177.3330  136.8950 N   0  0  0  0  0  0  0  0  0  0  0  0
  190.7450  176.6780  137.2350 C   0  0  0  0  0  1  0  0  0  0  0  0
  188.4390  176.3230  136.9240 C   0  0  0  0  0  1  0  0  0  0  0  0
  1 12  1  0  0  0  0
  1  8  1  0  0  0  0
  2  1  1  0  0  0  0
  4  3  2  0  0  0  0
  4  8  1  0  0  0  0
  5  6  1  6  0  0  0
  5 11  1  0  0  0  0
  7  2  2  0  0  0  0
  9  5  1  0  0  0  0
 10 19  1  6  0  0  0
 10  9  1  0  0  0  0
 10  7  1  0  0  0  0
 11  2  1  1  0  0  0
 11  4  1  0  0  0  0
 12 14  1  0  0  0  0
 13 15  1  0  0  0  0
 14 15  2  0  0  0  0
 14 17  1  0  0  0  0
 16 13  2  0  0  0  0
 18 16  1  0  0  0  0
 18 12  2  0  0  0  0
 20 19  1  0  0  0  0
 21 22  1  6  0  0  0
 21 20  1  0  0  0  0
 23 25  1  0  0  0  0
 23 24  1  0  0  0  0
 23 21  1  0  0  0  0
M  END
>  <MODEL>
8

>  <REMARK>
 VINA RESULT:      -8.3      2.296      3.264
  Name = 
  5 active torsions:
  status: ('A' for Active; 'I' for Inactive)
    1  A    between atoms: N_1  and  C_5
    2  A    between atoms: N_2  and  C_21
    3  A    between atoms: O_6  and  C_15
    4  A    between atoms: O_6  and  C_23
    5  A    between atoms: C_15  and  C_21
                            x       y       z     vdW  Elec       q    Type
                         _______ _______ _______ _____ _____    ______ ____

>  <TORSDO>
F 5

$$$$
=
 OpenBabel10262419433D

 25 27  0  0  1  0  0  0  0  0999 V2000
  185.9060  178.2010  144.8670 N   0  0  0  0  0  0  0  0  0  0  0  0
  186.0850  178.6400  143.5180 C   0  0  0  0  0  0  0  0  0  0  0  0
  182.6170  179.0250  144.0320 N   0  0  0  0  0  2  0  0  0  0  0  0
  183.8440  178.6280  143.9800 C   0  0  0  0  0  0  0  0  0  0  0  0
  184.6060  178.2870  141.6010 C   0  0  1  0  0  3  0  0  0  0  0  0
  183.3910  178.5850  141.0160 F   0  0  0  0  0  0  0  0  0  0  0  0
  187.1590  178.3580  142.7760 C   0  0  0  0  0  3  0  0  0  0  0  0
  184.5380  178.1910  145.1470 N   0  0  0  0  0  2  0  0  0  0  0  0
  185.7440  178.6440  140.6390 C   0  0  0  0  0  2  0  0  0  0  0  0
  187.1550  178.6280  141.2890 C   0  0  2  0  0  3  0  0  0  0  0  0
  184.7870  179.0650  142.9020 C   0  0  2  0  0  3  0  0  0  0  0  0
  186.9310  178.0280  145.8670 C   0  0  0  0  0  0  0  0  0  0  0  0
  188.9680  177.6700  147.7770 C   0  0  0  0  0  3  0  0  0  0  0  0
  186.8220  178.6110  147.1530 C   0  0  0  0  0  0  0  0  0  0  0  0
  187.8410  178.4320  148.0920 C   0  0  0  0  0  3  0  0  0  0  0  0
  189.0840  177.0850  146.5170 C   0  0  0  0  0  3  0  0  0  0  0  0
  185.6800  179.3780  147.5270 N   0  0  0  0  0  1  0  0  0  0  0  0
  188.0730  177.2630  145.5710 C   0  0  0  0  0  3  0  0  0  0  0  0
  187.9690  177.6930  140.6400 O   0  0  0  0  0  0  0  0  0  0  0  0
  188.7690  177.1390  141.6430 C   0  0  0  0  0  2  0  0  0  0  0  0
  190.2490  177.2690  141.2700 C   0  0  2  0  0  3  0  0  0  0  0  0
  190.5550  176.3790  140.2430 O   0  0  0  0  0  1  0  0  0  0  0  0
  191.1600  177.0620  142.4030 N   0  0  0  0  0  0  0  0  0  0  0  0
  191.1560  178.2540  143.2390 C   0  0  0  0  0  1  0  0  0  0  0  0
  190.7200  175.9410  143.2260 C   0  0  0  0  0  1  0  0  0  0  0  0
  1  8  1  0  0  0  0
  1 12  1  0  0  0  0
  2  1  1  0  0  0  0
  4  3  2  0  0  0  0
  4  8  1  0  0  0  0
  5  6  1  6  0  0  0
  5 11  1  0  0  0  0
  7  2  2  0  0  0  0
  9 10  1  0  0  0  0
  9  5  1  0  0  0  0
 10 19  1  6  0  0  0
 10  7  1  0  0  0  0
 11  2  1  1  0  0  0
 11  4  1  0  0  0  0
 12 14  1  0  0  0  0
 13 15  1  0  0  0  0
 14 17  1  0  0  0  0
 14 15  2  0  0  0  0
 16 13  2  0  0  0  0
 18 12  2  0  0  0  0
 18 16  1  0  0  0  0
 19 20  1  0  0  0  0
 21 22  1  6  0  0  0
 21 20  1  0  0  0  0
 21 23  1  0  0  0  0
 23 25  1  0  0  0  0
 23 24  1  0  0  0  0
M  END
>  <MODEL>
9

>  <REMARK>
 VINA RESULT:      -8.2      2.638      4.918
  Name = 
  5 active torsions:
  status: ('A' for Active; 'I' for Inactive)
    1  A    between atoms: N_1  and  C_5
    2  A    between atoms: N_2  and  C_21
    3  A    between atoms: O_6  and  C_15
    4  A    between atoms: O_6  and  C_23
    5  A    between atoms: C_15  and  C_21
                            x       y       z     vdW  Elec       q    Type
                         _______ _______ _______ _____ _____    ______ ____

>  <TORSDO>
F 5

$$$$
