=
 OpenBabel10262421193D

 32 36  0  0  1  0  0  0  0  0999 V2000
  188.8910  177.0060  143.2230 C   0  0  0  0  0  2  0  0  0  0  0  0
  188.1660  177.1110  144.5660 C   0  0  2  0  0  3  0  0  0  0  0  0
  186.7910  177.6980  144.4090 C   0  0  0  0  0  0  0  0  0  0  0  0
  186.1370  178.2040  145.5390 C   0  0  0  0  0  3  0  0  0  0  0  0
  182.8480  178.6260  141.7440 C   0  0  0  0  0  3  0  0  0  0  0  0
  186.1230  177.6750  143.1730 C   0  0  0  0  0  3  0  0  0  0  0  0
  182.8610  179.1610  144.1090 C   0  0  0  0  0  3  0  0  0  0  0  0
  184.1690  178.6790  144.2120 C   0  0  0  0  0  0  0  0  0  0  0  0
  184.8310  178.6970  145.4410 C   0  0  0  0  0  3  0  0  0  0  0  0
  184.8210  178.1660  143.0690 C   0  0  0  0  0  0  0  0  0  0  0  0
  182.2020  179.1340  142.8760 C   0  0  0  0  0  3  0  0  0  0  0  0
  184.1560  178.1420  141.8390 C   0  0  0  0  0  3  0  0  0  0  0  0
  188.9040  177.0840  146.9370 C   0  0  1  0  0  3  0  0  0  0  0  0
  189.0040  177.8310  145.6190 C   0  0  1  0  0  3  0  0  0  0  0  0
  190.1400  176.9360  146.0740 C   0  0  0  0  0  2  0  0  0  0  0  0
  188.3210  178.1610  149.0520 C   0  0  0  0  0  2  0  0  0  0  0  0
  189.1880  178.0310  148.0520 C   0  0  0  0  0  3  0  0  0  0  0  0
  189.9110  178.1260  143.0290 C   0  0  0  0  0  2  0  0  0  0  0  0
  191.2520  177.6130  142.5040 C   0  0  1  0  0  3  0  0  0  0  0  0
  191.5250  176.3350  142.9960 O   0  0  0  0  0  1  0  0  0  0  0  0
  191.3890  177.6490  140.9740 C   0  0  1  0  0  3  0  0  0  0  0  0
  192.7250  177.5060  140.5920 O   0  0  0  0  0  1  0  0  0  0  0  0
  190.5430  176.5800  140.2790 C   0  0  0  0  0  2  0  0  0  0  0  0
  190.4640  176.7340  138.7580 C   0  0  1  0  0  3  0  0  0  0  0  0
  191.2450  175.6470  138.0260 C   0  0  2  0  0  3  0  0  0  0  0  0
  192.3990  176.2570  137.2490 C   0  0  2  0  0  3  0  0  0  0  0  0
  191.1410  175.8560  136.5260 C   0  0  1  0  0  3  0  0  0  0  0  0
  192.4940  175.5600  135.9060 C   0  0  0  0  0  2  0  0  0  0  0  0
  189.0120  176.7880  138.2910 C   0  0  0  0  0  2  0  0  0  0  0  0
  188.9370  179.0860  137.1170 C   0  0  0  0  0  1  0  0  0  0  0  0
  187.7410  178.6110  139.0820 O   0  0  0  0  0  0  0  0  0  0  0  0
  188.5110  178.1950  138.2320 C   0  0  0  0  0  0  0  0  0  0  0  0
  2  1  1  6  0  0  0
  3  2  1  0  0  0  0
  3  4  1  0  0  0  0
  5 12  2  0  0  0  0
  5 11  1  0  0  0  0
  6  3  2  0  0  0  0
  7  8  1  0  0  0  0
  8  9  1  0  0  0  0
  9  4  2  0  0  0  0
 10  6  1  0  0  0  0
 10  8  2  0  0  0  0
 11  7  2  0  0  0  0
 12 10  1  0  0  0  0
 13 17  1  1  0  0  0
 14  2  1  6  0  0  0
 14 15  1  0  0  0  0
 14 13  1  0  0  0  0
 15 13  1  0  0  0  0
 17 16  2  0  0  0  0
 18  1  1  0  0  0  0
 19 20  1  6  0  0  0
 19 18  1  0  0  0  0
 21 22  1  1  0  0  0
 21 19  1  0  0  0  0
 23 21  1  0  0  0  0
 24 29  1  6  0  0  0
 24 23  1  0  0  0  0
 25 24  1  1  0  0  0
 26 28  1  6  0  0  0
 26 25  1  0  0  0  0
 27 28  1  6  0  0  0
 27 26  1  0  0  0  0
 27 25  1  0  0  0  0
 30 32  1  0  0  0  0
 32 29  1  0  0  0  0
 32 31  2  0  0  0  0
M  END
>  <MODEL>
1

>  <REMARK>
 VINA RESULT:      -8.9      0.000      0.000
  Name = 
  12 active torsions:
  status: ('A' for Active; 'I' for Inactive)
    1  A    between atoms: C_1  and  C_5
    2  A    between atoms: C_1  and  C_30
    3  A    between atoms: C_2  and  C_5
    4  A    between atoms: C_3  and  C_20
    5  A    between atoms: C_4  and  C_24
    6  A    between atoms: C_4  and  C_30
    7  A    between atoms: C_5  and  C_14
    8  A    between atoms: C_13  and  C_29
    9  A    between atoms: C_15  and  C_20
   10  A    between atoms: C_15  and  C_26
   11  A    between atoms: C_16  and  C_20
   12  A    between atoms: C_16  and  C_24
                            x       y       z     vdW  Elec       q    Type
                         _______ _______ _______ _____ _____    ______ ____

>  <TORSDO>
F 12

$$$$
=
 OpenBabel10262421193D

 32 36  0  0  1  0  0  0  0  0999 V2000
  189.0070  176.9300  143.2410 C   0  0  0  0  0  2  0  0  0  0  0  0
  188.2840  177.0440  144.5840 C   0  0  2  0  0  3  0  0  0  0  0  0
  186.9110  177.6370  144.4270 C   0  0  0  0  0  0  0  0  0  0  0  0
  186.2500  178.1240  145.5610 C   0  0  0  0  0  3  0  0  0  0  0  0
  182.9920  178.6220  141.7480 C   0  0  0  0  0  3  0  0  0  0  0  0
  186.2540  177.6370  143.1860 C   0  0  0  0  0  3  0  0  0  0  0  0
  182.9870  179.1150  144.1220 C   0  0  0  0  0  3  0  0  0  0  0  0
  184.2930  178.6280  144.2270 C   0  0  0  0  0  0  0  0  0  0  0  0
  184.9460  178.6210  145.4620 C   0  0  0  0  0  3  0  0  0  0  0  0
  184.9540  178.1330  143.0800 C   0  0  0  0  0  0  0  0  0  0  0  0
  182.3380  179.1110  142.8840 C   0  0  0  0  0  3  0  0  0  0  0  0
  184.2980  178.1330  141.8450 C   0  0  0  0  0  3  0  0  0  0  0  0
  189.0830  176.9850  146.9350 C   0  0  1  0  0  3  0  0  0  0  0  0
  189.1280  177.7640  145.6340 C   0  0  1  0  0  3  0  0  0  0  0  0
  190.3000  176.8940  146.0390 C   0  0  0  0  0  2  0  0  0  0  0  0
  188.4150  178.1990  148.9480 C   0  0  0  0  0  2  0  0  0  0  0  0
  189.3670  177.9140  148.0650 C   0  0  0  0  0  3  0  0  0  0  0  0
  189.8600  178.1590  142.9390 C   0  0  0  0  0  2  0  0  0  0  0  0
  191.2380  177.7950  142.3850 C   0  0  1  0  0  3  0  0  0  0  0  0
  191.7250  176.6310  142.9850 O   0  0  0  0  0  1  0  0  0  0  0  0
  191.2960  177.6840  140.8540 C   0  0  1  0  0  3  0  0  0  0  0  0
  192.6190  177.6250  140.4110 O   0  0  0  0  0  1  0  0  0  0  0  0
  190.5240  176.4760  140.3190 C   0  0  0  0  0  2  0  0  0  0  0  0
  190.0000  176.6490  138.8910 C   0  0  1  0  0  3  0  0  0  0  0  0
  189.3180  177.9980  138.6850 C   0  0  2  0  0  3  0  0  0  0  0  0
  188.0230  177.8230  137.9100 C   0  0  2  0  0  3  0  0  0  0  0  0
  189.2530  178.3250  137.2030 C   0  0  1  0  0  3  0  0  0  0  0  0
  187.9060  178.9560  136.9110 C   0  0  0  0  0  2  0  0  0  0  0  0
  191.1140  176.4270  137.8710 C   0  0  0  0  0  2  0  0  0  0  0  0
  192.8140  174.5130  137.5330 C   0  0  0  0  0  1  0  0  0  0  0  0
  190.4980  174.1570  137.6960 O   0  0  0  0  0  0  0  0  0  0  0  0
  191.4060  174.9720  137.6930 C   0  0  0  0  0  0  0  0  0  0  0  0
  2  1  1  6  0  0  0
  3  2  1  0  0  0  0
  3  4  1  0  0  0  0
  5 12  2  0  0  0  0
  5 11  1  0  0  0  0
  6  3  2  0  0  0  0
  7  8  1  0  0  0  0
  8  9  1  0  0  0  0
  9  4  2  0  0  0  0
 10  6  1  0  0  0  0
 10  8  2  0  0  0  0
 11  7  2  0  0  0  0
 12 10  1  0  0  0  0
 13 17  1  1  0  0  0
 14  2  1  6  0  0  0
 14 15  1  0  0  0  0
 14 13  1  0  0  0  0
 15 13  1  0  0  0  0
 17 16  2  0  0  0  0
 18  1  1  0  0  0  0
 19 18  1  0  0  0  0
 19 20  1  1  0  0  0
 21 22  1  1  0  0  0
 21 19  1  0  0  0  0
 23 21  1  0  0  0  0
 24 29  1  6  0  0  0
 24 23  1  0  0  0  0
 25 24  1  6  0  0  0
 26 28  1  1  0  0  0
 26 25  1  0  0  0  0
 27 28  1  1  0  0  0
 27 26  1  0  0  0  0
 27 25  1  0  0  0  0
 30 32  1  0  0  0  0
 32 31  2  0  0  0  0
 32 29  1  0  0  0  0
M  END
>  <MODEL>
2

>  <REMARK>
 VINA RESULT:      -8.8      1.098      2.275
  Name = 
  12 active torsions:
  status: ('A' for Active; 'I' for Inactive)
    1  A    between atoms: C_1  and  C_5
    2  A    between atoms: C_1  and  C_30
    3  A    between atoms: C_2  and  C_5
    4  A    between atoms: C_3  and  C_20
    5  A    between atoms: C_4  and  C_24
    6  A    between atoms: C_4  and  C_30
    7  A    between atoms: C_5  and  C_14
    8  A    between atoms: C_13  and  C_29
    9  A    between atoms: C_15  and  C_20
   10  A    between atoms: C_15  and  C_26
   11  A    between atoms: C_16  and  C_20
   12  A    between atoms: C_16  and  C_24
                            x       y       z     vdW  Elec       q    Type
                         _______ _______ _______ _____ _____    ______ ____

>  <TORSDO>
F 12

$$$$
=
 OpenBabel10262421193D

 32 36  0  0  1  0  0  0  0  0999 V2000
  189.7930  177.7970  143.0900 C   0  0  0  0  0  2  0  0  0  0  0  0
  189.2450  177.2940  144.4270 C   0  0  2  0  0  3  0  0  0  0  0  0
  187.8260  177.7390  144.6470 C   0  0  0  0  0  0  0  0  0  0  0  0
  187.3730  177.9350  145.9570 C   0  0  0  0  0  3  0  0  0  0  0  0
  183.3750  178.7160  142.9880 C   0  0  0  0  0  3  0  0  0  0  0  0
  186.9310  177.8830  143.5740 C   0  0  0  0  0  3  0  0  0  0  0  0
  183.8160  178.7740  145.3720 C   0  0  0  0  0  3  0  0  0  0  0  0
  185.1510  178.4340  145.1350 C   0  0  0  0  0  0  0  0  0  0  0  0
  186.0400  178.2850  146.2010 C   0  0  0  0  0  3  0  0  0  0  0  0
  185.6010  178.2330  143.8110 C   0  0  0  0  0  0  0  0  0  0  0  0
  182.9300  178.9150  144.3000 C   0  0  0  0  0  3  0  0  0  0  0  0
  184.7090  178.3750  142.7430 C   0  0  0  0  0  3  0  0  0  0  0  0
  191.0140  176.4280  145.9390 C   0  0  1  0  0  3  0  0  0  0  0  0
  190.1650  177.6380  145.5950 C   0  0  1  0  0  3  0  0  0  0  0  0
  191.6120  177.5730  145.1480 C   0  0  0  0  0  2  0  0  0  0  0  0
  192.4090  175.7360  147.8230 C   0  0  0  0  0  2  0  0  0  0  0  0
  191.4470  176.5290  147.3620 C   0  0  0  0  0  3  0  0  0  0  0  0
  190.0800  176.6540  142.1190 C   0  0  0  0  0  2  0  0  0  0  0  0
  189.6980  177.0000  140.6790 C   0  0  1  0  0  3  0  0  0  0  0  0
  188.6660  177.9400  140.6480 O   0  0  0  0  0  1  0  0  0  0  0  0
  190.8770  177.4540  139.8030 C   0  0  1  0  0  3  0  0  0  0  0  0
  192.0700  177.4290  140.5270 O   0  0  0  0  0  1  0  0  0  0  0  0
  191.0310  176.6110  138.5360 C   0  0  0  0  0  2  0  0  0  0  0  0
  189.7750  176.5580  137.6620 C   0  0  1  0  0  3  0  0  0  0  0  0
  189.3820  177.9320  137.1290 C   0  0  2  0  0  3  0  0  0  0  0  0
  187.9090  178.1970  137.3860 C   0  0  2  0  0  3  0  0  0  0  0  0
  188.3640  177.7830  136.0120 C   0  0  1  0  0  3  0  0  0  0  0  0
  187.3250  178.8770  136.1630 C   0  0  0  0  0  2  0  0  0  0  0  0
  189.9420  175.5480  136.5290 C   0  0  0  0  0  2  0  0  0  0  0  0
  187.9000  173.9690  136.5780 C   0  0  0  0  0  1  0  0  0  0  0  0
  190.0120  173.3570  137.4010 O   0  0  0  0  0  0  0  0  0  0  0  0
  189.3340  174.2290  136.8820 C   0  0  0  0  0  0  0  0  0  0  0  0
  2  1  1  6  0  0  0
  2  3  1  0  0  0  0
  3  4  1  0  0  0  0
  4  9  2  0  0  0  0
  5 11  1  0  0  0  0
  6 10  1  0  0  0  0
  6  3  2  0  0  0  0
  8  7  1  0  0  0  0
  8  9  1  0  0  0  0
 10  8  2  0  0  0  0
 11  7  2  0  0  0  0
 12  5  2  0  0  0  0
 12 10  1  0  0  0  0
 13 17  1  1  0  0  0
 14  2  1  6  0  0  0
 14 13  1  0  0  0  0
 15 14  1  0  0  0  0
 15 13  1  0  0  0  0
 17 16  2  0  0  0  0
 18  1  1  0  0  0  0
 19 20  1  1  0  0  0
 19 18  1  0  0  0  0
 21 22  1  1  0  0  0
 21 19  1  0  0  0  0
 23 21  1  0  0  0  0
 24 29  1  6  0  0  0
 24 23  1  0  0  0  0
 25 26  1  0  0  0  0
 25 24  1  1  0  0  0
 26 28  1  6  0  0  0
 27 28  1  6  0  0  0
 27 25  1  0  0  0  0
 27 26  1  0  0  0  0
 29 32  1  0  0  0  0
 30 32  1  0  0  0  0
 32 31  2  0  0  0  0
M  END
>  <MODEL>
3

>  <REMARK>
 VINA RESULT:      -8.7      1.780      2.877
  Name = 
  12 active torsions:
  status: ('A' for Active; 'I' for Inactive)
    1  A    between atoms: C_1  and  C_5
    2  A    between atoms: C_1  and  C_30
    3  A    between atoms: C_2  and  C_5
    4  A    between atoms: C_3  and  C_20
    5  A    between atoms: C_4  and  C_24
    6  A    between atoms: C_4  and  C_30
    7  A    between atoms: C_5  and  C_14
    8  A    between atoms: C_13  and  C_29
    9  A    between atoms: C_15  and  C_20
   10  A    between atoms: C_15  and  C_26
   11  A    between atoms: C_16  and  C_20
   12  A    between atoms: C_16  and  C_24
                            x       y       z     vdW  Elec       q    Type
                         _______ _______ _______ _____ _____    ______ ____

>  <TORSDO>
F 12

$$$$
=
 OpenBabel10262421193D

 32 36  0  0  1  0  0  0  0  0999 V2000
  185.9890  177.9320  142.1960 C   0  0  0  0  0  2  0  0  0  0  0  0
  185.1680  178.5840  143.3100 C   0  0  2  0  0  3  0  0  0  0  0  0
  185.8340  178.4360  144.6500 C   0  0  0  0  0  0  0  0  0  0  0  0
  185.1950  178.9520  145.7840 C   0  0  0  0  0  3  0  0  0  0  0  0
  189.6310  177.1790  147.3900 C   0  0  0  0  0  3  0  0  0  0  0  0
  187.1110  177.8650  144.7720 C   0  0  0  0  0  3  0  0  0  0  0  0
  187.7140  178.2610  148.4060 C   0  0  0  0  0  3  0  0  0  0  0  0
  187.0840  178.3170  147.1600 C   0  0  0  0  0  0  0  0  0  0  0  0
  185.8160  178.8900  147.0360 C   0  0  0  0  0  3  0  0  0  0  0  0
  187.7350  177.7990  146.0180 C   0  0  0  0  0  0  0  0  0  0  0  0
  188.9860  177.6920  148.5200 C   0  0  0  0  0  3  0  0  0  0  0  0
  189.0070  177.2320  146.1390 C   0  0  0  0  0  3  0  0  0  0  0  0
  182.7950  179.3150  143.3520 C   0  0  1  0  0  3  0  0  0  0  0  0
  183.7160  178.1110  143.3100 C   0  0  1  0  0  3  0  0  0  0  0  0
  183.0210  178.5800  142.0480 C   0  0  0  0  0  2  0  0  0  0  0  0
  180.3540  179.2020  143.3040 C   0  0  0  0  0  2  0  0  0  0  0  0
  181.4860  178.9040  143.9340 C   0  0  0  0  0  3  0  0  0  0  0  0
  186.3980  178.9340  141.1190 C   0  0  0  0  0  2  0  0  0  0  0  0
  186.1020  178.4290  139.7060 C   0  0  1  0  0  3  0  0  0  0  0  0
  185.2490  179.3060  139.0320 O   0  0  0  0  0  1  0  0  0  0  0  0
  187.3530  178.1290  138.8660 C   0  0  1  0  0  3  0  0  0  0  0  0
  187.3310  178.8490  137.6700 O   0  0  0  0  0  1  0  0  0  0  0  0
  188.6530  178.4260  139.6160 C   0  0  0  0  0  2  0  0  0  0  0  0
  189.6280  177.2470  139.6710 C   0  0  1  0  0  3  0  0  0  0  0  0
  190.3280  177.0120  138.3360 C   0  0  2  0  0  3  0  0  0  0  0  0
  190.0860  175.5920  137.8550 C   0  0  2  0  0  3  0  0  0  0  0  0
  191.4010  175.9490  138.4940 C   0  0  1  0  0  3  0  0  0  0  0  0
  191.3780  175.0600  137.2660 C   0  0  0  0  0  2  0  0  0  0  0  0
  190.6340  177.4250  140.8050 C   0  0  0  0  0  2  0  0  0  0  0  0
  189.4180  176.0640  142.6310 C   0  0  0  0  0  1  0  0  0  0  0  0
  189.8850  178.3560  142.8380 O   0  0  0  0  0  0  0  0  0  0  0  0
  189.9670  177.3590  142.1400 C   0  0  0  0  0  0  0  0  0  0  0  0
  2  1  1  6  0  0  0
  2  3  1  0  0  0  0
  3  6  2  0  0  0  0
  3  4  1  0  0  0  0
  4  9  2  0  0  0  0
  5 11  1  0  0  0  0
  6 10  1  0  0  0  0
  7 11  2  0  0  0  0
  8  7  1  0  0  0  0
  9  8  1  0  0  0  0
 10 12  1  0  0  0  0
 10  8  2  0  0  0  0
 12  5  2  0  0  0  0
 13 17  1  1  0  0  0
 14  2  1  6  0  0  0
 14 13  1  0  0  0  0
 15 14  1  0  0  0  0
 15 13  1  0  0  0  0
 16 17  2  0  0  0  0
 18  1  1  0  0  0  0
 19 20  1  6  0  0  0
 19 18  1  0  0  0  0
 21 22  1  6  0  0  0
 21 23  1  0  0  0  0
 21 19  1  0  0  0  0
 24 23  1  6  0  0  0
 24 29  1  0  0  0  0
 25 27  1  0  0  0  0
 25 24  1  1  0  0  0
 26 28  1  6  0  0  0
 26 25  1  0  0  0  0
 26 27  1  0  0  0  0
 27 28  1  6  0  0  0
 29 32  1  0  0  0  0
 32 30  1  0  0  0  0
 32 31  2  0  0  0  0
M  END
>  <MODEL>
4

>  <REMARK>
 VINA RESULT:      -8.7      1.396      5.402
  Name = 
  12 active torsions:
  status: ('A' for Active; 'I' for Inactive)
    1  A    between atoms: C_1  and  C_5
    2  A    between atoms: C_1  and  C_30
    3  A    between atoms: C_2  and  C_5
    4  A    between atoms: C_3  and  C_20
    5  A    between atoms: C_4  and  C_24
    6  A    between atoms: C_4  and  C_30
    7  A    between atoms: C_5  and  C_14
    8  A    between atoms: C_13  and  C_29
    9  A    between atoms: C_15  and  C_20
   10  A    between atoms: C_15  and  C_26
   11  A    between atoms: C_16  and  C_20
   12  A    between atoms: C_16  and  C_24
                            x       y       z     vdW  Elec       q    Type
                         _______ _______ _______ _____ _____    ______ ____

>  <TORSDO>
F 12

$$$$
=
 OpenBabel10262421193D

 32 36  0  0  1  0  0  0  0  0999 V2000
  187.9600  178.7220  141.3910 C   0  0  0  0  0  2  0  0  0  0  0  0
  188.9450  177.5560  141.3020 C   0  0  2  0  0  3  0  0  0  0  0  0
  189.6580  177.3300  142.6060 C   0  0  0  0  0  0  0  0  0  0  0  0
  190.9720  176.8460  142.5860 C   0  0  0  0  0  3  0  0  0  0  0  0
  189.6870  177.1330  147.4510 C   0  0  0  0  0  3  0  0  0  0  0  0
  189.0060  177.5180  143.8370 C   0  0  0  0  0  3  0  0  0  0  0  0
  191.6560  176.4650  146.2030 C   0  0  0  0  0  3  0  0  0  0  0  0
  190.9960  176.7550  145.0050 C   0  0  0  0  0  0  0  0  0  0  0  0
  191.6410  176.5630  143.7810 C   0  0  0  0  0  3  0  0  0  0  0  0
  189.6690  177.2390  145.0320 C   0  0  0  0  0  0  0  0  0  0  0  0
  191.0010  176.6540  147.4240 C   0  0  0  0  0  3  0  0  0  0  0  0
  189.0200  177.4250  146.2570 C   0  0  0  0  0  3  0  0  0  0  0  0
  189.4240  176.8060  138.9830 C   0  0  1  0  0  3  0  0  0  0  0  0
  189.8990  177.6940  140.1180 C   0  0  1  0  0  3  0  0  0  0  0  0
  189.1680  178.2970  138.9350 C   0  0  0  0  0  2  0  0  0  0  0  0
  190.6950  175.2570  137.5840 C   0  0  0  0  0  2  0  0  0  0  0  0
  190.5850  176.4730  138.1110 C   0  0  0  0  0  3  0  0  0  0  0  0
  186.5090  178.2480  141.4500 C   0  0  0  0  0  2  0  0  0  0  0  0
  185.5760  179.1130  140.6020 C   0  0  1  0  0  3  0  0  0  0  0  0
  185.6880  178.7890  139.2480 O   0  0  0  0  0  1  0  0  0  0  0  0
  184.1060  179.0850  141.0490 C   0  0  1  0  0  3  0  0  0  0  0  0
  183.2590  178.8860  139.9570 O   0  0  0  0  0  1  0  0  0  0  0  0
  183.8310  178.0160  142.1090 C   0  0  0  0  0  2  0  0  0  0  0  0
  183.2890  178.5670  143.4300 C   0  0  1  0  0  3  0  0  0  0  0  0
  184.3620  179.2850  144.2420 C   0  0  2  0  0  3  0  0  0  0  0  0
  185.3180  178.2800  144.8600 C   0  0  2  0  0  3  0  0  0  0  0  0
  184.2430  178.9060  145.7070 C   0  0  1  0  0  3  0  0  0  0  0  0
  185.6400  178.7310  146.2710 C   0  0  0  0  0  2  0  0  0  0  0  0
  182.0780  179.4650  143.1880 C   0  0  0  0  0  2  0  0  0  0  0  0
  180.0340  178.2230  144.1600 C   0  0  0  0  0  1  0  0  0  0  0  0
  180.4650  178.3760  141.8570 O   0  0  0  0  0  0  0  0  0  0  0  0
  180.8350  178.6610  142.9840 C   0  0  0  0  0  0  0  0  0  0  0  0
  1 18  1  0  0  0  0
  2  1  1  1  0  0  0
  2  3  1  0  0  0  0
  3  6  1  0  0  0  0
  4  3  2  0  0  0  0
  4  9  1  0  0  0  0
  6 10  2  0  0  0  0
  7 11  2  0  0  0  0
  8 10  1  0  0  0  0
  8  7  1  0  0  0  0
  9  8  2  0  0  0  0
 10 12  1  0  0  0  0
 11  5  1  0  0  0  0
 12  5  2  0  0  0  0
 13 17  1  6  0  0  0
 13 14  1  0  0  0  0
 14  2  1  1  0  0  0
 15 13  1  0  0  0  0
 15 14  1  0  0  0  0
 16 17  2  0  0  0  0
 19 20  1  6  0  0  0
 19 21  1  0  0  0  0
 19 18  1  0  0  0  0
 21 22  1  6  0  0  0
 21 23  1  0  0  0  0
 24 23  1  6  0  0  0
 25 24  1  6  0  0  0
 25 26  1  0  0  0  0
 25 27  1  0  0  0  0
 26 27  1  0  0  0  0
 26 28  1  1  0  0  0
 27 28  1  1  0  0  0
 29 24  1  0  0  0  0
 31 32  2  0  0  0  0
 32 29  1  0  0  0  0
 32 30  1  0  0  0  0
M  END
>  <MODEL>
5

>  <REMARK>
 VINA RESULT:      -8.6      2.240      8.235
  Name = 
  12 active torsions:
  status: ('A' for Active; 'I' for Inactive)
    1  A    between atoms: C_1  and  C_5
    2  A    between atoms: C_1  and  C_30
    3  A    between atoms: C_2  and  C_5
    4  A    between atoms: C_3  and  C_20
    5  A    between atoms: C_4  and  C_24
    6  A    between atoms: C_4  and  C_30
    7  A    between atoms: C_5  and  C_14
    8  A    between atoms: C_13  and  C_29
    9  A    between atoms: C_15  and  C_20
   10  A    between atoms: C_15  and  C_26
   11  A    between atoms: C_16  and  C_20
   12  A    between atoms: C_16  and  C_24
                            x       y       z     vdW  Elec       q    Type
                         _______ _______ _______ _____ _____    ______ ____

>  <TORSDO>
F 12

$$$$
=
 OpenBabel10262421193D

 32 36  0  0  1  0  0  0  0  0999 V2000
  189.7220  177.9530  142.9080 C   0  0  0  0  0  2  0  0  0  0  0  0
  189.1780  177.3890  144.2210 C   0  0  2  0  0  3  0  0  0  0  0  0
  187.7550  177.8130  144.4610 C   0  0  0  0  0  0  0  0  0  0  0  0
  187.3210  178.0180  145.7760 C   0  0  0  0  0  3  0  0  0  0  0  0
  183.2620  178.6960  142.8670 C   0  0  0  0  0  3  0  0  0  0  0  0
  186.8400  177.9290  143.4010 C   0  0  0  0  0  3  0  0  0  0  0  0
  183.7410  178.7910  145.2420 C   0  0  0  0  0  3  0  0  0  0  0  0
  185.0780  178.4700  144.9860 C   0  0  0  0  0  0  0  0  0  0  0  0
  185.9870  178.3480  146.0390 C   0  0  0  0  0  3  0  0  0  0  0  0
  185.5080  178.2600  143.6570 C   0  0  0  0  0  0  0  0  0  0  0  0
  182.8350  178.9030  144.1830 C   0  0  0  0  0  3  0  0  0  0  0  0
  184.5970  178.3740  142.6030 C   0  0  0  0  0  3  0  0  0  0  0  0
  190.9420  176.4670  145.7060 C   0  0  1  0  0  3  0  0  0  0  0  0
  190.0960  177.6890  145.4030 C   0  0  1  0  0  3  0  0  0  0  0  0
  191.5430  177.6380  144.9580 C   0  0  0  0  0  2  0  0  0  0  0  0
  192.3470  175.7220  147.5620 C   0  0  0  0  0  2  0  0  0  0  0  0
  191.3710  176.5160  147.1330 C   0  0  0  0  0  3  0  0  0  0  0  0
  189.8360  176.8820  141.8250 C   0  0  0  0  0  2  0  0  0  0  0  0
  190.2240  177.4640  140.4650 C   0  0  1  0  0  3  0  0  0  0  0  0
  191.3310  176.7970  139.9350 O   0  0  0  0  0  1  0  0  0  0  0  0
  189.0750  177.5100  139.4450 C   0  0  1  0  0  3  0  0  0  0  0  0
  188.0060  178.2610  139.9380 O   0  0  0  0  0  1  0  0  0  0  0  0
  189.5100  178.0710  138.0900 C   0  0  0  0  0  2  0  0  0  0  0  0
  189.3450  177.0920  136.9240 C   0  0  1  0  0  3  0  0  0  0  0  0
  188.8310  175.7300  137.3820 C   0  0  2  0  0  3  0  0  0  0  0  0
  189.9100  174.6740  137.2120 C   0  0  2  0  0  3  0  0  0  0  0  0
  188.7940  174.7700  136.2060 C   0  0  1  0  0  3  0  0  0  0  0  0
  189.2630  173.4090  136.6850 C   0  0  0  0  0  2  0  0  0  0  0  0
  188.4560  177.6870  135.8350 C   0  0  0  0  0  2  0  0  0  0  0  0
  186.0190  177.5570  136.6770 C   0  0  0  0  0  1  0  0  0  0  0  0
  187.2790  179.5380  136.7020 O   0  0  0  0  0  0  0  0  0  0  0  0
  187.2520  178.3510  136.4190 C   0  0  0  0  0  0  0  0  0  0  0  0
  2  1  1  6  0  0  0
  2  3  1  0  0  0  0
  3  4  1  0  0  0  0
  4  9  2  0  0  0  0
  5 11  1  0  0  0  0
  6 10  1  0  0  0  0
  6  3  2  0  0  0  0
  8  7  1  0  0  0  0
  8  9  1  0  0  0  0
 10  8  2  0  0  0  0
 11  7  2  0  0  0  0
 12  5  2  0  0  0  0
 12 10  1  0  0  0  0
 13 17  1  1  0  0  0
 14  2  1  6  0  0  0
 14 13  1  0  0  0  0
 15 14  1  0  0  0  0
 15 13  1  0  0  0  0
 17 16  2  0  0  0  0
 18  1  1  0  0  0  0
 19 20  1  6  0  0  0
 19 18  1  0  0  0  0
 21 22  1  1  0  0  0
 21 19  1  0  0  0  0
 23 21  1  0  0  0  0
 24 29  1  6  0  0  0
 24 23  1  0  0  0  0
 25 24  1  6  0  0  0
 26 28  1  1  0  0  0
 26 25  1  0  0  0  0
 27 28  1  1  0  0  0
 27 26  1  0  0  0  0
 27 25  1  0  0  0  0
 29 32  1  0  0  0  0
 32 30  1  0  0  0  0
 32 31  2  0  0  0  0
M  END
>  <MODEL>
6

>  <REMARK>
 VINA RESULT:      -8.6      1.648      2.430
  Name = 
  12 active torsions:
  status: ('A' for Active; 'I' for Inactive)
    1  A    between atoms: C_1  and  C_5
    2  A    between atoms: C_1  and  C_30
    3  A    between atoms: C_2  and  C_5
    4  A    between atoms: C_3  and  C_20
    5  A    between atoms: C_4  and  C_24
    6  A    between atoms: C_4  and  C_30
    7  A    between atoms: C_5  and  C_14
    8  A    between atoms: C_13  and  C_29
    9  A    between atoms: C_15  and  C_20
   10  A    between atoms: C_15  and  C_26
   11  A    between atoms: C_16  and  C_20
   12  A    between atoms: C_16  and  C_24
                            x       y       z     vdW  Elec       q    Type
                         _______ _______ _______ _____ _____    ______ ____

>  <TORSDO>
F 12

$$$$
=
 OpenBabel10262421193D

 32 36  0  0  1  0  0  0  0  0999 V2000
  188.4590  176.8320  143.2090 C   0  0  0  0  0  2  0  0  0  0  0  0
  187.7990  177.0970  144.5630 C   0  0  2  0  0  3  0  0  0  0  0  0
  186.4360  177.7130  144.4050 C   0  0  0  0  0  0  0  0  0  0  0  0
  185.7810  178.2070  145.5390 C   0  0  0  0  0  3  0  0  0  0  0  0
  182.5400  178.7740  141.7210 C   0  0  0  0  0  3  0  0  0  0  0  0
  185.7820  177.7290  143.1620 C   0  0  0  0  0  3  0  0  0  0  0  0
  182.5380  179.2570  144.0970 C   0  0  0  0  0  3  0  0  0  0  0  0
  183.8360  178.7480  144.2020 C   0  0  0  0  0  0  0  0  0  0  0  0
  184.4860  178.7260  145.4390 C   0  0  0  0  0  3  0  0  0  0  0  0
  184.4910  178.2470  143.0550 C   0  0  0  0  0  0  0  0  0  0  0  0
  181.8920  179.2700  142.8570 C   0  0  0  0  0  3  0  0  0  0  0  0
  183.8380  178.2620  141.8190 C   0  0  0  0  0  3  0  0  0  0  0  0
  188.9450  177.0810  146.7660 C   0  0  1  0  0  3  0  0  0  0  0  0
  188.7050  177.8870  145.5030 C   0  0  1  0  0  3  0  0  0  0  0  0
  190.0150  177.1510  145.6960 C   0  0  0  0  0  2  0  0  0  0  0  0
  188.4140  178.2450  148.8480 C   0  0  0  0  0  2  0  0  0  0  0  0
  189.2920  178.0130  147.8760 C   0  0  0  0  0  3  0  0  0  0  0  0
  188.8500  178.1250  142.4960 C   0  0  0  0  0  2  0  0  0  0  0  0
  189.5710  177.8690  141.1720 C   0  0  1  0  0  3  0  0  0  0  0  0
  190.2690  176.6610  141.2100 O   0  0  0  0  0  1  0  0  0  0  0  0
  188.6630  177.9370  139.9340 C   0  0  1  0  0  3  0  0  0  0  0  0
  187.4800  178.6200  140.2230 O   0  0  0  0  0  1  0  0  0  0  0  0
  189.3490  178.5910  138.7330 C   0  0  0  0  0  2  0  0  0  0  0  0
  189.6910  177.6190  137.6000 C   0  0  1  0  0  3  0  0  0  0  0  0
  189.3420  176.1760  137.9510 C   0  0  2  0  0  3  0  0  0  0  0  0
  190.5650  175.2870  137.8090 C   0  0  2  0  0  3  0  0  0  0  0  0
  189.5160  175.2900  136.7300 C   0  0  1  0  0  3  0  0  0  0  0  0
  190.1350  173.9790  137.1750 C   0  0  0  0  0  2  0  0  0  0  0  0
  189.0290  178.0510  136.2940 C   0  0  0  0  0  2  0  0  0  0  0  0
  186.4970  177.5570  136.3800 C   0  0  0  0  0  1  0  0  0  0  0  0
  187.4060  179.6720  136.8420 O   0  0  0  0  0  0  0  0  0  0  0  0
  187.6270  178.5160  136.5220 C   0  0  0  0  0  0  0  0  0  0  0  0
  2  1  1  6  0  0  0
  3  2  1  0  0  0  0
  3  4  1  0  0  0  0
  5 12  2  0  0  0  0
  5 11  1  0  0  0  0
  6  3  2  0  0  0  0
  7  8  1  0  0  0  0
  8  9  1  0  0  0  0
  9  4  2  0  0  0  0
 10  6  1  0  0  0  0
 10  8  2  0  0  0  0
 11  7  2  0  0  0  0
 12 10  1  0  0  0  0
 13 17  1  1  0  0  0
 14  2  1  6  0  0  0
 14 15  1  0  0  0  0
 14 13  1  0  0  0  0
 15 13  1  0  0  0  0
 17 16  2  0  0  0  0
 18  1  1  0  0  0  0
 19 20  1  1  0  0  0
 19 18  1  0  0  0  0
 21 22  1  1  0  0  0
 21 19  1  0  0  0  0
 23 21  1  0  0  0  0
 24 29  1  6  0  0  0
 24 23  1  0  0  0  0
 25 24  1  6  0  0  0
 26 28  1  1  0  0  0
 26 25  1  0  0  0  0
 27 28  1  1  0  0  0
 27 26  1  0  0  0  0
 27 25  1  0  0  0  0
 29 32  1  0  0  0  0
 30 32  1  0  0  0  0
 32 31  2  0  0  0  0
M  END
>  <MODEL>
7

>  <REMARK>
 VINA RESULT:      -8.6      1.236      1.826
  Name = 
  12 active torsions:
  status: ('A' for Active; 'I' for Inactive)
    1  A    between atoms: C_1  and  C_5
    2  A    between atoms: C_1  and  C_30
    3  A    between atoms: C_2  and  C_5
    4  A    between atoms: C_3  and  C_20
    5  A    between atoms: C_4  and  C_24
    6  A    between atoms: C_4  and  C_30
    7  A    between atoms: C_5  and  C_14
    8  A    between atoms: C_13  and  C_29
    9  A    between atoms: C_15  and  C_20
   10  A    between atoms: C_15  and  C_26
   11  A    between atoms: C_16  and  C_20
   12  A    between atoms: C_16  and  C_24
                            x       y       z     vdW  Elec       q    Type
                         _______ _______ _______ _____ _____    ______ ____

>  <TORSDO>
F 12

$$$$
=
 OpenBabel10262421193D

 32 36  0  0  1  0  0  0  0  0999 V2000
  187.2710  177.5870  141.8760 C   0  0  0  0  0  2  0  0  0  0  0  0
  186.7440  178.1830  143.1820 C   0  0  2  0  0  3  0  0  0  0  0  0
  187.6050  177.7990  144.3540 C   0  0  0  0  0  0  0  0  0  0  0  0
  187.0710  177.8910  145.6460 C   0  0  0  0  0  3  0  0  0  0  0  0
  191.8760  176.4930  146.2400 C   0  0  0  0  0  3  0  0  0  0  0  0
  188.9490  177.4270  144.1830 C   0  0  0  0  0  3  0  0  0  0  0  0
  189.9990  176.9510  147.7050 C   0  0  0  0  0  3  0  0  0  0  0  0
  189.1990  177.2300  146.5930 C   0  0  0  0  0  0  0  0  0  0  0  0
  187.8640  177.6050  146.7620 C   0  0  0  0  0  3  0  0  0  0  0  0
  189.7440  177.1390  145.2930 C   0  0  0  0  0  0  0  0  0  0  0  0
  191.3360  176.5830  147.5270 C   0  0  0  0  0  3  0  0  0  0  0  0
  191.0820  176.7700  145.1230 C   0  0  0  0  0  3  0  0  0  0  0  0
  184.4900  179.1780  143.4940 C   0  0  1  0  0  3  0  0  0  0  0  0
  185.2650  177.8760  143.4020 C   0  0  1  0  0  3  0  0  0  0  0  0
  184.4560  178.3640  142.2180 C   0  0  0  0  0  2  0  0  0  0  0  0
  182.0560  179.0470  143.6680 C   0  0  0  0  0  2  0  0  0  0  0  0
  183.2380  178.9420  144.2670 C   0  0  0  0  0  3  0  0  0  0  0  0
  187.4710  178.6490  140.7970 C   0  0  0  0  0  2  0  0  0  0  0  0
  186.9320  178.2090  139.4350 C   0  0  1  0  0  3  0  0  0  0  0  0
  185.8420  178.9950  139.0530 O   0  0  0  0  0  1  0  0  0  0  0  0
  187.9890  178.1620  138.3210 C   0  0  1  0  0  3  0  0  0  0  0  0
  188.8540  179.2540  138.4120 O   0  0  0  0  0  1  0  0  0  0  0  0
  188.8010  176.8650  138.3310 C   0  0  0  0  0  2  0  0  0  0  0  0
  190.3100  177.0710  138.4860 C   0  0  1  0  0  3  0  0  0  0  0  0
  190.8350  176.5300  139.8120 C   0  0  2  0  0  3  0  0  0  0  0  0
  190.8160  177.6180  140.8720 C   0  0  2  0  0  3  0  0  0  0  0  0
  192.1120  177.2540  140.1980 C   0  0  1  0  0  3  0  0  0  0  0  0
  192.0850  177.5080  141.6930 C   0  0  0  0  0  2  0  0  0  0  0  0
  191.0650  176.4740  137.3020 C   0  0  0  0  0  2  0  0  0  0  0  0
  192.7170  174.5120  137.5970 C   0  0  0  0  0  1  0  0  0  0  0  0
  190.3850  174.2350  137.5960 O   0  0  0  0  0  0  0  0  0  0  0  0
  191.3190  175.0150  137.4980 C   0  0  0  0  0  0  0  0  0  0  0  0
  2  1  1  6  0  0  0
  2  3  1  0  0  0  0
  3  4  1  0  0  0  0
  4  9  2  0  0  0  0
  5 11  1  0  0  0  0
  6  3  2  0  0  0  0
  6 10  1  0  0  0  0
  8  9  1  0  0  0  0
  8  7  1  0  0  0  0
 10  8  2  0  0  0  0
 11  7  2  0  0  0  0
 12 10  1  0  0  0  0
 12  5  2  0  0  0  0
 13 17  1  1  0  0  0
 14  2  1  6  0  0  0
 14 13  1  0  0  0  0
 15 14  1  0  0  0  0
 15 13  1  0  0  0  0
 16 17  2  0  0  0  0
 18  1  1  0  0  0  0
 19 20  1  6  0  0  0
 19 18  1  0  0  0  0
 21 23  1  0  0  0  0
 21 22  1  1  0  0  0
 21 19  1  0  0  0  0
 23 24  1  0  0  0  0
 24 29  1  6  0  0  0
 25 24  1  6  0  0  0
 25 27  1  0  0  0  0
 25 26  1  0  0  0  0
 26 28  1  1  0  0  0
 27 26  1  0  0  0  0
 27 28  1  1  0  0  0
 29 32  1  0  0  0  0
 32 31  2  0  0  0  0
 32 30  1  0  0  0  0
M  END
>  <MODEL>
8

>  <REMARK>
 VINA RESULT:      -8.5      1.760      5.514
  Name = 
  12 active torsions:
  status: ('A' for Active; 'I' for Inactive)
    1  A    between atoms: C_1  and  C_5
    2  A    between atoms: C_1  and  C_30
    3  A    between atoms: C_2  and  C_5
    4  A    between atoms: C_3  and  C_20
    5  A    between atoms: C_4  and  C_24
    6  A    between atoms: C_4  and  C_30
    7  A    between atoms: C_5  and  C_14
    8  A    between atoms: C_13  and  C_29
    9  A    between atoms: C_15  and  C_20
   10  A    between atoms: C_15  and  C_26
   11  A    between atoms: C_16  and  C_20
   12  A    between atoms: C_16  and  C_24
                            x       y       z     vdW  Elec       q    Type
                         _______ _______ _______ _____ _____    ______ ____

>  <TORSDO>
F 12

$$$$
=
 OpenBabel10262421193D

 32 36  0  0  1  0  0  0  0  0999 V2000
  186.4720  177.2870  145.0970 C   0  0  0  0  0  2  0  0  0  0  0  0
  187.9790  177.5500  145.1230 C   0  0  2  0  0  3  0  0  0  0  0  0
  188.6070  177.3130  143.7780 C   0  0  0  0  0  0  0  0  0  0  0  0
  189.7330  176.4850  143.6910 C   0  0  0  0  0  3  0  0  0  0  0  0
  188.9620  178.2470  139.0330 C   0  0  0  0  0  3  0  0  0  0  0  0
  188.1350  177.9660  142.6260 C   0  0  0  0  0  3  0  0  0  0  0  0
  190.5580  176.7620  140.0950 C   0  0  0  0  0  3  0  0  0  0  0  0
  189.9090  176.9400  141.3200 C   0  0  0  0  0  0  0  0  0  0  0  0
  190.3810  176.2960  142.4660 C   0  0  0  0  0  3  0  0  0  0  0  0
  188.7770  177.7800  141.4010 C   0  0  0  0  0  0  0  0  0  0  0  0
  190.0840  177.4160  138.9530 C   0  0  0  0  0  3  0  0  0  0  0  0
  188.3080  178.4300  140.2560 C   0  0  0  0  0  3  0  0  0  0  0  0
  189.8210  177.6310  146.7860 C   0  0  1  0  0  3  0  0  0  0  0  0
  188.6780  176.7910  146.2490 C   0  0  1  0  0  3  0  0  0  0  0  0
  188.5190  177.5450  147.5540 C   0  0  0  0  0  2  0  0  0  0  0  0
  191.8910  176.3330  146.7210 C   0  0  0  0  0  2  0  0  0  0  0  0
  190.8290  176.7320  147.4150 C   0  0  0  0  0  3  0  0  0  0  0  0
  185.6620  178.5530  145.3690 C   0  0  0  0  0  2  0  0  0  0  0  0
  184.3100  178.5490  144.6540 C   0  0  1  0  0  3  0  0  0  0  0  0
  183.3140  179.0910  145.4690 O   0  0  0  0  0  1  0  0  0  0  0  0
  184.3200  179.2290  143.2770 C   0  0  1  0  0  3  0  0  0  0  0  0
  185.3150  180.2070  143.2140 O   0  0  0  0  0  1  0  0  0  0  0  0
  184.5070  178.2360  142.1280 C   0  0  0  0  0  2  0  0  0  0  0  0
  183.4440  178.3390  141.0310 C   0  0  1  0  0  3  0  0  0  0  0  0
  182.0560  178.6280  141.5960 C   0  0  2  0  0  3  0  0  0  0  0  0
  181.0100  177.7890  140.8820 C   0  0  2  0  0  3  0  0  0  0  0  0
  181.1770  179.2400  140.5200 C   0  0  1  0  0  3  0  0  0  0  0  0
  179.7850  178.6500  140.6460 C   0  0  0  0  0  2  0  0  0  0  0  0
  183.8440  179.3710  139.9800 C   0  0  0  0  0  2  0  0  0  0  0  0
  183.6060  177.7330  138.0000 C   0  0  0  0  0  1  0  0  0  0  0  0
  185.5450  178.9990  138.3890 O   0  0  0  0  0  0  0  0  0  0  0  0
  184.4190  178.7170  138.7660 C   0  0  0  0  0  0  0  0  0  0  0  0
  1 18  1  0  0  0  0
  2  1  1  6  0  0  0
  3  2  1  0  0  0  0
  4  3  1  0  0  0  0
  5 12  1  0  0  0  0
  6  3  2  0  0  0  0
  7  8  2  0  0  0  0
  8 10  1  0  0  0  0
  8  9  1  0  0  0  0
  9  4  2  0  0  0  0
 10  6  1  0  0  0  0
 11  5  2  0  0  0  0
 11  7  1  0  0  0  0
 12 10  2  0  0  0  0
 13 17  1  1  0  0  0
 13 15  1  0  0  0  0
 14  2  1  6  0  0  0
 14 13  1  0  0  0  0
 14 15  1  0  0  0  0
 16 17  2  0  0  0  0
 19 18  1  0  0  0  0
 19 20  1  1  0  0  0
 21 22  1  1  0  0  0
 21 19  1  0  0  0  0
 23 21  1  0  0  0  0
 24 29  1  6  0  0  0
 24 23  1  0  0  0  0
 25 24  1  6  0  0  0
 26 28  1  1  0  0  0
 26 25  1  0  0  0  0
 27 28  1  1  0  0  0
 27 26  1  0  0  0  0
 27 25  1  0  0  0  0
 30 32  1  0  0  0  0
 31 32  2  0  0  0  0
 32 29  1  0  0  0  0
M  END
>  <MODEL>
9

>  <REMARK>
 VINA RESULT:      -8.3      2.478      6.738
  Name = 
  12 active torsions:
  status: ('A' for Active; 'I' for Inactive)
    1  A    between atoms: C_1  and  C_5
    2  A    between atoms: C_1  and  C_30
    3  A    between atoms: C_2  and  C_5
    4  A    between atoms: C_3  and  C_20
    5  A    between atoms: C_4  and  C_24
    6  A    between atoms: C_4  and  C_30
    7  A    between atoms: C_5  and  C_14
    8  A    between atoms: C_13  and  C_29
    9  A    between atoms: C_15  and  C_20
   10  A    between atoms: C_15  and  C_26
   11  A    between atoms: C_16  and  C_20
   12  A    between atoms: C_16  and  C_24
                            x       y       z     vdW  Elec       q    Type
                         _______ _______ _______ _____ _____    ______ ____

>  <TORSDO>
F 12

$$$$
