=
 OpenBabel10262421283D

 32 37  0  0  1  0  0  0  0  0999 V2000
  187.5870  177.6180  143.1050 C   0  0  1  0  0  3  0  0  0  0  0  0
  187.9600  177.1990  145.5820 C   0  0  2  0  0  3  0  0  0  0  0  0
  189.3750  177.7590  145.4600 C   0  0  1  0  0  3  0  0  0  0  0  0
  188.3590  177.3850  148.1770 C   0  0  1  0  0  3  0  0  0  0  0  0
  186.6870  178.1910  141.9870 C   0  0  0  0  0  2  0  0  0  0  0  0
  185.6080  179.1640  142.4670 C   0  0  2  0  0  3  0  0  0  0  0  0
  185.7430  177.2730  144.6300 O   0  0  0  0  0  0  0  0  0  0  0  0
  189.8620  177.4990  147.8590 C   0  0  0  0  0  2  0  0  0  0  0  0
  190.2450  177.0410  146.4630 C   0  0  0  0  0  2  0  0  0  0  0  0
  184.5570  178.4490  143.0590 O   0  0  0  0  0  0  0  0  0  0  0  0
  184.8770  178.3550  144.4200 C   0  0  0  0  0  2  0  0  0  0  0  0
  186.9960  178.6750  147.4430 C   0  0  0  0  0  2  0  0  0  0  0  0
  189.0220  178.1660  143.0040 C   0  0  1  0  0  3  0  0  0  0  0  0
  189.9200  177.5130  144.0600 C   0  0  0  0  0  2  0  0  0  0  0  0
  187.8930  178.6650  148.5260 O   0  0  0  0  0  0  0  0  0  0  0  0
  187.0290  177.8190  144.5310 C   0  0  2  0  0  3  0  0  0  0  0  0
  187.3780  177.2820  147.0120 C   0  0  1  0  0  3  0  0  0  0  0  0
  190.5550  176.4460  139.2740 C   0  0  0  0  0  2  0  0  0  0  0  0
  189.6110  178.0010  141.5910 C   0  0  1  0  0  3  0  0  0  0  0  0
  191.9720  178.0540  142.4570 C   0  0  0  0  0  1  0  0  0  0  0  0
  191.5330  177.1780  140.1920 C   0  0  0  0  0  2  0  0  0  0  0  0
  190.9730  177.2880  141.6080 C   0  0  2  0  0  3  0  0  0  0  0  0
  188.6280  177.2880  140.6500 C   0  0  0  0  0  2  0  0  0  0  0  0
  189.1960  177.1460  139.2360 C   0  0  1  0  0  3  0  0  0  0  0  0
  189.2930  178.4930  138.5230 C   0  0  0  0  0  2  0  0  0  0  0  0
  188.9820  178.3630  137.0390 C   0  0  0  0  0  2  0  0  0  0  0  0
  187.5470  178.7660  136.7590 C   0  0  1  0  0  3  0  0  0  0  0  0
  187.0440  178.0360  135.5760 C   0  0  0  0  0  2  0  0  0  0  0  0
  186.7240  177.6310  136.8830 O   0  0  0  0  0  0  0  0  0  0  0  0
  185.1170  179.8850  141.3770 O   0  0  0  0  0  0  0  0  0  0  0  0
  185.1720  178.9930  140.3060 C   0  0  0  0  0  2  0  0  0  0  0  0
  184.8130  179.6560  139.1320 O   0  0  0  0  0  1  0  0  0  0  0  0
  1  5  1  6  0  0  0
  1 16  1  0  0  0  0
  2 17  1  0  0  0  0
  3  2  1  0  0  0  0
  3  9  1  0  0  0  0
  4 15  1  0  0  0  0
  5  6  1  0  0  0  0
  6 10  1  0  0  0  0
  8  4  1  0  0  0  0
  9  8  1  0  0  0  0
 10 11  1  0  0  0  0
 11  7  1  0  0  0  0
 12 15  1  0  0  0  0
 13  1  1  0  0  0  0
 13 14  1  0  0  0  0
 14  3  1  0  0  0  0
 16  7  1  0  0  0  0
 16  2  1  0  0  0  0
 17 12  1  0  0  0  0
 17  4  1  0  0  0  0
 18 21  1  0  0  0  0
 19 22  1  0  0  0  0
 19 13  1  0  0  0  0
 21 22  1  0  0  0  0
 22 20  1  0  0  0  0
 23 19  1  0  0  0  0
 24 18  1  0  0  0  0
 24 23  1  0  0  0  0
 25 24  1  0  0  0  0
 26 25  1  0  0  0  0
 27 29  1  0  0  0  0
 27 26  1  0  0  0  0
 28 27  1  0  0  0  0
 28 29  1  0  0  0  0
 30  6  1  0  0  0  0
 31 30  1  0  0  0  0
 32 31  1  0  0  0  0
M  END
>  <MODEL>
1

>  <REMARK>
 VINA RESULT:      -8.9      0.000      0.000
  Name = 
  6 active torsions:
  status: ('A' for Active; 'I' for Inactive)
    1  A    between atoms: C_1  and  C_10
    2  A    between atoms: C_4  and  O_13
    3  A    between atoms: C_8  and  C_28
    4  A    between atoms: C_10  and  C_19
    5  A    between atoms: O_13  and  C_15
    6  A    between atoms: C_19  and  C_24
                            x       y       z     vdW  Elec       q    Type
                         _______ _______ _______ _____ _____    ______ ____

>  <TORSDO>
F 6

$$$$
=
 OpenBabel10262421283D

 32 37  0  0  1  0  0  0  0  0999 V2000
  188.4450  178.1120  143.3750 C   0  0  1  0  0  3  0  0  0  0  0  0
  190.2250  177.5800  145.1070 C   0  0  2  0  0  3  0  0  0  0  0  0
  189.1810  176.8530  145.9510 C   0  0  1  0  0  3  0  0  0  0  0  0
  191.9760  176.4450  146.7110 C   0  0  1  0  0  3  0  0  0  0  0  0
  188.0160  178.1290  141.8900 C   0  0  0  0  0  2  0  0  0  0  0  0
  188.8690  177.2600  140.9640 C   0  0  2  0  0  3  0  0  0  0  0  0
  190.8040  178.2350  142.8560 O   0  0  0  0  0  0  0  0  0  0  0  0
  190.8040  176.1810  147.6760 C   0  0  0  0  0  2  0  0  0  0  0  0
  189.5650  177.0150  147.4020 C   0  0  0  0  0  2  0  0  0  0  0  0
  190.0870  177.9030  140.7040 O   0  0  0  0  0  0  0  0  0  0  0  0
  190.9730  177.4650  141.6980 C   0  0  0  0  0  2  0  0  0  0  0  0
  191.9990  175.7520  144.8190 C   0  0  0  0  0  2  0  0  0  0  0  0
  187.4080  177.3860  144.2490 C   0  0  1  0  0  3  0  0  0  0  0  0
  187.8050  177.4650  145.7270 C   0  0  0  0  0  2  0  0  0  0  0  0
  192.3060  175.2290  146.0880 O   0  0  0  0  0  0  0  0  0  0  0  0
  189.8580  177.5360  143.6160 C   0  0  2  0  0  3  0  0  0  0  0  0
  191.6760  177.1160  145.3730 C   0  0  1  0  0  3  0  0  0  0  0  0
  183.9320  180.0290  143.8510 C   0  0  0  0  0  2  0  0  0  0  0  0
  185.9800  177.9190  144.0260 C   0  0  1  0  0  3  0  0  0  0  0  0
  185.3680  177.5900  146.4430 C   0  0  0  0  0  1  0  0  0  0  0  0
  183.9750  179.0570  145.0300 C   0  0  0  0  0  2  0  0  0  0  0  0
  185.4000  178.5760  145.2890 C   0  0  2  0  0  3  0  0  0  0  0  0
  185.9190  178.8780  142.8280 C   0  0  0  0  0  2  0  0  0  0  0  0
  184.4970  179.3900  142.5820 C   0  0  1  0  0  3  0  0  0  0  0  0
  183.5750  178.2850  142.0670 C   0  0  0  0  0  2  0  0  0  0  0  0
  183.1700  178.5260  140.6200 C   0  0  0  0  0  2  0  0  0  0  0  0
  184.3960  178.7410  139.7530 C   0  0  1  0  0  3  0  0  0  0  0  0
  183.9900  178.8860  138.3390 C   0  0  0  0  0  2  0  0  0  0  0  0
  184.2990  180.0020  139.1340 O   0  0  0  0  0  0  0  0  0  0  0  0
  188.1890  177.0580  139.7630 O   0  0  0  0  0  0  0  0  0  0  0  0
  188.6400  178.0760  138.9220 C   0  0  0  0  0  2  0  0  0  0  0  0
  187.5550  178.6340  138.2460 O   0  0  0  0  0  1  0  0  0  0  0  0
  1  5  1  6  0  0  0
  1 16  1  0  0  0  0
  1 13  1  0  0  0  0
  2 17  1  0  0  0  0
  2  3  1  0  0  0  0
  3  9  1  0  0  0  0
  4  8  1  0  0  0  0
  6  5  1  0  0  0  0
  7 16  1  0  0  0  0
  9  8  1  0  0  0  0
 10  6  1  0  0  0  0
 10 11  1  0  0  0  0
 11  7  1  0  0  0  0
 12 17  1  0  0  0  0
 12 15  1  0  0  0  0
 13 14  1  0  0  0  0
 14  3  1  0  0  0  0
 15  4  1  0  0  0  0
 16  2  1  0  0  0  0
 17  4  1  0  0  0  0
 18 21  1  0  0  0  0
 19 13  1  0  0  0  0
 19 22  1  0  0  0  0
 21 22  1  0  0  0  0
 22 20  1  0  0  0  0
 23 19  1  0  0  0  0
 24 23  1  0  0  0  0
 24 18  1  0  0  0  0
 25 24  1  0  0  0  0
 26 25  1  0  0  0  0
 27 26  1  0  0  0  0
 28 29  1  0  0  0  0
 28 27  1  0  0  0  0
 29 27  1  0  0  0  0
 30  6  1  0  0  0  0
 31 30  1  0  0  0  0
 32 31  1  0  0  0  0
M  END
>  <MODEL>
2

>  <REMARK>
 VINA RESULT:      -8.9      2.240      5.020
  Name = 
  6 active torsions:
  status: ('A' for Active; 'I' for Inactive)
    1  A    between atoms: C_1  and  C_10
    2  A    between atoms: C_4  and  O_13
    3  A    between atoms: C_8  and  C_28
    4  A    between atoms: C_10  and  C_19
    5  A    between atoms: O_13  and  C_15
    6  A    between atoms: C_19  and  C_24
                            x       y       z     vdW  Elec       q    Type
                         _______ _______ _______ _____ _____    ______ ____

>  <TORSDO>
F 6

$$$$
=
 OpenBabel10262421283D

 32 37  0  0  1  0  0  0  0  0999 V2000
  184.5660  179.0530  140.5210 C   0  0  1  0  0  3  0  0  0  0  0  0
  185.1080  179.1430  143.0000 C   0  0  2  0  0  3  0  0  0  0  0  0
  183.7850  178.4470  143.3110 C   0  0  1  0  0  3  0  0  0  0  0  0
  185.7080  178.6190  145.5100 C   0  0  1  0  0  3  0  0  0  0  0  0
  185.0240  178.7140  139.0840 C   0  0  0  0  0  2  0  0  0  0  0  0
  186.2610  177.8180  138.9980 C   0  0  2  0  0  3  0  0  0  0  0  0
  186.8190  179.4230  141.3200 O   0  0  0  0  0  0  0  0  0  0  0  0
  184.2040  178.3760  145.7370 C   0  0  0  0  0  2  0  0  0  0  0  0
  183.3050  178.9450  144.6530 C   0  0  0  0  0  2  0  0  0  0  0  0
  187.4100  178.5720  139.2740 O   0  0  0  0  0  0  0  0  0  0  0  0
  187.6100  178.4750  140.6580 C   0  0  0  0  0  2  0  0  0  0  0  0
  186.7800  177.5790  144.1560 C   0  0  0  0  0  2  0  0  0  0  0  0
  183.2320  178.3650  140.8600 C   0  0  1  0  0  3  0  0  0  0  0  0
  182.7490  178.7900  142.2510 C   0  0  0  0  0  2  0  0  0  0  0  0
  186.3470  177.3670  145.4770 O   0  0  0  0  0  0  0  0  0  0  0  0
  185.6220  178.7530  141.6070 C   0  0  2  0  0  3  0  0  0  0  0  0
  186.1820  178.9620  144.1000 C   0  0  1  0  0  3  0  0  0  0  0  0
  179.3830  178.8030  138.8060 C   0  0  0  0  0  2  0  0  0  0  0  0
  182.1530  178.6240  139.7910 C   0  0  1  0  0  3  0  0  0  0  0  0
  182.2370  176.2430  138.9820 C   0  0  0  0  0  1  0  0  0  0  0  0
  180.3040  177.6570  138.3880 C   0  0  0  0  0  2  0  0  0  0  0  0
  181.3350  177.3620  139.4740 C   0  0  2  0  0  3  0  0  0  0  0  0
  181.2360  179.7900  140.1890 C   0  0  0  0  0  2  0  0  0  0  0  0
  180.1790  180.0710  139.1180 C   0  0  1  0  0  3  0  0  0  0  0  0
  180.7950  180.6570  137.8490 C   0  0  0  0  0  2  0  0  0  0  0  0
  181.4430  182.0080  138.1150 C   0  0  0  0  0  2  0  0  0  0  0  0
  180.5660  183.1310  137.5940 C   0  0  1  0  0  3  0  0  0  0  0  0
  181.4020  184.2990  137.2470 C   0  0  0  0  0  2  0  0  0  0  0  0
  180.9320  183.4120  136.2640 O   0  0  0  0  0  0  0  0  0  0  0  0
  186.3580  177.2860  137.7130 O   0  0  0  0  0  0  0  0  0  0  0  0
  187.1750  178.1780  137.0170 C   0  0  0  0  0  2  0  0  0  0  0  0
  186.8490  178.1450  135.6610 O   0  0  0  0  0  1  0  0  0  0  0  0
  1  5  1  6  0  0  0
  1 13  1  0  0  0  0
  1 16  1  0  0  0  0
  2  3  1  0  0  0  0
  2 17  1  0  0  0  0
  3  9  1  0  0  0  0
  4  8  1  0  0  0  0
  6  5  1  0  0  0  0
  6 10  1  0  0  0  0
  7 16  1  0  0  0  0
  9  8  1  0  0  0  0
 10 11  1  0  0  0  0
 11  7  1  0  0  0  0
 12 15  1  0  0  0  0
 13 14  1  0  0  0  0
 14  3  1  0  0  0  0
 15  4  1  0  0  0  0
 16  2  1  0  0  0  0
 17 12  1  0  0  0  0
 17  4  1  0  0  0  0
 18 24  1  0  0  0  0
 19 23  1  0  0  0  0
 19 13  1  0  0  0  0
 20 22  1  0  0  0  0
 21 18  1  0  0  0  0
 21 22  1  0  0  0  0
 22 19  1  0  0  0  0
 24 23  1  0  0  0  0
 25 26  1  0  0  0  0
 25 24  1  0  0  0  0
 27 26  1  0  0  0  0
 28 27  1  0  0  0  0
 29 28  1  0  0  0  0
 29 27  1  0  0  0  0
 30  6  1  0  0  0  0
 31 30  1  0  0  0  0
 32 31  1  0  0  0  0
M  END
>  <MODEL>
3

>  <REMARK>
 VINA RESULT:      -8.7      3.510      6.854
  Name = 
  6 active torsions:
  status: ('A' for Active; 'I' for Inactive)
    1  A    between atoms: C_1  and  C_10
    2  A    between atoms: C_4  and  O_13
    3  A    between atoms: C_8  and  C_28
    4  A    between atoms: C_10  and  C_19
    5  A    between atoms: O_13  and  C_15
    6  A    between atoms: C_19  and  C_24
                            x       y       z     vdW  Elec       q    Type
                         _______ _______ _______ _____ _____    ______ ____

>  <TORSDO>
F 6

$$$$
=
 OpenBabel10262421283D

 32 37  0  0  1  0  0  0  0  0999 V2000
  188.4260  178.1200  142.2880 C   0  0  1  0  0  3  0  0  0  0  0  0
  189.2620  178.0690  139.8910 C   0  0  2  0  0  3  0  0  0  0  0  0
  190.0610  176.8060  140.2010 C   0  0  1  0  0  3  0  0  0  0  0  0
  189.7810  177.5030  137.3730 C   0  0  1  0  0  3  0  0  0  0  0  0
  187.2350  178.2530  143.2650 C   0  0  0  0  0  2  0  0  0  0  0  0
  185.8580  178.0490  142.6320 C   0  0  2  0  0  3  0  0  0  0  0  0
  187.3210  179.3560  140.5270 O   0  0  0  0  0  0  0  0  0  0  0  0
  190.8880  176.5660  137.8940 C   0  0  0  0  0  2  0  0  0  0  0  0
  191.2970  176.8170  139.3340 C   0  0  0  0  0  2  0  0  0  0  0  0
  185.4970  179.1950  141.9080 O   0  0  0  0  0  0  0  0  0  0  0  0
  185.9710  178.9900  140.6050 C   0  0  0  0  0  2  0  0  0  0  0  0
  187.8480  177.2910  137.8990 C   0  0  0  0  0  2  0  0  0  0  0  0
  189.2500  176.8540  142.5800 C   0  0  1  0  0  3  0  0  0  0  0  0
  190.4780  176.7920  141.6650 C   0  0  0  0  0  2  0  0  0  0  0  0
  188.7040  176.7050  136.9500 O   0  0  0  0  0  0  0  0  0  0  0  0
  188.0270  178.1770  140.7970 C   0  0  2  0  0  3  0  0  0  0  0  0
  188.9140  178.2360  138.3930 C   0  0  1  0  0  3  0  0  0  0  0  0
  191.2380  177.4710  146.4390 C   0  0  0  0  0  2  0  0  0  0  0  0
  189.6540  176.7490  144.0630 C   0  0  1  0  0  3  0  0  0  0  0  0
  191.2890  174.8970  143.5940 C   0  0  0  0  0  1  0  0  0  0  0  0
  191.4430  176.1380  145.7210 C   0  0  0  0  0  2  0  0  0  0  0  0
  191.1000  176.2580  144.2390 C   0  0  2  0  0  3  0  0  0  0  0  0
  189.4290  178.0760  144.8020 C   0  0  0  0  0  2  0  0  0  0  0  0
  189.8020  177.9710  146.2830 C   0  0  1  0  0  3  0  0  0  0  0  0
  188.8250  177.0850  147.0550 C   0  0  0  0  0  2  0  0  0  0  0  0
  187.6590  177.8900  147.6100 C   0  0  0  0  0  2  0  0  0  0  0  0
  186.5170  177.9290  146.6130 C   0  0  1  0  0  3  0  0  0  0  0  0
  185.2540  178.2540  147.3100 C   0  0  0  0  0  2  0  0  0  0  0  0
  185.9720  179.2270  146.5960 O   0  0  0  0  0  0  0  0  0  0  0  0
  184.9150  177.8240  143.6350 O   0  0  0  0  0  0  0  0  0  0  0  0
  184.1020  178.9570  143.6220 C   0  0  0  0  0  2  0  0  0  0  0  0
  183.0940  178.8160  144.5760 O   0  0  0  0  0  1  0  0  0  0  0  0
  1 13  1  0  0  0  0
  1  5  1  1  0  0  0
  2  3  1  0  0  0  0
  2 16  1  0  0  0  0
  3 14  1  0  0  0  0
  4  8  1  0  0  0  0
  4 17  1  0  0  0  0
  6  5  1  0  0  0  0
  6 30  1  0  0  0  0
  7 11  1  0  0  0  0
  7 16  1  0  0  0  0
  8  9  1  0  0  0  0
  9  3  1  0  0  0  0
 10  6  1  0  0  0  0
 11 10  1  0  0  0  0
 12 17  1  0  0  0  0
 13 19  1  0  0  0  0
 14 13  1  0  0  0  0
 15  4  1  0  0  0  0
 15 12  1  0  0  0  0
 16  1  1  0  0  0  0
 17  2  1  0  0  0  0
 19 22  1  0  0  0  0
 19 23  1  0  0  0  0
 20 22  1  0  0  0  0
 21 18  1  0  0  0  0
 22 21  1  0  0  0  0
 23 24  1  0  0  0  0
 24 18  1  0  0  0  0
 24 25  1  0  0  0  0
 25 26  1  0  0  0  0
 27 28  1  0  0  0  0
 27 26  1  0  0  0  0
 29 27  1  0  0  0  0
 29 28  1  0  0  0  0
 31 30  1  0  0  0  0
 31 32  1  0  0  0  0
M  END
>  <MODEL>
4

>  <REMARK>
 VINA RESULT:      -8.4      1.460      6.798
  Name = 
  6 active torsions:
  status: ('A' for Active; 'I' for Inactive)
    1  A    between atoms: C_1  and  C_10
    2  A    between atoms: C_4  and  O_13
    3  A    between atoms: C_8  and  C_28
    4  A    between atoms: C_10  and  C_19
    5  A    between atoms: O_13  and  C_15
    6  A    between atoms: C_19  and  C_24
                            x       y       z     vdW  Elec       q    Type
                         _______ _______ _______ _____ _____    ______ ____

>  <TORSDO>
F 6

$$$$
=
 OpenBabel10262421283D

 32 37  0  0  1  0  0  0  0  0999 V2000
  185.4670  178.0350  142.5750 C   0  0  1  0  0  3  0  0  0  0  0  0
  182.9480  178.2210  142.3210 C   0  0  2  0  0  3  0  0  0  0  0  0
  182.8770  179.0050  143.6290 C   0  0  1  0  0  3  0  0  0  0  0  0
  180.4620  179.0160  141.9780 C   0  0  1  0  0  3  0  0  0  0  0  0
  186.8690  178.1770  141.9400 C   0  0  0  0  0  2  0  0  0  0  0  0
  186.9110  179.0020  140.6520 C   0  0  2  0  0  3  0  0  0  0  0  0
  184.3710  177.6660  140.4510 O   0  0  0  0  0  0  0  0  0  0  0  0
  180.4430  179.3490  143.4820 C   0  0  0  0  0  2  0  0  0  0  0  0
  181.5530  178.6930  144.2840 C   0  0  0  0  0  2  0  0  0  0  0  0
  186.4160  178.2380  139.5860 O   0  0  0  0  0  0  0  0  0  0  0  0
  185.0380  178.4920  139.5380 C   0  0  0  0  0  2  0  0  0  0  0  0
  181.7890  179.8380  140.7040 C   0  0  0  0  0  2  0  0  0  0  0  0
  185.3700  178.8150  143.8980 C   0  0  1  0  0  3  0  0  0  0  0  0
  184.0060  178.5820  144.5570 C   0  0  0  0  0  2  0  0  0  0  0  0
  180.5610  180.2260  141.2690 O   0  0  0  0  0  0  0  0  0  0  0  0
  184.3060  178.4170  141.6320 C   0  0  2  0  0  3  0  0  0  0  0  0
  181.7570  178.4860  141.3690 C   0  0  1  0  0  3  0  0  0  0  0  0
  187.9690  176.7580  146.7670 C   0  0  0  0  0  2  0  0  0  0  0  0
  186.5220  178.4770  144.8620 C   0  0  1  0  0  3  0  0  0  0  0  0
  185.3540  179.5660  146.8050 C   0  0  0  0  0  1  0  0  0  0  0  0
  187.2140  178.0020  147.2330 C   0  0  0  0  0  2  0  0  0  0  0  0
  186.0360  178.3030  146.3110 C   0  0  2  0  0  3  0  0  0  0  0  0
  187.3040  177.2410  144.3920 C   0  0  0  0  0  2  0  0  0  0  0  0
  188.4680  176.9150  145.3310 C   0  0  1  0  0  3  0  0  0  0  0  0
  189.5780  177.9620  145.2480 C   0  0  0  0  0  2  0  0  0  0  0  0
  190.7250  177.4910  144.3650 C   0  0  0  0  0  2  0  0  0  0  0  0
  190.5340  177.9760  142.9410 C   0  0  1  0  0  3  0  0  0  0  0  0
  191.5610  177.3730  142.0650 C   0  0  0  0  0  2  0  0  0  0  0  0
  190.2500  176.8700  142.1180 O   0  0  0  0  0  0  0  0  0  0  0  0
  188.2280  179.3710  140.3810 O   0  0  0  0  0  0  0  0  0  0  0  0
  188.6520  178.4830  139.3930 C   0  0  0  0  0  2  0  0  0  0  0  0
  189.1090  179.2020  138.2880 O   0  0  0  0  0  1  0  0  0  0  0  0
  1  5  1  6  0  0  0
  1 13  1  0  0  0  0
  2  3  1  0  0  0  0
  3  9  1  0  0  0  0
  3 14  1  0  0  0  0
  4  8  1  0  0  0  0
  6  5  1  0  0  0  0
  7 16  1  0  0  0  0
  8  9  1  0  0  0  0
 10  6  1  0  0  0  0
 11 10  1  0  0  0  0
 11  7  1  0  0  0  0
 12 15  1  0  0  0  0
 12 17  1  0  0  0  0
 13 14  1  0  0  0  0
 13 19  1  0  0  0  0
 15  4  1  0  0  0  0
 16  2  1  0  0  0  0
 16  1  1  0  0  0  0
 17  4  1  0  0  0  0
 17  2  1  0  0  0  0
 18 21  1  0  0  0  0
 19 22  1  0  0  0  0
 22 20  1  0  0  0  0
 22 21  1  0  0  0  0
 23 19  1  0  0  0  0
 23 24  1  0  0  0  0
 24 18  1  0  0  0  0
 25 24  1  0  0  0  0
 26 25  1  0  0  0  0
 27 26  1  0  0  0  0
 28 29  1  0  0  0  0
 28 27  1  0  0  0  0
 29 27  1  0  0  0  0
 30  6  1  0  0  0  0
 31 30  1  0  0  0  0
 32 31  1  0  0  0  0
M  END
>  <MODEL>
5

>  <REMARK>
 VINA RESULT:      -8.1      2.488      6.570
  Name = 
  6 active torsions:
  status: ('A' for Active; 'I' for Inactive)
    1  A    between atoms: C_1  and  C_10
    2  A    between atoms: C_4  and  O_13
    3  A    between atoms: C_8  and  C_28
    4  A    between atoms: C_10  and  C_19
    5  A    between atoms: O_13  and  C_15
    6  A    between atoms: C_19  and  C_24
                            x       y       z     vdW  Elec       q    Type
                         _______ _______ _______ _____ _____    ______ ____

>  <TORSDO>
F 6

$$$$
=
 OpenBabel10262421283D

 32 37  0  0  1  0  0  0  0  0999 V2000
  186.0870  178.5590  140.9000 C   0  0  1  0  0  3  0  0  0  0  0  0
  188.3700  178.3360  139.8110 C   0  0  2  0  0  3  0  0  0  0  0  0
  188.8460  177.4910  140.9900 C   0  0  1  0  0  3  0  0  0  0  0  0
  190.5710  177.5080  138.6270 C   0  0  1  0  0  3  0  0  0  0  0  0
  184.5500  178.4720  140.7660 C   0  0  0  0  0  2  0  0  0  0  0  0
  184.0540  177.7080  139.5370 C   0  0  2  0  0  3  0  0  0  0  0  0
  186.4240  179.0020  138.5470 O   0  0  0  0  0  0  0  0  0  0  0  0
  191.0790  177.1070  140.0260 C   0  0  0  0  0  2  0  0  0  0  0  0
  190.3220  177.7480  141.1760 C   0  0  0  0  0  2  0  0  0  0  0  0
  184.1900  178.5100  138.3950 O   0  0  0  0  0  0  0  0  0  0  0  0
  185.4630  178.2320  137.8800 C   0  0  0  0  0  2  0  0  0  0  0  0
  188.8680  176.7720  137.8420 C   0  0  0  0  0  2  0  0  0  0  0  0
  186.5940  177.7170  142.0850 C   0  0  1  0  0  3  0  0  0  0  0  0
  188.1060  177.8940  142.2580 C   0  0  0  0  0  2  0  0  0  0  0  0
  190.2000  176.3340  137.9490 O   0  0  0  0  0  0  0  0  0  0  0  0
  186.8540  178.1980  139.6100 C   0  0  2  0  0  3  0  0  0  0  0  0
  189.1660  178.0910  138.5070 C   0  0  1  0  0  3  0  0  0  0  0  0
  185.3100  179.5860  145.8370 C   0  0  0  0  0  2  0  0  0  0  0  0
  185.8410  178.0340  143.3900 C   0  0  1  0  0  3  0  0  0  0  0  0
  187.3230  176.5100  144.7360 C   0  0  0  0  0  1  0  0  0  0  0  0
  185.9500  178.2000  145.8980 C   0  0  0  0  0  2  0  0  0  0  0  0
  186.7460  177.9100  144.6280 C   0  0  2  0  0  3  0  0  0  0  0  0
  185.1720  179.4150  143.3330 C   0  0  0  0  0  2  0  0  0  0  0  0
  184.3990  179.7250  144.6170 C   0  0  1  0  0  3  0  0  0  0  0  0
  183.1550  178.8490  144.7590 C   0  0  0  0  0  2  0  0  0  0  0  0
  182.2180  179.0140  143.5710 C   0  0  0  0  0  2  0  0  0  0  0  0
  180.7900  178.6970  143.9710 C   0  0  1  0  0  3  0  0  0  0  0  0
  179.8510  179.4050  143.0750 C   0  0  0  0  0  2  0  0  0  0  0  0
  180.1520  178.0440  142.8990 O   0  0  0  0  0  0  0  0  0  0  0  0
  182.7090  177.3770  139.7090 O   0  0  0  0  0  0  0  0  0  0  0  0
  182.0790  178.5860  140.0040 C   0  0  0  0  0  2  0  0  0  0  0  0
  180.7800  178.5680  139.4960 O   0  0  0  0  0  1  0  0  0  0  0  0
  1  5  1  6  0  0  0
  1 13  1  0  0  0  0
  2  3  1  0  0  0  0
  3  9  1  0  0  0  0
  3 14  1  0  0  0  0
  4  8  1  0  0  0  0
  6 30  1  0  0  0  0
  6  5  1  0  0  0  0
  7 16  1  0  0  0  0
  8  9  1  0  0  0  0
 10  6  1  0  0  0  0
 11 10  1  0  0  0  0
 11  7  1  0  0  0  0
 12 15  1  0  0  0  0
 12 17  1  0  0  0  0
 13 14  1  0  0  0  0
 13 19  1  0  0  0  0
 15  4  1  0  0  0  0
 16  2  1  0  0  0  0
 16  1  1  0  0  0  0
 17  4  1  0  0  0  0
 17  2  1  0  0  0  0
 18 21  1  0  0  0  0
 19 22  1  0  0  0  0
 22 20  1  0  0  0  0
 22 21  1  0  0  0  0
 23 19  1  0  0  0  0
 23 24  1  0  0  0  0
 24 25  1  0  0  0  0
 24 18  1  0  0  0  0
 26 27  1  0  0  0  0
 26 25  1  0  0  0  0
 28 27  1  0  0  0  0
 29 28  1  0  0  0  0
 29 27  1  0  0  0  0
 30 31  1  0  0  0  0
 32 31  1  0  0  0  0
M  END
>  <MODEL>
6

>  <REMARK>
 VINA RESULT:      -8.0      2.817      6.865
  Name = 
  6 active torsions:
  status: ('A' for Active; 'I' for Inactive)
    1  A    between atoms: C_1  and  C_10
    2  A    between atoms: C_4  and  O_13
    3  A    between atoms: C_8  and  C_28
    4  A    between atoms: C_10  and  C_19
    5  A    between atoms: O_13  and  C_15
    6  A    between atoms: C_19  and  C_24
                            x       y       z     vdW  Elec       q    Type
                         _______ _______ _______ _____ _____    ______ ____

>  <TORSDO>
F 6

$$$$
=
 OpenBabel10262421283D

 32 37  0  0  1  0  0  0  0  0999 V2000
  187.1700  178.4410  144.5790 C   0  0  1  0  0  3  0  0  0  0  0  0
  184.9400  179.1210  143.5720 C   0  0  2  0  0  3  0  0  0  0  0  0
  185.1380  178.0990  142.4550 C   0  0  1  0  0  3  0  0  0  0  0  0
  182.4600  179.2530  142.6990 C   0  0  1  0  0  3  0  0  0  0  0  0
  187.9790  178.0300  145.8300 C   0  0  0  0  0  2  0  0  0  0  0  0
  187.1340  177.5790  147.0230 C   0  0  2  0  0  3  0  0  0  0  0  0
  185.5100  179.6490  145.8580 O   0  0  0  0  0  0  0  0  0  0  0  0
  182.9620  178.5810  141.4070 C   0  0  0  0  0  2  0  0  0  0  0  0
  184.4670  178.6370  141.2140 C   0  0  0  0  0  2  0  0  0  0  0  0
  186.5740  178.7000  147.6540 O   0  0  0  0  0  0  0  0  0  0  0  0
  185.3340  178.9090  147.0350 C   0  0  0  0  0  2  0  0  0  0  0  0
  182.6670  178.4010  144.5130 C   0  0  0  0  0  2  0  0  0  0  0  0
  187.3530  177.4280  143.4350 C   0  0  1  0  0  3  0  0  0  0  0  0
  186.6210  177.9040  142.1760 C   0  0  0  0  0  2  0  0  0  0  0  0
  181.7600  178.2890  143.4440 O   0  0  0  0  0  0  0  0  0  0  0  0
  185.6700  178.6880  144.8510 C   0  0  2  0  0  3  0  0  0  0  0  0
  183.4590  179.4860  143.8300 C   0  0  1  0  0  3  0  0  0  0  0  0
  191.6720  177.8770  142.8270 C   0  0  0  0  0  2  0  0  0  0  0  0
  188.8370  177.1390  143.1430 C   0  0  1  0  0  3  0  0  0  0  0  0
  188.5230  177.4770  140.6700 C   0  0  0  0  0  1  0  0  0  0  0  0
  190.8000  177.5330  141.6200 C   0  0  0  0  0  2  0  0  0  0  0  0
  189.3370  177.8750  141.8890 C   0  0  2  0  0  3  0  0  0  0  0  0
  189.7220  177.4580  144.3570 C   0  0  0  0  0  2  0  0  0  0  0  0
  191.1960  177.1470  144.0830 C   0  0  1  0  0  3  0  0  0  0  0  0
  191.4510  175.6450  143.9740 C   0  0  0  0  0  2  0  0  0  0  0  0
  192.0550  175.0860  145.2540 C   0  0  0  0  0  2  0  0  0  0  0  0
  192.0560  176.1400  146.3460 C   0  0  1  0  0  3  0  0  0  0  0  0
  191.5450  175.5570  147.6040 C   0  0  0  0  0  2  0  0  0  0  0  0
  192.9210  175.7250  147.3760 O   0  0  0  0  0  0  0  0  0  0  0  0
  187.9430  176.8970  147.9320 O   0  0  0  0  0  0  0  0  0  0  0  0
  188.3060  177.8560  148.8770 C   0  0  0  0  0  2  0  0  0  0  0  0
  189.6270  178.2470  148.6570 O   0  0  0  0  0  1  0  0  0  0  0  0
  1 16  1  0  0  0  0
  1  5  1  1  0  0  0
  2 17  1  0  0  0  0
  2 16  1  0  0  0  0
  3  2  1  0  0  0  0
  4 15  1  0  0  0  0
  4 17  1  0  0  0  0
  5  6  1  0  0  0  0
  6 10  1  0  0  0  0
  6 30  1  0  0  0  0
  7 11  1  0  0  0  0
  8  4  1  0  0  0  0
  9  8  1  0  0  0  0
  9  3  1  0  0  0  0
 11 10  1  0  0  0  0
 13  1  1  0  0  0  0
 14  3  1  0  0  0  0
 14 13  1  0  0  0  0
 15 12  1  0  0  0  0
 16  7  1  0  0  0  0
 17 12  1  0  0  0  0
 18 24  1  0  0  0  0
 19 13  1  0  0  0  0
 19 23  1  0  0  0  0
 20 22  1  0  0  0  0
 21 22  1  0  0  0  0
 21 18  1  0  0  0  0
 22 19  1  0  0  0  0
 24 23  1  0  0  0  0
 25 24  1  0  0  0  0
 25 26  1  0  0  0  0
 26 27  1  0  0  0  0
 27 29  1  0  0  0  0
 27 28  1  0  0  0  0
 29 28  1  0  0  0  0
 30 31  1  0  0  0  0
 32 31  1  0  0  0  0
M  END
>  <MODEL>
7

>  <REMARK>
 VINA RESULT:      -7.8      2.687      6.636
  Name = 
  6 active torsions:
  status: ('A' for Active; 'I' for Inactive)
    1  A    between atoms: C_1  and  C_10
    2  A    between atoms: C_4  and  O_13
    3  A    between atoms: C_8  and  C_28
    4  A    between atoms: C_10  and  C_19
    5  A    between atoms: O_13  and  C_15
    6  A    between atoms: C_19  and  C_24
                            x       y       z     vdW  Elec       q    Type
                         _______ _______ _______ _____ _____    ______ ____

>  <TORSDO>
F 6

$$$$
=
 OpenBabel10262421283D

 32 37  0  0  1  0  0  0  0  0999 V2000
  187.6010  178.4730  141.3560 C   0  0  1  0  0  3  0  0  0  0  0  0
  187.4460  178.2740  138.8290 C   0  0  2  0  0  3  0  0  0  0  0  0
  188.4940  177.1640  138.8570 C   0  0  1  0  0  3  0  0  0  0  0  0
  187.0390  177.5130  136.3420 C   0  0  1  0  0  3  0  0  0  0  0  0
  186.8740  178.5570  142.7170 C   0  0  0  0  0  2  0  0  0  0  0  0
  185.4100  178.1120  142.6930 C   0  0  2  0  0  3  0  0  0  0  0  0
  185.7210  179.3630  140.1210 O   0  0  0  0  0  0  0  0  0  0  0  0
  188.3950  176.7860  136.4250 C   0  0  0  0  0  2  0  0  0  0  0  0
  189.2820  177.2400  137.5710 C   0  0  0  0  0  2  0  0  0  0  0  0
  184.6210  179.1180  142.1170 O   0  0  0  0  0  0  0  0  0  0  0  0
  184.5820  178.8380  140.7450 C   0  0  0  0  0  2  0  0  0  0  0  0
  185.5180  177.1140  137.6020 C   0  0  0  0  0  2  0  0  0  0  0  0
  188.6650  177.3620  141.3570 C   0  0  1  0  0  3  0  0  0  0  0  0
  189.4380  177.3600  140.0340 C   0  0  0  0  0  2  0  0  0  0  0  0
  186.0240  176.5440  136.4200 O   0  0  0  0  0  0  0  0  0  0  0  0
  186.6550  178.3190  140.1450 C   0  0  2  0  0  3  0  0  0  0  0  0
  186.5260  178.2340  137.5860 C   0  0  1  0  0  3  0  0  0  0  0  0
  191.1550  178.9260  144.6090 C   0  0  0  0  0  2  0  0  0  0  0  0
  189.6190  177.4680  142.5610 C   0  0  1  0  0  3  0  0  0  0  0  0
  191.6510  177.5030  141.0790 C   0  0  0  0  0  1  0  0  0  0  0  0
  191.8470  178.2590  143.4200 C   0  0  0  0  0  2  0  0  0  0  0  0
  190.9200  178.2070  142.2090 C   0  0  2  0  0  3  0  0  0  0  0  0
  188.9290  178.1160  143.7710 C   0  0  0  0  0  2  0  0  0  0  0  0
  189.8630  178.1990  144.9810 C   0  0  1  0  0  3  0  0  0  0  0  0
  190.1590  176.8200  145.5680 C   0  0  0  0  0  2  0  0  0  0  0  0
  189.7390  176.7340  147.0280 C   0  0  0  0  0  2  0  0  0  0  0  0
  188.8700  177.9190  147.4040 C   0  0  1  0  0  3  0  0  0  0  0  0
  187.9380  177.5340  148.4840 C   0  0  0  0  0  2  0  0  0  0  0  0
  189.1150  178.2540  148.7490 O   0  0  0  0  0  0  0  0  0  0  0  0
  184.9760  177.8770  143.9980 O   0  0  0  0  0  0  0  0  0  0  0  0
  184.6380  179.1360  144.4940 C   0  0  0  0  0  2  0  0  0  0  0  0
  184.1280  179.0040  145.7860 O   0  0  0  0  0  1  0  0  0  0  0  0
  1 13  1  0  0  0  0
  1  5  1  1  0  0  0
  2  3  1  0  0  0  0
  2 16  1  0  0  0  0
  3 14  1  0  0  0  0
  4 15  1  0  0  0  0
  4  8  1  0  0  0  0
  4 17  1  0  0  0  0
  6  5  1  0  0  0  0
  6 30  1  0  0  0  0
  7 16  1  0  0  0  0
  7 11  1  0  0  0  0
  8  9  1  0  0  0  0
  9  3  1  0  0  0  0
 10  6  1  0  0  0  0
 11 10  1  0  0  0  0
 13 19  1  0  0  0  0
 14 13  1  0  0  0  0
 15 12  1  0  0  0  0
 16  1  1  0  0  0  0
 17 12  1  0  0  0  0
 17  2  1  0  0  0  0
 18 24  1  0  0  0  0
 19 23  1  0  0  0  0
 20 22  1  0  0  0  0
 21 18  1  0  0  0  0
 22 19  1  0  0  0  0
 22 21  1  0  0  0  0
 23 24  1  0  0  0  0
 24 25  1  0  0  0  0
 25 26  1  0  0  0  0
 26 27  1  0  0  0  0
 27 28  1  0  0  0  0
 27 29  1  0  0  0  0
 28 29  1  0  0  0  0
 30 31  1  0  0  0  0
 31 32  1  0  0  0  0
M  END
>  <MODEL>
8

>  <REMARK>
 VINA RESULT:      -7.7      1.308      7.149
  Name = 
  6 active torsions:
  status: ('A' for Active; 'I' for Inactive)
    1  A    between atoms: C_1  and  C_10
    2  A    between atoms: C_4  and  O_13
    3  A    between atoms: C_8  and  C_28
    4  A    between atoms: C_10  and  C_19
    5  A    between atoms: O_13  and  C_15
    6  A    between atoms: C_19  and  C_24
                            x       y       z     vdW  Elec       q    Type
                         _______ _______ _______ _____ _____    ______ ____

>  <TORSDO>
F 6

$$$$
=
 OpenBabel10262421283D

 32 37  0  0  1  0  0  0  0  0999 V2000
  186.4570  177.7790  142.6130 C   0  0  1  0  0  3  0  0  0  0  0  0
  188.7370  177.0030  143.4170 C   0  0  2  0  0  3  0  0  0  0  0  0
  189.3980  177.7800  142.2820 C   0  0  1  0  0  3  0  0  0  0  0  0
  191.1760  176.7990  144.3880 C   0  0  1  0  0  3  0  0  0  0  0  0
  185.0800  178.3940  142.9520 C   0  0  0  0  0  2  0  0  0  0  0  0
  185.0070  179.0990  144.3080 C   0  0  2  0  0  3  0  0  0  0  0  0
  186.7920  176.9070  144.8440 O   0  0  0  0  0  0  0  0  0  0  0  0
  191.6820  177.1890  142.9870 C   0  0  0  0  0  2  0  0  0  0  0  0
  190.6510  177.0390  141.8820 C   0  0  0  0  0  2  0  0  0  0  0  0
  184.9240  178.1440  145.3320 O   0  0  0  0  0  0  0  0  0  0  0  0
  186.2460  177.8670  145.7060 C   0  0  0  0  0  2  0  0  0  0  0  0
  189.9410  177.9780  145.4600 C   0  0  0  0  0  2  0  0  0  0  0  0
  187.1450  178.5440  141.4680 C   0  0  1  0  0  3  0  0  0  0  0  0
  188.4620  177.8610  141.0840 C   0  0  0  0  0  2  0  0  0  0  0  0
  191.3270  177.9160  145.2280 O   0  0  0  0  0  0  0  0  0  0  0  0
  187.4050  177.6480  143.8250 C   0  0  2  0  0  3  0  0  0  0  0  0
  189.6680  176.7520  144.6270 C   0  0  1  0  0  3  0  0  0  0  0  0
  184.4470  177.7410  138.1070 C   0  0  0  0  0  2  0  0  0  0  0  0
  186.2260  178.7130  140.2440 C   0  0  1  0  0  3  0  0  0  0  0  0
  188.1590  178.5540  138.6420 C   0  0  0  0  0  1  0  0  0  0  0  0
  185.8600  178.2340  137.8020 C   0  0  0  0  0  2  0  0  0  0  0  0
  186.7850  178.0110  138.9960 C   0  0  2  0  0  3  0  0  0  0  0  0
  184.7950  178.2430  140.5450 C   0  0  0  0  0  2  0  0  0  0  0  0
  183.8690  178.4340  139.3410 C   0  0  1  0  0  3  0  0  0  0  0  0
  183.5950  179.9110  139.0630 C   0  0  0  0  0  2  0  0  0  0  0  0
  182.1220  180.1600  138.7720 C   0  0  0  0  0  2  0  0  0  0  0  0
  181.2500  179.3980  139.7510 C   0  0  1  0  0  3  0  0  0  0  0  0
  180.1520  180.2680  140.2250 C   0  0  0  0  0  2  0  0  0  0  0  0
  179.9480  179.3050  139.2230 O   0  0  0  0  0  0  0  0  0  0  0  0
  183.8750  179.9130  144.3460 O   0  0  0  0  0  0  0  0  0  0  0  0
  182.7970  179.0270  144.3390 C   0  0  0  0  0  2  0  0  0  0  0  0
  181.8990  179.3970  143.3370 O   0  0  0  0  0  1  0  0  0  0  0  0
  1  5  1  1  0  0  0
  1 16  1  0  0  0  0
  2 16  1  0  0  0  0
  2 17  1  0  0  0  0
  3  2  1  0  0  0  0
  4 17  1  0  0  0  0
  4 15  1  0  0  0  0
  5  6  1  0  0  0  0
  6 30  1  0  0  0  0
  6 10  1  0  0  0  0
  7 11  1  0  0  0  0
  8  4  1  0  0  0  0
  9  3  1  0  0  0  0
  9  8  1  0  0  0  0
 10 11  1  0  0  0  0
 13  1  1  0  0  0  0
 14 13  1  0  0  0  0
 14  3  1  0  0  0  0
 15 12  1  0  0  0  0
 16  7  1  0  0  0  0
 17 12  1  0  0  0  0
 18 24  1  0  0  0  0
 19 23  1  0  0  0  0
 19 13  1  0  0  0  0
 20 22  1  0  0  0  0
 21 18  1  0  0  0  0
 21 22  1  0  0  0  0
 22 19  1  0  0  0  0
 24 23  1  0  0  0  0
 25 24  1  0  0  0  0
 26 25  1  0  0  0  0
 26 27  1  0  0  0  0
 27 28  1  0  0  0  0
 29 27  1  0  0  0  0
 29 28  1  0  0  0  0
 31 30  1  0  0  0  0
 32 31  1  0  0  0  0
M  END
>  <MODEL>
9

>  <REMARK>
 VINA RESULT:      -7.5      2.365      4.636
  Name = 
  6 active torsions:
  status: ('A' for Active; 'I' for Inactive)
    1  A    between atoms: C_1  and  C_10
    2  A    between atoms: C_4  and  O_13
    3  A    between atoms: C_8  and  C_28
    4  A    between atoms: C_10  and  C_19
    5  A    between atoms: O_13  and  C_15
    6  A    between atoms: C_19  and  C_24
                            x       y       z     vdW  Elec       q    Type
                         _______ _______ _______ _____ _____    ______ ____

>  <TORSDO>
F 6

$$$$
