=
 OpenBabel10262423093D

 37 39  0  0  1  0  0  0  0  0999 V2000
  191.0680  176.3000  136.6970 C   0  0  0  0  0  2  0  0  0  0  0  0
  192.6900  173.0620  135.8220 C   0  0  0  0  0  2  0  0  0  0  0  0
  188.5070  176.5150  137.0690 C   0  0  2  0  0  0  0  0  0  0  0  0
  191.2150  174.9830  137.4420 C   0  0  2  0  0  3  0  0  0  0  0  0
  189.9410  177.0780  137.3580 C   0  0  1  0  0  3  0  0  0  0  0  0
  191.2950  173.5200  135.4250 C   0  0  0  0  0  2  0  0  0  0  0  0
  187.9540  175.9380  138.2200 O   0  0  0  0  0  1  0  0  0  0  0  0
  190.2770  177.5760  138.7970 C   0  0  2  0  0  3  0  0  0  0  0  0
  188.1980  173.1040  136.6370 C   0  0  0  0  0  2  0  0  0  0  0  0
  188.5200  175.4330  135.9540 C   0  0  0  0  0  2  0  0  0  0  0  0
  191.7800  177.8490  139.0280 C   0  0  0  0  0  2  0  0  0  0  0  0
  189.0590  174.0960  136.4230 C   0  0  0  0  0  0  0  0  0  0  0  0
  192.6890  174.6950  137.7920 C   0  0  1  0  0  3  0  0  0  0  0  0
  193.4890  174.1450  136.5730 C   0  0  1  0  0  3  0  0  0  0  0  0
  193.3480  175.9710  138.3610 C   0  0  0  0  0  2  0  0  0  0  0  0
  192.5580  176.6130  139.5030 C   0  0  0  0  0  2  0  0  0  0  0  0
  190.5260  173.8450  136.6920 C   0  0  2  0  0  3  0  0  0  0  0  0
  186.3020  177.7450  137.4300 C   0  0  0  0  0  1  0  0  0  0  0  0
  187.6070  177.6940  136.6460 C   0  0  0  0  0  3  0  0  0  0  0  0
  187.3010  177.7040  135.1530 C   0  0  0  0  0  1  0  0  0  0  0  0
  194.8660  173.5290  136.9350 C   0  0  2  0  0  3  0  0  0  0  0  0
  194.9120  172.8330  138.2860 C   0  0  0  0  0  2  0  0  0  0  0  0
  195.7930  173.5060  139.1320 O   0  0  0  0  0  1  0  0  0  0  0  0
  195.9510  174.6030  136.9490 C   0  0  0  0  0  2  0  0  0  0  0  0
  198.1480  174.0560  136.3620 C   0  0  0  0  0  1  0  0  0  0  0  0
  197.0190  175.7480  135.2240 C   0  0  0  0  0  1  0  0  0  0  0  0
  196.8530  174.4330  135.8210 N   0  0  0  0  0  0  0  0  0  0  0  0
  189.7660  176.7340  139.7960 O   0  0  0  0  0  0  0  0  0  0  0  0
  188.1190  178.2820  140.6320 C   0  0  0  0  0  1  0  0  0  0  0  0
  189.4430  177.5640  140.8760 C   0  0  1  0  0  3  0  0  0  0  0  0
  189.4370  176.7620  142.1830 C   0  0  1  0  0  3  0  0  0  0  0  0
  190.4060  175.7550  142.1360 O   0  0  0  0  0  1  0  0  0  0  0  0
  189.6210  177.6190  143.4420 C   0  0  2  0  0  0  0  0  0  0  0  0
  188.1200  177.8690  144.5690 P   0  0  0  0  0  2  0  0  0  0  0  0
  190.4590  178.7330  143.3560 O   0  0  0  0  0  1  0  0  0  0  0  0
  189.7610  176.9000  144.6760 C   0  0  0  0  0  1  0  0  0  0  0  0
  187.2520  176.4290  144.1310 O   0  0  0  0  0  1  0  0  0  0  0  0
  2 14  1  0  0  0  0
  3  5  1  0  0  0  0
  3  7  1  1  0  0  0
  4  1  1  6  0  0  0
  4 13  1  0  0  0  0
  5  1  1  1  0  0  0
  5  8  1  0  0  0  0
  6  2  1  0  0  0  0
  8 11  1  0  0  0  0
  8 28  1  1  0  0  0
 10 12  1  0  0  0  0
 10  3  1  0  0  0  0
 11 16  1  0  0  0  0
 12  9  2  0  0  0  0
 12 17  1  0  0  0  0
 13 15  1  6  0  0  0
 14 21  1  1  0  0  0
 14 13  1  0  0  0  0
 15 16  1  0  0  0  0
 17  6  1  6  0  0  0
 17  4  1  0  0  0  0
 19  3  1  0  0  0  0
 19 18  1  0  0  0  0
 20 19  1  0  0  0  0
 21 24  1  1  0  0  0
 21 22  1  0  0  0  0
 22 23  1  0  0  0  0
 26 27  1  0  0  0  0
 27 25  1  0  0  0  0
 27 24  1  0  0  0  0
 28 30  1  0  0  0  0
 30 29  1  6  0  0  0
 30 31  1  0  0  0  0
 31 32  1  6  0  0  0
 31 33  1  0  0  0  0
 33 34  1  0  0  0  0
 33 36  1  1  0  0  0
 35 33  1  0  0  0  0
 37 34  1  0  0  0  0
M  END
>  <MODEL>
1

>  <REMARK>
 VINA RESULT:      -5.5      0.000      0.000
  Name = 
  9 active torsions:
  status: ('A' for Active; 'I' for Inactive)
    1  A    between atoms: C_1  and  C_5
    2  A    between atoms: C_1  and  C_23
    3  A    between atoms: C_2  and  C_6
    4  A    between atoms: C_6  and  C_8
    5  A    between atoms: C_6  and  C_31
    6  A    between atoms: C_8  and  N_19
    7  A    between atoms: C_9  and  C_30
    8  A    between atoms: C_20  and  O_25
    9  A    between atoms: C_23  and  O_25
                            x       y       z     vdW  Elec       q    Type
                         _______ _______ _______ _____ _____    ______ ____

>  <TORSDO>
F 9

$$$$
=
 OpenBabel10262423093D

 37 39  0  0  1  0  0  0  0  0999 V2000
  189.0120  178.6350  140.2900 C   0  0  0  0  0  2  0  0  0  0  0  0
  186.8320  178.4190  143.3040 C   0  0  0  0  0  2  0  0  0  0  0  0
  191.0400  177.0550  139.9260 C   0  0  2  0  0  0  0  0  0  0  0  0
  188.0770  177.5580  140.8150 C   0  0  2  0  0  3  0  0  0  0  0  0
  189.9490  177.9830  139.2870 C   0  0  1  0  0  3  0  0  0  0  0  0
  188.3210  178.1170  143.2320 C   0  0  0  0  0  2  0  0  0  0  0  0
  190.7860  175.7080  139.6340 O   0  0  0  0  0  1  0  0  0  0  0  0
  189.2460  177.5210  137.9740 C   0  0  2  0  0  3  0  0  0  0  0  0
  190.1930  175.3680  142.8160 C   0  0  0  0  0  2  0  0  0  0  0  0
  191.0970  177.2040  141.4710 C   0  0  0  0  0  2  0  0  0  0  0  0
  188.0150  178.3730  137.5930 C   0  0  0  0  0  2  0  0  0  0  0  0
  189.9500  176.5130  142.1830 C   0  0  0  0  0  0  0  0  0  0  0  0
  186.6070  178.0230  140.7860 C   0  0  1  0  0  3  0  0  0  0  0  0
  186.2620  178.9650  141.9790 C   0  0  1  0  0  3  0  0  0  0  0  0
  186.3030  178.7050  139.4330 C   0  0  0  0  0  2  0  0  0  0  0  0
  186.7070  177.8680  138.2190 C   0  0  0  0  0  2  0  0  0  0  0  0
  188.5340  177.0460  142.1780 C   0  0  2  0  0  3  0  0  0  0  0  0
  192.8160  176.4880  138.1870 C   0  0  0  0  0  1  0  0  0  0  0  0
  192.4040  177.4280  139.3120 C   0  0  0  0  0  3  0  0  0  0  0  0
  193.5220  177.5020  140.3440 C   0  0  0  0  0  1  0  0  0  0  0  0
  184.7440  179.1960  142.1950 C   0  0  2  0  0  3  0  0  0  0  0  0
  184.3520  179.5400  143.6230 C   0  0  0  0  0  2  0  0  0  0  0  0
  183.4480  178.5940  144.1050 O   0  0  0  0  0  1  0  0  0  0  0  0
  183.9470  177.9540  141.8010 C   0  0  0  0  0  2  0  0  0  0  0  0
  181.7520  178.5150  141.2170 C   0  0  0  0  0  1  0  0  0  0  0  0
  182.9640  177.0120  139.9110 C   0  0  0  0  0  1  0  0  0  0  0  0
  183.0730  178.2430  140.6750 N   0  0  0  0  0  0  0  0  0  0  0  0
  188.9230  176.1570  137.9810 O   0  0  0  0  0  0  0  0  0  0  0  0
  190.0530  176.4130  135.8690 C   0  0  0  0  0  1  0  0  0  0  0  0
  188.9160  175.7510  136.6410 C   0  0  1  0  0  3  0  0  0  0  0  0
  188.9610  174.2210  136.5450 C   0  0  1  0  0  3  0  0  0  0  0  0
  189.8870  173.7080  137.4570 O   0  0  0  0  0  1  0  0  0  0  0  0
  187.5960  173.5460  136.7340 C   0  0  2  0  0  0  0  0  0  0  0  0
  187.0650  172.2530  135.4570 P   0  0  0  0  0  2  0  0  0  0  0  0
  186.5460  174.3220  137.2270 O   0  0  0  0  0  1  0  0  0  0  0  0
  187.6230  172.2190  137.2810 C   0  0  0  0  0  1  0  0  0  0  0  0
  188.6500  171.7830  134.9210 O   0  0  0  0  0  1  0  0  0  0  0  0
  3  7  1  6  0  0  0
  3 10  1  0  0  0  0
  4  1  1  1  0  0  0
  4 17  1  0  0  0  0
  5  3  1  0  0  0  0
  5  1  1  1  0  0  0
  6  2  1  0  0  0  0
  8 28  1  1  0  0  0
  8  5  1  0  0  0  0
 10 12  1  0  0  0  0
 11  8  1  0  0  0  0
 11 16  1  0  0  0  0
 12  9  2  0  0  0  0
 13 15  1  6  0  0  0
 13  4  1  0  0  0  0
 13 14  1  0  0  0  0
 14 21  1  1  0  0  0
 14  2  1  0  0  0  0
 16 15  1  0  0  0  0
 17 12  1  0  0  0  0
 17  6  1  1  0  0  0
 18 19  1  0  0  0  0
 19  3  1  0  0  0  0
 19 20  1  0  0  0  0
 21 24  1  1  0  0  0
 21 22  1  0  0  0  0
 22 23  1  0  0  0  0
 26 27  1  0  0  0  0
 27 25  1  0  0  0  0
 27 24  1  0  0  0  0
 30 29  1  6  0  0  0
 30 28  1  0  0  0  0
 31 30  1  0  0  0  0
 31 33  1  0  0  0  0
 31 32  1  1  0  0  0
 33 35  1  0  0  0  0
 33 36  1  1  0  0  0
 34 33  1  0  0  0  0
 37 34  1  0  0  0  0
M  END
>  <MODEL>
2

>  <REMARK>
 VINA RESULT:      -5.5      4.052      8.902
  Name = 
  9 active torsions:
  status: ('A' for Active; 'I' for Inactive)
    1  A    between atoms: C_1  and  C_5
    2  A    between atoms: C_1  and  C_23
    3  A    between atoms: C_2  and  C_6
    4  A    between atoms: C_6  and  C_8
    5  A    between atoms: C_6  and  C_31
    6  A    between atoms: C_8  and  N_19
    7  A    between atoms: C_9  and  C_30
    8  A    between atoms: C_20  and  O_25
    9  A    between atoms: C_23  and  O_25
                            x       y       z     vdW  Elec       q    Type
                         _______ _______ _______ _____ _____    ______ ____

>  <TORSDO>
F 9

$$$$
=
 OpenBabel10262423093D

 37 39  0  0  1  0  0  0  0  0999 V2000
  191.0250  176.3260  136.7880 C   0  0  0  0  0  2  0  0  0  0  0  0
  192.5690  173.0490  135.9200 C   0  0  0  0  0  2  0  0  0  0  0  0
  188.4700  176.6040  137.1560 C   0  0  2  0  0  0  0  0  0  0  0  0
  191.1390  175.0070  137.5350 C   0  0  2  0  0  3  0  0  0  0  0  0
  189.9170  177.1330  137.4460 C   0  0  1  0  0  3  0  0  0  0  0  0
  191.1860  173.5400  135.5200 C   0  0  0  0  0  2  0  0  0  0  0  0
  187.9010  176.0420  138.3070 O   0  0  0  0  0  1  0  0  0  0  0  0
  190.2630  177.6240  138.8850 C   0  0  2  0  0  3  0  0  0  0  0  0
  188.0790  173.2020  136.7270 C   0  0  0  0  0  2  0  0  0  0  0  0
  188.4590  175.5210  136.0420 C   0  0  0  0  0  2  0  0  0  0  0  0
  191.7720  177.8600  139.1190 C   0  0  0  0  0  2  0  0  0  0  0  0
  188.9640  174.1720  136.5140 C   0  0  0  0  0  0  0  0  0  0  0  0
  192.6050  174.6840  137.8880 C   0  0  1  0  0  3  0  0  0  0  0  0
  193.3940  174.1140  136.6700 C   0  0  1  0  0  3  0  0  0  0  0  0
  193.2940  175.9440  138.4560 C   0  0  0  0  0  2  0  0  0  0  0  0
  192.5190  176.6070  139.5960 C   0  0  0  0  0  2  0  0  0  0  0  0
  190.4240  173.8860  136.7860 C   0  0  2  0  0  3  0  0  0  0  0  0
  186.2780  177.8660  137.4850 C   0  0  0  0  0  1  0  0  0  0  0  0
  187.6000  177.8040  136.7300 C   0  0  0  0  0  3  0  0  0  0  0  0
  187.3280  177.8410  135.2310 C   0  0  0  0  0  1  0  0  0  0  0  0
  194.7540  173.4650  137.0360 C   0  0  2  0  0  3  0  0  0  0  0  0
  195.9730  174.2310  136.5460 C   0  0  0  0  0  2  0  0  0  0  0  0
  196.6270  174.8160  137.6300 O   0  0  0  0  0  1  0  0  0  0  0  0
  194.8520  172.0540  136.4600 C   0  0  0  0  0  2  0  0  0  0  0  0
  196.5920  170.7560  137.3320 C   0  0  0  0  0  1  0  0  0  0  0  0
  194.4310  169.8920  137.2170 C   0  0  0  0  0  1  0  0  0  0  0  0
  195.1890  171.0980  137.5020 N   0  0  0  0  0  0  0  0  0  0  0  0
  189.7300  176.7960  139.8840 O   0  0  0  0  0  0  0  0  0  0  0  0
  188.1240  178.2750  140.9050 C   0  0  0  0  0  1  0  0  0  0  0  0
  189.5000  177.6220  140.9920 C   0  0  1  0  0  3  0  0  0  0  0  0
  189.6880  176.8330  142.2940 C   0  0  1  0  0  3  0  0  0  0  0  0
  190.1720  175.5520  142.0160 O   0  0  0  0  0  1  0  0  0  0  0  0
  190.5870  177.5320  143.3210 C   0  0  2  0  0  0  0  0  0  0  0  0
  189.8270  178.0000  144.9910 P   0  0  0  0  0  2  0  0  0  0  0  0
  191.5270  178.4500  142.8480 O   0  0  0  0  0  1  0  0  0  0  0  0
  191.0900  176.7050  144.3820 C   0  0  0  0  0  1  0  0  0  0  0  0
  188.5590  176.8120  145.0150 O   0  0  0  0  0  1  0  0  0  0  0  0
  2 14  1  0  0  0  0
  3  5  1  0  0  0  0
  3  7  1  1  0  0  0
  4  1  1  6  0  0  0
  4 13  1  0  0  0  0
  5  1  1  1  0  0  0
  5  8  1  0  0  0  0
  6  2  1  0  0  0  0
  8 11  1  0  0  0  0
  8 28  1  1  0  0  0
 10 12  1  0  0  0  0
 10  3  1  0  0  0  0
 11 16  1  0  0  0  0
 12  9  2  0  0  0  0
 12 17  1  0  0  0  0
 13 15  1  6  0  0  0
 14 21  1  1  0  0  0
 14 13  1  0  0  0  0
 15 16  1  0  0  0  0
 17  6  1  6  0  0  0
 17  4  1  0  0  0  0
 19  3  1  0  0  0  0
 19 18  1  0  0  0  0
 20 19  1  0  0  0  0
 21 24  1  6  0  0  0
 22 21  1  0  0  0  0
 22 23  1  0  0  0  0
 24 27  1  0  0  0  0
 25 27  1  0  0  0  0
 26 27  1  0  0  0  0
 28 30  1  0  0  0  0
 30 29  1  6  0  0  0
 30 31  1  0  0  0  0
 31 32  1  6  0  0  0
 31 33  1  0  0  0  0
 33 36  1  1  0  0  0
 33 34  1  0  0  0  0
 34 37  1  0  0  0  0
 35 33  1  0  0  0  0
M  END
>  <MODEL>
3

>  <REMARK>
 VINA RESULT:      -5.5      1.196      1.688
  Name = 
  9 active torsions:
  status: ('A' for Active; 'I' for Inactive)
    1  A    between atoms: C_1  and  C_5
    2  A    between atoms: C_1  and  C_23
    3  A    between atoms: C_2  and  C_6
    4  A    between atoms: C_6  and  C_8
    5  A    between atoms: C_6  and  C_31
    6  A    between atoms: C_8  and  N_19
    7  A    between atoms: C_9  and  C_30
    8  A    between atoms: C_20  and  O_25
    9  A    between atoms: C_23  and  O_25
                            x       y       z     vdW  Elec       q    Type
                         _______ _______ _______ _____ _____    ______ ____

>  <TORSDO>
F 9

$$$$
=
 OpenBabel10262423093D

 37 39  0  0  1  0  0  0  0  0999 V2000
  183.5820  177.6960  140.9840 C   0  0  0  0  0  2  0  0  0  0  0  0
  187.1370  178.2680  141.9370 C   0  0  0  0  0  2  0  0  0  0  0  0
  181.6020  178.6880  142.3410 C   0  0  2  0  0  0  0  0  0  0  0  0
  184.4460  178.9440  141.0500 C   0  0  2  0  0  3  0  0  0  0  0  0
  182.1280  178.1430  140.9680 C   0  0  1  0  0  3  0  0  0  0  0  0
  185.9470  178.1580  142.8780 C   0  0  0  0  0  2  0  0  0  0  0  0
  181.3860  180.0710  142.2810 O   0  0  0  0  0  1  0  0  0  0  0  0
  181.7080  178.8770  139.6580 C   0  0  2  0  0  3  0  0  0  0  0  0
  183.8660  180.3160  144.3750 C   0  0  0  0  0  2  0  0  0  0  0  0
  182.6020  178.4120  143.4970 C   0  0  0  0  0  2  0  0  0  0  0  0
  182.4970  178.4240  138.4080 C   0  0  0  0  0  2  0  0  0  0  0  0
  183.8060  179.3330  143.4810 C   0  0  0  0  0  0  0  0  0  0  0  0
  185.5820  178.9000  140.0070 C   0  0  1  0  0  3  0  0  0  0  0  0
  186.7690  178.0000  140.4650 C   0  0  1  0  0  3  0  0  0  0  0  0
  185.0210  178.4320  138.6460 C   0  0  0  0  0  2  0  0  0  0  0  0
  183.7920  179.2170  138.1850 C   0  0  0  0  0  2  0  0  0  0  0  0
  184.9280  179.2070  142.4740 C   0  0  2  0  0  3  0  0  0  0  0  0
  179.0760  178.7260  141.9920 C   0  0  0  0  0  1  0  0  0  0  0  0
  180.2520  178.0050  142.6390 C   0  0  0  0  0  3  0  0  0  0  0  0
  179.9850  177.8380  144.1300 C   0  0  0  0  0  1  0  0  0  0  0  0
  188.0640  178.1750  139.6300 C   0  0  2  0  0  3  0  0  0  0  0  0
  187.8590  178.1290  138.1240 C   0  0  0  0  0  2  0  0  0  0  0  0
  188.3970  179.2750  137.5400 O   0  0  0  0  0  1  0  0  0  0  0  0
  189.0810  177.0900  139.9760 C   0  0  0  0  0  2  0  0  0  0  0  0
  190.8650  176.3550  138.6540 C   0  0  0  0  0  1  0  0  0  0  0  0
  191.2750  177.4890  140.6480 C   0  0  0  0  0  1  0  0  0  0  0  0
  190.4020  177.4520  139.4870 N   0  0  0  0  0  0  0  0  0  0  0  0
  181.7380  180.2730  139.7840 O   0  0  0  0  0  0  0  0  0  0  0  0
  179.3970  180.6960  139.3940 C   0  0  0  0  0  1  0  0  0  0  0  0
  180.8200  180.7680  138.8480 C   0  0  1  0  0  3  0  0  0  0  0  0
  181.2080  182.1880  138.4190 C   0  0  1  0  0  3  0  0  0  0  0  0
  182.5880  182.3690  138.5410 O   0  0  0  0  0  1  0  0  0  0  0  0
  180.7440  182.5610  137.0060 C   0  0  2  0  0  0  0  0  0  0  0  0
  179.2220  183.6740  136.8380 P   0  0  0  0  0  2  0  0  0  0  0  0
  180.8520  181.5910  136.0070 O   0  0  0  0  0  1  0  0  0  0  0  0
  181.0980  183.8770  136.5550 C   0  0  0  0  0  1  0  0  0  0  0  0
  179.3290  184.4570  138.3850 O   0  0  0  0  0  1  0  0  0  0  0  0
  2  6  1  0  0  0  0
  3  7  1  6  0  0  0
  3 19  1  0  0  0  0
  3 10  1  0  0  0  0
  4  1  1  1  0  0  0
  4 17  1  0  0  0  0
  5  1  1  1  0  0  0
  5  3  1  0  0  0  0
  8 28  1  1  0  0  0
  8  5  1  0  0  0  0
 11  8  1  0  0  0  0
 12 10  1  0  0  0  0
 12  9  2  0  0  0  0
 13 15  1  6  0  0  0
 13 14  1  0  0  0  0
 13  4  1  0  0  0  0
 14 21  1  6  0  0  0
 14  2  1  0  0  0  0
 16 11  1  0  0  0  0
 16 15  1  0  0  0  0
 17  6  1  1  0  0  0
 17 12  1  0  0  0  0
 18 19  1  0  0  0  0
 19 20  1  0  0  0  0
 21 22  1  6  0  0  0
 21 24  1  0  0  0  0
 23 22  1  0  0  0  0
 25 27  1  0  0  0  0
 27 24  1  0  0  0  0
 27 26  1  0  0  0  0
 30 29  1  1  0  0  0
 30 28  1  0  0  0  0
 31 32  1  6  0  0  0
 31 30  1  0  0  0  0
 33 36  1  6  0  0  0
 33 31  1  0  0  0  0
 34 33  1  0  0  0  0
 34 37  1  0  0  0  0
 35 33  1  0  0  0  0
M  END
>  <MODEL>
4

>  <REMARK>
 VINA RESULT:      -5.3      6.287      9.841
  Name = 
  9 active torsions:
  status: ('A' for Active; 'I' for Inactive)
    1  A    between atoms: C_1  and  C_5
    2  A    between atoms: C_1  and  C_23
    3  A    between atoms: C_2  and  C_6
    4  A    between atoms: C_6  and  C_8
    5  A    between atoms: C_6  and  C_31
    6  A    between atoms: C_8  and  N_19
    7  A    between atoms: C_9  and  C_30
    8  A    between atoms: C_20  and  O_25
    9  A    between atoms: C_23  and  O_25
                            x       y       z     vdW  Elec       q    Type
                         _______ _______ _______ _____ _____    ______ ____

>  <TORSDO>
F 9

$$$$
=
 OpenBabel10262423093D

 37 39  0  0  1  0  0  0  0  0999 V2000
  189.0720  178.5960  141.6690 C   0  0  0  0  0  2  0  0  0  0  0  0
  187.5360  177.8190  144.9720 C   0  0  0  0  0  2  0  0  0  0  0  0
  190.8930  177.0880  140.5940 C   0  0  2  0  0  0  0  0  0  0  0  0
  188.2030  177.4500  142.1600 C   0  0  2  0  0  3  0  0  0  0  0  0
  189.7500  178.1410  140.3860 C   0  0  1  0  0  3  0  0  0  0  0  0
  188.9600  177.5140  144.5350 C   0  0  0  0  0  2  0  0  0  0  0  0
  190.5100  175.8310  140.1090 O   0  0  0  0  0  1  0  0  0  0  0  0
  188.7720  177.9610  139.1850 C   0  0  2  0  0  3  0  0  0  0  0  0
  190.5530  174.8740  143.2200 C   0  0  0  0  0  2  0  0  0  0  0  0
  191.2680  176.9260  142.0920 C   0  0  0  0  0  2  0  0  0  0  0  0
  187.5380  178.8900  139.2390 C   0  0  0  0  0  2  0  0  0  0  0  0
  190.2510  176.1250  142.8820 C   0  0  0  0  0  0  0  0  0  0  0  0
  186.7860  177.9350  142.5290 C   0  0  1  0  0  3  0  0  0  0  0  0
  186.7430  178.6250  143.9250 C   0  0  1  0  0  3  0  0  0  0  0  0
  186.2540  178.8760  141.4250 C   0  0  0  0  0  2  0  0  0  0  0  0
  186.3580  178.2910  140.0160 C   0  0  0  0  0  2  0  0  0  0  0  0
  188.8960  176.6700  143.2750 C   0  0  2  0  0  3  0  0  0  0  0  0
  192.3060  176.7780  138.4940 C   0  0  0  0  0  1  0  0  0  0  0  0
  192.1240  177.5550  139.7910 C   0  0  0  0  0  3  0  0  0  0  0  0
  193.4160  177.5030  140.5970 C   0  0  0  0  0  1  0  0  0  0  0  0
  185.3140  178.8320  144.4930 C   0  0  2  0  0  3  0  0  0  0  0  0
  185.1180  178.3280  145.9140 C   0  0  0  0  0  2  0  0  0  0  0  0
  185.3030  179.3760  146.8150 O   0  0  0  0  0  1  0  0  0  0  0  0
  184.2790  178.1260  143.6220 C   0  0  0  0  0  2  0  0  0  0  0  0
  182.1060  178.8450  144.1060 C   0  0  0  0  0  1  0  0  0  0  0  0
  182.8020  178.6310  141.8920 C   0  0  0  0  0  1  0  0  0  0  0  0
  183.2350  179.0530  143.2140 N   0  0  0  0  0  0  0  0  0  0  0  0
  188.3800  176.6270  138.9990 O   0  0  0  0  0  0  0  0  0  0  0  0
  189.2320  177.1560  136.8070 C   0  0  0  0  0  1  0  0  0  0  0  0
  188.1360  176.4820  137.6270 C   0  0  1  0  0  3  0  0  0  0  0  0
  187.9700  175.0000  137.2690 C   0  0  1  0  0  3  0  0  0  0  0  0
  186.6170  174.6500  137.2780 O   0  0  0  0  0  1  0  0  0  0  0  0
  188.6140  174.6060  135.9340 C   0  0  2  0  0  0  0  0  0  0  0  0
  190.4670  174.2160  135.9250 P   0  0  0  0  0  2  0  0  0  0  0  0
  188.1620  175.2450  134.7780 O   0  0  0  0  0  1  0  0  0  0  0  0
  188.8590  173.2040  135.7450 C   0  0  0  0  0  1  0  0  0  0  0  0
  190.6190  173.7530  137.5930 O   0  0  0  0  0  1  0  0  0  0  0  0
  3  7  1  6  0  0  0
  3 10  1  0  0  0  0
  4  1  1  1  0  0  0
  4 13  1  0  0  0  0
  4 17  1  0  0  0  0
  5  3  1  0  0  0  0
  5  1  1  1  0  0  0
  6  2  1  0  0  0  0
  8 28  1  1  0  0  0
  8 11  1  0  0  0  0
  8  5  1  0  0  0  0
 10 12  1  0  0  0  0
 11 16  1  0  0  0  0
 12  9  2  0  0  0  0
 12 17  1  0  0  0  0
 13 15  1  6  0  0  0
 13 14  1  0  0  0  0
 14 21  1  1  0  0  0
 14  2  1  0  0  0  0
 16 15  1  0  0  0  0
 17  6  1  1  0  0  0
 18 19  1  0  0  0  0
 19  3  1  0  0  0  0
 19 20  1  0  0  0  0
 21 24  1  6  0  0  0
 21 22  1  0  0  0  0
 22 23  1  0  0  0  0
 26 27  1  0  0  0  0
 27 24  1  0  0  0  0
 27 25  1  0  0  0  0
 30 29  1  6  0  0  0
 30 28  1  0  0  0  0
 31 32  1  6  0  0  0
 31 30  1  0  0  0  0
 33 36  1  6  0  0  0
 33 31  1  0  0  0  0
 34 33  1  0  0  0  0
 34 37  1  0  0  0  0
 35 33  1  0  0  0  0
M  END
>  <MODEL>
5

>  <REMARK>
 VINA RESULT:      -5.0      4.207      9.190
  Name = 
  9 active torsions:
  status: ('A' for Active; 'I' for Inactive)
    1  A    between atoms: C_1  and  C_5
    2  A    between atoms: C_1  and  C_23
    3  A    between atoms: C_2  and  C_6
    4  A    between atoms: C_6  and  C_8
    5  A    between atoms: C_6  and  C_31
    6  A    between atoms: C_8  and  N_19
    7  A    between atoms: C_9  and  C_30
    8  A    between atoms: C_20  and  O_25
    9  A    between atoms: C_23  and  O_25
                            x       y       z     vdW  Elec       q    Type
                         _______ _______ _______ _____ _____    ______ ____

>  <TORSDO>
F 9

$$$$
=
 OpenBabel10262423093D

 37 39  0  0  1  0  0  0  0  0999 V2000
  183.5010  177.5240  140.8540 C   0  0  0  0  0  2  0  0  0  0  0  0
  186.0710  178.3360  143.4250 C   0  0  0  0  0  2  0  0  0  0  0  0
  181.0040  178.1850  141.1280 C   0  0  2  0  0  0  0  0  0  0  0  0
  184.0590  178.8370  141.3790 C   0  0  2  0  0  3  0  0  0  0  0  0
  182.1830  177.8310  140.1580 C   0  0  1  0  0  3  0  0  0  0  0  0
  184.6030  178.0210  143.6700 C   0  0  0  0  0  2  0  0  0  0  0  0
  180.6630  179.5400  141.0280 O   0  0  0  0  0  1  0  0  0  0  0  0
  182.3420  178.6460  138.8380 C   0  0  2  0  0  3  0  0  0  0  0  0
  181.7990  179.8130  144.0660 C   0  0  0  0  0  2  0  0  0  0  0  0
  181.3630  177.8930  142.6110 C   0  0  0  0  0  2  0  0  0  0  0  0
  183.6790  178.3960  138.1060 C   0  0  0  0  0  2  0  0  0  0  0  0
  182.3000  178.9220  143.2140 C   0  0  0  0  0  0  0  0  0  0  0  0
  185.5480  179.0030  141.0110 C   0  0  1  0  0  3  0  0  0  0  0  0
  186.4820  178.1800  141.9480 C   0  0  1  0  0  3  0  0  0  0  0  0
  185.7640  178.6200  139.5310 C   0  0  0  0  0  2  0  0  0  0  0  0
  184.8100  179.3260  138.5670 C   0  0  0  0  0  2  0  0  0  0  0  0
  183.7700  179.0030  142.8680 C   0  0  2  0  0  3  0  0  0  0  0  0
  180.1510  175.9490  140.2470 C   0  0  0  0  0  1  0  0  0  0  0  0
  179.7760  177.3500  140.7110 C   0  0  0  0  0  3  0  0  0  0  0  0
  178.9310  178.0290  139.6400 C   0  0  0  0  0  1  0  0  0  0  0  0
  187.9830  178.5590  141.8480 C   0  0  2  0  0  3  0  0  0  0  0  0
  188.5550  178.5190  140.4400 C   0  0  0  0  0  2  0  0  0  0  0  0
  188.9270  177.2130  140.1210 O   0  0  0  0  0  1  0  0  0  0  0  0
  188.8350  177.6240  142.7030 C   0  0  0  0  0  2  0  0  0  0  0  0
  191.1650  177.5790  142.9040 C   0  0  0  0  0  1  0  0  0  0  0  0
  189.8480  178.2530  144.7040 C   0  0  0  0  0  1  0  0  0  0  0  0
  189.9750  178.3340  143.2590 N   0  0  0  0  0  0  0  0  0  0  0  0
  182.1250  180.0200  139.0190 O   0  0  0  0  0  0  0  0  0  0  0  0
  180.9010  179.3470  137.0550 C   0  0  0  0  0  1  0  0  0  0  0  0
  181.5650  180.4860  137.8230 C   0  0  1  0  0  3  0  0  0  0  0  0
  180.5970  181.6420  138.1020 C   0  0  1  0  0  3  0  0  0  0  0  0
  180.3280  181.7270  139.4710 O   0  0  0  0  0  1  0  0  0  0  0  0
  181.0750  182.9980  137.5670 C   0  0  2  0  0  0  0  0  0  0  0  0
  180.6390  183.4490  135.7800 P   0  0  0  0  0  2  0  0  0  0  0  0
  182.3270  183.4580  137.9800 O   0  0  0  0  0  1  0  0  0  0  0  0
  180.0830  184.0350  137.5100 C   0  0  0  0  0  1  0  0  0  0  0  0
  179.2270  182.4480  135.6220 O   0  0  0  0  0  1  0  0  0  0  0  0
  2  6  1  0  0  0  0
  3  7  1  6  0  0  0
  3 10  1  0  0  0  0
  4  1  1  1  0  0  0
  4 17  1  0  0  0  0
  5  1  1  1  0  0  0
  5  3  1  0  0  0  0
  8 28  1  1  0  0  0
  8  5  1  0  0  0  0
 10 12  1  0  0  0  0
 11 16  1  0  0  0  0
 11  8  1  0  0  0  0
 12  9  2  0  0  0  0
 13 15  1  6  0  0  0
 13  4  1  0  0  0  0
 13 14  1  0  0  0  0
 14 21  1  1  0  0  0
 14  2  1  0  0  0  0
 16 15  1  0  0  0  0
 17 12  1  0  0  0  0
 17  6  1  1  0  0  0
 18 19  1  0  0  0  0
 19  3  1  0  0  0  0
 20 19  1  0  0  0  0
 21 22  1  6  0  0  0
 21 24  1  0  0  0  0
 23 22  1  0  0  0  0
 24 27  1  0  0  0  0
 25 27  1  0  0  0  0
 27 26  1  0  0  0  0
 30 29  1  1  0  0  0
 30 31  1  0  0  0  0
 30 28  1  0  0  0  0
 31 32  1  1  0  0  0
 33 36  1  1  0  0  0
 33 35  1  0  0  0  0
 33 31  1  0  0  0  0
 34 33  1  0  0  0  0
 37 34  1  0  0  0  0
M  END
>  <MODEL>
6

>  <REMARK>
 VINA RESULT:      -5.0      6.308     10.036
  Name = 
  9 active torsions:
  status: ('A' for Active; 'I' for Inactive)
    1  A    between atoms: C_1  and  C_5
    2  A    between atoms: C_1  and  C_23
    3  A    between atoms: C_2  and  C_6
    4  A    between atoms: C_6  and  C_8
    5  A    between atoms: C_6  and  C_31
    6  A    between atoms: C_8  and  N_19
    7  A    between atoms: C_9  and  C_30
    8  A    between atoms: C_20  and  O_25
    9  A    between atoms: C_23  and  O_25
                            x       y       z     vdW  Elec       q    Type
                         _______ _______ _______ _____ _____    ______ ____

>  <TORSDO>
F 9

$$$$
=
 OpenBabel10262423093D

 37 39  0  0  1  0  0  0  0  0999 V2000
  186.2980  176.2570  135.9740 C   0  0  0  0  0  2  0  0  0  0  0  0
  188.6740  173.4060  136.3010 C   0  0  0  0  0  2  0  0  0  0  0  0
  183.8240  176.0990  136.7470 C   0  0  2  0  0  0  0  0  0  0  0  0
  186.8750  175.5250  137.1740 C   0  0  2  0  0  3  0  0  0  0  0  0
  185.0640  177.0100  136.4440 C   0  0  1  0  0  3  0  0  0  0  0  0
  187.1770  173.3210  136.0490 C   0  0  0  0  0  2  0  0  0  0  0  0
  183.5620  176.0510  138.1230 O   0  0  0  0  0  1  0  0  0  0  0  0
  185.3770  178.1970  137.4050 C   0  0  2  0  0  3  0  0  0  0  0  0
  184.4430  172.9230  137.9480 C   0  0  0  0  0  2  0  0  0  0  0  0
  184.0380  174.6420  136.2520 C   0  0  0  0  0  2  0  0  0  0  0  0
  186.7580  178.8470  137.1650 C   0  0  0  0  0  2  0  0  0  0  0  0
  184.9700  173.8390  137.1390 C   0  0  0  0  0  0  0  0  0  0  0  0
  188.3960  175.7480  137.2930 C   0  0  1  0  0  3  0  0  0  0  0  0
  189.2030  174.8540  136.3050 C   0  0  1  0  0  3  0  0  0  0  0  0
  188.7210  177.2440  137.0830 C   0  0  0  0  0  2  0  0  0  0  0  0
  187.8910  178.1810  137.9610 C   0  0  0  0  0  2  0  0  0  0  0  0
  186.4670  174.0540  137.1720 C   0  0  2  0  0  3  0  0  0  0  0  0
  181.5390  175.6770  135.6960 C   0  0  0  0  0  1  0  0  0  0  0  0
  182.5960  176.7160  136.0470 C   0  0  0  0  0  3  0  0  0  0  0  0
  182.9580  177.5110  134.7990 C   0  0  0  0  0  1  0  0  0  0  0  0
  190.7250  174.7840  136.6000 C   0  0  2  0  0  3  0  0  0  0  0  0
  191.3500  173.4150  136.3830 C   0  0  0  0  0  2  0  0  0  0  0  0
  191.8230  173.3170  135.0740 O   0  0  0  0  0  1  0  0  0  0  0  0
  191.0130  175.1810  138.0460 C   0  0  0  0  0  2  0  0  0  0  0  0
  192.3030  176.7730  139.1750 C   0  0  0  0  0  1  0  0  0  0  0  0
  192.6530  176.3790  136.9050 C   0  0  0  0  0  1  0  0  0  0  0  0
  192.3560  175.7260  138.1690 N   0  0  0  0  0  0  0  0  0  0  0  0
  185.2150  177.8590  138.7560 O   0  0  0  0  0  0  0  0  0  0  0  0
  183.4630  179.5010  138.5640 C   0  0  0  0  0  1  0  0  0  0  0  0
  184.6470  178.9810  139.3730 C   0  0  1  0  0  3  0  0  0  0  0  0
  184.2640  178.6570  140.8220 C   0  0  1  0  0  3  0  0  0  0  0  0
  183.8090  177.3390  140.9180 O   0  0  0  0  0  1  0  0  0  0  0  0
  185.3890  178.9070  141.8340 C   0  0  2  0  0  0  0  0  0  0  0  0
  184.9080  179.5270  143.5570 P   0  0  0  0  0  2  0  0  0  0  0  0
  186.5910  179.4320  141.3570 O   0  0  0  0  0  1  0  0  0  0  0  0
  185.5730  177.8920  142.8320 C   0  0  0  0  0  1  0  0  0  0  0  0
  183.2880  178.9000  143.5910 O   0  0  0  0  0  1  0  0  0  0  0  0
  2 14  1  0  0  0  0
  3  7  1  1  0  0  0
  4  1  1  6  0  0  0
  4 13  1  0  0  0  0
  5  1  1  1  0  0  0
  5  3  1  0  0  0  0
  5  8  1  0  0  0  0
  6  2  1  0  0  0  0
  8 28  1  1  0  0  0
 10  3  1  0  0  0  0
 10 12  1  0  0  0  0
 11  8  1  0  0  0  0
 11 16  1  0  0  0  0
 12 17  1  0  0  0  0
 12  9  2  0  0  0  0
 13 15  1  6  0  0  0
 14 21  1  1  0  0  0
 14 13  1  0  0  0  0
 15 16  1  0  0  0  0
 17  6  1  6  0  0  0
 17  4  1  0  0  0  0
 18 19  1  0  0  0  0
 19  3  1  0  0  0  0
 20 19  1  0  0  0  0
 21 22  1  1  0  0  0
 21 24  1  0  0  0  0
 23 22  1  0  0  0  0
 24 27  1  0  0  0  0
 26 27  1  0  0  0  0
 27 25  1  0  0  0  0
 28 30  1  0  0  0  0
 30 29  1  6  0  0  0
 30 31  1  0  0  0  0
 31 32  1  6  0  0  0
 31 33  1  0  0  0  0
 33 36  1  1  0  0  0
 33 34  1  0  0  0  0
 34 37  1  0  0  0  0
 35 33  1  0  0  0  0
M  END
>  <MODEL>
7

>  <REMARK>
 VINA RESULT:      -4.5      3.207      4.890
  Name = 
  9 active torsions:
  status: ('A' for Active; 'I' for Inactive)
    1  A    between atoms: C_1  and  C_5
    2  A    between atoms: C_1  and  C_23
    3  A    between atoms: C_2  and  C_6
    4  A    between atoms: C_6  and  C_8
    5  A    between atoms: C_6  and  C_31
    6  A    between atoms: C_8  and  N_19
    7  A    between atoms: C_9  and  C_30
    8  A    between atoms: C_20  and  O_25
    9  A    between atoms: C_23  and  O_25
                            x       y       z     vdW  Elec       q    Type
                         _______ _______ _______ _____ _____    ______ ____

>  <TORSDO>
F 9

$$$$
=
 OpenBabel10262423093D

 37 39  0  0  1  0  0  0  0  0999 V2000
  183.7580  175.5310  135.3160 C   0  0  0  0  0  2  0  0  0  0  0  0
  187.2340  174.2220  135.5970 C   0  0  0  0  0  2  0  0  0  0  0  0
  181.6810  174.1010  135.9340 C   0  0  2  0  0  0  0  0  0  0  0  0
  184.6020  175.0840  136.4990 C   0  0  2  0  0  3  0  0  0  0  0  0
  182.3040  175.5290  135.7620 C   0  0  1  0  0  3  0  0  0  0  0  0
  185.9850  173.4250  135.2540 C   0  0  0  0  0  2  0  0  0  0  0  0
  181.4530  173.8130  137.2860 O   0  0  0  0  0  1  0  0  0  0  0  0
  181.9650  176.6280  136.8130 C   0  0  2  0  0  3  0  0  0  0  0  0
  183.7830  171.5630  136.9620 C   0  0  0  0  0  2  0  0  0  0  0  0
  182.6030  172.9900  135.3600 C   0  0  0  0  0  2  0  0  0  0  0  0
  182.8400  177.8960  136.6970 C   0  0  0  0  0  2  0  0  0  0  0  0
  183.7950  172.6850  136.2460 C   0  0  0  0  0  0  0  0  0  0  0  0
  185.8050  176.0230  136.7200 C   0  0  1  0  0  3  0  0  0  0  0  0
  186.9690  175.7350  135.7240 C   0  0  1  0  0  3  0  0  0  0  0  0
  185.3430  177.4940  136.6260 C   0  0  0  0  0  2  0  0  0  0  0  0
  184.1390  177.8170  137.5120 C   0  0  0  0  0  2  0  0  0  0  0  0
  184.9830  173.6110  136.3790 C   0  0  2  0  0  3  0  0  0  0  0  0
  179.9390  175.4470  134.6470 C   0  0  0  0  0  1  0  0  0  0  0  0
  180.3210  174.0830  135.2050 C   0  0  0  0  0  3  0  0  0  0  0  0
  179.1860  173.5560  136.0750 C   0  0  0  0  0  1  0  0  0  0  0  0
  188.3160  176.4050  136.1030 C   0  0  2  0  0  3  0  0  0  0  0  0
  189.5270  175.8480  135.3720 C   0  0  0  0  0  2  0  0  0  0  0  0
  190.1760  176.8750  134.6860 O   0  0  0  0  0  1  0  0  0  0  0  0
  188.5900  176.2610  137.5970 C   0  0  0  0  0  2  0  0  0  0  0  0
  189.6440  177.1500  139.4870 C   0  0  0  0  0  1  0  0  0  0  0  0
  188.9430  178.5570  137.7670 C   0  0  0  0  0  1  0  0  0  0  0  0
  189.5450  177.2640  138.0420 N   0  0  0  0  0  0  0  0  0  0  0  0
  181.9690  176.1420  138.1290 O   0  0  0  0  0  0  0  0  0  0  0  0
  179.6740  176.2130  138.8590 C   0  0  0  0  0  1  0  0  0  0  0  0
  181.0310  176.9090  138.8310 C   0  0  1  0  0  3  0  0  0  0  0  0
  181.5490  177.2300  140.2380 C   0  0  1  0  0  3  0  0  0  0  0  0
  182.8950  176.8720  140.3490 O   0  0  0  0  0  1  0  0  0  0  0  0
  181.3500  178.6930  140.6560 C   0  0  2  0  0  0  0  0  0  0  0  0
  179.7270  179.1550  141.5160 P   0  0  0  0  0  2  0  0  0  0  0  0
  181.8490  179.6870  139.8120 O   0  0  0  0  0  1  0  0  0  0  0  0
  181.5520  178.9810  142.0480 C   0  0  0  0  0  1  0  0  0  0  0  0
  179.3480  177.5870  142.1630 O   0  0  0  0  0  1  0  0  0  0  0  0
  2 14  1  0  0  0  0
  3  7  1  1  0  0  0
  4  1  1  6  0  0  0
  4 13  1  0  0  0  0
  5  1  1  1  0  0  0
  5  3  1  0  0  0  0
  5  8  1  0  0  0  0
  6  2  1  0  0  0  0
  8 28  1  1  0  0  0
 10  3  1  0  0  0  0
 10 12  1  0  0  0  0
 11  8  1  0  0  0  0
 11 16  1  0  0  0  0
 12 17  1  0  0  0  0
 12  9  2  0  0  0  0
 13 15  1  6  0  0  0
 14 21  1  1  0  0  0
 14 13  1  0  0  0  0
 15 16  1  0  0  0  0
 17  6  1  6  0  0  0
 17  4  1  0  0  0  0
 18 19  1  0  0  0  0
 19  3  1  0  0  0  0
 19 20  1  0  0  0  0
 21 22  1  6  0  0  0
 21 24  1  0  0  0  0
 23 22  1  0  0  0  0
 24 27  1  0  0  0  0
 26 27  1  0  0  0  0
 27 25  1  0  0  0  0
 28 30  1  0  0  0  0
 30 29  1  1  0  0  0
 30 31  1  0  0  0  0
 31 32  1  6  0  0  0
 31 33  1  0  0  0  0
 33 34  1  0  0  0  0
 33 36  1  1  0  0  0
 34 37  1  0  0  0  0
 35 33  1  0  0  0  0
M  END
>  <MODEL>
8

>  <REMARK>
 VINA RESULT:      -4.4      5.214      7.796
  Name = 
  9 active torsions:
  status: ('A' for Active; 'I' for Inactive)
    1  A    between atoms: C_1  and  C_5
    2  A    between atoms: C_1  and  C_23
    3  A    between atoms: C_2  and  C_6
    4  A    between atoms: C_6  and  C_8
    5  A    between atoms: C_6  and  C_31
    6  A    between atoms: C_8  and  N_19
    7  A    between atoms: C_9  and  C_30
    8  A    between atoms: C_20  and  O_25
    9  A    between atoms: C_23  and  O_25
                            x       y       z     vdW  Elec       q    Type
                         _______ _______ _______ _____ _____    ______ ____

>  <TORSDO>
F 9

$$$$
=
 OpenBabel10262423093D

 37 39  0  0  1  0  0  0  0  0999 V2000
  188.6480  178.5880  139.0510 C   0  0  0  0  0  2  0  0  0  0  0  0
  190.9320  177.4090  141.7480 C   0  0  0  0  0  2  0  0  0  0  0  0
  188.3720  177.3110  136.8070 C   0  0  2  0  0  0  0  0  0  0  0  0
  188.6580  177.3470  139.9280 C   0  0  2  0  0  3  0  0  0  0  0  0
  187.7540  178.3000  137.8550 C   0  0  1  0  0  3  0  0  0  0  0  0
  191.1280  177.2410  140.2490 C   0  0  0  0  0  2  0  0  0  0  0  0
  187.7010  176.0810  136.8230 O   0  0  0  0  0  1  0  0  0  0  0  0
  186.2430  178.1670  138.2150 C   0  0  2  0  0  3  0  0  0  0  0  0
  190.4750  174.8470  137.9970 C   0  0  0  0  0  2  0  0  0  0  0  0
  189.8760  177.0370  137.0820 C   0  0  0  0  0  2  0  0  0  0  0  0
  185.8170  179.0030  139.4430 C   0  0  0  0  0  2  0  0  0  0  0  0
  190.1100  176.1010  138.2510 C   0  0  0  0  0  0  0  0  0  0  0  0
  188.4130  177.7000  141.4090 C   0  0  1  0  0  3  0  0  0  0  0  0
  189.6930  178.2540  142.1040 C   0  0  1  0  0  3  0  0  0  0  0  0
  187.2410  178.7010  141.5180 C   0  0  0  0  0  2  0  0  0  0  0  0
  185.9810  178.2570  140.7740 C   0  0  0  0  0  2  0  0  0  0  0  0
  189.9160  176.5150  139.6930 C   0  0  2  0  0  3  0  0  0  0  0  0
  187.1010  177.2530  134.5970 C   0  0  0  0  0  1  0  0  0  0  0  0
  188.1980  177.9320  135.4060 C   0  0  0  0  0  3  0  0  0  0  0  0
  189.4890  177.9450  134.5960 C   0  0  0  0  0  1  0  0  0  0  0  0
  189.6070  178.3110  143.6510 C   0  0  2  0  0  3  0  0  0  0  0  0
  190.9350  178.1170  144.3660 C   0  0  0  0  0  2  0  0  0  0  0  0
  191.5650  179.3510  144.5310 O   0  0  0  0  0  1  0  0  0  0  0  0
  188.6550  177.2420  144.1800 C   0  0  0  0  0  2  0  0  0  0  0  0
  188.0910  177.1480  146.4480 C   0  0  0  0  0  1  0  0  0  0  0  0
  186.4240  177.3780  144.8360 C   0  0  0  0  0  1  0  0  0  0  0  0
  187.7690  177.7990  145.1890 N   0  0  0  0  0  0  0  0  0  0  0  0
  185.8340  176.8330  138.3570 O   0  0  0  0  0  0  0  0  0  0  0  0
  184.3140  177.8890  136.8130 C   0  0  0  0  0  1  0  0  0  0  0  0
  184.5440  176.7620  137.8150 C   0  0  1  0  0  3  0  0  0  0  0  0
  184.2990  175.3780  137.2000 C   0  0  1  0  0  3  0  0  0  0  0  0
  184.9390  174.3940  137.9570 O   0  0  0  0  0  1  0  0  0  0  0  0
  182.8160  175.0310  137.0190 C   0  0  2  0  0  0  0  0  0  0  0  0
  182.2160  174.5850  135.2790 P   0  0  0  0  0  2  0  0  0  0  0  0
  181.8820  175.7410  137.7770 O   0  0  0  0  0  1  0  0  0  0  0  0
  182.5070  173.6340  136.9080 C   0  0  0  0  0  1  0  0  0  0  0  0
  183.7350  174.0350  134.6400 O   0  0  0  0  0  1  0  0  0  0  0  0
  2 14  1  0  0  0  0
  3  7  1  1  0  0  0
  3 10  1  0  0  0  0
  3  5  1  0  0  0  0
  4  1  1  6  0  0  0
  4 13  1  0  0  0  0
  5  8  1  0  0  0  0
  5  1  1  1  0  0  0
  6  2  1  0  0  0  0
  8 28  1  1  0  0  0
  8 11  1  0  0  0  0
  9 12  2  0  0  0  0
 10 12  1  0  0  0  0
 11 16  1  0  0  0  0
 12 17  1  0  0  0  0
 13 15  1  6  0  0  0
 13 14  1  0  0  0  0
 14 21  1  1  0  0  0
 16 15  1  0  0  0  0
 17  4  1  0  0  0  0
 17  6  1  6  0  0  0
 18 19  1  0  0  0  0
 19  3  1  0  0  0  0
 20 19  1  0  0  0  0
 21 24  1  1  0  0  0
 21 22  1  0  0  0  0
 22 23  1  0  0  0  0
 24 27  1  0  0  0  0
 26 27  1  0  0  0  0
 27 25  1  0  0  0  0
 30 29  1  6  0  0  0
 30 28  1  0  0  0  0
 31 30  1  0  0  0  0
 31 32  1  1  0  0  0
 33 36  1  1  0  0  0
 33 31  1  0  0  0  0
 33 35  1  0  0  0  0
 34 33  1  0  0  0  0
 37 34  1  0  0  0  0
M  END
>  <MODEL>
9

>  <REMARK>
 VINA RESULT:      -4.4      4.465      7.676
  Name = 
  9 active torsions:
  status: ('A' for Active; 'I' for Inactive)
    1  A    between atoms: C_1  and  C_5
    2  A    between atoms: C_1  and  C_23
    3  A    between atoms: C_2  and  C_6
    4  A    between atoms: C_6  and  C_8
    5  A    between atoms: C_6  and  C_31
    6  A    between atoms: C_8  and  N_19
    7  A    between atoms: C_9  and  C_30
    8  A    between atoms: C_20  and  O_25
    9  A    between atoms: C_23  and  O_25
                            x       y       z     vdW  Elec       q    Type
                         _______ _______ _______ _____ _____    ______ ____

>  <TORSDO>
F 9

$$$$
