=
 OpenBabel10262421263D

 32 38  0  0  1  0  0  0  0  0999 V2000
  186.7540  178.2360  145.7070 S   0  0  0  0  0  0  0  0  0  0  0  0
  187.4770  178.6940  140.6260 N   0  0  0  0  0  0  0  0  0  0  0  0
  182.8910  177.6050  139.3110 C   0  0  0  0  0  3  0  0  0  0  0  0
  183.3570  177.1680  138.0690 C   0  0  0  0  0  3  0  0  0  0  0  0
  189.2420  178.3230  138.8980 C   0  0  2  0  0  3  0  0  0  0  0  0
  189.8520  177.4060  139.9270 C   0  0  0  0  0  0  0  0  0  0  0  0
  187.7940  178.0410  143.0410 C   0  0  1  0  0  3  0  0  0  0  0  0
  185.6880  178.9140  142.3730 C   0  0  0  0  0  2  0  0  0  0  0  0
  190.1060  176.7080  137.1850 C   0  0  0  0  0  0  0  0  0  0  0  0
  185.7300  177.6040  144.3270 C   0  0  0  0  0  2  0  0  0  0  0  0
  183.7700  178.1890  140.2270 C   0  0  0  0  0  3  0  0  0  0  0  0
  186.0700  179.0420  140.8850 C   0  0  2  0  0  3  0  0  0  0  0  0
  185.1300  178.3280  139.9180 C   0  0  0  0  0  0  0  0  0  0  0  0
  187.0210  178.0630  138.3280 C   0  0  0  0  0  0  0  0  0  0  0  0
  190.9070  176.1510  138.1010 C   0  0  0  0  0  3  0  0  0  0  0  0
  186.3450  177.7690  142.9990 N   0  0  2  0  0  0  0  0  0  0  0  0
  190.6960  176.4390  139.5390 C   0  0  0  0  0  3  0  0  0  0  0  0
  188.5380  177.0160  143.9080 C   0  0  0  0  0  2  0  0  0  0  0  0
  188.0700  177.0130  145.3660 C   0  0  1  0  0  3  0  0  0  0  0  0
  184.7030  177.3190  137.7330 C   0  0  0  0  0  3  0  0  0  0  0  0
  185.5910  177.9100  138.6410 C   0  0  0  0  0  0  0  0  0  0  0  0
  187.7000  177.4610  137.3620 C   0  0  0  0  0  3  0  0  0  0  0  0
  188.3120  178.0870  141.6300 C   0  0  0  0  0  0  0  0  0  0  0  0
  189.4210  177.4850  141.2930 N   0  0  0  0  0  0  0  0  0  0  0  0
  190.2430  176.3510  135.7480 C   0  0  0  0  0  1  0  0  0  0  0  0
  187.8860  178.6320  139.2880 N   0  0  0  0  0  0  0  0  0  0  0  0
  189.0970  177.6290  137.6200 N   0  0  0  0  0  0  0  0  0  0  0  0
  189.2020  177.2530  146.2440 N   0  0  0  0  0  2  0  0  0  0  0  0
  190.3740  177.3840  145.3960 C   0  0  0  0  0  2  0  0  0  0  0  0
  191.4960  176.5910  145.9670 C   0  0  0  0  0  0  0  0  0  0  0  0
  191.9440  176.8450  147.2550 O   0  0  0  0  0  1  0  0  0  0  0  0
  192.0150  175.6640  145.2920 O   0  0  0  0  0  0  0  0  0  0  0  0
  2 12  1  0  0  0  0
  2 23  1  0  0  0  0
  3 11  1  0  0  0  0
  4  3  2  0  0  0  0
  5 26  1  0  0  0  0
  5  6  1  1  0  0  0
  6 24  1  0  0  0  0
  7 18  1  1  0  0  0
  9 27  1  0  0  0  0
  9 15  2  0  0  0  0
 10  1  1  0  0  0  0
 12  8  1  1  0  0  0
 13 11  2  0  0  0  0
 13 12  1  0  0  0  0
 14 21  1  0  0  0  0
 14 26  1  0  0  0  0
 15 17  1  0  0  0  0
 16  8  1  1  0  0  0
 16  7  1  0  0  0  0
 16 10  1  0  0  0  0
 17  6  2  0  0  0  0
 18 19  1  0  0  0  0
 19  1  1  0  0  0  0
 19 28  1  1  0  0  0
 20  4  1  0  0  0  0
 20 21  2  0  0  0  0
 21 13  1  0  0  0  0
 22 27  1  0  0  0  0
 22 14  2  0  0  0  0
 23  7  1  0  0  0  0
 24 23  2  0  0  0  0
 25  9  1  0  0  0  0
 26  2  1  0  0  0  0
 27  5  1  0  0  0  0
 29 30  1  0  0  0  0
 29 28  1  0  0  0  0
 30 31  1  0  0  0  0
 32 30  2  0  0  0  0
M  END
>  <MODEL>
1

>  <REMARK>
 VINA RESULT:      -8.3      0.000      0.000
  Name = 
  3 active torsions:
  status: ('A' for Active; 'I' for Inactive)
    1  A    between atoms: C_1  and  C_10
    2  A    between atoms: C_10  and  N_19
    3  A    between atoms: N_19  and  C_24
                            x       y       z     vdW  Elec       q    Type
                         _______ _______ _______ _____ _____    ______ ____

>  <TORSDO>
F 3

$$$$
=
 OpenBabel10262421263D

 32 38  0  0  1  0  0  0  0  0999 V2000
  183.4820  179.4380  143.9660 S   0  0  0  0  0  0  0  0  0  0  0  0
  186.2930  178.7410  139.7040 N   0  0  0  0  0  0  0  0  0  0  0  0
  182.8590  176.3640  137.1540 C   0  0  0  0  0  3  0  0  0  0  0  0
  183.8560  175.7410  136.4020 C   0  0  0  0  0  3  0  0  0  0  0  0
  188.6600  178.3460  139.0090 C   0  0  2  0  0  3  0  0  0  0  0  0
  188.8460  177.8790  140.4300 C   0  0  0  0  0  0  0  0  0  0  0  0
  185.5910  178.8100  142.1240 C   0  0  1  0  0  3  0  0  0  0  0  0
  183.9110  178.9940  140.4540 C   0  0  0  0  0  2  0  0  0  0  0  0
  190.3300  176.5830  138.3840 C   0  0  0  0  0  0  0  0  0  0  0  0
  183.2240  178.2660  142.5840 C   0  0  0  0  0  2  0  0  0  0  0  0
  183.1930  177.3410  138.0960 C   0  0  0  0  0  3  0  0  0  0  0  0
  184.8880  178.8220  139.2730 C   0  0  2  0  0  3  0  0  0  0  0  0
  184.5330  177.6960  138.3070 C   0  0  0  0  0  0  0  0  0  0  0  0
  186.9420  177.4630  137.7460 C   0  0  0  0  0  0  0  0  0  0  0  0
  190.7030  176.4690  139.6650 C   0  0  0  0  0  3  0  0  0  0  0  0
  184.3360  178.2210  141.6190 N   0  0  2  0  0  0  0  0  0  0  0  0
  189.8610  177.0580  140.7330 C   0  0  0  0  0  3  0  0  0  0  0  0
  185.9770  178.2300  143.4920 C   0  0  0  0  0  2  0  0  0  0  0  0
  184.9250  178.4930  144.5730 C   0  0  1  0  0  3  0  0  0  0  0  0
  185.1940  176.0970  136.5810 C   0  0  0  0  0  3  0  0  0  0  0  0
  185.5400  177.0810  137.5160 C   0  0  0  0  0  0  0  0  0  0  0  0
  188.0270  176.8020  137.3680 C   0  0  0  0  0  3  0  0  0  0  0  0
  186.6630  178.6100  141.0900 C   0  0  0  0  0  0  0  0  0  0  0  0
  187.8600  178.2040  141.4190 N   0  0  0  0  0  0  0  0  0  0  0  0
  191.1110  175.9120  137.3100 C   0  0  0  0  0  1  0  0  0  0  0  0
  187.2460  178.4340  138.7250 N   0  0  0  0  0  0  0  0  0  0  0  0
  189.1510  177.3360  138.0740 N   0  0  0  0  0  0  0  0  0  0  0  0
  185.5350  179.1930  145.6900 N   0  0  0  0  0  2  0  0  0  0  0  0
  185.6880  178.2250  146.7630 C   0  0  0  0  0  2  0  0  0  0  0  0
  187.1300  178.0680  147.0930 C   0  0  0  0  0  0  0  0  0  0  0  0
  187.9840  177.4350  146.2000 O   0  0  0  0  0  0  0  0  0  0  0  0
  187.5820  178.5400  148.1680 O   0  0  0  0  0  1  0  0  0  0  0  0
  1 19  1  0  0  0  0
  2 23  1  0  0  0  0
  3 11  1  0  0  0  0
  4 20  1  0  0  0  0
  4  3  2  0  0  0  0
  5  6  1  1  0  0  0
  6 17  2  0  0  0  0
  6 24  1  0  0  0  0
  7 18  1  1  0  0  0
  9 15  2  0  0  0  0
 10  1  1  0  0  0  0
 11 13  2  0  0  0  0
 12  2  1  0  0  0  0
 12  8  1  1  0  0  0
 13 12  1  0  0  0  0
 14 26  1  0  0  0  0
 15 17  1  0  0  0  0
 16  8  1  6  0  0  0
 16  7  1  0  0  0  0
 16 10  1  0  0  0  0
 18 19  1  0  0  0  0
 19 28  1  1  0  0  0
 20 21  2  0  0  0  0
 21 14  1  0  0  0  0
 21 13  1  0  0  0  0
 22 14  2  0  0  0  0
 22 27  1  0  0  0  0
 23 24  2  0  0  0  0
 23  7  1  0  0  0  0
 25  9  1  0  0  0  0
 26  5  1  0  0  0  0
 26  2  1  0  0  0  0
 27  9  1  0  0  0  0
 27  5  1  0  0  0  0
 28 29  1  0  0  0  0
 29 30  1  0  0  0  0
 30 32  1  0  0  0  0
 31 30  2  0  0  0  0
M  END
>  <MODEL>
2

>  <REMARK>
 VINA RESULT:      -8.1      2.162      2.710
  Name = 
  3 active torsions:
  status: ('A' for Active; 'I' for Inactive)
    1  A    between atoms: C_1  and  C_10
    2  A    between atoms: C_10  and  N_19
    3  A    between atoms: N_19  and  C_24
                            x       y       z     vdW  Elec       q    Type
                         _______ _______ _______ _____ _____    ______ ____

>  <TORSDO>
F 3

$$$$
=
 OpenBabel10262421263D

 32 38  0  0  1  0  0  0  0  0999 V2000
  182.3380  179.2300  139.0270 S   0  0  0  0  0  0  0  0  0  0  0  0
  187.3580  178.5480  139.9660 N   0  0  0  0  0  0  0  0  0  0  0  0
  188.2640  175.6860  136.1010 C   0  0  0  0  0  3  0  0  0  0  0  0
  189.3440  175.1190  136.7810 C   0  0  0  0  0  3  0  0  0  0  0  0
  188.9410  178.3460  141.8880 C   0  0  2  0  0  3  0  0  0  0  0  0
  187.7080  177.9910  142.6780 C   0  0  0  0  0  0  0  0  0  0  0  0
  184.8620  178.6990  140.2840 C   0  0  1  0  0  3  0  0  0  0  0  0
  185.7160  178.6110  138.0690 C   0  0  0  0  0  2  0  0  0  0  0  0
  190.1550  176.7210  143.3620 C   0  0  0  0  0  0  0  0  0  0  0  0
  183.4770  177.9540  138.3770 C   0  0  0  0  0  2  0  0  0  0  0  0
  187.5540  176.7490  136.6670 C   0  0  0  0  0  3  0  0  0  0  0  0
  187.1870  178.4620  138.5060 C   0  0  2  0  0  3  0  0  0  0  0  0
  187.9080  177.2480  137.9290 C   0  0  0  0  0  0  0  0  0  0  0  0
  189.3890  177.2200  139.9240 C   0  0  0  0  0  0  0  0  0  0  0  0
  189.1320  176.7260  144.2250 C   0  0  0  0  0  3  0  0  0  0  0  0
  184.8080  177.9580  139.0100 N   0  0  2  0  0  0  0  0  0  0  0  0
  187.8260  177.2950  143.8180 C   0  0  0  0  0  3  0  0  0  0  0  0
  183.7560  178.2480  141.2480 C   0  0  0  0  0  2  0  0  0  0  0  0
  182.3470  178.4730  140.6920 C   0  0  1  0  0  3  0  0  0  0  0  0
  189.7260  175.6170  138.0280 C   0  0  0  0  0  3  0  0  0  0  0  0
  189.0270  176.6870  138.6010 C   0  0  0  0  0  0  0  0  0  0  0  0
  190.1600  176.6470  140.8370 C   0  0  0  0  0  3  0  0  0  0  0  0
  186.2370  178.5420  140.8700 C   0  0  0  0  0  0  0  0  0  0  0  0
  186.4110  178.2780  142.1370 N   0  0  0  0  0  0  0  0  0  0  0  0
  191.4410  176.0650  143.7230 C   0  0  0  0  0  1  0  0  0  0  0  0
  188.6330  178.2760  140.4780 N   0  0  0  0  0  0  0  0  0  0  0  0
  189.9780  177.3340  142.0790 N   0  0  0  0  0  0  0  0  0  0  0  0
  181.5840  179.2990  141.6110 N   0  0  0  0  0  2  0  0  0  0  0  0
  180.5010  178.4750  142.1190 C   0  0  0  0  0  2  0  0  0  0  0  0
  180.5270  178.4760  143.6070 C   0  0  0  0  0  0  0  0  0  0  0  0
  179.3580  178.2650  144.3250 O   0  0  0  0  0  1  0  0  0  0  0  0
  181.6180  178.6350  144.2150 O   0  0  0  0  0  0  0  0  0  0  0  0
  1 19  1  0  0  0  0
  2 26  1  0  0  0  0
  2 23  1  0  0  0  0
  3 11  2  0  0  0  0
  3  4  1  0  0  0  0
  4 20  2  0  0  0  0
  5 27  1  0  0  0  0
  5  6  1  1  0  0  0
  6 17  2  0  0  0  0
  7 23  1  0  0  0  0
  7 18  1  1  0  0  0
  9 25  1  0  0  0  0
  9 15  2  0  0  0  0
 10 16  1  0  0  0  0
 10  1  1  0  0  0  0
 11 13  1  0  0  0  0
 12  8  1  1  0  0  0
 12  2  1  0  0  0  0
 13 12  1  0  0  0  0
 13 21  2  0  0  0  0
 14 26  1  0  0  0  0
 14 22  2  0  0  0  0
 16  8  1  6  0  0  0
 16  7  1  0  0  0  0
 17 15  1  0  0  0  0
 19 18  1  0  0  0  0
 19 28  1  1  0  0  0
 20 21  1  0  0  0  0
 21 14  1  0  0  0  0
 22 27  1  0  0  0  0
 23 24  2  0  0  0  0
 24  6  1  0  0  0  0
 26  5  1  0  0  0  0
 27  9  1  0  0  0  0
 28 29  1  0  0  0  0
 29 30  1  0  0  0  0
 30 32  2  0  0  0  0
 30 31  1  0  0  0  0
M  END
>  <MODEL>
3

>  <REMARK>
 VINA RESULT:      -7.9      3.790      6.354
  Name = 
  3 active torsions:
  status: ('A' for Active; 'I' for Inactive)
    1  A    between atoms: C_1  and  C_10
    2  A    between atoms: C_10  and  N_19
    3  A    between atoms: N_19  and  C_24
                            x       y       z     vdW  Elec       q    Type
                         _______ _______ _______ _____ _____    ______ ____

>  <TORSDO>
F 3

$$$$
=
 OpenBabel10262421263D

 32 38  0  0  1  0  0  0  0  0999 V2000
  183.2900  178.7760  145.1400 S   0  0  0  0  0  0  0  0  0  0  0  0
  187.7360  176.6730  143.6040 N   0  0  0  0  0  0  0  0  0  0  0  0
  190.2080  177.5130  147.7440 C   0  0  0  0  0  3  0  0  0  0  0  0
  191.4050  177.5030  147.0240 C   0  0  0  0  0  3  0  0  0  0  0  0
  189.1070  176.3780  141.5370 C   0  0  2  0  0  3  0  0  0  0  0  0
  188.3080  177.5450  141.0150 C   0  0  0  0  0  0  0  0  0  0  0  0
  185.6250  178.0500  143.6390 C   0  0  1  0  0  3  0  0  0  0  0  0
  186.3990  177.1180  145.6810 C   0  0  0  0  0  2  0  0  0  0  0  0
  191.0230  177.3110  140.2150 C   0  0  0  0  0  0  0  0  0  0  0  0
  184.9710  178.9820  145.8320 C   0  0  0  0  0  2  0  0  0  0  0  0
  189.0010  177.2110  147.1070 C   0  0  0  0  0  3  0  0  0  0  0  0
  187.6690  176.4990  145.0650 C   0  0  2  0  0  3  0  0  0  0  0  0
  188.9750  176.9100  145.7370 C   0  0  0  0  0  0  0  0  0  0  0  0
  190.1600  176.5540  143.5830 C   0  0  0  0  0  0  0  0  0  0  0  0
  190.1800  178.0910  139.5270 C   0  0  0  0  0  3  0  0  0  0  0  0
  186.0350  178.3680  145.0190 N   0  0  2  0  0  0  0  0  0  0  0  0
  188.7960  178.2920  140.0150 C   0  0  0  0  0  3  0  0  0  0  0  0
  184.9820  179.2600  142.9470 C   0  0  0  0  0  2  0  0  0  0  0  0
  183.7190  179.7560  143.6560 C   0  0  1  0  0  3  0  0  0  0  0  0
  191.4020  177.1830  145.6650 C   0  0  0  0  0  3  0  0  0  0  0  0
  190.2000  176.8710  145.0190 C   0  0  0  0  0  0  0  0  0  0  0  0
  191.1070  176.7780  142.6840 C   0  0  0  0  0  3  0  0  0  0  0  0
  186.8200  177.5270  142.8930 C   0  0  0  0  0  0  0  0  0  0  0  0
  187.0980  177.9310  141.6820 N   0  0  0  0  0  0  0  0  0  0  0  0
  192.4430  177.1790  139.7920 C   0  0  0  0  0  1  0  0  0  0  0  0
  188.9190  176.2800  142.9660 N   0  0  0  0  0  0  0  0  0  0  0  0
  190.5370  176.6300  141.3800 N   0  0  0  0  0  0  0  0  0  0  0  0
  182.6020  179.7540  142.7270 N   0  0  0  0  0  2  0  0  0  0  0  0
  181.5760  178.9010  143.3030 C   0  0  0  0  0  2  0  0  0  0  0  0
  180.2370  179.3390  142.8270 C   0  0  0  0  0  0  0  0  0  0  0  0
  179.1770  178.4420  142.8060 O   0  0  0  0  0  1  0  0  0  0  0  0
  180.0560  180.5340  142.4750 O   0  0  0  0  0  0  0  0  0  0  0  0
  1 10  1  0  0  0  0
  2 12  1  0  0  0  0
  4  3  2  0  0  0  0
  5  6  1  1  0  0  0
  5 26  1  0  0  0  0
  6 24  1  0  0  0  0
  7 18  1  6  0  0  0
  7 16  1  0  0  0  0
  9 27  1  0  0  0  0
 11  3  1  0  0  0  0
 12  8  1  1  0  0  0
 12 13  1  0  0  0  0
 13 11  2  0  0  0  0
 14 21  1  0  0  0  0
 15 17  1  0  0  0  0
 15  9  2  0  0  0  0
 16  8  1  1  0  0  0
 16 10  1  0  0  0  0
 17  6  2  0  0  0  0
 18 19  1  0  0  0  0
 19 28  1  6  0  0  0
 19  1  1  0  0  0  0
 20  4  1  0  0  0  0
 21 20  2  0  0  0  0
 21 13  1  0  0  0  0
 22 14  2  0  0  0  0
 23  2  1  0  0  0  0
 23  7  1  0  0  0  0
 24 23  2  0  0  0  0
 25  9  1  0  0  0  0
 26 14  1  0  0  0  0
 26  2  1  0  0  0  0
 27  5  1  0  0  0  0
 27 22  1  0  0  0  0
 28 29  1  0  0  0  0
 30 29  1  0  0  0  0
 31 30  1  0  0  0  0
 32 30  2  0  0  0  0
M  END
>  <MODEL>
4

>  <REMARK>
 VINA RESULT:      -7.7      4.228      6.924
  Name = 
  3 active torsions:
  status: ('A' for Active; 'I' for Inactive)
    1  A    between atoms: C_1  and  C_10
    2  A    between atoms: C_10  and  N_19
    3  A    between atoms: N_19  and  C_24
                            x       y       z     vdW  Elec       q    Type
                         _______ _______ _______ _____ _____    ______ ____

>  <TORSDO>
F 3

$$$$
=
 OpenBabel10262421263D

 32 38  0  0  1  0  0  0  0  0999 V2000
  190.8950  176.6870  137.3970 S   0  0  0  0  0  0  0  0  0  0  0  0
  187.0090  178.6280  140.1690 N   0  0  0  0  0  0  0  0  0  0  0  0
  188.6290  177.1190  144.5330 C   0  0  0  0  0  3  0  0  0  0  0  0
  187.3190  177.1270  145.0160 C   0  0  0  0  0  3  0  0  0  0  0  0
  184.5560  179.0680  139.9910 C   0  0  2  0  0  3  0  0  0  0  0  0
  184.5980  178.0330  138.8950 C   0  0  0  0  0  0  0  0  0  0  0  0
  188.2960  177.4150  138.3730 C   0  0  1  0  0  3  0  0  0  0  0  0
  189.4400  178.0360  140.3600 C   0  0  0  0  0  2  0  0  0  0  0  0
  182.2810  178.1620  140.5340 C   0  0  0  0  0  0  0  0  0  0  0  0
  190.3660  176.2770  139.1010 C   0  0  0  0  0  2  0  0  0  0  0  0
  188.9080  177.5830  143.2440 C   0  0  0  0  0  3  0  0  0  0  0  0
  188.1930  178.6300  141.0440 C   0  0  2  0  0  3  0  0  0  0  0  0
  187.8750  178.0470  142.4170 C   0  0  0  0  0  0  0  0  0  0  0  0
  185.4750  178.5710  142.0490 C   0  0  0  0  0  0  0  0  0  0  0  0
  182.2400  177.5340  139.3530 C   0  0  0  0  0  3  0  0  0  0  0  0
  189.0950  176.9040  139.5030 N   0  0  2  0  0  0  0  0  0  0  0  0
  183.4790  177.3780  138.5560 C   0  0  0  0  0  3  0  0  0  0  0  0
  188.1050  176.3470  137.2880 C   0  0  0  0  0  2  0  0  0  0  0  0
  189.4260  175.8640  136.6830 C   0  0  1  0  0  3  0  0  0  0  0  0
  186.2800  177.6070  144.2160 C   0  0  0  0  0  3  0  0  0  0  0  0
  186.5500  178.0810  142.9260 C   0  0  0  0  0  0  0  0  0  0  0  0
  184.1700  178.3870  142.1970 C   0  0  0  0  0  3  0  0  0  0  0  0
  186.9910  177.9340  138.9070 C   0  0  0  0  0  0  0  0  0  0  0  0
  185.8570  177.6600  138.3190 N   0  0  0  0  0  0  0  0  0  0  0  0
  181.0670  178.2390  141.3890 C   0  0  0  0  0  1  0  0  0  0  0  0
  185.7880  179.0060  140.7430 N   0  0  0  0  0  0  0  0  0  0  0  0
  183.5230  178.7310  140.9680 N   0  0  0  0  0  0  0  0  0  0  0  0
  189.4070  176.0590  135.2430 N   0  0  0  0  0  2  0  0  0  0  0  0
  190.1100  174.9320  134.6550 C   0  0  0  0  0  2  0  0  0  0  0  0
  189.3540  173.6780  134.9180 C   0  0  0  0  0  0  0  0  0  0  0  0
  188.0050  173.5970  134.5970 O   0  0  0  0  0  0  0  0  0  0  0  0
  189.9460  172.6780  135.4020 O   0  0  0  0  0  1  0  0  0  0  0  0
  1 10  1  0  0  0  0
  2 26  1  0  0  0  0
  2 12  1  0  0  0  0
  3  4  1  0  0  0  0
  5  6  1  6  0  0  0
  5 26  1  0  0  0  0
  5 27  1  0  0  0  0
  7 18  1  6  0  0  0
  7 23  1  0  0  0  0
  7 16  1  0  0  0  0
  9 27  1  0  0  0  0
  9 25  1  0  0  0  0
 11  3  2  0  0  0  0
 12  8  1  6  0  0  0
 12 13  1  0  0  0  0
 13 21  2  0  0  0  0
 13 11  1  0  0  0  0
 14 22  2  0  0  0  0
 14 21  1  0  0  0  0
 15  9  2  0  0  0  0
 16 10  1  6  0  0  0
 16  8  1  0  0  0  0
 17  6  2  0  0  0  0
 17 15  1  0  0  0  0
 19 28  1  6  0  0  0
 19 18  1  0  0  0  0
 19  1  1  0  0  0  0
 20  4  2  0  0  0  0
 21 20  1  0  0  0  0
 23  2  1  0  0  0  0
 24  6  1  0  0  0  0
 24 23  2  0  0  0  0
 26 14  1  0  0  0  0
 27 22  1  0  0  0  0
 29 30  1  0  0  0  0
 29 28  1  0  0  0  0
 30 32  1  0  0  0  0
 31 30  2  0  0  0  0
M  END
>  <MODEL>
5

>  <REMARK>
 VINA RESULT:      -7.6      3.775      7.410
  Name = 
  3 active torsions:
  status: ('A' for Active; 'I' for Inactive)
    1  A    between atoms: C_1  and  C_10
    2  A    between atoms: C_10  and  N_19
    3  A    between atoms: N_19  and  C_24
                            x       y       z     vdW  Elec       q    Type
                         _______ _______ _______ _____ _____    ______ ____

>  <TORSDO>
F 3

$$$$
=
 OpenBabel10262421263D

 32 38  0  0  1  0  0  0  0  0999 V2000
  182.3500  179.0160  141.6050 S   0  0  0  0  0  0  0  0  0  0  0  0
  186.4510  178.3880  138.5490 N   0  0  0  0  0  0  0  0  0  0  0  0
  184.4540  175.0100  135.6240 C   0  0  0  0  0  3  0  0  0  0  0  0
  185.7280  174.5240  135.3250 C   0  0  0  0  0  3  0  0  0  0  0  0
  188.9470  178.4250  138.6540 C   0  0  2  0  0  3  0  0  0  0  0  0
  188.7430  178.2000  140.1300 C   0  0  0  0  0  0  0  0  0  0  0  0
  185.0100  178.6210  140.6040 C   0  0  1  0  0  3  0  0  0  0  0  0
  183.9470  178.2170  138.5190 C   0  0  0  0  0  2  0  0  0  0  0  0
  190.9950  176.9970  138.8860 C   0  0  0  0  0  0  0  0  0  0  0  0
  182.7450  177.6450  140.4590 C   0  0  0  0  0  2  0  0  0  0  0  0
  184.3030  176.1520  136.4160 C   0  0  0  0  0  3  0  0  0  0  0  0
  185.2640  178.1060  137.7250 C   0  0  2  0  0  3  0  0  0  0  0  0
  185.4280  176.8130  136.9320 C   0  0  0  0  0  0  0  0  0  0  0  0
  187.8930  177.0330  137.1440 C   0  0  0  0  0  0  0  0  0  0  0  0
  190.9520  177.1360  140.2170 C   0  0  0  0  0  3  0  0  0  0  0  0
  184.0980  177.7140  139.8820 N   0  0  2  0  0  0  0  0  0  0  0  0
  189.7280  177.6650  140.8640 C   0  0  0  0  0  3  0  0  0  0  0  0
  185.0290  178.3240  142.1100 C   0  0  0  0  0  2  0  0  0  0  0  0
  183.6580  178.4930  142.7710 C   0  0  1  0  0  3  0  0  0  0  0  0
  186.8600  175.1810  135.8100 C   0  0  0  0  0  3  0  0  0  0  0  0
  186.7210  176.3310  136.5970 C   0  0  0  0  0  0  0  0  0  0  0  0
  189.1350  176.5780  137.2280 C   0  0  0  0  0  3  0  0  0  0  0  0
  186.3740  178.5230  139.9810 C   0  0  0  0  0  0  0  0  0  0  0  0
  187.4530  178.4320  140.7120 N   0  0  0  0  0  0  0  0  0  0  0  0
  192.1780  176.3750  138.2320 C   0  0  0  0  0  1  0  0  0  0  0  0
  187.7040  178.1680  137.9630 N   0  0  0  0  0  0  0  0  0  0  0  0
  189.8700  177.4310  138.1110 N   0  0  0  0  0  0  0  0  0  0  0  0
  183.7540  179.4500  143.8600 N   0  0  0  0  0  2  0  0  0  0  0  0
  183.6090  178.6990  145.0960 C   0  0  0  0  0  2  0  0  0  0  0  0
  184.9020  178.6920  145.8320 C   0  0  0  0  0  0  0  0  0  0  0  0
  186.0800  178.3800  145.1670 O   0  0  0  0  0  0  0  0  0  0  0  0
  184.9310  179.0010  147.0510 O   0  0  0  0  0  1  0  0  0  0  0  0
  1 19  1  0  0  0  0
  2 23  1  0  0  0  0
  3 11  1  0  0  0  0
  4  3  2  0  0  0  0
  4 20  1  0  0  0  0
  5  6  1  1  0  0  0
  6 24  1  0  0  0  0
  6 17  2  0  0  0  0
  7 18  1  1  0  0  0
  9 15  2  0  0  0  0
 10  1  1  0  0  0  0
 11 13  2  0  0  0  0
 12  8  1  1  0  0  0
 12  2  1  0  0  0  0
 13 12  1  0  0  0  0
 14 22  2  0  0  0  0
 14 26  1  0  0  0  0
 15 17  1  0  0  0  0
 16  8  1  6  0  0  0
 16 10  1  0  0  0  0
 16  7  1  0  0  0  0
 18 19  1  0  0  0  0
 19 28  1  1  0  0  0
 20 21  2  0  0  0  0
 21 13  1  0  0  0  0
 21 14  1  0  0  0  0
 22 27  1  0  0  0  0
 23  7  1  0  0  0  0
 23 24  2  0  0  0  0
 25  9  1  0  0  0  0
 26  2  1  0  0  0  0
 26  5  1  0  0  0  0
 27  5  1  0  0  0  0
 27  9  1  0  0  0  0
 28 29  1  0  0  0  0
 29 30  1  0  0  0  0
 30 32  1  0  0  0  0
 31 30  2  0  0  0  0
M  END
>  <MODEL>
6

>  <REMARK>
 VINA RESULT:      -7.5      2.965      4.153
  Name = 
  3 active torsions:
  status: ('A' for Active; 'I' for Inactive)
    1  A    between atoms: C_1  and  C_10
    2  A    between atoms: C_10  and  N_19
    3  A    between atoms: N_19  and  C_24
                            x       y       z     vdW  Elec       q    Type
                         _______ _______ _______ _____ _____    ______ ____

>  <TORSDO>
F 3

$$$$
=
 OpenBabel10262421263D

 32 38  0  0  1  0  0  0  0  0999 V2000
  182.4870  178.7200  144.2150 S   0  0  0  0  0  0  0  0  0  0  0  0
  187.2690  176.8090  144.0440 N   0  0  0  0  0  0  0  0  0  0  0  0
  188.6460  178.3550  148.4780 C   0  0  0  0  0  3  0  0  0  0  0  0
  189.9780  178.3530  148.0590 C   0  0  0  0  0  3  0  0  0  0  0  0
  189.1030  176.3700  142.4060 C   0  0  2  0  0  3  0  0  0  0  0  0
  188.3940  177.3940  141.5580 C   0  0  0  0  0  0  0  0  0  0  0  0
  185.1440  178.0040  143.4020 C   0  0  1  0  0  3  0  0  0  0  0  0
  185.4580  177.3990  145.6780 C   0  0  0  0  0  2  0  0  0  0  0  0
  191.2300  177.2820  141.4390 C   0  0  0  0  0  0  0  0  0  0  0  0
  183.9450  179.1460  145.2360 C   0  0  0  0  0  2  0  0  0  0  0  0
  187.6400  177.8800  147.6320 C   0  0  0  0  0  3  0  0  0  0  0  0
  186.8670  176.8130  145.4600 C   0  0  2  0  0  3  0  0  0  0  0  0
  187.9540  177.4090  146.3480 C   0  0  0  0  0  0  0  0  0  0  0  0
  189.6320  176.8840  144.5930 C   0  0  0  0  0  0  0  0  0  0  0  0
  190.5360  177.9000  140.4740 C   0  0  0  0  0  3  0  0  0  0  0  0
  185.2000  178.5240  144.7820 N   0  0  2  0  0  0  0  0  0  0  0  0
  189.0670  178.0470  140.6010 C   0  0  0  0  0  3  0  0  0  0  0  0
  184.6250  179.0620  142.4200 C   0  0  0  0  0  2  0  0  0  0  0  0
  183.2070  179.5390  142.7460 C   0  0  1  0  0  3  0  0  0  0  0  0
  190.3130  177.8670  146.7940 C   0  0  0  0  0  3  0  0  0  0  0  0
  189.3150  177.3810  145.9410 C   0  0  0  0  0  0  0  0  0  0  0  0
  190.7530  177.0700  143.9110 C   0  0  0  0  0  3  0  0  0  0  0  0
  186.5070  177.4910  143.0300 C   0  0  0  0  0  0  0  0  0  0  0  0
  187.0430  177.7610  141.8700 N   0  0  0  0  0  0  0  0  0  0  0  0
  192.7140  177.2150  141.3730 C   0  0  0  0  0  1  0  0  0  0  0  0
  188.5880  176.4360  143.7540 N   0  0  0  0  0  0  0  0  0  0  0  0
  190.5160  176.7160  142.5450 N   0  0  0  0  0  0  0  0  0  0  0  0
  182.3430  179.3300  141.5960 N   0  0  0  0  0  2  0  0  0  0  0  0
  181.0150  179.0480  142.1120 C   0  0  0  0  0  2  0  0  0  0  0  0
  179.9990  179.7720  141.3010 C   0  0  0  0  0  0  0  0  0  0  0  0
  179.2030  179.0780  140.4010 O   0  0  0  0  0  0  0  0  0  0  0  0
  179.8380  181.0110  141.4570 O   0  0  0  0  0  1  0  0  0  0  0  0
  1 10  1  0  0  0  0
  2 12  1  0  0  0  0
  4  3  1  0  0  0  0
  5  6  1  6  0  0  0
  5 27  1  0  0  0  0
  5 26  1  0  0  0  0
  6 24  1  0  0  0  0
  7 18  1  6  0  0  0
  7 16  1  0  0  0  0
  9 27  1  0  0  0  0
 11  3  2  0  0  0  0
 12  8  1  6  0  0  0
 12 13  1  0  0  0  0
 13 11  1  0  0  0  0
 14 21  1  0  0  0  0
 15 17  1  0  0  0  0
 15  9  2  0  0  0  0
 16 10  1  1  0  0  0
 16  8  1  0  0  0  0
 17  6  2  0  0  0  0
 18 19  1  0  0  0  0
 19 28  1  6  0  0  0
 19  1  1  0  0  0  0
 20  4  2  0  0  0  0
 21 13  2  0  0  0  0
 21 20  1  0  0  0  0
 22 14  2  0  0  0  0
 23  7  1  0  0  0  0
 23  2  1  0  0  0  0
 24 23  2  0  0  0  0
 25  9  1  0  0  0  0
 26  2  1  0  0  0  0
 26 14  1  0  0  0  0
 27 22  1  0  0  0  0
 28 29  1  0  0  0  0
 30 32  1  0  0  0  0
 30 29  1  0  0  0  0
 31 30  2  0  0  0  0
M  END
>  <MODEL>
7

>  <REMARK>
 VINA RESULT:      -7.1      4.471      7.330
  Name = 
  3 active torsions:
  status: ('A' for Active; 'I' for Inactive)
    1  A    between atoms: C_1  and  C_10
    2  A    between atoms: C_10  and  N_19
    3  A    between atoms: N_19  and  C_24
                            x       y       z     vdW  Elec       q    Type
                         _______ _______ _______ _____ _____    ______ ____

>  <TORSDO>
F 3

$$$$
=
 OpenBabel10262421263D

 32 38  0  0  1  0  0  0  0  0999 V2000
  182.2450  178.3060  137.3630 S   0  0  0  0  0  0  0  0  0  0  0  0
  186.9970  178.4800  139.3490 N   0  0  0  0  0  0  0  0  0  0  0  0
  189.0420  175.3700  136.1730 C   0  0  0  0  0  3  0  0  0  0  0  0
  190.0140  175.0470  137.1230 C   0  0  0  0  0  3  0  0  0  0  0  0
  188.1480  178.7290  141.5520 C   0  0  2  0  0  3  0  0  0  0  0  0
  186.8280  178.2860  142.1280 C   0  0  0  0  0  0  0  0  0  0  0  0
  184.4900  178.2960  139.1500 C   0  0  1  0  0  3  0  0  0  0  0  0
  185.7990  178.0880  137.1790 C   0  0  0  0  0  2  0  0  0  0  0  0
  189.2090  177.4760  143.4470 C   0  0  0  0  0  0  0  0  0  0  0  0
  183.6430  177.1470  137.1330 C   0  0  0  0  0  2  0  0  0  0  0  0
  188.1050  176.3730  136.4360 C   0  0  0  0  0  3  0  0  0  0  0  0
  187.1510  178.2070  137.9110 C   0  0  2  0  0  3  0  0  0  0  0  0
  188.1200  177.0560  137.6600 C   0  0  0  0  0  0  0  0  0  0  0  0
  189.1360  177.4690  139.8900 C   0  0  0  0  0  0  0  0  0  0  0  0
  188.0330  177.4260  144.0840 C   0  0  0  0  0  3  0  0  0  0  0  0
  184.7980  177.4180  138.0060 N   0  0  2  0  0  0  0  0  0  0  0  0
  186.7840  177.7470  143.3550 C   0  0  0  0  0  3  0  0  0  0  0  0
  183.2680  177.7970  139.9330 C   0  0  0  0  0  2  0  0  0  0  0  0
  181.9930  177.7490  139.0870 C   0  0  1  0  0  3  0  0  0  0  0  0
  190.0590  175.7320  138.3390 C   0  0  0  0  0  3  0  0  0  0  0  0
  189.1300  176.7440  138.6090 C   0  0  0  0  0  0  0  0  0  0  0  0
  189.7590  177.1220  141.0070 C   0  0  0  0  0  3  0  0  0  0  0  0
  185.7180  178.4090  140.0090 C   0  0  0  0  0  0  0  0  0  0  0  0
  185.6500  178.3180  141.3100 N   0  0  0  0  0  0  0  0  0  0  0  0
  190.4590  177.0600  144.1390 C   0  0  0  0  0  1  0  0  0  0  0  0
  188.1570  178.4580  140.1330 N   0  0  0  0  0  0  0  0  0  0  0  0
  189.2350  177.9080  142.0810 N   0  0  0  0  0  0  0  0  0  0  0  0
  180.9570  178.5510  139.7140 N   0  0  0  0  0  2  0  0  0  0  0  0
  180.5850  179.5810  138.7600 C   0  0  0  0  0  2  0  0  0  0  0  0
  180.4400  180.8850  139.4630 C   0  0  0  0  0  0  0  0  0  0  0  0
  180.1340  180.9160  140.8170 O   0  0  0  0  0  1  0  0  0  0  0  0
  180.6280  181.9600  138.8360 O   0  0  0  0  0  0  0  0  0  0  0  0
  1 19  1  0  0  0  0
  2 23  1  0  0  0  0
  2 26  1  0  0  0  0
  3 11  2  0  0  0  0
  3  4  1  0  0  0  0
  4 20  2  0  0  0  0
  5 27  1  0  0  0  0
  5  6  1  1  0  0  0
  6 17  2  0  0  0  0
  7 18  1  1  0  0  0
  7 23  1  0  0  0  0
  8 16  1  0  0  0  0
  9 15  2  0  0  0  0
  9 25  1  0  0  0  0
 10  1  1  0  0  0  0
 11 13  1  0  0  0  0
 12  8  1  1  0  0  0
 12  2  1  0  0  0  0
 13 12  1  0  0  0  0
 13 21  2  0  0  0  0
 14 26  1  0  0  0  0
 14 22  2  0  0  0  0
 16 10  1  6  0  0  0
 16  7  1  0  0  0  0
 17 15  1  0  0  0  0
 19 28  1  1  0  0  0
 19 18  1  0  0  0  0
 20 21  1  0  0  0  0
 21 14  1  0  0  0  0
 22 27  1  0  0  0  0
 23 24  2  0  0  0  0
 24  6  1  0  0  0  0
 26  5  1  0  0  0  0
 27  9  1  0  0  0  0
 29 30  1  0  0  0  0
 29 28  1  0  0  0  0
 30 31  1  0  0  0  0
 32 30  2  0  0  0  0
M  END
>  <MODEL>
8

>  <REMARK>
 VINA RESULT:      -7.1      4.333      7.271
  Name = 
  3 active torsions:
  status: ('A' for Active; 'I' for Inactive)
    1  A    between atoms: C_1  and  C_10
    2  A    between atoms: C_10  and  N_19
    3  A    between atoms: N_19  and  C_24
                            x       y       z     vdW  Elec       q    Type
                         _______ _______ _______ _____ _____    ______ ____

>  <TORSDO>
F 3

$$$$
=
 OpenBabel10262421263D

 32 38  0  0  1  0  0  0  0  0999 V2000
  191.6410  176.9730  139.4010 S   0  0  0  0  0  0  0  0  0  0  0  0
  187.0680  178.8440  140.8650 N   0  0  0  0  0  0  0  0  0  0  0  0
  187.3380  177.3870  145.5290 C   0  0  0  0  0  3  0  0  0  0  0  0
  185.9440  177.3700  145.5990 C   0  0  0  0  0  3  0  0  0  0  0  0
  184.7730  179.2320  139.9570 C   0  0  2  0  0  3  0  0  0  0  0  0
  185.1600  178.1940  138.9350 C   0  0  0  0  0  0  0  0  0  0  0  0
  188.8570  177.6510  139.5480 C   0  0  1  0  0  3  0  0  0  0  0  0
  189.3420  178.3040  141.7800 C   0  0  0  0  0  2  0  0  0  0  0  0
  182.4580  178.2810  139.8050 C   0  0  0  0  0  0  0  0  0  0  0  0
  190.6350  176.5590  140.8720 C   0  0  0  0  0  2  0  0  0  0  0  0
  187.9810  177.8510  144.3780 C   0  0  0  0  0  3  0  0  0  0  0  0
  187.9370  178.8740  142.0540 C   0  0  2  0  0  3  0  0  0  0  0  0
  187.2340  178.2900  143.2750 C   0  0  0  0  0  0  0  0  0  0  0  0
  185.0440  178.7620  142.2010 C   0  0  0  0  0  0  0  0  0  0  0  0
  182.7830  177.6470  138.6720 C   0  0  0  0  0  3  0  0  0  0  0  0
  189.2900  177.1620  140.8700 N   0  0  2  0  0  0  0  0  0  0  0  0
  184.2070  177.5140  138.2830 C   0  0  0  0  0  3  0  0  0  0  0  0
  189.0190  176.5750  138.4660 C   0  0  0  0  0  2  0  0  0  0  0  0
  190.4690  176.1170  138.2880 C   0  0  1  0  0  3  0  0  0  0  0  0
  185.1830  177.8240  144.5200 C   0  0  0  0  0  3  0  0  0  0  0  0
  185.8160  178.2990  143.3640 C   0  0  0  0  0  0  0  0  0  0  0  0
  183.7590  178.5520  141.9540 C   0  0  0  0  0  3  0  0  0  0  0  0
  187.4420  178.1450  139.6620 C   0  0  0  0  0  0  0  0  0  0  0  0
  186.5410  177.8440  138.7650 N   0  0  0  0  0  0  0  0  0  0  0  0
  181.0420  178.3360  140.2580 C   0  0  0  0  0  1  0  0  0  0  0  0
  185.7260  179.1990  141.0440 N   0  0  0  0  0  0  0  0  0  0  0  0
  183.5020  178.8780  140.5850 N   0  0  0  0  0  0  0  0  0  0  0  0
  190.8770  176.3060  136.9070 N   0  0  0  0  0  2  0  0  0  0  0  0
  192.3060  176.0510  136.8500 C   0  0  0  0  0  2  0  0  0  0  0  0
  192.5530  174.7220  136.2280 C   0  0  0  0  0  0  0  0  0  0  0  0
  192.9520  174.6380  134.9000 O   0  0  0  0  0  0  0  0  0  0  0  0
  192.4320  173.6750  136.9150 O   0  0  0  0  0  1  0  0  0  0  0  0
  1 10  1  0  0  0  0
  2 26  1  0  0  0  0
  2 12  1  0  0  0  0
  3  4  1  0  0  0  0
  5  6  1  6  0  0  0
  5 27  1  0  0  0  0
  5 26  1  0  0  0  0
  7 18  1  6  0  0  0
  7 23  1  0  0  0  0
  7 16  1  0  0  0  0
  9 25  1  0  0  0  0
  9 27  1  0  0  0  0
 11  3  2  0  0  0  0
 12  8  1  6  0  0  0
 12 13  1  0  0  0  0
 13 21  2  0  0  0  0
 13 11  1  0  0  0  0
 14 21  1  0  0  0  0
 15  9  2  0  0  0  0
 16 10  1  6  0  0  0
 16  8  1  0  0  0  0
 17 15  1  0  0  0  0
 17  6  2  0  0  0  0
 19 28  1  6  0  0  0
 19 18  1  0  0  0  0
 19  1  1  0  0  0  0
 20  4  2  0  0  0  0
 21 20  1  0  0  0  0
 22 14  2  0  0  0  0
 23  2  1  0  0  0  0
 24  6  1  0  0  0  0
 24 23  2  0  0  0  0
 26 14  1  0  0  0  0
 27 22  1  0  0  0  0
 29 28  1  0  0  0  0
 30 29  1  0  0  0  0
 30 32  1  0  0  0  0
 31 30  2  0  0  0  0
M  END
>  <MODEL>
9

>  <REMARK>
 VINA RESULT:      -7.0      3.321      6.710
  Name = 
  3 active torsions:
  status: ('A' for Active; 'I' for Inactive)
    1  A    between atoms: C_1  and  C_10
    2  A    between atoms: C_10  and  N_19
    3  A    between atoms: N_19  and  C_24
                            x       y       z     vdW  Elec       q    Type
                         _______ _______ _______ _____ _____    ______ ____

>  <TORSDO>
F 3

$$$$
