=
 OpenBabel10262422413D

 43 46  0  0  1  0  0  0  0  0999 V2000
  189.5830  176.3070  136.6690 N   0  0  0  0  0  0  0  0  0  0  0  0
  189.2050  177.6390  138.6950 C   0  0  0  0  0  3  0  0  0  0  0  0
  189.9660  176.7710  139.3770 C   0  0  0  0  0  0  0  0  0  0  0  0
  188.7400  177.3290  137.2980 C   0  0  2  0  0  3  0  0  0  0  0  0
  190.2370  175.3230  137.4920 C   0  0  0  0  0  0  0  0  0  0  0  0
  190.4090  175.5540  138.7580 N   0  0  0  0  0  0  0  0  0  0  0  0
  184.6800  175.9890  137.3710 C   0  0  0  0  0  0  0  0  0  0  0  0
  186.2670  177.7850  137.5900 C   0  0  0  0  0  3  0  0  0  0  0  0
  185.7000  175.1300  137.0990 N   0  0  0  0  0  0  0  0  0  0  0  0
  183.4040  175.5370  137.3980 F   0  0  0  0  0  0  0  0  0  0  0  0
  187.3070  176.8870  137.3130 C   0  0  0  0  0  0  0  0  0  0  0  0
  184.9460  177.3360  137.6180 C   0  0  0  0  0  3  0  0  0  0  0  0
  186.9950  175.5470  137.0670 C   0  0  0  0  0  3  0  0  0  0  0  0
  190.2800  177.0000  140.8240 C   0  0  1  0  0  3  0  0  0  0  0  0
  191.7400  177.3710  141.0150 C   0  0  0  0  0  1  0  0  0  0  0  0
  189.4260  178.0480  141.3670 N   0  0  0  0  0  2  0  0  0  0  0  0
  188.2540  177.7650  142.1360 C   0  0  0  0  0  0  0  0  0  0  0  0
  188.0010  176.5880  142.5120 O   0  0  0  0  0  0  0  0  0  0  0  0
  187.2880  178.8550  142.4440 C   0  0  0  0  0  2  0  0  0  0  0  0
  185.9890  178.2640  142.9840 C   0  0  2  0  0  3  0  0  0  0  0  0
  185.2990  179.3090  140.7820 C   0  0  0  0  0  1  0  0  0  0  0  0
  184.8200  178.7420  142.1050 C   0  0  0  0  0  3  0  0  0  0  0  0
  183.7530  177.6800  141.8860 C   0  0  0  0  0  1  0  0  0  0  0  0
  185.8420  178.5630  144.4880 C   0  0  1  0  0  3  0  0  0  0  0  0
  184.4370  179.0360  144.8360 C   0  0  0  0  0  1  0  0  0  0  0  0
  186.1570  177.3080  145.3030 C   0  0  0  0  0  2  0  0  0  0  0  0
  187.2670  177.5490  146.2690 C   0  0  0  0  0  0  0  0  0  0  0  0
  188.0310  178.3410  148.4280 C   0  0  0  0  0  3  0  0  0  0  0  0
  189.6250  177.4730  146.8240 C   0  0  0  0  0  3  0  0  0  0  0  0
  189.3480  178.0260  148.0790 C   0  0  0  0  0  3  0  0  0  0  0  0
  188.5860  177.2350  145.9190 C   0  0  0  0  0  3  0  0  0  0  0  0
  186.9910  178.1040  147.5240 C   0  0  0  0  0  3  0  0  0  0  0  0
  189.5860  176.2050  135.2160 C   0  0  0  0  0  2  0  0  0  0  0  0
  189.4940  177.5860  134.5950 C   0  0  0  0  0  1  0  0  0  0  0  0
  190.7560  173.7420  136.8210 S   0  0  0  0  0  0  0  0  0  0  0  0
  194.1190  175.6030  135.4770 C   0  0  0  0  0  3  0  0  0  0  0  0
  195.0810  175.2390  136.4240 C   0  0  0  0  0  0  0  0  0  0  0  0
  193.4090  173.9200  137.5940 C   0  0  0  0  0  3  0  0  0  0  0  0
  192.8060  175.1360  135.5880 C   0  0  0  0  0  3  0  0  0  0  0  0
  192.4490  174.2980  136.6500 C   0  0  0  0  0  0  0  0  0  0  0  0
  194.7210  174.3870  137.4820 C   0  0  0  0  0  3  0  0  0  0  0  0
  197.5290  174.9920  136.6800 C   0  0  0  0  0  1  0  0  0  0  0  0
  196.3810  175.7360  136.2950 O   0  0  0  0  0  0  0  0  0  0  0  0
  1  4  1  0  0  0  0
  1  5  1  0  0  0  0
  2  3  2  0  0  0  0
  3 14  1  0  0  0  0
  4 11  1  1  0  0  0
  4  2  1  0  0  0  0
  5  6  2  0  0  0  0
  6  3  1  0  0  0  0
  7 10  1  0  0  0  0
  7 12  1  0  0  0  0
  8 12  2  0  0  0  0
  9  7  2  0  0  0  0
 11  8  1  0  0  0  0
 13  9  1  0  0  0  0
 13 11  2  0  0  0  0
 14 15  1  6  0  0  0
 14 16  1  0  0  0  0
 16 17  1  0  0  0  0
 17 19  1  0  0  0  0
 17 18  2  0  0  0  0
 20 19  1  6  0  0  0
 20 24  1  0  0  0  0
 21 22  1  0  0  0  0
 22 20  1  0  0  0  0
 23 22  1  0  0  0  0
 24 25  1  6  0  0  0
 24 26  1  0  0  0  0
 26 27  1  0  0  0  0
 27 32  1  0  0  0  0
 29 30  2  0  0  0  0
 30 28  1  0  0  0  0
 31 27  2  0  0  0  0
 31 29  1  0  0  0  0
 32 28  2  0  0  0  0
 33  1  1  0  0  0  0
 34 33  1  0  0  0  0
 35  5  1  0  0  0  0
 36 39  2  0  0  0  0
 36 37  1  0  0  0  0
 37 41  2  0  0  0  0
 39 40  1  0  0  0  0
 40 35  1  0  0  0  0
 40 38  2  0  0  0  0
 41 38  1  0  0  0  0
 43 37  1  0  0  0  0
 43 42  1  0  0  0  0
M  END
>  <MODEL>
1

>  <REMARK>
 VINA RESULT:      -8.1      0.000      0.000
  Name = 
  13 active torsions:
  status: ('A' for Active; 'I' for Inactive)
    1  A    between atoms: S_1  and  C_34
    2  A    between atoms: S_1  and  C_35
    3  A    between atoms: C_2  and  N_6
    4  A    between atoms: C_2  and  C_27
    5  A    between atoms: C_3  and  C_4
    6  A    between atoms: C_3  and  C_12
    7  A    between atoms: C_4  and  C_15
    8  A    between atoms: C_4  and  C_22
    9  A    between atoms: N_8  and  C_33
   10  A    between atoms: C_11  and  C_14
   11  A    between atoms: C_14  and  C_22
   12  A    between atoms: C_19  and  O_37
   13  A    between atoms: C_21  and  C_30
                            x       y       z     vdW  Elec       q    Type
                         _______ _______ _______ _____ _____    ______ ____

>  <TORSDO>
F 13

$$$$
=
 OpenBabel10262422413D

 43 46  0  0  1  0  0  0  0  0999 V2000
  189.9100  176.4820  136.4060 N   0  0  0  0  0  0  0  0  0  0  0  0
  189.4880  177.8900  138.3710 C   0  0  0  0  0  3  0  0  0  0  0  0
  189.9430  176.8970  139.1480 C   0  0  0  0  0  0  0  0  0  0  0  0
  189.1990  177.6600  136.9120 C   0  0  2  0  0  3  0  0  0  0  0  0
  190.2160  175.3980  137.3040 C   0  0  0  0  0  0  0  0  0  0  0  0
  190.2280  175.6080  138.5850 N   0  0  0  0  0  0  0  0  0  0  0  0
  185.0050  177.1770  136.2250 C   0  0  0  0  0  0  0  0  0  0  0  0
  186.8040  177.7190  137.7310 C   0  0  0  0  0  3  0  0  0  0  0  0
  185.9090  176.9860  135.2270 N   0  0  0  0  0  0  0  0  0  0  0  0
  183.6840  177.0090  135.9850 F   0  0  0  0  0  0  0  0  0  0  0  0
  187.7220  177.5130  136.6920 C   0  0  0  0  0  0  0  0  0  0  0  0
  185.4380  177.5520  137.4980 C   0  0  0  0  0  3  0  0  0  0  0  0
  187.2450  177.1420  135.4320 C   0  0  0  0  0  3  0  0  0  0  0  0
  190.0630  177.0790  140.6310 C   0  0  1  0  0  3  0  0  0  0  0  0
  191.4900  177.4110  141.0280 C   0  0  0  0  0  1  0  0  0  0  0  0
  189.1630  178.1310  141.0850 N   0  0  0  0  0  2  0  0  0  0  0  0
  188.0310  177.8690  141.9190 C   0  0  0  0  0  0  0  0  0  0  0  0
  187.8590  176.7280  142.4280 O   0  0  0  0  0  0  0  0  0  0  0  0
  187.0110  178.9300  142.1390 C   0  0  0  0  0  2  0  0  0  0  0  0
  185.7470  178.3230  142.7420 C   0  0  2  0  0  3  0  0  0  0  0  0
  184.9750  179.4020  140.5840 C   0  0  0  0  0  1  0  0  0  0  0  0
  184.5460  178.6820  141.8480 C   0  0  0  0  0  3  0  0  0  0  0  0
  183.6590  177.4900  141.5200 C   0  0  0  0  0  1  0  0  0  0  0  0
  185.6060  178.7250  144.2220 C   0  0  1  0  0  3  0  0  0  0  0  0
  184.2390  179.3290  144.5150 C   0  0  0  0  0  1  0  0  0  0  0  0
  185.8070  177.5020  145.1170 C   0  0  0  0  0  2  0  0  0  0  0  0
  186.9600  177.6880  146.0440 C   0  0  0  0  0  0  0  0  0  0  0  0
  187.8180  178.3100  148.2240 C   0  0  0  0  0  3  0  0  0  0  0  0
  189.3460  177.6300  146.4710 C   0  0  0  0  0  3  0  0  0  0  0  0
  189.1220  178.0630  147.7820 C   0  0  0  0  0  3  0  0  0  0  0  0
  188.2660  177.4420  145.6020 C   0  0  0  0  0  3  0  0  0  0  0  0
  186.7380  178.1240  147.3550 C   0  0  0  0  0  3  0  0  0  0  0  0
  190.1230  176.3610  134.9700 C   0  0  0  0  0  2  0  0  0  0  0  0
  191.6090  176.3340  134.6620 C   0  0  0  0  0  1  0  0  0  0  0  0
  190.5100  173.7370  136.6950 S   0  0  0  0  0  0  0  0  0  0  0  0
  186.4460  173.7490  136.9400 C   0  0  0  0  0  3  0  0  0  0  0  0
  186.0540  173.1990  135.7150 C   0  0  0  0  0  0  0  0  0  0  0  0
  188.3910  172.9340  135.1040 C   0  0  0  0  0  3  0  0  0  0  0  0
  187.8020  173.8990  137.2450 C   0  0  0  0  0  3  0  0  0  0  0  0
  188.7750  173.4960  136.3250 C   0  0  0  0  0  0  0  0  0  0  0  0
  187.0360  172.7840  134.7990 C   0  0  0  0  0  3  0  0  0  0  0  0
  183.9940  173.9960  134.6020 C   0  0  0  0  0  1  0  0  0  0  0  0
  184.6910  173.0770  135.4320 O   0  0  0  0  0  0  0  0  0  0  0  0
  1  4  1  0  0  0  0
  1  5  1  0  0  0  0
  2  3  2  0  0  0  0
  3 14  1  0  0  0  0
  4 11  1  1  0  0  0
  4  2  1  0  0  0  0
  5  6  2  0  0  0  0
  6  3  1  0  0  0  0
  7 12  1  0  0  0  0
  9 13  1  0  0  0  0
  9  7  2  0  0  0  0
 10  7  1  0  0  0  0
 11  8  1  0  0  0  0
 12  8  2  0  0  0  0
 13 11  2  0  0  0  0
 14 15  1  6  0  0  0
 14 16  1  0  0  0  0
 16 17  1  0  0  0  0
 17 19  1  0  0  0  0
 17 18  2  0  0  0  0
 20 19  1  6  0  0  0
 20 24  1  0  0  0  0
 21 22  1  0  0  0  0
 22 20  1  0  0  0  0
 23 22  1  0  0  0  0
 24 25  1  6  0  0  0
 24 26  1  0  0  0  0
 26 27  1  0  0  0  0
 27 32  1  0  0  0  0
 29 30  2  0  0  0  0
 30 28  1  0  0  0  0
 31 27  2  0  0  0  0
 31 29  1  0  0  0  0
 32 28  2  0  0  0  0
 33  1  1  0  0  0  0
 34 33  1  0  0  0  0
 35  5  1  0  0  0  0
 36 39  1  0  0  0  0
 37 36  2  0  0  0  0
 38 40  1  0  0  0  0
 40 35  1  0  0  0  0
 40 39  2  0  0  0  0
 41 38  2  0  0  0  0
 41 37  1  0  0  0  0
 42 43  1  0  0  0  0
 43 37  1  0  0  0  0
M  END
>  <MODEL>
2

>  <REMARK>
 VINA RESULT:      -7.7      2.390      3.917
  Name = 
  13 active torsions:
  status: ('A' for Active; 'I' for Inactive)
    1  A    between atoms: S_1  and  C_34
    2  A    between atoms: S_1  and  C_35
    3  A    between atoms: C_2  and  N_6
    4  A    between atoms: C_2  and  C_27
    5  A    between atoms: C_3  and  C_4
    6  A    between atoms: C_3  and  C_12
    7  A    between atoms: C_4  and  C_15
    8  A    between atoms: C_4  and  C_22
    9  A    between atoms: N_8  and  C_33
   10  A    between atoms: C_11  and  C_14
   11  A    between atoms: C_14  and  C_22
   12  A    between atoms: C_19  and  O_37
   13  A    between atoms: C_21  and  C_30
                            x       y       z     vdW  Elec       q    Type
                         _______ _______ _______ _____ _____    ______ ____

>  <TORSDO>
F 13

$$$$
=
 OpenBabel10262422413D

 43 46  0  0  1  0  0  0  0  0999 V2000
  190.0530  175.4950  136.2310 N   0  0  0  0  0  0  0  0  0  0  0  0
  190.9930  175.2990  138.4890 C   0  0  0  0  0  3  0  0  0  0  0  0
  190.3060  176.3950  138.8420 C   0  0  0  0  0  0  0  0  0  0  0  0
  191.1150  174.8940  137.0450 C   0  0  2  0  0  3  0  0  0  0  0  0
  189.4870  176.7590  136.6240 C   0  0  0  0  0  0  0  0  0  0  0  0
  189.6130  177.1670  137.8500 N   0  0  0  0  0  0  0  0  0  0  0  0
  194.9790  176.0210  135.5990 C   0  0  0  0  0  0  0  0  0  0  0  0
  193.1110  174.5040  135.5380 C   0  0  0  0  0  3  0  0  0  0  0  0
  194.3350  176.7640  136.5390 N   0  0  0  0  0  0  0  0  0  0  0  0
  196.2060  176.3930  135.1660 F   0  0  0  0  0  0  0  0  0  0  0  0
  192.4630  175.2770  136.5100 C   0  0  0  0  0  0  0  0  0  0  0  0
  194.3740  174.8760  135.0780 C   0  0  0  0  0  3  0  0  0  0  0  0
  193.1020  176.4180  137.0020 C   0  0  0  0  0  3  0  0  0  0  0  0
  190.3320  176.8940  140.2540 C   0  0  1  0  0  3  0  0  0  0  0  0
  191.7120  177.4070  140.6280 C   0  0  0  0  0  1  0  0  0  0  0  0
  189.3440  177.9490  140.4370 N   0  0  0  0  0  2  0  0  0  0  0  0
  188.2520  177.8310  141.3530 C   0  0  0  0  0  0  0  0  0  0  0  0
  188.1940  176.8650  142.1610 O   0  0  0  0  0  0  0  0  0  0  0  0
  187.1410  178.8200  141.3120 C   0  0  0  0  0  2  0  0  0  0  0  0
  185.9580  178.3110  142.1310 C   0  0  2  0  0  3  0  0  0  0  0  0
  184.9050  179.2850  140.0430 C   0  0  0  0  0  1  0  0  0  0  0  0
  184.6510  178.7170  141.4260 C   0  0  0  0  0  3  0  0  0  0  0  0
  183.6200  177.6000  141.3740 C   0  0  0  0  0  1  0  0  0  0  0  0
  186.0790  178.7630  143.5980 C   0  0  1  0  0  3  0  0  0  0  0  0
  184.9380  179.6880  144.0000 C   0  0  0  0  0  1  0  0  0  0  0  0
  186.0770  177.5460  144.5220 C   0  0  0  0  0  2  0  0  0  0  0  0
  187.0570  177.7040  145.6350 C   0  0  0  0  0  0  0  0  0  0  0  0
  189.3370  177.6080  146.4490 C   0  0  0  0  0  3  0  0  0  0  0  0
  187.5390  178.2040  147.9580 C   0  0  0  0  0  3  0  0  0  0  0  0
  188.8990  177.9740  147.7250 C   0  0  0  0  0  3  0  0  0  0  0  0
  186.6180  178.0690  146.9140 C   0  0  0  0  0  3  0  0  0  0  0  0
  188.4170  177.4710  145.4050 C   0  0  0  0  0  3  0  0  0  0  0  0
  189.7310  174.8850  134.9480 C   0  0  0  0  0  2  0  0  0  0  0  0
  188.8340  173.6790  135.1530 C   0  0  0  0  0  1  0  0  0  0  0  0
  188.6710  177.8260  135.4340 S   0  0  0  0  0  0  0  0  0  0  0  0
  185.1660  177.0250  137.3450 C   0  0  0  0  0  3  0  0  0  0  0  0
  184.5040  176.1790  136.4490 C   0  0  0  0  0  0  0  0  0  0  0  0
  186.4110  176.3030  134.9480 C   0  0  0  0  0  3  0  0  0  0  0  0
  186.4400  177.5140  137.0440 C   0  0  0  0  0  3  0  0  0  0  0  0
  187.0610  177.1570  135.8420 C   0  0  0  0  0  0  0  0  0  0  0  0
  185.1370  175.8130  135.2490 C   0  0  0  0  0  3  0  0  0  0  0  0
  183.0000  174.6170  137.6390 C   0  0  0  0  0  1  0  0  0  0  0  0
  183.2240  175.7200  136.7710 O   0  0  0  0  0  0  0  0  0  0  0  0
  1  5  1  0  0  0  0
  1  4  1  0  0  0  0
  2  3  2  0  0  0  0
  3 14  1  0  0  0  0
  4 11  1  6  0  0  0
  4  2  1  0  0  0  0
  5  6  2  0  0  0  0
  6  3  1  0  0  0  0
  7  9  1  0  0  0  0
  8 11  2  0  0  0  0
  9 13  2  0  0  0  0
 10  7  1  0  0  0  0
 11 13  1  0  0  0  0
 12  8  1  0  0  0  0
 12  7  2  0  0  0  0
 14 16  1  0  0  0  0
 14 15  1  6  0  0  0
 16 17  1  0  0  0  0
 17 18  2  0  0  0  0
 19 17  1  0  0  0  0
 20 19  1  6  0  0  0
 20 24  1  0  0  0  0
 21 22  1  0  0  0  0
 22 20  1  0  0  0  0
 23 22  1  0  0  0  0
 24 25  1  1  0  0  0
 24 26  1  0  0  0  0
 26 27  1  0  0  0  0
 27 31  1  0  0  0  0
 28 30  2  0  0  0  0
 30 29  1  0  0  0  0
 31 29  2  0  0  0  0
 32 27  2  0  0  0  0
 32 28  1  0  0  0  0
 33 34  1  0  0  0  0
 33  1  1  0  0  0  0
 35 40  1  0  0  0  0
 35  5  1  0  0  0  0
 37 43  1  0  0  0  0
 37 36  2  0  0  0  0
 38 41  2  0  0  0  0
 38 40  1  0  0  0  0
 39 36  1  0  0  0  0
 40 39  2  0  0  0  0
 41 37  1  0  0  0  0
 43 42  1  0  0  0  0
M  END
>  <MODEL>
3

>  <REMARK>
 VINA RESULT:      -7.4      2.944      5.950
  Name = 
  13 active torsions:
  status: ('A' for Active; 'I' for Inactive)
    1  A    between atoms: S_1  and  C_34
    2  A    between atoms: S_1  and  C_35
    3  A    between atoms: C_2  and  N_6
    4  A    between atoms: C_2  and  C_27
    5  A    between atoms: C_3  and  C_4
    6  A    between atoms: C_3  and  C_12
    7  A    between atoms: C_4  and  C_15
    8  A    between atoms: C_4  and  C_22
    9  A    between atoms: N_8  and  C_33
   10  A    between atoms: C_11  and  C_14
   11  A    between atoms: C_14  and  C_22
   12  A    between atoms: C_19  and  O_37
   13  A    between atoms: C_21  and  C_30
                            x       y       z     vdW  Elec       q    Type
                         _______ _______ _______ _____ _____    ______ ____

>  <TORSDO>
F 13

$$$$
=
 OpenBabel10262422413D

 43 46  0  0  1  0  0  0  0  0999 V2000
  182.1930  177.0090  137.1900 N   0  0  0  0  0  0  0  0  0  0  0  0
  183.9690  178.5860  137.8050 C   0  0  0  0  0  3  0  0  0  0  0  0
  184.8200  177.5530  137.8910 C   0  0  0  0  0  0  0  0  0  0  0  0
  182.4870  178.3580  137.6830 C   0  0  2  0  0  3  0  0  0  0  0  0
  183.1100  175.9350  137.4730 C   0  0  0  0  0  0  0  0  0  0  0  0
  184.3370  176.2060  137.8000 N   0  0  0  0  0  0  0  0  0  0  0  0
  180.5260  179.0840  141.4130 C   0  0  0  0  0  0  0  0  0  0  0  0
  181.5700  177.5360  139.8950 C   0  0  0  0  0  3  0  0  0  0  0  0
  180.7760  180.0970  140.5410 N   0  0  0  0  0  0  0  0  0  0  0  0
  179.8950  179.3380  142.5840 F   0  0  0  0  0  0  0  0  0  0  0  0
  181.8150  178.5890  139.0040 C   0  0  0  0  0  0  0  0  0  0  0  0
  180.9230  177.7820  141.1060 C   0  0  0  0  0  3  0  0  0  0  0  0
  181.4050  179.8790  139.3530 C   0  0  0  0  0  3  0  0  0  0  0  0
  186.2710  177.7800  138.1890 C   0  0  1  0  0  3  0  0  0  0  0  0
  186.9440  178.5580  137.0710 C   0  0  0  0  0  1  0  0  0  0  0  0
  186.4230  178.4920  139.4510 N   0  0  0  0  0  2  0  0  0  0  0  0
  187.5120  178.2480  140.3460 C   0  0  0  0  0  0  0  0  0  0  0  0
  188.4760  177.5140  139.9990 O   0  0  0  0  0  0  0  0  0  0  0  0
  187.4790  178.8120  141.7230 C   0  0  0  0  0  2  0  0  0  0  0  0
  186.6650  177.9040  142.6400 C   0  0  2  0  0  3  0  0  0  0  0  0
  184.2040  178.4560  142.4110 C   0  0  0  0  0  1  0  0  0  0  0  0
  185.4740  178.6990  143.2030 C   0  0  0  0  0  3  0  0  0  0  0  0
  185.2400  178.4690  144.6880 C   0  0  0  0  0  1  0  0  0  0  0  0
  187.5740  177.2480  143.6980 C   0  0  1  0  0  3  0  0  0  0  0  0
  188.1020  175.8980  143.2300 C   0  0  0  0  0  1  0  0  0  0  0  0
  188.7590  178.1610  144.0070 C   0  0  0  0  0  2  0  0  0  0  0  0
  189.5380  177.6670  145.1790 C   0  0  0  0  0  0  0  0  0  0  0  0
  189.6630  177.1420  147.5410 C   0  0  0  0  0  3  0  0  0  0  0  0
  191.6080  176.8390  146.1300 C   0  0  0  0  0  3  0  0  0  0  0  0
  191.0010  176.7640  147.3880 C   0  0  0  0  0  3  0  0  0  0  0  0
  190.8780  177.2900  145.0260 C   0  0  0  0  0  3  0  0  0  0  0  0
  188.9320  177.5950  146.4380 C   0  0  0  0  0  3  0  0  0  0  0  0
  180.8910  176.7570  136.5870 C   0  0  0  0  0  2  0  0  0  0  0  0
  180.9970  176.8100  135.0740 C   0  0  0  0  0  1  0  0  0  0  0  0
  182.5740  174.2230  137.4580 S   0  0  0  0  0  0  0  0  0  0  0  0
  185.6750  173.5290  134.9130 C   0  0  0  0  0  3  0  0  0  0  0  0
  186.6140  172.8860  135.7280 C   0  0  0  0  0  0  0  0  0  0  0  0
  185.0630  173.0210  137.5940 C   0  0  0  0  0  3  0  0  0  0  0  0
  184.4400  173.9210  135.4350 C   0  0  0  0  0  3  0  0  0  0  0  0
  184.1350  173.6730  136.7780 C   0  0  0  0  0  0  0  0  0  0  0  0
  186.2980  172.6270  137.0730 C   0  0  0  0  0  3  0  0  0  0  0  0
  189.0780  173.0760  135.6230 C   0  0  0  0  0  1  0  0  0  0  0  0
  187.8470  172.5200  135.1810 O   0  0  0  0  0  0  0  0  0  0  0  0
  1  5  1  0  0  0  0
  1  4  1  0  0  0  0
  2  3  2  0  0  0  0
  3 14  1  0  0  0  0
  4  2  1  0  0  0  0
  4 11  1  1  0  0  0
  5  6  2  0  0  0  0
  6  3  1  0  0  0  0
  7 10  1  0  0  0  0
  8 12  2  0  0  0  0
  9  7  2  0  0  0  0
 11 13  2  0  0  0  0
 11  8  1  0  0  0  0
 12  7  1  0  0  0  0
 13  9  1  0  0  0  0
 14 15  1  6  0  0  0
 14 16  1  0  0  0  0
 16 17  1  0  0  0  0
 17 19  1  0  0  0  0
 18 17  2  0  0  0  0
 20 19  1  1  0  0  0
 20 22  1  0  0  0  0
 20 24  1  0  0  0  0
 21 22  1  0  0  0  0
 22 23  1  0  0  0  0
 24 25  1  6  0  0  0
 24 26  1  0  0  0  0
 26 27  1  0  0  0  0
 27 32  1  0  0  0  0
 29 30  2  0  0  0  0
 30 28  1  0  0  0  0
 31 27  2  0  0  0  0
 31 29  1  0  0  0  0
 32 28  2  0  0  0  0
 33  1  1  0  0  0  0
 34 33  1  0  0  0  0
 35  5  1  0  0  0  0
 36 39  2  0  0  0  0
 36 37  1  0  0  0  0
 37 41  2  0  0  0  0
 39 40  1  0  0  0  0
 40 35  1  0  0  0  0
 40 38  2  0  0  0  0
 41 38  1  0  0  0  0
 43 42  1  0  0  0  0
 43 37  1  0  0  0  0
M  END
>  <MODEL>
4

>  <REMARK>
 VINA RESULT:      -7.4      3.841      5.994
  Name = 
  13 active torsions:
  status: ('A' for Active; 'I' for Inactive)
    1  A    between atoms: S_1  and  C_34
    2  A    between atoms: S_1  and  C_35
    3  A    between atoms: C_2  and  N_6
    4  A    between atoms: C_2  and  C_27
    5  A    between atoms: C_3  and  C_4
    6  A    between atoms: C_3  and  C_12
    7  A    between atoms: C_4  and  C_15
    8  A    between atoms: C_4  and  C_22
    9  A    between atoms: N_8  and  C_33
   10  A    between atoms: C_11  and  C_14
   11  A    between atoms: C_14  and  C_22
   12  A    between atoms: C_19  and  O_37
   13  A    between atoms: C_21  and  C_30
                            x       y       z     vdW  Elec       q    Type
                         _______ _______ _______ _____ _____    ______ ____

>  <TORSDO>
F 13

$$$$
=
 OpenBabel10262422413D

 43 46  0  0  1  0  0  0  0  0999 V2000
  188.6620  176.9840  136.2340 N   0  0  0  0  0  0  0  0  0  0  0  0
  188.3960  176.9620  138.6730 C   0  0  0  0  0  3  0  0  0  0  0  0
  189.7060  176.6980  138.7880 C   0  0  0  0  0  0  0  0  0  0  0  0
  187.7040  176.8790  137.3390 C   0  0  2  0  0  3  0  0  0  0  0  0
  190.0150  176.5270  136.4220 C   0  0  0  0  0  0  0  0  0  0  0  0
  190.4890  176.3990  137.6240 N   0  0  0  0  0  0  0  0  0  0  0  0
  185.4180  173.2810  137.0030 C   0  0  0  0  0  0  0  0  0  0  0  0
  187.5660  174.3610  137.1200 C   0  0  0  0  0  3  0  0  0  0  0  0
  184.8110  174.4920  137.1220 N   0  0  0  0  0  0  0  0  0  0  0  0
  184.6720  172.1570  136.8880 F   0  0  0  0  0  0  0  0  0  0  0  0
  186.9250  175.6010  137.2360 C   0  0  0  0  0  0  0  0  0  0  0  0
  186.8120  173.1940  137.0030 C   0  0  0  0  0  3  0  0  0  0  0  0
  185.5280  175.6440  137.2360 C   0  0  0  0  0  3  0  0  0  0  0  0
  190.3540  176.6080  140.1360 C   0  0  1  0  0  3  0  0  0  0  0  0
  191.4640  177.6340  140.2790 C   0  0  0  0  0  1  0  0  0  0  0  0
  189.3620  176.8000  141.1870 N   0  0  0  0  0  2  0  0  0  0  0  0
  189.4210  176.1060  142.4360 C   0  0  0  0  0  0  0  0  0  0  0  0
  190.4300  175.4150  142.7390 O   0  0  0  0  0  0  0  0  0  0  0  0
  188.2560  176.1450  143.3600 C   0  0  0  0  0  2  0  0  0  0  0  0
  187.9550  177.5860  143.7610 C   0  0  2  0  0  3  0  0  0  0  0  0
  189.3430  176.8660  145.7530 C   0  0  0  0  0  1  0  0  0  0  0  0
  188.9500  178.0210  144.8510 C   0  0  0  0  0  3  0  0  0  0  0  0
  190.1810  178.7240  144.3010 C   0  0  0  0  0  1  0  0  0  0  0  0
  186.4670  177.7470  144.1290 C   0  0  1  0  0  3  0  0  0  0  0  0
  186.2530  177.7150  145.6360 C   0  0  0  0  0  1  0  0  0  0  0  0
  185.9330  179.0700  143.5820 C   0  0  0  0  0  2  0  0  0  0  0  0
  184.5350  178.9300  143.0830 C   0  0  0  0  0  0  0  0  0  0  0  0
  182.1470  179.0330  143.4830 C   0  0  0  0  0  3  0  0  0  0  0  0
  182.9820  178.3990  141.3000 C   0  0  0  0  0  3  0  0  0  0  0  0
  181.9080  178.6460  142.1610 C   0  0  0  0  0  3  0  0  0  0  0  0
  184.2950  178.5410  141.7600 C   0  0  0  0  0  3  0  0  0  0  0  0
  183.4600  179.1740  143.9450 C   0  0  0  0  0  3  0  0  0  0  0  0
  188.1690  177.3760  134.9210 C   0  0  0  0  0  2  0  0  0  0  0  0
  186.9370  178.2510  135.0650 C   0  0  0  0  0  1  0  0  0  0  0  0
  191.0420  176.0570  135.0290 S   0  0  0  0  0  0  0  0  0  0  0  0
  193.3270  173.3160  136.9900 C   0  0  0  0  0  3  0  0  0  0  0  0
  194.2230  174.1110  137.7120 C   0  0  0  0  0  0  0  0  0  0  0  0
  193.1460  176.1020  136.8280 C   0  0  0  0  0  3  0  0  0  0  0  0
  192.3490  173.9080  136.1860 C   0  0  0  0  0  3  0  0  0  0  0  0
  192.2610  175.3010  136.1000 C   0  0  0  0  0  0  0  0  0  0  0  0
  194.1230  175.5110  137.6330 C   0  0  0  0  0  3  0  0  0  0  0  0
  196.1990  174.2190  139.1970 C   0  0  0  0  0  1  0  0  0  0  0  0
  195.2000  173.4900  138.4950 O   0  0  0  0  0  0  0  0  0  0  0  0
  1  5  1  0  0  0  0
  1  4  1  0  0  0  0
  2  3  2  0  0  0  0
  3 14  1  0  0  0  0
  4 11  1  1  0  0  0
  4  2  1  0  0  0  0
  5  6  2  0  0  0  0
  6  3  1  0  0  0  0
  7 12  2  0  0  0  0
  7  9  1  0  0  0  0
  8 11  2  0  0  0  0
  9 13  2  0  0  0  0
 10  7  1  0  0  0  0
 11 13  1  0  0  0  0
 12  8  1  0  0  0  0
 14 15  1  6  0  0  0
 14 16  1  0  0  0  0
 16 17  1  0  0  0  0
 17 18  2  0  0  0  0
 17 19  1  0  0  0  0
 20 19  1  1  0  0  0
 20 24  1  0  0  0  0
 20 22  1  0  0  0  0
 22 21  1  0  0  0  0
 23 22  1  0  0  0  0
 24 25  1  1  0  0  0
 26 24  1  0  0  0  0
 27 26  1  0  0  0  0
 27 32  1  0  0  0  0
 28 32  2  0  0  0  0
 29 31  1  0  0  0  0
 29 30  2  0  0  0  0
 30 28  1  0  0  0  0
 31 27  2  0  0  0  0
 33 34  1  0  0  0  0
 33  1  1  0  0  0  0
 35 40  1  0  0  0  0
 35  5  1  0  0  0  0
 36 37  1  0  0  0  0
 37 43  1  0  0  0  0
 38 41  1  0  0  0  0
 39 36  2  0  0  0  0
 40 39  1  0  0  0  0
 40 38  2  0  0  0  0
 41 37  2  0  0  0  0
 43 42  1  0  0  0  0
M  END
>  <MODEL>
5

>  <REMARK>
 VINA RESULT:      -7.3      1.720      3.744
  Name = 
  13 active torsions:
  status: ('A' for Active; 'I' for Inactive)
    1  A    between atoms: S_1  and  C_34
    2  A    between atoms: S_1  and  C_35
    3  A    between atoms: C_2  and  N_6
    4  A    between atoms: C_2  and  C_27
    5  A    between atoms: C_3  and  C_4
    6  A    between atoms: C_3  and  C_12
    7  A    between atoms: C_4  and  C_15
    8  A    between atoms: C_4  and  C_22
    9  A    between atoms: N_8  and  C_33
   10  A    between atoms: C_11  and  C_14
   11  A    between atoms: C_14  and  C_22
   12  A    between atoms: C_19  and  O_37
   13  A    between atoms: C_21  and  C_30
                            x       y       z     vdW  Elec       q    Type
                         _______ _______ _______ _____ _____    ______ ____

>  <TORSDO>
F 13

$$$$
=
 OpenBabel10262422413D

 43 46  0  0  1  0  0  0  0  0999 V2000
  190.6460  177.3610  141.3860 N   0  0  0  0  0  0  0  0  0  0  0  0
  189.5200  178.3980  139.4690 C   0  0  0  0  0  3  0  0  0  0  0  0
  188.3440  178.0060  139.9800 C   0  0  0  0  0  0  0  0  0  0  0  0
  190.8170  177.8760  140.0240 C   0  0  2  0  0  3  0  0  0  0  0  0
  189.3720  176.8200  141.7840 C   0  0  0  0  0  0  0  0  0  0  0  0
  188.3030  177.1310  141.1160 N   0  0  0  0  0  0  0  0  0  0  0  0
  192.3280  174.8330  137.4260 C   0  0  0  0  0  0  0  0  0  0  0  0
  192.7370  176.7620  138.8060 C   0  0  0  0  0  3  0  0  0  0  0  0
  191.0080  174.8890  137.7520 N   0  0  0  0  0  0  0  0  0  0  0  0
  192.7790  173.8650  136.5930 F   0  0  0  0  0  0  0  0  0  0  0  0
  191.3740  176.8090  139.1280 C   0  0  0  0  0  0  0  0  0  0  0  0
  193.2190  175.7700  137.9520 C   0  0  0  0  0  3  0  0  0  0  0  0
  190.5170  175.8490  138.5830 C   0  0  0  0  0  3  0  0  0  0  0  0
  187.0560  178.3870  139.3170 C   0  0  1  0  0  3  0  0  0  0  0  0
  186.9410  177.7550  137.9410 C   0  0  0  0  0  1  0  0  0  0  0  0
  185.9240  177.9860  140.1430 N   0  0  0  0  0  2  0  0  0  0  0  0
  184.7410  178.7810  140.2650 C   0  0  0  0  0  0  0  0  0  0  0  0
  184.5670  179.7900  139.5310 O   0  0  0  0  0  0  0  0  0  0  0  0
  183.7340  178.4540  141.3110 C   0  0  0  0  0  2  0  0  0  0  0  0
  182.3280  178.5230  140.7230 C   0  0  2  0  0  3  0  0  0  0  0  0
  182.0120  179.0030  143.1900 C   0  0  0  0  0  1  0  0  0  0  0  0
  181.3210  178.7580  141.8620 C   0  0  0  0  0  3  0  0  0  0  0  0
  180.3150  179.8590  141.5630 C   0  0  0  0  0  1  0  0  0  0  0  0
  182.0480  177.2890  139.8440 C   0  0  1  0  0  3  0  0  0  0  0  0
  180.7470  176.6020  140.2350 C   0  0  0  0  0  1  0  0  0  0  0  0
  181.9650  177.7020  138.3750 C   0  0  0  0  0  2  0  0  0  0  0  0
  182.9410  176.9440  137.5390 C   0  0  0  0  0  0  0  0  0  0  0  0
  184.2120  176.7180  135.4880 C   0  0  0  0  0  3  0  0  0  0  0  0
  184.3870  175.0270  137.2130 C   0  0  0  0  0  3  0  0  0  0  0  0
  184.7530  175.5160  135.9550 C   0  0  0  0  0  3  0  0  0  0  0  0
  183.4820  175.7400  138.0050 C   0  0  0  0  0  3  0  0  0  0  0  0
  183.3060  177.4320  136.2790 C   0  0  0  0  0  3  0  0  0  0  0  0
  191.8220  177.2410  142.2380 C   0  0  0  0  0  2  0  0  0  0  0  0
  191.7040  178.1780  143.4250 C   0  0  0  0  0  1  0  0  0  0  0  0
  189.2370  175.6580  143.1450 S   0  0  0  0  0  0  0  0  0  0  0  0
  186.0480  177.9320  144.2570 C   0  0  0  0  0  3  0  0  0  0  0  0
  186.4220  178.4040  145.5200 C   0  0  0  0  0  0  0  0  0  0  0  0
  188.5400  177.2320  145.3140 C   0  0  0  0  0  3  0  0  0  0  0  0
  186.9110  177.1100  143.5270 C   0  0  0  0  0  3  0  0  0  0  0  0
  188.1550  176.7540  144.0580 C   0  0  0  0  0  0  0  0  0  0  0  0
  187.6790  178.0550  146.0430 C   0  0  0  0  0  3  0  0  0  0  0  0
  184.1260  179.0020  146.2190 C   0  0  0  0  0  1  0  0  0  0  0  0
  185.5310  179.2120  146.2320 O   0  0  0  0  0  0  0  0  0  0  0  0
  1  5  1  0  0  0  0
  1 33  1  0  0  0  0
  2  3  2  0  0  0  0
  2  4  1  0  0  0  0
  3  6  1  0  0  0  0
  4 11  1  6  0  0  0
  4  1  1  0  0  0  0
  5 35  1  0  0  0  0
  6  5  2  0  0  0  0
  7  9  2  0  0  0  0
  7 12  1  0  0  0  0
  8 11  1  0  0  0  0
  9 13  1  0  0  0  0
 10  7  1  0  0  0  0
 12  8  2  0  0  0  0
 13 11  2  0  0  0  0
 14 15  1  6  0  0  0
 14  3  1  0  0  0  0
 14 16  1  0  0  0  0
 16 17  1  0  0  0  0
 17 19  1  0  0  0  0
 18 17  2  0  0  0  0
 20 19  1  1  0  0  0
 20 22  1  0  0  0  0
 22 21  1  0  0  0  0
 23 22  1  0  0  0  0
 24 25  1  1  0  0  0
 24 20  1  0  0  0  0
 26 24  1  0  0  0  0
 27 31  1  0  0  0  0
 27 26  1  0  0  0  0
 28 30  2  0  0  0  0
 28 32  1  0  0  0  0
 29 31  2  0  0  0  0
 30 29  1  0  0  0  0
 32 27  2  0  0  0  0
 33 34  1  0  0  0  0
 35 40  1  0  0  0  0
 36 37  1  0  0  0  0
 37 41  2  0  0  0  0
 37 43  1  0  0  0  0
 38 41  1  0  0  0  0
 39 40  1  0  0  0  0
 39 36  2  0  0  0  0
 40 38  2  0  0  0  0
 42 43  1  0  0  0  0
M  END
>  <MODEL>
6

>  <REMARK>
 VINA RESULT:      -7.2      3.383      8.319
  Name = 
  13 active torsions:
  status: ('A' for Active; 'I' for Inactive)
    1  A    between atoms: S_1  and  C_34
    2  A    between atoms: S_1  and  C_35
    3  A    between atoms: C_2  and  N_6
    4  A    between atoms: C_2  and  C_27
    5  A    between atoms: C_3  and  C_4
    6  A    between atoms: C_3  and  C_12
    7  A    between atoms: C_4  and  C_15
    8  A    between atoms: C_4  and  C_22
    9  A    between atoms: N_8  and  C_33
   10  A    between atoms: C_11  and  C_14
   11  A    between atoms: C_14  and  C_22
   12  A    between atoms: C_19  and  O_37
   13  A    between atoms: C_21  and  C_30
                            x       y       z     vdW  Elec       q    Type
                         _______ _______ _______ _____ _____    ______ ____

>  <TORSDO>
F 13

$$$$
=
 OpenBabel10262422413D

 43 46  0  0  1  0  0  0  0  0999 V2000
  180.3660  176.5420  140.4520 N   0  0  0  0  0  0  0  0  0  0  0  0
  182.6980  176.2660  139.7380 C   0  0  0  0  0  3  0  0  0  0  0  0
  182.8720  177.5870  139.8840 C   0  0  0  0  0  0  0  0  0  0  0  0
  181.3210  175.6580  139.7760 C   0  0  2  0  0  3  0  0  0  0  0  0
  180.5710  177.9670  140.4160 C   0  0  0  0  0  0  0  0  0  0  0  0
  181.7500  178.4410  140.1490 N   0  0  0  0  0  0  0  0  0  0  0  0
  179.9730  174.6870  135.8350 C   0  0  0  0  0  0  0  0  0  0  0  0
  180.1620  176.2940  137.6170 C   0  0  0  0  0  3  0  0  0  0  0  0
  180.6500  173.7800  136.5920 N   0  0  0  0  0  0  0  0  0  0  0  0
  179.5480  174.3510  134.5940 F   0  0  0  0  0  0  0  0  0  0  0  0
  180.8520  175.3470  138.3850 C   0  0  0  0  0  0  0  0  0  0  0  0
  179.7200  175.9650  136.3350 C   0  0  0  0  0  3  0  0  0  0  0  0
  181.0890  174.0800  137.8450 C   0  0  0  0  0  3  0  0  0  0  0  0
  184.2180  178.2100  139.6720 C   0  0  1  0  0  3  0  0  0  0  0  0
  184.1630  179.2770  138.5930 C   0  0  0  0  0  1  0  0  0  0  0  0
  184.7110  178.7860  140.9160 N   0  0  0  0  0  2  0  0  0  0  0  0
  186.1040  178.8770  141.2230 C   0  0  0  0  0  0  0  0  0  0  0  0
  186.9730  178.6050  140.3510 O   0  0  0  0  0  0  0  0  0  0  0  0
  186.5380  179.2350  142.6010 C   0  0  0  0  0  2  0  0  0  0  0  0
  186.0670  178.1720  143.5890 C   0  0  2  0  0  3  0  0  0  0  0  0
  183.7870  179.1200  144.1570 C   0  0  0  0  0  1  0  0  0  0  0  0
  185.1900  178.8410  144.6630 C   0  0  0  0  0  3  0  0  0  0  0  0
  185.1510  178.0750  145.9760 C   0  0  0  0  0  1  0  0  0  0  0  0
  187.2640  177.3660  144.1290 C   0  0  1  0  0  3  0  0  0  0  0  0
  187.8460  176.4420  143.0690 C   0  0  0  0  0  1  0  0  0  0  0  0
  188.3590  178.3180  144.6100 C   0  0  0  0  0  2  0  0  0  0  0  0
  189.3790  177.6050  145.4330 C   0  0  0  0  0  0  0  0  0  0  0  0
  190.0490  176.6110  147.5390 C   0  0  0  0  0  3  0  0  0  0  0  0
  191.5840  176.6260  145.6650 C   0  0  0  0  0  3  0  0  0  0  0  0
  191.2950  176.2890  146.9920 C   0  0  0  0  0  3  0  0  0  0  0  0
  190.6270  177.2840  144.8860 C   0  0  0  0  0  3  0  0  0  0  0  0
  189.0920  177.2700  146.7610 C   0  0  0  0  0  3  0  0  0  0  0  0
  179.1380  175.9640  140.9810 C   0  0  0  0  0  2  0  0  0  0  0  0
  179.4110  174.5800  141.5400 C   0  0  0  0  0  1  0  0  0  0  0  0
  179.2110  179.1110  140.6590 S   0  0  0  0  0  0  0  0  0  0  0  0
  179.9380  180.3760  136.8580 C   0  0  0  0  0  3  0  0  0  0  0  0
  180.4080  181.6810  137.0440 C   0  0  0  0  0  0  0  0  0  0  0  0
  180.1880  181.4000  139.4480 C   0  0  0  0  0  3  0  0  0  0  0  0
  179.5890  179.5880  137.9580 C   0  0  0  0  0  3  0  0  0  0  0  0
  179.7080  180.1020  139.2540 C   0  0  0  0  0  0  0  0  0  0  0  0
  180.5390  182.1880  138.3480 C   0  0  0  0  0  3  0  0  0  0  0  0
  180.8810  183.8620  135.9780 C   0  0  0  0  0  1  0  0  0  0  0  0
  180.7340  182.4490  135.9240 O   0  0  0  0  0  0  0  0  0  0  0  0
  1 33  1  0  0  0  0
  2  4  1  0  0  0  0
  2  3  2  0  0  0  0
  3  6  1  0  0  0  0
  4 11  1  6  0  0  0
  4  1  1  0  0  0  0
  5  1  1  0  0  0  0
  5 35  1  0  0  0  0
  6  5  2  0  0  0  0
  7 12  2  0  0  0  0
  7  9  1  0  0  0  0
  8 11  2  0  0  0  0
  9 13  2  0  0  0  0
 10  7  1  0  0  0  0
 12  8  1  0  0  0  0
 13 11  1  0  0  0  0
 14 15  1  6  0  0  0
 14  3  1  0  0  0  0
 14 16  1  0  0  0  0
 16 17  1  0  0  0  0
 17 19  1  0  0  0  0
 18 17  2  0  0  0  0
 20 19  1  6  0  0  0
 20 24  1  0  0  0  0
 20 22  1  0  0  0  0
 21 22  1  0  0  0  0
 22 23  1  0  0  0  0
 24 25  1  6  0  0  0
 24 26  1  0  0  0  0
 26 27  1  0  0  0  0
 27 32  1  0  0  0  0
 29 30  2  0  0  0  0
 30 28  1  0  0  0  0
 31 27  2  0  0  0  0
 31 29  1  0  0  0  0
 32 28  2  0  0  0  0
 33 34  1  0  0  0  0
 36 37  2  0  0  0  0
 36 39  1  0  0  0  0
 37 41  1  0  0  0  0
 39 40  2  0  0  0  0
 40 38  1  0  0  0  0
 40 35  1  0  0  0  0
 41 38  2  0  0  0  0
 43 42  1  0  0  0  0
 43 37  1  0  0  0  0
M  END
>  <MODEL>
7

>  <REMARK>
 VINA RESULT:      -7.2      5.699      8.955
  Name = 
  13 active torsions:
  status: ('A' for Active; 'I' for Inactive)
    1  A    between atoms: S_1  and  C_34
    2  A    between atoms: S_1  and  C_35
    3  A    between atoms: C_2  and  N_6
    4  A    between atoms: C_2  and  C_27
    5  A    between atoms: C_3  and  C_4
    6  A    between atoms: C_3  and  C_12
    7  A    between atoms: C_4  and  C_15
    8  A    between atoms: C_4  and  C_22
    9  A    between atoms: N_8  and  C_33
   10  A    between atoms: C_11  and  C_14
   11  A    between atoms: C_14  and  C_22
   12  A    between atoms: C_19  and  O_37
   13  A    between atoms: C_21  and  C_30
                            x       y       z     vdW  Elec       q    Type
                         _______ _______ _______ _____ _____    ______ ____

>  <TORSDO>
F 13

$$$$
=
 OpenBabel10262422413D

 43 46  0  0  1  0  0  0  0  0999 V2000
  190.0260  174.9250  136.2390 N   0  0  0  0  0  0  0  0  0  0  0  0
  190.7590  175.6700  138.4590 C   0  0  0  0  0  3  0  0  0  0  0  0
  189.8560  176.6580  138.3960 C   0  0  0  0  0  0  0  0  0  0  0  0
  191.0930  174.8490  137.2420 C   0  0  2  0  0  3  0  0  0  0  0  0
  189.2080  176.1070  136.1620 C   0  0  0  0  0  0  0  0  0  0  0  0
  189.1380  176.9090  137.1800 N   0  0  0  0  0  0  0  0  0  0  0  0
  194.8540  176.0830  135.6220 C   0  0  0  0  0  0  0  0  0  0  0  0
  192.5150  175.6170  135.2930 C   0  0  0  0  0  3  0  0  0  0  0  0
  194.7220  175.7770  136.9410 N   0  0  0  0  0  0  0  0  0  0  0  0
  196.0580  176.4610  135.1320 F   0  0  0  0  0  0  0  0  0  0  0  0
  192.3970  175.3000  136.6530 C   0  0  0  0  0  0  0  0  0  0  0  0
  193.7480  176.0110  134.7730 C   0  0  0  0  0  3  0  0  0  0  0  0
  193.5280  175.3890  137.4690 C   0  0  0  0  0  3  0  0  0  0  0  0
  189.6540  177.5850  139.5570 C   0  0  1  0  0  3  0  0  0  0  0  0
  188.4480  178.4810  139.3380 C   0  0  0  0  0  1  0  0  0  0  0  0
  189.4920  176.8240  140.7890 N   0  0  0  0  0  2  0  0  0  0  0  0
  189.0790  177.4280  142.0180 C   0  0  0  0  0  0  0  0  0  0  0  0
  188.6830  178.6240  142.0440 O   0  0  0  0  0  0  0  0  0  0  0  0
  189.1760  176.6610  143.2890 C   0  0  0  0  0  2  0  0  0  0  0  0
  189.3300  177.6200  144.4670 C   0  0  2  0  0  3  0  0  0  0  0  0
  191.6780  176.7110  144.1900 C   0  0  0  0  0  1  0  0  0  0  0  0
  190.8290  177.8420  144.7380 C   0  0  0  0  0  3  0  0  0  0  0  0
  191.3390  179.1900  144.2510 C   0  0  0  0  0  1  0  0  0  0  0  0
  188.5110  177.1280  145.6760 C   0  0  1  0  0  3  0  0  0  0  0  0
  189.4080  176.6170  146.7950 C   0  0  0  0  0  1  0  0  0  0  0  0
  187.6460  178.2650  146.2180 C   0  0  0  0  0  2  0  0  0  0  0  0
  186.3520  178.3640  145.4830 C   0  0  0  0  0  0  0  0  0  0  0  0
  185.0600  178.0320  143.4600 C   0  0  0  0  0  3  0  0  0  0  0  0
  184.0150  179.0040  145.4170 C   0  0  0  0  0  3  0  0  0  0  0  0
  183.9330  178.5680  144.0900 C   0  0  0  0  0  3  0  0  0  0  0  0
  185.2230  178.9020  146.1130 C   0  0  0  0  0  3  0  0  0  0  0  0
  186.2690  177.9310  144.1550 C   0  0  0  0  0  3  0  0  0  0  0  0
  189.9460  173.8780  135.2280 C   0  0  0  0  0  2  0  0  0  0  0  0
  189.2550  172.6540  135.7980 C   0  0  0  0  0  1  0  0  0  0  0  0
  188.3350  176.5400  134.6550 S   0  0  0  0  0  0  0  0  0  0  0  0
  185.0970  174.5100  136.0580 C   0  0  0  0  0  3  0  0  0  0  0  0
  184.3010  175.5220  136.6030 C   0  0  0  0  0  0  0  0  0  0  0  0
  185.9530  177.1680  135.9170 C   0  0  0  0  0  3  0  0  0  0  0  0
  186.3170  174.8200  135.4520 C   0  0  0  0  0  3  0  0  0  0  0  0
  186.7480  176.1490  135.3850 C   0  0  0  0  0  0  0  0  0  0  0  0
  184.7320  176.8580  136.5230 C   0  0  0  0  0  3  0  0  0  0  0  0
  182.4180  173.9570  136.9530 C   0  0  0  0  0  1  0  0  0  0  0  0
  183.0940  175.1790  137.2180 O   0  0  0  0  0  0  0  0  0  0  0  0
  1  4  1  0  0  0  0
  3  2  2  0  0  0  0
  3 14  1  0  0  0  0
  4 11  1  6  0  0  0
  4  2  1  0  0  0  0
  5  1  1  0  0  0  0
  5  6  2  0  0  0  0
  6  3  1  0  0  0  0
  7  9  1  0  0  0  0
  8 11  2  0  0  0  0
  9 13  2  0  0  0  0
 10  7  1  0  0  0  0
 11 13  1  0  0  0  0
 12  8  1  0  0  0  0
 12  7  2  0  0  0  0
 14 15  1  6  0  0  0
 14 16  1  0  0  0  0
 16 17  1  0  0  0  0
 17 18  2  0  0  0  0
 17 19  1  0  0  0  0
 20 19  1  6  0  0  0
 20 22  1  0  0  0  0
 20 24  1  0  0  0  0
 21 22  1  0  0  0  0
 23 22  1  0  0  0  0
 24 26  1  0  0  0  0
 24 25  1  1  0  0  0
 27 31  1  0  0  0  0
 27 26  1  0  0  0  0
 28 30  2  0  0  0  0
 28 32  1  0  0  0  0
 29 31  2  0  0  0  0
 30 29  1  0  0  0  0
 32 27  2  0  0  0  0
 33 34  1  0  0  0  0
 33  1  1  0  0  0  0
 35 40  1  0  0  0  0
 35  5  1  0  0  0  0
 36 37  1  0  0  0  0
 37 43  1  0  0  0  0
 38 41  1  0  0  0  0
 39 36  2  0  0  0  0
 40 39  1  0  0  0  0
 40 38  2  0  0  0  0
 41 37  2  0  0  0  0
 42 43  1  0  0  0  0
M  END
>  <MODEL>
8

>  <REMARK>
 VINA RESULT:      -7.1      3.056      6.670
  Name = 
  13 active torsions:
  status: ('A' for Active; 'I' for Inactive)
    1  A    between atoms: S_1  and  C_34
    2  A    between atoms: S_1  and  C_35
    3  A    between atoms: C_2  and  N_6
    4  A    between atoms: C_2  and  C_27
    5  A    between atoms: C_3  and  C_4
    6  A    between atoms: C_3  and  C_12
    7  A    between atoms: C_4  and  C_15
    8  A    between atoms: C_4  and  C_22
    9  A    between atoms: N_8  and  C_33
   10  A    between atoms: C_11  and  C_14
   11  A    between atoms: C_14  and  C_22
   12  A    between atoms: C_19  and  O_37
   13  A    between atoms: C_21  and  C_30
                            x       y       z     vdW  Elec       q    Type
                         _______ _______ _______ _____ _____    ______ ____

>  <TORSDO>
F 13

$$$$
=
 OpenBabel10262422413D

 43 46  0  0  1  0  0  0  0  0999 V2000
  189.8730  177.6080  140.6330 N   0  0  0  0  0  0  0  0  0  0  0  0
  187.7590  178.5900  139.8680 C   0  0  0  0  0  3  0  0  0  0  0  0
  187.2040  178.2410  141.0380 C   0  0  0  0  0  0  0  0  0  0  0  0
  189.1110  178.0670  139.4670 C   0  0  2  0  0  3  0  0  0  0  0  0
  189.1720  177.1070  141.7860 C   0  0  0  0  0  0  0  0  0  0  0  0
  187.9230  177.4120  141.9620 N   0  0  0  0  0  0  0  0  0  0  0  0
  188.6290  174.9480  136.5800 C   0  0  0  0  0  0  0  0  0  0  0  0
  190.0360  176.1150  138.1460 C   0  0  0  0  0  3  0  0  0  0  0  0
  187.5950  175.7690  136.9090 N   0  0  0  0  0  0  0  0  0  0  0  0
  188.4530  173.9750  135.6550 F   0  0  0  0  0  0  0  0  0  0  0  0
  188.9630  176.9560  138.4690 C   0  0  0  0  0  0  0  0  0  0  0  0
  189.8710  175.1050  137.1980 C   0  0  0  0  0  3  0  0  0  0  0  0
  187.7350  176.7610  137.8310 C   0  0  0  0  0  3  0  0  0  0  0  0
  185.7900  178.6190  141.3570 C   0  0  1  0  0  3  0  0  0  0  0  0
  185.7140  179.4170  142.6470 C   0  0  0  0  0  1  0  0  0  0  0  0
  185.2120  179.3880  140.2630 N   0  0  0  0  0  2  0  0  0  0  0  0
  183.8130  179.3790  139.9690 C   0  0  0  0  0  0  0  0  0  0  0  0
  182.9970  178.8240  140.7530 O   0  0  0  0  0  0  0  0  0  0  0  0
  183.3180  179.9720  138.6980 C   0  0  0  0  0  2  0  0  0  0  0  0
  181.9090  179.4690  138.3990 C   0  0  2  0  0  3  0  0  0  0  0  0
  182.5620  177.2940  137.2790 C   0  0  0  0  0  1  0  0  0  0  0  0
  181.9330  178.6610  137.0900 C   0  0  0  0  0  3  0  0  0  0  0  0
  180.5700  178.5440  136.4250 C   0  0  0  0  0  1  0  0  0  0  0  0
  180.9000  180.6340  138.4320 C   0  0  1  0  0  3  0  0  0  0  0  0
  180.0250  180.5870  139.6770 C   0  0  0  0  0  1  0  0  0  0  0  0
  181.6420  181.9690  138.4010 C   0  0  0  0  0  2  0  0  0  0  0  0
  181.1970  182.8150  137.2560 C   0  0  0  0  0  0  0  0  0  0  0  0
  181.1080  184.9700  136.1530 C   0  0  0  0  0  3  0  0  0  0  0  0
  180.0040  183.0570  135.1600 C   0  0  0  0  0  3  0  0  0  0  0  0
  180.3430  184.4130  135.1230 C   0  0  0  0  0  3  0  0  0  0  0  0
  180.4300  182.2580  136.2250 C   0  0  0  0  0  3  0  0  0  0  0  0
  181.5330  184.1720  137.2190 C   0  0  0  0  0  3  0  0  0  0  0  0
  191.3220  177.5010  140.5180 C   0  0  0  0  0  2  0  0  0  0  0  0
  191.9790  177.8760  141.8330 C   0  0  0  0  0  1  0  0  0  0  0  0
  189.9690  176.0030  142.9540 S   0  0  0  0  0  0  0  0  0  0  0  0
  187.0590  177.3040  145.4880 C   0  0  0  0  0  3  0  0  0  0  0  0
  187.7870  177.8520  146.5490 C   0  0  0  0  0  0  0  0  0  0  0  0
  189.8540  177.3090  145.3920 C   0  0  0  0  0  3  0  0  0  0  0  0
  187.7220  176.7550  144.3860 C   0  0  0  0  0  3  0  0  0  0  0  0
  189.1200  176.7530  144.3400 C   0  0  0  0  0  0  0  0  0  0  0  0
  189.1910  177.8590  146.4930 C   0  0  0  0  0  3  0  0  0  0  0  0
  186.0540  179.3350  147.5060 C   0  0  0  0  0  1  0  0  0  0  0  0
  187.0960  178.3780  147.6440 O   0  0  0  0  0  0  0  0  0  0  0  0
  1  5  1  0  0  0  0
  2  3  2  0  0  0  0
  3 14  1  0  0  0  0
  3  6  1  0  0  0  0
  4 11  1  6  0  0  0
  4  2  1  0  0  0  0
  4  1  1  0  0  0  0
  5  6  2  0  0  0  0
  5 35  1  0  0  0  0
  7  9  2  0  0  0  0
  7 12  1  0  0  0  0
  8 11  1  0  0  0  0
  9 13  1  0  0  0  0
 10  7  1  0  0  0  0
 12  8  2  0  0  0  0
 13 11  2  0  0  0  0
 14 15  1  1  0  0  0
 16 14  1  0  0  0  0
 17 16  1  0  0  0  0
 17 18  2  0  0  0  0
 19 17  1  0  0  0  0
 20 24  1  0  0  0  0
 20 19  1  6  0  0  0
 22 21  1  0  0  0  0
 22 20  1  0  0  0  0
 23 22  1  0  0  0  0
 24 25  1  1  0  0  0
 26 24  1  0  0  0  0
 27 26  1  0  0  0  0
 28 32  2  0  0  0  0
 29 31  1  0  0  0  0
 30 29  2  0  0  0  0
 30 28  1  0  0  0  0
 31 27  2  0  0  0  0
 32 27  1  0  0  0  0
 33  1  1  0  0  0  0
 33 34  1  0  0  0  0
 35 40  1  0  0  0  0
 36 37  1  0  0  0  0
 37 43  1  0  0  0  0
 38 41  1  0  0  0  0
 39 36  2  0  0  0  0
 40 39  1  0  0  0  0
 40 38  2  0  0  0  0
 41 37  2  0  0  0  0
 42 43  1  0  0  0  0
M  END
>  <MODEL>
9

>  <REMARK>
 VINA RESULT:      -7.0      4.014      8.806
  Name = 
  13 active torsions:
  status: ('A' for Active; 'I' for Inactive)
    1  A    between atoms: S_1  and  C_34
    2  A    between atoms: S_1  and  C_35
    3  A    between atoms: C_2  and  N_6
    4  A    between atoms: C_2  and  C_27
    5  A    between atoms: C_3  and  C_4
    6  A    between atoms: C_3  and  C_12
    7  A    between atoms: C_4  and  C_15
    8  A    between atoms: C_4  and  C_22
    9  A    between atoms: N_8  and  C_33
   10  A    between atoms: C_11  and  C_14
   11  A    between atoms: C_14  and  C_22
   12  A    between atoms: C_19  and  O_37
   13  A    between atoms: C_21  and  C_30
                            x       y       z     vdW  Elec       q    Type
                         _______ _______ _______ _____ _____    ______ ____

>  <TORSDO>
F 13

$$$$
