=
 OpenBabel10262423123D

 34 38  0  0  1  0  0  0  0  0999 V2000
  191.0150  176.3430  138.9740 C   0  0  1  0  0  3  0  0  0  0  0  0
  191.9920  174.2460  135.7870 C   0  0  0  0  0  2  0  0  0  0  0  0
  190.1950  175.9180  136.2030 C   0  0  0  0  0  2  0  0  0  0  0  0
  191.8190  177.0650  139.8610 O   0  0  0  0  0  1  0  0  0  0  0  0
  189.2910  178.3120  138.7720 C   0  0  2  0  0  3  0  0  0  0  0  0
  188.3200  178.6440  137.6520 C   0  0  0  0  0  2  0  0  0  0  0  0
  189.3390  176.5240  137.2110 N   0  0  1  0  0  0  0  0  0  0  0  0
  190.1910  177.2870  138.1010 C   0  0  2  0  0  3  0  0  0  0  0  0
  188.5000  177.5450  136.6050 C   0  0  0  0  0  2  0  0  0  0  0  0
  193.3760  173.8920  136.3290 C   0  0  0  0  0  2  0  0  0  0  0  0
  194.0990  175.1300  136.8890 C   0  0  2  0  0  3  0  0  0  0  0  0
  191.0840  174.8560  136.8640 C   0  0  2  0  0  3  0  0  0  0  0  0
  193.1570  176.1250  137.5810 C   0  0  0  0  0  2  0  0  0  0  0  0
  191.8780  175.4380  138.0690 C   0  0  1  0  0  3  0  0  0  0  0  0
  188.4930  177.7170  139.9300 C   0  0  0  0  0  2  0  0  0  0  0  0
  188.5240  178.6290  141.1500 C   0  0  0  0  0  2  0  0  0  0  0  0
  190.7380  177.4940  142.5830 O   0  0  0  0  0  0  0  0  0  0  0  0
  187.0130  177.9160  144.4170 C   0  0  0  0  0  2  0  0  0  0  0  0
  190.4400  176.5000  146.7500 C   0  0  2  0  0  3  0  0  0  0  0  0
  190.6990  176.9890  145.3260 C   0  0  0  0  0  2  0  0  0  0  0  0
  189.4030  176.9490  144.5140 C   0  0  1  0  0  3  0  0  0  0  0  0
  188.4310  177.8550  142.3810 N   0  0  0  0  0  0  0  0  0  0  0  0
  188.0770  177.3350  146.6190 C   0  0  0  0  0  2  0  0  0  0  0  0
  188.3360  177.8210  145.1960 C   0  0  2  0  0  3  0  0  0  0  0  0
  189.3720  177.3600  147.4270 C   0  0  0  0  0  2  0  0  0  0  0  0
  187.1140  177.5450  142.9290 C   0  0  0  0  0  2  0  0  0  0  0  0
  189.5940  177.4480  143.1130 C   0  0  0  0  0  0  0  0  0  0  0  0
  191.7030  176.5290  147.5420 C   0  0  0  0  0  0  0  0  0  0  0  0
  191.8860  177.4410  148.3890 O   0  0  0  0  0  1  0  0  0  0  0  0
  192.6780  175.5570  147.3530 O   0  0  0  0  0  0  0  0  0  0  0  0
  194.8720  175.8530  135.7970 C   0  0  0  0  0  2  0  0  0  0  0  0
  196.3410  175.4610  135.8080 C   0  0  1  0  0  3  0  0  0  0  0  0
  197.1410  176.6010  135.8780 O   0  0  0  0  0  1  0  0  0  0  0  0
  196.6150  174.5870  137.0140 C   0  0  0  0  0  1  0  0  0  0  0  0
  1  4  1  1  0  0  0
  2 10  1  0  0  0  0
  2 12  1  0  0  0  0
  3 12  1  0  0  0  0
  5 15  1  1  0  0  0
  6  5  1  0  0  0  0
  7  3  1  6  0  0  0
  7  8  1  0  0  0  0
  8  5  1  0  0  0  0
  8  1  1  0  0  0  0
  9  7  1  0  0  0  0
  9  6  1  0  0  0  0
 10 11  1  0  0  0  0
 11 13  1  0  0  0  0
 12 14  1  0  0  0  0
 13 14  1  0  0  0  0
 14  1  1  0  0  0  0
 15 16  1  0  0  0  0
 16 22  1  0  0  0  0
 17 27  2  0  0  0  0
 18 24  1  0  0  0  0
 19 25  1  0  0  0  0
 19 28  1  0  0  0  0
 20 19  1  0  0  0  0
 21 24  1  0  0  0  0
 21 20  1  0  0  0  0
 22 26  1  0  0  0  0
 22 27  1  0  0  0  0
 23 25  1  0  0  0  0
 24 23  1  0  0  0  0
 26 18  1  0  0  0  0
 27 21  1  0  0  0  0
 28 29  1  0  0  0  0
 30 28  2  0  0  0  0
 31 32  1  0  0  0  0
 31 11  1  0  0  0  0
 32 33  1  0  0  0  0
 32 34  1  0  0  0  0
M  END
>  <MODEL>
1

>  <REMARK>
 VINA RESULT:      -9.3      0.000      0.000
  Name = 
  6 active torsions:
  status: ('A' for Active; 'I' for Inactive)
    1  A    between atoms: C_3  and  C_25
    2  A    between atoms: C_7  and  C_11
    3  A    between atoms: C_8  and  C_17
    4  A    between atoms: C_8  and  N_18
    5  A    between atoms: C_10  and  C_17
    6  A    between atoms: C_25  and  C_27
                            x       y       z     vdW  Elec       q    Type
                         _______ _______ _______ _____ _____    ______ ____

>  <TORSDO>
F 6

$$$$
=
 OpenBabel10262423123D

 34 38  0  0  1  0  0  0  0  0999 V2000
  183.1310  179.1010  139.6440 C   0  0  1  0  0  3  0  0  0  0  0  0
  179.6200  178.7690  137.8890 C   0  0  0  0  0  2  0  0  0  0  0  0
  180.3240  178.5910  140.2710 C   0  0  0  0  0  2  0  0  0  0  0  0
  184.1390  180.0540  139.4710 O   0  0  0  0  0  1  0  0  0  0  0  0
  183.2820  179.2610  142.2590 C   0  0  2  0  0  3  0  0  0  0  0  0
  182.2360  178.9480  143.3140 C   0  0  0  0  0  2  0  0  0  0  0  0
  181.4210  178.2670  141.1700 N   0  0  1  0  0  0  0  0  0  0  0  0
  182.4400  179.2830  140.9930 C   0  0  2  0  0  3  0  0  0  0  0  0
  181.0070  178.4560  142.5500 C   0  0  0  0  0  2  0  0  0  0  0  0
  180.0970  179.4380  136.6000 C   0  0  0  0  0  2  0  0  0  0  0  0
  180.8770  180.7330  136.8880 C   0  0  2  0  0  3  0  0  0  0  0  0
  180.7860  178.4020  138.8190 C   0  0  2  0  0  3  0  0  0  0  0  0
  181.7340  180.6590  138.1600 C   0  0  0  0  0  2  0  0  0  0  0  0
  182.0810  179.2100  138.5170 C   0  0  1  0  0  3  0  0  0  0  0  0
  184.3080  178.1300  142.2580 C   0  0  0  0  0  2  0  0  0  0  0  0
  185.6880  178.6330  142.6620 C   0  0  0  0  0  2  0  0  0  0  0  0
  188.1780  177.2670  143.0850 O   0  0  0  0  0  0  0  0  0  0  0  0
  185.8810  178.5500  146.3250 C   0  0  0  0  0  2  0  0  0  0  0  0
  189.8290  176.7810  147.0190 C   0  0  2  0  0  3  0  0  0  0  0  0
  189.4180  177.0640  145.5750 C   0  0  0  0  0  2  0  0  0  0  0  0
  187.8950  177.1780  145.4770 C   0  0  1  0  0  3  0  0  0  0  0  0
  186.1190  178.0200  143.9120 N   0  0  0  0  0  0  0  0  0  0  0  0
  187.8080  178.0160  147.8490 C   0  0  0  0  0  2  0  0  0  0  0  0
  187.3970  178.2960  146.4070 C   0  0  2  0  0  3  0  0  0  0  0  0
  189.3260  177.8880  147.9470 C   0  0  0  0  0  2  0  0  0  0  0  0
  185.2070  178.0140  145.0530 C   0  0  0  0  0  2  0  0  0  0  0  0
  187.4380  177.4860  144.0830 C   0  0  0  0  0  0  0  0  0  0  0  0
  191.3120  176.6620  147.1180 C   0  0  0  0  0  0  0  0  0  0  0  0
  191.9130  177.1610  148.1040 O   0  0  0  0  0  1  0  0  0  0  0  0
  192.0350  176.0030  146.1310 O   0  0  0  0  0  0  0  0  0  0  0  0
  179.9400  181.9270  136.9890 C   0  0  0  0  0  2  0  0  0  0  0  0
  180.3300  183.0190  136.0060 C   0  0  1  0  0  3  0  0  0  0  0  0
  181.3000  183.8470  136.5710 O   0  0  0  0  0  1  0  0  0  0  0  0
  180.8900  182.3840  134.7500 C   0  0  0  0  0  1  0  0  0  0  0  0
  1  4  1  6  0  0  0
  1  8  1  0  0  0  0
  2 12  1  0  0  0  0
  5 15  1  6  0  0  0
  5  6  1  0  0  0  0
  7  3  1  6  0  0  0
  7  9  1  0  0  0  0
  8  7  1  0  0  0  0
  8  5  1  0  0  0  0
  9  6  1  0  0  0  0
 10 11  1  0  0  0  0
 10  2  1  0  0  0  0
 11 31  1  0  0  0  0
 11 13  1  0  0  0  0
 12  3  1  0  0  0  0
 13 14  1  0  0  0  0
 14 12  1  0  0  0  0
 14  1  1  0  0  0  0
 15 16  1  0  0  0  0
 16 22  1  0  0  0  0
 17 27  2  0  0  0  0
 18 24  1  0  0  0  0
 19 28  1  0  0  0  0
 19 25  1  0  0  0  0
 20 19  1  0  0  0  0
 21 20  1  0  0  0  0
 21 24  1  0  0  0  0
 22 27  1  0  0  0  0
 22 26  1  0  0  0  0
 23 25  1  0  0  0  0
 24 23  1  0  0  0  0
 26 18  1  0  0  0  0
 27 21  1  0  0  0  0
 28 29  1  0  0  0  0
 30 28  2  0  0  0  0
 32 33  1  0  0  0  0
 32 31  1  0  0  0  0
 34 32  1  0  0  0  0
M  END
>  <MODEL>
2

>  <REMARK>
 VINA RESULT:      -9.3      6.519      9.191
  Name = 
  6 active torsions:
  status: ('A' for Active; 'I' for Inactive)
    1  A    between atoms: C_3  and  C_25
    2  A    between atoms: C_7  and  C_11
    3  A    between atoms: C_8  and  C_17
    4  A    between atoms: C_8  and  N_18
    5  A    between atoms: C_10  and  C_17
    6  A    between atoms: C_25  and  C_27
                            x       y       z     vdW  Elec       q    Type
                         _______ _______ _______ _____ _____    ______ ____

>  <TORSDO>
F 6

$$$$
=
 OpenBabel10262423123D

 34 38  0  0  1  0  0  0  0  0999 V2000
  183.5360  179.0380  139.9890 C   0  0  1  0  0  3  0  0  0  0  0  0
  179.7710  179.2560  138.8530 C   0  0  0  0  0  2  0  0  0  0  0  0
  180.8340  179.0860  141.0980 C   0  0  0  0  0  2  0  0  0  0  0  0
  184.6470  179.7800  139.5770 O   0  0  0  0  0  1  0  0  0  0  0  0
  184.1610  179.3150  142.5230 C   0  0  2  0  0  3  0  0  0  0  0  0
  183.2740  179.2580  143.7550 C   0  0  0  0  0  2  0  0  0  0  0  0
  181.9980  178.6180  141.8350 N   0  0  1  0  0  0  0  0  0  0  0  0
  183.1300  179.4180  141.4110 C   0  0  2  0  0  3  0  0  0  0  0  0
  181.8660  178.9570  143.2420 C   0  0  0  0  0  2  0  0  0  0  0  0
  180.1250  179.7520  137.4520 C   0  0  0  0  0  2  0  0  0  0  0  0
  181.1530  180.8970  137.4980 C   0  0  2  0  0  3  0  0  0  0  0  0
  180.9990  178.7350  139.6130 C   0  0  2  0  0  3  0  0  0  0  0  0
  182.1910  180.7390  138.6190 C   0  0  0  0  0  2  0  0  0  0  0  0
  182.3420  179.2730  139.0390 C   0  0  1  0  0  3  0  0  0  0  0  0
  184.9620  178.0160  142.4560 C   0  0  0  0  0  2  0  0  0  0  0  0
  185.5790  177.6750  143.8060 C   0  0  0  0  0  2  0  0  0  0  0  0
  187.3210  177.7920  146.0860 O   0  0  0  0  0  0  0  0  0  0  0  0
  188.8370  176.9300  142.2940 C   0  0  0  0  0  2  0  0  0  0  0  0
  191.4780  176.7580  145.7860 C   0  0  2  0  0  3  0  0  0  0  0  0
  189.9840  176.9650  146.0310 C   0  0  0  0  0  2  0  0  0  0  0  0
  189.3150  177.5030  144.7640 C   0  0  1  0  0  3  0  0  0  0  0  0
  187.0300  177.7930  143.7600 N   0  0  0  0  0  0  0  0  0  0  0  0
  191.0310  176.3140  143.3570 C   0  0  0  0  0  2  0  0  0  0  0  0
  189.5390  176.5220  143.6020 C   0  0  2  0  0  3  0  0  0  0  0  0
  191.7020  175.7890  144.6240 C   0  0  0  0  0  2  0  0  0  0  0  0
  187.6920  177.9390  142.4670 C   0  0  0  0  0  2  0  0  0  0  0  0
  187.8390  177.6970  144.9400 C   0  0  0  0  0  0  0  0  0  0  0  0
  192.1350  176.2400  147.0200 C   0  0  0  0  0  0  0  0  0  0  0  0
  192.6800  175.1060  147.0080 O   0  0  0  0  0  0  0  0  0  0  0  0
  192.1510  177.0000  148.1840 O   0  0  0  0  0  1  0  0  0  0  0  0
  180.4650  182.2460  137.6440 C   0  0  0  0  0  2  0  0  0  0  0  0
  181.1380  183.3030  136.7840 C   0  0  1  0  0  3  0  0  0  0  0  0
  180.8170  183.1030  135.4410 O   0  0  0  0  0  1  0  0  0  0  0  0
  180.6550  184.6750  137.2100 C   0  0  0  0  0  1  0  0  0  0  0  0
  1  4  1  6  0  0  0
  1  8  1  0  0  0  0
  2 12  1  0  0  0  0
  5 15  1  6  0  0  0
  5  6  1  0  0  0  0
  7  3  1  6  0  0  0
  7  9  1  0  0  0  0
  8  7  1  0  0  0  0
  8  5  1  0  0  0  0
  9  6  1  0  0  0  0
 10 11  1  0  0  0  0
 10  2  1  0  0  0  0
 11 31  1  0  0  0  0
 11 13  1  0  0  0  0
 12  3  1  0  0  0  0
 13 14  1  0  0  0  0
 14 12  1  0  0  0  0
 14  1  1  0  0  0  0
 15 16  1  0  0  0  0
 18 26  1  0  0  0  0
 18 24  1  0  0  0  0
 19 20  1  0  0  0  0
 19 28  1  0  0  0  0
 21 27  1  0  0  0  0
 21 20  1  0  0  0  0
 22 16  1  0  0  0  0
 22 27  1  0  0  0  0
 23 24  1  0  0  0  0
 23 25  1  0  0  0  0
 24 21  1  0  0  0  0
 25 19  1  0  0  0  0
 26 22  1  0  0  0  0
 27 17  2  0  0  0  0
 28 30  1  0  0  0  0
 29 28  2  0  0  0  0
 32 34  1  0  0  0  0
 32 31  1  0  0  0  0
 33 32  1  0  0  0  0
M  END
>  <MODEL>
3

>  <REMARK>
 VINA RESULT:      -9.1      5.532      9.238
  Name = 
  6 active torsions:
  status: ('A' for Active; 'I' for Inactive)
    1  A    between atoms: C_3  and  C_25
    2  A    between atoms: C_7  and  C_11
    3  A    between atoms: C_8  and  C_17
    4  A    between atoms: C_8  and  N_18
    5  A    between atoms: C_10  and  C_17
    6  A    between atoms: C_25  and  C_27
                            x       y       z     vdW  Elec       q    Type
                         _______ _______ _______ _____ _____    ______ ____

>  <TORSDO>
F 6

$$$$
=
 OpenBabel10262423123D

 34 38  0  0  1  0  0  0  0  0999 V2000
  190.8980  176.3380  138.9500 C   0  0  1  0  0  3  0  0  0  0  0  0
  192.0980  174.0450  135.9810 C   0  0  0  0  0  2  0  0  0  0  0  0
  190.2840  175.7420  136.1570 C   0  0  0  0  0  2  0  0  0  0  0  0
  191.6380  177.1130  139.8480 O   0  0  0  0  0  1  0  0  0  0  0  0
  189.2040  178.2920  138.4980 C   0  0  2  0  0  3  0  0  0  0  0  0
  188.3210  178.5530  137.2910 C   0  0  0  0  0  2  0  0  0  0  0  0
  189.3580  176.4100  137.0590 N   0  0  1  0  0  0  0  0  0  0  0  0
  190.1460  177.2270  137.9610 C   0  0  2  0  0  3  0  0  0  0  0  0
  188.5730  177.3910  136.3300 C   0  0  0  0  0  2  0  0  0  0  0  0
  193.4360  173.7250  136.6460 C   0  0  0  0  0  2  0  0  0  0  0  0
  194.1220  174.9950  137.1800 C   0  0  2  0  0  3  0  0  0  0  0  0
  191.1150  174.7220  136.9480 C   0  0  2  0  0  3  0  0  0  0  0  0
  193.1370  176.0320  137.7370 C   0  0  0  0  0  2  0  0  0  0  0  0
  191.8210  175.3780  138.1700 C   0  0  1  0  0  3  0  0  0  0  0  0
  188.3190  177.7710  139.6280 C   0  0  0  0  0  2  0  0  0  0  0  0
  188.1910  178.7950  140.7490 C   0  0  0  0  0  2  0  0  0  0  0  0
  189.5840  177.8250  143.0650 O   0  0  0  0  0  0  0  0  0  0  0  0
  185.4820  178.5790  143.2130 C   0  0  0  0  0  2  0  0  0  0  0  0
  187.6180  177.4300  146.8620 C   0  0  2  0  0  3  0  0  0  0  0  0
  188.4460  177.7090  145.6090 C   0  0  0  0  0  2  0  0  0  0  0  0
  187.5680  177.5840  144.3620 C   0  0  1  0  0  3  0  0  0  0  0  0
  187.5710  178.2030  141.9270 N   0  0  0  0  0  0  0  0  0  0  0  0
  185.5610  178.2880  145.7090 C   0  0  0  0  0  2  0  0  0  0  0  0
  186.3880  178.5650  144.4580 C   0  0  2  0  0  3  0  0  0  0  0  0
  186.4390  178.3990  146.9530 C   0  0  0  0  0  2  0  0  0  0  0  0
  186.1250  178.0000  141.9430 C   0  0  0  0  0  2  0  0  0  0  0  0
  188.3240  177.8770  143.1020 C   0  0  0  0  0  0  0  0  0  0  0  0
  188.4720  177.5430  148.0790 C   0  0  0  0  0  0  0  0  0  0  0  0
  187.9330  177.6630  149.2090 O   0  0  0  0  0  1  0  0  0  0  0  0
  189.8580  177.5160  147.9740 O   0  0  0  0  0  0  0  0  0  0  0  0
  194.9780  175.6480  136.1060 C   0  0  0  0  0  2  0  0  0  0  0  0
  196.4150  175.1580  136.1710 C   0  0  1  0  0  3  0  0  0  0  0  0
  197.2950  176.2350  136.0640 O   0  0  0  0  0  1  0  0  0  0  0  0
  196.6450  174.4590  137.4950 C   0  0  0  0  0  1  0  0  0  0  0  0
  1  4  1  1  0  0  0
  2 10  1  0  0  0  0
  2 12  1  0  0  0  0
  3 12  1  0  0  0  0
  5 15  1  1  0  0  0
  6  5  1  0  0  0  0
  7  3  1  6  0  0  0
  7  8  1  0  0  0  0
  8  5  1  0  0  0  0
  8  1  1  0  0  0  0
  9  7  1  0  0  0  0
  9  6  1  0  0  0  0
 10 11  1  0  0  0  0
 11 13  1  0  0  0  0
 12 14  1  0  0  0  0
 13 14  1  0  0  0  0
 14  1  1  0  0  0  0
 15 16  1  0  0  0  0
 16 22  1  0  0  0  0
 17 27  2  0  0  0  0
 18 24  1  0  0  0  0
 19 25  1  0  0  0  0
 19 28  1  0  0  0  0
 20 19  1  0  0  0  0
 21 24  1  0  0  0  0
 21 20  1  0  0  0  0
 22 26  1  0  0  0  0
 22 27  1  0  0  0  0
 23 25  1  0  0  0  0
 24 23  1  0  0  0  0
 26 18  1  0  0  0  0
 27 21  1  0  0  0  0
 28 29  1  0  0  0  0
 30 28  2  0  0  0  0
 31 32  1  0  0  0  0
 31 11  1  0  0  0  0
 32 34  1  0  0  0  0
 33 32  1  0  0  0  0
M  END
>  <MODEL>
4

>  <REMARK>
 VINA RESULT:      -9.0      1.257      1.667
  Name = 
  6 active torsions:
  status: ('A' for Active; 'I' for Inactive)
    1  A    between atoms: C_3  and  C_25
    2  A    between atoms: C_7  and  C_11
    3  A    between atoms: C_8  and  C_17
    4  A    between atoms: C_8  and  N_18
    5  A    between atoms: C_10  and  C_17
    6  A    between atoms: C_25  and  C_27
                            x       y       z     vdW  Elec       q    Type
                         _______ _______ _______ _____ _____    ______ ____

>  <TORSDO>
F 6

$$$$
=
 OpenBabel10262423123D

 34 38  0  0  1  0  0  0  0  0999 V2000
  181.4290  178.9720  140.9780 C   0  0  1  0  0  3  0  0  0  0  0  0
  180.9910  180.6950  137.4630 C   0  0  0  0  0  2  0  0  0  0  0  0
  183.0050  179.9380  138.7160 C   0  0  0  0  0  2  0  0  0  0  0  0
  180.7340  177.9030  141.5510 O   0  0  0  0  0  1  0  0  0  0  0  0
  183.7530  177.9690  141.6680 C   0  0  2  0  0  3  0  0  0  0  0  0
  185.1260  178.1840  141.0550 C   0  0  0  0  0  2  0  0  0  0  0  0
  183.5630  179.6810  140.0350 N   0  0  1  0  0  0  0  0  0  0  0  0
  182.8470  178.5540  140.5970 C   0  0  2  0  0  3  0  0  0  0  0  0
  184.9210  179.1790  139.9120 C   0  0  0  0  0  2  0  0  0  0  0  0
  179.5000  180.3680  137.3840 C   0  0  0  0  0  2  0  0  0  0  0  0
  179.2220  178.8970  137.7430 C   0  0  2  0  0  3  0  0  0  0  0  0
  181.5660  180.4520  138.8660 C   0  0  2  0  0  3  0  0  0  0  0  0
  180.1420  178.3550  138.8460 C   0  0  0  0  0  2  0  0  0  0  0  0
  180.6950  179.4860  139.7200 C   0  0  1  0  0  3  0  0  0  0  0  0
  183.6910  178.7530  142.9770 C   0  0  0  0  0  2  0  0  0  0  0  0
  185.0640  179.2800  143.3730 C   0  0  0  0  0  2  0  0  0  0  0  0
  187.5430  177.8310  143.3530 O   0  0  0  0  0  0  0  0  0  0  0  0
  185.6590  178.7700  146.9570 C   0  0  0  0  0  2  0  0  0  0  0  0
  189.6030  176.8630  146.9940 C   0  0  2  0  0  3  0  0  0  0  0  0
  189.0440  177.3180  145.6480 C   0  0  0  0  0  2  0  0  0  0  0  0
  187.5240  177.4700  145.7360 C   0  0  1  0  0  3  0  0  0  0  0  0
  185.6120  178.5190  144.4890 N   0  0  0  0  0  0  0  0  0  0  0  0
  187.7250  178.0280  148.1830 C   0  0  0  0  0  2  0  0  0  0  0  0
  187.1660  178.4810  146.8380 C   0  0  2  0  0  3  0  0  0  0  0  0
  189.2400  177.8630  148.0930 C   0  0  0  0  0  2  0  0  0  0  0  0
  184.8320  178.3970  145.7170 C   0  0  0  0  0  2  0  0  0  0  0  0
  186.9240  177.9450  144.4470 C   0  0  0  0  0  0  0  0  0  0  0  0
  191.0830  176.7060  146.9110 C   0  0  0  0  0  0  0  0  0  0  0  0
  191.6150  176.3820  145.8180 O   0  0  0  0  0  0  0  0  0  0  0  0
  191.8800  176.9150  148.0300 O   0  0  0  0  0  1  0  0  0  0  0  0
  179.3340  178.0030  136.5180 C   0  0  0  0  0  2  0  0  0  0  0  0
  180.5630  177.1120  136.5960 C   0  0  1  0  0  3  0  0  0  0  0  0
  180.2050  175.7820  136.3760 O   0  0  0  0  0  1  0  0  0  0  0  0
  181.5580  177.5400  135.5380 C   0  0  0  0  0  1  0  0  0  0  0  0
  1  4  1  6  0  0  0
  2 12  1  0  0  0  0
  3 12  1  0  0  0  0
  5 15  1  1  0  0  0
  6  5  1  0  0  0  0
  7  3  1  6  0  0  0
  7  8  1  0  0  0  0
  8  1  1  0  0  0  0
  8  5  1  0  0  0  0
  9  7  1  0  0  0  0
  9  6  1  0  0  0  0
 10  2  1  0  0  0  0
 10 11  1  0  0  0  0
 11 13  1  0  0  0  0
 12 14  1  0  0  0  0
 13 14  1  0  0  0  0
 14  1  1  0  0  0  0
 15 16  1  0  0  0  0
 16 22  1  0  0  0  0
 17 27  2  0  0  0  0
 19 25  1  0  0  0  0
 20 21  1  0  0  0  0
 20 19  1  0  0  0  0
 21 24  1  0  0  0  0
 22 26  1  0  0  0  0
 24 18  1  0  0  0  0
 24 23  1  0  0  0  0
 25 23  1  0  0  0  0
 26 18  1  0  0  0  0
 27 22  1  0  0  0  0
 27 21  1  0  0  0  0
 28 19  1  0  0  0  0
 28 30  1  0  0  0  0
 29 28  2  0  0  0  0
 31 32  1  0  0  0  0
 31 11  1  0  0  0  0
 33 32  1  0  0  0  0
 34 32  1  0  0  0  0
M  END
>  <MODEL>
5

>  <REMARK>
 VINA RESULT:      -8.8      6.418      8.988
  Name = 
  6 active torsions:
  status: ('A' for Active; 'I' for Inactive)
    1  A    between atoms: C_3  and  C_25
    2  A    between atoms: C_7  and  C_11
    3  A    between atoms: C_8  and  C_17
    4  A    between atoms: C_8  and  N_18
    5  A    between atoms: C_10  and  C_17
    6  A    between atoms: C_25  and  C_27
                            x       y       z     vdW  Elec       q    Type
                         _______ _______ _______ _____ _____    ______ ____

>  <TORSDO>
F 6

$$$$
=
 OpenBabel10262423123D

 34 38  0  0  1  0  0  0  0  0999 V2000
  191.3090  175.7540  138.0250 C   0  0  1  0  0  3  0  0  0  0  0  0
  193.0550  173.2980  135.4890 C   0  0  0  0  0  2  0  0  0  0  0  0
  191.0060  174.7010  135.3170 C   0  0  0  0  0  2  0  0  0  0  0  0
  191.8570  176.7470  138.8420 O   0  0  0  0  0  1  0  0  0  0  0  0
  189.3900  177.3440  137.2020 C   0  0  2  0  0  3  0  0  0  0  0  0
  188.5740  177.3020  135.9210 C   0  0  0  0  0  2  0  0  0  0  0  0
  189.9260  175.3340  136.0600 N   0  0  1  0  0  0  0  0  0  0  0  0
  190.5150  176.3750  136.8770 C   0  0  2  0  0  3  0  0  0  0  0  0
  189.0650  176.0750  135.1540 C   0  0  0  0  0  2  0  0  0  0  0  0
  194.3700  173.2800  136.2680 C   0  0  0  0  0  2  0  0  0  0  0  0
  194.8220  174.7010  136.6510 C   0  0  2  0  0  3  0  0  0  0  0  0
  191.9130  173.9380  136.2920 C   0  0  2  0  0  3  0  0  0  0  0  0
  193.6560  175.6390  136.9960 C   0  0  0  0  0  2  0  0  0  0  0  0
  192.4190  174.8520  137.4440 C   0  0  1  0  0  3  0  0  0  0  0  0
  188.5050  176.8490  138.3440 C   0  0  0  0  0  2  0  0  0  0  0  0
  187.5780  177.9500  138.8440 C   0  0  0  0  0  2  0  0  0  0  0  0
  185.6770  179.1570  140.6250 O   0  0  0  0  0  0  0  0  0  0  0  0
  188.9350  177.0220  142.1250 C   0  0  0  0  0  2  0  0  0  0  0  0
  185.8820  178.5490  144.8710 C   0  0  2  0  0  3  0  0  0  0  0  0
  185.6190  178.6730  143.3720 C   0  0  0  0  0  2  0  0  0  0  0  0
  186.9360  178.5840  142.5990 C   0  0  1  0  0  3  0  0  0  0  0  0
  187.7840  178.1970  140.2660 N   0  0  0  0  0  0  0  0  0  0  0  0
  187.8970  177.1250  144.4120 C   0  0  0  0  0  2  0  0  0  0  0  0
  187.6340  177.2510  142.9150 C   0  0  2  0  0  3  0  0  0  0  0  0
  186.5850  177.2280  145.1860 C   0  0  0  0  0  2  0  0  0  0  0  0
  189.0810  177.8850  140.8610 C   0  0  0  0  0  2  0  0  0  0  0  0
  186.7320  178.6690  141.1160 C   0  0  0  0  0  0  0  0  0  0  0  0
  184.6020  178.6440  145.6290 C   0  0  0  0  0  0  0  0  0  0  0  0
  183.5690  179.0750  145.0560 O   0  0  0  0  0  0  0  0  0  0  0  0
  184.5410  178.2590  146.9630 O   0  0  0  0  0  1  0  0  0  0  0  0
  195.6540  175.3290  135.5440 C   0  0  0  0  0  2  0  0  0  0  0  0
  197.0770  175.5960  136.0070 C   0  0  1  0  0  3  0  0  0  0  0  0
  197.2130  175.2560  137.3530 O   0  0  0  0  0  1  0  0  0  0  0  0
  198.0350  174.7600  135.1840 C   0  0  0  0  0  1  0  0  0  0  0  0
  1  4  1  6  0  0  0
  2 10  1  0  0  0  0
  2 12  1  0  0  0  0
  3  7  1  0  0  0  0
  3 12  1  0  0  0  0
  5 15  1  1  0  0  0
  6  5  1  0  0  0  0
  7  9  1  6  0  0  0
  7  8  1  0  0  0  0
  8  5  1  0  0  0  0
  8  1  1  0  0  0  0
  9  6  1  0  0  0  0
 10 11  1  0  0  0  0
 11 13  1  0  0  0  0
 12 14  1  0  0  0  0
 13 14  1  0  0  0  0
 14  1  1  0  0  0  0
 15 16  1  0  0  0  0
 16 22  1  0  0  0  0
 17 27  2  0  0  0  0
 18 24  1  0  0  0  0
 19 25  1  0  0  0  0
 19 28  1  0  0  0  0
 20 19  1  0  0  0  0
 21 24  1  0  0  0  0
 21 20  1  0  0  0  0
 22 26  1  0  0  0  0
 22 27  1  0  0  0  0
 23 25  1  0  0  0  0
 24 23  1  0  0  0  0
 26 18  1  0  0  0  0
 27 21  1  0  0  0  0
 28 30  1  0  0  0  0
 29 28  2  0  0  0  0
 31 32  1  0  0  0  0
 31 11  1  0  0  0  0
 32 33  1  0  0  0  0
 34 32  1  0  0  0  0
M  END
>  <MODEL>
6

>  <REMARK>
 VINA RESULT:      -8.5      2.700      3.572
  Name = 
  6 active torsions:
  status: ('A' for Active; 'I' for Inactive)
    1  A    between atoms: C_3  and  C_25
    2  A    between atoms: C_7  and  C_11
    3  A    between atoms: C_8  and  C_17
    4  A    between atoms: C_8  and  N_18
    5  A    between atoms: C_10  and  C_17
    6  A    between atoms: C_25  and  C_27
                            x       y       z     vdW  Elec       q    Type
                         _______ _______ _______ _____ _____    ______ ____

>  <TORSDO>
F 6

$$$$
=
 OpenBabel10262423123D

 34 38  0  0  1  0  0  0  0  0999 V2000
  182.0470  179.1830  139.0520 C   0  0  1  0  0  3  0  0  0  0  0  0
  179.4740  178.1140  136.2690 C   0  0  0  0  0  2  0  0  0  0  0  0
  179.3360  178.1360  138.7540 C   0  0  0  0  0  2  0  0  0  0  0  0
  182.8630  180.3150  139.1390 O   0  0  0  0  0  1  0  0  0  0  0  0
  181.2590  179.4320  141.5430 C   0  0  2  0  0  3  0  0  0  0  0  0
  179.9890  178.9400  142.2150 C   0  0  0  0  0  2  0  0  0  0  0  0
  180.0970  178.0600  139.9930 N   0  0  1  0  0  0  0  0  0  0  0  0
  180.9140  179.2540  140.0730 C   0  0  2  0  0  3  0  0  0  0  0  0
  179.2070  178.1940  141.1340 C   0  0  0  0  0  2  0  0  0  0  0  0
  180.2350  178.8340  135.1560 C   0  0  0  0  0  2  0  0  0  0  0  0
  180.6220  180.2660  135.5690 C   0  0  2  0  0  3  0  0  0  0  0  0
  180.2950  178.0100  137.5620 C   0  0  2  0  0  3  0  0  0  0  0  0
  180.9880  180.3940  137.0540 C   0  0  0  0  0  2  0  0  0  0  0  0
  181.4470  179.0530  137.6360 C   0  0  1  0  0  3  0  0  0  0  0  0
  182.4090  178.5290  141.9850 C   0  0  0  0  0  2  0  0  0  0  0  0
  182.7220  178.7150  143.4640 C   0  0  0  0  0  2  0  0  0  0  0  0
  184.0410  178.8080  146.0130 O   0  0  0  0  0  0  0  0  0  0  0  0
  186.2260  178.1950  142.5100 C   0  0  0  0  0  2  0  0  0  0  0  0
  188.2380  177.9860  146.3970 C   0  0  2  0  0  3  0  0  0  0  0  0
  186.7160  178.1110  146.3870 C   0  0  0  0  0  2  0  0  0  0  0  0
  186.2440  178.6750  145.0460 C   0  0  1  0  0  3  0  0  0  0  0  0
  184.1510  178.9030  143.6740 N   0  0  0  0  0  0  0  0  0  0  0  0
  188.2370  177.6350  143.9120 C   0  0  0  0  0  2  0  0  0  0  0  0
  186.7160  177.7610  143.9030 C   0  0  2  0  0  3  0  0  0  0  0  0
  188.7100  177.0850  145.2550 C   0  0  0  0  0  2  0  0  0  0  0  0
  185.0140  179.1400  142.5200 C   0  0  0  0  0  2  0  0  0  0  0  0
  184.7520  178.7910  144.9710 C   0  0  0  0  0  0  0  0  0  0  0  0
  188.7030  177.4440  147.7050 C   0  0  0  0  0  0  0  0  0  0  0  0
  189.6180  176.5820  147.7330 O   0  0  0  0  0  0  0  0  0  0  0  0
  188.1330  177.8840  148.8940 O   0  0  0  0  0  1  0  0  0  0  0  0
  179.5090  181.2500  135.2440 C   0  0  0  0  0  2  0  0  0  0  0  0
  179.9660  182.6850  135.4420 C   0  0  1  0  0  3  0  0  0  0  0  0
  181.1860  182.8930  134.7970 O   0  0  0  0  0  1  0  0  0  0  0  0
  178.9310  183.6250  134.8590 C   0  0  0  0  0  1  0  0  0  0  0  0
  1  4  1  6  0  0  0
  1  8  1  0  0  0  0
  2 12  1  0  0  0  0
  5 15  1  1  0  0  0
  5  6  1  0  0  0  0
  7  3  1  6  0  0  0
  7  8  1  0  0  0  0
  7  9  1  0  0  0  0
  8  5  1  0  0  0  0
  9  6  1  0  0  0  0
 10 11  1  0  0  0  0
 10  2  1  0  0  0  0
 11 13  1  0  0  0  0
 12 14  1  0  0  0  0
 12  3  1  0  0  0  0
 13 14  1  0  0  0  0
 14  1  1  0  0  0  0
 15 16  1  0  0  0  0
 16 22  1  0  0  0  0
 18 26  1  0  0  0  0
 18 24  1  0  0  0  0
 19 28  1  0  0  0  0
 20 19  1  0  0  0  0
 21 20  1  0  0  0  0
 22 27  1  0  0  0  0
 23 25  1  0  0  0  0
 24 23  1  0  0  0  0
 24 21  1  0  0  0  0
 25 19  1  0  0  0  0
 26 22  1  0  0  0  0
 27 21  1  0  0  0  0
 27 17  2  0  0  0  0
 28 29  2  0  0  0  0
 28 30  1  0  0  0  0
 31 32  1  0  0  0  0
 31 11  1  0  0  0  0
 33 32  1  0  0  0  0
 34 32  1  0  0  0  0
M  END
>  <MODEL>
7

>  <REMARK>
 VINA RESULT:      -8.2      6.675      9.921
  Name = 
  6 active torsions:
  status: ('A' for Active; 'I' for Inactive)
    1  A    between atoms: C_3  and  C_25
    2  A    between atoms: C_7  and  C_11
    3  A    between atoms: C_8  and  C_17
    4  A    between atoms: C_8  and  N_18
    5  A    between atoms: C_10  and  C_17
    6  A    between atoms: C_25  and  C_27
                            x       y       z     vdW  Elec       q    Type
                         _______ _______ _______ _____ _____    ______ ____

>  <TORSDO>
F 6

$$$$
=
 OpenBabel10262423123D

 34 38  0  0  1  0  0  0  0  0999 V2000
  184.3700  178.3080  139.2840 C   0  0  1  0  0  3  0  0  0  0  0  0
  180.4710  177.7480  139.2880 C   0  0  0  0  0  2  0  0  0  0  0  0
  182.0890  178.2680  141.1080 C   0  0  0  0  0  2  0  0  0  0  0  0
  185.1710  179.0680  138.4270 O   0  0  0  0  0  1  0  0  0  0  0  0
  185.5600  179.2690  141.4170 C   0  0  2  0  0  3  0  0  0  0  0  0
  185.0500  179.3960  142.8410 C   0  0  0  0  0  2  0  0  0  0  0  0
  183.4710  178.1490  141.5460 N   0  0  1  0  0  0  0  0  0  0  0  0
  184.2780  178.9650  140.6600 C   0  0  2  0  0  3  0  0  0  0  0  0
  183.6440  178.7970  142.8350 C   0  0  0  0  0  2  0  0  0  0  0  0
  180.3490  177.9340  137.7760 C   0  0  0  0  0  2  0  0  0  0  0  0
  181.1120  179.1800  137.2940 C   0  0  2  0  0  3  0  0  0  0  0  0
  181.9310  177.5930  139.7390 C   0  0  2  0  0  3  0  0  0  0  0  0
  182.4130  179.4360  138.0670 C   0  0  0  0  0  2  0  0  0  0  0  0
  182.9490  178.1480  138.7020 C   0  0  1  0  0  3  0  0  0  0  0  0
  186.5540  178.1100  141.3710 C   0  0  0  0  0  2  0  0  0  0  0  0
  187.8450  178.4570  142.1010 C   0  0  0  0  0  2  0  0  0  0  0  0
  190.3340  177.5020  143.1680 O   0  0  0  0  0  0  0  0  0  0  0  0
  186.8820  177.5180  145.5140 C   0  0  0  0  0  2  0  0  0  0  0  0
  190.7200  176.3760  147.2930 C   0  0  2  0  0  3  0  0  0  0  0  0
  190.7290  176.9240  145.8680 C   0  0  0  0  0  2  0  0  0  0  0  0
  189.3400  176.7820  145.2410 C   0  0  1  0  0  3  0  0  0  0  0  0
  187.9980  177.6460  143.3010 N   0  0  0  0  0  0  0  0  0  0  0  0
  188.2950  176.9840  147.5230 C   0  0  0  0  0  2  0  0  0  0  0  0
  188.3060  177.5290  146.0990 C   0  0  2  0  0  3  0  0  0  0  0  0
  189.6840  177.1120  148.1450 C   0  0  0  0  0  2  0  0  0  0  0  0
  186.8060  177.1970  144.0130 C   0  0  0  0  0  2  0  0  0  0  0  0
  189.2850  177.3330  143.8490 C   0  0  0  0  0  0  0  0  0  0  0  0
  192.0730  176.5050  147.9040 C   0  0  0  0  0  0  0  0  0  0  0  0
  192.9530  175.6400  147.6590 O   0  0  0  0  0  0  0  0  0  0  0  0
  192.3710  177.5730  148.7420 O   0  0  0  0  0  1  0  0  0  0  0  0
  180.2360  180.4220  137.3700 C   0  0  0  0  0  2  0  0  0  0  0  0
  180.7910  181.4270  138.3670 C   0  0  1  0  0  3  0  0  0  0  0  0
  181.1270  182.6130  137.7130 O   0  0  0  0  0  1  0  0  0  0  0  0
  179.7400  181.7200  139.4170 C   0  0  0  0  0  1  0  0  0  0  0  0
  1  4  1  6  0  0  0
  1  8  1  0  0  0  0
  2 12  1  0  0  0  0
  5 15  1  1  0  0  0
  5  6  1  0  0  0  0
  7  3  1  6  0  0  0
  7  9  1  0  0  0  0
  8  5  1  0  0  0  0
  8  7  1  0  0  0  0
  9  6  1  0  0  0  0
 10  2  1  0  0  0  0
 11 31  1  0  0  0  0
 11 10  1  0  0  0  0
 11 13  1  0  0  0  0
 12  3  1  0  0  0  0
 13 14  1  0  0  0  0
 14  1  1  0  0  0  0
 14 12  1  0  0  0  0
 15 16  1  0  0  0  0
 16 22  1  0  0  0  0
 17 27  2  0  0  0  0
 18 24  1  0  0  0  0
 19 28  1  0  0  0  0
 19 25  1  0  0  0  0
 20 19  1  0  0  0  0
 21 20  1  0  0  0  0
 21 24  1  0  0  0  0
 22 27  1  0  0  0  0
 22 26  1  0  0  0  0
 23 25  1  0  0  0  0
 24 23  1  0  0  0  0
 26 18  1  0  0  0  0
 27 21  1  0  0  0  0
 28 30  1  0  0  0  0
 29 28  2  0  0  0  0
 31 32  1  0  0  0  0
 32 34  1  0  0  0  0
 33 32  1  0  0  0  0
M  END
>  <MODEL>
8

>  <REMARK>
 VINA RESULT:      -8.1      5.479      8.486
  Name = 
  6 active torsions:
  status: ('A' for Active; 'I' for Inactive)
    1  A    between atoms: C_3  and  C_25
    2  A    between atoms: C_7  and  C_11
    3  A    between atoms: C_8  and  C_17
    4  A    between atoms: C_8  and  N_18
    5  A    between atoms: C_10  and  C_17
    6  A    between atoms: C_25  and  C_27
                            x       y       z     vdW  Elec       q    Type
                         _______ _______ _______ _____ _____    ______ ____

>  <TORSDO>
F 6

$$$$
=
 OpenBabel10262423123D

 34 38  0  0  1  0  0  0  0  0999 V2000
  183.0020  176.1060  139.2290 C   0  0  1  0  0  3  0  0  0  0  0  0
  179.2400  175.2780  140.0490 C   0  0  0  0  0  2  0  0  0  0  0  0
  180.5190  177.4130  140.0420 C   0  0  0  0  0  2  0  0  0  0  0  0
  183.8090  175.6790  138.1700 O   0  0  0  0  0  1  0  0  0  0  0  0
  183.7640  178.6010  138.9420 C   0  0  2  0  0  3  0  0  0  0  0  0
  183.0550  179.8850  139.3330 C   0  0  0  0  0  2  0  0  0  0  0  0
  181.8340  178.0170  140.1950 N   0  0  1  0  0  0  0  0  0  0  0  0
  182.6430  177.5830  139.0740 C   0  0  2  0  0  3  0  0  0  0  0  0
  181.7480  179.4550  139.9990 C   0  0  0  0  0  2  0  0  0  0  0  0
  179.3000  173.9030  139.3840 C   0  0  0  0  0  2  0  0  0  0  0  0
  179.9570  173.9740  137.9940 C   0  0  2  0  0  3  0  0  0  0  0  0
  180.6330  175.8950  140.2360 C   0  0  2  0  0  3  0  0  0  0  0  0
  181.1000  174.9960  137.9120 C   0  0  0  0  0  2  0  0  0  0  0  0
  181.7040  175.2730  139.2930 C   0  0  1  0  0  3  0  0  0  0  0  0
  184.8920  178.3600  139.9420 C   0  0  0  0  0  2  0  0  0  0  0  0
  184.8460  179.3680  141.0830 C   0  0  0  0  0  2  0  0  0  0  0  0
  187.1690  178.2320  142.3310 O   0  0  0  0  0  0  0  0  0  0  0  0
  183.7160  178.9790  144.5520 C   0  0  0  0  0  2  0  0  0  0  0  0
  187.3400  177.5680  146.5700 C   0  0  2  0  0  3  0  0  0  0  0  0
  187.4440  177.9350  145.0910 C   0  0  0  0  0  2  0  0  0  0  0  0
  186.0580  177.9010  144.4430 C   0  0  1  0  0  3  0  0  0  0  0  0
  184.8720  178.6930  142.3750 N   0  0  0  0  0  0  0  0  0  0  0  0
  185.0160  178.5100  146.6530 C   0  0  0  0  0  2  0  0  0  0  0  0
  185.1200  178.8750  145.1750 C   0  0  2  0  0  3  0  0  0  0  0  0
  186.4000  178.5300  147.2970 C   0  0  0  0  0  2  0  0  0  0  0  0
  183.6200  178.4920  143.0980 C   0  0  0  0  0  2  0  0  0  0  0  0
  186.0980  178.2840  142.9950 C   0  0  0  0  0  0  0  0  0  0  0  0
  188.6900  177.5920  147.2030 C   0  0  0  0  0  0  0  0  0  0  0  0
  189.6780  177.1250  146.5810 O   0  0  0  0  0  0  0  0  0  0  0  0
  188.8650  178.1270  148.4740 O   0  0  0  0  0  1  0  0  0  0  0  0
  178.9310  174.2900  136.9170 C   0  0  0  0  0  2  0  0  0  0  0  0
  179.1030  173.3830  135.7090 C   0  0  1  0  0  3  0  0  0  0  0  0
  179.9200  173.9990  134.7610 O   0  0  0  0  0  1  0  0  0  0  0  0
  179.7430  172.0830  136.1470 C   0  0  0  0  0  1  0  0  0  0  0  0
  1  4  1  6  0  0  0
  1 14  1  0  0  0  0
  2 12  1  0  0  0  0
  3  7  1  0  0  0  0
  3 12  1  0  0  0  0
  5  8  1  0  0  0  0
  5  6  1  0  0  0  0
  5 15  1  1  0  0  0
  6  9  1  0  0  0  0
  7  9  1  6  0  0  0
  8  1  1  0  0  0  0
  8  7  1  0  0  0  0
 10  2  1  0  0  0  0
 11 10  1  0  0  0  0
 13 11  1  0  0  0  0
 13 14  1  0  0  0  0
 14 12  1  0  0  0  0
 15 16  1  0  0  0  0
 16 22  1  0  0  0  0
 17 27  2  0  0  0  0
 18 24  1  0  0  0  0
 19 28  1  0  0  0  0
 19 25  1  0  0  0  0
 20 19  1  0  0  0  0
 21 20  1  0  0  0  0
 21 24  1  0  0  0  0
 22 27  1  0  0  0  0
 22 26  1  0  0  0  0
 23 25  1  0  0  0  0
 24 23  1  0  0  0  0
 26 18  1  0  0  0  0
 27 21  1  0  0  0  0
 28 30  1  0  0  0  0
 29 28  2  0  0  0  0
 31 11  1  0  0  0  0
 32 34  1  0  0  0  0
 32 31  1  0  0  0  0
 33 32  1  0  0  0  0
M  END
>  <MODEL>
9

>  <REMARK>
 VINA RESULT:      -7.9      6.540      9.097
  Name = 
  6 active torsions:
  status: ('A' for Active; 'I' for Inactive)
    1  A    between atoms: C_3  and  C_25
    2  A    between atoms: C_7  and  C_11
    3  A    between atoms: C_8  and  C_17
    4  A    between atoms: C_8  and  N_18
    5  A    between atoms: C_10  and  C_17
    6  A    between atoms: C_25  and  C_27
                            x       y       z     vdW  Elec       q    Type
                         _______ _______ _______ _____ _____    ______ ____

>  <TORSDO>
F 6

$$$$
