=
 OpenBabel10262423003D

 37 36  0  0  1  0  0  0  0  0999 V2000
  188.1290  177.9530  143.7800 N   0  0  0  0  0  0  0  0  0  0  0  0
  189.3290  178.0960  142.9330 C   0  0  1  0  0  3  0  0  0  0  0  0
  191.1280  179.3720  143.8770 O   0  0  0  0  0  1  0  0  0  0  0  0
  190.6710  178.0700  143.6770 C   0  0  0  0  0  2  0  0  0  0  0  0
  189.3420  177.0350  141.8260 C   0  0  0  0  0  2  0  0  0  0  0  0
  190.1040  177.4440  140.5940 C   0  0  0  0  0  0  0  0  0  0  0  0
  191.3210  177.3470  140.5500 O   0  0  0  0  0  0  0  0  0  0  0  0
  189.3670  178.0710  139.4510 C   0  0  0  0  0  2  0  0  0  0  0  0
  188.9800  177.0480  138.3910 C   0  0  1  0  0  3  0  0  0  0  0  0
  187.7880  177.5770  137.6140 C   0  0  0  0  0  2  0  0  0  0  0  0
  186.8270  176.5750  137.4790 O   0  0  0  0  0  1  0  0  0  0  0  0
  190.0470  176.8120  137.5200 O   0  0  0  0  0  0  0  0  0  0  0  0
  190.2300  175.4280  137.5550 C   0  0  0  0  0  2  0  0  0  0  0  0
  191.6840  175.1070  137.8380 C   0  0  0  0  0  2  0  0  0  0  0  0
  191.1410  173.3540  136.1790 C   0  0  0  0  0  1  0  0  0  0  0  0
  192.2320  174.2610  136.7100 C   0  0  0  0  0  2  0  0  0  0  0  0
  188.5270  177.1260  144.9140 C   0  0  0  0  0  2  0  0  0  0  0  0
  187.1150  177.2840  146.8300 O   0  0  0  0  0  1  0  0  0  0  0  0
  188.2420  177.8430  146.2250 C   0  0  1  0  0  3  0  0  0  0  0  0
  189.8000  176.4200  147.3750 O   0  0  0  0  0  1  0  0  0  0  0  0
  189.4350  177.7500  147.1660 C   0  0  0  0  0  2  0  0  0  0  0  0
  187.0560  177.2160  143.1130 C   0  0  0  0  0  2  0  0  0  0  0  0
  185.8430  178.1170  142.9400 C   0  0  1  0  0  3  0  0  0  0  0  0
  185.3620  178.7060  144.2710 C   0  0  0  0  0  2  0  0  0  0  0  0
  184.0500  179.4790  144.1660 C   0  0  0  0  0  2  0  0  0  0  0  0
  183.0180  178.6790  143.3940 C   0  0  0  0  0  2  0  0  0  0  0  0
  181.6400  178.8280  144.0260 C   0  0  0  0  0  2  0  0  0  0  0  0
  180.5790  179.1440  142.9800 C   0  0  0  0  0  2  0  0  0  0  0  0
  181.1580  179.0240  141.5790 C   0  0  0  0  0  2  0  0  0  0  0  0
  180.3740  179.8950  140.6160 C   0  0  0  0  0  2  0  0  0  0  0  0
  179.6870  179.0990  139.6970 O   0  0  0  0  0  1  0  0  0  0  0  0
  186.1130  179.1840  141.8880 C   0  0  0  0  0  2  0  0  0  0  0  0
  185.9100  178.6340  140.4790 C   0  0  0  0  0  2  0  0  0  0  0  0
  184.5190  180.1670  139.2580 O   0  0  0  0  0  1  0  0  0  0  0  0
  184.5190  178.9400  139.9260 C   0  0  1  0  0  3  0  0  0  0  0  0
  184.0930  177.9250  139.0640 O   0  0  0  0  0  0  0  0  0  0  0  0
  183.0340  178.4840  138.3490 C   0  0  0  0  0  1  0  0  0  0  0  0
  1 17  1  0  0  0  0
  2  5  1  6  0  0  0
  2  4  1  0  0  0  0
  2  1  1  0  0  0  0
  4  3  1  0  0  0  0
  6  5  1  0  0  0  0
  7  6  2  0  0  0  0
  8  6  1  0  0  0  0
  9 10  1  6  0  0  0
  9  8  1  0  0  0  0
 11 10  1  0  0  0  0
 12 13  1  0  0  0  0
 12  9  1  0  0  0  0
 13 14  1  0  0  0  0
 15 16  1  0  0  0  0
 16 14  1  0  0  0  0
 17 19  1  0  0  0  0
 19 18  1  1  0  0  0
 19 21  1  0  0  0  0
 21 20  1  0  0  0  0
 22  1  1  0  0  0  0
 23 32  1  6  0  0  0
 23 22  1  0  0  0  0
 23 24  1  0  0  0  0
 25 24  1  0  0  0  0
 26 27  1  0  0  0  0
 26 25  1  0  0  0  0
 28 27  1  0  0  0  0
 29 28  1  0  0  0  0
 30 29  1  0  0  0  0
 31 30  1  0  0  0  0
 33 32  1  0  0  0  0
 35 34  1  6  0  0  0
 35 33  1  0  0  0  0
 36 35  1  0  0  0  0
 37 36  1  0  0  0  0
M  END
>  <MODEL>
1

>  <REMARK>
 VINA RESULT:      -5.2      0.000      0.000
  Name = 
  27 active torsions:
  status: ('A' for Active; 'I' for Inactive)
    1  A    between atoms: O_1  and  C_23
    2  A    between atoms: C_2  and  C_8
    3  A    between atoms: C_3  and  C_15
    4  A    between atoms: C_3  and  C_30
    5  A    between atoms: C_4  and  N_10
    6  A    between atoms: C_4  and  C_24
    7  A    between atoms: O_6  and  C_8
    8  A    between atoms: O_6  and  C_31
    9  A    between atoms: C_7  and  C_33
   10  A    between atoms: C_7  and  C_36
   11  A    between atoms: C_8  and  C_19
   12  A    between atoms: N_10  and  C_13
   13  A    between atoms: N_10  and  C_30
   14  A    between atoms: C_11  and  C_26
   15  A    between atoms: C_13  and  C_20
   16  A    between atoms: C_14  and  C_31
   17  A    between atoms: C_14  and  C_37
   18  A    between atoms: C_15  and  C_19
   19  A    between atoms: C_17  and  C_26
   20  A    between atoms: C_17  and  C_33
   21  A    between atoms: C_20  and  C_21
   22  A    between atoms: C_20  and  C_29
   23  A    between atoms: C_21  and  C_25
   24  A    between atoms: C_23  and  C_25
   25  A    between atoms: C_24  and  C_28
   26  A    between atoms: C_29  and  C_36
   27  A    between atoms: C_30  and  C_32
                            x       y       z     vdW  Elec       q    Type
                         _______ _______ _______ _____ _____    ______ ____

>  <TORSDO>
F 27

$$$$
=
 OpenBabel10262423003D

 37 36  0  0  1  0  0  0  0  0999 V2000
  187.9280  177.3860  138.7430 N   0  0  0  0  0  0  0  0  0  0  0  0
  188.7530  176.5210  137.8760 C   0  0  1  0  0  3  0  0  0  0  0  0
  187.8680  174.8630  136.3870 O   0  0  0  0  0  1  0  0  0  0  0  0
  188.1660  176.2210  136.4910 C   0  0  0  0  0  2  0  0  0  0  0  0
  190.1630  177.1010  137.7150 C   0  0  0  0  0  2  0  0  0  0  0  0
  191.2670  176.1250  138.0260 C   0  0  0  0  0  0  0  0  0  0  0  0
  191.0110  174.9770  138.3570 O   0  0  0  0  0  0  0  0  0  0  0  0
  192.6860  176.6000  138.0290 C   0  0  0  0  0  2  0  0  0  0  0  0
  193.6570  175.5000  137.6210 C   0  0  1  0  0  3  0  0  0  0  0  0
  194.2480  175.8490  136.2660 C   0  0  0  0  0  2  0  0  0  0  0  0
  193.2630  175.7570  135.2820 O   0  0  0  0  0  1  0  0  0  0  0  0
  194.6790  175.3690  138.5640 O   0  0  0  0  0  0  0  0  0  0  0  0
  195.3630  174.2130  138.1830 C   0  0  0  0  0  2  0  0  0  0  0  0
  196.7840  174.2570  138.7080 C   0  0  0  0  0  2  0  0  0  0  0  0
  197.9450  174.6510  136.5600 C   0  0  0  0  0  1  0  0  0  0  0  0
  197.7110  173.6530  137.6760 C   0  0  0  0  0  2  0  0  0  0  0  0
  186.9900  178.0700  137.8600 C   0  0  0  0  0  2  0  0  0  0  0  0
  185.2070  179.3880  138.7390 O   0  0  0  0  0  1  0  0  0  0  0  0
  185.5940  178.0760  138.4650 C   0  0  1  0  0  3  0  0  0  0  0  0
  184.8570  176.0650  137.3740 O   0  0  0  0  0  1  0  0  0  0  0  0
  184.5910  177.4260  137.5230 C   0  0  0  0  0  2  0  0  0  0  0  0
  188.7080  178.4440  139.3840 C   0  0  0  0  0  2  0  0  0  0  0  0
  188.6990  178.2480  140.8930 C   0  0  1  0  0  3  0  0  0  0  0  0
  187.3390  178.5830  141.5150 C   0  0  0  0  0  2  0  0  0  0  0  0
  187.0170  177.7750  142.7690 C   0  0  0  0  0  2  0  0  0  0  0  0
  185.6830  178.2010  143.3540 C   0  0  0  0  0  2  0  0  0  0  0  0
  185.7880  178.3710  144.8630 C   0  0  0  0  0  2  0  0  0  0  0  0
  186.9950  177.6290  145.4240 C   0  0  0  0  0  2  0  0  0  0  0  0
  187.0270  177.7290  146.9410 C   0  0  0  0  0  2  0  0  0  0  0  0
  188.4610  177.7930  147.4280 C   0  0  0  0  0  2  0  0  0  0  0  0
  188.4920  177.9390  148.8160 O   0  0  0  0  0  1  0  0  0  0  0  0
  189.1820  176.8490  141.2540 C   0  0  0  0  0  2  0  0  0  0  0  0
  190.6390  176.8690  141.7090 C   0  0  0  0  0  2  0  0  0  0  0  0
  191.3480  175.5000  143.5540 O   0  0  0  0  0  1  0  0  0  0  0  0
  190.7800  176.7340  143.2240 C   0  0  1  0  0  3  0  0  0  0  0  0
  191.5560  177.7730  143.7460 O   0  0  0  0  0  0  0  0  0  0  0  0
  191.4980  177.6030  145.1290 C   0  0  0  0  0  1  0  0  0  0  0  0
  1 22  1  0  0  0  0
  2  4  1  6  0  0  0
  2  1  1  0  0  0  0
  3  4  1  0  0  0  0
  5  2  1  0  0  0  0
  5  6  1  0  0  0  0
  6  8  1  0  0  0  0
  6  7  2  0  0  0  0
  9 10  1  6  0  0  0
  9  8  1  0  0  0  0
  9 12  1  0  0  0  0
 11 10  1  0  0  0  0
 13 12  1  0  0  0  0
 13 14  1  0  0  0  0
 15 16  1  0  0  0  0
 16 14  1  0  0  0  0
 17 19  1  0  0  0  0
 17  1  1  0  0  0  0
 19 18  1  6  0  0  0
 20 21  1  0  0  0  0
 21 19  1  0  0  0  0
 23 22  1  6  0  0  0
 23 32  1  0  0  0  0
 23 24  1  0  0  0  0
 24 25  1  0  0  0  0
 25 26  1  0  0  0  0
 26 27  1  0  0  0  0
 27 28  1  0  0  0  0
 28 29  1  0  0  0  0
 29 30  1  0  0  0  0
 30 31  1  0  0  0  0
 32 33  1  0  0  0  0
 33 35  1  0  0  0  0
 35 34  1  6  0  0  0
 35 36  1  0  0  0  0
 36 37  1  0  0  0  0
M  END
>  <MODEL>
2

>  <REMARK>
 VINA RESULT:      -5.2      2.649      7.018
  Name = 
  27 active torsions:
  status: ('A' for Active; 'I' for Inactive)
    1  A    between atoms: O_1  and  C_23
    2  A    between atoms: C_2  and  C_8
    3  A    between atoms: C_3  and  C_15
    4  A    between atoms: C_3  and  C_30
    5  A    between atoms: C_4  and  N_10
    6  A    between atoms: C_4  and  C_24
    7  A    between atoms: O_6  and  C_8
    8  A    between atoms: O_6  and  C_31
    9  A    between atoms: C_7  and  C_33
   10  A    between atoms: C_7  and  C_36
   11  A    between atoms: C_8  and  C_19
   12  A    between atoms: N_10  and  C_13
   13  A    between atoms: N_10  and  C_30
   14  A    between atoms: C_11  and  C_26
   15  A    between atoms: C_13  and  C_20
   16  A    between atoms: C_14  and  C_31
   17  A    between atoms: C_14  and  C_37
   18  A    between atoms: C_15  and  C_19
   19  A    between atoms: C_17  and  C_26
   20  A    between atoms: C_17  and  C_33
   21  A    between atoms: C_20  and  C_21
   22  A    between atoms: C_20  and  C_29
   23  A    between atoms: C_21  and  C_25
   24  A    between atoms: C_23  and  C_25
   25  A    between atoms: C_24  and  C_28
   26  A    between atoms: C_29  and  C_36
   27  A    between atoms: C_30  and  C_32
                            x       y       z     vdW  Elec       q    Type
                         _______ _______ _______ _____ _____    ______ ____

>  <TORSDO>
F 27

$$$$
=
 OpenBabel10262423003D

 37 36  0  0  1  0  0  0  0  0999 V2000
  189.0870  177.7750  140.4200 N   0  0  0  0  0  0  0  0  0  0  0  0
  188.4070  178.1830  139.1750 C   0  0  1  0  0  3  0  0  0  0  0  0
  189.5230  178.6120  137.0950 O   0  0  0  0  0  1  0  0  0  0  0  0
  189.1650  179.1980  138.3090 C   0  0  0  0  0  2  0  0  0  0  0  0
  188.0500  176.9580  138.3250 C   0  0  0  0  0  2  0  0  0  0  0  0
  186.7010  177.0420  137.6640 C   0  0  0  0  0  0  0  0  0  0  0  0
  186.3130  176.1550  136.9180 O   0  0  0  0  0  0  0  0  0  0  0  0
  185.8720  178.2760  137.8430 C   0  0  0  0  0  2  0  0  0  0  0  0
  184.7230  178.0550  138.8170 C   0  0  1  0  0  3  0  0  0  0  0  0
  184.3570  179.3860  139.4500 C   0  0  0  0  0  2  0  0  0  0  0  0
  185.0800  179.5650  140.6300 O   0  0  0  0  0  1  0  0  0  0  0  0
  183.6120  177.5230  138.1580 O   0  0  0  0  0  0  0  0  0  0  0  0
  182.6150  177.4710  139.1330 C   0  0  0  0  0  2  0  0  0  0  0  0
  182.4970  176.0620  139.6780 C   0  0  0  0  0  2  0  0  0  0  0  0
  180.1540  176.7160  139.2330 C   0  0  0  0  0  1  0  0  0  0  0  0
  181.0990  175.5470  139.4180 C   0  0  0  0  0  2  0  0  0  0  0  0
  190.1670  176.8810  140.0190 C   0  0  0  0  0  2  0  0  0  0  0  0
  191.9340  177.3350  141.5560 O   0  0  0  0  0  1  0  0  0  0  0  0
  191.5200  177.5420  140.2390 C   0  0  1  0  0  3  0  0  0  0  0  0
  193.8500  177.2130  139.7540 O   0  0  0  0  0  1  0  0  0  0  0  0
  192.5590  176.9880  139.2760 C   0  0  0  0  0  2  0  0  0  0  0  0
  188.2250  176.9830  141.2970 C   0  0  0  0  0  2  0  0  0  0  0  0
  188.3390  177.4900  142.7260 C   0  0  1  0  0  3  0  0  0  0  0  0
  186.9690  177.7670  143.3560 C   0  0  0  0  0  2  0  0  0  0  0  0
  187.0160  177.9770  144.8670 C   0  0  0  0  0  2  0  0  0  0  0  0
  185.6150  178.1360  145.4290 C   0  0  0  0  0  2  0  0  0  0  0  0
  184.7970  179.0900  144.5690 C   0  0  0  0  0  2  0  0  0  0  0  0
  183.3020  178.8530  144.7450 C   0  0  0  0  0  2  0  0  0  0  0  0
  182.5400  179.3040  143.5080 C   0  0  0  0  0  2  0  0  0  0  0  0
  181.1050  178.8180  143.5760 C   0  0  0  0  0  2  0  0  0  0  0  0
  180.6780  178.4030  142.3130 O   0  0  0  0  0  1  0  0  0  0  0  0
  189.1920  176.5470  143.5640 C   0  0  0  0  0  2  0  0  0  0  0  0
  190.2210  177.3160  144.3860 C   0  0  0  0  0  2  0  0  0  0  0  0
  191.9650  175.6620  144.4310 O   0  0  0  0  0  1  0  0  0  0  0  0
  191.0940  176.3980  145.2390 C   0  0  1  0  0  3  0  0  0  0  0  0
  191.8210  177.1340  146.1800 O   0  0  0  0  0  0  0  0  0  0  0  0
  191.8440  176.3330  147.3210 C   0  0  0  0  0  1  0  0  0  0  0  0
  1 22  1  0  0  0  0
  2  4  1  6  0  0  0
  2  1  1  0  0  0  0
  3  4  1  0  0  0  0
  5  2  1  0  0  0  0
  6  8  1  0  0  0  0
  6  5  1  0  0  0  0
  7  6  2  0  0  0  0
  9  8  1  6  0  0  0
  9 10  1  0  0  0  0
 10 11  1  0  0  0  0
 12  9  1  0  0  0  0
 12 13  1  0  0  0  0
 13 14  1  0  0  0  0
 15 16  1  0  0  0  0
 16 14  1  0  0  0  0
 17 19  1  0  0  0  0
 17  1  1  0  0  0  0
 19 18  1  1  0  0  0
 21 20  1  0  0  0  0
 21 19  1  0  0  0  0
 23 22  1  6  0  0  0
 23 24  1  0  0  0  0
 23 32  1  0  0  0  0
 24 25  1  0  0  0  0
 25 26  1  0  0  0  0
 27 28  1  0  0  0  0
 27 26  1  0  0  0  0
 29 30  1  0  0  0  0
 29 28  1  0  0  0  0
 31 30  1  0  0  0  0
 32 33  1  0  0  0  0
 33 35  1  0  0  0  0
 35 34  1  6  0  0  0
 35 36  1  0  0  0  0
 36 37  1  0  0  0  0
M  END
>  <MODEL>
3

>  <REMARK>
 VINA RESULT:      -5.0      2.171      6.560
  Name = 
  27 active torsions:
  status: ('A' for Active; 'I' for Inactive)
    1  A    between atoms: O_1  and  C_23
    2  A    between atoms: C_2  and  C_8
    3  A    between atoms: C_3  and  C_15
    4  A    between atoms: C_3  and  C_30
    5  A    between atoms: C_4  and  N_10
    6  A    between atoms: C_4  and  C_24
    7  A    between atoms: O_6  and  C_8
    8  A    between atoms: O_6  and  C_31
    9  A    between atoms: C_7  and  C_33
   10  A    between atoms: C_7  and  C_36
   11  A    between atoms: C_8  and  C_19
   12  A    between atoms: N_10  and  C_13
   13  A    between atoms: N_10  and  C_30
   14  A    between atoms: C_11  and  C_26
   15  A    between atoms: C_13  and  C_20
   16  A    between atoms: C_14  and  C_31
   17  A    between atoms: C_14  and  C_37
   18  A    between atoms: C_15  and  C_19
   19  A    between atoms: C_17  and  C_26
   20  A    between atoms: C_17  and  C_33
   21  A    between atoms: C_20  and  C_21
   22  A    between atoms: C_20  and  C_29
   23  A    between atoms: C_21  and  C_25
   24  A    between atoms: C_23  and  C_25
   25  A    between atoms: C_24  and  C_28
   26  A    between atoms: C_29  and  C_36
   27  A    between atoms: C_30  and  C_32
                            x       y       z     vdW  Elec       q    Type
                         _______ _______ _______ _____ _____    ______ ____

>  <TORSDO>
F 27

$$$$
=
 OpenBabel10262423003D

 37 36  0  0  1  0  0  0  0  0999 V2000
  185.7170  177.5990  144.0330 N   0  0  0  0  0  0  0  0  0  0  0  0
  184.6080  178.3250  143.3840 C   0  0  1  0  0  3  0  0  0  0  0  0
  182.3240  178.7600  143.9720 O   0  0  0  0  0  1  0  0  0  0  0  0
  183.6400  179.0420  144.3340 C   0  0  0  0  0  2  0  0  0  0  0  0
  185.1440  179.3280  142.3550 C   0  0  0  0  0  2  0  0  0  0  0  0
  184.7970  178.9890  140.9300 C   0  0  0  0  0  0  0  0  0  0  0  0
  185.6290  179.0960  140.0420 O   0  0  0  0  0  0  0  0  0  0  0  0
  183.3880  178.6180  140.5880 C   0  0  0  0  0  2  0  0  0  0  0  0
  183.2250  178.3000  139.1070 C   0  0  1  0  0  3  0  0  0  0  0  0
  182.3370  177.0760  138.9660 C   0  0  0  0  0  2  0  0  0  0  0  0
  182.8110  176.0490  139.7820 O   0  0  0  0  0  1  0  0  0  0  0  0
  182.6550  179.3800  138.4300 O   0  0  0  0  0  0  0  0  0  0  0  0
  181.5790  179.7700  139.2310 C   0  0  0  0  0  2  0  0  0  0  0  0
  180.4680  180.3300  138.3660 C   0  0  0  0  0  2  0  0  0  0  0  0
  181.2040  182.6390  137.8710 C   0  0  0  0  0  1  0  0  0  0  0  0
  180.2670  181.7910  138.7050 C   0  0  0  0  0  2  0  0  0  0  0  0
  185.4440  177.6360  145.4650 C   0  0  0  0  0  2  0  0  0  0  0  0
  185.8000  179.5440  146.8520 O   0  0  0  0  0  1  0  0  0  0  0  0
  186.4600  178.5140  146.1820 C   0  0  1  0  0  3  0  0  0  0  0  0
  187.6140  178.4600  148.2890 O   0  0  0  0  0  1  0  0  0  0  0  0
  187.2830  177.6980  147.1680 C   0  0  0  0  0  2  0  0  0  0  0  0
  187.0050  178.2710  143.8600 C   0  0  0  0  0  2  0  0  0  0  0  0
  187.9200  177.4160  142.9970 C   0  0  1  0  0  3  0  0  0  0  0  0
  188.6760  178.2440  141.9520 C   0  0  0  0  0  2  0  0  0  0  0  0
  188.7130  177.6070  140.5660 C   0  0  0  0  0  2  0  0  0  0  0  0
  190.1430  177.4730  140.0760 C   0  0  0  0  0  2  0  0  0  0  0  0
  190.2620  176.3340  139.0730 C   0  0  0  0  0  2  0  0  0  0  0  0
  191.2220  176.6860  137.9440 C   0  0  0  0  0  2  0  0  0  0  0  0
  192.6640  176.5570  138.4090 C   0  0  0  0  0  2  0  0  0  0  0  0
  193.5250  176.0020  137.2910 C   0  0  0  0  0  2  0  0  0  0  0  0
  194.1590  174.8300  137.7090 O   0  0  0  0  0  1  0  0  0  0  0  0
  188.8480  176.5770  143.8660 C   0  0  0  0  0  2  0  0  0  0  0  0
  189.7880  177.4600  144.6810 C   0  0  0  0  0  2  0  0  0  0  0  0
  191.9260  177.6100  143.5920 O   0  0  0  0  0  1  0  0  0  0  0  0
  191.2370  176.9770  144.6290 C   0  0  1  0  0  3  0  0  0  0  0  0
  191.8820  177.2100  145.8470 O   0  0  0  0  0  0  0  0  0  0  0  0
  191.0120  176.7100  146.8150 C   0  0  0  0  0  1  0  0  0  0  0  0
  1 17  1  0  0  0  0
  2  5  1  6  0  0  0
  2  1  1  0  0  0  0
  2  4  1  0  0  0  0
  3  4  1  0  0  0  0
  6  5  1  0  0  0  0
  7  6  2  0  0  0  0
  8  6  1  0  0  0  0
  9 10  1  1  0  0  0
  9  8  1  0  0  0  0
 10 11  1  0  0  0  0
 12  9  1  0  0  0  0
 12 13  1  0  0  0  0
 14 16  1  0  0  0  0
 14 13  1  0  0  0  0
 15 16  1  0  0  0  0
 17 19  1  0  0  0  0
 19 18  1  1  0  0  0
 19 21  1  0  0  0  0
 21 20  1  0  0  0  0
 22  1  1  0  0  0  0
 23 24  1  6  0  0  0
 23 22  1  0  0  0  0
 23 32  1  0  0  0  0
 25 24  1  0  0  0  0
 26 25  1  0  0  0  0
 27 26  1  0  0  0  0
 28 29  1  0  0  0  0
 28 27  1  0  0  0  0
 30 31  1  0  0  0  0
 30 29  1  0  0  0  0
 32 33  1  0  0  0  0
 35 34  1  6  0  0  0
 35 33  1  0  0  0  0
 35 36  1  0  0  0  0
 36 37  1  0  0  0  0
M  END
>  <MODEL>
4

>  <REMARK>
 VINA RESULT:      -4.9      2.142      8.243
  Name = 
  27 active torsions:
  status: ('A' for Active; 'I' for Inactive)
    1  A    between atoms: O_1  and  C_23
    2  A    between atoms: C_2  and  C_8
    3  A    between atoms: C_3  and  C_15
    4  A    between atoms: C_3  and  C_30
    5  A    between atoms: C_4  and  N_10
    6  A    between atoms: C_4  and  C_24
    7  A    between atoms: O_6  and  C_8
    8  A    between atoms: O_6  and  C_31
    9  A    between atoms: C_7  and  C_33
   10  A    between atoms: C_7  and  C_36
   11  A    between atoms: C_8  and  C_19
   12  A    between atoms: N_10  and  C_13
   13  A    between atoms: N_10  and  C_30
   14  A    between atoms: C_11  and  C_26
   15  A    between atoms: C_13  and  C_20
   16  A    between atoms: C_14  and  C_31
   17  A    between atoms: C_14  and  C_37
   18  A    between atoms: C_15  and  C_19
   19  A    between atoms: C_17  and  C_26
   20  A    between atoms: C_17  and  C_33
   21  A    between atoms: C_20  and  C_21
   22  A    between atoms: C_20  and  C_29
   23  A    between atoms: C_21  and  C_25
   24  A    between atoms: C_23  and  C_25
   25  A    between atoms: C_24  and  C_28
   26  A    between atoms: C_29  and  C_36
   27  A    between atoms: C_30  and  C_32
                            x       y       z     vdW  Elec       q    Type
                         _______ _______ _______ _____ _____    ______ ____

>  <TORSDO>
F 27

$$$$
=
 OpenBabel10262423003D

 37 36  0  0  1  0  0  0  0  0999 V2000
  185.0760  178.4870  142.2820 N   0  0  0  0  0  0  0  0  0  0  0  0
  186.4280  177.9570  142.0180 C   0  0  1  0  0  3  0  0  0  0  0  0
  187.8270  178.2010  140.0850 O   0  0  0  0  0  1  0  0  0  0  0  0
  187.3530  178.8750  141.2100 C   0  0  0  0  0  2  0  0  0  0  0  0
  187.1220  177.5630  143.3270 C   0  0  0  0  0  2  0  0  0  0  0  0
  188.4510  176.8830  143.1370 C   0  0  0  0  0  0  0  0  0  0  0  0
  188.5220  175.6670  143.0380 O   0  0  0  0  0  0  0  0  0  0  0  0
  189.7050  177.7000  143.1720 C   0  0  0  0  0  2  0  0  0  0  0  0
  190.5090  177.4560  144.4410 C   0  0  1  0  0  3  0  0  0  0  0  0
  191.8550  178.1460  144.3060 C   0  0  0  0  0  2  0  0  0  0  0  0
  191.6720  179.4650  143.8910 O   0  0  0  0  0  1  0  0  0  0  0  0
  189.8330  177.9520  145.5580 O   0  0  0  0  0  0  0  0  0  0  0  0
  190.3260  177.2040  146.6290 C   0  0  0  0  0  2  0  0  0  0  0  0
  189.1810  176.5340  147.3620 C   0  0  0  0  0  2  0  0  0  0  0  0
  187.9850  178.3610  148.5250 C   0  0  0  0  0  1  0  0  0  0  0  0
  187.9710  177.4410  147.3210 C   0  0  0  0  0  2  0  0  0  0  0  0
  184.7330  178.0690  143.6360 C   0  0  0  0  0  2  0  0  0  0  0  0
  182.9950  179.1450  144.8670 O   0  0  0  0  0  1  0  0  0  0  0  0
  184.3310  179.2690  144.4810 C   0  0  1  0  0  3  0  0  0  0  0  0
  184.6640  178.6930  146.7910 O   0  0  0  0  0  1  0  0  0  0  0  0
  185.2160  179.3870  145.7140 C   0  0  0  0  0  2  0  0  0  0  0  0
  184.0600  177.8900  141.4160 C   0  0  0  0  0  2  0  0  0  0  0  0
  183.2420  178.9870  140.7500 C   0  0  1  0  0  3  0  0  0  0  0  0
  183.3770  178.9660  139.2230 C   0  0  0  0  0  2  0  0  0  0  0  0
  184.1300  177.7530  138.6850 C   0  0  0  0  0  2  0  0  0  0  0  0
  185.3460  178.1880  137.8890 C   0  0  0  0  0  2  0  0  0  0  0  0
  185.5950  177.2370  136.7260 C   0  0  0  0  0  2  0  0  0  0  0  0
  186.6320  177.7980  135.7610 C   0  0  0  0  0  2  0  0  0  0  0  0
  187.7990  178.4040  136.5240 C   0  0  0  0  0  2  0  0  0  0  0  0
  188.9910  177.4670  136.4820 C   0  0  0  0  0  2  0  0  0  0  0  0
  189.9190  177.8240  137.4630 O   0  0  0  0  0  1  0  0  0  0  0  0
  181.7930  178.9320  141.2140 C   0  0  0  0  0  2  0  0  0  0  0  0
  180.8320  179.0560  140.0350 C   0  0  0  0  0  2  0  0  0  0  0  0
  179.5660  177.4530  138.7680 O   0  0  0  0  0  1  0  0  0  0  0  0
  179.7450  177.9820  140.0480 C   0  0  1  0  0  3  0  0  0  0  0  0
  180.0660  176.9620  140.9490 O   0  0  0  0  0  0  0  0  0  0  0  0
  179.4190  175.8300  140.4530 C   0  0  0  0  0  1  0  0  0  0  0  0
  1 17  1  0  0  0  0
  2  4  1  1  0  0  0
  2  1  1  0  0  0  0
  2  5  1  0  0  0  0
  3  4  1  0  0  0  0
  6  8  1  0  0  0  0
  6  5  1  0  0  0  0
  7  6  2  0  0  0  0
  9  8  1  6  0  0  0
  9 12  1  0  0  0  0
 10  9  1  0  0  0  0
 11 10  1  0  0  0  0
 12 13  1  0  0  0  0
 13 14  1  0  0  0  0
 16 14  1  0  0  0  0
 16 15  1  0  0  0  0
 17 19  1  0  0  0  0
 19 18  1  1  0  0  0
 19 21  1  0  0  0  0
 21 20  1  0  0  0  0
 22  1  1  0  0  0  0
 23 24  1  6  0  0  0
 23 32  1  0  0  0  0
 23 22  1  0  0  0  0
 25 24  1  0  0  0  0
 26 25  1  0  0  0  0
 27 26  1  0  0  0  0
 28 29  1  0  0  0  0
 28 27  1  0  0  0  0
 30 29  1  0  0  0  0
 30 31  1  0  0  0  0
 33 35  1  0  0  0  0
 33 32  1  0  0  0  0
 35 34  1  6  0  0  0
 35 36  1  0  0  0  0
 37 36  1  0  0  0  0
M  END
>  <MODEL>
5

>  <REMARK>
 VINA RESULT:      -4.8      2.352      6.763
  Name = 
  27 active torsions:
  status: ('A' for Active; 'I' for Inactive)
    1  A    between atoms: O_1  and  C_23
    2  A    between atoms: C_2  and  C_8
    3  A    between atoms: C_3  and  C_15
    4  A    between atoms: C_3  and  C_30
    5  A    between atoms: C_4  and  N_10
    6  A    between atoms: C_4  and  C_24
    7  A    between atoms: O_6  and  C_8
    8  A    between atoms: O_6  and  C_31
    9  A    between atoms: C_7  and  C_33
   10  A    between atoms: C_7  and  C_36
   11  A    between atoms: C_8  and  C_19
   12  A    between atoms: N_10  and  C_13
   13  A    between atoms: N_10  and  C_30
   14  A    between atoms: C_11  and  C_26
   15  A    between atoms: C_13  and  C_20
   16  A    between atoms: C_14  and  C_31
   17  A    between atoms: C_14  and  C_37
   18  A    between atoms: C_15  and  C_19
   19  A    between atoms: C_17  and  C_26
   20  A    between atoms: C_17  and  C_33
   21  A    between atoms: C_20  and  C_21
   22  A    between atoms: C_20  and  C_29
   23  A    between atoms: C_21  and  C_25
   24  A    between atoms: C_23  and  C_25
   25  A    between atoms: C_24  and  C_28
   26  A    between atoms: C_29  and  C_36
   27  A    between atoms: C_30  and  C_32
                            x       y       z     vdW  Elec       q    Type
                         _______ _______ _______ _____ _____    ______ ____

>  <TORSDO>
F 27

$$$$
=
 OpenBabel10262423003D

 37 36  0  0  1  0  0  0  0  0999 V2000
  185.4670  178.7230  142.0240 N   0  0  0  0  0  0  0  0  0  0  0  0
  184.3700  178.9020  141.0530 C   0  0  1  0  0  3  0  0  0  0  0  0
  184.3510  180.2430  139.0640 O   0  0  0  0  0  1  0  0  0  0  0  0
  184.7990  179.0300  139.5860 C   0  0  0  0  0  2  0  0  0  0  0  0
  183.3400  177.7750  141.1840 C   0  0  0  0  0  2  0  0  0  0  0  0
  181.9100  178.2350  141.0800 C   0  0  0  0  0  0  0  0  0  0  0  0
  181.2360  177.9630  140.0980 O   0  0  0  0  0  0  0  0  0  0  0  0
  181.3460  179.1210  142.1460 C   0  0  0  0  0  2  0  0  0  0  0  0
  179.9390  179.5960  141.8080 C   0  0  1  0  0  3  0  0  0  0  0  0
  178.9690  179.0080  142.8180 C   0  0  0  0  0  2  0  0  0  0  0  0
  178.9570  179.7890  143.9740 O   0  0  0  0  0  1  0  0  0  0  0  0
  179.8680  180.9910  141.8390 O   0  0  0  0  0  0  0  0  0  0  0  0
  179.1150  181.3300  140.7130 C   0  0  0  0  0  2  0  0  0  0  0  0
  179.9480  181.1460  139.4610 C   0  0  0  0  0  2  0  0  0  0  0  0
  180.8330  182.3130  137.4670 C   0  0  0  0  0  1  0  0  0  0  0  0
  179.8350  182.3890  138.6050 C   0  0  0  0  0  2  0  0  0  0  0  0
  185.0320  179.3740  143.2550 C   0  0  0  0  0  2  0  0  0  0  0  0
  186.2560  178.7840  145.2150 O   0  0  0  0  0  1  0  0  0  0  0  0
  185.1550  178.4240  144.4360 C   0  0  1  0  0  3  0  0  0  0  0  0
  183.1160  179.5660  144.9940 O   0  0  0  0  0  1  0  0  0  0  0  0
  183.8920  178.4440  145.2850 C   0  0  0  0  0  2  0  0  0  0  0  0
  186.6910  179.4170  141.6240 C   0  0  0  0  0  2  0  0  0  0  0  0
  187.8490  178.4320  141.5750 C   0  0  1  0  0  3  0  0  0  0  0  0
  187.5390  177.1320  142.3250 C   0  0  0  0  0  2  0  0  0  0  0  0
  188.4920  176.8430  143.4810 C   0  0  0  0  0  2  0  0  0  0  0  0
  189.4670  177.9910  143.6700 C   0  0  0  0  0  2  0  0  0  0  0  0
  189.7140  178.2480  145.1500 C   0  0  0  0  0  2  0  0  0  0  0  0
  189.5210  176.9810  145.9740 C   0  0  0  0  0  2  0  0  0  0  0  0
  190.0680  177.1710  147.3810 C   0  0  0  0  0  2  0  0  0  0  0  0
  191.3350  176.3570  147.5600 C   0  0  0  0  0  2  0  0  0  0  0  0
  192.1910  176.5540  146.4740 O   0  0  0  0  0  1  0  0  0  0  0  0
  188.2870  178.1910  140.1360 C   0  0  0  0  0  2  0  0  0  0  0  0
  189.3280  177.0770  140.0560 C   0  0  0  0  0  2  0  0  0  0  0  0
  191.0340  176.0660  138.6980 O   0  0  0  0  0  1  0  0  0  0  0  0
  189.9830  176.9870  138.6790 C   0  0  1  0  0  3  0  0  0  0  0  0
  189.0470  176.6270  137.7050 O   0  0  0  0  0  0  0  0  0  0  0  0
  189.4290  175.3500  137.2960 C   0  0  0  0  0  1  0  0  0  0  0  0
  1 17  1  0  0  0  0
  2  4  1  6  0  0  0
  2  5  1  0  0  0  0
  2  1  1  0  0  0  0
  3  4  1  0  0  0  0
  6  5  1  0  0  0  0
  6  8  1  0  0  0  0
  7  6  2  0  0  0  0
  9 12  1  0  0  0  0
  9  8  1  1  0  0  0
  9 10  1  0  0  0  0
 10 11  1  0  0  0  0
 13 12  1  0  0  0  0
 14 13  1  0  0  0  0
 15 16  1  0  0  0  0
 16 14  1  0  0  0  0
 17 19  1  0  0  0  0
 19 18  1  1  0  0  0
 19 21  1  0  0  0  0
 20 21  1  0  0  0  0
 22  1  1  0  0  0  0
 23 32  1  6  0  0  0
 23 22  1  0  0  0  0
 23 24  1  0  0  0  0
 24 25  1  0  0  0  0
 25 26  1  0  0  0  0
 26 27  1  0  0  0  0
 27 28  1  0  0  0  0
 28 29  1  0  0  0  0
 29 30  1  0  0  0  0
 31 30  1  0  0  0  0
 33 32  1  0  0  0  0
 35 34  1  1  0  0  0
 35 33  1  0  0  0  0
 36 35  1  0  0  0  0
 37 36  1  0  0  0  0
M  END
>  <MODEL>
6

>  <REMARK>
 VINA RESULT:      -4.8      2.051      8.622
  Name = 
  27 active torsions:
  status: ('A' for Active; 'I' for Inactive)
    1  A    between atoms: O_1  and  C_23
    2  A    between atoms: C_2  and  C_8
    3  A    between atoms: C_3  and  C_15
    4  A    between atoms: C_3  and  C_30
    5  A    between atoms: C_4  and  N_10
    6  A    between atoms: C_4  and  C_24
    7  A    between atoms: O_6  and  C_8
    8  A    between atoms: O_6  and  C_31
    9  A    between atoms: C_7  and  C_33
   10  A    between atoms: C_7  and  C_36
   11  A    between atoms: C_8  and  C_19
   12  A    between atoms: N_10  and  C_13
   13  A    between atoms: N_10  and  C_30
   14  A    between atoms: C_11  and  C_26
   15  A    between atoms: C_13  and  C_20
   16  A    between atoms: C_14  and  C_31
   17  A    between atoms: C_14  and  C_37
   18  A    between atoms: C_15  and  C_19
   19  A    between atoms: C_17  and  C_26
   20  A    between atoms: C_17  and  C_33
   21  A    between atoms: C_20  and  C_21
   22  A    between atoms: C_20  and  C_29
   23  A    between atoms: C_21  and  C_25
   24  A    between atoms: C_23  and  C_25
   25  A    between atoms: C_24  and  C_28
   26  A    between atoms: C_29  and  C_36
   27  A    between atoms: C_30  and  C_32
                            x       y       z     vdW  Elec       q    Type
                         _______ _______ _______ _____ _____    ______ ____

>  <TORSDO>
F 27

$$$$
=
 OpenBabel10262423003D

 37 36  0  0  1  0  0  0  0  0999 V2000
  183.6640  178.6280  139.7840 N   0  0  0  0  0  0  0  0  0  0  0  0
  182.3760  179.3080  139.5480 C   0  0  1  0  0  3  0  0  0  0  0  0
  181.5140  180.4860  137.6440 O   0  0  0  0  0  1  0  0  0  0  0  0
  182.4420  180.5720  138.6820 C   0  0  0  0  0  2  0  0  0  0  0  0
  181.3510  178.3360  138.9500 C   0  0  0  0  0  2  0  0  0  0  0  0
  180.2030  178.0140  139.8670 C   0  0  0  0  0  0  0  0  0  0  0  0
  180.0810  178.5840  140.9410 O   0  0  0  0  0  0  0  0  0  0  0  0
  179.2610  176.9090  139.5030 C   0  0  0  0  0  2  0  0  0  0  0  0
  179.9870  175.5880  139.2870 C   0  0  1  0  0  3  0  0  0  0  0  0
  179.6030  174.6320  140.4030 C   0  0  0  0  0  2  0  0  0  0  0  0
  179.1970  175.3530  141.5260 O   0  0  0  0  0  1  0  0  0  0  0  0
  179.6480  175.0340  138.0500 O   0  0  0  0  0  0  0  0  0  0  0  0
  180.7280  175.3390  137.2200 C   0  0  0  0  0  2  0  0  0  0  0  0
  181.8860  174.4070  137.5160 C   0  0  0  0  0  2  0  0  0  0  0  0
  182.7310  172.1760  136.8640 C   0  0  0  0  0  1  0  0  0  0  0  0
  181.4880  172.9940  137.1510 C   0  0  0  0  0  2  0  0  0  0  0  0
  183.7630  177.5810  138.7740 C   0  0  0  0  0  2  0  0  0  0  0  0
  185.7560  178.8020  138.2970 O   0  0  0  0  0  1  0  0  0  0  0  0
  184.8170  177.9350  137.7360 C   0  0  1  0  0  3  0  0  0  0  0  0
  186.8900  176.8810  137.1290 O   0  0  0  0  0  1  0  0  0  0  0  0
  185.5120  176.6840  137.2180 C   0  0  0  0  0  2  0  0  0  0  0  0
  183.7080  177.9380  141.0730 C   0  0  0  0  0  2  0  0  0  0  0  0
  184.3900  178.8210  142.1070 C   0  0  1  0  0  3  0  0  0  0  0  0
  184.3270  178.2220  143.5160 C   0  0  0  0  0  2  0  0  0  0  0  0
  184.1050  179.2540  144.6170 C   0  0  0  0  0  2  0  0  0  0  0  0
  185.3790  179.4720  145.4130 C   0  0  0  0  0  2  0  0  0  0  0  0
  185.7350  178.2240  146.2090 C   0  0  0  0  0  2  0  0  0  0  0  0
  186.9930  177.5580  145.6650 C   0  0  0  0  0  2  0  0  0  0  0  0
  188.0610  177.4740  146.7440 C   0  0  0  0  0  2  0  0  0  0  0  0
  187.6180  178.2390  147.9760 C   0  0  0  0  0  2  0  0  0  0  0  0
  188.4730  177.9660  149.0460 O   0  0  0  0  0  1  0  0  0  0  0  0
  185.8110  179.1550  141.6730 C   0  0  0  0  0  2  0  0  0  0  0  0
  186.7900  178.0670  142.1050 C   0  0  0  0  0  2  0  0  0  0  0  0
  189.0670  178.3860  142.8070 O   0  0  0  0  0  1  0  0  0  0  0  0
  188.2280  178.3750  141.6900 C   0  0  1  0  0  3  0  0  0  0  0  0
  188.6860  177.4420  140.7550 O   0  0  0  0  0  0  0  0  0  0  0  0
  188.9550  178.1870  139.6080 C   0  0  0  0  0  1  0  0  0  0  0  0
  1 22  1  0  0  0  0
  2  4  1  6  0  0  0
  2  1  1  0  0  0  0
  3  4  1  0  0  0  0
  5  2  1  0  0  0  0
  5  6  1  0  0  0  0
  6  7  2  0  0  0  0
  8  6  1  0  0  0  0
  9  8  1  1  0  0  0
  9 10  1  0  0  0  0
 10 11  1  0  0  0  0
 12  9  1  0  0  0  0
 13 14  1  0  0  0  0
 13 12  1  0  0  0  0
 15 16  1  0  0  0  0
 16 14  1  0  0  0  0
 17  1  1  0  0  0  0
 19 18  1  1  0  0  0
 19 17  1  0  0  0  0
 20 21  1  0  0  0  0
 21 19  1  0  0  0  0
 23 22  1  6  0  0  0
 23 24  1  0  0  0  0
 24 25  1  0  0  0  0
 25 26  1  0  0  0  0
 26 27  1  0  0  0  0
 28 27  1  0  0  0  0
 28 29  1  0  0  0  0
 29 30  1  0  0  0  0
 30 31  1  0  0  0  0
 32 33  1  0  0  0  0
 32 23  1  0  0  0  0
 35 33  1  0  0  0  0
 35 34  1  1  0  0  0
 36 35  1  0  0  0  0
 37 36  1  0  0  0  0
M  END
>  <MODEL>
7

>  <REMARK>
 VINA RESULT:      -4.7      2.962      8.204
  Name = 
  27 active torsions:
  status: ('A' for Active; 'I' for Inactive)
    1  A    between atoms: O_1  and  C_23
    2  A    between atoms: C_2  and  C_8
    3  A    between atoms: C_3  and  C_15
    4  A    between atoms: C_3  and  C_30
    5  A    between atoms: C_4  and  N_10
    6  A    between atoms: C_4  and  C_24
    7  A    between atoms: O_6  and  C_8
    8  A    between atoms: O_6  and  C_31
    9  A    between atoms: C_7  and  C_33
   10  A    between atoms: C_7  and  C_36
   11  A    between atoms: C_8  and  C_19
   12  A    between atoms: N_10  and  C_13
   13  A    between atoms: N_10  and  C_30
   14  A    between atoms: C_11  and  C_26
   15  A    between atoms: C_13  and  C_20
   16  A    between atoms: C_14  and  C_31
   17  A    between atoms: C_14  and  C_37
   18  A    between atoms: C_15  and  C_19
   19  A    between atoms: C_17  and  C_26
   20  A    between atoms: C_17  and  C_33
   21  A    between atoms: C_20  and  C_21
   22  A    between atoms: C_20  and  C_29
   23  A    between atoms: C_21  and  C_25
   24  A    between atoms: C_23  and  C_25
   25  A    between atoms: C_24  and  C_28
   26  A    between atoms: C_29  and  C_36
   27  A    between atoms: C_30  and  C_32
                            x       y       z     vdW  Elec       q    Type
                         _______ _______ _______ _____ _____    ______ ____

>  <TORSDO>
F 27

$$$$
=
 OpenBabel10262423003D

 37 36  0  0  1  0  0  0  0  0999 V2000
  189.0690  177.6460  143.0670 N   0  0  0  0  0  0  0  0  0  0  0  0
  190.1280  177.6700  142.0390 C   0  0  1  0  0  3  0  0  0  0  0  0
  192.0560  178.5680  143.1480 O   0  0  0  0  0  1  0  0  0  0  0  0
  191.5520  177.4140  142.5480 C   0  0  0  0  0  2  0  0  0  0  0  0
  189.8080  176.6840  140.9090 C   0  0  0  0  0  2  0  0  0  0  0  0
  189.6230  177.3330  139.5630 C   0  0  0  0  0  0  0  0  0  0  0  0
  189.4770  178.5420  139.4670 O   0  0  0  0  0  0  0  0  0  0  0  0
  189.5130  176.4730  138.3430 C   0  0  0  0  0  2  0  0  0  0  0  0
  190.6260  176.7560  137.3430 C   0  0  1  0  0  3  0  0  0  0  0  0
  191.6850  175.6760  137.4720 C   0  0  0  0  0  2  0  0  0  0  0  0
  191.1350  174.5410  138.0680 O   0  0  0  0  0  1  0  0  0  0  0  0
  190.1250  176.7750  136.0390 O   0  0  0  0  0  0  0  0  0  0  0  0
  188.8030  176.3430  136.1640 C   0  0  0  0  0  2  0  0  0  0  0  0
  188.4750  175.3590  135.0600 C   0  0  0  0  0  2  0  0  0  0  0  0
  186.1360  174.5710  135.2340 C   0  0  0  0  0  1  0  0  0  0  0  0
  187.0540  175.5920  134.5940 C   0  0  0  0  0  2  0  0  0  0  0  0
  189.4930  176.6680  144.0640 C   0  0  0  0  0  2  0  0  0  0  0  0
  189.6840  178.7160  145.2740 O   0  0  0  0  0  1  0  0  0  0  0  0
  189.6580  177.3280  145.4250 C   0  0  1  0  0  3  0  0  0  0  0  0
  188.7980  177.3390  147.6690 O   0  0  0  0  0  1  0  0  0  0  0  0
  188.5280  176.9300  146.3620 C   0  0  0  0  0  2  0  0  0  0  0  0
  187.7940  177.1520  142.5490 C   0  0  0  0  0  2  0  0  0  0  0  0
  186.7880  178.2910  142.4890 C   0  0  1  0  0  3  0  0  0  0  0  0
  186.3800  178.6320  141.0510 C   0  0  0  0  0  2  0  0  0  0  0  0
  184.9140  179.0290  140.9020 C   0  0  0  0  0  2  0  0  0  0  0  0
  184.5590  179.2310  139.4400 C   0  0  0  0  0  2  0  0  0  0  0  0
  183.1830  178.6550  139.1380 C   0  0  0  0  0  2  0  0  0  0  0  0
  182.7500  177.6590  140.2050 C   0  0  0  0  0  2  0  0  0  0  0  0
  182.7280  176.2460  139.6420 C   0  0  0  0  0  2  0  0  0  0  0  0
  182.5060  176.2880  138.1420 C   0  0  0  0  0  2  0  0  0  0  0  0
  182.8900  175.0770  137.5650 O   0  0  0  0  0  1  0  0  0  0  0  0
  185.5910  177.9980  143.3850 C   0  0  0  0  0  2  0  0  0  0  0  0
  185.6670  178.7940  144.6850 C   0  0  0  0  0  2  0  0  0  0  0  0
  183.2840  178.6300  144.4160 O   0  0  0  0  0  1  0  0  0  0  0  0
  184.2880  179.0900  145.2720 C   0  0  1  0  0  3  0  0  0  0  0  0
  184.1490  178.5040  146.5330 O   0  0  0  0  0  0  0  0  0  0  0  0
  185.4100  178.6100  147.1190 C   0  0  0  0  0  1  0  0  0  0  0  0
  1 17  1  0  0  0  0
  2  5  1  6  0  0  0
  2  4  1  0  0  0  0
  2  1  1  0  0  0  0
  4  3  1  0  0  0  0
  6  5  1  0  0  0  0
  7  6  2  0  0  0  0
  8  6  1  0  0  0  0
  9 10  1  6  0  0  0
  9  8  1  0  0  0  0
 10 11  1  0  0  0  0
 12 13  1  0  0  0  0
 12  9  1  0  0  0  0
 14 13  1  0  0  0  0
 16 14  1  0  0  0  0
 16 15  1  0  0  0  0
 17 19  1  0  0  0  0
 19 18  1  6  0  0  0
 19 21  1  0  0  0  0
 21 20  1  0  0  0  0
 22  1  1  0  0  0  0
 23 24  1  6  0  0  0
 23 22  1  0  0  0  0
 23 32  1  0  0  0  0
 25 24  1  0  0  0  0
 26 25  1  0  0  0  0
 27 26  1  0  0  0  0
 27 28  1  0  0  0  0
 29 28  1  0  0  0  0
 30 29  1  0  0  0  0
 31 30  1  0  0  0  0
 32 33  1  0  0  0  0
 33 35  1  0  0  0  0
 35 34  1  6  0  0  0
 35 36  1  0  0  0  0
 36 37  1  0  0  0  0
M  END
>  <MODEL>
8

>  <REMARK>
 VINA RESULT:      -4.6      2.209      3.833
  Name = 
  27 active torsions:
  status: ('A' for Active; 'I' for Inactive)
    1  A    between atoms: O_1  and  C_23
    2  A    between atoms: C_2  and  C_8
    3  A    between atoms: C_3  and  C_15
    4  A    between atoms: C_3  and  C_30
    5  A    between atoms: C_4  and  N_10
    6  A    between atoms: C_4  and  C_24
    7  A    between atoms: O_6  and  C_8
    8  A    between atoms: O_6  and  C_31
    9  A    between atoms: C_7  and  C_33
   10  A    between atoms: C_7  and  C_36
   11  A    between atoms: C_8  and  C_19
   12  A    between atoms: N_10  and  C_13
   13  A    between atoms: N_10  and  C_30
   14  A    between atoms: C_11  and  C_26
   15  A    between atoms: C_13  and  C_20
   16  A    between atoms: C_14  and  C_31
   17  A    between atoms: C_14  and  C_37
   18  A    between atoms: C_15  and  C_19
   19  A    between atoms: C_17  and  C_26
   20  A    between atoms: C_17  and  C_33
   21  A    between atoms: C_20  and  C_21
   22  A    between atoms: C_20  and  C_29
   23  A    between atoms: C_21  and  C_25
   24  A    between atoms: C_23  and  C_25
   25  A    between atoms: C_24  and  C_28
   26  A    between atoms: C_29  and  C_36
   27  A    between atoms: C_30  and  C_32
                            x       y       z     vdW  Elec       q    Type
                         _______ _______ _______ _____ _____    ______ ____

>  <TORSDO>
F 27

$$$$
=
 OpenBabel10262423003D

 37 36  0  0  1  0  0  0  0  0999 V2000
  187.5680  178.2000  141.6000 N   0  0  0  0  0  0  0  0  0  0  0  0
  186.2010  178.7550  141.5520 C   0  0  1  0  0  3  0  0  0  0  0  0
  184.4760  178.2220  139.9740 O   0  0  0  0  0  1  0  0  0  0  0  0
  185.6290  178.9870  140.1480 C   0  0  0  0  0  2  0  0  0  0  0  0
  185.2320  177.8810  142.3570 C   0  0  0  0  0  2  0  0  0  0  0  0
  184.4440  178.6340  143.3950 C   0  0  0  0  0  0  0  0  0  0  0  0
  184.6090  178.4160  144.5860 O   0  0  0  0  0  0  0  0  0  0  0  0
  183.3740  179.5850  142.9560 C   0  0  0  0  0  2  0  0  0  0  0  0
  182.1540  178.8580  142.4090 C   0  0  1  0  0  3  0  0  0  0  0  0
  180.9470  179.2230  143.2560 C   0  0  0  0  0  2  0  0  0  0  0  0
  180.7610  178.2640  144.2520 O   0  0  0  0  0  1  0  0  0  0  0  0
  181.9220  179.2140  141.0770 O   0  0  0  0  0  0  0  0  0  0  0  0
  180.6650  178.6820  140.7840 C   0  0  0  0  0  2  0  0  0  0  0  0
  180.7530  177.7950  139.5590 C   0  0  0  0  0  2  0  0  0  0  0  0
  181.9500  175.7370  138.8850 C   0  0  0  0  0  1  0  0  0  0  0  0
  181.1470  176.3980  139.9870 C   0  0  0  0  0  2  0  0  0  0  0  0
  187.7740  177.5190  140.3270 C   0  0  0  0  0  2  0  0  0  0  0  0
  190.0310  177.4360  139.5580 O   0  0  0  0  0  1  0  0  0  0  0  0
  188.8680  178.2070  139.5230 C   0  0  1  0  0  3  0  0  0  0  0  0
  189.4360  179.0450  137.3430 O   0  0  0  0  0  1  0  0  0  0  0  0
  188.4310  178.4180  138.0800 C   0  0  0  0  0  2  0  0  0  0  0  0
  187.7200  177.1690  142.6260 C   0  0  0  0  0  2  0  0  0  0  0  0
  188.7290  177.6270  143.6690 C   0  0  1  0  0  3  0  0  0  0  0  0
  189.7630  178.6000  143.0900 C   0  0  0  0  0  2  0  0  0  0  0  0
  191.1930  178.3210  143.5410 C   0  0  0  0  0  2  0  0  0  0  0  0
  191.5900  176.8940  143.2120 C   0  0  0  0  0  2  0  0  0  0  0  0
  191.6670  176.0530  144.4790 C   0  0  0  0  0  2  0  0  0  0  0  0
  191.6770  176.9270  145.7270 C   0  0  0  0  0  2  0  0  0  0  0  0
  191.2330  176.1280  146.9420 C   0  0  0  0  0  2  0  0  0  0  0  0
  192.4440  175.6220  147.7030 C   0  0  0  0  0  2  0  0  0  0  0  0
  192.8180  176.5460  148.6810 O   0  0  0  0  0  1  0  0  0  0  0  0
  188.0180  178.1840  144.8950 C   0  0  0  0  0  2  0  0  0  0  0  0
  187.8910  177.1270  145.9870 C   0  0  0  0  0  2  0  0  0  0  0  0
  187.8600  176.7380  148.3600 O   0  0  0  0  0  1  0  0  0  0  0  0
  187.7920  177.7370  147.3850 C   0  0  1  0  0  3  0  0  0  0  0  0
  188.8070  178.6770  147.5900 O   0  0  0  0  0  0  0  0  0  0  0  0
  189.3880  178.3170  148.8050 C   0  0  0  0  0  1  0  0  0  0  0  0
  1 22  1  0  0  0  0
  2  4  1  6  0  0  0
  2  1  1  0  0  0  0
  2  5  1  0  0  0  0
  3  4  1  0  0  0  0
  5  6  1  0  0  0  0
  6  7  2  0  0  0  0
  8  6  1  0  0  0  0
  9  8  1  1  0  0  0
  9 10  1  0  0  0  0
 10 11  1  0  0  0  0
 12  9  1  0  0  0  0
 13 12  1  0  0  0  0
 14 16  1  0  0  0  0
 14 13  1  0  0  0  0
 15 16  1  0  0  0  0
 17  1  1  0  0  0  0
 19 18  1  6  0  0  0
 19 17  1  0  0  0  0
 20 21  1  0  0  0  0
 21 19  1  0  0  0  0
 23 22  1  6  0  0  0
 23 32  1  0  0  0  0
 24 25  1  0  0  0  0
 24 23  1  0  0  0  0
 26 25  1  0  0  0  0
 26 27  1  0  0  0  0
 27 28  1  0  0  0  0
 28 29  1  0  0  0  0
 29 30  1  0  0  0  0
 30 31  1  0  0  0  0
 32 33  1  0  0  0  0
 33 35  1  0  0  0  0
 35 36  1  0  0  0  0
 35 34  1  1  0  0  0
 36 37  1  0  0  0  0
M  END
>  <MODEL>
9

>  <REMARK>
 VINA RESULT:      -4.6      2.343      8.838
  Name = 
  27 active torsions:
  status: ('A' for Active; 'I' for Inactive)
    1  A    between atoms: O_1  and  C_23
    2  A    between atoms: C_2  and  C_8
    3  A    between atoms: C_3  and  C_15
    4  A    between atoms: C_3  and  C_30
    5  A    between atoms: C_4  and  N_10
    6  A    between atoms: C_4  and  C_24
    7  A    between atoms: O_6  and  C_8
    8  A    between atoms: O_6  and  C_31
    9  A    between atoms: C_7  and  C_33
   10  A    between atoms: C_7  and  C_36
   11  A    between atoms: C_8  and  C_19
   12  A    between atoms: N_10  and  C_13
   13  A    between atoms: N_10  and  C_30
   14  A    between atoms: C_11  and  C_26
   15  A    between atoms: C_13  and  C_20
   16  A    between atoms: C_14  and  C_31
   17  A    between atoms: C_14  and  C_37
   18  A    between atoms: C_15  and  C_19
   19  A    between atoms: C_17  and  C_26
   20  A    between atoms: C_17  and  C_33
   21  A    between atoms: C_20  and  C_21
   22  A    between atoms: C_20  and  C_29
   23  A    between atoms: C_21  and  C_25
   24  A    between atoms: C_23  and  C_25
   25  A    between atoms: C_24  and  C_28
   26  A    between atoms: C_29  and  C_36
   27  A    between atoms: C_30  and  C_32
                            x       y       z     vdW  Elec       q    Type
                         _______ _______ _______ _____ _____    ______ ____

>  <TORSDO>
F 27

$$$$
