=
 OpenBabel10262423113D

 34 39  0  0  0  0  0  0  0  0999 V2000
  186.9300  178.1620  143.8760 C   0  0  0  0  0  0  0  0  0  0  0  0
  187.9080  177.5590  147.4790 C   0  0  0  0  0  3  0  0  0  0  0  0
  185.8810  178.2600  146.5100 C   0  0  0  0  0  3  0  0  0  0  0  0
  186.2030  178.6400  141.4380 C   0  0  0  0  0  0  0  0  0  0  0  0
  187.3170  178.1660  142.4040 C   0  0  0  0  0  2  0  0  0  0  0  0
  184.6940  178.9010  143.3150 C   0  0  0  0  0  0  0  0  0  0  0  0
  183.5700  179.1950  144.0100 N   0  0  0  0  0  0  0  0  0  0  0  0
  184.9680  178.9690  141.8800 C   0  0  0  0  0  3  0  0  0  0  0  0
  185.1160  178.5840  145.3980 C   0  0  0  0  0  0  0  0  0  0  0  0
  185.6460  178.5230  144.1730 C   0  0  0  0  0  0  0  0  0  0  0  0
  183.8340  178.9970  145.3080 N   0  0  0  0  0  0  0  0  0  0  0  0
  189.2120  177.1440  147.6980 C   0  0  0  0  0  3  0  0  0  0  0  0
  190.2410  176.9070  146.7970 C   0  0  0  0  0  0  0  0  0  0  0  0
  190.1480  177.0540  145.4190 C   0  0  0  0  0  3  0  0  0  0  0  0
  187.2310  177.8650  146.3050 C   0  0  0  0  0  0  0  0  0  0  0  0
  189.0770  177.4470  144.6310 C   0  0  0  0  0  3  0  0  0  0  0  0
  187.7750  177.8130  144.9660 C   0  0  0  0  0  0  0  0  0  0  0  0
  191.5360  176.4680  147.3540 C   0  0  0  0  0  0  0  0  0  0  0  0
  192.1600  175.3260  146.8640 O   0  0  0  0  0  0  0  0  0  0  0  0
  192.0930  177.1200  148.2780 O   0  0  0  0  0  1  0  0  0  0  0  0
  186.4250  178.7040  140.0540 O   0  0  0  0  0  0  0  0  0  0  0  0
  188.1800  177.1430  137.2440 N   0  0  0  0  0  0  0  0  0  0  0  0
  188.6420  177.6410  139.9210 C   0  0  0  0  0  3  0  0  0  0  0  0
  191.7440  176.4090  137.4030 N   0  0  0  0  0  0  0  0  0  0  0  0
  192.7980  176.3770  136.4330 C   0  0  0  0  0  0  0  0  0  0  0  0
  190.3870  176.0430  136.9790 C   0  0  0  0  0  2  0  0  0  0  0  0
  193.9830  176.6440  136.7670 O   0  0  0  0  0  1  0  0  0  0  0  0
  189.3620  176.7600  137.7970 C   0  0  0  0  0  0  0  0  0  0  0  0
  192.5240  176.0510  135.1090 O   0  0  0  0  0  0  0  0  0  0  0  0
  190.8930  176.5340  139.7560 C   0  0  0  0  0  2  0  0  0  0  0  0
  189.6130  177.0050  139.1500 C   0  0  0  0  0  0  0  0  0  0  0  0
  192.0640  176.7650  138.7960 C   0  0  0  0  0  2  0  0  0  0  0  0
  187.4280  178.0330  139.3390 C   0  0  0  0  0  0  0  0  0  0  0  0
  187.2230  177.7730  137.9790 C   0  0  0  0  0  3  0  0  0  0  0  0
  1 10  1  0  0  0  0
  1 17  2  0  0  0  0
  2 12  1  0  0  0  0
  4  8  2  0  0  0  0
  4  5  1  0  0  0  0
  5  1  1  0  0  0  0
  6  7  1  0  0  0  0
  6 10  2  0  0  0  0
  7 11  2  0  0  0  0
  8  6  1  0  0  0  0
  9  3  2  0  0  0  0
 10  9  1  0  0  0  0
 11  9  1  0  0  0  0
 13 18  1  0  0  0  0
 13 12  2  0  0  0  0
 14 13  1  0  0  0  0
 15  3  1  0  0  0  0
 15  2  2  0  0  0  0
 16 17  1  0  0  0  0
 16 14  2  0  0  0  0
 17 15  1  0  0  0  0
 18 20  1  0  0  0  0
 19 18  2  0  0  0  0
 21  4  1  0  0  0  0
 22 28  2  0  0  0  0
 22 34  1  0  0  0  0
 24 32  1  0  0  0  0
 25 27  1  0  0  0  0
 25 24  1  0  0  0  0
 26 24  1  0  0  0  0
 26 28  1  0  0  0  0
 28 31  1  0  0  0  0
 29 25  2  0  0  0  0
 31 30  1  0  0  0  0
 31 23  2  0  0  0  0
 32 30  1  0  0  0  0
 33 23  1  0  0  0  0
 33 21  1  0  0  0  0
 34 33  2  0  0  0  0
M  END
>  <MODEL>
1

>  <REMARK>
 VINA RESULT:     -12.5      0.000      0.000
  Name = 
  3 active torsions:
  status: ('A' for Active; 'I' for Inactive)
    1  A    between atoms: C_3  and  C_25
    2  A    between atoms: C_8  and  O_18
    3  A    between atoms: O_18  and  C_30
                            x       y       z     vdW  Elec       q    Type
                         _______ _______ _______ _____ _____    ______ ____

>  <TORSDO>
F 3

$$$$
=
 OpenBabel10262423113D

 34 39  0  0  0  0  0  0  0  0999 V2000
  186.9130  178.1520  143.8810 C   0  0  0  0  0  0  0  0  0  0  0  0
  187.9310  177.5420  147.4710 C   0  0  0  0  0  3  0  0  0  0  0  0
  185.8920  178.2410  146.5260 C   0  0  0  0  0  3  0  0  0  0  0  0
  186.1600  178.6360  141.4520 C   0  0  0  0  0  0  0  0  0  0  0  0
  187.2850  178.1610  142.4040 C   0  0  0  0  0  2  0  0  0  0  0  0
  184.6700  178.8880  143.3460 C   0  0  0  0  0  0  0  0  0  0  0  0
  183.5530  179.1780  144.0530 N   0  0  0  0  0  0  0  0  0  0  0  0
  184.9290  178.9610  141.9070 C   0  0  0  0  0  3  0  0  0  0  0  0
  185.1150  178.5660  145.4230 C   0  0  0  0  0  0  0  0  0  0  0  0
  185.6320  178.5100  144.1920 C   0  0  0  0  0  0  0  0  0  0  0  0
  183.8310  178.9770  145.3480 N   0  0  0  0  0  0  0  0  0  0  0  0
  189.2380  177.1280  147.6760 C   0  0  0  0  0  3  0  0  0  0  0  0
  190.2570  176.8960  146.7630 C   0  0  0  0  0  0  0  0  0  0  0  0
  190.1490  177.0470  145.3860 C   0  0  0  0  0  3  0  0  0  0  0  0
  187.2410  177.8490  146.3060 C   0  0  0  0  0  0  0  0  0  0  0  0
  189.0700  177.4400  144.6110 C   0  0  0  0  0  3  0  0  0  0  0  0
  187.7700  177.8020  144.9610 C   0  0  0  0  0  0  0  0  0  0  0  0
  191.5590  176.4580  147.3040 C   0  0  0  0  0  0  0  0  0  0  0  0
  192.2110  175.3550  146.7620 O   0  0  0  0  0  0  0  0  0  0  0  0
  192.0970  177.0740  148.2640 O   0  0  0  0  0  1  0  0  0  0  0  0
  186.3670  178.7050  140.0660 O   0  0  0  0  0  0  0  0  0  0  0  0
  189.8240  177.9930  139.0900 N   0  0  0  0  0  0  0  0  0  0  0  0
  187.2830  177.2490  138.3040 C   0  0  0  0  0  3  0  0  0  0  0  0
  190.6460  175.1820  136.9230 N   0  0  0  0  0  0  0  0  0  0  0  0
  191.7720  174.3030  136.8170 C   0  0  0  0  0  0  0  0  0  0  0  0
  190.8720  176.5680  137.3510 C   0  0  0  0  0  2  0  0  0  0  0  0
  191.6230  173.1190  136.4130 O   0  0  0  0  0  0  0  0  0  0  0  0
  189.6770  177.1070  138.0690 C   0  0  0  0  0  0  0  0  0  0  0  0
  193.0440  174.7490  137.1590 O   0  0  0  0  0  1  0  0  0  0  0  0
  188.2500  175.7850  136.5030 C   0  0  0  0  0  2  0  0  0  0  0  0
  188.3990  176.7180  137.6580 C   0  0  0  0  0  0  0  0  0  0  0  0
  189.3090  174.6790  136.5610 C   0  0  0  0  0  2  0  0  0  0  0  0
  187.4480  178.1610  139.3570 C   0  0  0  0  0  0  0  0  0  0  0  0
  188.7470  178.5150  139.7380 C   0  0  0  0  0  3  0  0  0  0  0  0
  1 10  1  0  0  0  0
  1 17  2  0  0  0  0
  2 12  1  0  0  0  0
  4  8  2  0  0  0  0
  4  5  1  0  0  0  0
  5  1  1  0  0  0  0
  6  7  1  0  0  0  0
  6 10  2  0  0  0  0
  7 11  2  0  0  0  0
  8  6  1  0  0  0  0
  9  3  2  0  0  0  0
 10  9  1  0  0  0  0
 11  9  1  0  0  0  0
 13 18  1  0  0  0  0
 13 12  2  0  0  0  0
 14 13  1  0  0  0  0
 15  3  1  0  0  0  0
 15  2  2  0  0  0  0
 16 17  1  0  0  0  0
 16 14  2  0  0  0  0
 17 15  1  0  0  0  0
 18 20  1  0  0  0  0
 19 18  2  0  0  0  0
 21  4  1  0  0  0  0
 22 34  1  0  0  0  0
 23 33  1  0  0  0  0
 24 26  1  0  0  0  0
 25 24  1  0  0  0  0
 25 29  1  0  0  0  0
 26 28  1  0  0  0  0
 27 25  2  0  0  0  0
 28 22  2  0  0  0  0
 30 32  1  0  0  0  0
 30 31  1  0  0  0  0
 31 28  1  0  0  0  0
 31 23  2  0  0  0  0
 32 24  1  0  0  0  0
 33 34  2  0  0  0  0
 33 21  1  0  0  0  0
M  END
>  <MODEL>
2

>  <REMARK>
 VINA RESULT:     -12.2      1.094      1.627
  Name = 
  3 active torsions:
  status: ('A' for Active; 'I' for Inactive)
    1  A    between atoms: C_3  and  C_25
    2  A    between atoms: C_8  and  O_18
    3  A    between atoms: O_18  and  C_30
                            x       y       z     vdW  Elec       q    Type
                         _______ _______ _______ _____ _____    ______ ____

>  <TORSDO>
F 3

$$$$
=
 OpenBabel10262423113D

 34 39  0  0  0  0  0  0  0  0999 V2000
  187.5600  177.8680  145.0170 C   0  0  0  0  0  0  0  0  0  0  0  0
  191.0900  176.9010  144.0700 C   0  0  0  0  0  3  0  0  0  0  0  0
  190.0770  177.2470  146.1660 C   0  0  0  0  0  3  0  0  0  0  0  0
  185.1760  178.5750  145.7370 C   0  0  0  0  0  0  0  0  0  0  0  0
  186.1440  178.2240  144.5810 C   0  0  0  0  0  3  0  0  0  0  0  0
  186.9360  178.1300  147.3410 C   0  0  0  0  0  0  0  0  0  0  0  0
  187.5710  178.0170  148.5300 N   0  0  0  0  0  2  0  0  0  0  0  0
  185.5580  178.5130  147.0330 C   0  0  0  0  0  3  0  0  0  0  0  0
  188.9700  177.5650  146.9400 C   0  0  0  0  0  0  0  0  0  0  0  0
  187.8010  177.8500  146.3610 C   0  0  0  0  0  0  0  0  0  0  0  0
  188.8390  177.6640  148.2800 N   0  0  0  0  0  0  0  0  0  0  0  0
  191.3510  176.7820  142.7140 C   0  0  0  0  0  3  0  0  0  0  0  0
  190.5130  176.9630  141.6220 C   0  0  0  0  0  0  0  0  0  0  0  0
  189.1730  177.3220  141.6910 C   0  0  0  0  0  3  0  0  0  0  0  0
  189.9270  177.2330  144.7520 C   0  0  0  0  0  0  0  0  0  0  0  0
  188.3700  177.5750  142.7920 C   0  0  0  0  0  3  0  0  0  0  0  0
  188.6480  177.5500  144.1570 C   0  0  0  0  0  0  0  0  0  0  0  0
  191.1000  176.7610  140.2820 C   0  0  0  0  0  0  0  0  0  0  0  0
  192.3130  177.3540  139.9490 O   0  0  0  0  0  1  0  0  0  0  0  0
  190.5120  176.0500  139.4230 O   0  0  0  0  0  0  0  0  0  0  0  0
  183.8430  178.9320  145.4810 O   0  0  0  0  0  0  0  0  0  0  0  0
  181.0950  178.8050  143.0630 N   0  0  0  0  0  0  0  0  0  0  0  0
  183.8560  178.7480  143.0260 C   0  0  0  0  0  3  0  0  0  0  0  0
  181.6740  179.3020  139.5010 N   0  0  0  0  0  0  0  0  0  0  0  0
  180.9020  179.8690  138.4370 C   0  0  0  0  0  0  0  0  0  0  0  0
  180.9720  178.6170  140.5930 C   0  0  0  0  0  2  0  0  0  0  0  0
  181.4710  180.4280  137.4610 O   0  0  0  0  0  0  0  0  0  0  0  0
  181.7420  178.7190  141.8700 C   0  0  0  0  0  0  0  0  0  0  0  0
  179.5130  179.8100  138.4690 O   0  0  0  0  0  1  0  0  0  0  0  0
  183.8350  178.5430  140.5200 C   0  0  0  0  0  2  0  0  0  0  0  0
  183.1380  178.6890  141.8320 C   0  0  0  0  0  0  0  0  0  0  0  0
  183.1440  179.3870  139.4430 C   0  0  0  0  0  2  0  0  0  0  0  0
  183.1780  178.8380  144.2490 C   0  0  0  0  0  0  0  0  0  0  0  0
  181.7780  178.8720  144.2390 C   0  0  0  0  0  3  0  0  0  0  0  0
  1 10  1  0  0  0  0
  2 15  1  0  0  0  0
  3  9  1  0  0  0  0
  4  8  2  0  0  0  0
  5  1  2  0  0  0  0
  5  4  1  0  0  0  0
  6  7  1  0  0  0  0
  8  6  1  0  0  0  0
  9 11  2  0  0  0  0
 10  9  1  0  0  0  0
 10  6  2  0  0  0  0
 11  7  1  0  0  0  0
 12  2  2  0  0  0  0
 13 14  2  0  0  0  0
 13 12  1  0  0  0  0
 14 16  1  0  0  0  0
 15  3  2  0  0  0  0
 16 17  2  0  0  0  0
 17 15  1  0  0  0  0
 17  1  1  0  0  0  0
 18 13  1  0  0  0  0
 19 18  1  0  0  0  0
 20 18  2  0  0  0  0
 21  4  1  0  0  0  0
 22 34  1  0  0  0  0
 23 33  1  0  0  0  0
 24 26  1  0  0  0  0
 25 29  1  0  0  0  0
 25 24  1  0  0  0  0
 26 28  1  0  0  0  0
 27 25  2  0  0  0  0
 28 22  2  0  0  0  0
 30 31  1  0  0  0  0
 31 28  1  0  0  0  0
 31 23  2  0  0  0  0
 32 24  1  0  0  0  0
 32 30  1  0  0  0  0
 33 21  1  0  0  0  0
 34 33  2  0  0  0  0
M  END
>  <MODEL>
3

>  <REMARK>
 VINA RESULT:     -11.8      3.702      7.231
  Name = 
  3 active torsions:
  status: ('A' for Active; 'I' for Inactive)
    1  A    between atoms: C_3  and  C_25
    2  A    between atoms: C_8  and  O_18
    3  A    between atoms: O_18  and  C_30
                            x       y       z     vdW  Elec       q    Type
                         _______ _______ _______ _____ _____    ______ ____

>  <TORSDO>
F 3

$$$$
=
 OpenBabel10262423113D

 34 39  0  0  0  0  0  0  0  0999 V2000
  186.5480  178.2690  143.8710 C   0  0  0  0  0  0  0  0  0  0  0  0
  187.8540  177.4780  147.3300 C   0  0  0  0  0  3  0  0  0  0  0  0
  185.7380  178.1930  146.5880 C   0  0  0  0  0  3  0  0  0  0  0  0
  185.5980  178.8730  141.5400 C   0  0  0  0  0  0  0  0  0  0  0  0
  186.8010  178.3660  142.3730 C   0  0  0  0  0  2  0  0  0  0  0  0
  184.2600  178.9940  143.5550 C   0  0  0  0  0  0  0  0  0  0  0  0
  183.1990  179.2250  144.3630 N   0  0  0  0  0  0  0  0  0  0  0  0
  184.4030  179.1510  142.1080 C   0  0  0  0  0  3  0  0  0  0  0  0
  184.8720  178.5650  145.5700 C   0  0  0  0  0  0  0  0  0  0  0  0
  185.2910  178.5860  144.3010 C   0  0  0  0  0  0  0  0  0  0  0  0
  183.5810  178.9570  145.6190 N   0  0  0  0  0  0  0  0  0  0  0  0
  189.1780  177.0770  147.4080 C   0  0  0  0  0  3  0  0  0  0  0  0
  190.1260  176.9140  146.4070 C   0  0  0  0  0  0  0  0  0  0  0  0
  189.9070  177.1390  145.0530 C   0  0  0  0  0  3  0  0  0  0  0  0
  187.0700  177.8370  146.2420 C   0  0  0  0  0  0  0  0  0  0  0  0
  188.7650  177.5550  144.3890 C   0  0  0  0  0  3  0  0  0  0  0  0
  187.4920  177.8740  144.8580 C   0  0  0  0  0  0  0  0  0  0  0  0
  191.4720  176.4690  146.8190 C   0  0  0  0  0  0  0  0  0  0  0  0
  192.0560  176.9740  147.9750 O   0  0  0  0  0  1  0  0  0  0  0  0
  192.1100  175.6280  146.1300 O   0  0  0  0  0  0  0  0  0  0  0  0
  185.6940  179.0220  140.1480 O   0  0  0  0  0  0  0  0  0  0  0  0
  185.0880  177.2020  137.0280 N   0  0  0  0  0  0  0  0  0  0  0  0
  183.7360  177.7440  139.3740 C   0  0  0  0  0  3  0  0  0  0  0  0
  182.3260  174.8480  136.7080 N   0  0  0  0  0  0  0  0  0  0  0  0
  182.1320  173.6350  135.9710 C   0  0  0  0  0  0  0  0  0  0  0  0
  183.1810  175.8930  136.1310 C   0  0  0  0  0  2  0  0  0  0  0  0
  181.3720  172.7330  136.4140 O   0  0  0  0  0  1  0  0  0  0  0  0
  183.8370  176.6990  137.2060 C   0  0  0  0  0  0  0  0  0  0  0  0
  182.7820  173.4400  134.7580 O   0  0  0  0  0  0  0  0  0  0  0  0
  181.7470  176.4470  138.5490 C   0  0  0  0  0  2  0  0  0  0  0  0
  183.1380  176.9620  138.3870 C   0  0  0  0  0  0  0  0  0  0  0  0
  181.6290  175.0230  137.9950 C   0  0  0  0  0  2  0  0  0  0  0  0
  185.0270  178.2560  139.1800 C   0  0  0  0  0  0  0  0  0  0  0  0
  185.6910  177.9600  137.9840 C   0  0  0  0  0  3  0  0  0  0  0  0
  1 10  1  0  0  0  0
  1 17  2  0  0  0  0
  2 12  1  0  0  0  0
  4  8  2  0  0  0  0
  4  5  1  0  0  0  0
  5  1  1  0  0  0  0
  6 10  2  0  0  0  0
  6  7  1  0  0  0  0
  7 11  2  0  0  0  0
  8  6  1  0  0  0  0
  9 11  1  0  0  0  0
  9  3  2  0  0  0  0
 10  9  1  0  0  0  0
 13 18  1  0  0  0  0
 13 12  2  0  0  0  0
 14 13  1  0  0  0  0
 15  3  1  0  0  0  0
 15  2  2  0  0  0  0
 16 17  1  0  0  0  0
 16 14  2  0  0  0  0
 17 15  1  0  0  0  0
 18 19  1  0  0  0  0
 20 18  2  0  0  0  0
 21  4  1  0  0  0  0
 22 28  2  0  0  0  0
 22 34  1  0  0  0  0
 24 32  1  0  0  0  0
 25 27  1  0  0  0  0
 25 24  1  0  0  0  0
 26 24  1  0  0  0  0
 26 28  1  0  0  0  0
 28 31  1  0  0  0  0
 29 25  2  0  0  0  0
 31 30  1  0  0  0  0
 31 23  2  0  0  0  0
 32 30  1  0  0  0  0
 33 23  1  0  0  0  0
 33 21  1  0  0  0  0
 34 33  2  0  0  0  0
M  END
>  <MODEL>
4

>  <REMARK>
 VINA RESULT:     -11.5      3.546      5.059
  Name = 
  3 active torsions:
  status: ('A' for Active; 'I' for Inactive)
    1  A    between atoms: C_3  and  C_25
    2  A    between atoms: C_8  and  O_18
    3  A    between atoms: O_18  and  C_30
                            x       y       z     vdW  Elec       q    Type
                         _______ _______ _______ _____ _____    ______ ____

>  <TORSDO>
F 3

$$$$
=
 OpenBabel10262423113D

 34 39  0  0  0  0  0  0  0  0999 V2000
  185.4730  178.4550  142.9420 C   0  0  0  0  0  0  0  0  0  0  0  0
  185.4130  178.2650  146.7180 C   0  0  0  0  0  3  0  0  0  0  0  0
  183.6980  178.6290  145.1480 C   0  0  0  0  0  3  0  0  0  0  0  0
  185.4460  178.6460  140.3610 C   0  0  0  0  0  0  0  0  0  0  0  0
  186.2700  178.3920  141.6470 C   0  0  0  0  0  2  0  0  0  0  0  0
  183.4370  178.8630  141.6980 C   0  0  0  0  0  0  0  0  0  0  0  0
  182.1370  179.0690  142.0120 N   0  0  0  0  0  0  0  0  0  0  0  0
  184.1100  178.8520  140.3980 C   0  0  0  0  0  3  0  0  0  0  0  0
  183.2630  178.7660  143.8370 C   0  0  0  0  0  0  0  0  0  0  0  0
  184.1300  178.6760  142.8250 C   0  0  0  0  0  0  0  0  0  0  0  0
  182.0290  179.0080  143.3460 N   0  0  0  0  0  0  0  0  0  0  0  0
  186.6300  178.0340  147.3400 C   0  0  0  0  0  3  0  0  0  0  0  0
  187.8950  177.8570  146.7960 C   0  0  0  0  0  0  0  0  0  0  0  0
  188.1930  177.8830  145.4390 C   0  0  0  0  0  3  0  0  0  0  0  0
  185.0810  178.3900  145.3760 C   0  0  0  0  0  0  0  0  0  0  0  0
  187.3660  178.0760  144.3440 C   0  0  0  0  0  3  0  0  0  0  0  0
  185.9940  178.3020  144.2570 C   0  0  0  0  0  0  0  0  0  0  0  0
  189.0080  177.6280  147.7380 C   0  0  0  0  0  0  0  0  0  0  0  0
  190.0150  176.7200  147.4290 O   0  0  0  0  0  0  0  0  0  0  0  0
  189.0610  178.2500  148.8330 O   0  0  0  0  0  1  0  0  0  0  0  0
  186.0540  178.6280  139.0960 O   0  0  0  0  0  0  0  0  0  0  0  0
  188.2150  176.4300  137.1200 N   0  0  0  0  0  0  0  0  0  0  0  0
  188.3590  177.8540  139.4810 C   0  0  0  0  0  3  0  0  0  0  0  0
  191.7970  176.2220  137.7480 N   0  0  0  0  0  0  0  0  0  0  0  0
  192.9420  175.9890  136.9190 C   0  0  0  0  0  0  0  0  0  0  0  0
  190.5280  175.5760  137.3930 C   0  0  0  0  0  2  0  0  0  0  0  0
  194.0580  176.4930  137.2140 O   0  0  0  0  0  1  0  0  0  0  0  0
  189.3650  176.4000  137.8450 C   0  0  0  0  0  0  0  0  0  0  0  0
  192.8320  175.2050  135.7750 O   0  0  0  0  0  0  0  0  0  0  0  0
  190.7060  177.0320  139.8530 C   0  0  0  0  0  2  0  0  0  0  0  0
  189.4570  177.1150  139.0420 C   0  0  0  0  0  0  0  0  0  0  0  0
  191.9420  177.0630  138.9490 C   0  0  0  0  0  2  0  0  0  0  0  0
  187.1800  177.8790  138.7230 C   0  0  0  0  0  0  0  0  0  0  0  0
  187.1370  177.1530  137.5270 C   0  0  0  0  0  3  0  0  0  0  0  0
  1 17  2  0  0  0  0
  2 12  1  0  0  0  0
  3 15  1  0  0  0  0
  4  8  2  0  0  0  0
  4  5  1  0  0  0  0
  5  1  1  0  0  0  0
  6  7  1  0  0  0  0
  6 10  2  0  0  0  0
  7 11  2  0  0  0  0
  8  6  1  0  0  0  0
  9  3  2  0  0  0  0
 10  1  1  0  0  0  0
 10  9  1  0  0  0  0
 11  9  1  0  0  0  0
 13 12  2  0  0  0  0
 13 18  1  0  0  0  0
 14 13  1  0  0  0  0
 15  2  2  0  0  0  0
 16 14  2  0  0  0  0
 17 16  1  0  0  0  0
 17 15  1  0  0  0  0
 18 20  1  0  0  0  0
 19 18  2  0  0  0  0
 21  4  1  0  0  0  0
 22 34  2  0  0  0  0
 22 28  1  0  0  0  0
 24 32  1  0  0  0  0
 25 27  1  0  0  0  0
 25 24  1  0  0  0  0
 26 24  1  0  0  0  0
 26 28  1  0  0  0  0
 28 31  2  0  0  0  0
 29 25  2  0  0  0  0
 31 23  1  0  0  0  0
 31 30  1  0  0  0  0
 32 30  1  0  0  0  0
 33 21  1  0  0  0  0
 33 23  2  0  0  0  0
 34 33  1  0  0  0  0
M  END
>  <MODEL>
5

>  <REMARK>
 VINA RESULT:     -11.5      1.235      1.832
  Name = 
  3 active torsions:
  status: ('A' for Active; 'I' for Inactive)
    1  A    between atoms: C_3  and  C_25
    2  A    between atoms: C_8  and  O_18
    3  A    between atoms: O_18  and  C_30
                            x       y       z     vdW  Elec       q    Type
                         _______ _______ _______ _____ _____    ______ ____

>  <TORSDO>
F 3

$$$$
=
 OpenBabel10262423113D

 34 39  0  0  0  0  0  0  0  0999 V2000
  187.5270  177.9870  143.2570 C   0  0  0  0  0  0  0  0  0  0  0  0
  188.0040  177.3160  146.9470 C   0  0  0  0  0  3  0  0  0  0  0  0
  186.1010  177.9340  145.7080 C   0  0  0  0  0  3  0  0  0  0  0  0
  187.1370  178.5080  140.7510 C   0  0  0  0  0  0  0  0  0  0  0  0
  188.1250  178.0650  141.8580 C   0  0  0  0  0  2  0  0  0  0  0  0
  185.3570  178.6180  142.3900 C   0  0  0  0  0  0  0  0  0  0  0  0
  184.1280  178.8230  142.9180 N   0  0  0  0  0  0  0  0  0  0  0  0
  185.8330  178.7520  141.0130 C   0  0  0  0  0  3  0  0  0  0  0  0
  185.4890  178.2520  144.5040 C   0  0  0  0  0  0  0  0  0  0  0  0
  186.1950  178.2640  143.3700 C   0  0  0  0  0  0  0  0  0  0  0  0
  184.2100  178.5950  144.2360 N   0  0  0  0  0  0  0  0  0  0  0  0
  189.2840  176.9680  147.3460 C   0  0  0  0  0  3  0  0  0  0  0  0
  190.4460  176.8210  146.6020 C   0  0  0  0  0  0  0  0  0  0  0  0
  190.5470  177.0110  145.2290 C   0  0  0  0  0  3  0  0  0  0  0  0
  187.4880  177.6230  145.6950 C   0  0  0  0  0  0  0  0  0  0  0  0
  189.5810  177.3700  144.3020 C   0  0  0  0  0  3  0  0  0  0  0  0
  188.2240  177.6490  144.4500 C   0  0  0  0  0  0  0  0  0  0  0  0
  191.6710  176.4370  147.3320 C   0  0  0  0  0  0  0  0  0  0  0  0
  192.4040  175.3230  146.9370 O   0  0  0  0  0  0  0  0  0  0  0  0
  192.0670  177.1100  148.3210 O   0  0  0  0  0  1  0  0  0  0  0  0
  187.5550  178.6340  139.4170 O   0  0  0  0  0  0  0  0  0  0  0  0
  188.5790  175.7580  137.3950 N   0  0  0  0  0  0  0  0  0  0  0  0
  186.4130  177.4610  137.5780 C   0  0  0  0  0  3  0  0  0  0  0  0
  186.1930  173.9470  135.3220 N   0  0  0  0  0  0  0  0  0  0  0  0
  186.0650  172.5790  134.9150 C   0  0  0  0  0  0  0  0  0  0  0  0
  187.5390  174.4950  135.5300 C   0  0  0  0  0  2  0  0  0  0  0  0
  184.9290  172.0850  134.6850 O   0  0  0  0  0  0  0  0  0  0  0  0
  187.5200  175.5780  136.5620 C   0  0  0  0  0  0  0  0  0  0  0  0
  187.1940  171.7820  134.7690 O   0  0  0  0  0  1  0  0  0  0  0  0
  185.2820  176.2530  135.6860 C   0  0  0  0  0  2  0  0  0  0  0  0
  186.4150  176.4290  136.6400 C   0  0  0  0  0  0  0  0  0  0  0  0
  184.9780  174.7660  135.4750 C   0  0  0  0  0  2  0  0  0  0  0  0
  187.5110  177.6350  138.4330 C   0  0  0  0  0  0  0  0  0  0  0  0
  188.5920  176.7530  138.3230 C   0  0  0  0  0  3  0  0  0  0  0  0
  1 10  1  0  0  0  0
  1 17  2  0  0  0  0
  2 12  1  0  0  0  0
  4  8  2  0  0  0  0
  4  5  1  0  0  0  0
  5  1  1  0  0  0  0
  6  7  1  0  0  0  0
  6 10  2  0  0  0  0
  7 11  2  0  0  0  0
  8  6  1  0  0  0  0
  9  3  2  0  0  0  0
 10  9  1  0  0  0  0
 11  9  1  0  0  0  0
 13 18  1  0  0  0  0
 13 12  2  0  0  0  0
 14 13  1  0  0  0  0
 15  3  1  0  0  0  0
 15  2  2  0  0  0  0
 16 17  1  0  0  0  0
 16 14  2  0  0  0  0
 17 15  1  0  0  0  0
 18 20  1  0  0  0  0
 19 18  2  0  0  0  0
 21  4  1  0  0  0  0
 22 34  1  0  0  0  0
 23 33  1  0  0  0  0
 24 32  1  0  0  0  0
 24 26  1  0  0  0  0
 25 24  1  0  0  0  0
 26 28  1  0  0  0  0
 27 25  2  0  0  0  0
 28 31  1  0  0  0  0
 28 22  2  0  0  0  0
 29 25  1  0  0  0  0
 30 31  1  0  0  0  0
 31 23  2  0  0  0  0
 32 30  1  0  0  0  0
 33 21  1  0  0  0  0
 34 33  2  0  0  0  0
M  END
>  <MODEL>
6

>  <REMARK>
 VINA RESULT:     -11.4      2.681      3.593
  Name = 
  3 active torsions:
  status: ('A' for Active; 'I' for Inactive)
    1  A    between atoms: C_3  and  C_25
    2  A    between atoms: C_8  and  O_18
    3  A    between atoms: O_18  and  C_30
                            x       y       z     vdW  Elec       q    Type
                         _______ _______ _______ _____ _____    ______ ____

>  <TORSDO>
F 3

$$$$
=
 OpenBabel10262423113D

 34 39  0  0  0  0  0  0  0  0999 V2000
  187.6200  177.9020  145.0560 C   0  0  0  0  0  0  0  0  0  0  0  0
  191.1560  176.9470  144.1160 C   0  0  0  0  0  3  0  0  0  0  0  0
  190.1340  177.2730  146.2100 C   0  0  0  0  0  3  0  0  0  0  0  0
  185.2330  178.5990  145.7720 C   0  0  0  0  0  0  0  0  0  0  0  0
  186.2070  178.2600  144.6170 C   0  0  0  0  0  3  0  0  0  0  0  0
  186.9860  178.1410  147.3800 C   0  0  0  0  0  0  0  0  0  0  0  0
  187.6160  178.0180  148.5710 N   0  0  0  0  0  2  0  0  0  0  0  0
  185.6090  178.5260  147.0690 C   0  0  0  0  0  3  0  0  0  0  0  0
  189.0230  177.5830  146.9820 C   0  0  0  0  0  0  0  0  0  0  0  0
  187.8550  177.8710  146.4000 C   0  0  0  0  0  0  0  0  0  0  0  0
  188.8850  177.6690  148.3230 N   0  0  0  0  0  0  0  0  0  0  0  0
  191.4230  176.8420  142.7600 C   0  0  0  0  0  3  0  0  0  0  0  0
  190.5900  177.0310  141.6660 C   0  0  0  0  0  0  0  0  0  0  0  0
  189.2490  177.3880  141.7320 C   0  0  0  0  0  3  0  0  0  0  0  0
  189.9900  177.2720  144.7960 C   0  0  0  0  0  0  0  0  0  0  0  0
  188.4410  177.6300  142.8320 C   0  0  0  0  0  3  0  0  0  0  0  0
  188.7120  177.5930  144.1980 C   0  0  0  0  0  0  0  0  0  0  0  0
  191.1830  176.8420  140.3270 C   0  0  0  0  0  0  0  0  0  0  0  0
  190.5700  176.0080  139.3980 O   0  0  0  0  0  0  0  0  0  0  0  0
  192.2510  177.4310  140.0080 O   0  0  0  0  0  1  0  0  0  0  0  0
  183.9010  178.9580  145.5130 O   0  0  0  0  0  0  0  0  0  0  0  0
  183.4340  178.9050  141.8810 N   0  0  0  0  0  0  0  0  0  0  0  0
  181.8620  178.7620  144.1470 C   0  0  0  0  0  3  0  0  0  0  0  0
  180.2930  177.8280  140.3850 N   0  0  0  0  0  0  0  0  0  0  0  0
  179.9480  177.1590  139.1650 C   0  0  0  0  0  0  0  0  0  0  0  0
  181.4580  178.7200  140.3930 C   0  0  0  0  0  2  0  0  0  0  0  0
  178.9310  176.4190  139.1080 O   0  0  0  0  0  1  0  0  0  0  0  0
  182.0880  178.7620  141.7480 C   0  0  0  0  0  0  0  0  0  0  0  0
  180.7350  177.3210  138.0300 O   0  0  0  0  0  0  0  0  0  0  0  0
  179.7970  178.5800  142.7230 C   0  0  0  0  0  2  0  0  0  0  0  0
  181.2770  178.6860  142.8830 C   0  0  0  0  0  0  0  0  0  0  0  0
  179.4440  177.6320  141.5730 C   0  0  0  0  0  2  0  0  0  0  0  0
  183.2510  178.9080  144.2700 C   0  0  0  0  0  0  0  0  0  0  0  0
  184.0240  178.9720  143.1060 C   0  0  0  0  0  3  0  0  0  0  0  0
  1 10  1  0  0  0  0
  2 15  1  0  0  0  0
  3  9  1  0  0  0  0
  4  8  2  0  0  0  0
  5  1  2  0  0  0  0
  5  4  1  0  0  0  0
  6  7  1  0  0  0  0
  8  6  1  0  0  0  0
  9 11  2  0  0  0  0
 10  9  1  0  0  0  0
 10  6  2  0  0  0  0
 11  7  1  0  0  0  0
 12  2  2  0  0  0  0
 13 14  2  0  0  0  0
 13 12  1  0  0  0  0
 14 16  1  0  0  0  0
 15  3  2  0  0  0  0
 16 17  2  0  0  0  0
 17 15  1  0  0  0  0
 17  1  1  0  0  0  0
 18 13  1  0  0  0  0
 19 18  2  0  0  0  0
 20 18  1  0  0  0  0
 21  4  1  0  0  0  0
 22 34  1  0  0  0  0
 23 33  1  0  0  0  0
 24 26  1  0  0  0  0
 24 32  1  0  0  0  0
 25 24  1  0  0  0  0
 26 28  1  0  0  0  0
 27 25  1  0  0  0  0
 28 22  2  0  0  0  0
 28 31  1  0  0  0  0
 29 25  2  0  0  0  0
 30 31  1  0  0  0  0
 31 23  2  0  0  0  0
 32 30  1  0  0  0  0
 33 21  1  0  0  0  0
 34 33  2  0  0  0  0
M  END
>  <MODEL>
7

>  <REMARK>
 VINA RESULT:     -11.4      3.604      7.616
  Name = 
  3 active torsions:
  status: ('A' for Active; 'I' for Inactive)
    1  A    between atoms: C_3  and  C_25
    2  A    between atoms: C_8  and  O_18
    3  A    between atoms: O_18  and  C_30
                            x       y       z     vdW  Elec       q    Type
                         _______ _______ _______ _____ _____    ______ ____

>  <TORSDO>
F 3

$$$$
=
 OpenBabel10262423113D

 34 39  0  0  0  0  0  0  0  0999 V2000
  187.6130  177.8810  144.5900 C   0  0  0  0  0  0  0  0  0  0  0  0
  184.1840  178.6210  146.0010 C   0  0  0  0  0  3  0  0  0  0  0  0
  186.2520  178.2260  147.0540 C   0  0  0  0  0  3  0  0  0  0  0  0
  189.9780  177.3230  143.6970 C   0  0  0  0  0  0  0  0  0  0  0  0
  188.5030  177.6670  143.3730 C   0  0  0  0  0  3  0  0  0  0  0  0
  189.5000  177.5250  146.0640 C   0  0  0  0  0  0  0  0  0  0  0  0
  189.6910  177.5120  147.4030 N   0  0  0  0  0  2  0  0  0  0  0  0
  190.4370  177.2730  144.9680 C   0  0  0  0  0  3  0  0  0  0  0  0
  187.6100  177.9490  146.9940 C   0  0  0  0  0  0  0  0  0  0  0  0
  188.2150  177.7960  145.8130 C   0  0  0  0  0  0  0  0  0  0  0  0
  188.5130  177.7770  147.9830 N   0  0  0  0  0  0  0  0  0  0  0  0
  183.1670  178.8030  145.0780 C   0  0  0  0  0  3  0  0  0  0  0  0
  183.1980  178.7580  143.6910 C   0  0  0  0  0  0  0  0  0  0  0  0
  184.3280  178.5040  142.9230 C   0  0  0  0  0  3  0  0  0  0  0  0
  185.5340  178.3400  145.8330 C   0  0  0  0  0  0  0  0  0  0  0  0
  185.6330  178.2470  143.3100 C   0  0  0  0  0  3  0  0  0  0  0  0
  186.2190  178.1640  144.5710 C   0  0  0  0  0  0  0  0  0  0  0  0
  181.9260  178.9970  142.9800 C   0  0  0  0  0  0  0  0  0  0  0  0
  180.7430  179.1630  143.6930 O   0  0  0  0  0  1  0  0  0  0  0  0
  181.8930  179.0520  141.7210 O   0  0  0  0  0  0  0  0  0  0  0  0
  190.9080  177.0890  142.6730 O   0  0  0  0  0  0  0  0  0  0  0  0
  191.4740  176.7870  139.0670 N   0  0  0  0  0  0  0  0  0  0  0  0
  189.4050  177.4750  140.7610 C   0  0  0  0  0  3  0  0  0  0  0  0
  188.7010  176.7330  136.7060 N   0  0  0  0  0  0  0  0  0  0  0  0
  188.4810  176.0950  135.4420 C   0  0  0  0  0  0  0  0  0  0  0  0
  190.0650  177.1460  137.0580 C   0  0  0  0  0  2  0  0  0  0  0  0
  187.3180  175.7630  135.0870 O   0  0  0  0  0  1  0  0  0  0  0  0
  190.2650  177.1170  138.5390 C   0  0  0  0  0  0  0  0  0  0  0  0
  189.5500  175.8330  134.5940 O   0  0  0  0  0  0  0  0  0  0  0  0
  187.9000  177.8770  138.7870 C   0  0  0  0  0  2  0  0  0  0  0  0
  189.2060  177.4670  139.3810 C   0  0  0  0  0  0  0  0  0  0  0  0
  187.5480  176.9910  137.5880 C   0  0  0  0  0  2  0  0  0  0  0  0
  190.6560  177.1310  141.2930 C   0  0  0  0  0  0  0  0  0  0  0  0
  191.6850  176.7800  140.4120 C   0  0  0  0  0  3  0  0  0  0  0  0
  1 10  1  0  0  0  0
  4  8  2  0  0  0  0
  5  4  1  0  0  0  0
  5  1  2  0  0  0  0
  6  7  1  0  0  0  0
  7 11  1  0  0  0  0
  8  6  1  0  0  0  0
  9  3  1  0  0  0  0
  9 11  2  0  0  0  0
 10  6  2  0  0  0  0
 10  9  1  0  0  0  0
 12  2  2  0  0  0  0
 13 12  1  0  0  0  0
 14 16  1  0  0  0  0
 14 13  2  0  0  0  0
 15  2  1  0  0  0  0
 15  3  2  0  0  0  0
 16 17  2  0  0  0  0
 17  1  1  0  0  0  0
 17 15  1  0  0  0  0
 18 13  1  0  0  0  0
 18 19  1  0  0  0  0
 20 18  2  0  0  0  0
 21  4  1  0  0  0  0
 22 34  1  0  0  0  0
 23 33  1  0  0  0  0
 24 26  1  0  0  0  0
 24 32  1  0  0  0  0
 25 24  1  0  0  0  0
 26 28  1  0  0  0  0
 27 25  1  0  0  0  0
 28 22  2  0  0  0  0
 28 31  1  0  0  0  0
 29 25  2  0  0  0  0
 30 31  1  0  0  0  0
 31 23  2  0  0  0  0
 32 30  1  0  0  0  0
 33 21  1  0  0  0  0
 34 33  2  0  0  0  0
M  END
>  <MODEL>
8

>  <REMARK>
 VINA RESULT:     -11.3      2.672      5.489
  Name = 
  3 active torsions:
  status: ('A' for Active; 'I' for Inactive)
    1  A    between atoms: C_3  and  C_25
    2  A    between atoms: C_8  and  O_18
    3  A    between atoms: O_18  and  C_30
                            x       y       z     vdW  Elec       q    Type
                         _______ _______ _______ _____ _____    ______ ____

>  <TORSDO>
F 3

$$$$
=
 OpenBabel10262423113D

 34 39  0  0  0  0  0  0  0  0999 V2000
  186.0380  177.9910  144.0500 C   0  0  0  0  0  0  0  0  0  0  0  0
  182.4510  179.0640  143.5250 C   0  0  0  0  0  3  0  0  0  0  0  0
  183.7770  178.9540  145.4660 C   0  0  0  0  0  3  0  0  0  0  0  0
  188.4710  177.2260  144.4920 C   0  0  0  0  0  0  0  0  0  0  0  0
  187.3440  177.4740  143.4600 C   0  0  0  0  0  3  0  0  0  0  0  0
  187.0230  178.0260  146.2610 C   0  0  0  0  0  0  0  0  0  0  0  0
  186.5990  178.3570  147.5030 N   0  0  0  0  0  2  0  0  0  0  0  0
  188.3120  177.5030  145.8060 C   0  0  0  0  0  3  0  0  0  0  0  0
  184.9800  178.6720  146.0990 C   0  0  0  0  0  0  0  0  0  0  0  0
  186.0230  178.2220  145.3960 C   0  0  0  0  0  0  0  0  0  0  0  0
  185.3260  178.7600  147.4010 N   0  0  0  0  0  0  0  0  0  0  0  0
  181.9770  179.0020  142.2250 C   0  0  0  0  0  3  0  0  0  0  0  0
  182.6130  178.6040  141.0570 C   0  0  0  0  0  0  0  0  0  0  0  0
  183.9270  178.1630  140.9720 C   0  0  0  0  0  3  0  0  0  0  0  0
  183.6930  178.7510  144.0620 C   0  0  0  0  0  0  0  0  0  0  0  0
  184.8870  178.0150  141.9600 C   0  0  0  0  0  3  0  0  0  0  0  0
  184.8400  178.2590  143.3310 C   0  0  0  0  0  0  0  0  0  0  0  0
  181.8230  178.6510  139.8100 C   0  0  0  0  0  0  0  0  0  0  0  0
  180.5160  178.1770  139.7870 O   0  0  0  0  0  1  0  0  0  0  0  0
  182.3220  179.1200  138.7510 O   0  0  0  0  0  0  0  0  0  0  0  0
  189.7250  176.7390  144.0900 O   0  0  0  0  0  0  0  0  0  0  0  0
  192.3040  177.4060  141.5770 N   0  0  0  0  0  0  0  0  0  0  0  0
  189.6260  176.7360  141.6300 C   0  0  0  0  0  3  0  0  0  0  0  0
  191.8210  176.5190  138.0770 N   0  0  0  0  0  0  0  0  0  0  0  0
  192.6990  176.0980  137.0260 C   0  0  0  0  0  0  0  0  0  0  0  0
  192.3350  177.4410  139.0970 C   0  0  0  0  0  2  0  0  0  0  0  0
  192.2820  175.3400  136.1100 O   0  0  0  0  0  0  0  0  0  0  0  0
  191.6390  177.2340  140.4040 C   0  0  0  0  0  0  0  0  0  0  0  0
  194.0230  176.5210  137.0070 O   0  0  0  0  0  1  0  0  0  0  0  0
  189.5530  176.7570  139.1170 C   0  0  0  0  0  2  0  0  0  0  0  0
  190.2840  176.8930  140.4110 C   0  0  0  0  0  0  0  0  0  0  0  0
  190.4240  176.0480  138.0750 C   0  0  0  0  0  2  0  0  0  0  0  0
  190.3230  176.9140  142.8330 C   0  0  0  0  0  0  0  0  0  0  0  0
  191.6810  177.2480  142.7770 C   0  0  0  0  0  3  0  0  0  0  0  0
  1 10  1  0  0  0  0
  2 15  1  0  0  0  0
  3  9  1  0  0  0  0
  4  8  2  0  0  0  0
  5  1  2  0  0  0  0
  5  4  1  0  0  0  0
  6  7  1  0  0  0  0
  8  6  1  0  0  0  0
  9 11  2  0  0  0  0
 10  9  1  0  0  0  0
 10  6  2  0  0  0  0
 11  7  1  0  0  0  0
 12  2  2  0  0  0  0
 13 12  1  0  0  0  0
 14 13  2  0  0  0  0
 14 16  1  0  0  0  0
 15  3  2  0  0  0  0
 16 17  2  0  0  0  0
 17  1  1  0  0  0  0
 17 15  1  0  0  0  0
 18 13  1  0  0  0  0
 19 18  1  0  0  0  0
 20 18  2  0  0  0  0
 21  4  1  0  0  0  0
 22 34  1  0  0  0  0
 23 33  1  0  0  0  0
 24 26  1  0  0  0  0
 25 24  1  0  0  0  0
 26 28  1  0  0  0  0
 27 25  2  0  0  0  0
 28 31  1  0  0  0  0
 28 22  2  0  0  0  0
 29 25  1  0  0  0  0
 30 31  1  0  0  0  0
 31 23  2  0  0  0  0
 32 24  1  0  0  0  0
 32 30  1  0  0  0  0
 33 21  1  0  0  0  0
 34 33  2  0  0  0  0
M  END
>  <MODEL>
9

>  <REMARK>
 VINA RESULT:     -11.3      2.300      5.843
  Name = 
  3 active torsions:
  status: ('A' for Active; 'I' for Inactive)
    1  A    between atoms: C_3  and  C_25
    2  A    between atoms: C_8  and  O_18
    3  A    between atoms: O_18  and  C_30
                            x       y       z     vdW  Elec       q    Type
                         _______ _______ _______ _____ _____    ______ ____

>  <TORSDO>
F 3

$$$$
