=
 OpenBabel10262421413D

 32 36  0  0  1  0  0  0  0  0999 V2000
  187.7110  177.2400  143.7600 C   0  0  1  0  0  3  0  0  0  0  0  0
  190.6120  176.9650  139.6210 C   0  0  1  0  0  3  0  0  0  0  0  0
  192.7700  176.5840  138.3380 C   0  0  0  0  0  0  0  0  0  0  0  0
  193.4460  176.3870  137.0350 C   0  0  0  0  0  0  0  0  0  0  0  0
  189.7140  176.6990  141.6800 C   0  0  1  0  0  3  0  0  0  0  0  0
  188.7770  178.5520  140.3040 C   0  0  0  0  0  2  0  0  0  0  0  0
  194.7000  176.0260  134.5940 N   0  0  0  0  0  0  0  0  0  0  0  0
  187.9870  178.2500  142.6490 C   0  0  0  0  0  2  0  0  0  0  0  0
  189.4840  177.8950  139.1140 C   0  0  2  0  0  3  0  0  0  0  0  0
  188.4960  177.1540  138.1760 C   0  0  2  0  0  3  0  0  0  0  0  0
  190.5920  176.4470  137.1260 C   0  0  2  0  0  3  0  0  0  0  0  0
  195.4290  176.4560  135.6580 C   0  0  0  0  0  3  0  0  0  0  0  0
  188.9730  176.4300  144.0550 C   0  0  0  0  0  2  0  0  0  0  0  0
  188.4540  177.5290  141.3880 C   0  0  2  0  0  3  0  0  0  0  0  0
  194.8150  176.6430  136.8970 C   0  0  0  0  0  3  0  0  0  0  0  0
  189.4360  175.6990  142.7980 C   0  0  0  0  0  2  0  0  0  0  0  0
  189.1390  176.2230  137.2260 N   0  0  0  0  0  0  0  0  0  0  0  0
  191.2430  175.6310  136.0100 C   0  0  0  0  0  2  0  0  0  0  0  0
  190.1010  176.0090  140.5200 O   0  0  0  0  0  0  0  0  0  0  0  0
  193.4260  176.9710  139.3440 O   0  0  0  0  0  0  0  0  0  0  0  0
  193.3680  175.7710  134.6950 C   0  0  0  0  0  3  0  0  0  0  0  0
  191.3120  176.2340  138.4690 C   0  0  2  0  0  3  0  0  0  0  0  0
  192.7080  175.9550  135.9120 C   0  0  0  0  0  0  0  0  0  0  0  0
  188.4450  179.3000  137.0190 N   0  0  0  0  0  1  0  0  0  0  0  0
  187.6480  178.1460  137.3930 C   0  0  0  0  0  2  0  0  0  0  0  0
  187.7250  174.2760  136.8370 C   0  0  0  0  0  1  0  0  0  0  0  0
  188.8520  174.8590  137.6670 C   0  0  0  0  0  2  0  0  0  0  0  0
  187.2600  177.9790  145.0060 C   0  0  0  0  0  2  0  0  0  0  0  0
  185.1260  178.8580  146.0190 C   0  0  0  0  0  0  0  0  0  0  0  0
  185.8170  178.1600  144.9830 N   0  0  0  0  0  2  0  0  0  0  0  0
  183.7480  179.0030  145.9480 O   0  0  0  0  0  0  0  0  0  0  0  0
  185.7570  179.3420  146.9960 O   0  0  0  0  0  1  0  0  0  0  0  0
  1 13  1  0  0  0  0
  1 28  1  1  0  0  0
  2 19  1  1  0  0  0
  3 20  2  0  0  0  0
  4  3  1  0  0  0  0
  5 16  1  1  0  0  0
  7 21  2  0  0  0  0
  7 12  1  0  0  0  0
  8  1  1  0  0  0  0
  9  2  1  0  0  0  0
  9  6  1  1  0  0  0
 10 25  1  6  0  0  0
 10  9  1  0  0  0  0
 11 18  1  6  0  0  0
 11 17  1  0  0  0  0
 11 22  1  0  0  0  0
 12 15  2  0  0  0  0
 14  6  1  6  0  0  0
 14  5  1  0  0  0  0
 14  8  1  0  0  0  0
 15  4  1  0  0  0  0
 16 13  1  0  0  0  0
 17 27  1  0  0  0  0
 17 10  1  0  0  0  0
 19  5  1  0  0  0  0
 21 23  1  0  0  0  0
 22  3  1  6  0  0  0
 22  2  1  0  0  0  0
 23 18  1  0  0  0  0
 23  4  2  0  0  0  0
 24 25  1  0  0  0  0
 26 27  1  0  0  0  0
 29 32  1  0  0  0  0
 30 28  1  0  0  0  0
 30 29  1  0  0  0  0
 31 29  2  0  0  0  0
M  END
>  <MODEL>
1

>  <REMARK>
 VINA RESULT:      -7.4      0.000      0.000
  Name = 
  4 active torsions:
  status: ('A' for Active; 'I' for Inactive)
    1  A    between atoms: C_2  and  C_24
    2  A    between atoms: N_10  and  C_24
    3  A    between atoms: C_13  and  C_15
    4  A    between atoms: C_25  and  N_26
                            x       y       z     vdW  Elec       q    Type
                         _______ _______ _______ _____ _____    ______ ____

>  <TORSDO>
F 4

$$$$
=
 OpenBabel10262421413D

 32 36  0  0  1  0  0  0  0  0999 V2000
  186.0530  177.7210  143.1530 C   0  0  1  0  0  3  0  0  0  0  0  0
  182.7190  179.7550  139.9320 C   0  0  1  0  0  3  0  0  0  0  0  0
  181.9070  181.4330  138.2080 C   0  0  0  0  0  0  0  0  0  0  0  0
  180.8940  181.8140  137.1970 C   0  0  0  0  0  0  0  0  0  0  0  0
  184.6010  179.0950  141.0000 C   0  0  1  0  0  3  0  0  0  0  0  0
  182.4620  178.7460  142.2270 C   0  0  0  0  0  2  0  0  0  0  0  0
  178.9900  182.5200  135.3150 N   0  0  0  0  0  0  0  0  0  0  0  0
  184.6200  178.2080  143.3530 C   0  0  0  0  0  2  0  0  0  0  0  0
  181.7650  178.9990  140.8870 C   0  0  2  0  0  3  0  0  0  0  0  0
  181.2180  177.6950  140.2510 C   0  0  2  0  0  3  0  0  0  0  0  0
  180.7590  179.2240  138.3940 C   0  0  2  0  0  3  0  0  0  0  0  0
  179.7770  183.4850  135.8590 C   0  0  0  0  0  3  0  0  0  0  0  0
  186.7730  178.6180  142.1470 C   0  0  0  0  0  2  0  0  0  0  0  0
  183.8740  178.2070  142.0230 C   0  0  2  0  0  3  0  0  0  0  0  0
  180.7420  183.1500  136.8100 C   0  0  0  0  0  3  0  0  0  0  0  0
  186.0350  178.6100  140.8110 C   0  0  0  0  0  2  0  0  0  0  0  0
  180.8560  177.8180  138.8230 N   0  0  0  0  0  0  0  0  0  0  0  0
  180.1970  179.3760  136.9810 C   0  0  0  0  0  2  0  0  0  0  0  0
  183.9250  179.0440  139.7700 O   0  0  0  0  0  0  0  0  0  0  0  0
  182.6580  182.3080  138.7190 O   0  0  0  0  0  0  0  0  0  0  0  0
  179.1110  181.2130  135.6730 C   0  0  0  0  0  3  0  0  0  0  0  0
  182.0900  179.9790  138.5520 C   0  0  2  0  0  3  0  0  0  0  0  0
  180.0560  180.8310  136.6280 C   0  0  0  0  0  0  0  0  0  0  0  0
  179.0800  176.5290  140.1170 N   0  0  0  0  0  1  0  0  0  0  0  0
  180.0090  177.1840  141.0210 C   0  0  0  0  0  2  0  0  0  0  0  0
  182.5140  176.0320  138.8920 C   0  0  0  0  0  1  0  0  0  0  0  0
  181.8620  177.1030  138.0390 C   0  0  0  0  0  2  0  0  0  0  0  0
  186.7790  177.7410  144.4850 C   0  0  0  0  0  2  0  0  0  0  0  0
  186.3850  178.6200  146.8140 C   0  0  0  0  0  0  0  0  0  0  0  0
  186.0800  178.6100  145.4200 N   0  0  0  0  0  2  0  0  0  0  0  0
  185.6880  179.4680  147.6630 O   0  0  0  0  0  1  0  0  0  0  0  0
  187.2810  177.8660  147.2800 O   0  0  0  0  0  0  0  0  0  0  0  0
  1  8  1  0  0  0  0
  1 28  1  1  0  0  0
  2 19  1  6  0  0  0
  2  9  1  0  0  0  0
  3 20  2  0  0  0  0
  4  3  1  0  0  0  0
  5 16  1  6  0  0  0
  5 14  1  0  0  0  0
  7 21  2  0  0  0  0
  7 12  1  0  0  0  0
  9  6  1  1  0  0  0
 10  9  1  0  0  0  0
 10 25  1  1  0  0  0
 11 18  1  6  0  0  0
 11 22  1  0  0  0  0
 11 17  1  0  0  0  0
 12 15  2  0  0  0  0
 13  1  1  0  0  0  0
 14  6  1  1  0  0  0
 14  8  1  0  0  0  0
 15  4  1  0  0  0  0
 16 13  1  0  0  0  0
 17 10  1  0  0  0  0
 19  5  1  0  0  0  0
 21 23  1  0  0  0  0
 22  3  1  1  0  0  0
 22  2  1  0  0  0  0
 23 18  1  0  0  0  0
 23  4  2  0  0  0  0
 24 25  1  0  0  0  0
 27 17  1  0  0  0  0
 27 26  1  0  0  0  0
 28 30  1  0  0  0  0
 29 32  2  0  0  0  0
 29 31  1  0  0  0  0
 30 29  1  0  0  0  0
M  END
>  <MODEL>
2

>  <REMARK>
 VINA RESULT:      -7.1      6.443      9.358
  Name = 
  4 active torsions:
  status: ('A' for Active; 'I' for Inactive)
    1  A    between atoms: C_2  and  C_24
    2  A    between atoms: N_10  and  C_24
    3  A    between atoms: C_13  and  C_15
    4  A    between atoms: C_25  and  N_26
                            x       y       z     vdW  Elec       q    Type
                         _______ _______ _______ _____ _____    ______ ____

>  <TORSDO>
F 4

$$$$
=
 OpenBabel10262421413D

 32 36  0  0  1  0  0  0  0  0999 V2000
  184.4850  178.8880  144.0220 C   0  0  1  0  0  3  0  0  0  0  0  0
  188.5980  177.3680  141.4930 C   0  0  1  0  0  3  0  0  0  0  0  0
  189.9820  176.8780  139.4210 C   0  0  0  0  0  0  0  0  0  0  0  0
  191.3020  176.5590  138.8320 C   0  0  0  0  0  0  0  0  0  0  0  0
  186.6750  178.3730  142.1330 C   0  0  1  0  0  3  0  0  0  0  0  0
  187.4620  176.4940  143.5670 C   0  0  0  0  0  2  0  0  0  0  0  0
  193.7740  175.9550  137.7410 N   0  0  0  0  0  0  0  0  0  0  0  0
  185.2770  177.5850  144.0690 C   0  0  0  0  0  2  0  0  0  0  0  0
  188.8020  176.6280  142.8370 C   0  0  2  0  0  3  0  0  0  0  0  0
  189.8880  177.3030  143.7150 C   0  0  2  0  0  3  0  0  0  0  0  0
  191.1370  177.1950  141.6110 C   0  0  2  0  0  3  0  0  0  0  0  0
  192.6480  175.6650  137.0370 C   0  0  0  0  0  3  0  0  0  0  0  0
  184.4530  179.4290  142.5920 C   0  0  0  0  0  2  0  0  0  0  0  0
  186.6980  177.8150  143.5650 C   0  0  2  0  0  3  0  0  0  0  0  0
  191.3920  175.9620  137.5700 C   0  0  0  0  0  3  0  0  0  0  0  0
  185.8740  179.6710  142.0890 C   0  0  0  0  0  2  0  0  0  0  0  0
  191.0720  177.7710  142.9660 N   0  0  0  0  0  0  0  0  0  0  0  0
  192.4500  177.5090  140.8950 C   0  0  0  0  0  2  0  0  0  0  0  0
  187.9890  178.6210  141.7040 O   0  0  0  0  0  0  0  0  0  0  0  0
  188.9220  176.6300  138.7830 O   0  0  0  0  0  0  0  0  0  0  0  0
  193.7190  176.5320  138.9720 C   0  0  0  0  0  3  0  0  0  0  0  0
  189.9220  177.5820  140.7500 C   0  0  2  0  0  3  0  0  0  0  0  0
  192.4850  176.8380  139.5500 C   0  0  0  0  0  0  0  0  0  0  0  0
  190.0610  176.9490  146.1210 N   0  0  0  0  0  1  0  0  0  0  0  0
  190.3460  176.3660  144.8230 C   0  0  0  0  0  2  0  0  0  0  0  0
  191.2760  179.8100  144.2860 C   0  0  0  0  0  1  0  0  0  0  0  0
  191.0220  179.2310  142.9080 C   0  0  0  0  0  2  0  0  0  0  0  0
  183.0730  178.6340  144.5160 C   0  0  0  0  0  2  0  0  0  0  0  0
  180.7450  178.8460  143.5730 C   0  0  0  0  0  0  0  0  0  0  0  0
  182.1120  179.2550  143.6180 N   0  0  0  0  0  2  0  0  0  0  0  0
  179.8690  179.4710  142.6970 O   0  0  0  0  0  0  0  0  0  0  0  0
  180.3280  177.9220  144.3210 O   0  0  0  0  0  1  0  0  0  0  0  0
  1  8  1  0  0  0  0
  1 28  1  6  0  0  0
  2 19  1  1  0  0  0
  2  9  1  0  0  0  0
  4  3  1  0  0  0  0
  4 23  1  0  0  0  0
  5 16  1  1  0  0  0
  5 14  1  0  0  0  0
  7 21  1  0  0  0  0
  9  6  1  1  0  0  0
  9 10  1  0  0  0  0
 10 25  1  1  0  0  0
 11 18  1  6  0  0  0
 11 17  1  0  0  0  0
 12 15  1  0  0  0  0
 12  7  2  0  0  0  0
 13  1  1  0  0  0  0
 14  6  1  6  0  0  0
 14  8  1  0  0  0  0
 15  4  2  0  0  0  0
 16 13  1  0  0  0  0
 17 10  1  0  0  0  0
 19  5  1  0  0  0  0
 20  3  2  0  0  0  0
 21 23  2  0  0  0  0
 22  3  1  6  0  0  0
 22  2  1  0  0  0  0
 22 11  1  0  0  0  0
 23 18  1  0  0  0  0
 25 24  1  0  0  0  0
 27 17  1  0  0  0  0
 27 26  1  0  0  0  0
 29 30  1  0  0  0  0
 29 32  1  0  0  0  0
 30 28  1  0  0  0  0
 31 29  2  0  0  0  0
M  END
>  <MODEL>
3

>  <REMARK>
 VINA RESULT:      -7.0      2.803      5.071
  Name = 
  4 active torsions:
  status: ('A' for Active; 'I' for Inactive)
    1  A    between atoms: C_2  and  C_24
    2  A    between atoms: N_10  and  C_24
    3  A    between atoms: C_13  and  C_15
    4  A    between atoms: C_25  and  N_26
                            x       y       z     vdW  Elec       q    Type
                         _______ _______ _______ _____ _____    ______ ____

>  <TORSDO>
F 4

$$$$
=
 OpenBabel10262421413D

 32 36  0  0  1  0  0  0  0  0999 V2000
  193.3970  175.2340  135.5410 C   0  0  1  0  0  3  0  0  0  0  0  0
  190.2020  176.2550  139.3320 C   0  0  1  0  0  3  0  0  0  0  0  0
  189.5460  176.6420  141.7550 C   0  0  0  0  0  0  0  0  0  0  0  0
  188.5330  177.1070  142.7290 C   0  0  0  0  0  0  0  0  0  0  0  0
  192.0270  176.0350  138.0130 C   0  0  1  0  0  3  0  0  0  0  0  0
  189.9680  174.8620  137.2460 C   0  0  0  0  0  2  0  0  0  0  0  0
  186.6270  177.9720  144.5420 N   0  0  0  0  0  0  0  0  0  0  0  0
  192.0890  174.5730  135.9680 C   0  0  0  0  0  2  0  0  0  0  0  0
  189.2160  175.7200  138.2680 C   0  0  2  0  0  3  0  0  0  0  0  0
  188.4040  176.8600  137.5990 C   0  0  2  0  0  3  0  0  0  0  0  0
  188.0600  177.4940  139.9390 C   0  0  2  0  0  3  0  0  0  0  0  0
  187.6090  177.1280  144.9600 C   0  0  0  0  0  3  0  0  0  0  0  0
  194.1730  175.6990  136.7730 C   0  0  0  0  0  2  0  0  0  0  0  0
  191.2460  175.5510  136.7800 C   0  0  2  0  0  3  0  0  0  0  0  0
  188.5780  176.6820  144.0610 C   0  0  0  0  0  3  0  0  0  0  0  0
  193.3370  176.6860  137.5820 C   0  0  0  0  0  2  0  0  0  0  0  0
  187.9530  177.9140  138.5310 N   0  0  0  0  0  0  0  0  0  0  0  0
  187.4170  178.4880  140.9050 C   0  0  0  0  0  2  0  0  0  0  0  0
  191.2520  176.9690  138.7220 O   0  0  0  0  0  0  0  0  0  0  0  0
  190.4740  175.8690  142.1200 O   0  0  0  0  0  0  0  0  0  0  0  0
  186.5550  178.4000  143.2530 C   0  0  0  0  0  3  0  0  0  0  0  0
  189.5080  177.1730  140.3470 C   0  0  2  0  0  3  0  0  0  0  0  0
  187.4960  177.9720  142.3160 C   0  0  0  0  0  0  0  0  0  0  0  0
  186.0540  177.1840  137.0370 N   0  0  0  0  0  1  0  0  0  0  0  0
  187.1940  176.3030  136.8640 C   0  0  0  0  0  2  0  0  0  0  0  0
  189.1620  179.1640  136.8230 C   0  0  0  0  0  1  0  0  0  0  0  0
  188.7550  179.1100  138.2830 C   0  0  0  0  0  2  0  0  0  0  0  0
  194.2230  174.2410  134.7460 C   0  0  0  0  0  2  0  0  0  0  0  0
  195.0440  172.1830  135.9470 C   0  0  0  0  0  0  0  0  0  0  0  0
  194.0160  172.8960  135.2600 N   0  0  0  0  0  2  0  0  0  0  0  0
  194.7950  170.9020  136.4180 O   0  0  0  0  0  1  0  0  0  0  0  0
  196.1760  172.7070  136.1280 O   0  0  0  0  0  0  0  0  0  0  0  0
  1 28  1  1  0  0  0
  1  8  1  0  0  0  0
  1 13  1  0  0  0  0
  2 19  1  6  0  0  0
  2 22  1  0  0  0  0
  3 20  2  0  0  0  0
  3  4  1  0  0  0  0
  4 15  1  0  0  0  0
  5 16  1  6  0  0  0
  5 19  1  0  0  0  0
  7 12  1  0  0  0  0
  9  6  1  6  0  0  0
  9  2  1  0  0  0  0
 10 25  1  1  0  0  0
 10  9  1  0  0  0  0
 10 17  1  0  0  0  0
 11 22  1  0  0  0  0
 11 18  1  1  0  0  0
 13 16  1  0  0  0  0
 14  8  1  1  0  0  0
 14  6  1  0  0  0  0
 14  5  1  0  0  0  0
 15 12  2  0  0  0  0
 17 11  1  0  0  0  0
 18 23  1  0  0  0  0
 21  7  2  0  0  0  0
 22  3  1  1  0  0  0
 23  4  2  0  0  0  0
 23 21  1  0  0  0  0
 25 24  1  0  0  0  0
 26 27  1  0  0  0  0
 27 17  1  0  0  0  0
 28 30  1  0  0  0  0
 29 32  2  0  0  0  0
 29 31  1  0  0  0  0
 30 29  1  0  0  0  0
M  END
>  <MODEL>
4

>  <REMARK>
 VINA RESULT:      -6.4      2.487      8.621
  Name = 
  4 active torsions:
  status: ('A' for Active; 'I' for Inactive)
    1  A    between atoms: C_2  and  C_24
    2  A    between atoms: N_10  and  C_24
    3  A    between atoms: C_13  and  C_15
    4  A    between atoms: C_25  and  N_26
                            x       y       z     vdW  Elec       q    Type
                         _______ _______ _______ _____ _____    ______ ____

>  <TORSDO>
F 4

$$$$
=
 OpenBabel10262421413D

 32 36  0  0  1  0  0  0  0  0999 V2000
  187.8800  178.1020  141.0270 C   0  0  1  0  0  3  0  0  0  0  0  0
  191.4920  176.1820  138.0450 C   0  0  1  0  0  3  0  0  0  0  0  0
  193.8320  175.3660  137.4890 C   0  0  0  0  0  0  0  0  0  0  0  0
  194.7300  174.6540  136.5530 C   0  0  0  0  0  0  0  0  0  0  0  0
  190.2100  176.7940  139.8060 C   0  0  1  0  0  3  0  0  0  0  0  0
  189.6430  177.8400  137.6170 C   0  0  0  0  0  2  0  0  0  0  0  0
  196.4030  173.3250  134.7910 N   0  0  0  0  0  0  0  0  0  0  0  0
  188.4110  178.5460  139.6670 C   0  0  0  0  0  2  0  0  0  0  0  0
  190.5280  176.7620  136.9840 C   0  0  2  0  0  3  0  0  0  0  0  0
  189.6980  175.6550  136.2830 C   0  0  2  0  0  3  0  0  0  0  0  0
  191.9170  174.6430  136.0600 C   0  0  2  0  0  3  0  0  0  0  0  0
  196.9380  174.1970  135.6870 C   0  0  0  0  0  3  0  0  0  0  0  0
  189.0220  177.5440  141.8760 C   0  0  0  0  0  2  0  0  0  0  0  0
  189.0700  177.3710  138.9510 C   0  0  2  0  0  3  0  0  0  0  0  0
  196.1120  174.8760  136.5830 C   0  0  0  0  0  3  0  0  0  0  0  0
  189.6760  176.3610  141.1680 C   0  0  0  0  0  2  0  0  0  0  0  0
  190.4620  174.4300  135.9660 N   0  0  0  0  0  0  0  0  0  0  0  0
  192.7250  173.4510  135.5480 C   0  0  0  0  0  2  0  0  0  0  0  0
  190.7730  175.6860  139.1510 O   0  0  0  0  0  0  0  0  0  0  0  0
  194.3040  176.1710  138.3380 O   0  0  0  0  0  0  0  0  0  0  0  0
  195.0640  173.0900  134.7350 C   0  0  0  0  0  3  0  0  0  0  0  0
  192.3600  175.0530  137.4750 C   0  0  2  0  0  3  0  0  0  0  0  0
  194.1970  173.7540  135.6040 C   0  0  0  0  0  0  0  0  0  0  0  0
  187.6170  176.1130  135.0970 N   0  0  0  0  0  1  0  0  0  0  0  0
  189.0640  176.1820  135.0040 C   0  0  0  0  0  2  0  0  0  0  0  0
  188.5970  172.9850  136.5790 C   0  0  0  0  0  1  0  0  0  0  0  0
  190.0290  173.3780  136.8840 C   0  0  0  0  0  2  0  0  0  0  0  0
  187.2400  179.2870  141.7250 C   0  0  0  0  0  2  0  0  0  0  0  0
  184.7730  179.0080  141.2910 C   0  0  0  0  0  0  0  0  0  0  0  0
  185.8980  178.9390  142.1670 N   0  0  0  0  0  2  0  0  0  0  0  0
  183.5140  178.6660  141.7630 O   0  0  0  0  0  1  0  0  0  0  0  0
  184.9130  179.3790  140.0950 O   0  0  0  0  0  0  0  0  0  0  0  0
  1 28  1  1  0  0  0
  1 13  1  0  0  0  0
  2 19  1  1  0  0  0
  3 20  2  0  0  0  0
  4 15  1  0  0  0  0
  4  3  1  0  0  0  0
  5 16  1  1  0  0  0
  7 12  1  0  0  0  0
  8  1  1  0  0  0  0
  9  6  1  1  0  0  0
  9  2  1  0  0  0  0
 10 25  1  6  0  0  0
 10  9  1  0  0  0  0
 11 18  1  1  0  0  0
 11 22  1  0  0  0  0
 12 15  2  0  0  0  0
 14  6  1  6  0  0  0
 14  8  1  0  0  0  0
 14  5  1  0  0  0  0
 16 13  1  0  0  0  0
 17 11  1  0  0  0  0
 17 10  1  0  0  0  0
 17 27  1  0  0  0  0
 18 23  1  0  0  0  0
 19  5  1  0  0  0  0
 21  7  2  0  0  0  0
 21 23  1  0  0  0  0
 22  3  1  6  0  0  0
 22  2  1  0  0  0  0
 23  4  2  0  0  0  0
 25 24  1  0  0  0  0
 26 27  1  0  0  0  0
 28 30  1  0  0  0  0
 29 31  1  0  0  0  0
 29 30  1  0  0  0  0
 32 29  2  0  0  0  0
M  END
>  <MODEL>
5

>  <REMARK>
 VINA RESULT:      -6.3      2.368      2.967
  Name = 
  4 active torsions:
  status: ('A' for Active; 'I' for Inactive)
    1  A    between atoms: C_2  and  C_24
    2  A    between atoms: N_10  and  C_24
    3  A    between atoms: C_13  and  C_15
    4  A    between atoms: C_25  and  N_26
                            x       y       z     vdW  Elec       q    Type
                         _______ _______ _______ _____ _____    ______ ____

>  <TORSDO>
F 4

$$$$
=
 OpenBabel10262421413D

 32 36  0  0  1  0  0  0  0  0999 V2000
  185.4700  178.2740  144.7590 C   0  0  1  0  0  3  0  0  0  0  0  0
  182.4100  179.3800  140.8810 C   0  0  1  0  0  3  0  0  0  0  0  0
  181.8330  180.3220  138.5950 C   0  0  0  0  0  0  0  0  0  0  0  0
  180.8590  180.4330  137.4850 C   0  0  0  0  0  0  0  0  0  0  0  0
  184.1910  178.8850  142.1860 C   0  0  1  0  0  3  0  0  0  0  0  0
  182.0810  179.4630  143.3780 C   0  0  0  0  0  2  0  0  0  0  0  0
  179.0290  180.6400  135.4180 N   0  0  0  0  0  0  0  0  0  0  0  0
  184.1580  179.0510  144.6950 C   0  0  0  0  0  2  0  0  0  0  0  0
  181.3810  179.2670  142.0300 C   0  0  2  0  0  3  0  0  0  0  0  0
  180.5810  177.9400  141.9680 C   0  0  2  0  0  3  0  0  0  0  0  0
  180.3190  178.6310  139.6330 C   0  0  2  0  0  3  0  0  0  0  0  0
  179.9990  181.5840  135.5430 C   0  0  0  0  0  3  0  0  0  0  0  0
  186.2920  178.5330  143.4970 C   0  0  0  0  0  2  0  0  0  0  0  0
  183.3640  178.6410  143.4590 C   0  0  2  0  0  3  0  0  0  0  0  0
  180.9310  181.4970  136.5780 C   0  0  0  0  0  3  0  0  0  0  0  0
  185.5050  178.1140  142.2590 C   0  0  0  0  0  2  0  0  0  0  0  0
  180.1830  177.5320  140.6050 N   0  0  0  0  0  0  0  0  0  0  0  0
  179.7290  178.2910  138.2660 C   0  0  0  0  0  2  0  0  0  0  0  0
  183.4610  178.4590  141.0640 O   0  0  0  0  0  0  0  0  0  0  0  0
  182.7500  181.1780  138.7260 O   0  0  0  0  0  0  0  0  0  0  0  0
  178.9310  179.5960  136.2850 C   0  0  0  0  0  3  0  0  0  0  0  0
  181.7690  179.1300  139.5100 C   0  0  2  0  0  3  0  0  0  0  0  0
  179.8340  179.4730  137.3420 C   0  0  0  0  0  0  0  0  0  0  0  0
  179.5620  177.3270  144.0970 N   0  0  0  0  0  1  0  0  0  0  0  0
  179.3360  178.0170  142.8400 C   0  0  0  0  0  2  0  0  0  0  0  0
  180.2160  175.1060  140.3690 C   0  0  0  0  0  1  0  0  0  0  0  0
  181.0080  176.3900  140.2160 C   0  0  0  0  0  2  0  0  0  0  0  0
  186.2470  178.7050  145.9880 C   0  0  0  0  0  2  0  0  0  0  0  0
  188.4120  177.4730  146.3760 C   0  0  0  0  0  0  0  0  0  0  0  0
  186.9960  177.5790  146.5240 N   0  0  0  0  0  2  0  0  0  0  0  0
  189.0780  176.3780  146.9050 O   0  0  0  0  0  1  0  0  0  0  0  0
  189.0610  178.3660  145.7670 O   0  0  0  0  0  0  0  0  0  0  0  0
  1 28  1  1  0  0  0
  2 19  1  1  0  0  0
  2  9  1  0  0  0  0
  3 20  2  0  0  0  0
  4  3  1  0  0  0  0
  5 16  1  1  0  0  0
  5 14  1  0  0  0  0
  7 12  2  0  0  0  0
  7 21  1  0  0  0  0
  8  1  1  0  0  0  0
  9  6  1  1  0  0  0
 10  9  1  0  0  0  0
 10 25  1  1  0  0  0
 11 18  1  6  0  0  0
 11 17  1  0  0  0  0
 12 15  1  0  0  0  0
 13  1  1  0  0  0  0
 14  6  1  6  0  0  0
 14  8  1  0  0  0  0
 15  4  2  0  0  0  0
 16 13  1  0  0  0  0
 17 10  1  0  0  0  0
 19  5  1  0  0  0  0
 21 23  2  0  0  0  0
 22  3  1  6  0  0  0
 22 11  1  0  0  0  0
 22  2  1  0  0  0  0
 23  4  1  0  0  0  0
 23 18  1  0  0  0  0
 25 24  1  0  0  0  0
 27 26  1  0  0  0  0
 27 17  1  0  0  0  0
 28 30  1  0  0  0  0
 29 30  1  0  0  0  0
 29 31  1  0  0  0  0
 32 29  2  0  0  0  0
M  END
>  <MODEL>
6

>  <REMARK>
 VINA RESULT:      -6.2      7.151      9.604
  Name = 
  4 active torsions:
  status: ('A' for Active; 'I' for Inactive)
    1  A    between atoms: C_2  and  C_24
    2  A    between atoms: N_10  and  C_24
    3  A    between atoms: C_13  and  C_15
    4  A    between atoms: C_25  and  N_26
                            x       y       z     vdW  Elec       q    Type
                         _______ _______ _______ _____ _____    ______ ____

>  <TORSDO>
F 4

$$$$
=
 OpenBabel10262421413D

 32 36  0  0  1  0  0  0  0  0999 V2000
  184.7450  179.3140  144.9130 C   0  0  1  0  0  3  0  0  0  0  0  0
  182.5250  177.6590  140.6750 C   0  0  1  0  0  3  0  0  0  0  0  0
  180.8350  176.3280  139.3250 C   0  0  0  0  0  0  0  0  0  0  0  0
  180.1940  176.0610  138.0180 C   0  0  0  0  0  0  0  0  0  0  0  0
  182.9780  178.2930  142.7990 C   0  0  1  0  0  3  0  0  0  0  0  0
  184.9370  178.0780  141.2740 C   0  0  0  0  0  2  0  0  0  0  0  0
  179.0050  175.5650  135.5670 N   0  0  0  0  0  0  0  0  0  0  0  0
  185.3120  178.6160  143.6800 C   0  0  0  0  0  2  0  0  0  0  0  0
  183.9190  178.0500  140.1300 C   0  0  2  0  0  3  0  0  0  0  0  0
  183.8820  179.3840  139.3400 C   0  0  2  0  0  3  0  0  0  0  0  0
  181.9860  178.2710  138.2620 C   0  0  2  0  0  3  0  0  0  0  0  0
  178.9620  174.6090  136.5320 C   0  0  0  0  0  3  0  0  0  0  0  0
  183.3520  178.7700  145.2270 C   0  0  0  0  0  2  0  0  0  0  0  0
  184.3860  178.8250  142.4850 C   0  0  2  0  0  3  0  0  0  0  0  0
  179.5550  174.8400  137.7740 C   0  0  0  0  0  3  0  0  0  0  0  0
  182.4200  178.9870  144.0380 C   0  0  0  0  0  2  0  0  0  0  0  0
  182.7000  179.5440  138.4690 N   0  0  0  0  0  0  0  0  0  0  0  0
  180.8810  178.3750  137.2120 C   0  0  0  0  0  2  0  0  0  0  0  0
  182.1310  178.5360  141.7050 O   0  0  0  0  0  0  0  0  0  0  0  0
  180.7980  175.4620  140.2420 O   0  0  0  0  0  0  0  0  0  0  0  0
  179.6220  176.7610  135.7720 C   0  0  0  0  0  3  0  0  0  0  0  0
  181.4540  177.6760  139.5770 C   0  0  2  0  0  3  0  0  0  0  0  0
  180.2380  177.0330  136.9940 C   0  0  0  0  0  0  0  0  0  0  0  0
  185.5280  178.2710  137.9260 N   0  0  0  0  0  1  0  0  0  0  0  0
  185.1380  179.5480  138.4970 C   0  0  0  0  0  2  0  0  0  0  0  0
  181.8730  181.8290  138.2820 C   0  0  0  0  0  1  0  0  0  0  0  0
  181.8210  180.5400  139.0780 C   0  0  0  0  0  2  0  0  0  0  0  0
  185.6740  179.0850  146.0900 C   0  0  0  0  0  2  0  0  0  0  0  0
  187.7960  177.8270  146.6080 C   0  0  0  0  0  0  0  0  0  0  0  0
  186.8020  178.2620  145.6800 N   0  0  0  0  0  2  0  0  0  0  0  0
  188.8520  177.0440  146.1650 O   0  0  0  0  0  0  0  0  0  0  0  0
  187.7220  178.1480  147.8240 O   0  0  0  0  0  1  0  0  0  0  0  0
  1 13  1  0  0  0  0
  1 28  1  1  0  0  0
  2 19  1  1  0  0  0
  3 20  2  0  0  0  0
  4  3  1  0  0  0  0
  5 16  1  1  0  0  0
  7 21  2  0  0  0  0
  7 12  1  0  0  0  0
  8  1  1  0  0  0  0
  9  2  1  0  0  0  0
  9  6  1  1  0  0  0
 10 25  1  6  0  0  0
 10  9  1  0  0  0  0
 11 18  1  6  0  0  0
 11 17  1  0  0  0  0
 11 22  1  0  0  0  0
 12 15  2  0  0  0  0
 14  6  1  6  0  0  0
 14  5  1  0  0  0  0
 14  8  1  0  0  0  0
 15  4  1  0  0  0  0
 16 13  1  0  0  0  0
 17 27  1  0  0  0  0
 17 10  1  0  0  0  0
 19  5  1  0  0  0  0
 21 23  1  0  0  0  0
 22  3  1  6  0  0  0
 22  2  1  0  0  0  0
 23 18  1  0  0  0  0
 23  4  2  0  0  0  0
 24 25  1  0  0  0  0
 26 27  1  0  0  0  0
 29 32  1  0  0  0  0
 30 28  1  0  0  0  0
 30 29  1  0  0  0  0
 31 29  2  0  0  0  0
M  END
>  <MODEL>
7

>  <REMARK>
 VINA RESULT:      -6.2      6.173      9.003
  Name = 
  4 active torsions:
  status: ('A' for Active; 'I' for Inactive)
    1  A    between atoms: C_2  and  C_24
    2  A    between atoms: N_10  and  C_24
    3  A    between atoms: C_13  and  C_15
    4  A    between atoms: C_25  and  N_26
                            x       y       z     vdW  Elec       q    Type
                         _______ _______ _______ _____ _____    ______ ____

>  <TORSDO>
F 4

$$$$
=
 OpenBabel10262421413D

 32 36  0  0  1  0  0  0  0  0999 V2000
  194.0720  174.4410  136.0660 C   0  0  1  0  0  3  0  0  0  0  0  0
  189.8710  176.2920  138.1990 C   0  0  1  0  0  3  0  0  0  0  0  0
  188.5480  177.6440  139.8940 C   0  0  0  0  0  0  0  0  0  0  0  0
  187.2530  178.2320  140.3050 C   0  0  0  0  0  0  0  0  0  0  0  0
  191.9890  175.9580  137.4770 C   0  0  1  0  0  3  0  0  0  0  0  0
  190.4230  174.0380  137.2170 C   0  0  0  0  0  2  0  0  0  0  0  0
  184.8240  179.3200  141.0670 N   0  0  0  0  0  0  0  0  0  0  0  0
  192.8230  173.7500  136.6070 C   0  0  0  0  0  2  0  0  0  0  0  0
  189.3000  175.0440  137.4860 C   0  0  2  0  0  3  0  0  0  0  0  0
  188.5180  175.4150  136.1990 C   0  0  2  0  0  3  0  0  0  0  0  0
  187.4730  177.0140  137.7310 C   0  0  2  0  0  3  0  0  0  0  0  0
  185.7850  179.1140  142.0070 C   0  0  0  0  0  3  0  0  0  0  0  0
  194.4110  175.6570  136.9270 C   0  0  0  0  0  2  0  0  0  0  0  0
  191.6490  174.7240  136.6250 C   0  0  2  0  0  3  0  0  0  0  0  0
  187.0160  178.5660  141.6420 C   0  0  0  0  0  3  0  0  0  0  0  0
  193.2430  176.6380  136.9380 C   0  0  0  0  0  2  0  0  0  0  0  0
  187.6730  176.6200  136.3250 N   0  0  0  0  0  0  0  0  0  0  0  0
  186.4470  178.1340  137.8930 C   0  0  0  0  0  2  0  0  0  0  0  0
  190.9140  176.8620  137.4430 O   0  0  0  0  0  0  0  0  0  0  0  0
  189.4610  177.4540  140.7440 O   0  0  0  0  0  0  0  0  0  0  0  0
  185.0240  179.0030  139.7600 C   0  0  0  0  0  3  0  0  0  0  0  0
  188.7960  177.3600  138.4360 C   0  0  2  0  0  3  0  0  0  0  0  0
  186.2350  178.4430  139.3490 C   0  0  0  0  0  0  0  0  0  0  0  0
  186.6560  174.7150  134.7880 N   0  0  0  0  0  1  0  0  0  0  0  0
  187.6510  174.2520  135.7390 C   0  0  0  0  0  2  0  0  0  0  0  0
  189.3150  177.1200  134.5940 C   0  0  0  0  0  1  0  0  0  0  0  0
  188.3060  177.6980  135.5680 C   0  0  0  0  0  2  0  0  0  0  0  0
  195.2280  173.4580  136.0680 C   0  0  0  0  0  2  0  0  0  0  0  0
  197.4740  174.5940  136.1850 C   0  0  0  0  0  0  0  0  0  0  0  0
  196.3430  174.0040  136.8250 N   0  0  0  0  0  2  0  0  0  0  0  0
  198.5120  175.1000  136.9550 O   0  0  0  0  0  1  0  0  0  0  0  0
  197.5390  174.6580  134.9290 O   0  0  0  0  0  0  0  0  0  0  0  0
  1 28  1  1  0  0  0
  1  8  1  0  0  0  0
  1 13  1  0  0  0  0
  2 19  1  6  0  0  0
  2 22  1  0  0  0  0
  3  4  1  0  0  0  0
  3 20  2  0  0  0  0
  4 15  1  0  0  0  0
  5 16  1  6  0  0  0
  7 12  1  0  0  0  0
  9  6  1  6  0  0  0
  9  2  1  0  0  0  0
 10 25  1  1  0  0  0
 10 17  1  0  0  0  0
 10  9  1  0  0  0  0
 11 18  1  6  0  0  0
 11 22  1  0  0  0  0
 13 16  1  0  0  0  0
 14  8  1  1  0  0  0
 14  6  1  0  0  0  0
 14  5  1  0  0  0  0
 15 12  2  0  0  0  0
 17 11  1  0  0  0  0
 18 23  1  0  0  0  0
 19  5  1  0  0  0  0
 21  7  2  0  0  0  0
 22  3  1  1  0  0  0
 23 21  1  0  0  0  0
 23  4  2  0  0  0  0
 24 25  1  0  0  0  0
 26 27  1  0  0  0  0
 27 17  1  0  0  0  0
 28 30  1  0  0  0  0
 29 30  1  0  0  0  0
 29 31  1  0  0  0  0
 32 29  2  0  0  0  0
M  END
>  <MODEL>
8

>  <REMARK>
 VINA RESULT:      -6.2      2.899      8.763
  Name = 
  4 active torsions:
  status: ('A' for Active; 'I' for Inactive)
    1  A    between atoms: C_2  and  C_24
    2  A    between atoms: N_10  and  C_24
    3  A    between atoms: C_13  and  C_15
    4  A    between atoms: C_25  and  N_26
                            x       y       z     vdW  Elec       q    Type
                         _______ _______ _______ _____ _____    ______ ____

>  <TORSDO>
F 4

$$$$
=
 OpenBabel10262421413D

 32 36  0  0  1  0  0  0  0  0999 V2000
  192.9550  175.7970  137.4840 C   0  0  1  0  0  3  0  0  0  0  0  0
  189.4400  177.4630  140.7230 C   0  0  1  0  0  3  0  0  0  0  0  0
  187.1160  178.2090  141.4220 C   0  0  0  0  0  0  0  0  0  0  0  0
  186.1710  178.5400  142.5120 C   0  0  0  0  0  0  0  0  0  0  0  0
  190.5360  176.4870  139.0020 C   0  0  1  0  0  3  0  0  0  0  0  0
  191.8740  178.0410  140.4160 C   0  0  0  0  0  2  0  0  0  0  0  0
  184.4150  179.1630  144.5600 N   0  0  0  0  0  0  0  0  0  0  0  0
  192.9180  177.0210  138.3950 C   0  0  0  0  0  2  0  0  0  0  0  0
  190.7290  177.9480  141.4290 C   0  0  2  0  0  3  0  0  0  0  0  0
  191.0910  177.0670  142.6520 C   0  0  2  0  0  3  0  0  0  0  0  0
  188.7290  177.4520  143.1700 C   0  0  2  0  0  3  0  0  0  0  0  0
  184.1740  179.6390  143.3100 C   0  0  0  0  0  3  0  0  0  0  0  0
  191.5570  175.5110  136.9360 C   0  0  0  0  0  2  0  0  0  0  0  0
  191.9420  176.7910  139.5440 C   0  0  2  0  0  3  0  0  0  0  0  0
  185.0470  179.3360  142.2640 C   0  0  0  0  0  3  0  0  0  0  0  0
  190.5810  175.2690  138.0840 C   0  0  0  0  0  2  0  0  0  0  0  0
  189.9330  176.6590  143.4740 N   0  0  0  0  0  0  0  0  0  0  0  0
  187.5800  177.1810  144.1400 C   0  0  0  0  0  2  0  0  0  0  0  0
  189.6650  176.2330  140.0730 O   0  0  0  0  0  0  0  0  0  0  0  0
  186.9090  178.6280  140.2490 O   0  0  0  0  0  0  0  0  0  0  0  0
  185.5000  178.3890  144.8340 C   0  0  0  0  0  3  0  0  0  0  0  0
  188.2760  177.2940  141.7080 C   0  0  2  0  0  3  0  0  0  0  0  0
  186.4070  178.0690  143.8220 C   0  0  0  0  0  0  0  0  0  0  0  0
  191.5850  179.0590  143.9680 N   0  0  0  0  0  1  0  0  0  0  0  0
  192.1020  177.7700  143.5450 C   0  0  0  0  0  2  0  0  0  0  0  0
  190.9310  174.4380  143.5930 C   0  0  0  0  0  1  0  0  0  0  0  0
  189.6920  175.2360  143.2390 C   0  0  0  0  0  2  0  0  0  0  0  0
  193.9220  176.0520  136.3420 C   0  0  0  0  0  2  0  0  0  0  0  0
  196.4330  176.1360  136.1500 C   0  0  0  0  0  0  0  0  0  0  0  0
  195.2450  175.5600  136.6910 N   0  0  0  0  0  2  0  0  0  0  0  0
  197.6710  175.6280  136.5150 O   0  0  0  0  0  1  0  0  0  0  0  0
  196.3670  177.1010  135.3420 O   0  0  0  0  0  0  0  0  0  0  0  0
  1 28  1  6  0  0  0
  1  8  1  0  0  0  0
  2 19  1  1  0  0  0
  2  9  1  0  0  0  0
  2 22  1  0  0  0  0
  3  4  1  0  0  0  0
  4 23  1  0  0  0  0
  5 16  1  6  0  0  0
  5 14  1  0  0  0  0
  5 19  1  0  0  0  0
  7 21  1  0  0  0  0
  9  6  1  6  0  0  0
  9 10  1  0  0  0  0
 10 17  1  0  0  0  0
 10 25  1  1  0  0  0
 11 17  1  0  0  0  0
 11 18  1  1  0  0  0
 12  7  2  0  0  0  0
 13  1  1  0  0  0  0
 13 16  1  0  0  0  0
 14  8  1  6  0  0  0
 14  6  1  0  0  0  0
 15  4  2  0  0  0  0
 15 12  1  0  0  0  0
 20  3  2  0  0  0  0
 22  3  1  6  0  0  0
 22 11  1  0  0  0  0
 23 18  1  0  0  0  0
 23 21  2  0  0  0  0
 25 24  1  0  0  0  0
 27 17  1  0  0  0  0
 27 26  1  0  0  0  0
 28 30  1  0  0  0  0
 29 31  1  0  0  0  0
 29 30  1  0  0  0  0
 32 29  2  0  0  0  0
M  END
>  <MODEL>
9

>  <REMARK>
 VINA RESULT:      -5.7      2.862      9.217
  Name = 
  4 active torsions:
  status: ('A' for Active; 'I' for Inactive)
    1  A    between atoms: C_2  and  C_24
    2  A    between atoms: N_10  and  C_24
    3  A    between atoms: C_13  and  C_15
    4  A    between atoms: C_25  and  N_26
                            x       y       z     vdW  Elec       q    Type
                         _______ _______ _______ _____ _____    ______ ____

>  <TORSDO>
F 4

$$$$
