=
 OpenBabel10262423053D

 37 40  0  0  1  0  0  0  0  0999 V2000
  185.9350  177.3210  137.3630 C   0  0  0  0  0  3  0  0  0  0  0  0
  182.6960  178.0600  139.6260 C   0  0  1  0  0  0  0  0  0  0  0  0
  182.1880  175.5340  139.4070 C   0  0  0  0  0  1  0  0  0  0  0  0
  182.2040  176.9540  138.8370 C   0  0  2  0  0  0  0  0  0  0  0  0
  183.6390  177.4380  138.5870 C   0  0  0  0  0  0  0  0  0  0  0  0
  184.7840  177.3740  137.9710 C   0  0  0  0  0  0  0  0  0  0  0  0
  180.4300  176.6640  134.7080 C   0  0  0  0  0  1  0  0  0  0  0  0
  178.9320  177.6040  137.9070 C   0  0  0  0  0  1  0  0  0  0  0  0
  180.0540  176.5840  137.8790 C   0  0  2  0  0  3  0  0  0  0  0  0
  180.9240  175.9450  135.9510 C   0  0  0  0  0  0  0  0  0  0  0  0
  181.3310  177.2540  137.6940 N   0  0  2  0  0  0  0  0  0  0  0  0
  181.5300  174.6190  135.5400 C   0  0  0  0  0  1  0  0  0  0  0  0
  179.8520  175.7100  136.8170 O   0  0  0  0  0  0  0  0  0  0  0  0
  181.9080  176.7210  136.5820 O   0  0  0  0  0  0  0  0  0  0  0  0
  182.2590  179.4630  139.2950 C   0  0  0  0  0  0  0  0  0  0  0  0
  183.1260  180.3300  138.7680 C   0  0  0  0  0  2  0  0  0  0  0  0
  180.9590  179.8560  139.6320 O   0  0  0  0  0  0  0  0  0  0  0  0
  180.4710  181.1790  139.4400 C   0  0  0  0  0  1  0  0  0  0  0  0
  186.7960  178.5330  137.3070 C   0  0  2  0  0  3  0  0  0  0  0  0
  187.1280  177.6850  134.9910 C   0  0  0  0  0  1  0  0  0  0  0  0
  187.7770  178.4050  136.1560 C   0  0  0  0  0  2  0  0  0  0  0  0
  187.4890  178.6660  138.5140 O   0  0  0  0  0  0  0  0  0  0  0  0
  189.6250  178.0280  138.9440 C   0  0  1  0  0  3  0  0  0  0  0  0
  188.2770  177.5620  138.5820 N   0  0  0  0  0  0  0  0  0  0  0  0
  188.8080  177.3710  139.9570 C   0  0  2  0  0  3  0  0  0  0  0  0
  190.5690  177.1280  138.4530 O   0  0  0  0  0  1  0  0  0  0  0  0
  188.3100  178.3990  140.9720 C   0  0  0  0  0  2  0  0  0  0  0  0
  189.0810  178.3200  142.1310 O   0  0  0  0  0  1  0  0  0  0  0  0
  183.1710  177.7950  141.0510 C   0  0  0  0  0  2  0  0  0  0  0  0
  184.2620  178.7770  141.4430 C   0  0  0  0  0  2  0  0  0  0  0  0
  183.5260  179.1000  143.8120 C   0  0  0  0  0  3  0  0  0  0  0  0
  184.5160  178.6990  142.9070 C   0  0  0  0  0  0  0  0  0  0  0  0
  185.7330  178.1970  143.3810 C   0  0  0  0  0  3  0  0  0  0  0  0
  187.1430  177.6220  145.2160 F   0  0  0  0  0  0  0  0  0  0  0  0
  184.9760  178.5100  145.6600 C   0  0  0  0  0  3  0  0  0  0  0  0
  185.9640  178.1050  144.7580 C   0  0  0  0  0  0  0  0  0  0  0  0
  183.7570  179.0080  145.1870 C   0  0  0  0  0  3  0  0  0  0  0  0
  1  6  2  0  0  0  0
  2 29  1  1  0  0  0
  4  3  1  1  0  0  0
  4  2  1  0  0  0  0
  5  4  1  0  0  0  0
  5  2  1  0  0  0  0
  6  5  2  0  0  0  0
  7 10  1  0  0  0  0
  9  8  1  6  0  0  0
 10 14  1  0  0  0  0
 10 13  1  0  0  0  0
 11 14  1  6  0  0  0
 11  9  1  0  0  0  0
 11  4  1  0  0  0  0
 12 10  1  0  0  0  0
 13  9  1  0  0  0  0
 15  2  1  0  0  0  0
 15 17  1  0  0  0  0
 16 15  2  0  0  0  0
 18 17  1  0  0  0  0
 19 21  1  6  0  0  0
 19  1  1  0  0  0  0
 19 22  1  0  0  0  0
 20 21  1  0  0  0  0
 22 24  1  0  0  0  0
 23 26  1  6  0  0  0
 23 25  1  0  0  0  0
 24 23  1  0  0  0  0
 24 25  1  0  0  0  0
 25 27  1  1  0  0  0
 27 28  1  0  0  0  0
 29 30  1  0  0  0  0
 30 32  1  0  0  0  0
 31 37  1  0  0  0  0
 32 33  1  0  0  0  0
 32 31  2  0  0  0  0
 33 36  2  0  0  0  0
 36 34  1  0  0  0  0
 36 35  1  0  0  0  0
 37 35  2  0  0  0  0
M  END
>  <MODEL>
1

>  <REMARK>
 VINA RESULT:      -6.6      0.000      0.000
  Name = 
  11 active torsions:
  status: ('A' for Active; 'I' for Inactive)
    1  A    between atoms: C_1  and  C_5
    2  A    between atoms: C_4  and  C_10
    3  A    between atoms: C_4  and  O_22
    4  A    between atoms: C_5  and  O_17
    5  A    between atoms: C_5  and  C_23
    6  A    between atoms: C_6  and  C_31
    7  A    between atoms: C_7  and  C_33
    8  A    between atoms: C_10  and  C_14
    9  A    between atoms: C_14  and  C_31
   10  A    between atoms: O_17  and  N_26
   11  A    between atoms: C_20  and  N_24
                            x       y       z     vdW  Elec       q    Type
                         _______ _______ _______ _____ _____    ______ ____

>  <TORSDO>
F 11

$$$$
=
 OpenBabel10262423053D

 37 40  0  0  1  0  0  0  0  0999 V2000
  181.5000  181.5320  138.0590 C   0  0  0  0  0  3  0  0  0  0  0  0
  182.6560  178.0100  139.6130 C   0  0  1  0  0  0  0  0  0  0  0  0
  184.6030  178.1030  137.9140 C   0  0  0  0  0  1  0  0  0  0  0  0
  183.1330  177.8560  138.2580 C   0  0  2  0  0  0  0  0  0  0  0  0
  182.4190  179.1630  138.6270 C   0  0  0  0  0  0  0  0  0  0  0  0
  181.9620  180.3460  138.3360 C   0  0  0  0  0  0  0  0  0  0  0  0
  180.3080  176.8910  134.8860 C   0  0  0  0  0  1  0  0  0  0  0  0
  183.1740  175.0550  136.2200 C   0  0  0  0  0  1  0  0  0  0  0  0
  183.1790  176.5720  136.2510 C   0  0  2  0  0  3  0  0  0  0  0  0
  181.4910  177.7030  135.3830 C   0  0  0  0  0  0  0  0  0  0  0  0
  182.3280  177.0500  137.3280 N   0  0  2  0  0  0  0  0  0  0  0  0
  181.4620  179.0650  134.7190 C   0  0  0  0  0  1  0  0  0  0  0  0
  182.6830  177.0560  135.0450 O   0  0  0  0  0  0  0  0  0  0  0  0
  181.3950  177.8700  136.7730 O   0  0  0  0  0  0  0  0  0  0  0  0
  181.3970  177.3030  140.0440 C   0  0  0  0  0  0  0  0  0  0  0  0
  181.3210  175.9720  139.9900 C   0  0  0  0  0  2  0  0  0  0  0  0
  180.2910  178.0760  140.4160 O   0  0  0  0  0  0  0  0  0  0  0  0
  179.3620  177.6740  141.4160 C   0  0  0  0  0  1  0  0  0  0  0  0
  180.3930  182.1020  138.8740 C   0  0  2  0  0  3  0  0  0  0  0  0
  178.9310  181.2520  140.7000 C   0  0  0  0  0  1  0  0  0  0  0  0
  179.4550  180.9880  139.3030 C   0  0  0  0  0  2  0  0  0  0  0  0
  179.6970  183.0470  138.1160 O   0  0  0  0  0  0  0  0  0  0  0  0
  180.0120  184.3230  136.2650 C   0  0  1  0  0  3  0  0  0  0  0  0
  180.6610  183.7280  137.4440 N   0  0  0  0  0  0  0  0  0  0  0  0
  180.3510  185.1810  137.3940 C   0  0  2  0  0  3  0  0  0  0  0  0
  180.9580  184.4880  135.2550 O   0  0  0  0  0  1  0  0  0  0  0  0
  179.0820  185.5790  138.1450 C   0  0  0  0  0  2  0  0  0  0  0  0
  179.4200  186.3550  139.2520 O   0  0  0  0  0  1  0  0  0  0  0  0
  183.6490  178.3940  140.7050 C   0  0  0  0  0  2  0  0  0  0  0  0
  182.9280  178.6640  142.0140 C   0  0  0  0  0  2  0  0  0  0  0  0
  183.4740  178.9390  144.4400 C   0  0  0  0  0  3  0  0  0  0  0  0
  183.8860  178.5870  143.1500 C   0  0  0  0  0  0  0  0  0  0  0  0
  185.1920  178.1330  142.9350 C   0  0  0  0  0  3  0  0  0  0  0  0
  187.3520  177.6050  143.7950 F   0  0  0  0  0  0  0  0  0  0  0  0
  185.6750  178.3980  145.2930 C   0  0  0  0  0  3  0  0  0  0  0  0
  186.0870  178.0410  144.0050 C   0  0  0  0  0  0  0  0  0  0  0  0
  184.3690  178.8470  145.5100 C   0  0  0  0  0  3  0  0  0  0  0  0
  1  6  2  0  0  0  0
  2 15  1  0  0  0  0
  2 29  1  1  0  0  0
  4  3  1  6  0  0  0
  4  5  1  0  0  0  0
  4  2  1  0  0  0  0
  5  2  1  0  0  0  0
  6  5  2  0  0  0  0
  7 10  1  0  0  0  0
  9  8  1  6  0  0  0
  9 11  1  0  0  0  0
 10 14  1  0  0  0  0
 11 14  1  6  0  0  0
 11  4  1  0  0  0  0
 12 10  1  0  0  0  0
 13 10  1  0  0  0  0
 13  9  1  0  0  0  0
 15 17  1  0  0  0  0
 16 15  2  0  0  0  0
 17 18  1  0  0  0  0
 19  1  1  6  0  0  0
 19 21  1  0  0  0  0
 21 20  1  0  0  0  0
 22 19  1  0  0  0  0
 23 26  1  6  0  0  0
 23 25  1  0  0  0  0
 23 24  1  0  0  0  0
 24 22  1  0  0  0  0
 25 24  1  0  0  0  0
 25 27  1  1  0  0  0
 27 28  1  0  0  0  0
 29 30  1  0  0  0  0
 30 32  1  0  0  0  0
 31 37  1  0  0  0  0
 32 31  2  0  0  0  0
 33 32  1  0  0  0  0
 33 36  2  0  0  0  0
 34 36  1  0  0  0  0
 35 37  2  0  0  0  0
 36 35  1  0  0  0  0
M  END
>  <MODEL>
2

>  <REMARK>
 VINA RESULT:      -6.3      3.201      6.136
  Name = 
  11 active torsions:
  status: ('A' for Active; 'I' for Inactive)
    1  A    between atoms: C_1  and  C_5
    2  A    between atoms: C_4  and  C_10
    3  A    between atoms: C_4  and  O_22
    4  A    between atoms: C_5  and  O_17
    5  A    between atoms: C_5  and  C_23
    6  A    between atoms: C_6  and  C_31
    7  A    between atoms: C_7  and  C_33
    8  A    between atoms: C_10  and  C_14
    9  A    between atoms: C_14  and  C_31
   10  A    between atoms: O_17  and  N_26
   11  A    between atoms: C_20  and  N_24
                            x       y       z     vdW  Elec       q    Type
                         _______ _______ _______ _____ _____    ______ ____

>  <TORSDO>
F 11

$$$$
=
 OpenBabel10262423053D

 37 40  0  0  1  0  0  0  0  0999 V2000
  184.6000  179.1040  142.5200 C   0  0  0  0  0  3  0  0  0  0  0  0
  183.0550  178.3360  138.8890 C   0  0  1  0  0  0  0  0  0  0  0  0
  182.6590  180.8850  138.7160 C   0  0  0  0  0  1  0  0  0  0  0  0
  182.2820  179.5020  139.2500 C   0  0  2  0  0  0  0  0  0  0  0  0
  183.3240  178.9880  140.2520 C   0  0  0  0  0  0  0  0  0  0  0  0
  183.9580  179.0520  141.3880 C   0  0  0  0  0  0  0  0  0  0  0  0
  178.9370  178.7190  142.1610 C   0  0  0  0  0  1  0  0  0  0  0  0
  179.0360  180.7000  139.0900 C   0  0  0  0  0  1  0  0  0  0  0  0
  180.2820  180.5910  139.9490 C   0  0  2  0  0  3  0  0  0  0  0  0
  180.2240  179.4610  141.8470 C   0  0  0  0  0  0  0  0  0  0  0  0
  180.9140  179.2980  139.7470 N   0  0  2  0  0  0  0  0  0  0  0  0
  180.9950  179.6660  143.1350 C   0  0  0  0  0  1  0  0  0  0  0  0
  179.9260  180.7070  141.2890 O   0  0  0  0  0  0  0  0  0  0  0  0
  181.0030  178.6970  140.9650 O   0  0  0  0  0  0  0  0  0  0  0  0
  182.4270  176.9690  138.9760 C   0  0  0  0  0  0  0  0  0  0  0  0
  182.8140  176.1110  139.9220 C   0  0  0  0  0  2  0  0  0  0  0  0
  181.5010  176.5950  137.9970 O   0  0  0  0  0  0  0  0  0  0  0  0
  181.2470  175.2400  137.6430 C   0  0  0  0  0  1  0  0  0  0  0  0
  185.2220  177.8710  143.0720 C   0  0  2  0  0  3  0  0  0  0  0  0
  184.5260  178.9230  145.2180 C   0  0  0  0  0  1  0  0  0  0  0  0
  185.5930  178.0980  144.5260 C   0  0  0  0  0  2  0  0  0  0  0  0
  186.3650  177.5540  142.3310 O   0  0  0  0  0  0  0  0  0  0  0  0
  188.4180  176.7390  142.8510 C   0  0  1  0  0  3  0  0  0  0  0  0
  187.3970  177.7410  143.1940 N   0  0  0  0  0  0  0  0  0  0  0  0
  188.6350  178.1280  142.4670 C   0  0  2  0  0  3  0  0  0  0  0  0
  189.1730  176.4470  143.9860 O   0  0  0  0  0  1  0  0  0  0  0  0
  188.4550  178.2850  140.9580 C   0  0  0  0  0  2  0  0  0  0  0  0
  188.9930  177.1770  140.3070 O   0  0  0  0  0  1  0  0  0  0  0  0
  184.2390  178.5000  137.9400 C   0  0  0  0  0  2  0  0  0  0  0  0
  184.7250  177.1470  137.4510 C   0  0  0  0  0  2  0  0  0  0  0  0
  186.9010  175.9800  137.0480 C   0  0  0  0  0  3  0  0  0  0  0  0
  186.2000  177.1730  137.2620 C   0  0  0  0  0  0  0  0  0  0  0  0
  186.8850  178.3930  137.2670 C   0  0  0  0  0  3  0  0  0  0  0  0
  188.9320  179.6000  137.0780 F   0  0  0  0  0  0  0  0  0  0  0  0
  188.9690  177.2260  136.8610 C   0  0  0  0  0  3  0  0  0  0  0  0
  188.2700  178.4190  137.0690 C   0  0  0  0  0  0  0  0  0  0  0  0
  188.2840  176.0070  136.8510 C   0  0  0  0  0  3  0  0  0  0  0  0
  2 29  1  6  0  0  0
  2 15  1  0  0  0  0
  2  4  1  0  0  0  0
  2  5  1  0  0  0  0
  4  3  1  6  0  0  0
  4 11  1  0  0  0  0
  4  5  1  0  0  0  0
  5  6  2  0  0  0  0
  6  1  2  0  0  0  0
  9  8  1  6  0  0  0
  9 13  1  0  0  0  0
 10  7  1  0  0  0  0
 10 12  1  0  0  0  0
 11  9  1  0  0  0  0
 11 14  1  1  0  0  0
 13 10  1  0  0  0  0
 14 10  1  0  0  0  0
 15 16  2  0  0  0  0
 17 15  1  0  0  0  0
 18 17  1  0  0  0  0
 19  1  1  6  0  0  0
 19 21  1  0  0  0  0
 21 20  1  0  0  0  0
 22 19  1  0  0  0  0
 22 24  1  0  0  0  0
 23 24  1  0  0  0  0
 23 26  1  1  0  0  0
 25 27  1  6  0  0  0
 25 23  1  0  0  0  0
 25 24  1  0  0  0  0
 28 27  1  0  0  0  0
 30 29  1  0  0  0  0
 31 32  1  0  0  0  0
 32 33  2  0  0  0  0
 32 30  1  0  0  0  0
 35 36  2  0  0  0  0
 36 34  1  0  0  0  0
 36 33  1  0  0  0  0
 37 35  1  0  0  0  0
 37 31  2  0  0  0  0
M  END
>  <MODEL>
3

>  <REMARK>
 VINA RESULT:      -6.1      2.335      5.927
  Name = 
  11 active torsions:
  status: ('A' for Active; 'I' for Inactive)
    1  A    between atoms: C_1  and  C_5
    2  A    between atoms: C_4  and  C_10
    3  A    between atoms: C_4  and  O_22
    4  A    between atoms: C_5  and  O_17
    5  A    between atoms: C_5  and  C_23
    6  A    between atoms: C_6  and  C_31
    7  A    between atoms: C_7  and  C_33
    8  A    between atoms: C_10  and  C_14
    9  A    between atoms: C_14  and  C_31
   10  A    between atoms: O_17  and  N_26
   11  A    between atoms: C_20  and  N_24
                            x       y       z     vdW  Elec       q    Type
                         _______ _______ _______ _____ _____    ______ ____

>  <TORSDO>
F 11

$$$$
=
 OpenBabel10262423053D

 37 40  0  0  1  0  0  0  0  0999 V2000
  184.4280  178.8910  141.5980 C   0  0  0  0  0  3  0  0  0  0  0  0
  181.8690  176.7510  139.3540 C   0  0  1  0  0  0  0  0  0  0  0  0
  182.8340  178.0480  137.3360 C   0  0  0  0  0  1  0  0  0  0  0  0
  181.9360  177.9640  138.5720 C   0  0  2  0  0  0  0  0  0  0  0  0
  182.7660  177.8900  139.8600 C   0  0  0  0  0  0  0  0  0  0  0  0
  183.5970  178.3960  140.7250 C   0  0  0  0  0  0  0  0  0  0  0  0
  179.8490  181.9090  139.1770 C   0  0  0  0  0  1  0  0  0  0  0  0
  178.9310  178.9850  137.1840 C   0  0  0  0  0  1  0  0  0  0  0  0
  180.3960  179.3300  137.3720 C   0  0  2  0  0  3  0  0  0  0  0  0
  180.9730  181.1340  138.5100 C   0  0  0  0  0  0  0  0  0  0  0  0
  180.8350  178.9300  138.6990 N   0  0  2  0  0  0  0  0  0  0  0  0
  182.1720  182.0480  138.3590 C   0  0  0  0  0  1  0  0  0  0  0  0
  180.5630  180.7050  137.2450 O   0  0  0  0  0  0  0  0  0  0  0  0
  181.3290  180.0400  139.3120 O   0  0  0  0  0  0  0  0  0  0  0  0
  180.6640  176.4880  140.2200 C   0  0  0  0  0  0  0  0  0  0  0  0
  179.7090  175.6540  139.8060 C   0  0  0  0  0  2  0  0  0  0  0  0
  180.5320  177.2010  141.4160 O   0  0  0  0  0  0  0  0  0  0  0  0
  179.3830  177.9750  141.7390 C   0  0  0  0  0  1  0  0  0  0  0  0
  184.4280  178.3720  142.9920 C   0  0  2  0  0  3  0  0  0  0  0  0
  183.6870  178.9480  145.2970 C   0  0  0  0  0  1  0  0  0  0  0  0
  183.4150  179.1420  143.8190 C   0  0  0  0  0  2  0  0  0  0  0  0
  185.7050  178.5190  143.5420 O   0  0  0  0  0  0  0  0  0  0  0  0
  187.8020  177.8140  143.0320 C   0  0  1  0  0  3  0  0  0  0  0  0
  186.3870  177.4200  143.1280 N   0  0  0  0  0  0  0  0  0  0  0  0
  187.3720  176.9870  144.1530 C   0  0  2  0  0  3  0  0  0  0  0  0
  188.4370  177.0160  142.0820 O   0  0  0  0  0  1  0  0  0  0  0  0
  187.3520  177.8170  145.4350 C   0  0  0  0  0  2  0  0  0  0  0  0
  188.2990  177.3190  146.3280 O   0  0  0  0  0  1  0  0  0  0  0  0
  182.6860  175.5420  138.9110 C   0  0  0  0  0  2  0  0  0  0  0  0
  182.1150  174.9470  137.6350 C   0  0  0  0  0  2  0  0  0  0  0  0
  182.3510  172.7660  136.4320 C   0  0  0  0  0  3  0  0  0  0  0  0
  182.9300  173.7780  137.2080 C   0  0  0  0  0  0  0  0  0  0  0  0
  184.2830  173.7040  137.5540 C   0  0  0  0  0  3  0  0  0  0  0  0
  186.3630  172.5410  137.4750 F   0  0  0  0  0  0  0  0  0  0  0  0
  184.4740  171.6020  136.3650 C   0  0  0  0  0  3  0  0  0  0  0  0
  185.0550  172.6140  137.1360 C   0  0  0  0  0  0  0  0  0  0  0  0
  183.1220  171.6780  136.0140 C   0  0  0  0  0  3  0  0  0  0  0  0
  2 29  1  6  0  0  0
  2  5  1  0  0  0  0
  2 15  1  0  0  0  0
  4  3  1  6  0  0  0
  4 11  1  0  0  0  0
  4  2  1  0  0  0  0
  4  5  1  0  0  0  0
  5  6  2  0  0  0  0
  6  1  2  0  0  0  0
  9  8  1  1  0  0  0
  9 11  1  0  0  0  0
 10  7  1  0  0  0  0
 10 14  1  0  0  0  0
 11 14  1  1  0  0  0
 12 10  1  0  0  0  0
 13  9  1  0  0  0  0
 13 10  1  0  0  0  0
 15 17  1  0  0  0  0
 16 15  2  0  0  0  0
 17 18  1  0  0  0  0
 19  1  1  6  0  0  0
 19 22  1  0  0  0  0
 19 21  1  0  0  0  0
 21 20  1  0  0  0  0
 23 26  1  6  0  0  0
 23 24  1  0  0  0  0
 23 25  1  0  0  0  0
 24 22  1  0  0  0  0
 24 25  1  0  0  0  0
 25 27  1  1  0  0  0
 27 28  1  0  0  0  0
 30 29  1  0  0  0  0
 31 32  1  0  0  0  0
 32 33  2  0  0  0  0
 32 30  1  0  0  0  0
 35 36  2  0  0  0  0
 36 34  1  0  0  0  0
 36 33  1  0  0  0  0
 37 35  1  0  0  0  0
 37 31  2  0  0  0  0
M  END
>  <MODEL>
4

>  <REMARK>
 VINA RESULT:      -6.0      3.115      6.189
  Name = 
  11 active torsions:
  status: ('A' for Active; 'I' for Inactive)
    1  A    between atoms: C_1  and  C_5
    2  A    between atoms: C_4  and  C_10
    3  A    between atoms: C_4  and  O_22
    4  A    between atoms: C_5  and  O_17
    5  A    between atoms: C_5  and  C_23
    6  A    between atoms: C_6  and  C_31
    7  A    between atoms: C_7  and  C_33
    8  A    between atoms: C_10  and  C_14
    9  A    between atoms: C_14  and  C_31
   10  A    between atoms: O_17  and  N_26
   11  A    between atoms: C_20  and  N_24
                            x       y       z     vdW  Elec       q    Type
                         _______ _______ _______ _____ _____    ______ ____

>  <TORSDO>
F 11

$$$$
=
 OpenBabel10262423053D

 37 40  0  0  1  0  0  0  0  0999 V2000
  185.2560  179.2200  141.5780 C   0  0  0  0  0  3  0  0  0  0  0  0
  189.0320  177.8830  141.9220 C   0  0  1  0  0  0  0  0  0  0  0  0
  189.5490  179.3490  139.8560 C   0  0  0  0  0  1  0  0  0  0  0  0
  188.9660  178.0860  140.4940 C   0  0  2  0  0  0  0  0  0  0  0  0
  187.7180  178.4070  141.3260 C   0  0  0  0  0  0  0  0  0  0  0  0
  186.4870  178.8140  141.4450 C   0  0  0  0  0  0  0  0  0  0  0  0
  187.1830  175.5030  137.2630 C   0  0  0  0  0  1  0  0  0  0  0  0
  190.5710  175.6460  138.6300 C   0  0  0  0  0  1  0  0  0  0  0  0
  189.7360  176.9120  138.5680 C   0  0  2  0  0  3  0  0  0  0  0  0
  187.7140  176.8640  137.6780 C   0  0  0  0  0  0  0  0  0  0  0  0
  188.7510  176.9110  139.6370 N   0  0  2  0  0  0  0  0  0  0  0  0
  186.9450  177.9360  136.9340 C   0  0  0  0  0  1  0  0  0  0  0  0
  189.0690  176.9620  137.3490 O   0  0  0  0  0  0  0  0  0  0  0  0
  187.5260  177.0410  139.0570 O   0  0  0  0  0  0  0  0  0  0  0  0
  188.9370  176.4870  142.4820 C   0  0  0  0  0  0  0  0  0  0  0  0
  187.9110  176.1440  143.2630 C   0  0  0  0  0  2  0  0  0  0  0  0
  189.9870  175.5960  142.2360 O   0  0  0  0  0  0  0  0  0  0  0  0
  190.6560  174.8770  143.2660 C   0  0  0  0  0  1  0  0  0  0  0  0
  184.4590  178.7830  142.7560 C   0  0  2  0  0  3  0  0  0  0  0  0
  185.5080  178.4910  144.9950 C   0  0  0  0  0  1  0  0  0  0  0  0
  185.3020  177.8700  143.6280 C   0  0  0  0  0  2  0  0  0  0  0  0
  183.3170  178.1070  142.3190 O   0  0  0  0  0  0  0  0  0  0  0  0
  181.9960  177.8040  140.4980 C   0  0  1  0  0  3  0  0  0  0  0  0
  183.0400  178.6460  141.1040 N   0  0  0  0  0  0  0  0  0  0  0  0
  181.6290  179.1090  141.0350 C   0  0  2  0  0  3  0  0  0  0  0  0
  182.0920  177.8830  139.1100 O   0  0  0  0  0  1  0  0  0  0  0  0
  180.8460  178.9360  142.3350 C   0  0  0  0  0  2  0  0  0  0  0  0
  180.5270  180.1890  142.8560 O   0  0  0  0  0  1  0  0  0  0  0  0
  189.7200  178.9360  142.7860 C   0  0  0  0  0  2  0  0  0  0  0  0
  190.9780  178.3680  143.4200 C   0  0  0  0  0  2  0  0  0  0  0  0
  189.4860  178.2860  145.4270 C   0  0  0  0  0  3  0  0  0  0  0  0
  190.6930  177.9300  144.8130 C   0  0  0  0  0  0  0  0  0  0  0  0
  191.6170  177.1370  145.5020 C   0  0  0  0  0  3  0  0  0  0  0  0
  192.2370  175.9440  147.4710 F   0  0  0  0  0  0  0  0  0  0  0  0
  190.1360  177.0690  147.4170 C   0  0  0  0  0  3  0  0  0  0  0  0
  191.3400  176.7090  146.8040 C   0  0  0  0  0  0  0  0  0  0  0  0
  189.2090  177.8580  146.7280 C   0  0  0  0  0  3  0  0  0  0  0  0
  2 15  1  0  0  0  0
  2 29  1  1  0  0  0
  4  3  1  6  0  0  0
  4  5  1  0  0  0  0
  4  2  1  0  0  0  0
  5  6  2  0  0  0  0
  5  2  1  0  0  0  0
  6  1  2  0  0  0  0
  7 10  1  0  0  0  0
  9  8  1  6  0  0  0
  9 11  1  0  0  0  0
 10 14  1  0  0  0  0
 11 14  1  6  0  0  0
 11  4  1  0  0  0  0
 12 10  1  0  0  0  0
 13 10  1  0  0  0  0
 13  9  1  0  0  0  0
 15 16  2  0  0  0  0
 17 15  1  0  0  0  0
 17 18  1  0  0  0  0
 19  1  1  6  0  0  0
 19 21  1  0  0  0  0
 21 20  1  0  0  0  0
 22 19  1  0  0  0  0
 23 26  1  6  0  0  0
 23 25  1  0  0  0  0
 23 24  1  0  0  0  0
 24 22  1  0  0  0  0
 25 24  1  0  0  0  0
 25 27  1  1  0  0  0
 27 28  1  0  0  0  0
 29 30  1  0  0  0  0
 30 32  1  0  0  0  0
 31 37  1  0  0  0  0
 32 31  2  0  0  0  0
 32 33  1  0  0  0  0
 33 36  2  0  0  0  0
 36 35  1  0  0  0  0
 36 34  1  0  0  0  0
 37 35  2  0  0  0  0
M  END
>  <MODEL>
5

>  <REMARK>
 VINA RESULT:      -5.7      3.015      7.577
  Name = 
  11 active torsions:
  status: ('A' for Active; 'I' for Inactive)
    1  A    between atoms: C_1  and  C_5
    2  A    between atoms: C_4  and  C_10
    3  A    between atoms: C_4  and  O_22
    4  A    between atoms: C_5  and  O_17
    5  A    between atoms: C_5  and  C_23
    6  A    between atoms: C_6  and  C_31
    7  A    between atoms: C_7  and  C_33
    8  A    between atoms: C_10  and  C_14
    9  A    between atoms: C_14  and  C_31
   10  A    between atoms: O_17  and  N_26
   11  A    between atoms: C_20  and  N_24
                            x       y       z     vdW  Elec       q    Type
                         _______ _______ _______ _____ _____    ______ ____

>  <TORSDO>
F 11

$$$$
=
 OpenBabel10262423053D

 37 40  0  0  1  0  0  0  0  0999 V2000
  189.0760  178.1340  138.9260 C   0  0  0  0  0  3  0  0  0  0  0  0
  188.3290  175.8060  135.7350 C   0  0  1  0  0  0  0  0  0  0  0  0
  187.1560  177.8770  134.7240 C   0  0  0  0  0  1  0  0  0  0  0  0
  187.1830  176.6830  135.6800 C   0  0  2  0  0  0  0  0  0  0  0  0
  188.2000  176.8950  136.8090 C   0  0  0  0  0  0  0  0  0  0  0  0
  188.6320  177.5180  137.8680 C   0  0  0  0  0  0  0  0  0  0  0  0
  183.5790  176.3230  138.3580 C   0  0  0  0  0  1  0  0  0  0  0  0
  183.9870  175.6970  134.7790 C   0  0  0  0  0  1  0  0  0  0  0  0
  184.8130  176.7800  135.4470 C   0  0  2  0  0  3  0  0  0  0  0  0
  184.5300  177.2260  137.5920 C   0  0  0  0  0  0  0  0  0  0  0  0
  185.9020  176.1810  136.2000 N   0  0  2  0  0  0  0  0  0  0  0  0
  184.6850  178.5280  138.3520 C   0  0  0  0  0  1  0  0  0  0  0  0
  184.0070  177.4960  136.3250 O   0  0  0  0  0  0  0  0  0  0  0  0
  185.7840  176.6060  137.4880 O   0  0  0  0  0  0  0  0  0  0  0  0
  188.1710  174.4040  136.2610 C   0  0  0  0  0  0  0  0  0  0  0  0
  188.8370  174.0150  137.3500 C   0  0  0  0  0  2  0  0  0  0  0  0
  187.3830  173.5020  135.5360 O   0  0  0  0  0  0  0  0  0  0  0  0
  186.4080  172.6610  136.1400 C   0  0  0  0  0  1  0  0  0  0  0  0
  189.9880  177.4240  139.8630 C   0  0  2  0  0  3  0  0  0  0  0  0
  192.2030  176.8610  138.8770 C   0  0  0  0  0  1  0  0  0  0  0  0
  190.7840  176.3800  139.1020 C   0  0  0  0  0  2  0  0  0  0  0  0
  189.2360  176.8120  140.8700 O   0  0  0  0  0  0  0  0  0  0  0  0
  190.4560  177.1480  142.7540 C   0  0  1  0  0  3  0  0  0  0  0  0
  190.1550  176.2050  141.6650 N   0  0  0  0  0  0  0  0  0  0  0  0
  189.6150  175.9900  143.0330 C   0  0  2  0  0  3  0  0  0  0  0  0
  191.7470  176.9090  143.2230 O   0  0  0  0  0  1  0  0  0  0  0  0
  188.1640  176.4320  143.2140 C   0  0  0  0  0  2  0  0  0  0  0  0
  188.0090  177.0170  144.4690 O   0  0  0  0  0  1  0  0  0  0  0  0
  189.5050  176.0710  134.8000 C   0  0  0  0  0  2  0  0  0  0  0  0
  190.3210  174.8060  134.5940 C   0  0  0  0  0  2  0  0  0  0  0  0
  192.4620  176.0820  134.8140 C   0  0  0  0  0  3  0  0  0  0  0  0
  191.6810  174.9770  135.1720 C   0  0  0  0  0  0  0  0  0  0  0  0
  192.1690  174.0500  136.1000 C   0  0  0  0  0  3  0  0  0  0  0  0
  193.9130  173.3220  137.5540 F   0  0  0  0  0  0  0  0  0  0  0  0
  194.2200  175.3240  136.2960 C   0  0  0  0  0  3  0  0  0  0  0  0
  193.4400  174.2220  136.6590 C   0  0  0  0  0  0  0  0  0  0  0  0
  193.7310  176.2530  135.3730 C   0  0  0  0  0  3  0  0  0  0  0  0
  2 29  1  6  0  0  0
  2 15  1  0  0  0  0
  2  5  1  0  0  0  0
  4  3  1  6  0  0  0
  4  2  1  0  0  0  0
  4 11  1  0  0  0  0
  4  5  1  0  0  0  0
  5  6  2  0  0  0  0
  6  1  2  0  0  0  0
  9  8  1  1  0  0  0
  9 11  1  0  0  0  0
  9 13  1  0  0  0  0
 10 12  1  0  0  0  0
 10  7  1  0  0  0  0
 11 14  1  1  0  0  0
 13 10  1  0  0  0  0
 14 10  1  0  0  0  0
 15 16  2  0  0  0  0
 17 18  1  0  0  0  0
 17 15  1  0  0  0  0
 19  1  1  6  0  0  0
 19 22  1  0  0  0  0
 20 21  1  0  0  0  0
 21 19  1  0  0  0  0
 22 24  1  0  0  0  0
 23 25  1  0  0  0  0
 23 26  1  1  0  0  0
 24 23  1  0  0  0  0
 24 25  1  0  0  0  0
 25 27  1  6  0  0  0
 27 28  1  0  0  0  0
 30 29  1  0  0  0  0
 30 32  1  0  0  0  0
 31 32  2  0  0  0  0
 31 37  1  0  0  0  0
 32 33  1  0  0  0  0
 33 36  2  0  0  0  0
 35 36  1  0  0  0  0
 36 34  1  0  0  0  0
 37 35  2  0  0  0  0
M  END
>  <MODEL>
6

>  <REMARK>
 VINA RESULT:      -5.7      3.898      7.652
  Name = 
  11 active torsions:
  status: ('A' for Active; 'I' for Inactive)
    1  A    between atoms: C_1  and  C_5
    2  A    between atoms: C_4  and  C_10
    3  A    between atoms: C_4  and  O_22
    4  A    between atoms: C_5  and  O_17
    5  A    between atoms: C_5  and  C_23
    6  A    between atoms: C_6  and  C_31
    7  A    between atoms: C_7  and  C_33
    8  A    between atoms: C_10  and  C_14
    9  A    between atoms: C_14  and  C_31
   10  A    between atoms: O_17  and  N_26
   11  A    between atoms: C_20  and  N_24
                            x       y       z     vdW  Elec       q    Type
                         _______ _______ _______ _____ _____    ______ ____

>  <TORSDO>
F 11

$$$$
=
 OpenBabel10262423053D

 37 40  0  0  1  0  0  0  0  0999 V2000
  185.2250  178.8910  138.7780 C   0  0  0  0  0  3  0  0  0  0  0  0
  182.3900  176.3890  137.4130 C   0  0  1  0  0  0  0  0  0  0  0  0
  182.3710  177.8590  135.2850 C   0  0  0  0  0  1  0  0  0  0  0  0
  181.9920  177.6070  136.7460 C   0  0  2  0  0  0  0  0  0  0  0  0
  183.2260  177.6530  137.6580 C   0  0  0  0  0  0  0  0  0  0  0  0
  184.2230  178.2790  138.2150 C   0  0  0  0  0  0  0  0  0  0  0  0
  179.8420  180.7750  139.1170 C   0  0  0  0  0  1  0  0  0  0  0  0
  178.9310  179.0570  136.0220 C   0  0  0  0  0  1  0  0  0  0  0  0
  180.3930  179.3230  136.3260 C   0  0  2  0  0  3  0  0  0  0  0  0
  180.9630  180.4260  138.1540 C   0  0  0  0  0  0  0  0  0  0  0  0
  180.8760  178.3760  137.3170 N   0  0  2  0  0  0  0  0  0  0  0  0
  182.1390  181.3440  138.4200 C   0  0  0  0  0  1  0  0  0  0  0  0
  180.5280  180.6090  136.8390 O   0  0  0  0  0  0  0  0  0  0  0  0
  181.3630  179.0980  138.3620 O   0  0  0  0  0  0  0  0  0  0  0  0
  181.6240  175.9170  138.6210 C   0  0  0  0  0  0  0  0  0  0  0  0
  182.1790  175.9770  139.8340 C   0  0  0  0  0  2  0  0  0  0  0  0
  180.3650  175.3390  138.4310 O   0  0  0  0  0  0  0  0  0  0  0  0
  180.1500  173.9330  138.3980 C   0  0  0  0  0  1  0  0  0  0  0  0
  185.7970  178.3600  140.0440 C   0  0  2  0  0  3  0  0  0  0  0  0
  185.4230  178.2430  142.5030 C   0  0  0  0  0  1  0  0  0  0  0  0
  185.0780  178.9850  141.2270 C   0  0  0  0  0  2  0  0  0  0  0  0
  187.1600  178.6610  140.1010 O   0  0  0  0  0  0  0  0  0  0  0  0
  188.9640  178.8170  138.7310 C   0  0  1  0  0  3  0  0  0  0  0  0
  187.6750  178.1430  138.9550 N   0  0  0  0  0  0  0  0  0  0  0  0
  188.9600  177.4430  139.2170 C   0  0  2  0  0  3  0  0  0  0  0  0
  189.2450  178.8260  137.3660 O   0  0  0  0  0  1  0  0  0  0  0  0
  189.3690  177.4090  140.6880 C   0  0  0  0  0  2  0  0  0  0  0  0
  190.1920  176.3080  140.9170 O   0  0  0  0  0  1  0  0  0  0  0  0
  183.1700  175.3390  136.6270 C   0  0  0  0  0  2  0  0  0  0  0  0
  183.7510  174.2930  137.5630 C   0  0  0  0  0  2  0  0  0  0  0  0
  185.8010  172.8670  137.4110 C   0  0  0  0  0  3  0  0  0  0  0  0
  185.2070  174.1300  137.3020 C   0  0  0  0  0  0  0  0  0  0  0  0
  185.9780  175.2320  136.9180 C   0  0  0  0  0  3  0  0  0  0  0  0
  188.0880  176.1430  136.2850 F   0  0  0  0  0  0  0  0  0  0  0  0
  187.9350  173.8140  136.7680 C   0  0  0  0  0  3  0  0  0  0  0  0
  187.3420  175.0750  136.6530 C   0  0  0  0  0  0  0  0  0  0  0  0
  187.1640  172.7100  137.1470 C   0  0  0  0  0  3  0  0  0  0  0  0
  2 29  1  6  0  0  0
  2  5  1  0  0  0  0
  2 15  1  0  0  0  0
  4  3  1  6  0  0  0
  4 11  1  0  0  0  0
  4  2  1  0  0  0  0
  4  5  1  0  0  0  0
  5  6  2  0  0  0  0
  6  1  2  0  0  0  0
  9  8  1  1  0  0  0
  9 13  1  0  0  0  0
  9 11  1  0  0  0  0
 10 14  1  0  0  0  0
 10 12  1  0  0  0  0
 10  7  1  0  0  0  0
 11 14  1  1  0  0  0
 13 10  1  0  0  0  0
 15 16  2  0  0  0  0
 17 15  1  0  0  0  0
 18 17  1  0  0  0  0
 19  1  1  6  0  0  0
 19 22  1  0  0  0  0
 19 21  1  0  0  0  0
 21 20  1  0  0  0  0
 23 26  1  6  0  0  0
 23 24  1  0  0  0  0
 23 25  1  0  0  0  0
 24 25  1  0  0  0  0
 24 22  1  0  0  0  0
 25 27  1  1  0  0  0
 27 28  1  0  0  0  0
 29 30  1  0  0  0  0
 32 31  1  0  0  0  0
 32 30  1  0  0  0  0
 33 32  2  0  0  0  0
 34 36  1  0  0  0  0
 35 37  1  0  0  0  0
 36 35  2  0  0  0  0
 36 33  1  0  0  0  0
 37 31  2  0  0  0  0
M  END
>  <MODEL>
7

>  <REMARK>
 VINA RESULT:      -5.6      2.654      5.391
  Name = 
  11 active torsions:
  status: ('A' for Active; 'I' for Inactive)
    1  A    between atoms: C_1  and  C_5
    2  A    between atoms: C_4  and  C_10
    3  A    between atoms: C_4  and  O_22
    4  A    between atoms: C_5  and  O_17
    5  A    between atoms: C_5  and  C_23
    6  A    between atoms: C_6  and  C_31
    7  A    between atoms: C_7  and  C_33
    8  A    between atoms: C_10  and  C_14
    9  A    between atoms: C_14  and  C_31
   10  A    between atoms: O_17  and  N_26
   11  A    between atoms: C_20  and  N_24
                            x       y       z     vdW  Elec       q    Type
                         _______ _______ _______ _____ _____    ______ ____

>  <TORSDO>
F 11

$$$$
=
 OpenBabel10262423053D

 37 40  0  0  1  0  0  0  0  0999 V2000
  185.2800  178.8850  140.7560 C   0  0  0  0  0  3  0  0  0  0  0  0
  189.0080  177.8590  141.8560 C   0  0  1  0  0  0  0  0  0  0  0  0
  189.8020  179.3310  139.8840 C   0  0  0  0  0  1  0  0  0  0  0  0
  189.2040  178.0350  140.4360 C   0  0  2  0  0  0  0  0  0  0  0  0
  187.7980  178.2670  141.0040 C   0  0  0  0  0  0  0  0  0  0  0  0
  186.5400  178.5760  140.8720 C   0  0  0  0  0  0  0  0  0  0  0  0
  188.0890  175.1550  137.1580 C   0  0  0  0  0  1  0  0  0  0  0  0
  191.3160  175.9050  138.7030 C   0  0  0  0  0  1  0  0  0  0  0  0
  190.2760  177.0030  138.5750 C   0  0  2  0  0  3  0  0  0  0  0  0
  188.3480  176.5910  137.5780 C   0  0  0  0  0  0  0  0  0  0  0  0
  189.2480  176.8340  139.5880 N   0  0  2  0  0  0  0  0  0  0  0  0
  187.4440  177.5050  136.7750 C   0  0  0  0  0  1  0  0  0  0  0  0
  189.6800  176.9250  137.3200 O   0  0  0  0  0  0  0  0  0  0  0  0
  188.0550  176.7420  138.9410 O   0  0  0  0  0  0  0  0  0  0  0  0
  188.9130  176.4680  142.4280 C   0  0  0  0  0  0  0  0  0  0  0  0
  187.8910  176.1350  143.2180 C   0  0  0  0  0  2  0  0  0  0  0  0
  189.9590  175.5710  142.1830 O   0  0  0  0  0  0  0  0  0  0  0  0
  190.7180  174.9580  143.2180 C   0  0  0  0  0  1  0  0  0  0  0  0
  184.3060  178.4030  141.7710 C   0  0  2  0  0  3  0  0  0  0  0  0
  182.8620  177.3600  140.0320 C   0  0  0  0  0  1  0  0  0  0  0  0
  182.9150  178.3680  141.1630 C   0  0  0  0  0  2  0  0  0  0  0  0
  184.3230  179.2610  142.8750 O   0  0  0  0  0  0  0  0  0  0  0  0
  184.9070  179.3720  145.0660 C   0  0  1  0  0  3  0  0  0  0  0  0
  184.7110  178.4770  143.9140 N   0  0  0  0  0  0  0  0  0  0  0  0
  183.7180  178.5290  145.0200 C   0  0  2  0  0  3  0  0  0  0  0  0
  185.8430  178.8080  145.9300 O   0  0  0  0  0  1  0  0  0  0  0  0
  182.4870  179.3810  144.7200 C   0  0  0  0  0  2  0  0  0  0  0  0
  181.4290  178.5550  144.3460 O   0  0  0  0  0  1  0  0  0  0  0  0
  189.4350  178.9750  142.8040 C   0  0  0  0  0  2  0  0  0  0  0  0
  190.7890  178.6660  143.4190 C   0  0  0  0  0  2  0  0  0  0  0  0
  189.4110  178.2550  145.4660 C   0  0  0  0  0  3  0  0  0  0  0  0
  190.6110  178.0680  144.7690 C   0  0  0  0  0  0  0  0  0  0  0  0
  191.6300  177.2930  145.3330 C   0  0  0  0  0  3  0  0  0  0  0  0
  192.4430  175.9670  147.1400 F   0  0  0  0  0  0  0  0  0  0  0  0
  190.2570  176.9060  147.2900 C   0  0  0  0  0  3  0  0  0  0  0  0
  191.4550  176.7140  146.5940 C   0  0  0  0  0  0  0  0  0  0  0  0
  189.2360  177.6760  146.7260 C   0  0  0  0  0  3  0  0  0  0  0  0
  1  6  2  0  0  0  0
  2 15  1  0  0  0  0
  2 29  1  1  0  0  0
  4  3  1  6  0  0  0
  4  5  1  0  0  0  0
  4  2  1  0  0  0  0
  5  2  1  0  0  0  0
  6  5  2  0  0  0  0
  7 10  1  0  0  0  0
  9  8  1  6  0  0  0
  9 11  1  0  0  0  0
 10 14  1  0  0  0  0
 11 14  1  6  0  0  0
 11  4  1  0  0  0  0
 12 10  1  0  0  0  0
 13 10  1  0  0  0  0
 13  9  1  0  0  0  0
 15 16  2  0  0  0  0
 17 15  1  0  0  0  0
 17 18  1  0  0  0  0
 19  1  1  6  0  0  0
 19 22  1  0  0  0  0
 20 21  1  0  0  0  0
 21 19  1  0  0  0  0
 22 24  1  0  0  0  0
 23 26  1  1  0  0  0
 24 25  1  0  0  0  0
 24 23  1  0  0  0  0
 25 27  1  6  0  0  0
 25 23  1  0  0  0  0
 28 27  1  0  0  0  0
 29 30  1  0  0  0  0
 30 32  1  0  0  0  0
 31 37  1  0  0  0  0
 32 33  1  0  0  0  0
 32 31  2  0  0  0  0
 33 36  2  0  0  0  0
 36 34  1  0  0  0  0
 36 35  1  0  0  0  0
 37 35  2  0  0  0  0
M  END
>  <MODEL>
8

>  <REMARK>
 VINA RESULT:      -5.6      3.407      7.520
  Name = 
  11 active torsions:
  status: ('A' for Active; 'I' for Inactive)
    1  A    between atoms: C_1  and  C_5
    2  A    between atoms: C_4  and  C_10
    3  A    between atoms: C_4  and  O_22
    4  A    between atoms: C_5  and  O_17
    5  A    between atoms: C_5  and  C_23
    6  A    between atoms: C_6  and  C_31
    7  A    between atoms: C_7  and  C_33
    8  A    between atoms: C_10  and  C_14
    9  A    between atoms: C_14  and  C_31
   10  A    between atoms: O_17  and  N_26
   11  A    between atoms: C_20  and  N_24
                            x       y       z     vdW  Elec       q    Type
                         _______ _______ _______ _____ _____    ______ ____

>  <TORSDO>
F 11

$$$$
=
 OpenBabel10262423053D

 37 40  0  0  1  0  0  0  0  0999 V2000
  185.1830  179.2750  141.2650 C   0  0  0  0  0  3  0  0  0  0  0  0
  188.6260  177.7400  142.6610 C   0  0  1  0  0  0  0  0  0  0  0  0
  189.8040  179.4610  141.1330 C   0  0  0  0  0  1  0  0  0  0  0  0
  189.0490  178.1470  141.3410 C   0  0  2  0  0  0  0  0  0  0  0  0
  187.5890  178.4000  141.7410 C   0  0  0  0  0  0  0  0  0  0  0  0
  186.3880  178.8390  141.4960 C   0  0  0  0  0  0  0  0  0  0  0  0
  188.1210  175.8890  137.5560 C   0  0  0  0  0  1  0  0  0  0  0  0
  191.2650  176.3710  139.3580 C   0  0  0  0  0  1  0  0  0  0  0  0
  190.2170  177.4680  139.3780 C   0  0  2  0  0  3  0  0  0  0  0  0
  188.3410  177.2290  138.2360 C   0  0  0  0  0  0  0  0  0  0  0  0
  189.1470  177.1160  140.2970 N   0  0  2  0  0  0  0  0  0  0  0  0
  187.4620  178.2660  137.5670 C   0  0  0  0  0  1  0  0  0  0  0  0
  189.6790  177.6110  138.1040 O   0  0  0  0  0  0  0  0  0  0  0  0
  187.9850  177.1330  139.5890 O   0  0  0  0  0  0  0  0  0  0  0  0
  188.3580  176.2850  142.9420 C   0  0  0  0  0  0  0  0  0  0  0  0
  187.2520  175.9180  143.5920 C   0  0  0  0  0  2  0  0  0  0  0  0
  189.3310  175.3440  142.5850 O   0  0  0  0  0  0  0  0  0  0  0  0
  190.6020  175.2600  143.2180 C   0  0  0  0  0  1  0  0  0  0  0  0
  184.0360  178.7100  142.0260 C   0  0  2  0  0  3  0  0  0  0  0  0
  183.7630  178.9950  144.4840 C   0  0  0  0  0  1  0  0  0  0  0  0
  184.5110  178.2540  143.3940 C   0  0  0  0  0  2  0  0  0  0  0  0
  183.4980  177.6300  141.3220 O   0  0  0  0  0  0  0  0  0  0  0  0
  182.2880  178.4430  139.5810 C   0  0  1  0  0  3  0  0  0  0  0  0
  182.2410  178.0250  140.9920 N   0  0  0  0  0  0  0  0  0  0  0  0
  181.6760  177.1640  139.9200 C   0  0  2  0  0  3  0  0  0  0  0  0
  181.2920  179.3890  139.3490 O   0  0  0  0  0  1  0  0  0  0  0  0
  182.5880  176.0180  139.4870 C   0  0  0  0  0  2  0  0  0  0  0  0
  183.1230  176.2980  138.2310 O   0  0  0  0  0  1  0  0  0  0  0  0
  188.9720  178.6280  143.8520 C   0  0  0  0  0  2  0  0  0  0  0  0
  189.6520  177.8190  144.9440 C   0  0  0  0  0  2  0  0  0  0  0  0
  189.5130  177.7770  147.4410 C   0  0  0  0  0  3  0  0  0  0  0  0
  188.8680  177.9050  146.2050 C   0  0  0  0  0  0  0  0  0  0  0  0
  187.4900  178.1460  146.1590 C   0  0  0  0  0  3  0  0  0  0  0  0
  185.4230  178.4750  147.3000 F   0  0  0  0  0  0  0  0  0  0  0  0
  187.4020  178.1130  148.5790 C   0  0  0  0  0  3  0  0  0  0  0  0
  186.7570  178.2470  147.3460 C   0  0  0  0  0  0  0  0  0  0  0  0
  188.7790  177.8780  148.6260 C   0  0  0  0  0  3  0  0  0  0  0  0
  1  6  2  0  0  0  0
  2 15  1  0  0  0  0
  2 29  1  1  0  0  0
  4  3  1  6  0  0  0
  4  5  1  0  0  0  0
  4  2  1  0  0  0  0
  5  2  1  0  0  0  0
  6  5  2  0  0  0  0
  7 10  1  0  0  0  0
  9  8  1  6  0  0  0
  9 11  1  0  0  0  0
 10 14  1  0  0  0  0
 11 14  1  6  0  0  0
 11  4  1  0  0  0  0
 12 10  1  0  0  0  0
 13 10  1  0  0  0  0
 13  9  1  0  0  0  0
 15 16  2  0  0  0  0
 17 15  1  0  0  0  0
 17 18  1  0  0  0  0
 19  1  1  6  0  0  0
 19 21  1  0  0  0  0
 21 20  1  0  0  0  0
 22 19  1  0  0  0  0
 23 26  1  1  0  0  0
 23 25  1  0  0  0  0
 23 24  1  0  0  0  0
 24 22  1  0  0  0  0
 25 27  1  6  0  0  0
 25 24  1  0  0  0  0
 28 27  1  0  0  0  0
 29 30  1  0  0  0  0
 30 32  1  0  0  0  0
 31 37  1  0  0  0  0
 32 31  2  0  0  0  0
 33 32  1  0  0  0  0
 33 36  2  0  0  0  0
 34 36  1  0  0  0  0
 35 37  2  0  0  0  0
 36 35  1  0  0  0  0
M  END
>  <MODEL>
9

>  <REMARK>
 VINA RESULT:      -5.5      2.474      7.482
  Name = 
  11 active torsions:
  status: ('A' for Active; 'I' for Inactive)
    1  A    between atoms: C_1  and  C_5
    2  A    between atoms: C_4  and  C_10
    3  A    between atoms: C_4  and  O_22
    4  A    between atoms: C_5  and  O_17
    5  A    between atoms: C_5  and  C_23
    6  A    between atoms: C_6  and  C_31
    7  A    between atoms: C_7  and  C_33
    8  A    between atoms: C_10  and  C_14
    9  A    between atoms: C_14  and  C_31
   10  A    between atoms: O_17  and  N_26
   11  A    between atoms: C_20  and  N_24
                            x       y       z     vdW  Elec       q    Type
                         _______ _______ _______ _____ _____    ______ ____

>  <TORSDO>
F 11

$$$$
