=
 OpenBabel10262419543D

 25 28  0  0  1  0  0  0  0  0999 V2000
  187.1060  177.8190  143.0030 C   0  0  0  0  0  0  0  0  0  0  0  0
  188.4410  177.4730  142.7920 C   0  0  0  0  0  0  0  0  0  0  0  0
  186.9290  178.7440  140.7950 C   0  0  0  0  0  3  0  0  0  0  0  0
  186.2080  177.5650  144.1610 C   0  0  2  0  0  3  0  0  0  0  0  0
  190.5300  176.1990  143.3670 C   0  0  1  0  0  3  0  0  0  0  0  0
  184.2940  178.8890  145.8570 C   0  0  0  0  0  3  0  0  0  0  0  0
  188.2420  178.4350  140.5860 N   0  0  0  0  0  0  0  0  0  0  0  0
  184.9520  178.2240  143.6490 C   0  0  0  0  0  0  0  0  0  0  0  0
  183.9170  178.6500  144.5940 C   0  0  0  0  0  3  0  0  0  0  0  0
  189.2560  176.8540  143.8930 C   0  0  0  0  0  2  0  0  0  0  0  0
  185.7210  178.7750  146.2630 C   0  0  0  0  0  3  0  0  0  0  0  0
  186.3600  178.4110  142.0180 C   0  0  0  0  0  0  0  0  0  0  0  0
  185.0370  178.6930  142.4430 N   0  0  0  0  0  0  0  0  0  0  0  0
  190.4320  177.4570  141.1980 C   0  0  2  0  0  3  0  0  0  0  0  0
  186.6340  178.2160  145.4510 C   0  0  0  0  0  3  0  0  0  0  0  0
  191.2730  177.1590  142.4430 C   0  0  0  0  0  2  0  0  0  0  0  0
  189.0120  177.8240  141.5400 C   0  0  0  0  0  0  0  0  0  0  0  0
  192.0940  176.1910  146.9120 C   0  0  0  0  0  0  0  0  0  0  0  0
  191.9130  176.9540  148.0560 O   0  0  0  0  0  1  0  0  0  0  0  0
  192.9350  175.2540  146.9160 O   0  0  0  0  0  0  0  0  0  0  0  0
  191.4060  175.7760  144.5000 C   0  0  0  0  0  0  0  0  0  0  0  0
  191.3200  176.4810  145.7420 N   0  0  0  0  0  2  0  0  0  0  0  0
  192.2050  174.8120  144.3560 O   0  0  0  0  0  0  0  0  0  0  0  0
  190.4410  176.3110  140.3020 N   0  0  0  0  0  2  0  0  0  0  0  0
  191.1330  176.7180  139.0920 C   0  0  0  0  0  1  0  0  0  0  0  0
  1  4  1  0  0  0  0
  2  1  1  0  0  0  0
  2 10  1  0  0  0  0
  3 12  1  0  0  0  0
  4 15  1  1  0  0  0
  5 10  1  0  0  0  0
  5 21  1  1  0  0  0
  6 11  1  0  0  0  0
  7  3  2  0  0  0  0
  7 17  1  0  0  0  0
  8  4  1  0  0  0  0
  8  9  1  0  0  0  0
  9  6  2  0  0  0  0
 12 13  1  0  0  0  0
 12  1  2  0  0  0  0
 13  8  2  0  0  0  0
 14 24  1  6  0  0  0
 14 17  1  0  0  0  0
 14 16  1  0  0  0  0
 15 11  2  0  0  0  0
 16  5  1  0  0  0  0
 17  2  2  0  0  0  0
 18 20  2  0  0  0  0
 18 19  1  0  0  0  0
 21 22  1  0  0  0  0
 22 18  1  0  0  0  0
 23 21  2  0  0  0  0
 25 24  1  0  0  0  0
M  END
>  <MODEL>
1

>  <REMARK>
 VINA RESULT:     -10.1      0.000      0.000
  Name = 
  2 active torsions:
  status: ('A' for Active; 'I' for Inactive)
    1  A    between atoms: C_6  and  C_15
    2  A    between atoms: N_13  and  C_20
                            x       y       z     vdW  Elec       q    Type
                         _______ _______ _______ _____ _____    ______ ____

>  <TORSDO>
F 2

$$$$
=
 OpenBabel10262419543D

 25 28  0  0  1  0  0  0  0  0999 V2000
  187.6000  177.7490  145.7470 C   0  0  0  0  0  0  0  0  0  0  0  0
  186.6520  178.2310  144.8430 C   0  0  0  0  0  0  0  0  0  0  0  0
  186.3080  178.5260  147.6150 C   0  0  0  0  0  3  0  0  0  0  0  0
  188.8470  176.9700  145.5240 C   0  0  2  0  0  3  0  0  0  0  0  0
  185.5990  178.3330  142.5630 C   0  0  1  0  0  3  0  0  0  0  0  0
  191.6180  176.8880  146.3060 C   0  0  0  0  0  3  0  0  0  0  0  0
  185.3870  179.0250  146.7400 N   0  0  0  0  0  0  0  0  0  0  0  0
  189.3090  176.8290  146.9530 C   0  0  0  0  0  0  0  0  0  0  0  0
  190.7180  176.5450  147.2370 C   0  0  0  0  0  3  0  0  0  0  0  0
  186.8820  178.1230  143.3620 C   0  0  0  0  0  2  0  0  0  0  0  0
  191.1990  177.5800  145.0570 C   0  0  0  0  0  3  0  0  0  0  0  0
  187.4160  177.8660  147.1000 C   0  0  0  0  0  0  0  0  0  0  0  0
  188.5010  177.3270  147.8380 N   0  0  0  0  0  0  0  0  0  0  0  0
  184.4270  179.4280  144.4940 C   0  0  2  0  0  3  0  0  0  0  0  0
  189.9030  177.6790  144.7170 C   0  0  0  0  0  3  0  0  0  0  0  0
  184.8810  179.5920  143.0410 C   0  0  0  0  0  2  0  0  0  0  0  0
  185.5270  178.9080  145.3830 C   0  0  0  0  0  0  0  0  0  0  0  0
  187.6980  178.3700  139.3070 C   0  0  0  0  0  0  0  0  0  0  0  0
  189.0500  178.2440  139.0200 O   0  0  0  0  0  1  0  0  0  0  0  0
  186.8770  178.5410  138.3680 O   0  0  0  0  0  0  0  0  0  0  0  0
  185.9000  178.4210  141.1040 C   0  0  0  0  0  0  0  0  0  0  0  0
  187.2590  178.3060  140.6690 N   0  0  0  0  0  2  0  0  0  0  0  0
  184.9660  178.5930  140.2740 O   0  0  0  0  0  0  0  0  0  0  0  0
  183.2790  178.5370  144.5610 N   0  0  0  0  0  2  0  0  0  0  0  0
  182.2790  179.0570  143.6470 C   0  0  0  0  0  1  0  0  0  0  0  0
  1 12  1  0  0  0  0
  2 17  1  0  0  0  0
  2  1  2  0  0  0  0
  4 15  1  6  0  0  0
  4  1  1  0  0  0  0
  4  8  1  0  0  0  0
  5 21  1  6  0  0  0
  5 16  1  0  0  0  0
  5 10  1  0  0  0  0
  6  9  2  0  0  0  0
  7  3  1  0  0  0  0
  8  9  1  0  0  0  0
  8 13  2  0  0  0  0
 10  2  1  0  0  0  0
 11  6  1  0  0  0  0
 12  3  2  0  0  0  0
 12 13  1  0  0  0  0
 14 24  1  6  0  0  0
 14 17  1  0  0  0  0
 15 11  2  0  0  0  0
 16 14  1  0  0  0  0
 17  7  2  0  0  0  0
 18 22  1  0  0  0  0
 19 18  1  0  0  0  0
 20 18  2  0  0  0  0
 22 21  1  0  0  0  0
 23 21  2  0  0  0  0
 25 24  1  0  0  0  0
M  END
>  <MODEL>
2

>  <REMARK>
 VINA RESULT:      -9.8      3.619      6.911
  Name = 
  2 active torsions:
  status: ('A' for Active; 'I' for Inactive)
    1  A    between atoms: C_6  and  C_15
    2  A    between atoms: N_13  and  C_20
                            x       y       z     vdW  Elec       q    Type
                         _______ _______ _______ _____ _____    ______ ____

>  <TORSDO>
F 2

$$$$
=
 OpenBabel10262419543D

 25 28  0  0  1  0  0  0  0  0999 V2000
  187.6680  177.7320  145.8220 C   0  0  0  0  0  0  0  0  0  0  0  0
  186.7060  178.2510  144.9540 C   0  0  0  0  0  0  0  0  0  0  0  0
  186.4410  178.4940  147.7390 C   0  0  0  0  0  3  0  0  0  0  0  0
  188.8930  176.9330  145.5500 C   0  0  2  0  0  3  0  0  0  0  0  0
  185.5950  178.4210  142.7060 C   0  0  1  0  0  3  0  0  0  0  0  0
  191.6800  176.7810  146.2560 C   0  0  0  0  0  3  0  0  0  0  0  0
  185.5080  179.0300  146.9000 N   0  0  0  0  0  0  0  0  0  0  0  0
  189.3890  176.7530  146.9620 C   0  0  0  0  0  0  0  0  0  0  0  0
  190.7990  176.4350  147.2030 C   0  0  0  0  0  3  0  0  0  0  0  0
  186.8950  178.1700  143.4650 C   0  0  0  0  0  2  0  0  0  0  0  0
  191.2430  177.5070  145.0330 C   0  0  0  0  0  3  0  0  0  0  0  0
  187.5220  177.8230  147.1810 C   0  0  0  0  0  0  0  0  0  0  0  0
  188.6150  177.2480  147.8780 N   0  0  0  0  0  0  0  0  0  0  0  0
  184.4970  179.4980  144.6890 C   0  0  2  0  0  3  0  0  0  0  0  0
  189.9410  177.6390  144.7290 C   0  0  0  0  0  3  0  0  0  0  0  0
  184.9160  179.6840  143.2280 C   0  0  0  0  0  2  0  0  0  0  0  0
  185.6090  178.9380  145.5370 C   0  0  0  0  0  0  0  0  0  0  0  0
  184.8500  178.6320  138.9090 C   0  0  0  0  0  0  0  0  0  0  0  0
  183.6940  178.6180  138.1430 O   0  0  0  0  0  0  0  0  0  0  0  0
  185.9700  178.7310  138.3420 O   0  0  0  0  0  1  0  0  0  0  0  0
  185.8600  178.5340  141.2410 C   0  0  0  0  0  0  0  0  0  0  0  0
  184.7520  178.5320  140.3340 N   0  0  0  0  0  2  0  0  0  0  0  0
  187.0430  178.6290  140.8160 O   0  0  0  0  0  0  0  0  0  0  0  0
  183.3340  178.6280  144.7690 N   0  0  0  0  0  2  0  0  0  0  0  0
  182.3880  179.0840  143.7660 C   0  0  0  0  0  1  0  0  0  0  0  0
  1 12  1  0  0  0  0
  2 17  1  0  0  0  0
  2  1  2  0  0  0  0
  4 15  1  6  0  0  0
  4  1  1  0  0  0  0
  4  8  1  0  0  0  0
  5 21  1  6  0  0  0
  5 16  1  0  0  0  0
  5 10  1  0  0  0  0
  6  9  2  0  0  0  0
  7  3  1  0  0  0  0
  8  9  1  0  0  0  0
  8 13  2  0  0  0  0
 10  2  1  0  0  0  0
 11  6  1  0  0  0  0
 12  3  2  0  0  0  0
 12 13  1  0  0  0  0
 14 24  1  6  0  0  0
 14 17  1  0  0  0  0
 15 11  2  0  0  0  0
 16 14  1  0  0  0  0
 17  7  2  0  0  0  0
 18 22  1  0  0  0  0
 19 18  2  0  0  0  0
 20 18  1  0  0  0  0
 22 21  1  0  0  0  0
 23 21  2  0  0  0  0
 25 24  1  0  0  0  0
M  END
>  <MODEL>
3

>  <REMARK>
 VINA RESULT:      -9.7      3.832      7.323
  Name = 
  2 active torsions:
  status: ('A' for Active; 'I' for Inactive)
    1  A    between atoms: C_6  and  C_15
    2  A    between atoms: N_13  and  C_20
                            x       y       z     vdW  Elec       q    Type
                         _______ _______ _______ _____ _____    ______ ____

>  <TORSDO>
F 2

$$$$
=
 OpenBabel10262419543D

 25 28  0  0  1  0  0  0  0  0999 V2000
  186.2300  178.2680  144.2440 C   0  0  0  0  0  0  0  0  0  0  0  0
  187.4610  177.7770  143.8070 C   0  0  0  0  0  0  0  0  0  0  0  0
  186.7130  177.6430  146.5110 C   0  0  0  0  0  3  0  0  0  0  0  0
  185.1540  178.9830  143.5080 C   0  0  2  0  0  3  0  0  0  0  0  0
  189.3160  177.5950  142.1200 C   0  0  1  0  0  3  0  0  0  0  0  0
  182.2950  178.9970  143.1570 C   0  0  0  0  0  3  0  0  0  0  0  0
  187.9080  177.1350  146.0920 N   0  0  0  0  0  0  0  0  0  0  0  0
  184.1740  179.1820  144.6370 C   0  0  0  0  0  0  0  0  0  0  0  0
  182.7600  179.4250  144.3380 C   0  0  0  0  0  3  0  0  0  0  0  0
  187.8200  177.7950  142.3480 C   0  0  0  0  0  2  0  0  0  0  0  0
  183.1750  178.2560  142.2130 C   0  0  0  0  0  3  0  0  0  0  0  0
  185.8790  178.2310  145.5670 C   0  0  0  0  0  0  0  0  0  0  0  0
  184.5840  178.7640  145.7950 N   0  0  0  0  0  0  0  0  0  0  0  0
  189.6670  176.6520  144.4190 C   0  0  2  0  0  3  0  0  0  0  0  0
  184.5030  178.1900  142.4050 C   0  0  0  0  0  3  0  0  0  0  0  0
  189.8130  176.3920  142.9170 C   0  0  0  0  0  2  0  0  0  0  0  0
  188.3020  177.1750  144.7810 C   0  0  0  0  0  0  0  0  0  0  0  0
  189.3060  178.3530  138.3210 C   0  0  0  0  0  0  0  0  0  0  0  0
  188.7740  179.3620  137.5310 O   0  0  0  0  0  0  0  0  0  0  0  0
  189.9530  177.4180  137.7800 O   0  0  0  0  0  1  0  0  0  0  0  0
  189.6030  177.4180  140.6660 C   0  0  0  0  0  0  0  0  0  0  0  0
  189.1100  178.3900  139.7390 N   0  0  0  0  0  2  0  0  0  0  0  0
  190.2710  176.4240  140.2690 O   0  0  0  0  0  0  0  0  0  0  0  0
  190.6860  177.5900  144.8650 N   0  0  0  0  0  2  0  0  0  0  0  0
  191.5710  176.8680  145.7610 C   0  0  0  0  0  1  0  0  0  0  0  0
  1 12  1  0  0  0  0
  2  1  2  0  0  0  0
  2 17  1  0  0  0  0
  4 15  1  6  0  0  0
  4  1  1  0  0  0  0
  4  8  1  0  0  0  0
  5 21  1  6  0  0  0
  5 10  1  0  0  0  0
  5 16  1  0  0  0  0
  6  9  2  0  0  0  0
  7  3  1  0  0  0  0
  8 13  2  0  0  0  0
  9  8  1  0  0  0  0
 10  2  1  0  0  0  0
 11 15  2  0  0  0  0
 11  6  1  0  0  0  0
 12 13  1  0  0  0  0
 12  3  2  0  0  0  0
 14 17  1  0  0  0  0
 14 24  1  6  0  0  0
 16 14  1  0  0  0  0
 17  7  2  0  0  0  0
 18 22  1  0  0  0  0
 19 18  2  0  0  0  0
 20 18  1  0  0  0  0
 22 21  1  0  0  0  0
 23 21  2  0  0  0  0
 24 25  1  0  0  0  0
M  END
>  <MODEL>
4

>  <REMARK>
 VINA RESULT:      -9.7      2.944      5.110
  Name = 
  2 active torsions:
  status: ('A' for Active; 'I' for Inactive)
    1  A    between atoms: C_6  and  C_15
    2  A    between atoms: N_13  and  C_20
                            x       y       z     vdW  Elec       q    Type
                         _______ _______ _______ _____ _____    ______ ____

>  <TORSDO>
F 2

$$$$
=
 OpenBabel10262419543D

 25 28  0  0  1  0  0  0  0  0999 V2000
  189.7500  177.4700  144.9100 C   0  0  0  0  0  0  0  0  0  0  0  0
  189.6800  177.3750  143.5200 C   0  0  0  0  0  0  0  0  0  0  0  0
  191.7710  176.1770  144.9610 C   0  0  0  0  0  3  0  0  0  0  0  0
  188.8970  178.2110  145.8780 C   0  0  2  0  0  3  0  0  0  0  0  0
  188.8120  178.1080  141.2770 C   0  0  1  0  0  3  0  0  0  0  0  0
  187.5390  177.8740  148.3940 C   0  0  0  0  0  3  0  0  0  0  0  0
  191.6990  176.0530  143.6040 N   0  0  0  0  0  0  0  0  0  0  0  0
  189.5950  177.8340  147.1600 C   0  0  0  0  0  0  0  0  0  0  0  0
  188.8760  177.9300  148.4330 C   0  0  0  0  0  3  0  0  0  0  0  0
  188.5200  177.9650  142.7680 C   0  0  0  0  0  2  0  0  0  0  0  0
  186.8200  177.6700  147.1080 C   0  0  0  0  0  3  0  0  0  0  0  0
  190.7880  176.9120  145.6090 C   0  0  0  0  0  0  0  0  0  0  0  0
  190.6600  177.1100  147.0080 N   0  0  0  0  0  0  0  0  0  0  0  0
  190.7270  176.4880  141.3690 C   0  0  2  0  0  3  0  0  0  0  0  0
  187.4600  177.7620  145.9300 C   0  0  0  0  0  3  0  0  0  0  0  0
  189.3740  176.8010  140.7240 C   0  0  0  0  0  2  0  0  0  0  0  0
  190.6890  176.6160  142.8700 C   0  0  0  0  0  0  0  0  0  0  0  0
  185.0950  179.0330  140.6960 C   0  0  0  0  0  0  0  0  0  0  0  0
  183.9810  179.1490  141.5160 O   0  0  0  0  0  1  0  0  0  0  0  0
  184.9830  179.2570  139.4620 O   0  0  0  0  0  0  0  0  0  0  0  0
  187.5770  178.5040  140.5390 C   0  0  0  0  0  0  0  0  0  0  0  0
  186.3540  178.6590  141.2670 N   0  0  0  0  0  2  0  0  0  0  0  0
  187.6180  178.6970  139.2930 O   0  0  0  0  0  0  0  0  0  0  0  0
  191.7540  177.3630  140.8270 N   0  0  0  0  0  2  0  0  0  0  0  0
  191.8630  177.0700  139.4090 C   0  0  0  0  0  1  0  0  0  0  0  0
  1 12  1  0  0  0  0
  1  4  1  0  0  0  0
  2  1  2  0  0  0  0
  3 12  2  0  0  0  0
  4 15  1  1  0  0  0
  4  8  1  0  0  0  0
  5 21  1  6  0  0  0
  5 10  1  0  0  0  0
  6  9  2  0  0  0  0
  7  3  1  0  0  0  0
  8  9  1  0  0  0  0
 10  2  1  0  0  0  0
 11  6  1  0  0  0  0
 12 13  1  0  0  0  0
 13  8  2  0  0  0  0
 14 24  1  6  0  0  0
 14 17  1  0  0  0  0
 15 11  2  0  0  0  0
 16  5  1  0  0  0  0
 16 14  1  0  0  0  0
 17  2  1  0  0  0  0
 17  7  2  0  0  0  0
 18 22  1  0  0  0  0
 18 19  1  0  0  0  0
 20 18  2  0  0  0  0
 21 22  1  0  0  0  0
 23 21  2  0  0  0  0
 25 24  1  0  0  0  0
M  END
>  <MODEL>
5

>  <REMARK>
 VINA RESULT:      -9.3      3.626      5.675
  Name = 
  2 active torsions:
  status: ('A' for Active; 'I' for Inactive)
    1  A    between atoms: C_6  and  C_15
    2  A    between atoms: N_13  and  C_20
                            x       y       z     vdW  Elec       q    Type
                         _______ _______ _______ _____ _____    ______ ____

>  <TORSDO>
F 2

$$$$
=
 OpenBabel10262419543D

 25 28  0  0  1  0  0  0  0  0999 V2000
  189.6240  177.5290  144.9030 C   0  0  0  0  0  0  0  0  0  0  0  0
  189.5740  177.4390  143.5120 C   0  0  0  0  0  0  0  0  0  0  0  0
  191.6810  176.2930  144.9730 C   0  0  0  0  0  3  0  0  0  0  0  0
  188.7390  178.2400  145.8640 C   0  0  2  0  0  3  0  0  0  0  0  0
  188.7130  178.1600  141.2630 C   0  0  1  0  0  3  0  0  0  0  0  0
  187.3600  177.8510  148.3620 C   0  0  0  0  0  3  0  0  0  0  0  0
  191.6290  176.1750  143.6150 N   0  0  0  0  0  0  0  0  0  0  0  0
  189.4310  177.8760  147.1530 C   0  0  0  0  0  0  0  0  0  0  0  0
  188.6940  177.9440  148.4180 C   0  0  0  0  0  3  0  0  0  0  0  0
  188.4070  178.0010  142.7490 C   0  0  0  0  0  2  0  0  0  0  0  0
  186.6630  177.6330  147.0660 C   0  0  0  0  0  3  0  0  0  0  0  0
  190.6690  176.9970  145.6130 C   0  0  0  0  0  0  0  0  0  0  0  0
  190.5180  177.1830  147.0110 N   0  0  0  0  0  0  0  0  0  0  0  0
  190.6720  176.5940  141.3700 C   0  0  2  0  0  3  0  0  0  0  0  0
  187.3150  177.7490  145.8960 C   0  0  0  0  0  3  0  0  0  0  0  0
  189.3190  176.8730  140.7100 C   0  0  0  0  0  2  0  0  0  0  0  0
  190.6130  176.7130  142.8710 C   0  0  0  0  0  0  0  0  0  0  0  0
  186.2980  178.5460  138.2590 C   0  0  0  0  0  0  0  0  0  0  0  0
  186.3650  178.2300  136.9090 O   0  0  0  0  0  0  0  0  0  0  0  0
  185.2580  179.0870  138.7180 O   0  0  0  0  0  1  0  0  0  0  0  0
  187.4760  178.5250  140.5110 C   0  0  0  0  0  0  0  0  0  0  0  0
  187.4130  178.2530  139.1070 N   0  0  0  0  0  2  0  0  0  0  0  0
  186.5070  179.0640  141.1110 O   0  0  0  0  0  0  0  0  0  0  0  0
  191.6810  177.5020  140.8460 N   0  0  0  0  0  2  0  0  0  0  0  0
  191.9160  177.1280  139.4630 C   0  0  0  0  0  1  0  0  0  0  0  0
  1 12  1  0  0  0  0
  1  4  1  0  0  0  0
  2  1  2  0  0  0  0
  3 12  2  0  0  0  0
  4 15  1  1  0  0  0
  4  8  1  0  0  0  0
  5 21  1  6  0  0  0
  5 10  1  0  0  0  0
  6  9  2  0  0  0  0
  7  3  1  0  0  0  0
  8  9  1  0  0  0  0
 10  2  1  0  0  0  0
 11  6  1  0  0  0  0
 12 13  1  0  0  0  0
 13  8  2  0  0  0  0
 14 24  1  6  0  0  0
 14 17  1  0  0  0  0
 15 11  2  0  0  0  0
 16  5  1  0  0  0  0
 16 14  1  0  0  0  0
 17  2  1  0  0  0  0
 17  7  2  0  0  0  0
 18 20  1  0  0  0  0
 18 22  1  0  0  0  0
 19 18  2  0  0  0  0
 21 23  2  0  0  0  0
 22 21  1  0  0  0  0
 25 24  1  0  0  0  0
M  END
>  <MODEL>
6

>  <REMARK>
 VINA RESULT:      -8.9      3.641      5.924
  Name = 
  2 active torsions:
  status: ('A' for Active; 'I' for Inactive)
    1  A    between atoms: C_6  and  C_15
    2  A    between atoms: N_13  and  C_20
                            x       y       z     vdW  Elec       q    Type
                         _______ _______ _______ _____ _____    ______ ____

>  <TORSDO>
F 2

$$$$
=
 OpenBabel10262419543D

 25 28  0  0  1  0  0  0  0  0999 V2000
  189.2130  177.3360  143.1040 C   0  0  0  0  0  0  0  0  0  0  0  0
  188.3500  177.6870  144.1420 C   0  0  0  0  0  0  0  0  0  0  0  0
  191.0930  177.2940  144.5960 C   0  0  0  0  0  3  0  0  0  0  0  0
  188.9400  177.0270  141.6750 C   0  0  2  0  0  3  0  0  0  0  0  0
  186.0590  177.9330  145.1470 C   0  0  1  0  0  3  0  0  0  0  0  0
  189.8970  177.6170  139.0230 C   0  0  0  0  0  3  0  0  0  0  0  0
  190.2640  177.6640  145.6140 N   0  0  0  0  0  0  0  0  0  0  0  0
  190.3460  176.7420  141.2110 C   0  0  0  0  0  0  0  0  0  0  0  0
  190.6750  176.8390  139.7860 C   0  0  0  0  0  3  0  0  0  0  0  0
  186.8960  177.9570  143.8710 C   0  0  0  0  0  2  0  0  0  0  0  0
  188.7750  178.3920  139.6180 C   0  0  0  0  0  3  0  0  0  0  0  0
  190.5460  177.1140  143.3320 C   0  0  0  0  0  0  0  0  0  0  0  0
  191.2470  176.7850  142.1430 N   0  0  0  0  0  0  0  0  0  0  0  0
  188.0700  178.2100  146.6220 C   0  0  2  0  0  3  0  0  0  0  0  0
  188.3640  178.1680  140.8780 C   0  0  0  0  0  3  0  0  0  0  0  0
  186.7120  178.7960  146.2220 C   0  0  0  0  0  2  0  0  0  0  0  0
  188.9230  177.8720  145.4280 C   0  0  0  0  0  0  0  0  0  0  0  0
  182.8810  178.7910  143.1040 C   0  0  0  0  0  0  0  0  0  0  0  0
  182.5360  178.7130  141.7620 O   0  0  0  0  0  0  0  0  0  0  0  0
  182.0420  179.2280  143.9360 O   0  0  0  0  0  1  0  0  0  0  0  0
  184.6690  178.4020  144.8680 C   0  0  0  0  0  0  0  0  0  0  0  0
  184.1860  178.3740  143.5210 N   0  0  0  0  0  2  0  0  0  0  0  0
  183.9400  178.8140  145.8100 O   0  0  0  0  0  0  0  0  0  0  0  0
  187.8800  177.0230  147.4420 N   0  0  0  0  0  2  0  0  0  0  0  0
  187.9150  177.4510  148.8290 C   0  0  0  0  0  1  0  0  0  0  0  0
  1 12  2  0  0  0  0
  1  2  1  0  0  0  0
  2 17  2  0  0  0  0
  3  7  2  0  0  0  0
  4 15  1  6  0  0  0
  4  1  1  0  0  0  0
  5 21  1  6  0  0  0
  5 16  1  0  0  0  0
  6 11  1  0  0  0  0
  6  9  2  0  0  0  0
  8  4  1  0  0  0  0
  8 13  2  0  0  0  0
  9  8  1  0  0  0  0
 10  2  1  0  0  0  0
 10  5  1  0  0  0  0
 11 15  2  0  0  0  0
 12  3  1  0  0  0  0
 13 12  1  0  0  0  0
 14 24  1  6  0  0  0
 16 14  1  0  0  0  0
 17  7  1  0  0  0  0
 17 14  1  0  0  0  0
 18 22  1  0  0  0  0
 18 20  1  0  0  0  0
 19 18  2  0  0  0  0
 21 23  2  0  0  0  0
 22 21  1  0  0  0  0
 24 25  1  0  0  0  0
M  END
>  <MODEL>
7

>  <REMARK>
 VINA RESULT:      -8.9      3.857      7.149
  Name = 
  2 active torsions:
  status: ('A' for Active; 'I' for Inactive)
    1  A    between atoms: C_6  and  C_15
    2  A    between atoms: N_13  and  C_20
                            x       y       z     vdW  Elec       q    Type
                         _______ _______ _______ _____ _____    ______ ____

>  <TORSDO>
F 2

$$$$
=
 OpenBabel10262419543D

 25 28  0  0  1  0  0  0  0  0999 V2000
  187.3460  177.8150  142.8440 C   0  0  0  0  0  0  0  0  0  0  0  0
  187.9390  177.9130  141.5850 C   0  0  0  0  0  0  0  0  0  0  0  0
  185.3120  178.8000  142.0330 C   0  0  0  0  0  3  0  0  0  0  0  0
  187.8440  177.2110  144.1090 C   0  0  2  0  0  3  0  0  0  0  0  0
  189.7010  177.3040  139.8990 C   0  0  1  0  0  3  0  0  0  0  0  0
  188.0560  177.7540  146.9290 C   0  0  0  0  0  3  0  0  0  0  0  0
  185.8910  178.9260  140.8040 N   0  0  0  0  0  0  0  0  0  0  0  0
  186.6580  177.4880  144.9980 C   0  0  0  0  0  0  0  0  0  0  0  0
  186.8290  177.5050  146.4530 C   0  0  0  0  0  3  0  0  0  0  0  0
  189.3670  177.4950  141.3760 C   0  0  0  0  0  2  0  0  0  0  0  0
  189.1850  178.0550  146.0090 C   0  0  0  0  0  3  0  0  0  0  0  0
  186.0530  178.2190  143.0540 C   0  0  0  0  0  0  0  0  0  0  0  0
  185.6500  178.0490  144.4040 N   0  0  0  0  0  0  0  0  0  0  0  0
  187.7060  178.6280  139.1480 C   0  0  2  0  0  3  0  0  0  0  0  0
  189.0730  177.8660  144.6830 C   0  0  0  0  0  3  0  0  0  0  0  0
  189.2320  178.5120  139.0930 C   0  0  0  0  0  2  0  0  0  0  0  0
  187.1720  178.5130  140.5510 C   0  0  0  0  0  0  0  0  0  0  0  0
  193.0230  176.3780  138.1340 C   0  0  0  0  0  0  0  0  0  0  0  0
  193.3580  175.9320  136.8630 O   0  0  0  0  0  0  0  0  0  0  0  0
  193.9300  176.5550  138.9880 O   0  0  0  0  0  1  0  0  0  0  0  0
  191.1670  177.0890  139.7190 C   0  0  0  0  0  0  0  0  0  0  0  0
  191.6500  176.6280  138.4530 N   0  0  0  0  0  2  0  0  0  0  0  0
  191.9620  177.3120  140.6730 O   0  0  0  0  0  0  0  0  0  0  0  0
  187.0970  177.6090  138.3060 N   0  0  0  0  0  2  0  0  0  0  0  0
  186.9830  178.1680  136.9710 C   0  0  0  0  0  1  0  0  0  0  0  0
  1 12  1  0  0  0  0
  1  4  1  0  0  0  0
  2  1  2  0  0  0  0
  3 12  2  0  0  0  0
  4 15  1  1  0  0  0
  4  8  1  0  0  0  0
  5 21  1  1  0  0  0
  5 10  1  0  0  0  0
  7  3  1  0  0  0  0
  8  9  1  0  0  0  0
  9  6  2  0  0  0  0
 10  2  1  0  0  0  0
 11  6  1  0  0  0  0
 12 13  1  0  0  0  0
 13  8  2  0  0  0  0
 14 24  1  6  0  0  0
 14 17  1  0  0  0  0
 15 11  2  0  0  0  0
 16 14  1  0  0  0  0
 16  5  1  0  0  0  0
 17  7  2  0  0  0  0
 17  2  1  0  0  0  0
 18 22  1  0  0  0  0
 18 20  1  0  0  0  0
 19 18  2  0  0  0  0
 21 23  2  0  0  0  0
 22 21  1  0  0  0  0
 25 24  1  0  0  0  0
M  END
>  <MODEL>
8

>  <REMARK>
 VINA RESULT:      -8.9      3.042      4.652
  Name = 
  2 active torsions:
  status: ('A' for Active; 'I' for Inactive)
    1  A    between atoms: C_6  and  C_15
    2  A    between atoms: N_13  and  C_20
                            x       y       z     vdW  Elec       q    Type
                         _______ _______ _______ _____ _____    ______ ____

>  <TORSDO>
F 2

$$$$
=
 OpenBabel10262419543D

 25 28  0  0  1  0  0  0  0  0999 V2000
  185.8480  178.3550  143.5500 C   0  0  0  0  0  0  0  0  0  0  0  0
  187.1180  177.9710  143.1180 C   0  0  0  0  0  0  0  0  0  0  0  0
  186.3430  177.6890  145.8030 C   0  0  0  0  0  3  0  0  0  0  0  0
  184.7310  179.0140  142.8220 C   0  0  2  0  0  3  0  0  0  0  0  0
  189.0040  177.9860  141.4570 C   0  0  1  0  0  3  0  0  0  0  0  0
  181.8850  178.8280  142.4240 C   0  0  0  0  0  3  0  0  0  0  0  0
  187.5790  177.2860  145.3870 N   0  0  0  0  0  0  0  0  0  0  0  0
  183.7230  179.1000  143.9400 C   0  0  0  0  0  0  0  0  0  0  0  0
  182.3000  179.2480  143.6270 C   0  0  0  0  0  3  0  0  0  0  0  0
  187.4940  178.0670  141.6660 C   0  0  0  0  0  2  0  0  0  0  0  0
  182.8300  178.1880  141.4700 C   0  0  0  0  0  3  0  0  0  0  0  0
  185.4820  178.2460  144.8660 C   0  0  0  0  0  0  0  0  0  0  0  0
  184.1480  178.6740  145.0900 N   0  0  0  0  0  0  0  0  0  0  0  0
  189.3930  176.9920  143.7280 C   0  0  2  0  0  3  0  0  0  0  0  0
  184.1570  178.2140  141.6820 C   0  0  0  0  0  3  0  0  0  0  0  0
  189.5780  176.7960  142.2210 C   0  0  0  0  0  2  0  0  0  0  0  0
  187.9870  177.4000  144.0840 C   0  0  0  0  0  0  0  0  0  0  0  0
  190.4580  176.5220  138.1780 C   0  0  0  0  0  0  0  0  0  0  0  0
  191.1900  175.3870  137.8590 O   0  0  0  0  0  1  0  0  0  0  0  0
  190.1390  177.3300  137.2660 O   0  0  0  0  0  0  0  0  0  0  0  0
  189.3240  177.8810  140.0020 C   0  0  0  0  0  0  0  0  0  0  0  0
  190.0770  176.7560  139.5380 N   0  0  0  0  0  2  0  0  0  0  0  0
  188.9340  178.7740  139.2020 O   0  0  0  0  0  0  0  0  0  0  0  0
  190.3320  177.9880  144.2220 N   0  0  0  0  0  2  0  0  0  0  0  0
  191.1710  177.3320  145.2090 C   0  0  0  0  0  1  0  0  0  0  0  0
  1 12  1  0  0  0  0
  2  1  2  0  0  0  0
  2 17  1  0  0  0  0
  4 15  1  6  0  0  0
  4  1  1  0  0  0  0
  4  8  1  0  0  0  0
  5 21  1  6  0  0  0
  5 10  1  0  0  0  0
  5 16  1  0  0  0  0
  6  9  2  0  0  0  0
  7  3  1  0  0  0  0
  8 13  2  0  0  0  0
  9  8  1  0  0  0  0
 10  2  1  0  0  0  0
 11 15  2  0  0  0  0
 11  6  1  0  0  0  0
 12 13  1  0  0  0  0
 12  3  2  0  0  0  0
 14 17  1  0  0  0  0
 14 24  1  6  0  0  0
 16 14  1  0  0  0  0
 17  7  2  0  0  0  0
 18 22  1  0  0  0  0
 19 18  1  0  0  0  0
 20 18  2  0  0  0  0
 22 21  1  0  0  0  0
 23 21  2  0  0  0  0
 24 25  1  0  0  0  0
M  END
>  <MODEL>
9

>  <REMARK>
 VINA RESULT:      -8.8      3.288      5.141
  Name = 
  2 active torsions:
  status: ('A' for Active; 'I' for Inactive)
    1  A    between atoms: C_6  and  C_15
    2  A    between atoms: N_13  and  C_20
                            x       y       z     vdW  Elec       q    Type
                         _______ _______ _______ _____ _____    ______ ____

>  <TORSDO>
F 2

$$$$
