=
 OpenBabel10262421043D

 32 36  0  0  1  0  0  0  0  0999 V2000
  187.8670  177.6540  141.3700 C   0  0  2  0  0  3  0  0  0  0  0  0
  187.8180  177.0510  142.7860 C   0  0  0  0  0  2  0  0  0  0  0  0
  191.6560  177.5470  142.7770 C   0  0  0  0  0  3  0  0  0  0  0  0
  189.2950  177.8990  140.8160 C   0  0  1  0  0  3  0  0  0  0  0  0
  190.4590  178.3330  144.8760 C   0  0  0  0  0  2  0  0  0  0  0  0
  189.6120  177.4270  144.0050 C   0  0  1  0  0  3  0  0  0  0  0  0
  188.3330  177.9210  143.7600 O   0  0  0  0  0  0  0  0  0  0  0  0
  190.1680  176.7390  141.0030 N   0  0  0  0  0  2  0  0  0  0  0  0
  190.5860  178.3990  143.3670 C   0  0  2  0  0  3  0  0  0  0  0  0
  191.4240  176.7750  141.7060 C   0  0  0  0  0  3  0  0  0  0  0  0
  188.1800  178.9050  138.8470 O   0  0  0  0  0  0  0  0  0  0  0  0
  190.1740  175.0380  137.4220 C   0  0  1  0  0  3  0  0  0  0  0  0
  188.3140  178.9110  137.4430 C   0  0  0  0  0  2  0  0  0  0  0  0
  189.5690  173.7820  137.3600 O   0  0  0  0  0  1  0  0  0  0  0  0
  190.2950  175.6390  136.0120 C   0  0  1  0  0  3  0  0  0  0  0  0
  189.4990  178.0500  137.0310 C   0  0  2  0  0  3  0  0  0  0  0  0
  189.0320  176.9190  135.6600 S   0  0  0  0  0  0  0  0  0  0  0  0
  189.4630  175.9300  138.4490 C   0  0  2  0  0  3  0  0  0  0  0  0
  188.0730  175.8310  138.3160 O   0  0  0  0  0  1  0  0  0  0  0  0
  189.3670  178.3460  139.3420 C   0  0  2  0  0  3  0  0  0  0  0  0
  189.9420  177.3860  138.3160 C   0  0  2  0  0  3  0  0  0  0  0  0
  191.6920  176.1880  135.7620 C   0  0  0  0  0  2  0  0  0  0  0  0
  193.4850  176.3980  137.4520 C   0  0  0  0  0  1  0  0  0  0  0  0
  192.7160  175.4280  136.5830 C   0  0  0  0  0  2  0  0  0  0  0  0
  186.9320  178.8620  141.2460 C   0  0  0  0  0  2  0  0  0  0  0  0
  185.4910  178.4690  140.9470 C   0  0  0  0  0  2  0  0  0  0  0  0
  183.3790  178.8260  142.7010 C   0  0  0  0  0  0  0  0  0  0  0  0
  184.5420  178.8750  143.5070 N   0  0  0  0  0  0  0  0  0  0  0  0
  182.1260  178.8400  142.5920 O   0  0  0  0  0  0  0  0  0  0  0  0
  184.6620  178.7140  142.1120 N   0  0  0  0  0  0  0  0  0  0  0  0
  185.1560  178.9180  144.8190 C   0  0  0  0  0  2  0  0  0  0  0  0
  184.1660  179.0030  145.7960 O   0  0  0  0  0  1  0  0  0  0  0  0
  1 25  1  1  0  0  0
  1  2  1  0  0  0  0
  2  7  1  0  0  0  0
  4  8  1  6  0  0  0
  4  1  1  0  0  0  0
  6  5  1  1  0  0  0
  7  6  1  0  0  0  0
  8 10  1  0  0  0  0
  9  3  1  1  0  0  0
  9  6  1  0  0  0  0
  9  5  1  0  0  0  0
 10  3  2  0  0  0  0
 12 14  1  6  0  0  0
 12 18  1  0  0  0  0
 13 11  1  0  0  0  0
 15 22  1  1  0  0  0
 15 12  1  0  0  0  0
 16 13  1  1  0  0  0
 16 21  1  0  0  0  0
 17 15  1  0  0  0  0
 17 16  1  0  0  0  0
 18 19  1  6  0  0  0
 20 11  1  6  0  0  0
 20  4  1  0  0  0  0
 21 18  1  0  0  0  0
 21 20  1  0  0  0  0
 22 24  1  0  0  0  0
 24 23  1  0  0  0  0
 26 25  1  0  0  0  0
 26 30  1  0  0  0  0
 27 28  1  0  0  0  0
 28 31  1  0  0  0  0
 29 27  2  0  0  0  0
 30 27  1  0  0  0  0
 30 28  1  0  0  0  0
 31 32  1  0  0  0  0
M  END
>  <MODEL>
1

>  <REMARK>
 VINA RESULT:      -6.7      0.000      0.000
  Name = 
  7 active torsions:
  status: ('A' for Active; 'I' for Inactive)
    1  A    between atoms: C_2  and  C_5
    2  A    between atoms: C_5  and  C_18
    3  A    between atoms: C_10  and  C_24
    4  A    between atoms: N_14  and  C_21
    5  A    between atoms: C_15  and  C_19
    6  A    between atoms: C_18  and  N_29
    7  A    between atoms: C_19  and  C_26
                            x       y       z     vdW  Elec       q    Type
                         _______ _______ _______ _____ _____    ______ ____

>  <TORSDO>
F 7

$$$$
=
 OpenBabel10262421043D

 32 36  0  0  1  0  0  0  0  0999 V2000
  186.4070  178.6790  140.9090 C   0  0  2  0  0  3  0  0  0  0  0  0
  185.0440  178.9840  141.5570 C   0  0  0  0  0  2  0  0  0  0  0  0
  183.5410  177.7160  138.2250 C   0  0  0  0  0  3  0  0  0  0  0  0
  186.3380  178.2590  139.4170 C   0  0  1  0  0  3  0  0  0  0  0  0
  182.4590  176.7930  140.3300 C   0  0  0  0  0  2  0  0  0  0  0  0
  183.3270  178.0100  140.5840 C   0  0  1  0  0  3  0  0  0  0  0  0
  184.2200  177.8510  141.6400 O   0  0  0  0  0  0  0  0  0  0  0  0
  185.4870  179.1520  138.6290 N   0  0  0  0  0  2  0  0  0  0  0  0
  183.7230  177.0040  139.5200 C   0  0  2  0  0  3  0  0  0  0  0  0
  184.3530  178.7170  137.8560 C   0  0  0  0  0  3  0  0  0  0  0  0
  188.0020  179.1440  137.8110 O   0  0  0  0  0  0  0  0  0  0  0  0
  187.3520  174.7350  136.7670 C   0  0  1  0  0  3  0  0  0  0  0  0
  189.0670  178.6650  137.0180 C   0  0  0  0  0  2  0  0  0  0  0  0
  186.4360  174.2420  135.8360 O   0  0  0  0  0  1  0  0  0  0  0  0
  188.7760  174.6770  136.1910 C   0  0  1  0  0  3  0  0  0  0  0  0
  189.2360  177.1680  137.2260 C   0  0  2  0  0  3  0  0  0  0  0  0
  189.3880  176.3040  135.6100 S   0  0  0  0  0  0  0  0  0  0  0  0
  186.9140  176.1130  137.2790 C   0  0  2  0  0  3  0  0  0  0  0  0
  186.4900  176.9250  136.2200 O   0  0  0  0  0  1  0  0  0  0  0  0
  187.6980  178.1090  138.7080 C   0  0  2  0  0  3  0  0  0  0  0  0
  188.0500  176.7730  138.0790 C   0  0  2  0  0  3  0  0  0  0  0  0
  189.7520  174.0660  137.1860 C   0  0  0  0  0  2  0  0  0  0  0  0
  192.1470  174.5530  137.5620 C   0  0  0  0  0  1  0  0  0  0  0  0
  191.1420  173.9830  136.5850 C   0  0  0  0  0  2  0  0  0  0  0  0
  187.2430  177.7410  141.7860 C   0  0  0  0  0  2  0  0  0  0  0  0
  186.9110  177.8590  143.2670 C   0  0  0  0  0  2  0  0  0  0  0  0
  188.6720  177.2900  145.3260 C   0  0  0  0  0  0  0  0  0  0  0  0
  189.3940  177.0260  144.1370 N   0  0  0  0  0  0  0  0  0  0  0  0
  188.6020  177.2930  146.5820 O   0  0  0  0  0  0  0  0  0  0  0  0
  188.0750  177.5150  144.0620 N   0  0  0  0  0  0  0  0  0  0  0  0
  190.5750  176.5030  143.4780 C   0  0  0  0  0  2  0  0  0  0  0  0
  190.1940  175.6300  142.4610 O   0  0  0  0  0  1  0  0  0  0  0  0
  1  2  1  0  0  0  0
  1 25  1  1  0  0  0
  2  7  1  0  0  0  0
  4  8  1  6  0  0  0
  4  1  1  0  0  0  0
  6  5  1  1  0  0  0
  6  7  1  0  0  0  0
  9  3  1  6  0  0  0
  9  5  1  0  0  0  0
  9  6  1  0  0  0  0
 10  3  2  0  0  0  0
 10  8  1  0  0  0  0
 12 14  1  6  0  0  0
 12 18  1  0  0  0  0
 13 11  1  0  0  0  0
 15 12  1  0  0  0  0
 15 22  1  1  0  0  0
 16 13  1  6  0  0  0
 16 21  1  0  0  0  0
 17 15  1  0  0  0  0
 17 16  1  0  0  0  0
 18 19  1  6  0  0  0
 18 21  1  0  0  0  0
 20 11  1  6  0  0  0
 20  4  1  0  0  0  0
 21 20  1  0  0  0  0
 24 22  1  0  0  0  0
 24 23  1  0  0  0  0
 25 26  1  0  0  0  0
 26 30  1  0  0  0  0
 27 29  2  0  0  0  0
 28 27  1  0  0  0  0
 30 28  1  0  0  0  0
 30 27  1  0  0  0  0
 31 28  1  0  0  0  0
 32 31  1  0  0  0  0
M  END
>  <MODEL>
2

>  <REMARK>
 VINA RESULT:      -6.7      2.329      4.865
  Name = 
  7 active torsions:
  status: ('A' for Active; 'I' for Inactive)
    1  A    between atoms: C_2  and  C_5
    2  A    between atoms: C_5  and  C_18
    3  A    between atoms: C_10  and  C_24
    4  A    between atoms: N_14  and  C_21
    5  A    between atoms: C_15  and  C_19
    6  A    between atoms: C_18  and  N_29
    7  A    between atoms: C_19  and  C_26
                            x       y       z     vdW  Elec       q    Type
                         _______ _______ _______ _____ _____    ______ ____

>  <TORSDO>
F 7

$$$$
=
 OpenBabel10262421043D

 32 36  0  0  1  0  0  0  0  0999 V2000
  187.3850  178.6550  140.3280 C   0  0  2  0  0  3  0  0  0  0  0  0
  188.3180  178.5730  141.5500 C   0  0  0  0  0  2  0  0  0  0  0  0
  185.0550  178.3440  143.6180 C   0  0  0  0  0  3  0  0  0  0  0  0
  185.8740  178.7560  140.6680 C   0  0  1  0  0  3  0  0  0  0  0  0
  186.8520  176.6540  144.2250 C   0  0  0  0  0  2  0  0  0  0  0  0
  187.3680  177.8010  143.3790 C   0  0  1  0  0  3  0  0  0  0  0  0
  188.1350  177.3950  142.2900 O   0  0  0  0  0  0  0  0  0  0  0  0
  185.6050  179.7640  141.6950 N   0  0  0  0  0  2  0  0  0  0  0  0
  185.9680  177.2620  143.1550 C   0  0  2  0  0  3  0  0  0  0  0  0
  184.9310  179.4930  142.9390 C   0  0  0  0  0  3  0  0  0  0  0  0
  184.2310  180.2130  139.5230 O   0  0  0  0  0  0  0  0  0  0  0  0
  182.4450  175.9990  139.6150 C   0  0  1  0  0  3  0  0  0  0  0  0
  183.1980  180.0970  138.5690 C   0  0  0  0  0  2  0  0  0  0  0  0
  181.5940  175.4930  140.5990 O   0  0  0  0  0  1  0  0  0  0  0  0
  181.6480  176.3260  138.3420 C   0  0  1  0  0  3  0  0  0  0  0  0
  183.0720  178.6510  138.1140 C   0  0  2  0  0  3  0  0  0  0  0  0
  181.3140  178.1160  138.1370 S   0  0  0  0  0  0  0  0  0  0  0  0
  183.2860  177.1560  140.1690 C   0  0  2  0  0  3  0  0  0  0  0  0
  182.4930  178.0300  140.9230 O   0  0  0  0  0  1  0  0  0  0  0  0
  184.9400  179.0040  139.4670 C   0  0  2  0  0  3  0  0  0  0  0  0
  184.0090  177.8890  139.0260 C   0  0  2  0  0  3  0  0  0  0  0  0
  182.3300  175.7680  137.1020 C   0  0  0  0  0  2  0  0  0  0  0  0
  184.6030  174.8160  136.8920 C   0  0  0  0  0  1  0  0  0  0  0  0
  183.2210  174.5960  137.4680 C   0  0  0  0  0  2  0  0  0  0  0  0
  187.7220  177.5730  139.2960 C   0  0  0  0  0  2  0  0  0  0  0  0
  188.9380  177.9210  138.4470 C   0  0  0  0  0  2  0  0  0  0  0  0
  190.8760  175.9600  138.6910 C   0  0  0  0  0  0  0  0  0  0  0  0
  191.2540  176.9700  139.6080 N   0  0  0  0  0  0  0  0  0  0  0  0
  191.1050  174.8610  138.1230 O   0  0  0  0  0  0  0  0  0  0  0  0
  190.0720  177.1130  138.8550 N   0  0  0  0  0  0  0  0  0  0  0  0
  192.2200  177.5200  140.5380 C   0  0  0  0  0  2  0  0  0  0  0  0
  191.6750  177.5410  141.8210 O   0  0  0  0  0  1  0  0  0  0  0  0
  1 25  1  6  0  0  0
  1  4  1  0  0  0  0
  1  2  1  0  0  0  0
  2  7  1  0  0  0  0
  4  8  1  1  0  0  0
  6  5  1  1  0  0  0
  7  6  1  0  0  0  0
  8 10  1  0  0  0  0
  9  6  1  0  0  0  0
  9  3  1  1  0  0  0
  9  5  1  0  0  0  0
 10  3  2  0  0  0  0
 12 18  1  0  0  0  0
 12 14  1  1  0  0  0
 13 11  1  0  0  0  0
 15 22  1  6  0  0  0
 15 12  1  0  0  0  0
 16 17  1  0  0  0  0
 16 13  1  1  0  0  0
 16 21  1  0  0  0  0
 17 15  1  0  0  0  0
 18 19  1  6  0  0  0
 20 11  1  1  0  0  0
 20  4  1  0  0  0  0
 21 20  1  0  0  0  0
 21 18  1  0  0  0  0
 22 24  1  0  0  0  0
 23 24  1  0  0  0  0
 26 30  1  0  0  0  0
 26 25  1  0  0  0  0
 27 30  1  0  0  0  0
 27 28  1  0  0  0  0
 28 31  1  0  0  0  0
 29 27  2  0  0  0  0
 30 28  1  0  0  0  0
 31 32  1  0  0  0  0
M  END
>  <MODEL>
3

>  <REMARK>
 VINA RESULT:      -6.6      3.242      6.728
  Name = 
  7 active torsions:
  status: ('A' for Active; 'I' for Inactive)
    1  A    between atoms: C_2  and  C_5
    2  A    between atoms: C_5  and  C_18
    3  A    between atoms: C_10  and  C_24
    4  A    between atoms: N_14  and  C_21
    5  A    between atoms: C_15  and  C_19
    6  A    between atoms: C_18  and  N_29
    7  A    between atoms: C_19  and  C_26
                            x       y       z     vdW  Elec       q    Type
                         _______ _______ _______ _____ _____    ______ ____

>  <TORSDO>
F 7

$$$$
=
 OpenBabel10262421043D

 32 36  0  0  1  0  0  0  0  0999 V2000
  189.7940  177.6160  143.2510 C   0  0  2  0  0  3  0  0  0  0  0  0
  189.1220  178.4100  144.3850 C   0  0  0  0  0  2  0  0  0  0  0  0
  186.0070  178.4240  142.0890 C   0  0  0  0  0  3  0  0  0  0  0  0
  188.9450  177.4800  141.9600 C   0  0  1  0  0  3  0  0  0  0  0  0
  185.5710  177.8100  144.5150 C   0  0  0  0  0  2  0  0  0  0  0  0
  186.9230  178.4580  144.2940 C   0  0  1  0  0  3  0  0  0  0  0  0
  187.9780  177.7700  144.8880 O   0  0  0  0  0  0  0  0  0  0  0  0
  188.3720  178.7590  141.5360 N   0  0  0  0  0  2  0  0  0  0  0  0
  186.3400  177.5370  143.2380 C   0  0  2  0  0  3  0  0  0  0  0  0
  186.9650  178.9920  141.3430 C   0  0  0  0  0  3  0  0  0  0  0  0
  190.9640  177.3070  140.5360 O   0  0  0  0  0  0  0  0  0  0  0  0
  187.3800  177.7510  137.7230 C   0  0  1  0  0  3  0  0  0  0  0  0
  191.3080  176.8880  139.2340 C   0  0  0  0  0  2  0  0  0  0  0  0
  186.8890  178.9520  137.2080 O   0  0  0  0  0  1  0  0  0  0  0  0
  188.1570  176.9870  136.6380 C   0  0  1  0  0  3  0  0  0  0  0  0
  190.0690  176.3930  138.5040 C   0  0  2  0  0  3  0  0  0  0  0  0
  189.9760  177.1230  136.8190 S   0  0  0  0  0  0  0  0  0  0  0  0
  188.1550  177.9970  139.0240 C   0  0  2  0  0  3  0  0  0  0  0  0
  189.0060  179.1000  138.8950 O   0  0  0  0  0  1  0  0  0  0  0  0
  189.6630  176.8320  140.7600 C   0  0  2  0  0  3  0  0  0  0  0  0
  188.9260  176.7310  139.4360 C   0  0  2  0  0  3  0  0  0  0  0  0
  187.7360  175.5260  136.5810 C   0  0  0  0  0  2  0  0  0  0  0  0
  186.2110  175.9080  134.6720 C   0  0  0  0  0  1  0  0  0  0  0  0
  187.4100  175.1220  135.1560 C   0  0  0  0  0  2  0  0  0  0  0  0
  190.3690  176.2910  143.7640 C   0  0  0  0  0  2  0  0  0  0  0  0
  191.7370  176.4500  144.4150 C   0  0  0  0  0  2  0  0  0  0  0  0
  192.1430  175.9540  147.1080 C   0  0  0  0  0  0  0  0  0  0  0  0
  190.9360  176.6890  147.0460 N   0  0  0  0  0  0  0  0  0  0  0  0
  193.0450  175.3930  147.7820 O   0  0  0  0  0  0  0  0  0  0  0  0
  191.6100  176.3470  145.8570 N   0  0  0  0  0  0  0  0  0  0  0  0
  189.8630  177.3970  147.7160 C   0  0  0  0  0  2  0  0  0  0  0  0
  188.7270  176.5900  147.7610 O   0  0  0  0  0  1  0  0  0  0  0  0
  1 25  1  1  0  0  0
  1  2  1  0  0  0  0
  2  7  1  0  0  0  0
  4  8  1  6  0  0  0
  4  1  1  0  0  0  0
  6  5  1  1  0  0  0
  6  7  1  0  0  0  0
  9  3  1  6  0  0  0
  9  6  1  0  0  0  0
  9  5  1  0  0  0  0
 10  8  1  0  0  0  0
 10  3  2  0  0  0  0
 12 14  1  6  0  0  0
 12 18  1  0  0  0  0
 13 11  1  0  0  0  0
 15 22  1  1  0  0  0
 15 17  1  0  0  0  0
 15 12  1  0  0  0  0
 16 13  1  1  0  0  0
 16 21  1  0  0  0  0
 17 16  1  0  0  0  0
 18 19  1  6  0  0  0
 18 21  1  0  0  0  0
 20 11  1  6  0  0  0
 20  4  1  0  0  0  0
 21 20  1  0  0  0  0
 23 24  1  0  0  0  0
 24 22  1  0  0  0  0
 25 26  1  0  0  0  0
 26 30  1  0  0  0  0
 27 29  2  0  0  0  0
 28 27  1  0  0  0  0
 28 31  1  0  0  0  0
 30 28  1  0  0  0  0
 30 27  1  0  0  0  0
 31 32  1  0  0  0  0
M  END
>  <MODEL>
4

>  <REMARK>
 VINA RESULT:      -6.6      2.766      5.278
  Name = 
  7 active torsions:
  status: ('A' for Active; 'I' for Inactive)
    1  A    between atoms: C_2  and  C_5
    2  A    between atoms: C_5  and  C_18
    3  A    between atoms: C_10  and  C_24
    4  A    between atoms: N_14  and  C_21
    5  A    between atoms: C_15  and  C_19
    6  A    between atoms: C_18  and  N_29
    7  A    between atoms: C_19  and  C_26
                            x       y       z     vdW  Elec       q    Type
                         _______ _______ _______ _____ _____    ______ ____

>  <TORSDO>
F 7

$$$$
=
 OpenBabel10262421043D

 32 36  0  0  1  0  0  0  0  0999 V2000
  187.9850  177.5010  141.4490 C   0  0  2  0  0  3  0  0  0  0  0  0
  187.9110  176.8700  142.8510 C   0  0  0  0  0  2  0  0  0  0  0  0
  191.6820  177.7110  143.0720 C   0  0  0  0  0  3  0  0  0  0  0  0
  189.4140  177.8860  140.9830 C   0  0  1  0  0  3  0  0  0  0  0  0
  190.3020  178.3440  145.1090 C   0  0  0  0  0  2  0  0  0  0  0  0
  189.5910  177.3820  144.1780 C   0  0  1  0  0  3  0  0  0  0  0  0
  188.2890  177.7630  143.8660 O   0  0  0  0  0  0  0  0  0  0  0  0
  190.3770  176.8050  141.2040 N   0  0  0  0  0  2  0  0  0  0  0  0
  190.5070  178.4510  143.6110 C   0  0  2  0  0  3  0  0  0  0  0  0
  191.5830  176.9410  141.9790 C   0  0  0  0  0  3  0  0  0  0  0  0
  188.3400  178.8870  138.9890 O   0  0  0  0  0  0  0  0  0  0  0  0
  190.5470  175.1340  137.5750 C   0  0  1  0  0  3  0  0  0  0  0  0
  188.5310  178.9280  137.5920 C   0  0  0  0  0  2  0  0  0  0  0  0
  189.9970  173.8560  137.4620 O   0  0  0  0  0  1  0  0  0  0  0  0
  190.7010  175.7690  136.1830 C   0  0  1  0  0  3  0  0  0  0  0  0
  189.7660  178.1240  137.2140 C   0  0  2  0  0  3  0  0  0  0  0  0
  189.4020  177.0040  135.8030 S   0  0  0  0  0  0  0  0  0  0  0  0
  189.7590  175.9750  138.5870 C   0  0  2  0  0  3  0  0  0  0  0  0
  188.3810  175.8230  138.3940 O   0  0  0  0  0  1  0  0  0  0  0  0
  189.5270  178.3660  139.5230 C   0  0  2  0  0  3  0  0  0  0  0  0
  190.1830  177.4510  138.5030 C   0  0  2  0  0  3  0  0  0  0  0  0
  192.0840  176.3780  136.0020 C   0  0  0  0  0  2  0  0  0  0  0  0
  194.4290  175.6390  136.2660 C   0  0  0  0  0  1  0  0  0  0  0  0
  193.0790  175.7260  136.9430 C   0  0  0  0  0  2  0  0  0  0  0  0
  186.9520  178.6230  141.2890 C   0  0  0  0  0  2  0  0  0  0  0  0
  185.8370  178.5560  142.3240 C   0  0  0  0  0  2  0  0  0  0  0  0
  183.1340  178.6840  141.7410 C   0  0  0  0  0  0  0  0  0  0  0  0
  183.7900  178.8690  140.5000 N   0  0  0  0  0  0  0  0  0  0  0  0
  182.0760  178.6330  142.4180 O   0  0  0  0  0  0  0  0  0  0  0  0
  184.5470  178.6380  141.6650 N   0  0  0  0  0  0  0  0  0  0  0  0
  183.7330  179.1960  139.0890 C   0  0  0  0  0  2  0  0  0  0  0  0
  184.1760  180.5030  138.8930 O   0  0  0  0  0  1  0  0  0  0  0  0
  1 25  1  1  0  0  0
  1  2  1  0  0  0  0
  2  7  1  0  0  0  0
  4  8  1  6  0  0  0
  4  1  1  0  0  0  0
  6  5  1  1  0  0  0
  7  6  1  0  0  0  0
  8 10  1  0  0  0  0
  9  3  1  1  0  0  0
  9  6  1  0  0  0  0
  9  5  1  0  0  0  0
 10  3  2  0  0  0  0
 12 14  1  6  0  0  0
 12 18  1  0  0  0  0
 13 11  1  0  0  0  0
 15 22  1  1  0  0  0
 15 12  1  0  0  0  0
 16 13  1  1  0  0  0
 16 21  1  0  0  0  0
 17 15  1  0  0  0  0
 17 16  1  0  0  0  0
 18 19  1  6  0  0  0
 20 11  1  6  0  0  0
 20  4  1  0  0  0  0
 21 18  1  0  0  0  0
 21 20  1  0  0  0  0
 22 24  1  0  0  0  0
 23 24  1  0  0  0  0
 25 26  1  0  0  0  0
 27 29  2  0  0  0  0
 28 30  1  0  0  0  0
 28 27  1  0  0  0  0
 30 27  1  0  0  0  0
 30 26  1  0  0  0  0
 31 28  1  0  0  0  0
 32 31  1  0  0  0  0
M  END
>  <MODEL>
5

>  <REMARK>
 VINA RESULT:      -6.4      1.088      1.797
  Name = 
  7 active torsions:
  status: ('A' for Active; 'I' for Inactive)
    1  A    between atoms: C_2  and  C_5
    2  A    between atoms: C_5  and  C_18
    3  A    between atoms: C_10  and  C_24
    4  A    between atoms: N_14  and  C_21
    5  A    between atoms: C_15  and  C_19
    6  A    between atoms: C_18  and  N_29
    7  A    between atoms: C_19  and  C_26
                            x       y       z     vdW  Elec       q    Type
                         _______ _______ _______ _____ _____    ______ ____

>  <TORSDO>
F 7

$$$$
=
 OpenBabel10262421043D

 32 36  0  0  1  0  0  0  0  0999 V2000
  189.9450  174.6190  136.4870 C   0  0  2  0  0  3  0  0  0  0  0  0
  190.9830  173.8500  135.6490 C   0  0  0  0  0  2  0  0  0  0  0  0
  193.6140  175.7590  137.7480 C   0  0  0  0  0  3  0  0  0  0  0  0
  190.5420  175.6940  137.4340 C   0  0  1  0  0  3  0  0  0  0  0  0
  194.0240  173.2650  137.4920 C   0  0  0  0  0  2  0  0  0  0  0  0
  193.0090  173.8110  136.5070 C   0  0  1  0  0  3  0  0  0  0  0  0
  191.8370  173.0630  136.4370 O   0  0  0  0  0  0  0  0  0  0  0  0
  191.5160  176.5500  136.7560 N   0  0  0  0  0  2  0  0  0  0  0  0
  193.0830  174.3770  137.9130 C   0  0  2  0  0  3  0  0  0  0  0  0
  192.8770  176.7290  137.1880 C   0  0  0  0  0  3  0  0  0  0  0  0
  189.4880  177.9160  137.7220 O   0  0  0  0  0  0  0  0  0  0  0  0
  190.6400  176.4330  141.8970 C   0  0  1  0  0  3  0  0  0  0  0  0
  188.7780  178.6310  138.7100 C   0  0  0  0  0  2  0  0  0  0  0  0
  191.8380  176.7050  142.5600 O   0  0  0  0  0  1  0  0  0  0  0  0
  189.5000  177.2760  142.4930 C   0  0  1  0  0  3  0  0  0  0  0  0
  188.6120  177.7720  139.9530 C   0  0  2  0  0  3  0  0  0  0  0  0
  189.0550  178.7230  141.4620 S   0  0  0  0  0  0  0  0  0  0  0  0
  190.8190  176.5650  140.3790 C   0  0  2  0  0  3  0  0  0  0  0  0
  191.5440  177.7200  140.0630 O   0  0  0  0  0  1  0  0  0  0  0  0
  189.5120  176.5830  138.1580 C   0  0  2  0  0  3  0  0  0  0  0  0
  189.4510  176.5440  139.6740 C   0  0  2  0  0  3  0  0  0  0  0  0
  188.2710  176.4240  142.7750 C   0  0  0  0  0  2  0  0  0  0  0  0
  188.5780  177.3620  145.0420 C   0  0  0  0  0  1  0  0  0  0  0  0
  187.5560  176.9170  144.0180 C   0  0  0  0  0  2  0  0  0  0  0  0
  188.9600  173.6620  137.1680 C   0  0  0  0  0  2  0  0  0  0  0  0
  187.7750  173.3000  136.2830 C   0  0  0  0  0  2  0  0  0  0  0  0
  185.3560  174.2580  137.2270 C   0  0  0  0  0  0  0  0  0  0  0  0
  186.0420  175.3980  136.7420 N   0  0  0  0  0  0  0  0  0  0  0  0
  184.3600  173.7470  137.7990 O   0  0  0  0  0  0  0  0  0  0  0  0
  186.6320  174.1240  136.6290 N   0  0  0  0  0  0  0  0  0  0  0  0
  186.1330  176.8370  136.5930 C   0  0  0  0  0  2  0  0  0  0  0  0
  185.6820  177.4560  137.7580 O   0  0  0  0  0  1  0  0  0  0  0  0
  1 25  1  1  0  0  0
  1  4  1  0  0  0  0
  2  7  1  0  0  0  0
  2  1  1  0  0  0  0
  3  9  1  0  0  0  0
  4  8  1  6  0  0  0
  4 20  1  0  0  0  0
  6  5  1  1  0  0  0
  6  9  1  0  0  0  0
  7  6  1  0  0  0  0
  8 10  1  0  0  0  0
  9  5  1  1  0  0  0
 10  3  2  0  0  0  0
 11 13  1  0  0  0  0
 12 15  1  0  0  0  0
 12 14  1  1  0  0  0
 15 22  1  6  0  0  0
 16 13  1  6  0  0  0
 16 17  1  0  0  0  0
 17 15  1  0  0  0  0
 18 19  1  1  0  0  0
 18 12  1  0  0  0  0
 20 11  1  1  0  0  0
 20 21  1  0  0  0  0
 21 16  1  0  0  0  0
 21 18  1  0  0  0  0
 22 24  1  0  0  0  0
 24 23  1  0  0  0  0
 26 30  1  0  0  0  0
 26 25  1  0  0  0  0
 27 29  2  0  0  0  0
 28 27  1  0  0  0  0
 30 28  1  0  0  0  0
 30 27  1  0  0  0  0
 31 28  1  0  0  0  0
 31 32  1  0  0  0  0
M  END
>  <MODEL>
6

>  <REMARK>
 VINA RESULT:      -6.4      3.456      6.624
  Name = 
  7 active torsions:
  status: ('A' for Active; 'I' for Inactive)
    1  A    between atoms: C_2  and  C_5
    2  A    between atoms: C_5  and  C_18
    3  A    between atoms: C_10  and  C_24
    4  A    between atoms: N_14  and  C_21
    5  A    between atoms: C_15  and  C_19
    6  A    between atoms: C_18  and  N_29
    7  A    between atoms: C_19  and  C_26
                            x       y       z     vdW  Elec       q    Type
                         _______ _______ _______ _____ _____    ______ ____

>  <TORSDO>
F 7

$$$$
=
 OpenBabel10262421043D

 32 36  0  0  1  0  0  0  0  0999 V2000
  188.2470  178.4410  140.1400 C   0  0  2  0  0  3  0  0  0  0  0  0
  188.6930  178.9970  138.7760 C   0  0  0  0  0  2  0  0  0  0  0  0
  191.0230  175.9110  138.6450 C   0  0  0  0  0  3  0  0  0  0  0  0
  189.0510  177.2100  140.6350 C   0  0  1  0  0  3  0  0  0  0  0  0
  189.7020  176.3700  136.5250 C   0  0  0  0  0  2  0  0  0  0  0  0
  189.7240  177.5430  137.4840 C   0  0  1  0  0  3  0  0  0  0  0  0
  188.4680  178.0950  137.7250 O   0  0  0  0  0  0  0  0  0  0  0  0
  190.4960  177.4070  140.5150 N   0  0  0  0  0  2  0  0  0  0  0  0
  189.6880  176.1240  138.0200 C   0  0  2  0  0  3  0  0  0  0  0  0
  191.3740  176.5360  139.7780 C   0  0  0  0  0  3  0  0  0  0  0  0
  187.5100  177.2160  142.5740 O   0  0  0  0  0  0  0  0  0  0  0  0
  191.6870  178.1710  144.1850 C   0  0  1  0  0  3  0  0  0  0  0  0
  187.5600  176.9970  143.9670 C   0  0  0  0  0  2  0  0  0  0  0  0
  192.2210  179.4480  144.3650 O   0  0  0  0  0  1  0  0  0  0  0  0
  191.2850  177.5680  145.5410 C   0  0  1  0  0  3  0  0  0  0  0  0
  188.9800  176.6500  144.3860 C   0  0  2  0  0  3  0  0  0  0  0  0
  189.4810  177.6340  145.8550 S   0  0  0  0  0  0  0  0  0  0  0  0
  190.5740  178.1940  143.1290 C   0  0  2  0  0  3  0  0  0  0  0  0
  189.7210  179.2850  143.3310 O   0  0  0  0  0  1  0  0  0  0  0  0
  188.7280  176.7410  142.0680 C   0  0  2  0  0  3  0  0  0  0  0  0
  189.8030  176.8630  143.1340 C   0  0  2  0  0  3  0  0  0  0  0  0
  191.7980  176.1430  145.6880 C   0  0  0  0  0  2  0  0  0  0  0  0
  192.8040  175.6280  147.8870 C   0  0  0  0  0  1  0  0  0  0  0  0
  191.5220  175.6200  147.0840 C   0  0  0  0  0  2  0  0  0  0  0  0
  186.7260  178.2580  140.1960 C   0  0  0  0  0  2  0  0  0  0  0  0
  186.0370  179.2870  141.0830 C   0  0  0  0  0  2  0  0  0  0  0  0
  183.7930  178.6080  142.5560 C   0  0  0  0  0  0  0  0  0  0  0  0
  183.5070  178.1940  141.2330 N   0  0  0  0  0  0  0  0  0  0  0  0
  183.4390  178.7540  143.7540 O   0  0  0  0  0  0  0  0  0  0  0  0
  184.7570  178.7720  141.5310 N   0  0  0  0  0  0  0  0  0  0  0  0
  182.5660  177.6810  140.2560 C   0  0  0  0  0  2  0  0  0  0  0  0
  183.0540  176.4910  139.7180 O   0  0  0  0  0  1  0  0  0  0  0  0
  1 25  1  6  0  0  0
  1  4  1  0  0  0  0
  2  1  1  0  0  0  0
  3 10  2  0  0  0  0
  4  8  1  1  0  0  0
  4 20  1  0  0  0  0
  6  5  1  6  0  0  0
  6  7  1  0  0  0  0
  6  9  1  0  0  0  0
  7  2  1  0  0  0  0
  9  5  1  6  0  0  0
  9  3  1  0  0  0  0
 10  8  1  0  0  0  0
 11 13  1  0  0  0  0
 12 14  1  1  0  0  0
 12 15  1  0  0  0  0
 15 22  1  6  0  0  0
 15 17  1  0  0  0  0
 16 13  1  6  0  0  0
 16 17  1  0  0  0  0
 18 21  1  0  0  0  0
 18 19  1  1  0  0  0
 18 12  1  0  0  0  0
 20 11  1  1  0  0  0
 20 21  1  0  0  0  0
 21 16  1  0  0  0  0
 22 24  1  0  0  0  0
 24 23  1  0  0  0  0
 25 26  1  0  0  0  0
 26 30  1  0  0  0  0
 27 29  2  0  0  0  0
 28 30  1  0  0  0  0
 28 27  1  0  0  0  0
 30 27  1  0  0  0  0
 31 28  1  0  0  0  0
 32 31  1  0  0  0  0
M  END
>  <MODEL>
7

>  <REMARK>
 VINA RESULT:      -6.3      2.658      6.152
  Name = 
  7 active torsions:
  status: ('A' for Active; 'I' for Inactive)
    1  A    between atoms: C_2  and  C_5
    2  A    between atoms: C_5  and  C_18
    3  A    between atoms: C_10  and  C_24
    4  A    between atoms: N_14  and  C_21
    5  A    between atoms: C_15  and  C_19
    6  A    between atoms: C_18  and  N_29
    7  A    between atoms: C_19  and  C_26
                            x       y       z     vdW  Elec       q    Type
                         _______ _______ _______ _____ _____    ______ ____

>  <TORSDO>
F 7

$$$$
=
 OpenBabel10262421043D

 32 36  0  0  1  0  0  0  0  0999 V2000
  186.2450  178.9510  140.9740 C   0  0  2  0  0  3  0  0  0  0  0  0
  185.2380  179.4700  142.0160 C   0  0  0  0  0  2  0  0  0  0  0  0
  182.5580  178.6870  139.3360 C   0  0  0  0  0  3  0  0  0  0  0  0
  185.6370  178.6320  139.5830 C   0  0  1  0  0  3  0  0  0  0  0  0
  182.0260  177.8700  141.6810 C   0  0  0  0  0  2  0  0  0  0  0  0
  183.1480  178.8880  141.6410 C   0  0  1  0  0  3  0  0  0  0  0  0
  184.2760  178.5070  142.3630 O   0  0  0  0  0  0  0  0  0  0  0  0
  184.7740  179.7100  139.0960 N   0  0  0  0  0  2  0  0  0  0  0  0
  182.9910  177.8850  140.5130 C   0  0  2  0  0  3  0  0  0  0  0  0
  183.3940  179.5380  138.7230 C   0  0  0  0  0  3  0  0  0  0  0  0
  186.8160  179.2530  137.4950 O   0  0  0  0  0  0  0  0  0  0  0  0
  185.1600  175.0290  136.8890 C   0  0  1  0  0  3  0  0  0  0  0  0
  187.4770  178.6160  136.4240 C   0  0  0  0  0  2  0  0  0  0  0  0
  183.9270  174.7080  136.3190 O   0  0  0  0  0  1  0  0  0  0  0  0
  186.2950  174.7450  135.8900 C   0  0  1  0  0  3  0  0  0  0  0  0
  187.4590  177.1090  136.6250 C   0  0  2  0  0  3  0  0  0  0  0  0
  186.9420  176.2560  135.0810 S   0  0  0  0  0  0  0  0  0  0  0  0
  185.1390  176.4530  137.4590 C   0  0  2  0  0  3  0  0  0  0  0  0
  184.5340  177.3390  136.5600 O   0  0  0  0  0  1  0  0  0  0  0  0
  186.6540  178.2700  138.4820 C   0  0  2  0  0  3  0  0  0  0  0  0
  186.5630  176.9030  137.8270 C   0  0  2  0  0  3  0  0  0  0  0  0
  187.4260  173.9650  136.5450 C   0  0  0  0  0  2  0  0  0  0  0  0
  186.4690  171.8470  135.7020 C   0  0  0  0  0  1  0  0  0  0  0  0
  186.9590  172.5760  136.9340 C   0  0  0  0  0  2  0  0  0  0  0  0
  187.1130  177.8260  141.5500 C   0  0  0  0  0  2  0  0  0  0  0  0
  188.5760  178.2230  141.7000 C   0  0  0  0  0  2  0  0  0  0  0  0
  189.9610  176.3060  143.1390 C   0  0  0  0  0  0  0  0  0  0  0  0
  189.5950  177.2890  144.0890 N   0  0  0  0  0  0  0  0  0  0  0  0
  190.5570  175.2370  142.8500 O   0  0  0  0  0  0  0  0  0  0  0  0
  189.1960  177.4300  142.7450 N   0  0  0  0  0  0  0  0  0  0  0  0
  189.6830  177.8290  145.4320 C   0  0  0  0  0  2  0  0  0  0  0  0
  188.5680  177.4340  146.1690 O   0  0  0  0  0  1  0  0  0  0  0  0
  1 25  1  1  0  0  0
  1  2  1  0  0  0  0
  2  7  1  0  0  0  0
  4  8  1  6  0  0  0
  4  1  1  0  0  0  0
  6  5  1  1  0  0  0
  6  7  1  0  0  0  0
  9  3  1  6  0  0  0
  9  6  1  0  0  0  0
  9  5  1  0  0  0  0
 10  8  1  0  0  0  0
 10  3  2  0  0  0  0
 12 14  1  6  0  0  0
 12 18  1  0  0  0  0
 13 11  1  0  0  0  0
 15 22  1  1  0  0  0
 15 12  1  0  0  0  0
 16 13  1  6  0  0  0
 16 21  1  0  0  0  0
 17 15  1  0  0  0  0
 17 16  1  0  0  0  0
 18 19  1  6  0  0  0
 18 21  1  0  0  0  0
 20 11  1  6  0  0  0
 20  4  1  0  0  0  0
 21 20  1  0  0  0  0
 22 24  1  0  0  0  0
 23 24  1  0  0  0  0
 25 26  1  0  0  0  0
 26 30  1  0  0  0  0
 27 28  1  0  0  0  0
 28 31  1  0  0  0  0
 29 27  2  0  0  0  0
 30 27  1  0  0  0  0
 30 28  1  0  0  0  0
 31 32  1  0  0  0  0
M  END
>  <MODEL>
8

>  <REMARK>
 VINA RESULT:      -6.3      2.980      5.578
  Name = 
  7 active torsions:
  status: ('A' for Active; 'I' for Inactive)
    1  A    between atoms: C_2  and  C_5
    2  A    between atoms: C_5  and  C_18
    3  A    between atoms: C_10  and  C_24
    4  A    between atoms: N_14  and  C_21
    5  A    between atoms: C_15  and  C_19
    6  A    between atoms: C_18  and  N_29
    7  A    between atoms: C_19  and  C_26
                            x       y       z     vdW  Elec       q    Type
                         _______ _______ _______ _____ _____    ______ ____

>  <TORSDO>
F 7

$$$$
=
 OpenBabel10262421043D

 32 36  0  0  1  0  0  0  0  0999 V2000
  183.3150  179.0100  142.1230 C   0  0  2  0  0  3  0  0  0  0  0  0
  182.7800  179.4830  143.4870 C   0  0  0  0  0  2  0  0  0  0  0  0
  179.2820  178.7520  142.0010 C   0  0  0  0  0  3  0  0  0  0  0  0
  182.2230  178.7270  141.0580 C   0  0  1  0  0  3  0  0  0  0  0  0
  179.6800  177.8560  144.3430 C   0  0  0  0  0  2  0  0  0  0  0  0
  180.7040  178.8880  143.9140 C   0  0  1  0  0  3  0  0  0  0  0  0
  182.0220  178.4980  144.1400 O   0  0  0  0  0  0  0  0  0  0  0  0
  181.2410  179.8090  140.9710 N   0  0  0  0  0  2  0  0  0  0  0  0
  180.1300  177.9180  142.8980 C   0  0  2  0  0  3  0  0  0  0  0  0
  179.8230  179.6320  141.1450 C   0  0  0  0  0  3  0  0  0  0  0  0
  182.3340  179.3210  138.6560 O   0  0  0  0  0  0  0  0  0  0  0  0
  181.2600  174.8770  138.8850 C   0  0  1  0  0  3  0  0  0  0  0  0
  182.5910  178.6900  137.4200 C   0  0  0  0  0  2  0  0  0  0  0  0
  179.9690  174.3470  138.8890 O   0  0  0  0  0  1  0  0  0  0  0  0
  181.9170  174.6640  137.5120 C   0  0  1  0  0  3  0  0  0  0  0  0
  182.8930  177.2160  137.6440 C   0  0  2  0  0  3  0  0  0  0  0  0
  181.9320  176.1740  136.4740 S   0  0  0  0  0  0  0  0  0  0  0  0
  181.2510  176.3290  139.3820 C   0  0  2  0  0  3  0  0  0  0  0  0
  180.2010  177.0470  138.7970 O   0  0  0  0  0  1  0  0  0  0  0  0
  182.7450  178.4120  139.6420 C   0  0  2  0  0  3  0  0  0  0  0  0
  182.6110  176.9950  139.1140 C   0  0  2  0  0  3  0  0  0  0  0  0
  183.3240  174.1010  137.6520 C   0  0  0  0  0  2  0  0  0  0  0  0
  182.0600  172.2810  136.5540 C   0  0  0  0  0  1  0  0  0  0  0  0
  183.4410  172.7740  136.9270 C   0  0  0  0  0  2  0  0  0  0  0  0
  184.3360  177.8780  142.2880 C   0  0  0  0  0  2  0  0  0  0  0  0
  185.7660  178.3830  142.4200 C   0  0  0  0  0  2  0  0  0  0  0  0
  187.2400  177.4770  144.5810 C   0  0  0  0  0  0  0  0  0  0  0  0
  186.2420  178.3110  145.1380 N   0  0  0  0  0  0  0  0  0  0  0  0
  188.2590  176.7530  144.7210 O   0  0  0  0  0  0  0  0  0  0  0  0
  186.2720  178.0870  143.7480 N   0  0  0  0  0  0  0  0  0  0  0  0
  185.6810  179.0030  146.2820 C   0  0  0  0  0  2  0  0  0  0  0  0
  184.3540  178.6150  146.4590 O   0  0  0  0  0  1  0  0  0  0  0  0
  1 25  1  1  0  0  0
  1  2  1  0  0  0  0
  2  7  1  0  0  0  0
  4  8  1  6  0  0  0
  4  1  1  0  0  0  0
  6  7  1  0  0  0  0
  6  5  1  1  0  0  0
  8 10  1  0  0  0  0
  9  3  1  6  0  0  0
  9  6  1  0  0  0  0
  9  5  1  0  0  0  0
 10  3  2  0  0  0  0
 12 14  1  6  0  0  0
 12 18  1  0  0  0  0
 13 11  1  0  0  0  0
 15 22  1  1  0  0  0
 15 12  1  0  0  0  0
 16 13  1  6  0  0  0
 16 21  1  0  0  0  0
 17 15  1  0  0  0  0
 17 16  1  0  0  0  0
 18 19  1  6  0  0  0
 20 11  1  6  0  0  0
 20  4  1  0  0  0  0
 21 18  1  0  0  0  0
 21 20  1  0  0  0  0
 23 24  1  0  0  0  0
 24 22  1  0  0  0  0
 25 26  1  0  0  0  0
 26 30  1  0  0  0  0
 27 29  2  0  0  0  0
 27 28  1  0  0  0  0
 28 31  1  0  0  0  0
 30 27  1  0  0  0  0
 30 28  1  0  0  0  0
 31 32  1  0  0  0  0
M  END
>  <MODEL>
9

>  <REMARK>
 VINA RESULT:      -6.2      5.218      7.700
  Name = 
  7 active torsions:
  status: ('A' for Active; 'I' for Inactive)
    1  A    between atoms: C_2  and  C_5
    2  A    between atoms: C_5  and  C_18
    3  A    between atoms: C_10  and  C_24
    4  A    between atoms: N_14  and  C_21
    5  A    between atoms: C_15  and  C_19
    6  A    between atoms: C_18  and  N_29
    7  A    between atoms: C_19  and  C_26
                            x       y       z     vdW  Elec       q    Type
                         _______ _______ _______ _____ _____    ______ ____

>  <TORSDO>
F 7

$$$$
