=
 OpenBabel10262420153D

 55 60  0  0  1  0  0  0  0  0999 V2000
  182.2160  176.7110  139.5660 N   0  0  0  0  0  0  0  0  0  0  0  0
  186.6570  177.1400  137.8780 C   0  0  0  0  0  2  0  0  0  0  0  0
  188.0320  178.8660  139.9620 O   0  0  0  0  0  1  0  0  0  0  0  0
  185.8020  178.1160  144.1920 C   0  0  0  0  0  3  0  0  0  0  0  0
  185.6320  178.4540  145.5380 C   0  0  0  0  0  3  0  0  0  0  0  0
  183.5150  178.8070  143.7320 C   0  0  0  0  0  0  0  0  0  0  0  0
  183.3540  179.1280  145.0860 C   0  0  0  0  0  3  0  0  0  0  0  0
  186.0040  178.8910  141.2000 C   0  0  0  0  0  2  0  0  0  0  0  0
  184.4100  178.9590  145.9850 C   0  0  0  0  0  3  0  0  0  0  0  0
  180.7940  175.8310  137.8280 C   0  0  0  0  0  2  0  0  0  0  0  0
  184.7540  178.2840  143.2770 C   0  0  0  0  0  0  0  0  0  0  0  0
  183.4950  175.4950  136.6600 C   0  0  1  0  0  3  0  0  0  0  0  0
  183.4470  176.8830  140.2710 C   0  0  0  0  0  3  0  0  0  0  0  0
  183.1990  175.0280  138.0830 C   0  0  0  0  0  2  0  0  0  0  0  0
  182.7710  179.0840  141.3580 C   0  0  1  0  0  3  0  0  0  0  0  0
  186.0770  177.2450  136.6100 O   0  0  0  0  0  0  0  0  0  0  0  0
  182.3280  178.9440  142.8130 C   0  0  0  0  0  2  0  0  0  0  0  0
  186.0720  178.1970  138.7970 C   0  0  0  0  0  2  0  0  0  0  0  0
  186.8200  178.1970  140.1200 C   0  0  1  0  0  3  0  0  0  0  0  0
  181.1070  176.2660  136.3950 C   0  0  0  0  0  2  0  0  0  0  0  0
  186.5740  176.1530  135.8950 C   0  0  1  0  0  3  0  0  0  0  0  0
  182.0590  175.8420  138.6170 C   0  0  0  0  0  0  0  0  0  0  0  0
  184.9940  177.9310  141.8240 C   0  0  1  0  0  3  0  0  0  0  0  0
  183.7130  177.9400  141.0460 C   0  0  0  0  0  0  0  0  0  0  0  0
  185.4590  175.4660  135.1240 C   0  0  0  0  0  2  0  0  0  0  0  0
  184.5940  174.6370  136.0620 C   0  0  0  0  0  2  0  0  0  0  0  0
  182.2320  175.4160  135.7940 C   0  0  0  0  0  2  0  0  0  0  0  0
  180.7520  180.5140  140.8010 C   0  0  0  0  0  2  0  0  0  0  0  0
  180.1500  181.0130  138.5510 C   0  0  2  0  0  3  0  0  0  0  0  0
  182.1570  179.5990  138.9750 C   0  0  0  0  0  2  0  0  0  0  0  0
  181.0060  179.8630  138.0150 C   0  0  0  0  0  2  0  0  0  0  0  0
  179.6280  180.6700  139.8760 N   0  0  0  0  0  2  0  0  0  0  0  0
  181.6140  179.3260  140.3790 C   0  0  1  0  0  3  0  0  0  0  0  0
  178.9930  181.2680  137.6000 C   0  0  0  0  0  3  0  0  0  0  0  0
  179.5360  181.7410  136.2650 C   0  0  0  0  0  2  0  0  0  0  0  0
  178.9410  182.7390  137.2340 C   0  0  0  0  0  2  0  0  0  0  0  0
  187.6490  176.6100  134.9210 C   0  0  0  0  0  2  0  0  0  0  0  0
  189.4710  178.3030  136.3150 O   0  0  0  0  0  0  0  0  0  0  0  0
  189.8570  177.1310  136.0440 C   0  0  0  0  0  0  0  0  0  0  0  0
  188.9620  176.2100  135.4100 N   0  0  0  0  0  2  0  0  0  0  0  0
  191.1580  176.7140  136.3510 O   0  0  0  0  0  0  0  0  0  0  0  0
  191.6180  175.3560  136.3120 C   0  0  2  0  0  3  0  0  0  0  0  0
  190.9570  174.4730  137.3860 C   0  0  0  0  0  3  0  0  0  0  0  0
  190.6290  175.2470  138.5000 O   0  0  0  0  0  1  0  0  0  0  0  0
  189.7990  173.8740  136.8950 O   0  0  0  0  0  1  0  0  0  0  0  0
  193.5260  174.0250  135.3320 C   0  0  0  0  0  1  0  0  0  0  0  0
  193.1670  175.2450  136.1880 C   0  0  2  0  0  0  0  0  0  0  0  0
  193.8540  176.2790  138.2860 O   0  0  0  0  0  1  0  0  0  0  0  0
  193.7990  175.0660  137.5890 C   0  0  2  0  0  3  0  0  0  0  0  0
  195.1750  174.3830  137.5730 C   0  0  1  0  0  3  0  0  0  0  0  0
  196.1960  175.2990  137.2920 O   0  0  0  0  0  1  0  0  0  0  0  0
  195.4560  173.6600  138.8840 C   0  0  0  0  0  2  0  0  0  0  0  0
  195.5840  172.2850  138.6800 O   0  0  0  0  0  1  0  0  0  0  0  0
  193.7700  176.5180  135.5700 C   0  0  0  0  0  2  0  0  0  0  0  0
  194.7970  176.2350  134.6650 O   0  0  0  0  0  1  0  0  0  0  0  0
  1 13  1  0  0  0  0
  2 18  1  0  0  0  0
  4  5  1  0  0  0  0
  5  9  2  0  0  0  0
  6  7  2  0  0  0  0
  7  9  1  0  0  0  0
 10 22  1  0  0  0  0
 11  6  1  0  0  0  0
 11  4  2  0  0  0  0
 12 27  1  6  0  0  0
 12 14  1  0  0  0  0
 13 24  2  0  0  0  0
 14 22  1  0  0  0  0
 15 17  1  1  0  0  0
 16  2  1  0  0  0  0
 17  6  1  0  0  0  0
 18 19  1  0  0  0  0
 19  3  1  6  0  0  0
 19  8  1  0  0  0  0
 20 10  1  0  0  0  0
 21 37  1  6  0  0  0
 21 16  1  0  0  0  0
 22  1  2  0  0  0  0
 23  8  1  6  0  0  0
 23 11  1  0  0  0  0
 24 15  1  0  0  0  0
 24 23  1  0  0  0  0
 25 21  1  0  0  0  0
 25 26  1  0  0  0  0
 26 12  1  0  0  0  0
 27 20  1  0  0  0  0
 29 34  1  6  0  0  0
 29 32  1  0  0  0  0
 31 29  1  0  0  0  0
 31 30  1  0  0  0  0
 32 28  1  0  0  0  0
 33 30  1  6  0  0  0
 33 28  1  0  0  0  0
 33 15  1  0  0  0  0
 35 36  1  0  0  0  0
 35 34  1  0  0  0  0
 36 34  1  0  0  0  0
 37 40  1  0  0  0  0
 39 38  2  0  0  0  0
 39 41  1  0  0  0  0
 40 39  1  0  0  0  0
 42 41  1  1  0  0  0
 42 43  1  0  0  0  0
 43 44  1  0  0  0  0
 45 43  1  0  0  0  0
 47 46  1  6  0  0  0
 47 42  1  0  0  0  0
 47 49  1  0  0  0  0
 49 48  1  6  0  0  0
 50 51  1  1  0  0  0
 50 49  1  0  0  0  0
 50 52  1  0  0  0  0
 53 52  1  0  0  0  0
 54 47  1  0  0  0  0
 55 54  1  0  0  0  0
M  END
>  <MODEL>
1

>  <REMARK>
 VINA RESULT:      -7.5      0.000      0.000
  Name = 
  12 active torsions:
  status: ('A' for Active; 'I' for Inactive)
    1  A    between atoms: C_1  and  C_53
    2  A    between atoms: C_6  and  C_14
    3  A    between atoms: C_8  and  N_22
    4  A    between atoms: C_8  and  C_43
    5  A    between atoms: C_10  and  C_32
    6  A    between atoms: C_11  and  C_29
    7  A    between atoms: C_14  and  C_38
    8  A    between atoms: C_14  and  C_53
    9  A    between atoms: C_20  and  O_42
   10  A    between atoms: C_29  and  C_38
   11  A    between atoms: C_33  and  C_52
   12  A    between atoms: O_42  and  C_53
                            x       y       z     vdW  Elec       q    Type
                         _______ _______ _______ _____ _____    ______ ____

>  <TORSDO>
F 12

$$$$
=
 OpenBabel10262420153D

 55 60  0  0  1  0  0  0  0  0999 V2000
  182.6800  177.6030  137.9230 N   0  0  0  0  0  0  0  0  0  0  0  0
  184.7490  178.9450  142.0070 C   0  0  0  0  0  2  0  0  0  0  0  0
  187.7020  178.4820  141.4770 O   0  0  0  0  0  1  0  0  0  0  0  0
  188.4270  178.9240  136.7120 C   0  0  0  0  0  3  0  0  0  0  0  0
  189.2800  178.8120  135.6100 C   0  0  0  0  0  3  0  0  0  0  0  0
  187.0020  177.1860  135.7810 C   0  0  0  0  0  0  0  0  0  0  0  0
  187.8580  177.0940  134.6760 C   0  0  0  0  0  3  0  0  0  0  0  0
  187.1400  177.7670  139.2820 C   0  0  0  0  0  2  0  0  0  0  0  0
  188.9960  177.9000  134.5930 C   0  0  0  0  0  3  0  0  0  0  0  0
  180.3050  177.3780  138.2800 C   0  0  0  0  0  2  0  0  0  0  0  0
  187.2830  178.1210  136.8120 C   0  0  0  0  0  0  0  0  0  0  0  0
  181.1960  178.6840  140.7840 C   0  0  1  0  0  3  0  0  0  0  0  0
  183.9780  178.1550  138.1490 C   0  0  0  0  0  3  0  0  0  0  0  0
  181.6310  179.2280  139.4260 C   0  0  0  0  0  2  0  0  0  0  0  0
  185.2350  176.1460  137.2190 C   0  0  1  0  0  3  0  0  0  0  0  0
  183.6670  178.3430  142.6560 O   0  0  0  0  0  0  0  0  0  0  0  0
  185.7500  176.3450  135.7940 C   0  0  0  0  0  2  0  0  0  0  0  0
  185.4210  177.9370  141.0920 C   0  0  0  0  0  2  0  0  0  0  0  0
  186.6940  178.5360  140.5160 C   0  0  1  0  0  3  0  0  0  0  0  0
  179.8590  176.8680  139.6520 C   0  0  0  0  0  2  0  0  0  0  0  0
  183.0440  179.3810  143.3540 C   0  0  1  0  0  3  0  0  0  0  0  0
  181.5990  178.1010  138.4370 C   0  0  0  0  0  0  0  0  0  0  0  0
  186.4030  178.2570  138.0370 C   0  0  1  0  0  3  0  0  0  0  0  0
  185.1150  177.5100  137.8650 C   0  0  0  0  0  0  0  0  0  0  0  0
  181.5360  179.3160  143.1730 C   0  0  0  0  0  2  0  0  0  0  0  0
  181.1420  179.8180  141.7920 C   0  0  0  0  0  2  0  0  0  0  0  0
  179.8250  178.0050  140.6780 C   0  0  0  0  0  2  0  0  0  0  0  0
  183.1510  175.2860  136.0580 C   0  0  0  0  0  2  0  0  0  0  0  0
  182.4070  173.0390  136.3170 C   0  0  2  0  0  3  0  0  0  0  0  0
  184.4710  173.7690  137.5060 C   0  0  0  0  0  2  0  0  0  0  0  0
  183.2600  172.8490  137.5740 C   0  0  0  0  0  2  0  0  0  0  0  0
  181.9710  174.4330  136.2160 N   0  0  0  0  0  2  0  0  0  0  0  0
  184.0180  175.2160  137.3140 C   0  0  1  0  0  3  0  0  0  0  0  0
  181.1900  172.1310  136.3900 C   0  0  0  0  0  3  0  0  0  0  0  0
  181.1440  171.2530  135.1540 C   0  0  0  0  0  2  0  0  0  0  0  0
  180.2350  172.4570  135.2590 C   0  0  0  0  0  2  0  0  0  0  0  0
  183.3750  179.2900  144.8350 C   0  0  0  0  0  2  0  0  0  0  0  0
  185.4410  179.3730  146.7970 O   0  0  0  0  0  0  0  0  0  0  0  0
  185.4220  178.3820  146.0150 C   0  0  0  0  0  0  0  0  0  0  0  0
  184.3670  178.2460  145.0560 N   0  0  0  0  0  2  0  0  0  0  0  0
  186.4270  177.4060  146.0650 O   0  0  0  0  0  0  0  0  0  0  0  0
  187.8100  177.6330  145.7580 C   0  0  2  0  0  3  0  0  0  0  0  0
  188.2800  176.8470  144.5210 C   0  0  0  0  0  3  0  0  0  0  0  0
  187.1800  176.4860  143.7420 O   0  0  0  0  0  1  0  0  0  0  0  0
  189.1510  177.6120  143.7470 O   0  0  0  0  0  1  0  0  0  0  0  0
  189.3880  178.9170  147.2510 C   0  0  0  0  0  1  0  0  0  0  0  0
  188.7290  177.5540  147.0130 C   0  0  2  0  0  0  0  0  0  0  0  0
  189.7570  175.4620  147.7260 O   0  0  0  0  0  1  0  0  0  0  0  0
  189.8410  176.5010  146.7910 C   0  0  2  0  0  3  0  0  0  0  0  0
  191.2600  177.0870  146.7520 C   0  0  1  0  0  3  0  0  0  0  0  0
  191.9470  176.8420  147.9470 O   0  0  0  0  0  1  0  0  0  0  0  0
  192.0520  176.5540  145.5650 C   0  0  0  0  0  2  0  0  0  0  0  0
  192.0510  175.1580  145.5490 O   0  0  0  0  0  1  0  0  0  0  0  0
  187.9340  177.1290  148.2610 C   0  0  0  0  0  2  0  0  0  0  0  0
  187.9720  178.0950  149.2700 O   0  0  0  0  0  1  0  0  0  0  0  0
  1 13  1  0  0  0  0
  1 22  2  0  0  0  0
  2 16  1  0  0  0  0
  4 11  1  0  0  0  0
  5  4  2  0  0  0  0
  6 17  1  0  0  0  0
  6 11  2  0  0  0  0
  7  6  1  0  0  0  0
  8 19  1  0  0  0  0
  9  7  2  0  0  0  0
  9  5  1  0  0  0  0
 10 22  1  0  0  0  0
 10 20  1  0  0  0  0
 11 23  1  0  0  0  0
 12 14  1  6  0  0  0
 12 26  1  0  0  0  0
 15 17  1  6  0  0  0
 15 33  1  0  0  0  0
 15 24  1  0  0  0  0
 16 21  1  0  0  0  0
 18  2  1  0  0  0  0
 19 18  1  0  0  0  0
 19  3  1  1  0  0  0
 20 27  1  0  0  0  0
 21 37  1  1  0  0  0
 22 14  1  0  0  0  0
 23  8  1  1  0  0  0
 24 23  1  0  0  0  0
 24 13  2  0  0  0  0
 25 21  1  0  0  0  0
 26 25  1  0  0  0  0
 27 12  1  0  0  0  0
 28 32  1  0  0  0  0
 29 34  1  1  0  0  0
 29 31  1  0  0  0  0
 30 31  1  0  0  0  0
 32 29  1  0  0  0  0
 33 28  1  6  0  0  0
 33 30  1  0  0  0  0
 35 36  1  0  0  0  0
 35 34  1  0  0  0  0
 36 34  1  0  0  0  0
 37 40  1  0  0  0  0
 39 41  1  0  0  0  0
 39 38  2  0  0  0  0
 40 39  1  0  0  0  0
 42 43  1  6  0  0  0
 42 41  1  0  0  0  0
 42 47  1  0  0  0  0
 44 43  1  0  0  0  0
 45 43  1  0  0  0  0
 47 46  1  1  0  0  0
 47 54  1  0  0  0  0
 49 47  1  0  0  0  0
 49 48  1  1  0  0  0
 50 49  1  0  0  0  0
 50 51  1  1  0  0  0
 52 50  1  0  0  0  0
 53 52  1  0  0  0  0
 54 55  1  0  0  0  0
M  END
>  <MODEL>
2

>  <REMARK>
 VINA RESULT:      -6.2      4.194      8.573
  Name = 
  12 active torsions:
  status: ('A' for Active; 'I' for Inactive)
    1  A    between atoms: C_1  and  C_53
    2  A    between atoms: C_6  and  C_14
    3  A    between atoms: C_8  and  N_22
    4  A    between atoms: C_8  and  C_43
    5  A    between atoms: C_10  and  C_32
    6  A    between atoms: C_11  and  C_29
    7  A    between atoms: C_14  and  C_38
    8  A    between atoms: C_14  and  C_53
    9  A    between atoms: C_20  and  O_42
   10  A    between atoms: C_29  and  C_38
   11  A    between atoms: C_33  and  C_52
   12  A    between atoms: O_42  and  C_53
                            x       y       z     vdW  Elec       q    Type
                         _______ _______ _______ _____ _____    ______ ____

>  <TORSDO>
F 12

$$$$
=
 OpenBabel10262420153D

 55 60  0  0  1  0  0  0  0  0999 V2000
  187.1640  176.6890  136.1150 N   0  0  0  0  0  0  0  0  0  0  0  0
  188.1530  177.8570  140.6330 C   0  0  0  0  0  2  0  0  0  0  0  0
  190.9700  176.7970  141.0260 O   0  0  0  0  0  1  0  0  0  0  0  0
  193.1530  176.7900  136.7070 C   0  0  0  0  0  3  0  0  0  0  0  0
  194.2540  176.4470  135.9160 C   0  0  0  0  0  3  0  0  0  0  0  0
  191.7470  175.3070  135.3880 C   0  0  0  0  0  0  0  0  0  0  0  0
  192.8550  174.9830  134.5950 C   0  0  0  0  0  3  0  0  0  0  0  0
  190.9540  176.0690  138.7640 C   0  0  0  0  0  2  0  0  0  0  0  0
  194.1060  175.5450  134.8620 C   0  0  0  0  0  3  0  0  0  0  0  0
  184.7970  176.9520  135.7330 C   0  0  0  0  0  2  0  0  0  0  0  0
  191.8930  176.2330  136.4540 C   0  0  0  0  0  0  0  0  0  0  0  0
  185.1500  178.2150  138.3890 C   0  0  1  0  0  3  0  0  0  0  0  0
  188.4210  176.9920  136.7240 C   0  0  0  0  0  3  0  0  0  0  0  0
  186.0700  178.5780  137.2270 C   0  0  0  0  0  2  0  0  0  0  0  0
  189.4590  174.7220  136.2210 C   0  0  1  0  0  3  0  0  0  0  0  0
  186.8280  177.5180  140.9230 O   0  0  0  0  0  0  0  0  0  0  0  0
  190.4040  174.7280  135.0200 C   0  0  0  0  0  2  0  0  0  0  0  0
  188.8460  176.6820  139.9670 C   0  0  0  0  0  2  0  0  0  0  0  0
  190.3270  176.9850  139.8040 C   0  0  1  0  0  3  0  0  0  0  0  0
  183.8690  176.6250  136.9050 C   0  0  0  0  0  2  0  0  0  0  0  0
  186.2510  178.6990  141.3980 C   0  0  1  0  0  3  0  0  0  0  0  0
  186.1050  177.4190  136.2760 C   0  0  0  0  0  0  0  0  0  0  0  0
  190.7360  176.6130  137.3550 C   0  0  1  0  0  3  0  0  0  0  0  0
  189.4330  176.1220  136.7990 C   0  0  0  0  0  0  0  0  0  0  0  0
  184.8850  178.9160  140.7670 C   0  0  0  0  0  2  0  0  0  0  0  0
  185.0310  179.3980  139.3320 C   0  0  0  0  0  2  0  0  0  0  0  0
  183.7630  177.8100  137.8710 C   0  0  0  0  0  2  0  0  0  0  0  0
  188.2350  172.9060  134.9430 C   0  0  0  0  0  2  0  0  0  0  0  0
  186.3860  171.7370  135.8850 C   0  0  2  0  0  3  0  0  0  0  0  0
  187.5120  173.5010  137.2380 C   0  0  0  0  0  2  0  0  0  0  0  0
  186.1820  172.8180  136.9500 C   0  0  0  0  0  2  0  0  0  0  0  0
  186.9150  172.3400  134.6590 N   0  0  0  0  0  2  0  0  0  0  0  0
  188.1060  174.0550  135.9420 C   0  0  1  0  0  3  0  0  0  0  0  0
  185.0570  171.0640  135.5870 C   0  0  0  0  0  3  0  0  0  0  0  0
  184.2160  171.9770  134.7150 C   0  0  0  0  0  2  0  0  0  0  0  0
  183.9240  171.8680  136.1950 C   0  0  0  0  0  2  0  0  0  0  0  0
  186.1000  178.6380  142.9100 C   0  0  0  0  0  2  0  0  0  0  0  0
  187.2440  176.0950  143.5020 O   0  0  0  0  0  0  0  0  0  0  0  0
  187.8890  177.1200  143.8600 C   0  0  0  0  0  0  0  0  0  0  0  0
  187.4030  178.4250  143.5270 N   0  0  0  0  0  2  0  0  0  0  0  0
  189.0800  177.0010  144.5880 O   0  0  0  0  0  0  0  0  0  0  0  0
  189.5960  177.9920  145.4890 C   0  0  2  0  0  3  0  0  0  0  0  0
  190.9020  178.6330  144.9830 C   0  0  0  0  0  3  0  0  0  0  0  0
  191.8950  177.6580  144.8700 O   0  0  0  0  0  1  0  0  0  0  0  0
  190.7130  179.2320  143.7390 O   0  0  0  0  0  1  0  0  0  0  0  0
  189.5500  175.9900  147.0240 C   0  0  0  0  0  1  0  0  0  0  0  0
  189.5920  177.5210  146.9730 C   0  0  2  0  0  0  0  0  0  0  0  0
  188.0830  177.3650  148.8820 O   0  0  0  0  0  1  0  0  0  0  0  0
  188.3440  178.0730  147.7020 C   0  0  2  0  0  3  0  0  0  0  0  0
  187.0870  178.1490  146.8220 C   0  0  1  0  0  3  0  0  0  0  0  0
  186.3560  176.9560  146.8720 O   0  0  0  0  0  1  0  0  0  0  0  0
  186.2040  179.3290  147.2090 C   0  0  0  0  0  2  0  0  0  0  0  0
  184.9470  179.2320  146.6090 O   0  0  0  0  0  1  0  0  0  0  0  0
  190.8310  178.0390  147.7260 C   0  0  0  0  0  2  0  0  0  0  0  0
  191.7040  177.0090  148.0840 O   0  0  0  0  0  1  0  0  0  0  0  0
  1 22  2  0  0  0  0
  1 13  1  0  0  0  0
  2 16  1  0  0  0  0
  5  4  2  0  0  0  0
  6 11  2  0  0  0  0
  7  9  2  0  0  0  0
  7  6  1  0  0  0  0
  8 19  1  0  0  0  0
  9  5  1  0  0  0  0
 10 22  1  0  0  0  0
 10 20  1  0  0  0  0
 11  4  1  0  0  0  0
 11 23  1  0  0  0  0
 12 14  1  6  0  0  0
 12 26  1  0  0  0  0
 13 24  2  0  0  0  0
 15 17  1  6  0  0  0
 15 24  1  0  0  0  0
 16 21  1  0  0  0  0
 17  6  1  0  0  0  0
 18  2  1  0  0  0  0
 19 18  1  0  0  0  0
 19  3  1  1  0  0  0
 20 27  1  0  0  0  0
 21 37  1  1  0  0  0
 22 14  1  0  0  0  0
 23  8  1  1  0  0  0
 24 23  1  0  0  0  0
 25 21  1  0  0  0  0
 26 25  1  0  0  0  0
 27 12  1  0  0  0  0
 29 34  1  6  0  0  0
 29 31  1  0  0  0  0
 31 30  1  0  0  0  0
 32 28  1  0  0  0  0
 32 29  1  0  0  0  0
 33 28  1  6  0  0  0
 33 15  1  0  0  0  0
 33 30  1  0  0  0  0
 34 36  1  0  0  0  0
 35 34  1  0  0  0  0
 35 36  1  0  0  0  0
 37 40  1  0  0  0  0
 38 39  2  0  0  0  0
 39 41  1  0  0  0  0
 40 39  1  0  0  0  0
 42 41  1  6  0  0  0
 42 47  1  0  0  0  0
 43 42  1  0  0  0  0
 44 43  1  0  0  0  0
 45 43  1  0  0  0  0
 47 46  1  1  0  0  0
 47 49  1  0  0  0  0
 47 54  1  0  0  0  0
 49 48  1  1  0  0  0
 50 51  1  1  0  0  0
 50 52  1  0  0  0  0
 50 49  1  0  0  0  0
 53 52  1  0  0  0  0
 54 55  1  0  0  0  0
M  END
>  <MODEL>
3

>  <REMARK>
 VINA RESULT:      -5.3      3.706      9.655
  Name = 
  12 active torsions:
  status: ('A' for Active; 'I' for Inactive)
    1  A    between atoms: C_1  and  C_53
    2  A    between atoms: C_6  and  C_14
    3  A    between atoms: C_8  and  N_22
    4  A    between atoms: C_8  and  C_43
    5  A    between atoms: C_10  and  C_32
    6  A    between atoms: C_11  and  C_29
    7  A    between atoms: C_14  and  C_38
    8  A    between atoms: C_14  and  C_53
    9  A    between atoms: C_20  and  O_42
   10  A    between atoms: C_29  and  C_38
   11  A    between atoms: C_33  and  C_52
   12  A    between atoms: O_42  and  C_53
                            x       y       z     vdW  Elec       q    Type
                         _______ _______ _______ _____ _____    ______ ____

>  <TORSDO>
F 12

$$$$
=
 OpenBabel10262420153D

 55 60  0  0  1  0  0  0  0  0999 V2000
  186.9130  176.2730  135.5200 N   0  0  0  0  0  0  0  0  0  0  0  0
  186.9090  178.1520  139.9050 C   0  0  0  0  0  2  0  0  0  0  0  0
  189.5980  177.3060  141.0290 O   0  0  0  0  0  1  0  0  0  0  0  0
  192.6410  176.7620  137.3050 C   0  0  0  0  0  3  0  0  0  0  0  0
  193.8900  176.3600  136.8210 C   0  0  0  0  0  3  0  0  0  0  0  0
  191.5700  175.0300  135.9750 C   0  0  0  0  0  0  0  0  0  0  0  0
  192.8260  174.6460  135.4870 C   0  0  0  0  0  3  0  0  0  0  0  0
  190.0710  176.2470  138.9540 C   0  0  0  0  0  2  0  0  0  0  0  0
  193.9820  175.3040  135.9130 C   0  0  0  0  0  3  0  0  0  0  0  0
  184.6750  176.3570  134.6250 C   0  0  0  0  0  2  0  0  0  0  0  0
  191.4720  176.1110  136.8900 C   0  0  0  0  0  0  0  0  0  0  0  0
  184.4380  178.0190  137.0640 C   0  0  1  0  0  3  0  0  0  0  0  0
  188.0080  176.7260  136.3190 C   0  0  0  0  0  3  0  0  0  0  0  0
  185.5760  178.2500  136.0740 C   0  0  0  0  0  2  0  0  0  0  0  0
  189.1690  174.4620  136.4020 C   0  0  1  0  0  3  0  0  0  0  0  0
  185.5580  177.7950  139.9670 O   0  0  0  0  0  0  0  0  0  0  0  0
  190.3450  174.3350  135.4350 C   0  0  0  0  0  2  0  0  0  0  0  0
  187.7470  176.9280  139.5870 C   0  0  0  0  0  2  0  0  0  0  0  0
  189.2230  177.2760  139.6870 C   0  0  1  0  0  3  0  0  0  0  0  0
  183.5270  176.1630  135.6170 C   0  0  0  0  0  2  0  0  0  0  0  0
  184.8730  179.0030  140.1210 C   0  0  1  0  0  3  0  0  0  0  0  0
  185.8310  176.9650  135.3440 C   0  0  0  0  0  0  0  0  0  0  0  0
  190.1450  176.5630  137.4620 C   0  0  1  0  0  3  0  0  0  0  0  0
  188.9970  175.9290  136.7360 C   0  0  0  0  0  0  0  0  0  0  0  0
  183.6670  179.0550  139.1980 C   0  0  0  0  0  2  0  0  0  0  0  0
  184.1030  179.3230  137.7650 C   0  0  0  0  0  2  0  0  0  0  0  0
  183.2000  177.4720  136.3440 C   0  0  0  0  0  2  0  0  0  0  0  0
  188.2670  172.5090  135.0600 C   0  0  0  0  0  2  0  0  0  0  0  0
  186.3660  171.2660  135.7760 C   0  0  2  0  0  3  0  0  0  0  0  0
  187.1620  173.1640  137.1800 C   0  0  0  0  0  2  0  0  0  0  0  0
  185.9360  172.3810  136.7330 C   0  0  0  0  0  2  0  0  0  0  0  0
  187.0420  171.8430  134.6120 N   0  0  0  0  0  2  0  0  0  0  0  0
  187.9170  173.6930  135.9600 C   0  0  1  0  0  3  0  0  0  0  0  0
  185.1400  170.4920  135.3190 C   0  0  0  0  0  3  0  0  0  0  0  0
  184.1310  171.4560  134.7240 C   0  0  0  0  0  2  0  0  0  0  0  0
  183.9300  170.9210  136.1250 C   0  0  0  0  0  2  0  0  0  0  0  0
  184.4090  179.1620  141.5610 C   0  0  0  0  0  2  0  0  0  0  0  0
  184.3550  178.1860  144.2390 O   0  0  0  0  0  0  0  0  0  0  0  0
  185.4450  178.6650  143.8170 C   0  0  0  0  0  0  0  0  0  0  0  0
  185.5560  179.1040  142.4580 N   0  0  0  0  0  2  0  0  0  0  0  0
  186.5550  178.7800  144.6630 O   0  0  0  0  0  0  0  0  0  0  0  0
  186.7120  178.0920  145.9120 C   0  0  2  0  0  3  0  0  0  0  0  0
  185.9320  178.7580  147.0600 C   0  0  0  0  0  3  0  0  0  0  0  0
  185.7910  180.1240  146.8070 O   0  0  0  0  0  1  0  0  0  0  0  0
  184.6670  178.1910  147.1980 O   0  0  0  0  0  1  0  0  0  0  0  0
  188.8170  178.7850  147.1190 C   0  0  0  0  0  1  0  0  0  0  0  0
  188.1930  177.7170  146.2140 C   0  0  2  0  0  0  0  0  0  0  0  0
  188.7800  176.4500  144.2160 O   0  0  0  0  0  1  0  0  0  0  0  0
  189.0040  177.6520  144.8980 C   0  0  2  0  0  3  0  0  0  0  0  0
  190.5080  177.9080  145.0750 C   0  0  1  0  0  3  0  0  0  0  0  0
  191.2420  176.7190  144.9870 O   0  0  0  0  0  1  0  0  0  0  0  0
  191.0240  178.9270  144.0670 C   0  0  0  0  0  2  0  0  0  0  0  0
  191.9060  178.3320  143.1620 O   0  0  0  0  0  1  0  0  0  0  0  0
  188.2930  176.3350  146.8850 C   0  0  0  0  0  2  0  0  0  0  0  0
  189.3750  176.2490  147.7650 O   0  0  0  0  0  1  0  0  0  0  0  0
  1 13  1  0  0  0  0
  2 16  1  0  0  0  0
  5  4  2  0  0  0  0
  6 11  2  0  0  0  0
  7  9  2  0  0  0  0
  7  6  1  0  0  0  0
  8 19  1  0  0  0  0
  9  5  1  0  0  0  0
 10 22  1  0  0  0  0
 10 20  1  0  0  0  0
 11  4  1  0  0  0  0
 11 23  1  0  0  0  0
 12 14  1  6  0  0  0
 12 26  1  0  0  0  0
 13 24  2  0  0  0  0
 15 17  1  6  0  0  0
 15 24  1  0  0  0  0
 16 21  1  0  0  0  0
 17  6  1  0  0  0  0
 18 19  1  0  0  0  0
 18  2  1  0  0  0  0
 19  3  1  1  0  0  0
 20 27  1  0  0  0  0
 21 37  1  1  0  0  0
 22  1  2  0  0  0  0
 22 14  1  0  0  0  0
 23  8  1  1  0  0  0
 24 23  1  0  0  0  0
 25 21  1  0  0  0  0
 26 25  1  0  0  0  0
 27 12  1  0  0  0  0
 29 34  1  6  0  0  0
 29 31  1  0  0  0  0
 31 30  1  0  0  0  0
 32 28  1  0  0  0  0
 32 29  1  0  0  0  0
 33 28  1  6  0  0  0
 33 15  1  0  0  0  0
 33 30  1  0  0  0  0
 34 36  1  0  0  0  0
 35 34  1  0  0  0  0
 35 36  1  0  0  0  0
 37 40  1  0  0  0  0
 39 38  2  0  0  0  0
 39 41  1  0  0  0  0
 40 39  1  0  0  0  0
 42 41  1  6  0  0  0
 42 47  1  0  0  0  0
 42 43  1  0  0  0  0
 43 45  1  0  0  0  0
 44 43  1  0  0  0  0
 47 54  1  0  0  0  0
 47 46  1  1  0  0  0
 49 48  1  1  0  0  0
 49 50  1  0  0  0  0
 49 47  1  0  0  0  0
 50 51  1  6  0  0  0
 52 50  1  0  0  0  0
 53 52  1  0  0  0  0
 54 55  1  0  0  0  0
M  END
>  <MODEL>
4

>  <REMARK>
 VINA RESULT:      -4.6      3.496      9.284
  Name = 
  12 active torsions:
  status: ('A' for Active; 'I' for Inactive)
    1  A    between atoms: C_1  and  C_53
    2  A    between atoms: C_6  and  C_14
    3  A    between atoms: C_8  and  N_22
    4  A    between atoms: C_8  and  C_43
    5  A    between atoms: C_10  and  C_32
    6  A    between atoms: C_11  and  C_29
    7  A    between atoms: C_14  and  C_38
    8  A    between atoms: C_14  and  C_53
    9  A    between atoms: C_20  and  O_42
   10  A    between atoms: C_29  and  C_38
   11  A    between atoms: C_33  and  C_52
   12  A    between atoms: O_42  and  C_53
                            x       y       z     vdW  Elec       q    Type
                         _______ _______ _______ _____ _____    ______ ____

>  <TORSDO>
F 12

$$$$
