=
 OpenBabel10262422263D

 43 47  0  0  1  0  0  0  0  0999 V2000
  190.0810  177.0420  140.5100 C   0  0  0  0  0  0  0  0  0  0  0  0
  188.1070  177.6360  138.5670 C   0  0  2  0  0  3  0  0  0  0  0  0
  189.2890  176.6720  143.1560 C   0  0  0  0  0  0  0  0  0  0  0  0
  188.4400  177.3350  142.2610 C   0  0  0  0  0  3  0  0  0  0  0  0
  187.9100  178.2000  139.9740 C   0  0  0  0  0  2  0  0  0  0  0  0
  188.8230  177.5050  140.9310 C   0  0  0  0  0  0  0  0  0  0  0  0
  190.8860  176.3950  141.3970 N   0  0  0  0  0  0  0  0  0  0  0  0
  190.4790  177.1950  139.1290 N   0  0  0  0  0  0  0  0  0  0  0  0
  189.5680  177.7790  138.1400 C   0  0  0  0  0  2  0  0  0  0  0  0
  190.5230  176.2090  142.6950 C   0  0  0  0  0  3  0  0  0  0  0  0
  187.1780  178.2990  137.5550 C   0  0  2  0  0  3  0  0  0  0  0  0
  187.8540  179.2880  136.8340 O   0  0  0  0  0  1  0  0  0  0  0  0
  186.0380  178.8820  138.2460 N   0  0  0  0  0  2  0  0  0  0  0  0
  184.7170  178.3450  138.1610 C   0  0  0  0  0  0  0  0  0  0  0  0
  184.4890  177.3000  137.4960 O   0  0  0  0  0  0  0  0  0  0  0  0
  183.5910  179.0450  138.8460 C   0  0  0  0  0  2  0  0  0  0  0  0
  183.1380  178.2710  140.0860 C   0  0  1  0  0  0  0  0  0  0  0  0
  180.7620  177.8860  138.6200 S   0  0  0  0  0  1  0  0  0  0  0  0
  181.9920  178.9220  140.8250 C   0  0  0  0  0  2  0  0  0  0  0  0
  181.7700  177.5950  140.1120 C   0  0  2  0  0  3  0  0  0  0  0  0
  184.1780  177.6400  141.0080 C   0  0  0  0  0  2  0  0  0  0  0  0
  184.6840  178.6120  142.0280 C   0  0  0  0  0  0  0  0  0  0  0  0
  185.2010  179.6610  141.6710 O   0  0  0  0  0  0  0  0  0  0  0  0
  184.5750  178.2730  143.4810 C   0  0  0  0  0  3  0  0  0  0  0  0
  183.6660  178.9930  145.7010 C   0  0  0  0  0  2  0  0  0  0  0  0
  185.8370  177.7530  145.5820 C   0  0  0  0  0  2  0  0  0  0  0  0
  185.0530  178.8380  146.3170 C   0  0  0  0  0  2  0  0  0  0  0  0
  185.9610  178.1040  144.1020 C   0  0  0  0  0  2  0  0  0  0  0  0
  183.7820  179.3490  144.2220 C   0  0  0  0  0  2  0  0  0  0  0  0
  191.7500  176.7930  138.6850 N   0  0  0  0  0  2  0  0  0  0  0  0
  191.2840  173.6540  136.6970 C   0  0  0  0  0  3  0  0  0  0  0  0
  192.4690  173.6370  135.9440 C   0  0  0  0  0  0  0  0  0  0  0  0
  193.1540  175.7070  137.0080 C   0  0  0  0  0  3  0  0  0  0  0  0
  191.0370  174.6940  137.5970 C   0  0  0  0  0  3  0  0  0  0  0  0
  191.9670  175.7330  137.7460 C   0  0  0  0  0  0  0  0  0  0  0  0
  193.4010  174.6670  136.1080 C   0  0  0  0  0  3  0  0  0  0  0  0
  192.7440  172.6130  135.0340 O   0  0  0  0  0  0  0  0  0  0  0  0
  193.3120  171.3700  135.4250 C   0  0  0  0  0  1  0  0  0  0  0  0
  188.9520  176.4910  144.5040 O   0  0  0  0  0  0  0  0  0  0  0  0
  189.3600  177.3300  145.5510 C   0  0  0  0  0  0  0  0  0  0  0  0
  189.9160  178.4230  145.2690 O   0  0  0  0  0  0  0  0  0  0  0  0
  189.2320  176.9560  146.9690 C   0  0  0  0  0  3  0  0  0  0  0  0
  189.1830  177.8530  147.9450 C   0  0  0  0  0  2  0  0  0  0  0  0
  1  6  2  0  0  0  0
  1  7  1  0  0  0  0
  2 11  1  6  0  0  0
  2  5  1  0  0  0  0
  3 39  1  0  0  0  0
  4  3  2  0  0  0  0
  5  6  1  0  0  0  0
  6  4  1  0  0  0  0
  7 10  2  0  0  0  0
  8  1  1  0  0  0  0
  9  2  1  0  0  0  0
  9  8  1  0  0  0  0
 10  3  1  0  0  0  0
 11 12  1  1  0  0  0
 11 13  1  0  0  0  0
 14 13  1  0  0  0  0
 14 16  1  0  0  0  0
 15 14  2  0  0  0  0
 17 16  1  6  0  0  0
 17 20  1  0  0  0  0
 17 19  1  0  0  0  0
 17 21  1  0  0  0  0
 20 18  1  6  0  0  0
 20 19  1  0  0  0  0
 21 22  1  0  0  0  0
 22 24  1  0  0  0  0
 23 22  2  0  0  0  0
 24 28  1  0  0  0  0
 24 29  1  0  0  0  0
 25 27  1  0  0  0  0
 26 27  1  0  0  0  0
 28 26  1  0  0  0  0
 29 25  1  0  0  0  0
 30  8  1  0  0  0  0
 31 34  1  0  0  0  0
 32 36  1  0  0  0  0
 32 31  2  0  0  0  0
 33 35  1  0  0  0  0
 34 35  2  0  0  0  0
 35 30  1  0  0  0  0
 36 33  2  0  0  0  0
 37 38  1  0  0  0  0
 37 32  1  0  0  0  0
 39 40  1  0  0  0  0
 40 42  1  0  0  0  0
 41 40  2  0  0  0  0
 42 43  2  0  0  0  0
M  END
>  <MODEL>
1

>  <REMARK>
 VINA RESULT:      -8.6      0.000      0.000
  Name = 
  13 active torsions:
  status: ('A' for Active; 'I' for Inactive)
    1  A    between atoms: N_1  and  N_34
    2  A    between atoms: N_1  and  C_35
    3  A    between atoms: C_2  and  N_6
    4  A    between atoms: C_2  and  C_13
    5  A    between atoms: C_3  and  C_4
    6  A    between atoms: C_3  and  C_12
    7  A    between atoms: C_4  and  C_22
    8  A    between atoms: C_5  and  C_18
    9  A    between atoms: C_5  and  O_23
   10  A    between atoms: C_11  and  C_14
   11  A    between atoms: C_14  and  C_22
   12  A    between atoms: C_16  and  O_23
   13  A    between atoms: C_19  and  O_25
                            x       y       z     vdW  Elec       q    Type
                         _______ _______ _______ _____ _____    ______ ____

>  <TORSDO>
F 13

$$$$
=
 OpenBabel10262422263D

 43 47  0  0  1  0  0  0  0  0999 V2000
  190.4840  177.4300  139.7320 C   0  0  0  0  0  0  0  0  0  0  0  0
  188.1540  177.8820  138.1880 C   0  0  2  0  0  3  0  0  0  0  0  0
  192.7890  176.5290  138.4490 C   0  0  0  0  0  0  0  0  0  0  0  0
  191.5440  176.3930  137.8220 C   0  0  0  0  0  3  0  0  0  0  0  0
  189.0650  176.7270  137.7750 C   0  0  0  0  0  2  0  0  0  0  0  0
  190.3910  176.8600  138.4510 C   0  0  0  0  0  0  0  0  0  0  0  0
  191.7070  177.5580  140.3190 N   0  0  0  0  0  0  0  0  0  0  0  0
  189.2980  177.9360  140.3840 N   0  0  0  0  0  0  0  0  0  0  0  0
  187.9970  177.9150  139.7080 C   0  0  0  0  0  2  0  0  0  0  0  0
  192.8430  177.1190  139.7140 C   0  0  0  0  0  3  0  0  0  0  0  0
  186.7920  177.8040  137.5030 C   0  0  2  0  0  3  0  0  0  0  0  0
  186.8640  178.2970  136.1970 O   0  0  0  0  0  1  0  0  0  0  0  0
  185.8160  178.5660  138.2670 N   0  0  0  0  0  2  0  0  0  0  0  0
  184.4250  178.2450  138.2970 C   0  0  0  0  0  0  0  0  0  0  0  0
  183.9840  177.2420  137.6740 O   0  0  0  0  0  0  0  0  0  0  0  0
  183.4820  179.1210  139.0500 C   0  0  0  0  0  2  0  0  0  0  0  0
  182.9870  178.4260  140.3210 C   0  0  1  0  0  0  0  0  0  0  0  0
  180.4990  178.4140  138.9980 S   0  0  0  0  0  1  0  0  0  0  0  0
  182.0000  179.2480  141.1180 C   0  0  0  0  0  2  0  0  0  0  0  0
  181.5340  177.9710  140.4320 C   0  0  2  0  0  3  0  0  0  0  0  0
  183.9680  177.6420  141.1890 C   0  0  0  0  0  2  0  0  0  0  0  0
  184.7690  178.5410  142.0790 C   0  0  0  0  0  0  0  0  0  0  0  0
  185.2580  179.5680  141.6320 O   0  0  0  0  0  0  0  0  0  0  0  0
  184.9850  178.1530  143.5080 C   0  0  0  0  0  3  0  0  0  0  0  0
  184.7140  178.8570  145.8960 C   0  0  0  0  0  2  0  0  0  0  0  0
  186.6660  177.4410  145.2230 C   0  0  0  0  0  2  0  0  0  0  0  0
  186.1890  178.5580  146.1490 C   0  0  0  0  0  2  0  0  0  0  0  0
  186.4590  177.8400  143.7650 C   0  0  0  0  0  2  0  0  0  0  0  0
  184.5000  179.2620  144.4410 C   0  0  0  0  0  2  0  0  0  0  0  0
  189.3460  178.4620  141.6860 N   0  0  0  0  0  2  0  0  0  0  0  0
  190.5320  175.8790  144.1240 C   0  0  0  0  0  3  0  0  0  0  0  0
  191.3480  176.6580  144.9620 C   0  0  0  0  0  0  0  0  0  0  0  0
  190.8320  178.6110  143.6170 C   0  0  0  0  0  3  0  0  0  0  0  0
  189.8750  176.4650  143.0390 C   0  0  0  0  0  3  0  0  0  0  0  0
  190.0330  177.8330  142.7740 C   0  0  0  0  0  0  0  0  0  0  0  0
  191.4890  178.0250  144.7030 C   0  0  0  0  0  3  0  0  0  0  0  0
  192.0200  176.1020  146.0530 O   0  0  0  0  0  0  0  0  0  0  0  0
  191.5640  176.2450  147.3910 C   0  0  0  0  0  1  0  0  0  0  0  0
  193.9720  176.0620  137.8620 O   0  0  0  0  0  0  0  0  0  0  0  0
  194.4660  174.7550  137.9860 C   0  0  0  0  0  0  0  0  0  0  0  0
  195.1290  174.4540  139.0130 O   0  0  0  0  0  0  0  0  0  0  0  0
  194.3050  173.7390  136.9340 C   0  0  0  0  0  3  0  0  0  0  0  0
  193.1750  173.5860  136.2540 C   0  0  0  0  0  2  0  0  0  0  0  0
  1  7  1  0  0  0  0
  1  8  1  0  0  0  0
  2 11  1  6  0  0  0
  2  9  1  0  0  0  0
  3 10  1  0  0  0  0
  4  3  2  0  0  0  0
  4  6  1  0  0  0  0
  5  2  1  0  0  0  0
  5  6  1  0  0  0  0
  6  1  2  0  0  0  0
  8 30  1  0  0  0  0
  9  8  1  0  0  0  0
 10  7  2  0  0  0  0
 11 12  1  6  0  0  0
 11 13  1  0  0  0  0
 13 14  1  0  0  0  0
 14 16  1  0  0  0  0
 15 14  2  0  0  0  0
 17 16  1  6  0  0  0
 17 20  1  0  0  0  0
 17 19  1  0  0  0  0
 17 21  1  0  0  0  0
 20 18  1  6  0  0  0
 20 19  1  0  0  0  0
 21 22  1  0  0  0  0
 22 24  1  0  0  0  0
 23 22  2  0  0  0  0
 24 28  1  0  0  0  0
 24 29  1  0  0  0  0
 25 27  1  0  0  0  0
 26 27  1  0  0  0  0
 28 26  1  0  0  0  0
 29 25  1  0  0  0  0
 30 35  1  0  0  0  0
 31 32  1  0  0  0  0
 32 37  1  0  0  0  0
 33 36  1  0  0  0  0
 34 31  2  0  0  0  0
 35 34  1  0  0  0  0
 35 33  2  0  0  0  0
 36 32  2  0  0  0  0
 37 38  1  0  0  0  0
 39 40  1  0  0  0  0
 39  3  1  0  0  0  0
 40 41  2  0  0  0  0
 42 40  1  0  0  0  0
 43 42  2  0  0  0  0
M  END
>  <MODEL>
2

>  <REMARK>
 VINA RESULT:      -8.5      1.709      5.616
  Name = 
  13 active torsions:
  status: ('A' for Active; 'I' for Inactive)
    1  A    between atoms: N_1  and  N_34
    2  A    between atoms: N_1  and  C_35
    3  A    between atoms: C_2  and  N_6
    4  A    between atoms: C_2  and  C_13
    5  A    between atoms: C_3  and  C_4
    6  A    between atoms: C_3  and  C_12
    7  A    between atoms: C_4  and  C_22
    8  A    between atoms: C_5  and  C_18
    9  A    between atoms: C_5  and  O_23
   10  A    between atoms: C_11  and  C_14
   11  A    between atoms: C_14  and  C_22
   12  A    between atoms: C_16  and  O_23
   13  A    between atoms: C_19  and  O_25
                            x       y       z     vdW  Elec       q    Type
                         _______ _______ _______ _____ _____    ______ ____

>  <TORSDO>
F 13

$$$$
=
 OpenBabel10262422263D

 43 47  0  0  1  0  0  0  0  0999 V2000
  188.7660  176.5760  138.0980 C   0  0  0  0  0  0  0  0  0  0  0  0
  190.7590  177.4870  139.8920 C   0  0  2  0  0  3  0  0  0  0  0  0
  186.3380  177.9390  137.9870 C   0  0  0  0  0  0  0  0  0  0  0  0
  187.1760  178.0980  139.0970 C   0  0  0  0  0  3  0  0  0  0  0  0
  189.3000  177.6150  140.3280 C   0  0  0  0  0  2  0  0  0  0  0  0
  188.4010  177.4340  139.1480 C   0  0  0  0  0  0  0  0  0  0  0  0
  187.9380  176.4430  137.0250 N   0  0  0  0  0  0  0  0  0  0  0  0
  190.0420  175.8990  138.1310 N   0  0  0  0  0  0  0  0  0  0  0  0
  190.9940  176.1330  139.2220 C   0  0  0  0  0  2  0  0  0  0  0  0
  186.7450  177.0930  136.9530 C   0  0  0  0  0  3  0  0  0  0  0  0
  191.7210  177.6890  141.0600 C   0  0  2  0  0  3  0  0  0  0  0  0
  193.0090  177.2630  140.7220 O   0  0  0  0  0  1  0  0  0  0  0  0
  191.2430  176.9510  142.2190 N   0  0  0  0  0  2  0  0  0  0  0  0
  191.4050  177.4140  143.5600 C   0  0  0  0  0  0  0  0  0  0  0  0
  191.9520  178.5250  143.7940 O   0  0  0  0  0  0  0  0  0  0  0  0
  190.9470  176.5610  144.6950 C   0  0  0  0  0  2  0  0  0  0  0  0
  189.7910  177.2250  145.4470 C   0  0  1  0  0  0  0  0  0  0  0  0
  191.5290  177.0760  147.6610 S   0  0  0  0  0  1  0  0  0  0  0  0
  189.1680  176.3440  146.5040 C   0  0  0  0  0  2  0  0  0  0  0  0
  189.9420  177.5870  146.9220 C   0  0  2  0  0  3  0  0  0  0  0  0
  188.7770  178.0720  144.6830 C   0  0  0  0  0  2  0  0  0  0  0  0
  187.7050  177.2340  144.0600 C   0  0  0  0  0  0  0  0  0  0  0  0
  188.0010  176.3400  143.2810 O   0  0  0  0  0  0  0  0  0  0  0  0
  186.2720  177.5200  144.3810 C   0  0  0  0  0  3  0  0  0  0  0  0
  184.1380  178.5370  143.5510 C   0  0  0  0  0  2  0  0  0  0  0  0
  184.6940  178.6130  145.9910 C   0  0  0  0  0  2  0  0  0  0  0  0
  184.0340  179.3580  144.8330 C   0  0  0  0  0  2  0  0  0  0  0  0
  186.1590  178.3320  145.6710 C   0  0  0  0  0  2  0  0  0  0  0  0
  185.6010  178.2560  143.2220 C   0  0  0  0  0  2  0  0  0  0  0  0
  190.4170  174.9930  137.1250 N   0  0  0  0  0  2  0  0  0  0  0  0
  193.8480  173.7250  136.3230 C   0  0  0  0  0  3  0  0  0  0  0  0
  194.3610  174.7980  135.5740 C   0  0  0  0  0  0  0  0  0  0  0  0
  192.2590  175.9760  135.8570 C   0  0  0  0  0  3  0  0  0  0  0  0
  192.5480  173.7790  136.8300 C   0  0  0  0  0  3  0  0  0  0  0  0
  191.7420  174.9020  136.5880 C   0  0  0  0  0  0  0  0  0  0  0  0
  193.5590  175.9220  135.3500 C   0  0  0  0  0  3  0  0  0  0  0  0
  195.6560  174.7730  135.0510 O   0  0  0  0  0  0  0  0  0  0  0  0
  196.7090  175.5740  135.5690 C   0  0  0  0  0  1  0  0  0  0  0  0
  185.0920  178.5750  137.8980 O   0  0  0  0  0  0  0  0  0  0  0  0
  184.3640  179.0650  138.9920 C   0  0  0  0  0  0  0  0  0  0  0  0
  184.3140  180.3090  139.1780 O   0  0  0  0  0  0  0  0  0  0  0  0
  183.7150  178.1830  139.9760 C   0  0  0  0  0  3  0  0  0  0  0  0
  183.0720  177.0760  139.6290 C   0  0  0  0  0  2  0  0  0  0  0  0
  1  8  1  0  0  0  0
  1  6  1  0  0  0  0
  2  5  1  0  0  0  0
  2 11  1  1  0  0  0
  3  4  1  0  0  0  0
  4  6  2  0  0  0  0
  6  5  1  0  0  0  0
  7  1  2  0  0  0  0
  8  9  1  0  0  0  0
  9  2  1  0  0  0  0
 10  7  1  0  0  0  0
 10  3  2  0  0  0  0
 11 12  1  6  0  0  0
 11 13  1  0  0  0  0
 13 14  1  0  0  0  0
 14 15  2  0  0  0  0
 14 16  1  0  0  0  0
 16 17  1  0  0  0  0
 17 21  1  6  0  0  0
 17 19  1  0  0  0  0
 17 20  1  0  0  0  0
 19 20  1  0  0  0  0
 20 18  1  1  0  0  0
 22 24  1  0  0  0  0
 22 21  1  0  0  0  0
 23 22  2  0  0  0  0
 24 28  1  0  0  0  0
 25 27  1  0  0  0  0
 27 26  1  0  0  0  0
 28 26  1  0  0  0  0
 29 25  1  0  0  0  0
 29 24  1  0  0  0  0
 30  8  1  0  0  0  0
 31 34  1  0  0  0  0
 32 31  2  0  0  0  0
 33 35  1  0  0  0  0
 35 34  2  0  0  0  0
 35 30  1  0  0  0  0
 36 32  1  0  0  0  0
 36 33  2  0  0  0  0
 37 38  1  0  0  0  0
 37 32  1  0  0  0  0
 39  3  1  0  0  0  0
 39 40  1  0  0  0  0
 40 41  2  0  0  0  0
 40 42  1  0  0  0  0
 43 42  2  0  0  0  0
M  END
>  <MODEL>
3

>  <REMARK>
 VINA RESULT:      -8.0      2.808      6.070
  Name = 
  13 active torsions:
  status: ('A' for Active; 'I' for Inactive)
    1  A    between atoms: N_1  and  N_34
    2  A    between atoms: N_1  and  C_35
    3  A    between atoms: C_2  and  N_6
    4  A    between atoms: C_2  and  C_13
    5  A    between atoms: C_3  and  C_4
    6  A    between atoms: C_3  and  C_12
    7  A    between atoms: C_4  and  C_22
    8  A    between atoms: C_5  and  C_18
    9  A    between atoms: C_5  and  O_23
   10  A    between atoms: C_11  and  C_14
   11  A    between atoms: C_14  and  C_22
   12  A    between atoms: C_16  and  O_23
   13  A    between atoms: C_19  and  O_25
                            x       y       z     vdW  Elec       q    Type
                         _______ _______ _______ _____ _____    ______ ____

>  <TORSDO>
F 13

$$$$
=
 OpenBabel10262422263D

 43 47  0  0  1  0  0  0  0  0999 V2000
  186.6700  178.1790  142.4700 C   0  0  0  0  0  0  0  0  0  0  0  0
  189.1150  177.6770  141.1320 C   0  0  2  0  0  3  0  0  0  0  0  0
  186.5310  177.7390  145.2190 C   0  0  0  0  0  0  0  0  0  0  0  0
  187.5570  177.1500  144.4700 C   0  0  0  0  0  3  0  0  0  0  0  0
  188.7470  176.7660  142.3030 C   0  0  0  0  0  2  0  0  0  0  0  0
  187.6430  177.3840  143.0980 C   0  0  0  0  0  0  0  0  0  0  0  0
  185.6850  178.7470  143.2210 N   0  0  0  0  0  0  0  0  0  0  0  0
  186.7610  178.4440  141.0530 N   0  0  0  0  0  0  0  0  0  0  0  0
  187.8870  177.9390  140.2600 C   0  0  0  0  0  2  0  0  0  0  0  0
  185.5940  178.5400  144.5620 C   0  0  0  0  0  3  0  0  0  0  0  0
  190.2570  177.0990  140.3010 C   0  0  2  0  0  3  0  0  0  0  0  0
  191.4530  177.7730  140.5650 O   0  0  0  0  0  1  0  0  0  0  0  0
  189.9330  177.2020  138.8860 N   0  0  0  0  0  2  0  0  0  0  0  0
  190.1270  176.1310  137.9620 C   0  0  0  0  0  0  0  0  0  0  0  0
  190.5670  175.0170  138.3520 O   0  0  0  0  0  0  0  0  0  0  0  0
  189.8330  176.3440  136.5150 C   0  0  0  0  0  2  0  0  0  0  0  0
  188.4590  175.7800  136.1470 C   0  0  1  0  0  0  0  0  0  0  0  0
  187.6560  178.4810  136.2100 S   0  0  0  0  0  1  0  0  0  0  0  0
  187.4180  175.9600  137.2280 C   0  0  0  0  0  2  0  0  0  0  0  0
  187.2800  176.7210  135.9160 C   0  0  2  0  0  3  0  0  0  0  0  0
  188.3580  174.4410  135.4200 C   0  0  0  0  0  2  0  0  0  0  0  0
  187.7600  173.3780  136.2880 C   0  0  0  0  0  0  0  0  0  0  0  0
  188.4480  172.8110  137.1240 O   0  0  0  0  0  0  0  0  0  0  0  0
  186.3240  173.0000  136.1010 C   0  0  0  0  0  3  0  0  0  0  0  0
  184.1570  172.5090  137.2550 C   0  0  0  0  0  2  0  0  0  0  0  0
  184.7400  171.3190  135.1300 C   0  0  0  0  0  2  0  0  0  0  0  0
  184.0480  171.1950  136.4860 C   0  0  0  0  0  2  0  0  0  0  0  0
  186.2080  171.6910  135.3200 C   0  0  0  0  0  2  0  0  0  0  0  0
  185.6220  172.8840  137.4530 C   0  0  0  0  0  2  0  0  0  0  0  0
  185.7770  179.1890  140.3820 N   0  0  0  0  0  2  0  0  0  0  0  0
  183.4610  177.8340  137.7690 C   0  0  0  0  0  3  0  0  0  0  0  0
  182.3310  177.5310  138.5460 C   0  0  0  0  0  0  0  0  0  0  0  0
  183.4990  178.3200  140.5210 C   0  0  0  0  0  3  0  0  0  0  0  0
  184.6020  178.3740  138.3680 C   0  0  0  0  0  3  0  0  0  0  0  0
  184.6300  178.6080  139.7510 C   0  0  0  0  0  0  0  0  0  0  0  0
  182.3570  177.7800  139.9220 C   0  0  0  0  0  3  0  0  0  0  0  0
  181.1760  176.9870  137.9780 O   0  0  0  0  0  0  0  0  0  0  0  0
  180.0370  176.6280  138.7480 C   0  0  0  0  0  1  0  0  0  0  0  0
  186.3970  177.5220  146.5970 O   0  0  0  0  0  0  0  0  0  0  0  0
  186.7360  178.4520  147.5900 C   0  0  0  0  0  0  0  0  0  0  0  0
  186.0410  179.4940  147.7080 O   0  0  0  0  0  0  0  0  0  0  0  0
  187.9160  178.2970  148.4570 C   0  0  0  0  0  3  0  0  0  0  0  0
  189.1050  177.9370  147.9900 C   0  0  0  0  0  2  0  0  0  0  0  0
  1  6  2  0  0  0  0
  1  7  1  0  0  0  0
  2 11  1  6  0  0  0
  2  5  1  0  0  0  0
  3 39  1  0  0  0  0
  4  3  2  0  0  0  0
  5  6  1  0  0  0  0
  6  4  1  0  0  0  0
  7 10  2  0  0  0  0
  8  1  1  0  0  0  0
  9  8  1  0  0  0  0
  9  2  1  0  0  0  0
 10  3  1  0  0  0  0
 11 12  1  6  0  0  0
 13 11  1  0  0  0  0
 14 15  2  0  0  0  0
 14 13  1  0  0  0  0
 16 14  1  0  0  0  0
 17 21  1  6  0  0  0
 17 16  1  0  0  0  0
 17 19  1  0  0  0  0
 20 17  1  0  0  0  0
 20 18  1  1  0  0  0
 20 19  1  0  0  0  0
 21 22  1  0  0  0  0
 22 23  2  0  0  0  0
 24 22  1  0  0  0  0
 24 29  1  0  0  0  0
 25 29  1  0  0  0  0
 26 28  1  0  0  0  0
 26 27  1  0  0  0  0
 27 25  1  0  0  0  0
 28 24  1  0  0  0  0
 30  8  1  0  0  0  0
 31 34  2  0  0  0  0
 31 32  1  0  0  0  0
 32 36  2  0  0  0  0
 34 35  1  0  0  0  0
 35 30  1  0  0  0  0
 35 33  2  0  0  0  0
 36 33  1  0  0  0  0
 37 32  1  0  0  0  0
 37 38  1  0  0  0  0
 39 40  1  0  0  0  0
 40 41  2  0  0  0  0
 40 42  1  0  0  0  0
 43 42  2  0  0  0  0
M  END
>  <MODEL>
4

>  <REMARK>
 VINA RESULT:      -7.5      3.456      7.674
  Name = 
  13 active torsions:
  status: ('A' for Active; 'I' for Inactive)
    1  A    between atoms: N_1  and  N_34
    2  A    between atoms: N_1  and  C_35
    3  A    between atoms: C_2  and  N_6
    4  A    between atoms: C_2  and  C_13
    5  A    between atoms: C_3  and  C_4
    6  A    between atoms: C_3  and  C_12
    7  A    between atoms: C_4  and  C_22
    8  A    between atoms: C_5  and  C_18
    9  A    between atoms: C_5  and  O_23
   10  A    between atoms: C_11  and  C_14
   11  A    between atoms: C_14  and  C_22
   12  A    between atoms: C_16  and  O_23
   13  A    between atoms: C_19  and  O_25
                            x       y       z     vdW  Elec       q    Type
                         _______ _______ _______ _____ _____    ______ ____

>  <TORSDO>
F 13

$$$$
=
 OpenBabel10262422263D

 43 47  0  0  1  0  0  0  0  0999 V2000
  186.9210  178.1670  142.4730 C   0  0  0  0  0  0  0  0  0  0  0  0
  188.6690  178.5050  140.2700 C   0  0  2  0  0  3  0  0  0  0  0  0
  187.9610  177.2110  144.8750 C   0  0  0  0  0  0  0  0  0  0  0  0
  188.6750  177.0260  143.6840 C   0  0  0  0  0  3  0  0  0  0  0  0
  188.9370  177.3340  141.2150 C   0  0  0  0  0  2  0  0  0  0  0  0
  188.1680  177.5200  142.4830 C   0  0  0  0  0  0  0  0  0  0  0  0
  186.2490  178.3410  143.6450 N   0  0  0  0  0  0  0  0  0  0  0  0
  186.3970  178.7010  141.2370 N   0  0  0  0  0  0  0  0  0  0  0  0
  187.1700  178.6280  139.9930 C   0  0  0  0  0  2  0  0  0  0  0  0
  186.7340  177.8760  144.8270 C   0  0  0  0  0  3  0  0  0  0  0  0
  189.4520  178.3730  138.9670 C   0  0  2  0  0  3  0  0  0  0  0  0
  188.8260  179.0820  137.9370 O   0  0  0  0  0  1  0  0  0  0  0  0
  189.5650  176.9690  138.6040 N   0  0  0  0  0  2  0  0  0  0  0  0
  190.8020  176.3540  138.2420 C   0  0  0  0  0  0  0  0  0  0  0  0
  191.8750  177.0120  138.2560 O   0  0  0  0  0  0  0  0  0  0  0  0
  190.8170  174.9240  137.8160 C   0  0  0  0  0  2  0  0  0  0  0  0
  190.6440  174.8020  136.3000 C   0  0  1  0  0  0  0  0  0  0  0  0
  192.8800  173.0960  136.4730 S   0  0  0  0  0  1  0  0  0  0  0  0
  191.7830  175.4010  135.5080 C   0  0  0  0  0  2  0  0  0  0  0  0
  191.5660  173.8930  135.4920 C   0  0  2  0  0  3  0  0  0  0  0  0
  189.2730  175.0400  135.6720 C   0  0  0  0  0  2  0  0  0  0  0  0
  188.1810  174.3580  136.4360 C   0  0  0  0  0  0  0  0  0  0  0  0
  188.2210  173.1500  136.6150 O   0  0  0  0  0  0  0  0  0  0  0  0
  187.0340  175.1670  136.9530 C   0  0  0  0  0  3  0  0  0  0  0  0
  184.5470  175.2650  137.2400 C   0  0  0  0  0  2  0  0  0  0  0  0
  185.8440  177.3690  136.8440 C   0  0  0  0  0  2  0  0  0  0  0  0
  184.5280  176.6410  136.5820 C   0  0  0  0  0  2  0  0  0  0  0  0
  187.0150  176.5520  136.3060 C   0  0  0  0  0  2  0  0  0  0  0  0
  185.7130  174.4400  136.7030 C   0  0  0  0  0  2  0  0  0  0  0  0
  185.1290  179.3050  141.1790 N   0  0  0  0  0  2  0  0  0  0  0  0
  182.5290  179.0990  138.4920 C   0  0  0  0  0  3  0  0  0  0  0  0
  181.9010  177.8870  138.8220 C   0  0  0  0  0  0  0  0  0  0  0  0
  183.4200  177.6300  140.6960 C   0  0  0  0  0  3  0  0  0  0  0  0
  183.5980  179.5690  139.2600 C   0  0  0  0  0  3  0  0  0  0  0  0
  184.0560  178.8280  140.3590 C   0  0  0  0  0  0  0  0  0  0  0  0
  182.3510  177.1600  139.9290 C   0  0  0  0  0  3  0  0  0  0  0  0
  180.8320  177.3880  138.0720 O   0  0  0  0  0  0  0  0  0  0  0  0
  180.9940  176.3930  137.0710 C   0  0  0  0  0  1  0  0  0  0  0  0
  188.4240  176.7190  146.1030 O   0  0  0  0  0  0  0  0  0  0  0  0
  189.4360  177.3120  146.8730 C   0  0  0  0  0  0  0  0  0  0  0  0
  190.6360  177.1260  146.5430 O   0  0  0  0  0  0  0  0  0  0  0  0
  189.1570  178.0860  148.0930 C   0  0  0  0  0  3  0  0  0  0  0  0
  187.9320  178.2420  148.5780 C   0  0  0  0  0  2  0  0  0  0  0  0
  1  6  2  0  0  0  0
  1  7  1  0  0  0  0
  2 11  1  6  0  0  0
  2  5  1  0  0  0  0
  3 39  1  0  0  0  0
  4  3  2  0  0  0  0
  5  6  1  0  0  0  0
  6  4  1  0  0  0  0
  7 10  2  0  0  0  0
  8  1  1  0  0  0  0
  9  2  1  0  0  0  0
  9  8  1  0  0  0  0
 10  3  1  0  0  0  0
 11 12  1  6  0  0  0
 13 11  1  0  0  0  0
 14 15  2  0  0  0  0
 14 13  1  0  0  0  0
 16 14  1  0  0  0  0
 17 21  1  6  0  0  0
 17 16  1  0  0  0  0
 19 17  1  0  0  0  0
 20 19  1  0  0  0  0
 20 17  1  0  0  0  0
 20 18  1  1  0  0  0
 21 22  1  0  0  0  0
 22 23  2  0  0  0  0
 22 24  1  0  0  0  0
 27 26  1  0  0  0  0
 27 25  1  0  0  0  0
 28 26  1  0  0  0  0
 28 24  1  0  0  0  0
 29 24  1  0  0  0  0
 29 25  1  0  0  0  0
 30  8  1  0  0  0  0
 31 32  2  0  0  0  0
 31 34  1  0  0  0  0
 32 36  1  0  0  0  0
 34 35  2  0  0  0  0
 35 33  1  0  0  0  0
 35 30  1  0  0  0  0
 36 33  2  0  0  0  0
 37 32  1  0  0  0  0
 38 37  1  0  0  0  0
 39 40  1  0  0  0  0
 40 42  1  0  0  0  0
 41 40  2  0  0  0  0
 42 43  2  0  0  0  0
M  END
>  <MODEL>
5

>  <REMARK>
 VINA RESULT:      -7.4      3.047      7.761
  Name = 
  13 active torsions:
  status: ('A' for Active; 'I' for Inactive)
    1  A    between atoms: N_1  and  N_34
    2  A    between atoms: N_1  and  C_35
    3  A    between atoms: C_2  and  N_6
    4  A    between atoms: C_2  and  C_13
    5  A    between atoms: C_3  and  C_4
    6  A    between atoms: C_3  and  C_12
    7  A    between atoms: C_4  and  C_22
    8  A    between atoms: C_5  and  C_18
    9  A    between atoms: C_5  and  O_23
   10  A    between atoms: C_11  and  C_14
   11  A    between atoms: C_14  and  C_22
   12  A    between atoms: C_16  and  O_23
   13  A    between atoms: C_19  and  O_25
                            x       y       z     vdW  Elec       q    Type
                         _______ _______ _______ _____ _____    ______ ____

>  <TORSDO>
F 13

$$$$
=
 OpenBabel10262422263D

 43 47  0  0  1  0  0  0  0  0999 V2000
  189.7660  177.1930  139.4080 C   0  0  0  0  0  0  0  0  0  0  0  0
  187.3020  177.6560  138.0900 C   0  0  2  0  0  3  0  0  0  0  0  0
  191.7280  175.7070  138.1000 C   0  0  0  0  0  0  0  0  0  0  0  0
  190.3960  175.6310  137.6730 C   0  0  0  0  0  3  0  0  0  0  0  0
  187.9960  176.3160  137.8460 C   0  0  0  0  0  2  0  0  0  0  0  0
  189.4140  176.3880  138.3110 C   0  0  0  0  0  0  0  0  0  0  0  0
  191.0690  177.2550  139.8000 N   0  0  0  0  0  0  0  0  0  0  0  0
  188.7600  177.9960  140.0640 N   0  0  0  0  0  0  0  0  0  0  0  0
  187.3800  178.0300  139.5700 C   0  0  0  0  0  2  0  0  0  0  0  0
  192.0410  176.5340  139.1810 C   0  0  0  0  0  3  0  0  0  0  0  0
  185.8540  177.6410  137.6080 C   0  0  2  0  0  3  0  0  0  0  0  0
  185.7860  177.8760  136.2320 O   0  0  0  0  0  1  0  0  0  0  0  0
  185.0910  178.6550  138.3220 N   0  0  0  0  0  2  0  0  0  0  0  0
  183.6640  178.6820  138.3480 C   0  0  0  0  0  0  0  0  0  0  0  0
  182.9940  177.7870  137.7680 O   0  0  0  0  0  0  0  0  0  0  0  0
  182.9600  179.7970  139.0460 C   0  0  0  0  0  2  0  0  0  0  0  0
  181.6280  179.3220  139.6310 C   0  0  1  0  0  0  0  0  0  0  0  0
  180.5340  180.4260  137.2800 S   0  0  0  0  0  1  0  0  0  0  0  0
  180.6920  180.4490  140.0040 C   0  0  0  0  0  2  0  0  0  0  0  0
  180.3320  179.5220  138.8500 C   0  0  2  0  0  3  0  0  0  0  0  0
  181.6050  178.1580  140.6180 C   0  0  0  0  0  2  0  0  0  0  0  0
  181.5400  178.6290  142.0370 C   0  0  0  0  0  0  0  0  0  0  0  0
  180.4600  178.7360  142.5990 O   0  0  0  0  0  0  0  0  0  0  0  0
  182.8060  178.9900  142.7470 C   0  0  0  0  0  3  0  0  0  0  0  0
  185.2850  178.6420  142.8440 C   0  0  0  0  0  2  0  0  0  0  0  0
  183.9950  179.0430  144.9520 C   0  0  0  0  0  2  0  0  0  0  0  0
  185.1770  178.3040  144.3280 C   0  0  0  0  0  2  0  0  0  0  0  0
  182.7010  178.6650  144.2380 C   0  0  0  0  0  2  0  0  0  0  0  0
  183.9960  178.2630  142.1220 C   0  0  0  0  0  2  0  0  0  0  0  0
  189.0640  178.7710  141.1960 N   0  0  0  0  0  2  0  0  0  0  0  0
  188.6130  176.7540  144.3190 C   0  0  0  0  0  3  0  0  0  0  0  0
  189.6810  177.2270  145.0980 C   0  0  0  0  0  0  0  0  0  0  0  0
  190.3260  178.7040  143.2850 C   0  0  0  0  0  3  0  0  0  0  0  0
  188.4080  177.2520  143.0290 C   0  0  0  0  0  3  0  0  0  0  0  0
  189.2730  178.2220  142.5030 C   0  0  0  0  0  0  0  0  0  0  0  0
  190.5320  178.2060  144.5740 C   0  0  0  0  0  3  0  0  0  0  0  0
  189.9150  176.7460  146.3890 O   0  0  0  0  0  0  0  0  0  0  0  0
  188.9990  176.9410  147.4590 C   0  0  0  0  0  1  0  0  0  0  0  0
  192.7450  174.9550  137.4980 O   0  0  0  0  0  0  0  0  0  0  0  0
  194.0750  175.3770  137.3550 C   0  0  0  0  0  0  0  0  0  0  0  0
  194.3050  176.4650  136.7660 O   0  0  0  0  0  0  0  0  0  0  0  0
  195.2200  174.5660  137.8000 C   0  0  0  0  0  3  0  0  0  0  0  0
  195.4730  174.3280  139.0810 C   0  0  0  0  0  2  0  0  0  0  0  0
  1  7  1  0  0  0  0
  1  8  1  0  0  0  0
  2 11  1  1  0  0  0
  2  9  1  0  0  0  0
  3 10  1  0  0  0  0
  4  3  2  0  0  0  0
  4  6  1  0  0  0  0
  5  2  1  0  0  0  0
  5  6  1  0  0  0  0
  6  1  2  0  0  0  0
  8 30  1  0  0  0  0
  9  8  1  0  0  0  0
 10  7  2  0  0  0  0
 11 12  1  6  0  0  0
 11 13  1  0  0  0  0
 13 14  1  0  0  0  0
 14 16  1  0  0  0  0
 15 14  2  0  0  0  0
 17 16  1  6  0  0  0
 17 19  1  0  0  0  0
 17 21  1  0  0  0  0
 20 18  1  6  0  0  0
 20 17  1  0  0  0  0
 20 19  1  0  0  0  0
 21 22  1  0  0  0  0
 22 23  2  0  0  0  0
 22 24  1  0  0  0  0
 24 28  1  0  0  0  0
 25 27  1  0  0  0  0
 27 26  1  0  0  0  0
 28 26  1  0  0  0  0
 29 24  1  0  0  0  0
 29 25  1  0  0  0  0
 30 35  1  0  0  0  0
 31 32  1  0  0  0  0
 32 37  1  0  0  0  0
 33 36  1  0  0  0  0
 34 31  2  0  0  0  0
 35 34  1  0  0  0  0
 35 33  2  0  0  0  0
 36 32  2  0  0  0  0
 37 38  1  0  0  0  0
 39  3  1  0  0  0  0
 40 39  1  0  0  0  0
 40 42  1  0  0  0  0
 41 40  2  0  0  0  0
 42 43  2  0  0  0  0
M  END
>  <MODEL>
6

>  <REMARK>
 VINA RESULT:      -7.4      1.925      5.932
  Name = 
  13 active torsions:
  status: ('A' for Active; 'I' for Inactive)
    1  A    between atoms: N_1  and  N_34
    2  A    between atoms: N_1  and  C_35
    3  A    between atoms: C_2  and  N_6
    4  A    between atoms: C_2  and  C_13
    5  A    between atoms: C_3  and  C_4
    6  A    between atoms: C_3  and  C_12
    7  A    between atoms: C_4  and  C_22
    8  A    between atoms: C_5  and  C_18
    9  A    between atoms: C_5  and  O_23
   10  A    between atoms: C_11  and  C_14
   11  A    between atoms: C_14  and  C_22
   12  A    between atoms: C_16  and  O_23
   13  A    between atoms: C_19  and  O_25
                            x       y       z     vdW  Elec       q    Type
                         _______ _______ _______ _____ _____    ______ ____

>  <TORSDO>
F 13

$$$$
=
 OpenBabel10262422263D

 43 47  0  0  1  0  0  0  0  0999 V2000
  189.6140  176.5480  139.2400 C   0  0  0  0  0  0  0  0  0  0  0  0
  187.1970  176.8720  137.7990 C   0  0  2  0  0  3  0  0  0  0  0  0
  189.7600  177.5160  141.8490 C   0  0  0  0  0  0  0  0  0  0  0  0
  188.7610  177.9860  140.9860 C   0  0  0  0  0  3  0  0  0  0  0  0
  187.5970  177.9810  138.7720 C   0  0  0  0  0  2  0  0  0  0  0  0
  188.6720  177.4890  139.6870 C   0  0  0  0  0  0  0  0  0  0  0  0
  190.5720  176.1020  140.0990 N   0  0  0  0  0  0  0  0  0  0  0  0
  189.5180  176.0120  137.9010 N   0  0  0  0  0  0  0  0  0  0  0  0
  188.4160  176.3940  137.0120 C   0  0  0  0  0  2  0  0  0  0  0  0
  190.6660  176.5660  141.3740 C   0  0  0  0  0  3  0  0  0  0  0  0
  186.0820  177.3180  136.8570 C   0  0  2  0  0  3  0  0  0  0  0  0
  186.6000  178.0650  135.7950 O   0  0  0  0  0  1  0  0  0  0  0  0
  185.1090  178.1110  137.5920 N   0  0  0  0  0  2  0  0  0  0  0  0
  183.7080  177.8310  137.5830 C   0  0  0  0  0  0  0  0  0  0  0  0
  183.2550  176.8410  136.9490 O   0  0  0  0  0  0  0  0  0  0  0  0
  182.7710  178.7370  138.3090 C   0  0  0  0  0  2  0  0  0  0  0  0
  182.4490  178.1890  139.7010 C   0  0  1  0  0  0  0  0  0  0  0  0
  179.8140  178.0350  138.7140 S   0  0  0  0  0  1  0  0  0  0  0  0
  181.5610  179.0970  140.5210 C   0  0  0  0  0  2  0  0  0  0  0  0
  181.0280  177.7520  140.0450 C   0  0  2  0  0  3  0  0  0  0  0  0
  183.5410  177.5050  140.5180 C   0  0  0  0  0  2  0  0  0  0  0  0
  184.2730  178.4720  141.3950 C   0  0  0  0  0  0  0  0  0  0  0  0
  184.8500  179.4310  140.9030 O   0  0  0  0  0  0  0  0  0  0  0  0
  184.3120  178.2370  142.8730 C   0  0  0  0  0  3  0  0  0  0  0  0
  183.4560  178.9940  145.1020 C   0  0  0  0  0  2  0  0  0  0  0  0
  185.7750  178.0700  144.9000 C   0  0  0  0  0  2  0  0  0  0  0  0
  184.8900  179.0870  145.6170 C   0  0  0  0  0  2  0  0  0  0  0  0
  185.7470  178.3170  143.3940 C   0  0  0  0  0  2  0  0  0  0  0  0
  183.4200  179.2440  143.5970 C   0  0  0  0  0  2  0  0  0  0  0  0
  190.4730  175.1110  137.4030 N   0  0  0  0  0  2  0  0  0  0  0  0
  192.7770  176.1120  134.6250 C   0  0  0  0  0  3  0  0  0  0  0  0
  193.9940  176.2260  135.3160 C   0  0  0  0  0  0  0  0  0  0  0  0
  192.8640  175.6080  137.3720 C   0  0  0  0  0  3  0  0  0  0  0  0
  191.6110  175.7520  135.3070 C   0  0  0  0  0  3  0  0  0  0  0  0
  191.6490  175.5110  136.6880 C   0  0  0  0  0  0  0  0  0  0  0  0
  194.0290  175.9680  136.6900 C   0  0  0  0  0  3  0  0  0  0  0  0
  195.1760  176.5860  134.6640 O   0  0  0  0  0  0  0  0  0  0  0  0
  196.4100  176.7580  135.3480 C   0  0  0  0  0  1  0  0  0  0  0  0
  189.8970  177.9960  143.1580 O   0  0  0  0  0  0  0  0  0  0  0  0
  189.5320  177.2880  144.3130 C   0  0  0  0  0  0  0  0  0  0  0  0
  188.4420  176.6590  144.3180 O   0  0  0  0  0  0  0  0  0  0  0  0
  190.3340  177.3080  145.5470 C   0  0  0  0  0  3  0  0  0  0  0  0
  189.7910  177.4280  146.7510 C   0  0  0  0  0  2  0  0  0  0  0  0
  1  6  2  0  0  0  0
  1  7  1  0  0  0  0
  2 11  1  6  0  0  0
  2  5  1  0  0  0  0
  3 39  1  0  0  0  0
  4  3  2  0  0  0  0
  5  6  1  0  0  0  0
  6  4  1  0  0  0  0
  7 10  2  0  0  0  0
  8  1  1  0  0  0  0
  9  2  1  0  0  0  0
  9  8  1  0  0  0  0
 10  3  1  0  0  0  0
 11 12  1  6  0  0  0
 11 13  1  0  0  0  0
 14 13  1  0  0  0  0
 14 16  1  0  0  0  0
 15 14  2  0  0  0  0
 17 16  1  6  0  0  0
 17 20  1  0  0  0  0
 17 21  1  0  0  0  0
 17 19  1  0  0  0  0
 20 18  1  6  0  0  0
 20 19  1  0  0  0  0
 21 22  1  0  0  0  0
 22 24  1  0  0  0  0
 23 22  2  0  0  0  0
 24 28  1  0  0  0  0
 24 29  1  0  0  0  0
 25 27  1  0  0  0  0
 26 27  1  0  0  0  0
 28 26  1  0  0  0  0
 29 25  1  0  0  0  0
 30  8  1  0  0  0  0
 31 34  2  0  0  0  0
 31 32  1  0  0  0  0
 32 36  2  0  0  0  0
 34 35  1  0  0  0  0
 35 33  2  0  0  0  0
 35 30  1  0  0  0  0
 36 33  1  0  0  0  0
 37 32  1  0  0  0  0
 37 38  1  0  0  0  0
 39 40  1  0  0  0  0
 40 41  2  0  0  0  0
 40 42  1  0  0  0  0
 42 43  2  0  0  0  0
M  END
>  <MODEL>
7

>  <REMARK>
 VINA RESULT:      -7.4      1.564      1.943
  Name = 
  13 active torsions:
  status: ('A' for Active; 'I' for Inactive)
    1  A    between atoms: N_1  and  N_34
    2  A    between atoms: N_1  and  C_35
    3  A    between atoms: C_2  and  N_6
    4  A    between atoms: C_2  and  C_13
    5  A    between atoms: C_3  and  C_4
    6  A    between atoms: C_3  and  C_12
    7  A    between atoms: C_4  and  C_22
    8  A    between atoms: C_5  and  C_18
    9  A    between atoms: C_5  and  O_23
   10  A    between atoms: C_11  and  C_14
   11  A    between atoms: C_14  and  C_22
   12  A    between atoms: C_16  and  O_23
   13  A    between atoms: C_19  and  O_25
                            x       y       z     vdW  Elec       q    Type
                         _______ _______ _______ _____ _____    ______ ____

>  <TORSDO>
F 13

$$$$
=
 OpenBabel10262422263D

 43 47  0  0  1  0  0  0  0  0999 V2000
  189.7430  177.3190  137.8340 C   0  0  0  0  0  0  0  0  0  0  0  0
  189.5340  177.1880  140.6550 C   0  0  2  0  0  3  0  0  0  0  0  0
  191.6560  175.7450  136.5560 C   0  0  0  0  0  0  0  0  0  0  0  0
  191.7730  176.0090  137.9270 C   0  0  0  0  0  3  0  0  0  0  0  0
  190.9270  177.0480  140.0390 C   0  0  0  0  0  2  0  0  0  0  0  0
  190.8080  176.7790  138.5740 C   0  0  0  0  0  0  0  0  0  0  0  0
  189.6470  177.0430  136.5030 N   0  0  0  0  0  0  0  0  0  0  0  0
  188.7260  178.1010  138.4990 N   0  0  0  0  0  0  0  0  0  0  0  0
  188.7550  178.2990  139.9510 C   0  0  0  0  0  2  0  0  0  0  0  0
  190.5730  176.2840  135.8580 C   0  0  0  0  0  3  0  0  0  0  0  0
  189.6020  177.4410  142.1590 C   0  0  2  0  0  3  0  0  0  0  0  0
  190.5830  176.6420  142.7530 O   0  0  0  0  0  1  0  0  0  0  0  0
  188.3060  177.1640  142.7600 N   0  0  0  0  0  2  0  0  0  0  0  0
  187.9290  177.6370  144.0530 C   0  0  0  0  0  0  0  0  0  0  0  0
  188.7110  178.3600  144.7260 O   0  0  0  0  0  0  0  0  0  0  0  0
  186.6070  177.2480  144.6240 C   0  0  0  0  0  2  0  0  0  0  0  0
  185.8990  178.4580  145.2390 C   0  0  1  0  0  0  0  0  0  0  0  0
  187.3150  177.7350  147.5670 S   0  0  0  0  0  1  0  0  0  0  0  0
  184.9120  178.0970  146.3250 C   0  0  0  0  0  2  0  0  0  0  0  0
  186.1810  178.8580  146.6850 C   0  0  2  0  0  3  0  0  0  0  0  0
  185.4280  179.5990  144.3420 C   0  0  0  0  0  2  0  0  0  0  0  0
  184.9600  179.1050  143.0080 C   0  0  0  0  0  0  0  0  0  0  0  0
  185.7090  179.1460  142.0430 O   0  0  0  0  0  0  0  0  0  0  0  0
  183.5630  178.5890  142.8670 C   0  0  0  0  0  3  0  0  0  0  0  0
  181.6450  178.2400  141.2950 C   0  0  0  0  0  2  0  0  0  0  0  0
  181.2080  178.7450  143.7080 C   0  0  0  0  0  2  0  0  0  0  0  0
  180.7150  178.9470  142.2770 C   0  0  0  0  0  2  0  0  0  0  0  0
  182.6280  179.2840  143.8570 C   0  0  0  0  0  2  0  0  0  0  0  0
  183.0660  178.7770  141.4350 C   0  0  0  0  0  2  0  0  0  0  0  0
  187.6770  178.7010  137.7820 N   0  0  0  0  0  2  0  0  0  0  0  0
  184.9180  176.7000  136.2290 C   0  0  0  0  0  3  0  0  0  0  0  0
  183.8730  176.9400  137.1360 C   0  0  0  0  0  0  0  0  0  0  0  0
  185.3600  178.3310  138.4550 C   0  0  0  0  0  3  0  0  0  0  0  0
  186.1770  177.2710  136.4390 C   0  0  0  0  0  3  0  0  0  0  0  0
  186.4050  178.0800  137.5620 C   0  0  0  0  0  0  0  0  0  0  0  0
  184.1010  177.7600  138.2450 C   0  0  0  0  0  3  0  0  0  0  0  0
  182.6050  176.3810  136.9560 O   0  0  0  0  0  0  0  0  0  0  0  0
  181.5200  176.6380  137.8380 C   0  0  0  0  0  1  0  0  0  0  0  0
  192.6090  174.9890  135.8610 O   0  0  0  0  0  0  0  0  0  0  0  0
  193.1240  173.7580  136.2930 C   0  0  0  0  0  0  0  0  0  0  0  0
  192.3820  172.7420  136.2490 O   0  0  0  0  0  0  0  0  0  0  0  0
  194.4730  173.6160  136.8630 C   0  0  0  0  0  3  0  0  0  0  0  0
  194.7770  174.0170  138.0910 C   0  0  0  0  0  2  0  0  0  0  0  0
  1  8  1  0  0  0  0
  1  6  1  0  0  0  0
  2 11  1  1  0  0  0
  3  4  1  0  0  0  0
  4  6  2  0  0  0  0
  5  2  1  0  0  0  0
  6  5  1  0  0  0  0
  7  1  2  0  0  0  0
  8  9  1  0  0  0  0
  9  2  1  0  0  0  0
 10  7  1  0  0  0  0
 10  3  2  0  0  0  0
 11 12  1  1  0  0  0
 11 13  1  0  0  0  0
 13 14  1  0  0  0  0
 14 16  1  0  0  0  0
 14 15  2  0  0  0  0
 16 17  1  0  0  0  0
 17 21  1  6  0  0  0
 17 19  1  0  0  0  0
 17 20  1  0  0  0  0
 19 20  1  0  0  0  0
 20 18  1  1  0  0  0
 22 21  1  0  0  0  0
 23 22  2  0  0  0  0
 24 22  1  0  0  0  0
 24 28  1  0  0  0  0
 25 29  1  0  0  0  0
 25 27  1  0  0  0  0
 26 28  1  0  0  0  0
 27 26  1  0  0  0  0
 29 24  1  0  0  0  0
 30  8  1  0  0  0  0
 31 34  2  0  0  0  0
 31 32  1  0  0  0  0
 32 36  2  0  0  0  0
 34 35  1  0  0  0  0
 35 30  1  0  0  0  0
 35 33  2  0  0  0  0
 36 33  1  0  0  0  0
 37 32  1  0  0  0  0
 37 38  1  0  0  0  0
 39 40  1  0  0  0  0
 39  3  1  0  0  0  0
 40 42  1  0  0  0  0
 41 40  2  0  0  0  0
 42 43  2  0  0  0  0
M  END
>  <MODEL>
8

>  <REMARK>
 VINA RESULT:      -7.4      2.489      7.068
  Name = 
  13 active torsions:
  status: ('A' for Active; 'I' for Inactive)
    1  A    between atoms: N_1  and  N_34
    2  A    between atoms: N_1  and  C_35
    3  A    between atoms: C_2  and  N_6
    4  A    between atoms: C_2  and  C_13
    5  A    between atoms: C_3  and  C_4
    6  A    between atoms: C_3  and  C_12
    7  A    between atoms: C_4  and  C_22
    8  A    between atoms: C_5  and  C_18
    9  A    between atoms: C_5  and  O_23
   10  A    between atoms: C_11  and  C_14
   11  A    between atoms: C_14  and  C_22
   12  A    between atoms: C_16  and  O_23
   13  A    between atoms: C_19  and  O_25
                            x       y       z     vdW  Elec       q    Type
                         _______ _______ _______ _____ _____    ______ ____

>  <TORSDO>
F 13

$$$$
=
 OpenBabel10262422263D

 43 47  0  0  1  0  0  0  0  0999 V2000
  185.4110  178.3490  144.3090 C   0  0  0  0  0  0  0  0  0  0  0  0
  187.3230  177.5690  142.3710 C   0  0  2  0  0  3  0  0  0  0  0  0
  182.8440  179.0290  143.4630 C   0  0  0  0  0  0  0  0  0  0  0  0
  183.9020  179.0210  142.5440 C   0  0  0  0  0  3  0  0  0  0  0  0
  186.3070  178.6410  141.9750 C   0  0  0  0  0  2  0  0  0  0  0  0
  185.1830  178.6620  142.9590 C   0  0  0  0  0  0  0  0  0  0  0  0
  184.3650  178.3580  145.1820 N   0  0  0  0  0  0  0  0  0  0  0  0
  186.7310  177.9560  144.7450 N   0  0  0  0  0  0  0  0  0  0  0  0
  187.8350  177.8240  143.7880 C   0  0  0  0  0  2  0  0  0  0  0  0
  183.1060  178.6930  144.7920 C   0  0  0  0  0  3  0  0  0  0  0  0
  188.4820  177.4910  141.3810 C   0  0  2  0  0  3  0  0  0  0  0  0
  189.6130  178.1370  141.8890 O   0  0  0  0  0  1  0  0  0  0  0  0
  188.0880  178.1000  140.1190 N   0  0  0  0  0  2  0  0  0  0  0  0
  188.6110  177.6840  138.8570 C   0  0  0  0  0  0  0  0  0  0  0  0
  189.4270  176.7280  138.7820 O   0  0  0  0  0  0  0  0  0  0  0  0
  188.2060  178.4090  137.6170 C   0  0  0  0  0  2  0  0  0  0  0  0
  187.1760  177.6020  136.8230 C   0  0  1  0  0  0  0  0  0  0  0  0
  189.3140  177.1810  135.0350 S   0  0  0  0  0  1  0  0  0  0  0  0
  186.8270  178.2120  135.4840 C   0  0  0  0  0  2  0  0  0  0  0  0
  187.5840  176.8910  135.5360 C   0  0  2  0  0  3  0  0  0  0  0  0
  185.9800  176.9830  137.5410 C   0  0  0  0  0  2  0  0  0  0  0  0
  184.9320  178.0020  137.8630 C   0  0  0  0  0  0  0  0  0  0  0  0
  185.1840  178.9180  138.6330 O   0  0  0  0  0  0  0  0  0  0  0  0
  183.5710  177.8720  137.2550 C   0  0  0  0  0  3  0  0  0  0  0  0
  181.1360  178.3930  137.5240 C   0  0  0  0  0  2  0  0  0  0  0  0
  181.8450  176.2820  136.3780 C   0  0  0  0  0  2  0  0  0  0  0  0
  180.7990  176.9230  137.2870 C   0  0  0  0  0  2  0  0  0  0  0  0
  183.2310  176.4030  137.0040 C   0  0  0  0  0  2  0  0  0  0  0  0
  182.5200  178.5210  138.1540 C   0  0  0  0  0  2  0  0  0  0  0  0
  187.0070  177.6890  146.0960 N   0  0  0  0  0  2  0  0  0  0  0  0
  190.6220  176.7740  146.4390 C   0  0  0  0  0  3  0  0  0  0  0  0
  190.8930  177.2390  147.7360 C   0  0  0  0  0  0  0  0  0  0  0  0
  188.5970  177.9990  147.9240 C   0  0  0  0  0  3  0  0  0  0  0  0
  189.3460  176.9250  145.8890 C   0  0  0  0  0  3  0  0  0  0  0  0
  188.3300  177.5510  146.6270 C   0  0  0  0  0  0  0  0  0  0  0  0
  189.8720  177.8480  148.4740 C   0  0  0  0  0  3  0  0  0  0  0  0
  192.1590  177.1060  148.3130 O   0  0  0  0  0  0  0  0  0  0  0  0
  192.8060  175.8500  148.4630 C   0  0  0  0  0  1  0  0  0  0  0  0
  181.5430  179.3970  143.0950 O   0  0  0  0  0  0  0  0  0  0  0  0
  180.5390  178.5000  142.7010 C   0  0  0  0  0  0  0  0  0  0  0  0
  179.8730  177.9080  143.5890 O   0  0  0  0  0  0  0  0  0  0  0  0
  180.2780  178.1660  141.2910 C   0  0  0  0  0  3  0  0  0  0  0  0
  180.1350  176.9170  140.8670 C   0  0  0  0  0  2  0  0  0  0  0  0
  1  8  1  0  0  0  0
  1  7  1  0  0  0  0
  2 11  1  6  0  0  0
  2  9  1  0  0  0  0
  3 10  1  0  0  0  0
  4  6  1  0  0  0  0
  4  3  2  0  0  0  0
  5  2  1  0  0  0  0
  5  6  1  0  0  0  0
  6  1  2  0  0  0  0
  8 30  1  0  0  0  0
  9  8  1  0  0  0  0
 10  7  2  0  0  0  0
 11 12  1  1  0  0  0
 13 11  1  0  0  0  0
 14 13  1  0  0  0  0
 15 14  2  0  0  0  0
 16 14  1  0  0  0  0
 17 21  1  1  0  0  0
 17 16  1  0  0  0  0
 19 20  1  0  0  0  0
 19 17  1  0  0  0  0
 20 18  1  1  0  0  0
 20 17  1  0  0  0  0
 21 22  1  0  0  0  0
 22 23  2  0  0  0  0
 24 22  1  0  0  0  0
 24 29  1  0  0  0  0
 25 29  1  0  0  0  0
 26 28  1  0  0  0  0
 26 27  1  0  0  0  0
 27 25  1  0  0  0  0
 28 24  1  0  0  0  0
 30 35  1  0  0  0  0
 31 32  1  0  0  0  0
 32 37  1  0  0  0  0
 32 36  2  0  0  0  0
 33 36  1  0  0  0  0
 34 31  2  0  0  0  0
 34 35  1  0  0  0  0
 35 33  2  0  0  0  0
 37 38  1  0  0  0  0
 39  3  1  0  0  0  0
 40 39  1  0  0  0  0
 40 41  2  0  0  0  0
 42 40  1  0  0  0  0
 43 42  2  0  0  0  0
M  END
>  <MODEL>
9

>  <REMARK>
 VINA RESULT:      -7.3      3.394      8.188
  Name = 
  13 active torsions:
  status: ('A' for Active; 'I' for Inactive)
    1  A    between atoms: N_1  and  N_34
    2  A    between atoms: N_1  and  C_35
    3  A    between atoms: C_2  and  N_6
    4  A    between atoms: C_2  and  C_13
    5  A    between atoms: C_3  and  C_4
    6  A    between atoms: C_3  and  C_12
    7  A    between atoms: C_4  and  C_22
    8  A    between atoms: C_5  and  C_18
    9  A    between atoms: C_5  and  O_23
   10  A    between atoms: C_11  and  C_14
   11  A    between atoms: C_14  and  C_22
   12  A    between atoms: C_16  and  O_23
   13  A    between atoms: C_19  and  O_25
                            x       y       z     vdW  Elec       q    Type
                         _______ _______ _______ _____ _____    ______ ____

>  <TORSDO>
F 13

$$$$
