=
 OpenBabel10262423093D

 37 40  0  0  1  0  0  0  0  0999 V2000
  186.9880  177.9890  146.7880 C   0  0  1  0  0  3  0  0  0  0  0  0
  192.4730  175.3580  146.8850 C   0  0  0  0  0  2  0  0  0  0  0  0
  191.1240  175.4050  146.1580 C   0  0  0  0  0  2  0  0  0  0  0  0
  191.3780  177.6000  145.2620 C   0  0  0  0  0  2  0  0  0  0  0  0
  188.8090  177.2740  141.6100 C   0  0  2  0  0  3  0  0  0  0  0  0
  190.5450  176.7570  146.1130 N   0  0  2  0  0  0  0  0  0  0  0  0
  190.5130  178.6260  144.5350 C   0  0  0  0  0  2  0  0  0  0  0  0
  190.4130  177.3980  147.4380 C   0  0  1  0  0  3  0  0  0  0  0  0
  188.9440  177.5800  147.7860 C   0  0  0  0  0  2  0  0  0  0  0  0
  192.0530  178.7630  142.5390 C   0  0  0  0  0  1  0  0  0  0  0  0
  186.7520  176.8510  145.7840 C   0  0  0  0  0  2  0  0  0  0  0  0
  190.6300  178.5320  143.0160 C   0  0  1  0  0  3  0  0  0  0  0  0
  188.3280  178.3900  146.8290 O   0  0  0  0  0  0  0  0  0  0  0  0
  187.6510  176.9690  144.5640 C   0  0  2  0  0  3  0  0  0  0  0  0
  190.6090  176.1910  142.6770 O   0  0  0  0  0  0  0  0  0  0  0  0
  187.6380  177.9850  142.3010 C   0  0  0  0  0  2  0  0  0  0  0  0
  192.5120  176.2340  148.1400 C   0  0  0  0  0  2  0  0  0  0  0  0
  191.1130  176.6460  148.5770 C   0  0  0  0  0  2  0  0  0  0  0  0
  186.8230  177.1550  143.3060 C   0  0  1  0  0  3  0  0  0  0  0  0
  187.4130  175.7920  143.6460 C   0  0  0  0  0  2  0  0  0  0  0  0
  190.0550  177.2590  142.4590 C   0  0  0  0  0  0  0  0  0  0  0  0
  189.9650  176.9160  139.3410 C   0  0  2  0  0  3  0  0  0  0  0  0
  188.5780  177.3390  137.4000 O   0  0  0  0  0  0  0  0  0  0  0  0
  187.7030  178.0720  139.4990 C   0  0  0  0  0  2  0  0  0  0  0  0
  189.9090  177.3320  137.8570 C   0  0  2  0  0  3  0  0  0  0  0  0
  189.0430  177.8120  140.1900 C   0  0  1  0  0  3  0  0  0  0  0  0
  187.9430  178.4180  138.0330 C   0  0  0  0  0  2  0  0  0  0  0  0
  191.2640  177.0090  139.8080 F   0  0  0  0  0  0  0  0  0  0  0  0
  190.7600  175.1190  137.4380 O   0  0  0  0  0  1  0  0  0  0  0  0
  190.2780  176.4440  135.5070 C   0  0  0  0  0  1  0  0  0  0  0  0
  190.7530  176.4270  136.9530 C   0  0  1  0  0  3  0  0  0  0  0  0
  186.1170  179.1690  146.4970 C   0  0  0  0  0  0  0  0  0  0  0  0
  186.0440  180.1000  147.3390 O   0  0  0  0  0  0  0  0  0  0  0  0
  185.4490  179.2670  145.2820 O   0  0  0  0  0  0  0  0  0  0  0  0
  184.0590  179.0050  145.1640 C   0  0  0  0  0  2  0  0  0  0  0  0
  183.6680  178.9790  143.6990 C   0  0  0  0  0  2  0  0  0  0  0  0
  182.1550  179.0080  143.5630 C   0  0  0  0  0  1  0  0  0  0  0  0
  1 32  1  6  0  0  0
  1 13  1  0  0  0  0
  2 17  1  0  0  0  0
  3  2  1  0  0  0  0
  5 16  1  1  0  0  0
  5 21  1  0  0  0  0
  6  4  1  6  0  0  0
  6  3  1  0  0  0  0
  6  8  1  0  0  0  0
  7  4  1  0  0  0  0
  8  9  1  1  0  0  0
  8 18  1  0  0  0  0
 11  1  1  0  0  0  0
 12 10  1  1  0  0  0
 12  7  1  0  0  0  0
 13  9  1  0  0  0  0
 14 20  1  6  0  0  0
 14 11  1  0  0  0  0
 17 18  1  0  0  0  0
 19 16  1  6  0  0  0
 19 20  1  0  0  0  0
 19 14  1  0  0  0  0
 21 15  2  0  0  0  0
 21 12  1  0  0  0  0
 22 28  1  1  0  0  0
 22 26  1  0  0  0  0
 23 25  1  0  0  0  0
 23 27  1  0  0  0  0
 25 31  1  6  0  0  0
 25 22  1  0  0  0  0
 26 24  1  6  0  0  0
 26  5  1  0  0  0  0
 27 24  1  0  0  0  0
 31 30  1  6  0  0  0
 31 29  1  0  0  0  0
 32 33  2  0  0  0  0
 34 32  1  0  0  0  0
 35 34  1  0  0  0  0
 36 35  1  0  0  0  0
 37 36  1  0  0  0  0
M  END
>  <MODEL>
1

>  <REMARK>
 VINA RESULT:      -6.1      0.000      0.000
  Name = 
  6 active torsions:
  status: ('A' for Active; 'I' for Inactive)
    1  A    between atoms: C_1  and  C_12
    2  A    between atoms: O_5  and  C_12
    3  A    between atoms: O_5  and  C_26
    4  A    between atoms: C_8  and  C_19
    5  A    between atoms: C_10  and  C_14
    6  A    between atoms: C_11  and  C_26
                            x       y       z     vdW  Elec       q    Type
                         _______ _______ _______ _____ _____    ______ ____

>  <TORSDO>
F 6

$$$$
=
 OpenBabel10262423093D

 37 40  0  0  1  0  0  0  0  0999 V2000
  180.7130  176.0510  138.6490 C   0  0  1  0  0  3  0  0  0  0  0  0
  181.7470  171.5660  134.6690 C   0  0  0  0  0  2  0  0  0  0  0  0
  181.8980  173.0710  134.9210 C   0  0  0  0  0  2  0  0  0  0  0  0
  183.5140  172.8920  136.6660 C   0  0  0  0  0  2  0  0  0  0  0  0
  185.6220  176.8140  136.2070 C   0  0  2  0  0  3  0  0  0  0  0  0
  182.1850  173.3900  136.3290 N   0  0  2  0  0  0  0  0  0  0  0  0
  184.1740  173.8130  137.6860 C   0  0  0  0  0  2  0  0  0  0  0  0
  181.2060  172.8270  137.2830 C   0  0  1  0  0  3  0  0  0  0  0  0
  180.4280  173.9460  137.9550 C   0  0  0  0  0  2  0  0  0  0  0  0
  186.5140  173.3010  136.8880 C   0  0  0  0  0  1  0  0  0  0  0  0
  181.1090  176.8770  137.4170 C   0  0  0  0  0  2  0  0  0  0  0  0
  185.5010  174.3890  137.1970 C   0  0  1  0  0  3  0  0  0  0  0  0
  181.3060  174.7830  138.6490 O   0  0  0  0  0  0  0  0  0  0  0  0
  182.5360  176.5960  136.9730 C   0  0  2  0  0  3  0  0  0  0  0  0
  184.9910  174.9240  134.9500 O   0  0  0  0  0  0  0  0  0  0  0  0
  184.8360  177.4360  137.3680 C   0  0  0  0  0  2  0  0  0  0  0  0
  180.9730  170.8450  135.7760 C   0  0  0  0  0  2  0  0  0  0  0  0
  180.2210  171.8270  136.6630 C   0  0  0  0  0  2  0  0  0  0  0  0
  183.3840  177.8500  137.0760 C   0  0  1  0  0  3  0  0  0  0  0  0
  182.8430  177.3940  135.7270 C   0  0  0  0  0  2  0  0  0  0  0  0
  185.3390  175.3420  136.0440 C   0  0  0  0  0  0  0  0  0  0  0  0
  187.7660  176.7080  137.6240 C   0  0  2  0  0  3  0  0  0  0  0  0
  189.7590  176.0270  136.4280 O   0  0  0  0  0  0  0  0  0  0  0  0
  187.8570  176.5620  135.0850 C   0  0  0  0  0  2  0  0  0  0  0  0
  189.3030  176.7770  137.5290 C   0  0  2  0  0  3  0  0  0  0  0  0
  187.1200  177.1420  136.2940 C   0  0  1  0  0  3  0  0  0  0  0  0
  189.3610  176.7230  135.2770 C   0  0  0  0  0  2  0  0  0  0  0  0
  187.3200  177.5280  138.6460 F   0  0  0  0  0  0  0  0  0  0  0  0
  190.9800  175.3420  138.4920 O   0  0  0  0  0  1  0  0  0  0  0  0
  190.6100  177.4250  139.6070 C   0  0  0  0  0  1  0  0  0  0  0  0
  190.0010  176.2860  138.8020 C   0  0  1  0  0  3  0  0  0  0  0  0
  181.0470  176.7630  139.9210 C   0  0  0  0  0  0  0  0  0  0  0  0
  180.1350  176.9900  140.7550 O   0  0  0  0  0  0  0  0  0  0  0  0
  182.3620  177.1100  140.2070 O   0  0  0  0  0  0  0  0  0  0  0  0
  182.6930  178.3090  140.8920 C   0  0  0  0  0  2  0  0  0  0  0  0
  184.0390  178.1520  141.5720 C   0  0  0  0  0  2  0  0  0  0  0  0
  185.0970  178.9400  140.8200 C   0  0  0  0  0  1  0  0  0  0  0  0
  1 13  1  0  0  0  0
  1 32  1  1  0  0  0
  2  3  1  0  0  0  0
  2 17  1  0  0  0  0
  4  7  1  0  0  0  0
  5 26  1  0  0  0  0
  5 16  1  1  0  0  0
  6  3  1  6  0  0  0
  6  4  1  0  0  0  0
  6  8  1  0  0  0  0
  8 18  1  6  0  0  0
  8  9  1  0  0  0  0
  9 13  1  0  0  0  0
 11  1  1  0  0  0  0
 12 10  1  6  0  0  0
 12  7  1  0  0  0  0
 14 20  1  6  0  0  0
 14 19  1  0  0  0  0
 14 11  1  0  0  0  0
 15 21  2  0  0  0  0
 17 18  1  0  0  0  0
 19 20  1  6  0  0  0
 19 16  1  0  0  0  0
 21  5  1  0  0  0  0
 21 12  1  0  0  0  0
 22 28  1  1  0  0  0
 23 25  1  0  0  0  0
 24 27  1  0  0  0  0
 25 22  1  0  0  0  0
 25 31  1  1  0  0  0
 26 24  1  6  0  0  0
 26 22  1  0  0  0  0
 27 23  1  0  0  0  0
 29 31  1  0  0  0  0
 31 30  1  6  0  0  0
 32 34  1  0  0  0  0
 32 33  2  0  0  0  0
 34 35  1  0  0  0  0
 35 36  1  0  0  0  0
 37 36  1  0  0  0  0
M  END
>  <MODEL>
2

>  <REMARK>
 VINA RESULT:      -5.8      5.931      9.365
  Name = 
  6 active torsions:
  status: ('A' for Active; 'I' for Inactive)
    1  A    between atoms: C_1  and  C_12
    2  A    between atoms: O_5  and  C_12
    3  A    between atoms: O_5  and  C_26
    4  A    between atoms: C_8  and  C_19
    5  A    between atoms: C_10  and  C_14
    6  A    between atoms: C_11  and  C_26
                            x       y       z     vdW  Elec       q    Type
                         _______ _______ _______ _____ _____    ______ ____

>  <TORSDO>
F 6

$$$$
=
 OpenBabel10262423093D

 37 40  0  0  1  0  0  0  0  0999 V2000
  188.6550  172.7930  135.1620 C   0  0  1  0  0  3  0  0  0  0  0  0
  193.7540  176.1000  134.8750 C   0  0  0  0  0  2  0  0  0  0  0  0
  192.2230  176.1600  134.8200 C   0  0  0  0  0  2  0  0  0  0  0  0
  191.8480  175.5830  137.1030 C   0  0  0  0  0  2  0  0  0  0  0  0
  187.9140  177.6020  137.8010 C   0  0  2  0  0  3  0  0  0  0  0  0
  191.5800  175.1930  135.7240 N   0  0  2  0  0  0  0  0  0  0  0  0
  190.6630  175.2160  137.9910 C   0  0  0  0  0  2  0  0  0  0  0  0
  192.0260  173.7970  135.5260 C   0  0  1  0  0  3  0  0  0  0  0  0
  190.8780  172.9520  134.9990 C   0  0  0  0  0  2  0  0  0  0  0  0
  191.0820  177.0980  139.6210 C   0  0  0  0  0  1  0  0  0  0  0  0
  188.0750  174.1300  134.6780 C   0  0  0  0  0  2  0  0  0  0  0  0
  190.0680  176.4200  138.7160 C   0  0  1  0  0  3  0  0  0  0  0  0
  189.8220  172.9630  135.9150 O   0  0  0  0  0  0  0  0  0  0  0  0
  188.2910  175.2460  135.6870 C   0  0  2  0  0  3  0  0  0  0  0  0
  190.0870  178.0620  137.0140 O   0  0  0  0  0  0  0  0  0  0  0  0
  187.1440  176.2870  137.6240 C   0  0  0  0  0  2  0  0  0  0  0  0
  194.2990  174.6710  134.9580 C   0  0  0  0  0  2  0  0  0  0  0  0
  193.2350  173.6450  134.5940 C   0  0  0  0  0  2  0  0  0  0  0  0
  186.9610  175.7820  136.1840 C   0  0  1  0  0  3  0  0  0  0  0  0
  187.7530  176.5430  135.1280 C   0  0  0  0  0  2  0  0  0  0  0  0
  189.4090  177.4010  137.7860 C   0  0  0  0  0  0  0  0  0  0  0  0
  185.8950  178.2850  139.2390 C   0  0  2  0  0  3  0  0  0  0  0  0
  186.2540  178.1860  141.6330 O   0  0  0  0  0  0  0  0  0  0  0  0
  188.2050  177.9900  140.2670 C   0  0  0  0  0  2  0  0  0  0  0  0
  185.5080  178.8300  140.6280 C   0  0  2  0  0  3  0  0  0  0  0  0
  187.4160  178.3940  139.0190 C   0  0  1  0  0  3  0  0  0  0  0  0
  187.5760  178.6340  141.4980 C   0  0  0  0  0  2  0  0  0  0  0  0
  185.2310  178.9930  138.2530 F   0  0  0  0  0  0  0  0  0  0  0  0
  183.5140  177.5060  140.3650 O   0  0  0  0  0  1  0  0  0  0  0  0
  183.7150  178.7070  142.4230 C   0  0  0  0  0  1  0  0  0  0  0  0
  184.0130  178.6800  140.9310 C   0  0  1  0  0  3  0  0  0  0  0  0
  187.6540  172.0130  135.9520 C   0  0  0  0  0  0  0  0  0  0  0  0
  187.8620  171.8090  137.1750 O   0  0  0  0  0  0  0  0  0  0  0  0
  186.4770  171.5750  135.3580 O   0  0  0  0  0  0  0  0  0  0  0  0
  185.2650  171.4510  136.0880 C   0  0  0  0  0  2  0  0  0  0  0  0
  184.5920  172.8060  136.1900 C   0  0  0  0  0  2  0  0  0  0  0  0
  184.6020  173.2850  137.6310 C   0  0  0  0  0  1  0  0  0  0  0  0
  1 13  1  0  0  0  0
  1 32  1  1  0  0  0
  2 17  1  0  0  0  0
  3  2  1  0  0  0  0
  4  7  1  0  0  0  0
  5 16  1  1  0  0  0
  5 26  1  0  0  0  0
  6  3  1  6  0  0  0
  6  4  1  0  0  0  0
  7 12  1  0  0  0  0
  8 18  1  6  0  0  0
  8  6  1  0  0  0  0
  9  8  1  0  0  0  0
  9 13  1  0  0  0  0
 11  1  1  0  0  0  0
 12 10  1  6  0  0  0
 14 11  1  6  0  0  0
 14 19  1  0  0  0  0
 15 21  2  0  0  0  0
 18 17  1  0  0  0  0
 19 20  1  6  0  0  0
 19 16  1  0  0  0  0
 20 14  1  0  0  0  0
 21  5  1  0  0  0  0
 21 12  1  0  0  0  0
 22 28  1  6  0  0  0
 22 25  1  0  0  0  0
 24 27  1  0  0  0  0
 25 31  1  1  0  0  0
 25 23  1  0  0  0  0
 26 22  1  0  0  0  0
 26 24  1  1  0  0  0
 27 23  1  0  0  0  0
 29 31  1  0  0  0  0
 31 30  1  1  0  0  0
 32 33  2  0  0  0  0
 34 32  1  0  0  0  0
 34 35  1  0  0  0  0
 35 36  1  0  0  0  0
 36 37  1  0  0  0  0
M  END
>  <MODEL>
3

>  <REMARK>
 VINA RESULT:      -5.2      4.688      9.312
  Name = 
  6 active torsions:
  status: ('A' for Active; 'I' for Inactive)
    1  A    between atoms: C_1  and  C_12
    2  A    between atoms: O_5  and  C_12
    3  A    between atoms: O_5  and  C_26
    4  A    between atoms: C_8  and  C_19
    5  A    between atoms: C_10  and  C_14
    6  A    between atoms: C_11  and  C_26
                            x       y       z     vdW  Elec       q    Type
                         _______ _______ _______ _____ _____    ______ ____

>  <TORSDO>
F 6

$$$$
=
 OpenBabel10262423093D

 37 40  0  0  1  0  0  0  0  0999 V2000
  183.7730  178.9800  140.4030 C   0  0  1  0  0  3  0  0  0  0  0  0
  179.8150  177.0690  136.1950 C   0  0  0  0  0  2  0  0  0  0  0  0
  181.2420  177.5820  136.4250 C   0  0  0  0  0  2  0  0  0  0  0  0
  182.0260  175.6720  137.6180 C   0  0  0  0  0  2  0  0  0  0  0  0
  186.3930  175.8640  136.6510 C   0  0  2  0  0  3  0  0  0  0  0  0
  181.8200  177.1130  137.6950 N   0  0  2  0  0  0  0  0  0  0  0  0
  183.2610  175.2750  138.4210 C   0  0  0  0  0  2  0  0  0  0  0  0
  180.9910  177.4160  138.8810 C   0  0  1  0  0  3  0  0  0  0  0  0
  181.7040  178.4170  139.7750 C   0  0  0  0  0  2  0  0  0  0  0  0
  183.7800  173.2810  136.9630 C   0  0  0  0  0  1  0  0  0  0  0  0
  184.5370  179.3650  139.1280 C   0  0  0  0  0  2  0  0  0  0  0  0
  184.3150  174.5620  137.5780 C   0  0  1  0  0  3  0  0  0  0  0  0
  182.9240  177.8860  140.2010 O   0  0  0  0  0  0  0  0  0  0  0  0
  184.8860  178.1530  138.2800 C   0  0  2  0  0  3  0  0  0  0  0  0
  184.2890  175.8450  135.5910 O   0  0  0  0  0  0  0  0  0  0  0  0
  186.7220  176.5080  138.0050 C   0  0  0  0  0  2  0  0  0  0  0  0
  178.9570  177.0840  137.4640 C   0  0  0  0  0  2  0  0  0  0  0  0
  179.5870  177.9410  138.5530 C   0  0  0  0  0  2  0  0  0  0  0  0
  186.3910  178.0010  138.1580 C   0  0  1  0  0  3  0  0  0  0  0  0
  185.5820  178.6030  137.0160 C   0  0  0  0  0  2  0  0  0  0  0  0
  184.9460  175.4550  136.5450 C   0  0  0  0  0  0  0  0  0  0  0  0
  188.8530  175.1420  136.4620 C   0  0  2  0  0  3  0  0  0  0  0  0
  189.3550  172.9470  137.3560 O   0  0  0  0  0  0  0  0  0  0  0  0
  187.0390  173.4790  137.1090 C   0  0  0  0  0  2  0  0  0  0  0  0
  189.7660  173.9010  136.4050 C   0  0  2  0  0  3  0  0  0  0  0  0
  187.3750  174.7360  136.3040 C   0  0  1  0  0  3  0  0  0  0  0  0
  188.1300  172.4340  136.9040 C   0  0  0  0  0  2  0  0  0  0  0  0
  189.2020  176.0290  135.4580 F   0  0  0  0  0  0  0  0  0  0  0  0
  191.4900  174.4880  137.9800 O   0  0  0  0  0  1  0  0  0  0  0  0
  192.1740  173.1440  136.1240 C   0  0  0  0  0  1  0  0  0  0  0  0
  191.2440  174.2380  136.6300 C   0  0  1  0  0  3  0  0  0  0  0  0
  184.7040  178.6930  141.5370 C   0  0  0  0  0  0  0  0  0  0  0  0
  185.9300  178.9330  141.4010 O   0  0  0  0  0  0  0  0  0  0  0  0
  184.2100  178.2300  142.7510 O   0  0  0  0  0  0  0  0  0  0  0  0
  183.5280  179.0800  143.6600 C   0  0  0  0  0  2  0  0  0  0  0  0
  183.9200  178.7250  145.0820 C   0  0  0  0  0  2  0  0  0  0  0  0
  185.4330  178.7030  145.2140 C   0  0  0  0  0  1  0  0  0  0  0  0
  1 32  1  1  0  0  0
  2  3  1  0  0  0  0
  2 17  1  0  0  0  0
  4  6  1  0  0  0  0
  4  7  1  0  0  0  0
  5 16  1  1  0  0  0
  6  3  1  6  0  0  0
  6  8  1  0  0  0  0
  8 18  1  6  0  0  0
  8  9  1  0  0  0  0
  9 13  1  0  0  0  0
 11  1  1  0  0  0  0
 12 10  1  6  0  0  0
 12  7  1  0  0  0  0
 13  1  1  0  0  0  0
 14 20  1  6  0  0  0
 14 11  1  0  0  0  0
 15 21  2  0  0  0  0
 16 19  1  0  0  0  0
 17 18  1  0  0  0  0
 19 20  1  6  0  0  0
 19 14  1  0  0  0  0
 21  5  1  0  0  0  0
 21 12  1  0  0  0  0
 22 28  1  6  0  0  0
 25 22  1  0  0  0  0
 25 31  1  1  0  0  0
 25 23  1  0  0  0  0
 26 22  1  0  0  0  0
 26  5  1  0  0  0  0
 26 24  1  1  0  0  0
 27 24  1  0  0  0  0
 27 23  1  0  0  0  0
 31 30  1  1  0  0  0
 31 29  1  0  0  0  0
 32 34  1  0  0  0  0
 33 32  2  0  0  0  0
 34 35  1  0  0  0  0
 35 36  1  0  0  0  0
 36 37  1  0  0  0  0
M  END
>  <MODEL>
4

>  <REMARK>
 VINA RESULT:      -5.2      4.809      8.534
  Name = 
  6 active torsions:
  status: ('A' for Active; 'I' for Inactive)
    1  A    between atoms: C_1  and  C_12
    2  A    between atoms: O_5  and  C_12
    3  A    between atoms: O_5  and  C_26
    4  A    between atoms: C_8  and  C_19
    5  A    between atoms: C_10  and  C_14
    6  A    between atoms: C_11  and  C_26
                            x       y       z     vdW  Elec       q    Type
                         _______ _______ _______ _____ _____    ______ ____

>  <TORSDO>
F 6

$$$$
=
 OpenBabel10262423093D

 37 40  0  0  1  0  0  0  0  0999 V2000
  184.9130  178.9470  142.3670 C   0  0  1  0  0  3  0  0  0  0  0  0
  179.0250  179.7770  141.0790 C   0  0  0  0  0  2  0  0  0  0  0  0
  180.4440  179.7970  140.5000 C   0  0  0  0  0  2  0  0  0  0  0  0
  180.8370  177.4510  140.6640 C   0  0  0  0  0  2  0  0  0  0  0  0
  183.7920  176.9010  137.3470 C   0  0  2  0  0  3  0  0  0  0  0  0
  181.3150  178.7640  141.0820 N   0  0  2  0  0  0  0  0  0  0  0  0
  182.0130  176.4930  140.5030 C   0  0  0  0  0  2  0  0  0  0  0  0
  181.3850  178.8010  142.5590 C   0  0  1  0  0  3  0  0  0  0  0  0
  182.7850  179.1880  143.0060 C   0  0  0  0  0  2  0  0  0  0  0  0
  180.8690  175.1190  138.7190 C   0  0  0  0  0  1  0  0  0  0  0  0
  185.0350  179.5760  140.9720 C   0  0  0  0  0  2  0  0  0  0  0  0
  182.1120  175.9060  139.0970 C   0  0  1  0  0  3  0  0  0  0  0  0
  183.7090  178.2530  142.5320 O   0  0  0  0  0  0  0  0  0  0  0  0
  184.3840  178.7180  139.8990 C   0  0  2  0  0  3  0  0  0  0  0  0
  181.6510  177.7970  137.7540 O   0  0  0  0  0  0  0  0  0  0  0  0
  184.9740  176.8930  138.3260 C   0  0  0  0  0  2  0  0  0  0  0  0
  178.9950  179.5330  142.5910 C   0  0  0  0  0  2  0  0  0  0  0  0
  180.3660  179.7390  143.2170 C   0  0  0  0  0  2  0  0  0  0  0  0
  185.4150  178.2550  138.8870 C   0  0  1  0  0  3  0  0  0  0  0  0
  184.4860  179.4180  138.5630 C   0  0  0  0  0  2  0  0  0  0  0  0
  182.4600  176.9320  138.0540 C   0  0  0  0  0  0  0  0  0  0  0  0
  184.2950  174.4160  136.9180 C   0  0  2  0  0  3  0  0  0  0  0  0
  182.7740  173.3050  135.3950 O   0  0  0  0  0  0  0  0  0  0  0  0
  182.6200  175.6870  135.4840 C   0  0  0  0  0  2  0  0  0  0  0  0
  184.0900  173.2830  135.8930 C   0  0  2  0  0  3  0  0  0  0  0  0
  183.9070  175.7760  136.3070 C   0  0  1  0  0  3  0  0  0  0  0  0
  182.6680  174.4510  134.5940 C   0  0  0  0  0  2  0  0  0  0  0  0
  185.6170  174.4490  137.3260 F   0  0  0  0  0  0  0  0  0  0  0  0
  183.2120  171.2520  136.8430 O   0  0  0  0  0  1  0  0  0  0  0  0
  185.1800  171.0220  135.5040 C   0  0  0  0  0  1  0  0  0  0  0  0
  184.3920  171.8960  136.4700 C   0  0  1  0  0  3  0  0  0  0  0  0
  186.0630  178.0390  142.6650 C   0  0  0  0  0  0  0  0  0  0  0  0
  186.9900  177.9250  141.8220 O   0  0  0  0  0  0  0  0  0  0  0  0
  186.1410  177.3810  143.8860 O   0  0  0  0  0  0  0  0  0  0  0  0
  187.1030  177.7300  144.8700 C   0  0  0  0  0  2  0  0  0  0  0  0
  186.4240  177.8710  146.2190 C   0  0  0  0  0  2  0  0  0  0  0  0
  185.1180  178.6310  146.0680 C   0  0  0  0  0  1  0  0  0  0  0  0
  1 13  1  0  0  0  0
  1 32  1  6  0  0  0
  2 17  1  0  0  0  0
  3  2  1  0  0  0  0
  4  6  1  0  0  0  0
  5 21  1  0  0  0  0
  5 16  1  1  0  0  0
  6  3  1  1  0  0  0
  6  8  1  0  0  0  0
  7  4  1  0  0  0  0
  8  9  1  6  0  0  0
  8 18  1  0  0  0  0
 11  1  1  0  0  0  0
 12 10  1  6  0  0  0
 12  7  1  0  0  0  0
 13  9  1  0  0  0  0
 14 20  1  6  0  0  0
 14 11  1  0  0  0  0
 15 21  2  0  0  0  0
 17 18  1  0  0  0  0
 19 16  1  6  0  0  0
 19 14  1  0  0  0  0
 20 19  1  0  0  0  0
 21 12  1  0  0  0  0
 22 28  1  6  0  0  0
 23 25  1  0  0  0  0
 25 31  1  1  0  0  0
 25 22  1  0  0  0  0
 26 24  1  1  0  0  0
 26 22  1  0  0  0  0
 26  5  1  0  0  0  0
 27 23  1  0  0  0  0
 27 24  1  0  0  0  0
 31 30  1  6  0  0  0
 31 29  1  0  0  0  0
 32 34  1  0  0  0  0
 33 32  2  0  0  0  0
 34 35  1  0  0  0  0
 35 36  1  0  0  0  0
 37 36  1  0  0  0  0
M  END
>  <MODEL>
5

>  <REMARK>
 VINA RESULT:      -5.2      5.007      8.424
  Name = 
  6 active torsions:
  status: ('A' for Active; 'I' for Inactive)
    1  A    between atoms: C_1  and  C_12
    2  A    between atoms: O_5  and  C_12
    3  A    between atoms: O_5  and  C_26
    4  A    between atoms: C_8  and  C_19
    5  A    between atoms: C_10  and  C_14
    6  A    between atoms: C_11  and  C_26
                            x       y       z     vdW  Elec       q    Type
                         _______ _______ _______ _____ _____    ______ ____

>  <TORSDO>
F 6

$$$$
=
 OpenBabel10262423093D

 37 40  0  0  1  0  0  0  0  0999 V2000
  190.4390  177.2900  141.7240 C   0  0  1  0  0  3  0  0  0  0  0  0
  188.1470  178.4220  136.2030 C   0  0  0  0  0  2  0  0  0  0  0  0
  189.4310  178.3990  137.0410 C   0  0  0  0  0  2  0  0  0  0  0  0
  189.5230  176.0330  137.3270 C   0  0  0  0  0  2  0  0  0  0  0  0
  193.9320  175.4600  137.8390 C   0  0  2  0  0  3  0  0  0  0  0  0
  189.4490  177.3090  138.0300 N   0  0  2  0  0  0  0  0  0  0  0  0
  190.3260  175.0290  138.1480 C   0  0  0  0  0  2  0  0  0  0  0  0
  188.2750  177.2950  138.9280 C   0  0  1  0  0  3  0  0  0  0  0  0
  188.7030  177.6050  140.3530 C   0  0  0  0  0  2  0  0  0  0  0  0
  191.1440  173.7670  136.1200 C   0  0  0  0  0  1  0  0  0  0  0  0
  191.6550  177.9570  141.0660 C   0  0  0  0  0  2  0  0  0  0  0  0
  191.5390  174.4840  137.3990 C   0  0  1  0  0  3  0  0  0  0  0  0
  189.6200  176.6450  140.7910 O   0  0  0  0  0  0  0  0  0  0  0  0
  192.1690  177.1650  139.8750 C   0  0  2  0  0  3  0  0  0  0  0  0
  192.3790  176.4370  136.3620 O   0  0  0  0  0  0  0  0  0  0  0  0
  193.8000  175.3680  139.3650 C   0  0  0  0  0  2  0  0  0  0  0  0
  186.8870  178.1310  137.0230 C   0  0  0  0  0  2  0  0  0  0  0  0
  187.1520  178.2560  138.5170 C   0  0  0  0  0  2  0  0  0  0  0  0
  193.5880  176.6900  140.1210 C   0  0  1  0  0  3  0  0  0  0  0  0
  193.3240  177.9020  139.2380 C   0  0  0  0  0  2  0  0  0  0  0  0
  192.5940  175.5270  137.1490 C   0  0  0  0  0  0  0  0  0  0  0  0
  195.9850  174.9150  136.3910 C   0  0  2  0  0  3  0  0  0  0  0  0
  197.5130  173.2890  137.3360 O   0  0  0  0  0  0  0  0  0  0  0  0
  195.3940  173.5000  138.4220 C   0  0  0  0  0  2  0  0  0  0  0  0
  197.0430  173.8250  136.1230 C   0  0  2  0  0  3  0  0  0  0  0  0
  194.8550  174.3660  137.2810 C   0  0  1  0  0  3  0  0  0  0  0  0
  196.4540  172.5470  137.8820 C   0  0  0  0  0  2  0  0  0  0  0  0
  195.4580  175.3640  135.1930 F   0  0  0  0  0  0  0  0  0  0  0  0
  198.9800  175.2520  136.0390 O   0  0  0  0  0  1  0  0  0  0  0  0
  199.1240  173.2100  134.8040 C   0  0  0  0  0  1  0  0  0  0  0  0
  198.2300  174.3370  135.3000 C   0  0  1  0  0  3  0  0  0  0  0  0
  190.8500  176.3220  142.7880 C   0  0  0  0  0  0  0  0  0  0  0  0
  190.3980  175.1500  142.7590 O   0  0  0  0  0  0  0  0  0  0  0  0
  191.7740  176.6960  143.7570 O   0  0  0  0  0  0  0  0  0  0  0  0
  191.3850  177.3550  144.9530 C   0  0  0  0  0  2  0  0  0  0  0  0
  191.4360  176.3790  146.1130 C   0  0  0  0  0  2  0  0  0  0  0  0
  190.5840  176.8900  147.2620 C   0  0  0  0  0  1  0  0  0  0  0  0
  1 32  1  1  0  0  0
  2 17  1  0  0  0  0
  2  3  1  0  0  0  0
  4  6  1  0  0  0  0
  4  7  1  0  0  0  0
  5 16  1  1  0  0  0
  6  3  1  6  0  0  0
  6  8  1  0  0  0  0
  8 18  1  6  0  0  0
  8  9  1  0  0  0  0
  9 13  1  0  0  0  0
 11  1  1  0  0  0  0
 12 10  1  6  0  0  0
 12  7  1  0  0  0  0
 13  1  1  0  0  0  0
 14 20  1  6  0  0  0
 14 19  1  0  0  0  0
 14 11  1  0  0  0  0
 15 21  2  0  0  0  0
 16 19  1  0  0  0  0
 17 18  1  0  0  0  0
 19 20  1  6  0  0  0
 21 12  1  0  0  0  0
 21  5  1  0  0  0  0
 22 28  1  6  0  0  0
 22 26  1  0  0  0  0
 23 27  1  0  0  0  0
 25 31  1  1  0  0  0
 25 22  1  0  0  0  0
 25 23  1  0  0  0  0
 26  5  1  0  0  0  0
 26 24  1  1  0  0  0
 27 24  1  0  0  0  0
 31 30  1  1  0  0  0
 31 29  1  0  0  0  0
 32 34  1  0  0  0  0
 33 32  2  0  0  0  0
 34 35  1  0  0  0  0
 35 36  1  0  0  0  0
 36 37  1  0  0  0  0
M  END
>  <MODEL>
6

>  <REMARK>
 VINA RESULT:      -5.1      4.239      8.233
  Name = 
  6 active torsions:
  status: ('A' for Active; 'I' for Inactive)
    1  A    between atoms: C_1  and  C_12
    2  A    between atoms: O_5  and  C_12
    3  A    between atoms: O_5  and  C_26
    4  A    between atoms: C_8  and  C_19
    5  A    between atoms: C_10  and  C_14
    6  A    between atoms: C_11  and  C_26
                            x       y       z     vdW  Elec       q    Type
                         _______ _______ _______ _____ _____    ______ ____

>  <TORSDO>
F 6

$$$$
=
 OpenBabel10262423093D

 37 40  0  0  1  0  0  0  0  0999 V2000
  183.3000  177.7740  139.2310 C   0  0  1  0  0  3  0  0  0  0  0  0
  181.1350  173.7500  135.2140 C   0  0  0  0  0  2  0  0  0  0  0  0
  182.1450  174.8850  135.4230 C   0  0  0  0  0  2  0  0  0  0  0  0
  183.5540  173.7140  136.9490 C   0  0  0  0  0  2  0  0  0  0  0  0
  187.4550  175.7680  136.1710 C   0  0  2  0  0  3  0  0  0  0  0  0
  182.7190  174.8970  136.7780 N   0  0  2  0  0  0  0  0  0  0  0  0
  184.7320  174.0330  137.8640 C   0  0  0  0  0  2  0  0  0  0  0  0
  181.7090  174.9310  137.8580 C   0  0  1  0  0  3  0  0  0  0  0  0
  181.7900  176.2500  138.6080 C   0  0  0  0  0  2  0  0  0  0  0  0
  186.2540  172.3350  136.7800 C   0  0  0  0  0  1  0  0  0  0  0  0
  183.9550  178.3040  137.9470 C   0  0  0  0  0  2  0  0  0  0  0  0
  186.0840  173.7840  137.2010 C   0  0  1  0  0  3  0  0  0  0  0  0
  183.0600  176.3960  139.1720 O   0  0  0  0  0  0  0  0  0  0  0  0
  184.9050  177.2920  137.3280 C   0  0  2  0  0  3  0  0  0  0  0  0
  185.7210  174.6520  135.0300 O   0  0  0  0  0  0  0  0  0  0  0  0
  187.3010  176.6540  137.4140 C   0  0  0  0  0  2  0  0  0  0  0  0
  180.2190  173.5280  136.4200 C   0  0  0  0  0  2  0  0  0  0  0  0
  180.2680  174.7070  137.3820 C   0  0  0  0  0  2  0  0  0  0  0  0
  186.3220  177.8340  137.3040 C   0  0  1  0  0  3  0  0  0  0  0  0
  185.4690  177.8500  136.0420 C   0  0  0  0  0  2  0  0  0  0  0  0
  186.3660  174.7290  136.0650 C   0  0  0  0  0  0  0  0  0  0  0  0
  189.9750  176.1750  136.4710 C   0  0  2  0  0  3  0  0  0  0  0  0
  191.1920  174.3720  137.5370 O   0  0  0  0  0  0  0  0  0  0  0  0
  188.9610  173.8710  136.8440 C   0  0  0  0  0  2  0  0  0  0  0  0
  191.3240  175.4470  136.6390 C   0  0  2  0  0  3  0  0  0  0  0  0
  188.8710  175.1830  136.0600 C   0  0  1  0  0  3  0  0  0  0  0  0
  190.4110  173.4030  136.8900 C   0  0  0  0  0  2  0  0  0  0  0  0
  190.0910  177.1650  135.5110 F   0  0  0  0  0  0  0  0  0  0  0  0
  192.5180  176.3790  138.5100 O   0  0  0  0  0  1  0  0  0  0  0  0
  193.7990  176.0040  136.5260 C   0  0  0  0  0  1  0  0  0  0  0  0
  192.4460  176.3750  137.1170 C   0  0  1  0  0  3  0  0  0  0  0  0
  184.1210  178.0910  140.4390 C   0  0  0  0  0  0  0  0  0  0  0  0
  183.8100  177.5790  141.5450 O   0  0  0  0  0  0  0  0  0  0  0  0
  185.2550  178.8880  140.3290 O   0  0  0  0  0  0  0  0  0  0  0  0
  186.2610  178.9090  141.3310 C   0  0  0  0  0  2  0  0  0  0  0  0
  187.5640  178.3920  140.7540 C   0  0  0  0  0  2  0  0  0  0  0  0
  188.6010  178.2500  141.8550 C   0  0  0  0  0  1  0  0  0  0  0  0
  1 32  1  1  0  0  0
  2  3  1  0  0  0  0
  2 17  1  0  0  0  0
  4  7  1  0  0  0  0
  5 16  1  1  0  0  0
  6  3  1  6  0  0  0
  6  4  1  0  0  0  0
  6  8  1  0  0  0  0
  8 18  1  6  0  0  0
  8  9  1  0  0  0  0
  9 13  1  0  0  0  0
 11  1  1  0  0  0  0
 12 10  1  6  0  0  0
 12  7  1  0  0  0  0
 13  1  1  0  0  0  0
 14 20  1  6  0  0  0
 14 11  1  0  0  0  0
 15 21  2  0  0  0  0
 17 18  1  0  0  0  0
 19 20  1  6  0  0  0
 19 14  1  0  0  0  0
 19 16  1  0  0  0  0
 21  5  1  0  0  0  0
 21 12  1  0  0  0  0
 22 28  1  6  0  0  0
 22 25  1  0  0  0  0
 24 27  1  0  0  0  0
 25 31  1  1  0  0  0
 25 23  1  0  0  0  0
 26  5  1  0  0  0  0
 26 22  1  0  0  0  0
 26 24  1  1  0  0  0
 27 23  1  0  0  0  0
 31 30  1  6  0  0  0
 31 29  1  0  0  0  0
 32 33  2  0  0  0  0
 34 32  1  0  0  0  0
 34 35  1  0  0  0  0
 36 35  1  0  0  0  0
 36 37  1  0  0  0  0
M  END
>  <MODEL>
7

>  <REMARK>
 VINA RESULT:      -5.1      4.955      8.784
  Name = 
  6 active torsions:
  status: ('A' for Active; 'I' for Inactive)
    1  A    between atoms: C_1  and  C_12
    2  A    between atoms: O_5  and  C_12
    3  A    between atoms: O_5  and  C_26
    4  A    between atoms: C_8  and  C_19
    5  A    between atoms: C_10  and  C_14
    6  A    between atoms: C_11  and  C_26
                            x       y       z     vdW  Elec       q    Type
                         _______ _______ _______ _____ _____    ______ ____

>  <TORSDO>
F 6

$$$$
=
 OpenBabel10262423093D

 37 40  0  0  1  0  0  0  0  0999 V2000
  181.8060  174.4510  135.4400 C   0  0  1  0  0  3  0  0  0  0  0  0
  186.7310  177.8360  136.5790 C   0  0  0  0  0  2  0  0  0  0  0  0
  185.2240  177.8790  136.3000 C   0  0  0  0  0  2  0  0  0  0  0  0
  184.5420  176.8630  138.3460 C   0  0  0  0  0  2  0  0  0  0  0  0
  180.4580  178.6400  138.7980 C   0  0  2  0  0  3  0  0  0  0  0  0
  184.5000  176.7440  136.8930 N   0  0  2  0  0  0  0  0  0  0  0  0
  183.2570  176.3100  138.9540 C   0  0  0  0  0  2  0  0  0  0  0  0
  185.0350  175.4220  136.5050 C   0  0  1  0  0  3  0  0  0  0  0  0
  184.0190  174.6760  135.6560 C   0  0  0  0  0  2  0  0  0  0  0  0
  183.3400  177.8450  140.9570 C   0  0  0  0  0  1  0  0  0  0  0  0
  181.2430  175.8460  135.1350 C   0  0  0  0  0  2  0  0  0  0  0  0
  182.5050  177.3390  139.7940 C   0  0  1  0  0  3  0  0  0  0  0  0
  182.8390  174.4910  136.3830 O   0  0  0  0  0  0  0  0  0  0  0  0
  181.2540  176.7480  136.3590 C   0  0  2  0  0  3  0  0  0  0  0  0
  182.7000  179.2820  138.4580 O   0  0  0  0  0  0  0  0  0  0  0  0
  179.7850  177.3720  138.2580 C   0  0  0  0  0  2  0  0  0  0  0  0
  187.3240  176.4280  136.4730 C   0  0  0  0  0  2  0  0  0  0  0  0
  186.3740  175.4750  135.7600 C   0  0  0  0  0  2  0  0  0  0  0  0
  179.8420  177.1540  136.7370 C   0  0  1  0  0  3  0  0  0  0  0  0
  180.7450  178.1200  135.9800 C   0  0  0  0  0  2  0  0  0  0  0  0
  181.9460  178.4710  138.9760 C   0  0  0  0  0  0  0  0  0  0  0  0
  180.2420  178.5170  141.3570 C   0  0  2  0  0  3  0  0  0  0  0  0
  180.0850  180.6560  142.4830 O   0  0  0  0  0  0  0  0  0  0  0  0
  179.8450  180.6970  140.1050 C   0  0  0  0  0  2  0  0  0  0  0  0
  179.7300  179.2990  142.5830 C   0  0  2  0  0  3  0  0  0  0  0  0
  179.7480  179.1710  140.0520 C   0  0  1  0  0  3  0  0  0  0  0  0
  179.3120  181.1970  141.4440 C   0  0  0  0  0  2  0  0  0  0  0  0
  179.8020  177.2070  141.4160 F   0  0  0  0  0  0  0  0  0  0  0  0
  179.6910  177.4810  144.1620 O   0  0  0  0  0  1  0  0  0  0  0  0
  181.7690  178.6440  143.9470 C   0  0  0  0  0  1  0  0  0  0  0  0
  180.2510  178.7340  143.9090 C   0  0  1  0  0  3  0  0  0  0  0  0
  180.7370  173.5140  135.9040 C   0  0  0  0  0  0  0  0  0  0  0  0
  179.7040  173.3660  135.2030 O   0  0  0  0  0  0  0  0  0  0  0  0
  180.9120  172.7670  137.0620 O   0  0  0  0  0  0  0  0  0  0  0  0
  179.8630  172.5740  138.0000 C   0  0  0  0  0  2  0  0  0  0  0  0
  179.3680  173.9190  138.4950 C   0  0  0  0  0  2  0  0  0  0  0  0
  179.6930  174.0830  139.9700 C   0  0  0  0  0  1  0  0  0  0  0  0
  1 32  1  1  0  0  0
  1 13  1  0  0  0  0
  3  2  1  0  0  0  0
  4  7  1  0  0  0  0
  5 16  1  1  0  0  0
  5 21  1  0  0  0  0
  5 26  1  0  0  0  0
  6  3  1  6  0  0  0
  6  4  1  0  0  0  0
  7 12  1  0  0  0  0
  8  9  1  6  0  0  0
  8  6  1  0  0  0  0
  9 13  1  0  0  0  0
 11  1  1  0  0  0  0
 12 10  1  1  0  0  0
 14 11  1  6  0  0  0
 14 19  1  0  0  0  0
 15 21  2  0  0  0  0
 17  2  1  0  0  0  0
 18 17  1  0  0  0  0
 18  8  1  0  0  0  0
 19 20  1  6  0  0  0
 19 16  1  0  0  0  0
 20 14  1  0  0  0  0
 21 12  1  0  0  0  0
 22 28  1  1  0  0  0
 22 25  1  0  0  0  0
 23 25  1  0  0  0  0
 24 27  1  0  0  0  0
 25 31  1  1  0  0  0
 26 24  1  1  0  0  0
 26 22  1  0  0  0  0
 27 23  1  0  0  0  0
 31 30  1  6  0  0  0
 31 29  1  0  0  0  0
 32 34  1  0  0  0  0
 33 32  2  0  0  0  0
 34 35  1  0  0  0  0
 35 36  1  0  0  0  0
 36 37  1  0  0  0  0
M  END
>  <MODEL>
8

>  <REMARK>
 VINA RESULT:      -4.9      7.120     11.034
  Name = 
  6 active torsions:
  status: ('A' for Active; 'I' for Inactive)
    1  A    between atoms: C_1  and  C_12
    2  A    between atoms: O_5  and  C_12
    3  A    between atoms: O_5  and  C_26
    4  A    between atoms: C_8  and  C_19
    5  A    between atoms: C_10  and  C_14
    6  A    between atoms: C_11  and  C_26
                            x       y       z     vdW  Elec       q    Type
                         _______ _______ _______ _____ _____    ______ ____

>  <TORSDO>
F 6

$$$$
=
 OpenBabel10262423093D

 37 40  0  0  1  0  0  0  0  0999 V2000
  190.4170  177.2270  141.7700 C   0  0  1  0  0  3  0  0  0  0  0  0
  188.0660  178.4150  136.2850 C   0  0  0  0  0  2  0  0  0  0  0  0
  189.3510  178.4260  137.1210 C   0  0  0  0  0  2  0  0  0  0  0  0
  189.5530  176.0600  137.3380 C   0  0  0  0  0  2  0  0  0  0  0  0
  193.9850  175.6770  137.8320 C   0  0  2  0  0  3  0  0  0  0  0  0
  189.4210  177.3100  138.0780 N   0  0  2  0  0  0  0  0  0  0  0  0
  190.4030  175.0700  138.1280 C   0  0  0  0  0  2  0  0  0  0  0  0
  188.2500  177.2140  138.9750 C   0  0  1  0  0  3  0  0  0  0  0  0
  188.6660  177.5020  140.4090 C   0  0  0  0  0  2  0  0  0  0  0  0
  191.2750  173.9080  136.0640 C   0  0  0  0  0  1  0  0  0  0  0  0
  191.6000  177.9700  141.1310 C   0  0  0  0  0  2  0  0  0  0  0  0
  191.6390  174.6050  137.3630 C   0  0  1  0  0  3  0  0  0  0  0  0
  189.6270  176.5730  140.8180 O   0  0  0  0  0  0  0  0  0  0  0  0
  192.1470  177.2380  139.9170 C   0  0  2  0  0  3  0  0  0  0  0  0
  192.3860  176.6240  136.3840 O   0  0  0  0  0  0  0  0  0  0  0  0
  193.8600  175.5340  139.3540 C   0  0  0  0  0  2  0  0  0  0  0  0
  186.8220  178.0410  137.0960 C   0  0  0  0  0  2  0  0  0  0  0  0
  187.0840  178.1340  138.5930 C   0  0  0  0  0  2  0  0  0  0  0  0
  193.5880  176.8220  140.1490 C   0  0  1  0  0  3  0  0  0  0  0  0
  193.2660  178.0460  139.3020 C   0  0  0  0  0  2  0  0  0  0  0  0
  192.6440  175.7020  137.1430 C   0  0  0  0  0  0  0  0  0  0  0  0
  194.6800  173.2040  137.7150 C   0  0  2  0  0  3  0  0  0  0  0  0
  195.1920  172.3810  135.4950 O   0  0  0  0  0  0  0  0  0  0  0  0
  194.9730  174.7500  135.7140 C   0  0  0  0  0  2  0  0  0  0  0  0
  195.4690  172.1910  136.8610 C   0  0  2  0  0  3  0  0  0  0  0  0
  194.9560  174.6440  137.2410 C   0  0  1  0  0  3  0  0  0  0  0  0
  195.7850  173.5990  135.1310 C   0  0  0  0  0  2  0  0  0  0  0  0
  195.0350  173.0760  139.0460 F   0  0  0  0  0  0  0  0  0  0  0  0
  193.9360  170.3380  136.7420 O   0  0  0  0  0  1  0  0  0  0  0  0
  196.2620  169.7800  136.7680 C   0  0  0  0  0  1  0  0  0  0  0  0
  195.1760  170.7360  137.2430 C   0  0  1  0  0  3  0  0  0  0  0  0
  190.8740  176.2490  142.8040 C   0  0  0  0  0  0  0  0  0  0  0  0
  190.4270  175.0750  142.7790 O   0  0  0  0  0  0  0  0  0  0  0  0
  191.8330  176.6150  143.7410 O   0  0  0  0  0  0  0  0  0  0  0  0
  191.5630  177.5600  144.7660 C   0  0  0  0  0  2  0  0  0  0  0  0
  190.9040  176.8620  145.9410 C   0  0  0  0  0  2  0  0  0  0  0  0
  191.9390  176.0700  146.7220 C   0  0  0  0  0  1  0  0  0  0  0  0
  1 32  1  1  0  0  0
  2 17  1  0  0  0  0
  2  3  1  0  0  0  0
  4  6  1  0  0  0  0
  4  7  1  0  0  0  0
  5 16  1  1  0  0  0
  6  3  1  6  0  0  0
  6  8  1  0  0  0  0
  8 18  1  6  0  0  0
  8  9  1  0  0  0  0
  9 13  1  0  0  0  0
 11  1  1  0  0  0  0
 12 10  1  6  0  0  0
 12  7  1  0  0  0  0
 13  1  1  0  0  0  0
 14 20  1  6  0  0  0
 14 19  1  0  0  0  0
 14 11  1  0  0  0  0
 15 21  2  0  0  0  0
 16 19  1  0  0  0  0
 17 18  1  0  0  0  0
 19 20  1  6  0  0  0
 21 12  1  0  0  0  0
 21  5  1  0  0  0  0
 22 28  1  1  0  0  0
 23 25  1  0  0  0  0
 25 31  1  1  0  0  0
 25 22  1  0  0  0  0
 26 24  1  6  0  0  0
 26 22  1  0  0  0  0
 26  5  1  0  0  0  0
 27 23  1  0  0  0  0
 27 24  1  0  0  0  0
 29 31  1  0  0  0  0
 31 30  1  6  0  0  0
 32 34  1  0  0  0  0
 33 32  2  0  0  0  0
 34 35  1  0  0  0  0
 35 36  1  0  0  0  0
 36 37  1  0  0  0  0
M  END
>  <MODEL>
9

>  <REMARK>
 VINA RESULT:      -4.7      3.835      8.036
  Name = 
  6 active torsions:
  status: ('A' for Active; 'I' for Inactive)
    1  A    between atoms: C_1  and  C_12
    2  A    between atoms: O_5  and  C_12
    3  A    between atoms: O_5  and  C_26
    4  A    between atoms: C_8  and  C_19
    5  A    between atoms: C_10  and  C_14
    6  A    between atoms: C_11  and  C_26
                            x       y       z     vdW  Elec       q    Type
                         _______ _______ _______ _____ _____    ______ ____

>  <TORSDO>
F 6

$$$$
