=
 OpenBabel10262422593D

 37 41  0  0  1  0  0  0  0  0999 V2000
  180.1930  178.5210  138.3710 C   0  0  1  0  0  3  0  0  0  0  0  0
  182.0290  175.6770  139.3310 S   0  0  1  0  0  0  0  0  0  0  0  0
  182.1600  180.2410  138.7370 C   0  0  0  0  0  2  0  0  0  0  0  0
  185.5520  176.5650  136.8030 C   0  0  0  0  0  3  0  0  0  0  0  0
  182.4600  177.4000  138.9460 C   0  0  1  0  0  0  0  0  0  0  0  0
  184.3010  176.4410  137.4150 C   0  0  0  0  0  0  0  0  0  0  0  0
  182.3290  178.1920  140.2830 C   0  0  2  0  0  3  0  0  0  0  0  0
  183.5180  175.3330  137.0600 O   0  0  0  0  0  0  0  0  0  0  0  0
  183.8740  177.4190  138.3570 C   0  0  0  0  0  0  0  0  0  0  0  0
  185.9890  178.5960  138.0270 C   0  0  0  0  0  3  0  0  0  0  0  0
  180.5050  175.6620  139.3650 O   0  0  0  0  0  0  0  0  0  0  0  0
  182.4330  174.8830  137.8070 C   0  0  0  0  0  0  0  0  0  0  0  0
  184.7380  178.4940  138.6340 C   0  0  0  0  0  3  0  0  0  0  0  0
  182.1970  179.7190  140.1720 C   0  0  0  0  0  2  0  0  0  0  0  0
  181.7580  173.9000  137.4050 O   0  0  0  0  0  0  0  0  0  0  0  0
  181.4920  177.9050  137.8360 C   0  0  2  0  0  3  0  0  0  0  0  0
  186.4030  177.6350  137.1070 C   0  0  0  0  0  0  0  0  0  0  0  0
  181.2910  179.4140  137.7830 C   0  0  1  0  0  0  0  0  0  0  0  0
  187.6600  177.7660  136.5100 O   0  0  0  0  0  0  0  0  0  0  0  0
  188.5720  178.7980  136.8590 C   0  0  0  0  0  1  0  0  0  0  0  0
  179.0620  178.2250  137.3990 C   0  0  0  0  0  2  0  0  0  0  0  0
  179.0850  176.5780  135.5570 C   0  0  0  0  0  1  0  0  0  0  0  0
  179.0580  176.7490  137.0600 C   0  0  0  0  0  2  0  0  0  0  0  0
  181.1500  179.9320  136.3560 C   0  0  0  0  0  2  0  0  0  0  0  0
  180.5010  181.1670  136.3610 O   0  0  0  0  0  0  0  0  0  0  0  0
  180.7950  181.7220  135.1170 C   0  0  0  0  0  2  0  0  0  0  0  0
  181.0180  183.7890  136.3970 C   0  0  0  0  0  2  0  0  0  0  0  0
  180.7940  183.2070  135.2240 C   0  0  0  0  0  3  0  0  0  0  0  0
  183.3510  177.7940  141.3450 C   0  0  0  0  0  2  0  0  0  0  0  0
  183.7320  178.9940  142.1920 C   0  0  0  0  0  2  0  0  0  0  0  0
  184.3610  178.8980  144.6110 C   0  0  0  0  0  3  0  0  0  0  0  0
  184.6550  178.5730  143.2820 C   0  0  0  0  0  0  0  0  0  0  0  0
  185.8320  177.8820  142.9760 C   0  0  0  0  0  3  0  0  0  0  0  0
  187.9560  176.7670  143.6740 C   0  0  0  0  0  1  0  0  0  0  0  0
  186.4120  177.8260  145.3260 C   0  0  0  0  0  3  0  0  0  0  0  0
  186.7090  177.5060  143.9980 C   0  0  0  0  0  0  0  0  0  0  0  0
  185.2390  178.5230  145.6330 C   0  0  0  0  0  3  0  0  0  0  0  0
  1 21  1  6  0  0  0
  2 11  2  6  0  0  0
  3 14  1  0  0  0  0
  4 17  2  0  0  0  0
  4  6  1  0  0  0  0
  5  9  1  6  0  0  0
  5  2  1  0  0  0  0
  5  7  1  0  0  0  0
  6  9  2  0  0  0  0
  7 29  1  1  0  0  0
  8  6  1  0  0  0  0
  8 12  1  0  0  0  0
  9 13  1  0  0  0  0
 10 13  2  0  0  0  0
 12  2  1  0  0  0  0
 14  7  1  0  0  0  0
 15 12  2  0  0  0  0
 16  1  1  0  0  0  0
 16  5  1  0  0  0  0
 17 10  1  0  0  0  0
 18 16  1  0  0  0  0
 18  1  1  0  0  0  0
 18  3  1  0  0  0  0
 19 20  1  0  0  0  0
 19 17  1  0  0  0  0
 22 23  1  0  0  0  0
 23 21  1  0  0  0  0
 24 25  1  0  0  0  0
 24 18  1  0  0  0  0
 26 28  1  0  0  0  0
 26 25  1  0  0  0  0
 28 27  2  0  0  0  0
 29 30  1  0  0  0  0
 30 32  1  0  0  0  0
 31 37  1  0  0  0  0
 32 31  2  0  0  0  0
 33 32  1  0  0  0  0
 33 36  2  0  0  0  0
 34 36  1  0  0  0  0
 35 37  2  0  0  0  0
 36 35  1  0  0  0  0
M  END
>  <MODEL>
1

>  <REMARK>
 VINA RESULT:      -6.4      0.000      0.000
  Name = 
  10 active torsions:
  status: ('A' for Active; 'I' for Inactive)
    1  A    between atoms: C_1  and  C_5
    2  A    between atoms: O_3  and  C_32
    3  A    between atoms: C_5  and  C_23
    4  A    between atoms: C_6  and  C_31
    5  A    between atoms: C_14  and  C_37
    6  A    between atoms: O_17  and  C_26
    7  A    between atoms: O_17  and  C_33
    8  A    between atoms: C_26  and  C_34
    9  A    between atoms: C_31  and  C_37
   10  A    between atoms: C_33  and  C_36
                            x       y       z     vdW  Elec       q    Type
                         _______ _______ _______ _____ _____    ______ ____

>  <TORSDO>
F 10

$$$$
=
 OpenBabel10262422593D

 37 41  0  0  1  0  0  0  0  0999 V2000
  184.2430  178.1820  137.5540 C   0  0  1  0  0  3  0  0  0  0  0  0
  180.9990  176.9090  137.0720 S   0  0  1  0  0  0  0  0  0  0  0  0
  183.5180  180.1560  139.1480 C   0  0  0  0  0  2  0  0  0  0  0  0
  179.9140  176.8610  141.3630 C   0  0  0  0  0  3  0  0  0  0  0  0
  181.7350  178.1200  138.2100 C   0  0  1  0  0  0  0  0  0  0  0  0
  180.5190  176.8590  140.1030 C   0  0  0  0  0  0  0  0  0  0  0  0
  181.6750  179.4970  137.4790 C   0  0  2  0  0  3  0  0  0  0  0  0
  180.6770  175.6200  139.4670 O   0  0  0  0  0  0  0  0  0  0  0  0
  180.9440  178.0870  139.5210 C   0  0  0  0  0  0  0  0  0  0  0  0
  180.1230  179.2590  141.5010 C   0  0  0  0  0  3  0  0  0  0  0  0
  182.1090  176.5960  136.0750 O   0  0  0  0  0  0  0  0  0  0  0  0
  180.9340  175.4780  138.1050 C   0  0  0  0  0  0  0  0  0  0  0  0
  180.7420  179.2720  140.2520 C   0  0  0  0  0  3  0  0  0  0  0  0
  182.6120  180.5970  138.0010 C   0  0  0  0  0  2  0  0  0  0  0  0
  181.0960  174.3320  137.6130 O   0  0  0  0  0  0  0  0  0  0  0  0
  183.1860  177.6610  138.5350 C   0  0  2  0  0  3  0  0  0  0  0  0
  179.7070  178.0540  142.0650 C   0  0  0  0  0  0  0  0  0  0  0  0
  184.1400  178.7670  138.9670 C   0  0  1  0  0  0  0  0  0  0  0  0
  179.0950  178.0710  143.3210 O   0  0  0  0  0  0  0  0  0  0  0  0
  179.3680  179.0680  144.2960 C   0  0  0  0  0  1  0  0  0  0  0  0
  185.3420  177.1430  137.4030 C   0  0  0  0  0  2  0  0  0  0  0  0
  187.7650  177.6140  137.2920 C   0  0  0  0  0  1  0  0  0  0  0  0
  186.4540  177.7020  136.5410 C   0  0  0  0  0  2  0  0  0  0  0  0
  185.1180  178.3040  140.0410 C   0  0  0  0  0  2  0  0  0  0  0  0
  184.9900  179.1060  141.1770 O   0  0  0  0  0  0  0  0  0  0  0  0
  184.1630  178.3760  142.0290 C   0  0  0  0  0  2  0  0  0  0  0  0
  183.0830  178.6950  144.1960 C   0  0  0  0  0  2  0  0  0  0  0  0
  183.8070  179.2120  143.2090 C   0  0  0  0  0  3  0  0  0  0  0  0
  180.2600  180.0240  137.2580 C   0  0  0  0  0  2  0  0  0  0  0  0
  180.1660  180.7530  135.9300 C   0  0  0  0  0  2  0  0  0  0  0  0
  180.8080  183.0730  135.2480 C   0  0  0  0  0  3  0  0  0  0  0  0
  180.1680  182.2240  136.1590 C   0  0  0  0  0  0  0  0  0  0  0  0
  179.5600  182.7580  137.3000 C   0  0  0  0  0  3  0  0  0  0  0  0
  178.9310  184.7030  138.7340 C   0  0  0  0  0  1  0  0  0  0  0  0
  180.2160  184.9840  136.6120 C   0  0  0  0  0  3  0  0  0  0  0  0
  179.5820  184.1370  137.5260 C   0  0  0  0  0  0  0  0  0  0  0  0
  180.8310  184.4520  135.4740 C   0  0  0  0  0  3  0  0  0  0  0  0
  1 21  1  1  0  0  0
  1 16  1  0  0  0  0
  1 18  1  0  0  0  0
  2 11  2  6  0  0  0
  2 12  1  0  0  0  0
  2  5  1  0  0  0  0
  4 17  1  0  0  0  0
  5 16  1  0  0  0  0
  5  9  1  1  0  0  0
  6  4  2  0  0  0  0
  7 29  1  1  0  0  0
  7 14  1  0  0  0  0
  7  5  1  0  0  0  0
  8  6  1  0  0  0  0
  9  6  1  0  0  0  0
  9 13  2  0  0  0  0
 10 17  2  0  0  0  0
 12  8  1  0  0  0  0
 13 10  1  0  0  0  0
 14  3  1  0  0  0  0
 15 12  2  0  0  0  0
 16 18  1  0  0  0  0
 17 19  1  0  0  0  0
 18  3  1  0  0  0  0
 18 24  1  0  0  0  0
 19 20  1  0  0  0  0
 23 22  1  0  0  0  0
 23 21  1  0  0  0  0
 24 25  1  0  0  0  0
 25 26  1  0  0  0  0
 26 28  1  0  0  0  0
 28 27  2  0  0  0  0
 30 32  1  0  0  0  0
 30 29  1  0  0  0  0
 31 37  2  0  0  0  0
 31 32  1  0  0  0  0
 32 33  2  0  0  0  0
 33 36  1  0  0  0  0
 35 36  2  0  0  0  0
 36 34  1  0  0  0  0
 37 35  1  0  0  0  0
M  END
>  <MODEL>
2

>  <REMARK>
 VINA RESULT:      -6.3      2.170      7.511
  Name = 
  10 active torsions:
  status: ('A' for Active; 'I' for Inactive)
    1  A    between atoms: C_1  and  C_5
    2  A    between atoms: O_3  and  C_32
    3  A    between atoms: C_5  and  C_23
    4  A    between atoms: C_6  and  C_31
    5  A    between atoms: C_14  and  C_37
    6  A    between atoms: O_17  and  C_26
    7  A    between atoms: O_17  and  C_33
    8  A    between atoms: C_26  and  C_34
    9  A    between atoms: C_31  and  C_37
   10  A    between atoms: C_33  and  C_36
                            x       y       z     vdW  Elec       q    Type
                         _______ _______ _______ _____ _____    ______ ____

>  <TORSDO>
F 10

$$$$
=
 OpenBabel10262422593D

 37 41  0  0  1  0  0  0  0  0999 V2000
  190.9160  177.5900  140.9350 C   0  0  1  0  0  3  0  0  0  0  0  0
  192.0370  176.7430  137.7090 S   0  0  1  0  0  0  0  0  0  0  0  0
  188.3460  177.5350  140.3450 C   0  0  0  0  0  2  0  0  0  0  0  0
  189.2990  173.3040  137.1910 C   0  0  0  0  0  3  0  0  0  0  0  0
  190.4190  176.7360  138.5370 C   0  0  1  0  0  0  0  0  0  0  0  0
  190.1300  174.3400  137.6280 C   0  0  0  0  0  0  0  0  0  0  0  0
  189.8160  178.1600  138.3290 C   0  0  2  0  0  3  0  0  0  0  0  0
  191.4980  174.0590  137.7520 O   0  0  0  0  0  0  0  0  0  0  0  0
  189.5730  175.6150  137.9250 C   0  0  0  0  0  0  0  0  0  0  0  0
  187.3710  174.7460  137.3210 C   0  0  0  0  0  3  0  0  0  0  0  0
  192.9670  177.4450  138.6920 O   0  0  0  0  0  0  0  0  0  0  0  0
  192.4830  175.0390  137.8350 C   0  0  0  0  0  0  0  0  0  0  0  0
  188.1840  175.7850  137.7720 C   0  0  0  0  0  3  0  0  0  0  0  0
  188.6840  178.5770  139.2810 C   0  0  0  0  0  2  0  0  0  0  0  0
  193.6880  174.7080  137.9770 O   0  0  0  0  0  0  0  0  0  0  0  0
  190.6420  176.3780  140.0350 C   0  0  2  0  0  3  0  0  0  0  0  0
  187.9220  173.5000  137.0300 C   0  0  0  0  0  0  0  0  0  0  0  0
  189.5640  176.8690  140.9930 C   0  0  1  0  0  0  0  0  0  0  0  0
  187.0820  172.4750  136.5850 O   0  0  0  0  0  0  0  0  0  0  0  0
  187.4990  171.4920  135.6480 C   0  0  0  0  0  1  0  0  0  0  0  0
  191.8720  177.1830  142.0450 C   0  0  0  0  0  2  0  0  0  0  0  0
  191.6670  177.3180  144.5040 C   0  0  0  0  0  1  0  0  0  0  0  0
  191.7110  178.1220  143.2220 C   0  0  0  0  0  2  0  0  0  0  0  0
  189.2910  175.8790  142.1190 C   0  0  0  0  0  2  0  0  0  0  0  0
  188.0550  176.1540  142.7030 O   0  0  0  0  0  0  0  0  0  0  0  0
  188.3690  176.7200  143.9380 C   0  0  0  0  0  2  0  0  0  0  0  0
  187.1690  177.8180  145.7590 C   0  0  0  0  0  2  0  0  0  0  0  0
  187.1560  177.3680  144.5090 C   0  0  0  0  0  3  0  0  0  0  0  0
  189.4760  178.4850  136.8780 C   0  0  0  0  0  2  0  0  0  0  0  0
  188.1980  179.3010  136.8010 C   0  0  0  0  0  2  0  0  0  0  0  0
  187.0930  177.9080  135.0410 C   0  0  0  0  0  3  0  0  0  0  0  0
  187.0750  178.4410  136.3350 C   0  0  0  0  0  0  0  0  0  0  0  0
  185.9860  178.1930  137.1770 C   0  0  0  0  0  3  0  0  0  0  0  0
  183.7680  177.1350  137.6270 C   0  0  0  0  0  1  0  0  0  0  0  0
  184.9430  176.8670  135.4400 C   0  0  0  0  0  3  0  0  0  0  0  0
  184.9210  177.4040  136.7300 C   0  0  0  0  0  0  0  0  0  0  0  0
  186.0280  177.1200  134.5940 C   0  0  0  0  0  3  0  0  0  0  0  0
  1 18  1  0  0  0  0
  1 21  1  1  0  0  0
  2 12  1  0  0  0  0
  2  5  1  0  0  0  0
  2 11  2  1  0  0  0
  3 18  1  0  0  0  0
  4  6  1  0  0  0  0
  5  9  1  6  0  0  0
  5 16  1  0  0  0  0
  6  8  1  0  0  0  0
  6  9  2  0  0  0  0
  7 29  1  6  0  0  0
  7  5  1  0  0  0  0
  7 14  1  0  0  0  0
  8 12  1  0  0  0  0
 10 13  2  0  0  0  0
 12 15  2  0  0  0  0
 13  9  1  0  0  0  0
 14  3  1  0  0  0  0
 16  1  1  0  0  0  0
 16 18  1  0  0  0  0
 17  4  2  0  0  0  0
 17 10  1  0  0  0  0
 18 24  1  0  0  0  0
 19 17  1  0  0  0  0
 20 19  1  0  0  0  0
 21 23  1  0  0  0  0
 23 22  1  0  0  0  0
 24 25  1  0  0  0  0
 25 26  1  0  0  0  0
 26 28  1  0  0  0  0
 28 27  2  0  0  0  0
 30 29  1  0  0  0  0
 31 32  1  0  0  0  0
 32 30  1  0  0  0  0
 32 33  2  0  0  0  0
 35 36  2  0  0  0  0
 36 33  1  0  0  0  0
 36 34  1  0  0  0  0
 37 31  2  0  0  0  0
 37 35  1  0  0  0  0
M  END
>  <MODEL>
3

>  <REMARK>
 VINA RESULT:      -6.3      4.497      9.450
  Name = 
  10 active torsions:
  status: ('A' for Active; 'I' for Inactive)
    1  A    between atoms: C_1  and  C_5
    2  A    between atoms: O_3  and  C_32
    3  A    between atoms: C_5  and  C_23
    4  A    between atoms: C_6  and  C_31
    5  A    between atoms: C_14  and  C_37
    6  A    between atoms: O_17  and  C_26
    7  A    between atoms: O_17  and  C_33
    8  A    between atoms: C_26  and  C_34
    9  A    between atoms: C_31  and  C_37
   10  A    between atoms: C_33  and  C_36
                            x       y       z     vdW  Elec       q    Type
                         _______ _______ _______ _____ _____    ______ ____

>  <TORSDO>
F 10

$$$$
=
 OpenBabel10262422593D

 37 41  0  0  1  0  0  0  0  0999 V2000
  180.5630  179.5770  138.9580 C   0  0  1  0  0  3  0  0  0  0  0  0
  180.9880  176.4700  140.5530 S   0  0  1  0  0  0  0  0  0  0  0  0
  183.0990  179.8850  138.2990 C   0  0  0  0  0  2  0  0  0  0  0  0
  183.3310  174.6250  137.2820 C   0  0  0  0  0  3  0  0  0  0  0  0
  182.0320  177.5060  139.4860 C   0  0  1  0  0  0  0  0  0  0  0  0
  182.4900  175.3720  138.1120 C   0  0  0  0  0  0  0  0  0  0  0  0
  182.7900  178.4860  140.4350 C   0  0  2  0  0  3  0  0  0  0  0  0
  181.2010  174.8710  138.3400 O   0  0  0  0  0  0  0  0  0  0  0  0
  182.9600  176.5860  138.6860 C   0  0  0  0  0  0  0  0  0  0  0  0
  185.1030  176.2350  137.5660 C   0  0  0  0  0  3  0  0  0  0  0  0
  179.7770  177.3400  140.8660 O   0  0  0  0  0  0  0  0  0  0  0  0
  180.3820  175.2930  139.3840 C   0  0  0  0  0  0  0  0  0  0  0  0
  184.2720  176.9990  138.3840 C   0  0  0  0  0  3  0  0  0  0  0  0
  183.3860  179.7470  139.7930 C   0  0  0  0  0  2  0  0  0  0  0  0
  179.2230  174.8190  139.5040 O   0  0  0  0  0  0  0  0  0  0  0  0
  181.1110  178.2330  138.4630 C   0  0  2  0  0  3  0  0  0  0  0  0
  184.6390  175.0460  137.0090 C   0  0  0  0  0  0  0  0  0  0  0  0
  181.6640  179.5320  137.8930 C   0  0  1  0  0  0  0  0  0  0  0  0
  185.4930  174.3040  136.1880 O   0  0  0  0  0  0  0  0  0  0  0  0
  186.8830  174.1690  136.4490 C   0  0  0  0  0  1  0  0  0  0  0  0
  179.1710  179.7910  138.3880 C   0  0  0  0  0  2  0  0  0  0  0  0
  179.4650  182.0620  139.3190 C   0  0  0  0  0  1  0  0  0  0  0  0
  178.9460  181.2680  138.1390 C   0  0  0  0  0  2  0  0  0  0  0  0
  181.2960  179.7270  136.4270 C   0  0  0  0  0  2  0  0  0  0  0  0
  181.2110  178.4890  135.7900 O   0  0  0  0  0  0  0  0  0  0  0  0
  180.1980  178.6490  134.8460 C   0  0  0  0  0  2  0  0  0  0  0  0
  179.5160  176.4730  135.7170 C   0  0  0  0  0  2  0  0  0  0  0  0
  179.3810  177.4060  134.7810 C   0  0  0  0  0  3  0  0  0  0  0  0
  183.7890  177.8030  141.3650 C   0  0  0  0  0  2  0  0  0  0  0  0
  184.0210  178.6450  142.6060 C   0  0  0  0  0  2  0  0  0  0  0  0
  186.3990  177.8860  142.4400 C   0  0  0  0  0  3  0  0  0  0  0  0
  185.3150  178.2700  143.2390 C   0  0  0  0  0  0  0  0  0  0  0  0
  185.4400  178.2670  144.6320 C   0  0  0  0  0  3  0  0  0  0  0  0
  186.7820  177.8970  146.7060 C   0  0  0  0  0  1  0  0  0  0  0  0
  187.7320  177.5160  144.4280 C   0  0  0  0  0  3  0  0  0  0  0  0
  186.6490  177.8930  145.2270 C   0  0  0  0  0  0  0  0  0  0  0  0
  187.6080  177.5110  143.0350 C   0  0  0  0  0  3  0  0  0  0  0  0
  1 21  1  6  0  0  0
  2 11  2  6  0  0  0
  3 14  1  0  0  0  0
  4  6  1  0  0  0  0
  5  9  1  6  0  0  0
  5  7  1  0  0  0  0
  5  2  1  0  0  0  0
  6  8  1  0  0  0  0
  6  9  2  0  0  0  0
  7 29  1  6  0  0  0
  8 12  1  0  0  0  0
 10 13  2  0  0  0  0
 12 15  2  0  0  0  0
 12  2  1  0  0  0  0
 13  9  1  0  0  0  0
 14  7  1  0  0  0  0
 16  1  1  0  0  0  0
 16  5  1  0  0  0  0
 17  4  2  0  0  0  0
 17 10  1  0  0  0  0
 18  3  1  0  0  0  0
 18 16  1  0  0  0  0
 18  1  1  0  0  0  0
 19 20  1  0  0  0  0
 19 17  1  0  0  0  0
 23 21  1  0  0  0  0
 23 22  1  0  0  0  0
 24 18  1  0  0  0  0
 25 24  1  0  0  0  0
 26 25  1  0  0  0  0
 28 26  1  0  0  0  0
 28 27  2  0  0  0  0
 29 30  1  0  0  0  0
 30 32  1  0  0  0  0
 31 37  2  0  0  0  0
 31 32  1  0  0  0  0
 32 33  2  0  0  0  0
 33 36  1  0  0  0  0
 35 36  2  0  0  0  0
 36 34  1  0  0  0  0
 37 35  1  0  0  0  0
M  END
>  <MODEL>
4

>  <REMARK>
 VINA RESULT:      -5.8      1.820      3.028
  Name = 
  10 active torsions:
  status: ('A' for Active; 'I' for Inactive)
    1  A    between atoms: C_1  and  C_5
    2  A    between atoms: O_3  and  C_32
    3  A    between atoms: C_5  and  C_23
    4  A    between atoms: C_6  and  C_31
    5  A    between atoms: C_14  and  C_37
    6  A    between atoms: O_17  and  C_26
    7  A    between atoms: O_17  and  C_33
    8  A    between atoms: C_26  and  C_34
    9  A    between atoms: C_31  and  C_37
   10  A    between atoms: C_33  and  C_36
                            x       y       z     vdW  Elec       q    Type
                         _______ _______ _______ _____ _____    ______ ____

>  <TORSDO>
F 10

$$$$
=
 OpenBabel10262422593D

 37 41  0  0  1  0  0  0  0  0999 V2000
  180.7580  178.2210  139.6540 C   0  0  1  0  0  3  0  0  0  0  0  0
  179.8660  177.6610  136.2970 S   0  0  1  0  0  0  0  0  0  0  0  0
  182.2680  176.0710  139.8890 C   0  0  0  0  0  2  0  0  0  0  0  0
  183.9890  176.8990  134.8780 C   0  0  0  0  0  3  0  0  0  0  0  0
  181.0970  176.9420  137.4240 C   0  0  1  0  0  0  0  0  0  0  0  0
  182.8140  177.2840  135.5300 C   0  0  0  0  0  0  0  0  0  0  0  0
  180.3780  175.7760  138.1700 C   0  0  2  0  0  3  0  0  0  0  0  0
  182.1910  178.4610  135.0900 O   0  0  0  0  0  0  0  0  0  0  0  0
  182.3010  176.4880  136.5910 C   0  0  0  0  0  0  0  0  0  0  0  0
  184.1750  174.9500  136.2850 C   0  0  0  0  0  3  0  0  0  0  0  0
  179.0110  178.5570  137.1850 O   0  0  0  0  0  0  0  0  0  0  0  0
  180.8700  178.7910  135.3840 C   0  0  0  0  0  0  0  0  0  0  0  0
  183.0120  175.3290  136.9550 C   0  0  0  0  0  3  0  0  0  0  0  0
  181.0220  175.2900  139.4770 C   0  0  0  0  0  2  0  0  0  0  0  0
  180.3910  179.8820  134.9800 O   0  0  0  0  0  0  0  0  0  0  0  0
  181.5960  178.0650  138.3790 C   0  0  2  0  0  3  0  0  0  0  0  0
  184.6710  175.7330  135.2450 C   0  0  0  0  0  0  0  0  0  0  0  0
  182.1530  177.5890  139.7140 C   0  0  1  0  0  0  0  0  0  0  0  0
  185.8420  175.3310  134.5960 O   0  0  0  0  0  0  0  0  0  0  0  0
  187.1350  175.5260  135.1540 C   0  0  0  0  0  1  0  0  0  0  0  0
  180.7340  179.6860  140.0610 C   0  0  0  0  0  2  0  0  0  0  0  0
  180.5120  179.2530  142.4840 C   0  0  0  0  0  1  0  0  0  0  0  0
  179.8410  179.8610  141.2710 C   0  0  0  0  0  2  0  0  0  0  0  0
  183.3360  178.4280  140.1830 C   0  0  0  0  0  2  0  0  0  0  0  0
  183.9110  177.8470  141.3140 O   0  0  0  0  0  0  0  0  0  0  0  0
  184.2810  178.9280  142.1130 C   0  0  0  0  0  2  0  0  0  0  0  0
  183.6410  179.0030  144.4680 C   0  0  0  0  0  2  0  0  0  0  0  0
  184.4150  178.4760  143.5250 C   0  0  0  0  0  3  0  0  0  0  0  0
  179.9880  174.6070  137.2690 C   0  0  0  0  0  2  0  0  0  0  0  0
  180.0740  173.2970  138.0300 C   0  0  0  0  0  2  0  0  0  0  0  0
  179.5740  171.3830  136.5000 C   0  0  0  0  0  3  0  0  0  0  0  0
  180.5200  172.2090  137.1180 C   0  0  0  0  0  0  0  0  0  0  0  0
  181.8850  171.9880  136.9040 C   0  0  0  0  0  3  0  0  0  0  0  0
  183.7520  170.7220  135.8320 C   0  0  0  0  0  1  0  0  0  0  0  0
  181.3580  170.1310  135.4430 C   0  0  0  0  0  3  0  0  0  0  0  0
  182.3040  170.9520  136.0640 C   0  0  0  0  0  0  0  0  0  0  0  0
  179.9930  170.3450  135.6610 C   0  0  0  0  0  3  0  0  0  0  0  0
  1 18  1  0  0  0  0
  1 21  1  1  0  0  0
  2 11  2  1  0  0  0
  2  5  1  0  0  0  0
  4 17  2  0  0  0  0
  4  6  1  0  0  0  0
  5  9  1  6  0  0  0
  5  7  1  0  0  0  0
  5 16  1  0  0  0  0
  6  9  2  0  0  0  0
  7 29  1  6  0  0  0
  7 14  1  0  0  0  0
  8 12  1  0  0  0  0
  8  6  1  0  0  0  0
  9 13  1  0  0  0  0
 10 13  2  0  0  0  0
 12  2  1  0  0  0  0
 14  3  1  0  0  0  0
 15 12  2  0  0  0  0
 16  1  1  0  0  0  0
 16 18  1  0  0  0  0
 17 10  1  0  0  0  0
 18  3  1  0  0  0  0
 18 24  1  0  0  0  0
 19 20  1  0  0  0  0
 19 17  1  0  0  0  0
 21 23  1  0  0  0  0
 23 22  1  0  0  0  0
 24 25  1  0  0  0  0
 25 26  1  0  0  0  0
 26 28  1  0  0  0  0
 28 27  2  0  0  0  0
 29 30  1  0  0  0  0
 31 32  1  0  0  0  0
 32 30  1  0  0  0  0
 33 32  2  0  0  0  0
 34 36  1  0  0  0  0
 35 37  1  0  0  0  0
 35 36  2  0  0  0  0
 36 33  1  0  0  0  0
 37 31  2  0  0  0  0
M  END
>  <MODEL>
5

>  <REMARK>
 VINA RESULT:      -5.6      2.859      6.894
  Name = 
  10 active torsions:
  status: ('A' for Active; 'I' for Inactive)
    1  A    between atoms: C_1  and  C_5
    2  A    between atoms: O_3  and  C_32
    3  A    between atoms: C_5  and  C_23
    4  A    between atoms: C_6  and  C_31
    5  A    between atoms: C_14  and  C_37
    6  A    between atoms: O_17  and  C_26
    7  A    between atoms: O_17  and  C_33
    8  A    between atoms: C_26  and  C_34
    9  A    between atoms: C_31  and  C_37
   10  A    between atoms: C_33  and  C_36
                            x       y       z     vdW  Elec       q    Type
                         _______ _______ _______ _____ _____    ______ ____

>  <TORSDO>
F 10

$$$$
=
 OpenBabel10262422593D

 37 41  0  0  1  0  0  0  0  0999 V2000
  179.8970  179.2910  141.7000 C   0  0  1  0  0  3  0  0  0  0  0  0
  180.3730  180.3920  138.3930 S   0  0  1  0  0  0  0  0  0  0  0  0
  180.8090  176.8480  141.2990 C   0  0  0  0  0  2  0  0  0  0  0  0
  184.5320  178.9180  138.0430 C   0  0  0  0  0  3  0  0  0  0  0  0
  180.9030  178.9320  139.3370 C   0  0  1  0  0  0  0  0  0  0  0  0
  183.2730  179.3880  138.4280 C   0  0  0  0  0  0  0  0  0  0  0  0
  179.7620  177.8780  139.1880 C   0  0  2  0  0  3  0  0  0  0  0  0
  183.0840  180.7770  138.4480 O   0  0  0  0  0  0  0  0  0  0  0  0
  182.2500  178.4630  138.7770 C   0  0  0  0  0  0  0  0  0  0  0  0
  183.8080  176.6360  138.3270 C   0  0  0  0  0  3  0  0  0  0  0  0
  179.3890  181.1060  139.3120 O   0  0  0  0  0  0  0  0  0  0  0  0
  181.8310  181.3850  138.4680 C   0  0  0  0  0  0  0  0  0  0  0  0
  182.5520  177.0890  138.7280 C   0  0  0  0  0  3  0  0  0  0  0  0
  179.7300  176.7440  140.2240 C   0  0  0  0  0  2  0  0  0  0  0  0
  181.7430  182.6390  138.5190 O   0  0  0  0  0  0  0  0  0  0  0  0
  181.1450  179.3690  140.8110 C   0  0  2  0  0  3  0  0  0  0  0  0
  184.8060  177.5460  137.9840 C   0  0  0  0  0  0  0  0  0  0  0  0
  181.0240  178.2620  141.8500 C   0  0  1  0  0  0  0  0  0  0  0  0
  186.0570  177.0630  137.5920 O   0  0  0  0  0  0  0  0  0  0  0  0
  187.2580  177.7990  137.7790 C   0  0  0  0  0  1  0  0  0  0  0  0
  179.9480  180.4050  142.7340 C   0  0  0  0  0  2  0  0  0  0  0  0
  179.2200  178.7920  144.4590 C   0  0  0  0  0  1  0  0  0  0  0  0
  178.9310  180.1340  143.8210 C   0  0  0  0  0  2  0  0  0  0  0  0
  182.0320  178.4140  142.9830 C   0  0  0  0  0  2  0  0  0  0  0  0
  183.0450  179.2950  142.6020 O   0  0  0  0  0  0  0  0  0  0  0  0
  184.2250  178.6480  142.9620 C   0  0  0  0  0  2  0  0  0  0  0  0
  186.0420  178.9870  141.3670 C   0  0  0  0  0  2  0  0  0  0  0  0
  184.9820  178.2770  141.7350 C   0  0  0  0  0  3  0  0  0  0  0  0
  179.5890  177.3460  137.7680 C   0  0  0  0  0  2  0  0  0  0  0  0
  179.3000  175.8560  137.7910 C   0  0  0  0  0  2  0  0  0  0  0  0
  180.8360  175.6630  135.8260 C   0  0  0  0  0  3  0  0  0  0  0  0
  180.3430  175.1250  137.0200 C   0  0  0  0  0  0  0  0  0  0  0  0
  180.8080  173.8840  137.4710 C   0  0  0  0  0  3  0  0  0  0  0  0
  182.2690  171.8740  137.2170 C   0  0  0  0  0  1  0  0  0  0  0  0
  182.2670  173.7290  135.5450 C   0  0  0  0  0  3  0  0  0  0  0  0
  181.7710  173.1880  136.7350 C   0  0  0  0  0  0  0  0  0  0  0  0
  181.7980  174.9650  135.0890 C   0  0  0  0  0  3  0  0  0  0  0  0
  1 18  1  0  0  0  0
  1 21  1  1  0  0  0
  2 12  1  0  0  0  0
  2 11  2  1  0  0  0
  2  5  1  0  0  0  0
  3 18  1  0  0  0  0
  4  6  1  0  0  0  0
  5  9  1  6  0  0  0
  5 16  1  0  0  0  0
  6  8  1  0  0  0  0
  6  9  2  0  0  0  0
  7 29  1  6  0  0  0
  7  5  1  0  0  0  0
  7 14  1  0  0  0  0
  8 12  1  0  0  0  0
 10 13  2  0  0  0  0
 12 15  2  0  0  0  0
 13  9  1  0  0  0  0
 14  3  1  0  0  0  0
 16  1  1  0  0  0  0
 16 18  1  0  0  0  0
 17  4  2  0  0  0  0
 17 10  1  0  0  0  0
 18 24  1  0  0  0  0
 19 20  1  0  0  0  0
 19 17  1  0  0  0  0
 21 23  1  0  0  0  0
 23 22  1  0  0  0  0
 25 26  1  0  0  0  0
 25 24  1  0  0  0  0
 27 28  2  0  0  0  0
 28 26  1  0  0  0  0
 29 30  1  0  0  0  0
 31 32  1  0  0  0  0
 32 33  2  0  0  0  0
 32 30  1  0  0  0  0
 35 36  2  0  0  0  0
 36 34  1  0  0  0  0
 36 33  1  0  0  0  0
 37 35  1  0  0  0  0
 37 31  2  0  0  0  0
M  END
>  <MODEL>
6

>  <REMARK>
 VINA RESULT:      -4.8      2.553      6.647
  Name = 
  10 active torsions:
  status: ('A' for Active; 'I' for Inactive)
    1  A    between atoms: C_1  and  C_5
    2  A    between atoms: O_3  and  C_32
    3  A    between atoms: C_5  and  C_23
    4  A    between atoms: C_6  and  C_31
    5  A    between atoms: C_14  and  C_37
    6  A    between atoms: O_17  and  C_26
    7  A    between atoms: O_17  and  C_33
    8  A    between atoms: C_26  and  C_34
    9  A    between atoms: C_31  and  C_37
   10  A    between atoms: C_33  and  C_36
                            x       y       z     vdW  Elec       q    Type
                         _______ _______ _______ _____ _____    ______ ____

>  <TORSDO>
F 10

$$$$
=
 OpenBabel10262422593D

 37 41  0  0  1  0  0  0  0  0999 V2000
  181.1440  178.6430  137.3850 C   0  0  1  0  0  3  0  0  0  0  0  0
  181.0430  175.8480  139.5200 S   0  0  1  0  0  0  0  0  0  0  0  0
  183.7750  178.7880  137.2640 C   0  0  0  0  0  2  0  0  0  0  0  0
  183.9320  173.4290  137.1970 C   0  0  0  0  0  3  0  0  0  0  0  0
  182.3490  176.6680  138.5570 C   0  0  1  0  0  0  0  0  0  0  0  0
  182.9740  174.3220  137.6860 C   0  0  0  0  0  0  0  0  0  0  0  0
  182.9360  177.7820  139.4770 C   0  0  2  0  0  3  0  0  0  0  0  0
  181.6400  173.8900  137.7010 O   0  0  0  0  0  0  0  0  0  0  0  0
  183.3760  175.6080  138.1440 C   0  0  0  0  0  0  0  0  0  0  0  0
  185.6870  175.0320  137.6000 C   0  0  0  0  0  3  0  0  0  0  0  0
  179.8430  176.7810  139.4100 O   0  0  0  0  0  0  0  0  0  0  0  0
  180.6400  174.4990  138.4540 C   0  0  0  0  0  0  0  0  0  0  0  0
  184.7420  175.9390  138.0770 C   0  0  0  0  0  3  0  0  0  0  0  0
  183.7260  178.9040  138.7860 C   0  0  0  0  0  2  0  0  0  0  0  0
  179.4580  174.0730  138.3900 O   0  0  0  0  0  0  0  0  0  0  0  0
  181.7110  177.2240  137.2500 C   0  0  2  0  0  3  0  0  0  0  0  0
  185.2880  173.7730  137.1560 C   0  0  0  0  0  0  0  0  0  0  0  0
  182.4450  178.3970  136.6130 C   0  0  1  0  0  0  0  0  0  0  0  0
  186.2570  172.8860  136.6780 O   0  0  0  0  0  0  0  0  0  0  0  0
  187.6380  173.2180  136.6150 C   0  0  0  0  0  1  0  0  0  0  0  0
  179.9210  178.7810  136.4930 C   0  0  0  0  0  2  0  0  0  0  0  0
  179.8470  181.0910  137.3680 C   0  0  0  0  0  1  0  0  0  0  0  0
  179.7230  180.2360  136.1250 C   0  0  0  0  0  2  0  0  0  0  0  0
  182.4120  178.3440  135.0900 C   0  0  0  0  0  2  0  0  0  0  0  0
  183.7010  178.1440  134.5940 O   0  0  0  0  0  0  0  0  0  0  0  0
  183.9230  176.7750  134.7350 C   0  0  0  0  0  2  0  0  0  0  0  0
  186.2640  177.4250  134.9740 C   0  0  0  0  0  2  0  0  0  0  0  0
  185.3810  176.4960  134.6260 C   0  0  0  0  0  3  0  0  0  0  0  0
  183.6730  177.2520  140.7040 C   0  0  0  0  0  2  0  0  0  0  0  0
  184.6840  178.2700  141.1970 C   0  0  0  0  0  2  0  0  0  0  0  0
  183.4210  178.8520  143.2770 C   0  0  0  0  0  3  0  0  0  0  0  0
  184.6000  178.3910  142.6790 C   0  0  0  0  0  0  0  0  0  0  0  0
  185.7080  178.0770  143.4730 C   0  0  0  0  0  3  0  0  0  0  0  0
  186.8100  177.8730  145.7050 C   0  0  0  0  0  1  0  0  0  0  0  0
  184.4560  178.6680  145.4590 C   0  0  0  0  0  3  0  0  0  0  0  0
  185.6360  178.2130  144.8620 C   0  0  0  0  0  0  0  0  0  0  0  0
  183.3490  178.9890  144.6660 C   0  0  0  0  0  3  0  0  0  0  0  0
  1 21  1  6  0  0  0
  2 11  2  6  0  0  0
  3 14  1  0  0  0  0
  4  6  1  0  0  0  0
  5  9  1  6  0  0  0
  5  7  1  0  0  0  0
  5  2  1  0  0  0  0
  6  8  1  0  0  0  0
  6  9  2  0  0  0  0
  7 29  1  1  0  0  0
  8 12  1  0  0  0  0
 10 13  2  0  0  0  0
 12  2  1  0  0  0  0
 13  9  1  0  0  0  0
 14  7  1  0  0  0  0
 15 12  2  0  0  0  0
 16  1  1  0  0  0  0
 16  5  1  0  0  0  0
 17  4  2  0  0  0  0
 17 10  1  0  0  0  0
 18 16  1  0  0  0  0
 18  3  1  0  0  0  0
 18  1  1  0  0  0  0
 19 17  1  0  0  0  0
 20 19  1  0  0  0  0
 23 21  1  0  0  0  0
 23 22  1  0  0  0  0
 24 18  1  0  0  0  0
 25 26  1  0  0  0  0
 25 24  1  0  0  0  0
 28 26  1  0  0  0  0
 28 27  2  0  0  0  0
 29 30  1  0  0  0  0
 30 32  1  0  0  0  0
 31 37  1  0  0  0  0
 32 31  2  0  0  0  0
 32 33  1  0  0  0  0
 33 36  2  0  0  0  0
 36 35  1  0  0  0  0
 36 34  1  0  0  0  0
 37 35  2  0  0  0  0
M  END
>  <MODEL>
7

>  <REMARK>
 VINA RESULT:      -4.6      1.988      3.365
  Name = 
  10 active torsions:
  status: ('A' for Active; 'I' for Inactive)
    1  A    between atoms: C_1  and  C_5
    2  A    between atoms: O_3  and  C_32
    3  A    between atoms: C_5  and  C_23
    4  A    between atoms: C_6  and  C_31
    5  A    between atoms: C_14  and  C_37
    6  A    between atoms: O_17  and  C_26
    7  A    between atoms: O_17  and  C_33
    8  A    between atoms: C_26  and  C_34
    9  A    between atoms: C_31  and  C_37
   10  A    between atoms: C_33  and  C_36
                            x       y       z     vdW  Elec       q    Type
                         _______ _______ _______ _____ _____    ______ ____

>  <TORSDO>
F 10

$$$$
=
 OpenBabel10262422593D

 37 41  0  0  1  0  0  0  0  0999 V2000
  185.0140  178.6180  138.1160 C   0  0  1  0  0  3  0  0  0  0  0  0
  182.9200  176.7260  136.0140 S   0  0  1  0  0  0  0  0  0  0  0  0
  183.0930  179.4550  139.7190 C   0  0  0  0  0  2  0  0  0  0  0  0
  180.8130  174.6210  139.2890 C   0  0  0  0  0  3  0  0  0  0  0  0
  182.7080  177.5350  137.6280 C   0  0  1  0  0  0  0  0  0  0  0  0
  181.6840  175.3130  138.4430 C   0  0  0  0  0  0  0  0  0  0  0  0
  182.2650  179.0010  137.3270 C   0  0  2  0  0  3  0  0  0  0  0  0
  182.5340  174.5490  137.6300 O   0  0  0  0  0  0  0  0  0  0  0  0
  181.6790  176.7360  138.4330 C   0  0  0  0  0  0  0  0  0  0  0  0
  179.9150  176.6970  140.1230 C   0  0  0  0  0  3  0  0  0  0  0  0
  184.2850  177.1980  135.5250 O   0  0  0  0  0  0  0  0  0  0  0  0
  183.1950  175.0550  136.5140 C   0  0  0  0  0  0  0  0  0  0  0  0
  180.7880  177.4010  139.2960 C   0  0  0  0  0  3  0  0  0  0  0  0
  182.4450  180.0240  138.4590 C   0  0  0  0  0  2  0  0  0  0  0  0
  183.9680  174.3140  135.8520 O   0  0  0  0  0  0  0  0  0  0  0  0
  184.0600  177.4490  138.3950 C   0  0  2  0  0  3  0  0  0  0  0  0
  179.9230  175.3030  140.1260 C   0  0  0  0  0  0  0  0  0  0  0  0
  184.2780  178.5190  139.4570 C   0  0  1  0  0  0  0  0  0  0  0  0
  179.0400  174.6240  140.9710 O   0  0  0  0  0  0  0  0  0  0  0  0
  179.4680  173.9500  142.1460 C   0  0  0  0  0  1  0  0  0  0  0  0
  186.4480  178.1160  138.1690 C   0  0  0  0  0  2  0  0  0  0  0  0
  187.4760  177.7950  135.9450 C   0  0  0  0  0  1  0  0  0  0  0  0
  187.2580  178.7790  137.0750 C   0  0  0  0  0  2  0  0  0  0  0  0
  185.0160  177.9840  140.6780 C   0  0  0  0  0  2  0  0  0  0  0  0
  185.1340  178.9880  141.6400 O   0  0  0  0  0  0  0  0  0  0  0  0
  186.1250  178.5300  142.5070 C   0  0  0  0  0  2  0  0  0  0  0  0
  188.5240  178.2200  142.1760 C   0  0  0  0  0  2  0  0  0  0  0  0
  187.2900  178.0470  141.7150 C   0  0  0  0  0  3  0  0  0  0  0  0
  180.8860  179.1130  136.6840 C   0  0  0  0  0  2  0  0  0  0  0  0
  180.7830  180.3880  135.8660 C   0  0  0  0  0  2  0  0  0  0  0  0
  179.8050  182.6810  136.0760 C   0  0  0  0  0  3  0  0  0  0  0  0
  180.1250  181.4540  136.6700 C   0  0  0  0  0  0  0  0  0  0  0  0
  179.8570  181.2450  138.0270 C   0  0  0  0  0  3  0  0  0  0  0  0
  178.9690  182.0300  140.2260 C   0  0  0  0  0  1  0  0  0  0  0  0
  178.9350  183.4780  138.1910 C   0  0  0  0  0  3  0  0  0  0  0  0
  179.2590  182.2550  138.7870 C   0  0  0  0  0  0  0  0  0  0  0  0
  179.2080  183.6910  136.8370 C   0  0  0  0  0  3  0  0  0  0  0  0
  1 21  1  1  0  0  0
  1 16  1  0  0  0  0
  1 18  1  0  0  0  0
  2 11  2  1  0  0  0
  2 12  1  0  0  0  0
  2  5  1  0  0  0  0
  4 17  1  0  0  0  0
  5 16  1  0  0  0  0
  5  9  1  1  0  0  0
  6  4  2  0  0  0  0
  7 29  1  1  0  0  0
  7  5  1  0  0  0  0
  7 14  1  0  0  0  0
  8  6  1  0  0  0  0
  9  6  1  0  0  0  0
  9 13  2  0  0  0  0
 10 17  2  0  0  0  0
 12  8  1  0  0  0  0
 13 10  1  0  0  0  0
 14  3  1  0  0  0  0
 15 12  2  0  0  0  0
 16 18  1  0  0  0  0
 17 19  1  0  0  0  0
 18  3  1  0  0  0  0
 18 24  1  0  0  0  0
 19 20  1  0  0  0  0
 22 23  1  0  0  0  0
 23 21  1  0  0  0  0
 24 25  1  0  0  0  0
 25 26  1  0  0  0  0
 28 27  2  0  0  0  0
 28 26  1  0  0  0  0
 30 32  1  0  0  0  0
 30 29  1  0  0  0  0
 31 32  2  0  0  0  0
 31 37  1  0  0  0  0
 32 33  1  0  0  0  0
 33 36  2  0  0  0  0
 35 36  1  0  0  0  0
 36 34  1  0  0  0  0
 37 35  2  0  0  0  0
M  END
>  <MODEL>
8

>  <REMARK>
 VINA RESULT:      -4.6      2.292      7.300
  Name = 
  10 active torsions:
  status: ('A' for Active; 'I' for Inactive)
    1  A    between atoms: C_1  and  C_5
    2  A    between atoms: O_3  and  C_32
    3  A    between atoms: C_5  and  C_23
    4  A    between atoms: C_6  and  C_31
    5  A    between atoms: C_14  and  C_37
    6  A    between atoms: O_17  and  C_26
    7  A    between atoms: O_17  and  C_33
    8  A    between atoms: C_26  and  C_34
    9  A    between atoms: C_31  and  C_37
   10  A    between atoms: C_33  and  C_36
                            x       y       z     vdW  Elec       q    Type
                         _______ _______ _______ _____ _____    ______ ____

>  <TORSDO>
F 10

$$$$
=
 OpenBabel10262422593D

 37 41  0  0  1  0  0  0  0  0999 V2000
  191.0040  176.2940  135.9290 C   0  0  1  0  0  3  0  0  0  0  0  0
  188.1930  178.2090  136.8320 S   0  0  1  0  0  0  0  0  0  0  0  0
  190.2690  174.1180  137.2270 C   0  0  0  0  0  2  0  0  0  0  0  0
  185.2070  175.1200  135.7660 C   0  0  0  0  0  3  0  0  0  0  0  0
  188.6250  176.4470  136.9510 C   0  0  1  0  0  0  0  0  0  0  0  0
  186.3120  175.9630  135.9170 C   0  0  0  0  0  0  0  0  0  0  0  0
  189.3720  176.2720  138.3090 C   0  0  2  0  0  3  0  0  0  0  0  0
  186.3550  177.1170  135.1210 O   0  0  0  0  0  0  0  0  0  0  0  0
  187.3330  175.6300  136.8510 C   0  0  0  0  0  0  0  0  0  0  0  0
  186.0760  173.6200  137.4420 C   0  0  0  0  0  3  0  0  0  0  0  0
  189.4810  178.8890  136.3820 O   0  0  0  0  0  0  0  0  0  0  0  0
  187.1800  178.2070  135.3850 C   0  0  0  0  0  0  0  0  0  0  0  0
  187.1910  174.4430  137.5930 C   0  0  0  0  0  3  0  0  0  0  0  0
  190.2310  175.0080  138.4670 C   0  0  0  0  0  2  0  0  0  0  0  0
  187.1860  179.1940  134.6050 O   0  0  0  0  0  0  0  0  0  0  0  0
  189.5000  176.0770  135.7170 C   0  0  2  0  0  3  0  0  0  0  0  0
  185.0790  173.9520  136.5280 C   0  0  0  0  0  0  0  0  0  0  0  0
  190.4190  174.8770  135.9040 C   0  0  1  0  0  0  0  0  0  0  0  0
  183.9750  173.1050  136.3930 O   0  0  0  0  0  0  0  0  0  0  0  0
  182.7220  173.3730  137.0090 C   0  0  0  0  0  1  0  0  0  0  0  0
  191.6380  176.7140  134.6130 C   0  0  0  0  0  2  0  0  0  0  0  0
  193.6400  176.3150  136.0070 C   0  0  0  0  0  1  0  0  0  0  0  0
  193.0930  176.2960  134.5950 C   0  0  0  0  0  2  0  0  0  0  0  0
  190.5430  174.0380  134.6380 C   0  0  0  0  0  2  0  0  0  0  0  0
  190.9640  172.7480  134.9630 O   0  0  0  0  0  0  0  0  0  0  0  0
  192.3100  172.7160  134.5990 C   0  0  0  0  0  2  0  0  0  0  0  0
  193.8560  172.9530  136.4730 C   0  0  0  0  0  2  0  0  0  0  0  0
  193.1120  172.1520  135.7190 C   0  0  0  0  0  3  0  0  0  0  0  0
  188.4980  176.5130  139.5360 C   0  0  0  0  0  2  0  0  0  0  0  0
  189.0690  177.6340  140.3840 C   0  0  0  0  0  2  0  0  0  0  0  0
  189.6590  176.5990  142.5840 C   0  0  0  0  0  3  0  0  0  0  0  0
  188.7810  177.3790  141.8220 C   0  0  0  0  0  0  0  0  0  0  0  0
  187.6160  177.8900  142.4060 C   0  0  0  0  0  3  0  0  0  0  0  0
  186.1020  178.1790  144.3710 C   0  0  0  0  0  1  0  0  0  0  0  0
  188.2160  176.8570  144.5120 C   0  0  0  0  0  3  0  0  0  0  0  0
  187.3350  177.6320  143.7510 C   0  0  0  0  0  0  0  0  0  0  0  0
  189.3770  176.3400  143.9290 C   0  0  0  0  0  3  0  0  0  0  0  0
  1 21  1  6  0  0  0
  2 11  2  6  0  0  0
  2  5  1  0  0  0  0
  3 14  1  0  0  0  0
  4  6  2  0  0  0  0
  4 17  1  0  0  0  0
  5  9  1  1  0  0  0
  5  7  1  0  0  0  0
  6  9  1  0  0  0  0
  7 14  1  0  0  0  0
  7 29  1  1  0  0  0
  8 12  1  0  0  0  0
  8  6  1  0  0  0  0
  9 13  2  0  0  0  0
 10 13  1  0  0  0  0
 12  2  1  0  0  0  0
 15 12  2  0  0  0  0
 16 18  1  0  0  0  0
 16  1  1  0  0  0  0
 16  5  1  0  0  0  0
 17 10  2  0  0  0  0
 18  1  1  0  0  0  0
 18  3  1  0  0  0  0
 19 17  1  0  0  0  0
 19 20  1  0  0  0  0
 23 21  1  0  0  0  0
 23 22  1  0  0  0  0
 24 25  1  0  0  0  0
 24 18  1  0  0  0  0
 26 25  1  0  0  0  0
 26 28  1  0  0  0  0
 28 27  2  0  0  0  0
 29 30  1  0  0  0  0
 30 32  1  0  0  0  0
 31 37  1  0  0  0  0
 32 33  1  0  0  0  0
 32 31  2  0  0  0  0
 33 36  2  0  0  0  0
 36 34  1  0  0  0  0
 36 35  1  0  0  0  0
 37 35  2  0  0  0  0
M  END
>  <MODEL>
9

>  <REMARK>
 VINA RESULT:      -4.0      4.602      8.835
  Name = 
  10 active torsions:
  status: ('A' for Active; 'I' for Inactive)
    1  A    between atoms: C_1  and  C_5
    2  A    between atoms: O_3  and  C_32
    3  A    between atoms: C_5  and  C_23
    4  A    between atoms: C_6  and  C_31
    5  A    between atoms: C_14  and  C_37
    6  A    between atoms: O_17  and  C_26
    7  A    between atoms: O_17  and  C_33
    8  A    between atoms: C_26  and  C_34
    9  A    between atoms: C_31  and  C_37
   10  A    between atoms: C_33  and  C_36
                            x       y       z     vdW  Elec       q    Type
                         _______ _______ _______ _____ _____    ______ ____

>  <TORSDO>
F 10

$$$$
