=
 OpenBabel10262420243D

 55 59  0  0  1  0  0  0  0  0999 V2000
  185.6280  178.4820  140.7100 C   0  0  0  0  0  3  0  0  0  0  0  0
  189.9260  177.7830  135.6720 C   0  0  0  0  0  2  0  0  0  0  0  0
  187.1800  175.7240  135.6270 O   0  0  0  0  0  0  0  0  0  0  0  0
  185.1980  172.7490  136.7850 C   0  0  0  0  0  3  0  0  0  0  0  0
  184.1100  172.4070  137.5910 C   0  0  0  0  0  3  0  0  0  0  0  0
  184.7840  175.1040  137.2100 C   0  0  0  0  0  0  0  0  0  0  0  0
  183.6960  174.7470  138.0230 C   0  0  0  0  0  3  0  0  0  0  0  0
  187.3340  173.4790  135.1400 O   0  0  0  0  0  0  0  0  0  0  0  0
  183.3610  173.4060  138.2120 C   0  0  0  0  0  3  0  0  0  0  0  0
  185.5510  174.0930  136.5870 C   0  0  0  0  0  0  0  0  0  0  0  0
  185.0350  179.7710  138.7280 C   0  0  0  0  0  2  0  0  0  0  0  0
  187.9430  179.2530  140.0920 C   0  0  0  0  0  2  0  0  0  0  0  0
  185.4110  178.7200  137.6830 C   0  0  0  0  0  2  0  0  0  0  0  0
  188.9450  179.9150  137.2110 O   0  0  0  0  0  1  0  0  0  0  0  0
  185.1140  176.4510  137.0160 O   0  0  0  0  0  0  0  0  0  0  0  0
  188.5750  177.5620  134.9950 C   0  0  0  0  0  2  0  0  0  0  0  0
  188.2890  176.0830  134.8180 C   0  0  0  0  0  2  0  0  0  0  0  0
  189.8830  177.6890  137.2030 C   0  0  1  0  0  3  0  0  0  0  0  0
  184.7920  179.2050  140.0410 N   0  0  0  0  0  0  0  0  0  0  0  0
  186.7270  174.4080  135.7430 C   0  0  0  0  0  0  0  0  0  0  0  0
  186.9830  178.0690  140.2050 C   0  0  1  0  0  3  0  0  0  0  0  0
  188.8860  178.6700  137.8410 C   0  0  1  0  0  3  0  0  0  0  0  0
  184.4580  177.5350  137.6580 C   0  0  2  0  0  3  0  0  0  0  0  0
  189.1940  178.8560  139.3200 C   0  0  0  0  0  2  0  0  0  0  0  0
  183.1960  177.8810  136.9360 C   0  0  0  0  0  0  0  0  0  0  0  0
  181.1540  178.7750  136.6920 C   0  0  0  0  0  0  0  0  0  0  0  0
  183.0010  177.5390  135.5980 C   0  0  0  0  0  3  0  0  0  0  0  0
  181.4830  178.1340  135.1760 S   0  0  0  0  0  0  0  0  0  0  0  0
  182.1860  178.5690  137.5350 N   0  0  0  0  0  0  0  0  0  0  0  0
  179.9280  179.5470  137.0550 C   0  0  0  0  0  3  0  0  0  0  0  0
  179.2410  180.0390  135.7950 C   0  0  0  0  0  2  0  0  0  0  0  0
  180.0760  180.9930  136.6170 C   0  0  0  0  0  2  0  0  0  0  0  0
  187.5550  176.9290  141.0490 C   0  0  0  0  0  2  0  0  0  0  0  0
  186.9510  177.4710  145.1080 C   0  0  0  0  0  1  0  0  0  0  0  0
  187.1660  177.2800  143.6730 C   0  0  0  0  0  0  0  0  0  0  0  0
  187.3410  177.1230  142.4910 C   0  0  0  0  0  0  0  0  0  0  0  0
  189.6210  176.2510  137.6390 C   0  0  0  0  0  2  0  0  0  0  0  0
  190.8600  175.3950  137.4820 C   0  0  0  0  0  2  0  0  0  0  0  0
  192.0780  176.2940  137.3940 C   0  0  0  0  0  2  0  0  0  0  0  0
  193.0590  175.9560  138.5070 C   0  0  2  0  0  3  0  0  0  0  0  0
  194.3850  176.9290  140.4630 C   0  0  0  0  0  1  0  0  0  0  0  0
  193.1890  177.0900  139.5340 C   0  0  2  0  0  3  0  0  0  0  0  0
  191.9000  177.2650  140.3260 C   0  0  0  0  0  2  0  0  0  0  0  0
  191.1190  177.9120  142.4410 C   0  0  1  0  0  3  0  0  0  0  0  0
  192.1600  177.1350  141.7500 N   0  0  0  0  0  0  0  0  0  0  0  0
  190.9890  176.4630  142.3290 C   0  0  0  0  0  2  0  0  0  0  0  0
  191.6130  178.2680  143.8320 C   0  0  0  0  0  2  0  0  0  0  0  0
  190.4880  178.1470  144.8480 C   0  0  0  0  0  2  0  0  0  0  0  0
  191.9160  176.5160  145.8430 O   0  0  0  0  0  0  0  0  0  0  0  0
  189.9020  176.8350  146.8860 O   0  0  0  0  0  1  0  0  0  0  0  0
  190.8200  177.1310  145.8880 C   0  0  0  0  0  0  0  0  0  0  0  0
  194.3820  175.3720  137.9860 C   0  0  0  0  0  2  0  0  0  0  0  0
  195.2290  173.2310  138.9450 O   0  0  0  0  0  1  0  0  0  0  0  0
  193.7690  173.2040  137.1810 O   0  0  0  0  0  0  0  0  0  0  0  0
  194.4350  173.8790  138.0090 C   0  0  0  0  0  0  0  0  0  0  0  0
  2 18  1  0  0  0  0
  3 20  1  0  0  0  0
  4  5  1  0  0  0  0
  5  9  2  0  0  0  0
  6  7  2  0  0  0  0
  7  9  1  0  0  0  0
  8 20  2  0  0  0  0
 10  4  2  0  0  0  0
 10  6  1  0  0  0  0
 11 19  1  0  0  0  0
 12 21  1  0  0  0  0
 13 11  1  0  0  0  0
 15  6  1  0  0  0  0
 15 23  1  0  0  0  0
 16  2  1  0  0  0  0
 17 16  1  0  0  0  0
 17  3  1  0  0  0  0
 18 37  1  6  0  0  0
 18 22  1  0  0  0  0
 19  1  2  0  0  0  0
 20 10  1  0  0  0  0
 21  1  1  0  0  0  0
 21 33  1  1  0  0  0
 22 14  1  6  0  0  0
 22 24  1  0  0  0  0
 23 25  1  6  0  0  0
 23 13  1  0  0  0  0
 24 12  1  0  0  0  0
 25 29  1  0  0  0  0
 26 30  1  0  0  0  0
 26 29  2  0  0  0  0
 27 25  2  0  0  0  0
 28 27  1  0  0  0  0
 28 26  1  0  0  0  0
 31 32  1  0  0  0  0
 31 30  1  0  0  0  0
 32 30  1  0  0  0  0
 33 36  1  0  0  0  0
 35 34  1  0  0  0  0
 36 35  3  0  0  0  0
 38 37  1  0  0  0  0
 39 38  1  0  0  0  0
 40 39  1  6  0  0  0
 40 42  1  0  0  0  0
 42 43  1  0  0  0  0
 42 41  1  1  0  0  0
 43 45  1  0  0  0  0
 44 47  1  1  0  0  0
 45 46  1  0  0  0  0
 45 44  1  0  0  0  0
 46 44  1  0  0  0  0
 47 48  1  0  0  0  0
 48 51  1  0  0  0  0
 49 51  2  0  0  0  0
 51 50  1  0  0  0  0
 52 55  1  0  0  0  0
 52 40  1  0  0  0  0
 54 55  2  0  0  0  0
 55 53  1  0  0  0  0
M  END
>  <MODEL>
1

>  <REMARK>
 VINA RESULT:      -3.4      0.000      0.000
  Name = 
  16 active torsions:
  status: ('A' for Active; 'I' for Inactive)
    1  A    between atoms: C_3  and  C_14
    2  A    between atoms: C_6  and  C_14
    3  A    between atoms: C_6  and  C_38
    4  A    between atoms: C_7  and  N_21
    5  A    between atoms: C_7  and  C_46
    6  A    between atoms: C_8  and  C_20
    7  A    between atoms: C_8  and  C_22
    8  A    between atoms: C_10  and  C_32
    9  A    between atoms: C_12  and  C_20
   10  A    between atoms: C_12  and  C_42
   11  A    between atoms: C_12  and  C_46
   12  A    between atoms: C_13  and  C_52
   13  A    between atoms: C_22  and  C_43
   14  A    between atoms: C_27  and  C_49
   15  A    between atoms: C_27  and  C_55
   16  A    between atoms: C_42  and  C_50
                            x       y       z     vdW  Elec       q    Type
                         _______ _______ _______ _____ _____    ______ ____

>  <TORSDO>
F 16

$$$$
=
 OpenBabel10262420243D

 55 59  0  0  1  0  0  0  0  0999 V2000
  185.6120  178.3530  140.8330 C   0  0  0  0  0  3  0  0  0  0  0  0
  190.2290  177.7030  136.0780 C   0  0  0  0  0  2  0  0  0  0  0  0
  187.4910  175.6460  135.8330 O   0  0  0  0  0  0  0  0  0  0  0  0
  185.4380  172.6610  136.8290 C   0  0  0  0  0  3  0  0  0  0  0  0
  184.3000  172.3110  137.5590 C   0  0  0  0  0  3  0  0  0  0  0  0
  184.9980  175.0120  137.2510 C   0  0  0  0  0  0  0  0  0  0  0  0
  183.8590  174.6470  137.9870 C   0  0  0  0  0  3  0  0  0  0  0  0
  187.6770  173.4060  135.3340 O   0  0  0  0  0  0  0  0  0  0  0  0
  183.5130  173.3040  138.1400 C   0  0  0  0  0  3  0  0  0  0  0  0
  185.8040  174.0060  136.6690 C   0  0  0  0  0  0  0  0  0  0  0  0
  185.1490  179.6620  138.8290 C   0  0  0  0  0  2  0  0  0  0  0  0
  187.9630  179.1280  140.3750 C   0  0  0  0  0  2  0  0  0  0  0  0
  185.5930  178.6220  137.8010 C   0  0  0  0  0  2  0  0  0  0  0  0
  189.1500  179.8180  137.5720 O   0  0  0  0  0  1  0  0  0  0  0  0
  185.3400  176.3600  137.0920 O   0  0  0  0  0  0  0  0  0  0  0  0
  188.9250  177.4890  135.3120 C   0  0  0  0  0  2  0  0  0  0  0  0
  188.6510  176.0120  135.1020 C   0  0  0  0  0  2  0  0  0  0  0  0
  190.0860  177.5920  137.6020 C   0  0  1  0  0  3  0  0  0  0  0  0
  184.8220  179.0830  140.1180 N   0  0  0  0  0  0  0  0  0  0  0  0
  187.0320  174.3280  135.9060 C   0  0  0  0  0  0  0  0  0  0  0  0
  186.9970  177.9440  140.4130 C   0  0  1  0  0  3  0  0  0  0  0  0
  189.0500  178.5670  138.1830 C   0  0  1  0  0  3  0  0  0  0  0  0
  184.6430  177.4380  137.7010 C   0  0  2  0  0  3  0  0  0  0  0  0
  189.2610  178.7380  139.6810 C   0  0  0  0  0  2  0  0  0  0  0  0
  183.4310  177.7920  136.9020 C   0  0  0  0  0  0  0  0  0  0  0  0
  181.4040  178.6780  136.5390 C   0  0  0  0  0  0  0  0  0  0  0  0
  183.3310  177.4790  135.5460 C   0  0  0  0  0  3  0  0  0  0  0  0
  181.8400  178.0740  135.0360 S   0  0  0  0  0  0  0  0  0  0  0  0
  182.3770  178.4600  137.4460 N   0  0  0  0  0  0  0  0  0  0  0  0
  180.1490  179.4350  136.8340 C   0  0  0  0  0  3  0  0  0  0  0  0
  179.6280  179.0490  138.2050 C   0  0  0  0  0  2  0  0  0  0  0  0
  178.9820  178.4730  136.9660 C   0  0  0  0  0  2  0  0  0  0  0  0
  187.5130  176.7940  141.2800 C   0  0  0  0  0  2  0  0  0  0  0  0
  187.6550  177.7610  145.3030 C   0  0  0  0  0  1  0  0  0  0  0  0
  187.6040  177.4180  143.8810 C   0  0  0  0  0  0  0  0  0  0  0  0
  187.5620  177.1360  142.7090 C   0  0  0  0  0  0  0  0  0  0  0  0
  189.7970  176.1510  138.0050 C   0  0  0  0  0  2  0  0  0  0  0  0
  191.0750  175.3480  138.1320 C   0  0  0  0  0  2  0  0  0  0  0  0
  191.0000  174.1460  137.2110 C   0  0  0  0  0  2  0  0  0  0  0  0
  192.3870  173.8080  136.6810 C   0  0  2  0  0  3  0  0  0  0  0  0
  194.0190  175.6530  136.0010 C   0  0  0  0  0  1  0  0  0  0  0  0
  193.4490  174.8170  137.1400 C   0  0  2  0  0  3  0  0  0  0  0  0
  194.5590  174.1280  137.9240 C   0  0  0  0  0  2  0  0  0  0  0  0
  196.8030  174.1900  138.6030 C   0  0  1  0  0  3  0  0  0  0  0  0
  195.8370  174.7650  137.6550 N   0  0  0  0  0  0  0  0  0  0  0  0
  196.7540  173.6990  137.2300 C   0  0  0  0  0  2  0  0  0  0  0  0
  197.9720  175.1450  138.7570 C   0  0  0  0  0  2  0  0  0  0  0  0
  198.7100  174.8850  140.0610 C   0  0  0  0  0  2  0  0  0  0  0  0
  197.2400  176.5300  140.9680 O   0  0  0  0  0  0  0  0  0  0  0  0
  198.3620  175.2520  142.5020 O   0  0  0  0  0  1  0  0  0  0  0  0
  198.0510  175.5960  141.1940 C   0  0  0  0  0  0  0  0  0  0  0  0
  192.3910  173.4690  135.1820 C   0  0  0  0  0  2  0  0  0  0  0  0
  191.4920  171.1620  134.8810 O   0  0  0  0  0  1  0  0  0  0  0  0
  193.7360  171.5610  134.6570 O   0  0  0  0  0  0  0  0  0  0  0  0
  192.5860  172.0160  134.8890 C   0  0  0  0  0  0  0  0  0  0  0  0
  2 18  1  0  0  0  0
  3 20  1  0  0  0  0
  4  5  1  0  0  0  0
  5  9  2  0  0  0  0
  6  7  2  0  0  0  0
  7  9  1  0  0  0  0
  8 20  2  0  0  0  0
 10  4  2  0  0  0  0
 10  6  1  0  0  0  0
 11 19  1  0  0  0  0
 12 21  1  0  0  0  0
 13 11  1  0  0  0  0
 15  6  1  0  0  0  0
 15 23  1  0  0  0  0
 16  2  1  0  0  0  0
 17 16  1  0  0  0  0
 17  3  1  0  0  0  0
 18 37  1  6  0  0  0
 18 22  1  0  0  0  0
 19  1  2  0  0  0  0
 20 10  1  0  0  0  0
 21  1  1  0  0  0  0
 21 33  1  1  0  0  0
 22 14  1  6  0  0  0
 22 24  1  0  0  0  0
 23 25  1  6  0  0  0
 23 13  1  0  0  0  0
 24 12  1  0  0  0  0
 25 29  1  0  0  0  0
 26 30  1  0  0  0  0
 26 29  2  0  0  0  0
 27 25  2  0  0  0  0
 28 27  1  0  0  0  0
 28 26  1  0  0  0  0
 30 32  1  0  0  0  0
 30 31  1  0  0  0  0
 32 31  1  0  0  0  0
 33 36  1  0  0  0  0
 35 34  1  0  0  0  0
 36 35  3  0  0  0  0
 37 38  1  0  0  0  0
 39 38  1  0  0  0  0
 40 52  1  6  0  0  0
 40 42  1  0  0  0  0
 40 39  1  0  0  0  0
 42 41  1  6  0  0  0
 42 43  1  0  0  0  0
 44 47  1  6  0  0  0
 45 43  1  0  0  0  0
 45 44  1  0  0  0  0
 46 45  1  0  0  0  0
 46 44  1  0  0  0  0
 47 48  1  0  0  0  0
 48 51  1  0  0  0  0
 49 51  2  0  0  0  0
 51 50  1  0  0  0  0
 53 55  1  0  0  0  0
 54 55  2  0  0  0  0
 55 52  1  0  0  0  0
M  END
>  <MODEL>
2

>  <REMARK>
 VINA RESULT:      -2.9      2.394      3.638
  Name = 
  16 active torsions:
  status: ('A' for Active; 'I' for Inactive)
    1  A    between atoms: C_3  and  C_14
    2  A    between atoms: C_6  and  C_14
    3  A    between atoms: C_6  and  C_38
    4  A    between atoms: C_7  and  N_21
    5  A    between atoms: C_7  and  C_46
    6  A    between atoms: C_8  and  C_20
    7  A    between atoms: C_8  and  C_22
    8  A    between atoms: C_10  and  C_32
    9  A    between atoms: C_12  and  C_20
   10  A    between atoms: C_12  and  C_42
   11  A    between atoms: C_12  and  C_46
   12  A    between atoms: C_13  and  C_52
   13  A    between atoms: C_22  and  C_43
   14  A    between atoms: C_27  and  C_49
   15  A    between atoms: C_27  and  C_55
   16  A    between atoms: C_42  and  C_50
                            x       y       z     vdW  Elec       q    Type
                         _______ _______ _______ _____ _____    ______ ____

>  <TORSDO>
F 16

$$$$
=
 OpenBabel10262420243D

 55 59  0  0  1  0  0  0  0  0999 V2000
  185.5490  178.3140  140.8150 C   0  0  0  0  0  3  0  0  0  0  0  0
  190.1810  177.7820  136.0600 C   0  0  0  0  0  2  0  0  0  0  0  0
  187.4890  175.6670  135.8060 O   0  0  0  0  0  0  0  0  0  0  0  0
  185.5010  172.6330  136.7910 C   0  0  0  0  0  3  0  0  0  0  0  0
  184.3710  172.2560  137.5190 C   0  0  0  0  0  3  0  0  0  0  0  0
  185.0100  174.9730  137.2210 C   0  0  0  0  0  0  0  0  0  0  0  0
  183.8790  174.5810  137.9550 C   0  0  0  0  0  3  0  0  0  0  0  0
  187.7240  173.4330  135.2990 O   0  0  0  0  0  0  0  0  0  0  0  0
  183.5620  173.2300  138.1030 C   0  0  0  0  0  3  0  0  0  0  0  0
  185.8370  173.9880  136.6350 C   0  0  0  0  0  0  0  0  0  0  0  0
  185.0590  179.6200  138.8150 C   0  0  0  0  0  2  0  0  0  0  0  0
  187.8820  179.1420  140.3610 C   0  0  0  0  0  2  0  0  0  0  0  0
  185.5250  178.5930  137.7840 C   0  0  0  0  0  2  0  0  0  0  0  0
  189.0560  179.8680  137.5610 O   0  0  0  0  0  1  0  0  0  0  0  0
  185.3230  176.3290  137.0660 O   0  0  0  0  0  0  0  0  0  0  0  0
  188.8830  177.5430  135.2930 C   0  0  0  0  0  2  0  0  0  0  0  0
  188.6410  176.0600  135.0770 C   0  0  0  0  0  2  0  0  0  0  0  0
  190.0400  177.6630  137.5840 C   0  0  1  0  0  3  0  0  0  0  0  0
  184.7430  179.0290  140.1020 N   0  0  0  0  0  0  0  0  0  0  0  0
  187.0590  174.3390  135.8750 C   0  0  0  0  0  0  0  0  0  0  0  0
  186.9430  177.9370  140.3940 C   0  0  1  0  0  3  0  0  0  0  0  0
  188.9830  178.6130  138.1680 C   0  0  1  0  0  3  0  0  0  0  0  0
  184.6020  177.3890  137.6790 C   0  0  2  0  0  3  0  0  0  0  0  0
  189.1890  178.7830  139.6670 C   0  0  0  0  0  2  0  0  0  0  0  0
  183.3830  177.7200  136.8810 C   0  0  0  0  0  0  0  0  0  0  0  0
  181.3280  178.5440  136.5250 C   0  0  0  0  0  0  0  0  0  0  0  0
  183.3010  177.4350  135.5180 C   0  0  0  0  0  3  0  0  0  0  0  0
  181.7940  177.9890  135.0110 S   0  0  0  0  0  0  0  0  0  0  0  0
  182.3030  178.3380  137.4330 N   0  0  0  0  0  0  0  0  0  0  0  0
  180.0460  179.2490  136.8290 C   0  0  0  0  0  3  0  0  0  0  0  0
  180.2520  180.2080  137.9860 C   0  0  0  0  0  2  0  0  0  0  0  0
  179.5690  178.8810  138.2220 C   0  0  0  0  0  2  0  0  0  0  0  0
  187.4830  176.7960  141.2580 C   0  0  0  0  0  2  0  0  0  0  0  0
  187.7620  177.8070  145.2620 C   0  0  0  0  0  1  0  0  0  0  0  0
  187.6620  177.4490  143.8460 C   0  0  0  0  0  0  0  0  0  0  0  0
  187.5800  177.1540  142.6800 C   0  0  0  0  0  0  0  0  0  0  0  0
  189.7820  176.2140  137.9810 C   0  0  0  0  0  2  0  0  0  0  0  0
  191.0770  175.4370  138.1000 C   0  0  0  0  0  2  0  0  0  0  0  0
  191.0150  174.2260  137.1900 C   0  0  0  0  0  2  0  0  0  0  0  0
  192.3460  174.0410  136.4750 C   0  0  2  0  0  3  0  0  0  0  0  0
  193.3980  176.0110  135.2320 C   0  0  0  0  0  1  0  0  0  0  0  0
  193.2340  175.2900  136.5640 C   0  0  2  0  0  3  0  0  0  0  0  0
  194.5890  174.9580  137.1770 C   0  0  0  0  0  2  0  0  0  0  0  0
  195.6790  172.9280  137.6080 C   0  0  1  0  0  3  0  0  0  0  0  0
  194.5030  173.7370  137.9590 N   0  0  0  0  0  0  0  0  0  0  0  0
  195.6830  173.7170  138.8340 C   0  0  0  0  0  2  0  0  0  0  0  0
  195.3960  171.4740  137.9430 C   0  0  0  0  0  2  0  0  0  0  0  0
  195.9560  170.5560  136.8680 C   0  0  0  0  0  2  0  0  0  0  0  0
  198.2550  170.6050  137.4990 O   0  0  0  0  0  1  0  0  0  0  0  0
  197.7840  171.4320  135.4160 O   0  0  0  0  0  0  0  0  0  0  0  0
  197.3950  170.8510  136.6140 C   0  0  0  0  0  0  0  0  0  0  0  0
  192.1950  173.4270  135.0730 C   0  0  0  0  0  2  0  0  0  0  0  0
  190.6480  171.5140  134.6670 O   0  0  0  0  0  0  0  0  0  0  0  0
  192.7600  171.1360  135.4700 O   0  0  0  0  0  1  0  0  0  0  0  0
  191.8940  171.9630  135.0820 C   0  0  0  0  0  0  0  0  0  0  0  0
  2 18  1  0  0  0  0
  3 20  1  0  0  0  0
  4  5  1  0  0  0  0
  5  9  2  0  0  0  0
  6  7  2  0  0  0  0
  7  9  1  0  0  0  0
  8 20  2  0  0  0  0
 10  4  2  0  0  0  0
 10  6  1  0  0  0  0
 11 19  1  0  0  0  0
 12 21  1  0  0  0  0
 13 11  1  0  0  0  0
 15  6  1  0  0  0  0
 15 23  1  0  0  0  0
 16  2  1  0  0  0  0
 17 16  1  0  0  0  0
 17  3  1  0  0  0  0
 18 37  1  6  0  0  0
 18 22  1  0  0  0  0
 19  1  2  0  0  0  0
 20 10  1  0  0  0  0
 21  1  1  0  0  0  0
 21 33  1  1  0  0  0
 22 14  1  6  0  0  0
 22 24  1  0  0  0  0
 23 25  1  6  0  0  0
 23 13  1  0  0  0  0
 24 12  1  0  0  0  0
 25 29  1  0  0  0  0
 26 30  1  0  0  0  0
 26 29  2  0  0  0  0
 27 25  2  0  0  0  0
 28 27  1  0  0  0  0
 28 26  1  0  0  0  0
 30 31  1  0  0  0  0
 30 32  1  0  0  0  0
 31 32  1  0  0  0  0
 33 36  1  0  0  0  0
 35 34  1  0  0  0  0
 36 35  3  0  0  0  0
 37 38  1  0  0  0  0
 39 38  1  0  0  0  0
 40 52  1  6  0  0  0
 40 42  1  0  0  0  0
 40 39  1  0  0  0  0
 42 41  1  6  0  0  0
 42 43  1  0  0  0  0
 43 45  1  0  0  0  0
 44 47  1  1  0  0  0
 44 45  1  0  0  0  0
 44 46  1  0  0  0  0
 45 46  1  0  0  0  0
 48 47  1  0  0  0  0
 50 51  2  0  0  0  0
 51 48  1  0  0  0  0
 51 49  1  0  0  0  0
 52 55  1  0  0  0  0
 53 55  2  0  0  0  0
 55 54  1  0  0  0  0
M  END
>  <MODEL>
3

>  <REMARK>
 VINA RESULT:      -2.7      2.534      4.486
  Name = 
  16 active torsions:
  status: ('A' for Active; 'I' for Inactive)
    1  A    between atoms: C_3  and  C_14
    2  A    between atoms: C_6  and  C_14
    3  A    between atoms: C_6  and  C_38
    4  A    between atoms: C_7  and  N_21
    5  A    between atoms: C_7  and  C_46
    6  A    between atoms: C_8  and  C_20
    7  A    between atoms: C_8  and  C_22
    8  A    between atoms: C_10  and  C_32
    9  A    between atoms: C_12  and  C_20
   10  A    between atoms: C_12  and  C_42
   11  A    between atoms: C_12  and  C_46
   12  A    between atoms: C_13  and  C_52
   13  A    between atoms: C_22  and  C_43
   14  A    between atoms: C_27  and  C_49
   15  A    between atoms: C_27  and  C_55
   16  A    between atoms: C_42  and  C_50
                            x       y       z     vdW  Elec       q    Type
                         _______ _______ _______ _____ _____    ______ ____

>  <TORSDO>
F 16

$$$$
=
 OpenBabel10262420243D

 55 59  0  0  1  0  0  0  0  0999 V2000
  185.2560  178.5710  140.6950 C   0  0  0  0  0  3  0  0  0  0  0  0
  189.9310  177.8580  136.0070 C   0  0  0  0  0  2  0  0  0  0  0  0
  187.2220  175.7620  135.7860 O   0  0  0  0  0  0  0  0  0  0  0  0
  185.1940  172.7770  136.8360 C   0  0  0  0  0  3  0  0  0  0  0  0
  184.0530  172.4320  137.5630 C   0  0  0  0  0  3  0  0  0  0  0  0
  184.7210  175.1330  137.1930 C   0  0  0  0  0  0  0  0  0  0  0  0
  183.5790  174.7730  137.9270 C   0  0  0  0  0  3  0  0  0  0  0  0
  187.4400  173.5130  135.3460 O   0  0  0  0  0  0  0  0  0  0  0  0
  183.2470  173.4300  138.1100 C   0  0  0  0  0  3  0  0  0  0  0  0
  185.5450  174.1230  136.6450 C   0  0  0  0  0  0  0  0  0  0  0  0
  184.7990  179.8230  138.6540 C   0  0  0  0  0  2  0  0  0  0  0  0
  187.6010  179.3630  140.2420 C   0  0  0  0  0  2  0  0  0  0  0  0
  185.2660  178.7630  137.6570 C   0  0  0  0  0  2  0  0  0  0  0  0
  188.8110  179.9970  137.4360 O   0  0  0  0  0  1  0  0  0  0  0  0
  185.0480  176.4810  137.0030 O   0  0  0  0  0  0  0  0  0  0  0  0
  188.6380  177.6090  135.2330 C   0  0  0  0  0  2  0  0  0  0  0  0
  188.3850  176.1240  135.0580 C   0  0  0  0  0  2  0  0  0  0  0  0
  189.7730  177.7850  137.5320 C   0  0  1  0  0  3  0  0  0  0  0  0
  184.4640  179.2730  139.9530 N   0  0  0  0  0  0  0  0  0  0  0  0
  186.7780  174.4410  135.8880 C   0  0  0  0  0  0  0  0  0  0  0  0
  186.6500  178.1690  140.3000 C   0  0  1  0  0  3  0  0  0  0  0  0
  188.7190  178.7610  138.0770 C   0  0  1  0  0  3  0  0  0  0  0  0
  184.3320  177.5650  137.5780 C   0  0  2  0  0  3  0  0  0  0  0  0
  188.9120  178.9730  139.5730 C   0  0  0  0  0  2  0  0  0  0  0  0
  183.1250  177.8840  136.7570 C   0  0  0  0  0  0  0  0  0  0  0  0
  181.1410  178.8310  136.3130 C   0  0  0  0  0  0  0  0  0  0  0  0
  182.9790  177.4090  135.4540 C   0  0  0  0  0  3  0  0  0  0  0  0
  181.5120  178.0180  134.8920 S   0  0  0  0  0  0  0  0  0  0  0  0
  182.1190  178.6730  137.2270 N   0  0  0  0  0  0  0  0  0  0  0  0
  179.9360  179.6880  136.5270 C   0  0  0  0  0  3  0  0  0  0  0  0
  179.7180  180.5770  135.3170 C   0  0  0  0  0  2  0  0  0  0  0  0
  180.3400  181.1510  136.5690 C   0  0  0  0  0  2  0  0  0  0  0  0
  187.1700  177.0480  141.2020 C   0  0  0  0  0  2  0  0  0  0  0  0
  186.4660  177.7630  145.2180 C   0  0  0  0  0  1  0  0  0  0  0  0
  186.7170  177.5100  143.7990 C   0  0  0  0  0  0  0  0  0  0  0  0
  186.9220  177.3030  142.6290 C   0  0  0  0  0  0  0  0  0  0  0  0
  189.4970  176.3500  137.9680 C   0  0  0  0  0  2  0  0  0  0  0  0
  190.5440  175.8620  138.9470 C   0  0  0  0  0  2  0  0  0  0  0  0
  190.7180  176.8940  140.0440 C   0  0  0  0  0  2  0  0  0  0  0  0
  191.9540  176.5720  140.8720 C   0  0  2  0  0  3  0  0  0  0  0  0
  190.3910  175.7570  142.7220 C   0  0  0  0  0  1  0  0  0  0  0  0
  191.6550  176.5340  142.3780 C   0  0  2  0  0  3  0  0  0  0  0  0
  191.6120  177.9390  142.9660 C   0  0  0  0  0  2  0  0  0  0  0  0
  190.8740  177.9440  145.1910 C   0  0  1  0  0  3  0  0  0  0  0  0
  190.4320  178.1020  143.7970 N   0  0  0  0  0  0  0  0  0  0  0  0
  190.6760  179.2800  144.6420 C   0  0  0  0  0  2  0  0  0  0  0  0
  189.6780  177.5670  146.0470 C   0  0  0  0  0  2  0  0  0  0  0  0
  190.1180  176.7620  147.2610 C   0  0  0  0  0  2  0  0  0  0  0  0
  192.3720  176.7900  148.0370 O   0  0  0  0  0  1  0  0  0  0  0  0
  192.0150  175.6560  146.0800 O   0  0  0  0  0  0  0  0  0  0  0  0
  191.5600  176.3980  147.1610 C   0  0  0  0  0  0  0  0  0  0  0  0
  193.1860  177.3930  140.4580 C   0  0  0  0  0  2  0  0  0  0  0  0
  195.0190  175.8910  139.6790 O   0  0  0  0  0  1  0  0  0  0  0  0
  193.7440  177.0360  138.1590 O   0  0  0  0  0  0  0  0  0  0  0  0
  193.9900  176.7680  139.3640 C   0  0  0  0  0  0  0  0  0  0  0  0
  2 18  1  0  0  0  0
  3 20  1  0  0  0  0
  4  5  1  0  0  0  0
  5  9  2  0  0  0  0
  6  7  2  0  0  0  0
  7  9  1  0  0  0  0
  8 20  2  0  0  0  0
 10  4  2  0  0  0  0
 10  6  1  0  0  0  0
 11 19  1  0  0  0  0
 12 21  1  0  0  0  0
 13 11  1  0  0  0  0
 15  6  1  0  0  0  0
 15 23  1  0  0  0  0
 16  2  1  0  0  0  0
 17 16  1  0  0  0  0
 17  3  1  0  0  0  0
 18 37  1  6  0  0  0
 18 22  1  0  0  0  0
 19  1  2  0  0  0  0
 20 10  1  0  0  0  0
 21  1  1  0  0  0  0
 21 33  1  1  0  0  0
 22 14  1  6  0  0  0
 22 24  1  0  0  0  0
 23 25  1  6  0  0  0
 23 13  1  0  0  0  0
 24 12  1  0  0  0  0
 25 29  1  0  0  0  0
 26 30  1  0  0  0  0
 26 29  2  0  0  0  0
 27 25  2  0  0  0  0
 28 27  1  0  0  0  0
 28 26  1  0  0  0  0
 30 32  1  0  0  0  0
 31 30  1  0  0  0  0
 31 32  1  0  0  0  0
 33 36  1  0  0  0  0
 35 34  1  0  0  0  0
 36 35  3  0  0  0  0
 37 38  1  0  0  0  0
 38 39  1  0  0  0  0
 40 39  1  6  0  0  0
 40 42  1  0  0  0  0
 42 41  1  6  0  0  0
 42 43  1  0  0  0  0
 43 45  1  0  0  0  0
 44 47  1  1  0  0  0
 45 46  1  0  0  0  0
 45 44  1  0  0  0  0
 46 44  1  0  0  0  0
 47 48  1  0  0  0  0
 50 51  2  0  0  0  0
 51 48  1  0  0  0  0
 51 49  1  0  0  0  0
 52 40  1  0  0  0  0
 54 55  2  0  0  0  0
 55 53  1  0  0  0  0
 55 52  1  0  0  0  0
M  END
>  <MODEL>
4

>  <REMARK>
 VINA RESULT:      -2.4      1.149      1.756
  Name = 
  16 active torsions:
  status: ('A' for Active; 'I' for Inactive)
    1  A    between atoms: C_3  and  C_14
    2  A    between atoms: C_6  and  C_14
    3  A    between atoms: C_6  and  C_38
    4  A    between atoms: C_7  and  N_21
    5  A    between atoms: C_7  and  C_46
    6  A    between atoms: C_8  and  C_20
    7  A    between atoms: C_8  and  C_22
    8  A    between atoms: C_10  and  C_32
    9  A    between atoms: C_12  and  C_20
   10  A    between atoms: C_12  and  C_42
   11  A    between atoms: C_12  and  C_46
   12  A    between atoms: C_13  and  C_52
   13  A    between atoms: C_22  and  C_43
   14  A    between atoms: C_27  and  C_49
   15  A    between atoms: C_27  and  C_55
   16  A    between atoms: C_42  and  C_50
                            x       y       z     vdW  Elec       q    Type
                         _______ _______ _______ _____ _____    ______ ____

>  <TORSDO>
F 16

$$$$
=
 OpenBabel10262420243D

 55 59  0  0  1  0  0  0  0  0999 V2000
  188.9590  173.0350  137.2980 C   0  0  0  0  0  3  0  0  0  0  0  0
  186.6470  179.1690  136.1280 C   0  0  0  0  0  2  0  0  0  0  0  0
  188.2560  178.6950  139.1220 O   0  0  0  0  0  0  0  0  0  0  0  0
  188.4600  177.4460  142.6610 C   0  0  0  0  0  3  0  0  0  0  0  0
  189.0030  176.4120  143.4250 C   0  0  0  0  0  3  0  0  0  0  0  0
  189.5680  176.5780  140.6810 C   0  0  0  0  0  0  0  0  0  0  0  0
  190.1040  175.5400  141.4600 C   0  0  0  0  0  3  0  0  0  0  0  0
  187.4330  179.5270  141.1050 O   0  0  0  0  0  0  0  0  0  0  0  0
  189.8240  175.4580  142.8240 C   0  0  0  0  0  3  0  0  0  0  0  0
  188.7280  177.5420  141.2860 C   0  0  0  0  0  0  0  0  0  0  0  0
  190.6160  174.5420  136.3350 C   0  0  0  0  0  2  0  0  0  0  0  0
  187.4540  174.1950  135.6470 C   0  0  0  0  0  2  0  0  0  0  0  0
  190.2390  175.7920  137.1290 C   0  0  0  0  0  2  0  0  0  0  0  0
  187.7920  177.1140  134.5980 O   0  0  0  0  0  1  0  0  0  0  0  0
  189.8570  176.6640  139.3140 O   0  0  0  0  0  0  0  0  0  0  0  0
  187.9550  179.4390  136.8690 C   0  0  0  0  0  2  0  0  0  0  0  0
  187.7000  179.7360  138.3340 C   0  0  0  0  0  2  0  0  0  0  0  0
  186.1410  177.7250  136.2520 C   0  0  1  0  0  3  0  0  0  0  0  0
  190.1770  173.3130  136.9680 N   0  0  0  0  0  0  0  0  0  0  0  0
  188.1100  178.6420  140.5110 C   0  0  0  0  0  0  0  0  0  0  0  0
  187.7990  173.9740  137.1200 C   0  0  1  0  0  3  0  0  0  0  0  0
  187.1630  176.6850  135.7680 C   0  0  1  0  0  3  0  0  0  0  0  0
  190.6220  175.7050  138.5980 C   0  0  2  0  0  3  0  0  0  0  0  0
  186.4790  175.3530  135.4920 C   0  0  0  0  0  2  0  0  0  0  0  0
  192.0830  175.9610  138.7830 C   0  0  0  0  0  0  0  0  0  0  0  0
  194.2780  175.5770  138.5340 C   0  0  0  0  0  0  0  0  0  0  0  0
  192.5480  177.0660  139.4970 C   0  0  0  0  0  3  0  0  0  0  0  0
  194.2290  176.9900  139.4380 S   0  0  0  0  0  0  0  0  0  0  0  0
  193.0330  175.1480  138.2460 N   0  0  0  0  0  0  0  0  0  0  0  0
  195.5200  174.9150  138.0330 C   0  0  0  0  0  3  0  0  0  0  0  0
  195.2420  173.4520  137.7480 C   0  0  0  0  0  2  0  0  0  0  0  0
  195.9690  173.8450  139.0130 C   0  0  0  0  0  2  0  0  0  0  0  0
  186.5940  173.5140  137.9420 C   0  0  0  0  0  2  0  0  0  0  0  0
  184.0680  171.0070  135.8280 C   0  0  0  0  0  1  0  0  0  0  0  0
  184.9620  171.8930  136.5740 C   0  0  0  0  0  0  0  0  0  0  0  0
  185.6980  172.6230  137.1910 C   0  0  0  0  0  0  0  0  0  0  0  0
  185.6790  177.4460  137.6780 C   0  0  0  0  0  2  0  0  0  0  0  0
  184.4640  178.2750  138.0340 C   0  0  0  0  0  2  0  0  0  0  0  0
  184.4350  178.4960  139.5340 C   0  0  0  0  0  2  0  0  0  0  0  0
  182.9950  178.5800  140.0220 C   0  0  2  0  0  3  0  0  0  0  0  0
  181.8360  178.8890  142.2780 C   0  0  0  0  0  1  0  0  0  0  0  0
  182.8390  178.0810  141.4660 C   0  0  2  0  0  3  0  0  0  0  0  0
  184.1870  178.0100  142.1720 C   0  0  0  0  0  2  0  0  0  0  0  0
  185.4120  178.4280  144.1280 C   0  0  1  0  0  3  0  0  0  0  0  0
  184.0610  178.4630  143.5470 N   0  0  0  0  0  0  0  0  0  0  0  0
  184.8570  179.6920  143.6570 C   0  0  0  0  0  2  0  0  0  0  0  0
  185.2970  178.3570  145.6400 C   0  0  0  0  0  2  0  0  0  0  0  0
  186.4240  177.5210  146.2250 C   0  0  0  0  0  2  0  0  0  0  0  0
  186.6720  179.3650  147.7170 O   0  0  0  0  0  0  0  0  0  0  0  0
  188.0210  177.5630  148.1390 O   0  0  0  0  0  1  0  0  0  0  0  0
  187.0310  178.2010  147.4050 C   0  0  0  0  0  0  0  0  0  0  0  0
  181.9830  178.0210  139.0090 C   0  0  0  0  0  2  0  0  0  0  0  0
  180.5220  179.0610  137.2760 O   0  0  0  0  0  0  0  0  0  0  0  0
  180.4170  179.7750  139.4500 O   0  0  0  0  0  1  0  0  0  0  0  0
  180.9310  179.0000  138.6010 C   0  0  0  0  0  0  0  0  0  0  0  0
  2 18  1  0  0  0  0
  2 16  1  0  0  0  0
  3 20  1  0  0  0  0
  4  5  1  0  0  0  0
  6 10  1  0  0  0  0
  6  7  2  0  0  0  0
  7  9  1  0  0  0  0
  9  5  2  0  0  0  0
 10  4  2  0  0  0  0
 11 19  1  0  0  0  0
 11 13  1  0  0  0  0
 12 21  1  0  0  0  0
 13 23  1  0  0  0  0
 15  6  1  0  0  0  0
 16 17  1  0  0  0  0
 17  3  1  0  0  0  0
 18 37  1  1  0  0  0
 19  1  2  0  0  0  0
 20  8  2  0  0  0  0
 20 10  1  0  0  0  0
 21  1  1  0  0  0  0
 21 33  1  1  0  0  0
 22 14  1  6  0  0  0
 22 18  1  0  0  0  0
 23 25  1  6  0  0  0
 23 15  1  0  0  0  0
 24 12  1  0  0  0  0
 24 22  1  0  0  0  0
 25 27  2  0  0  0  0
 26 28  1  0  0  0  0
 28 27  1  0  0  0  0
 29 26  2  0  0  0  0
 29 25  1  0  0  0  0
 30 26  1  0  0  0  0
 30 32  1  0  0  0  0
 31 30  1  0  0  0  0
 31 32  1  0  0  0  0
 34 35  1  0  0  0  0
 35 36  3  0  0  0  0
 36 33  1  0  0  0  0
 37 38  1  0  0  0  0
 38 39  1  0  0  0  0
 39 40  1  0  0  0  0
 40 52  1  6  0  0  0
 40 42  1  0  0  0  0
 42 43  1  0  0  0  0
 42 41  1  1  0  0  0
 43 45  1  0  0  0  0
 44 47  1  1  0  0  0
 45 46  1  0  0  0  0
 45 44  1  0  0  0  0
 46 44  1  0  0  0  0
 47 48  1  0  0  0  0
 48 51  1  0  0  0  0
 51 49  2  0  0  0  0
 51 50  1  0  0  0  0
 53 55  2  0  0  0  0
 55 52  1  0  0  0  0
 55 54  1  0  0  0  0
M  END
>  <MODEL>
5

>  <REMARK>
 VINA RESULT:      -2.1      3.139      9.091
  Name = 
  16 active torsions:
  status: ('A' for Active; 'I' for Inactive)
    1  A    between atoms: C_3  and  C_14
    2  A    between atoms: C_6  and  C_14
    3  A    between atoms: C_6  and  C_38
    4  A    between atoms: C_7  and  N_21
    5  A    between atoms: C_7  and  C_46
    6  A    between atoms: C_8  and  C_20
    7  A    between atoms: C_8  and  C_22
    8  A    between atoms: C_10  and  C_32
    9  A    between atoms: C_12  and  C_20
   10  A    between atoms: C_12  and  C_42
   11  A    between atoms: C_12  and  C_46
   12  A    between atoms: C_13  and  C_52
   13  A    between atoms: C_22  and  C_43
   14  A    between atoms: C_27  and  C_49
   15  A    between atoms: C_27  and  C_55
   16  A    between atoms: C_42  and  C_50
                            x       y       z     vdW  Elec       q    Type
                         _______ _______ _______ _____ _____    ______ ____

>  <TORSDO>
F 16

$$$$
=
 OpenBabel10262420243D

 55 59  0  0  1  0  0  0  0  0999 V2000
  188.4850  172.8740  137.5010 C   0  0  0  0  0  3  0  0  0  0  0  0
  185.2330  178.5010  136.0520 C   0  0  0  0  0  2  0  0  0  0  0  0
  187.1810  178.5540  138.8770 O   0  0  0  0  0  0  0  0  0  0  0  0
  187.9080  177.7170  142.4680 C   0  0  0  0  0  3  0  0  0  0  0  0
  188.6640  176.8480  143.2560 C   0  0  0  0  0  3  0  0  0  0  0  0
  188.9250  176.8000  140.4620 C   0  0  0  0  0  0  0  0  0  0  0  0
  189.6760  175.9260  141.2660 C   0  0  0  0  0  3  0  0  0  0  0  0
  186.4510  179.4750  140.8570 O   0  0  0  0  0  0  0  0  0  0  0  0
  189.5460  175.9510  142.6550 C   0  0  0  0  0  3  0  0  0  0  0  0
  188.0230  177.7030  141.0690 C   0  0  0  0  0  0  0  0  0  0  0  0
  189.8110  174.4740  136.2260 C   0  0  0  0  0  2  0  0  0  0  0  0
  186.6770  173.6500  135.9320 C   0  0  0  0  0  2  0  0  0  0  0  0
  189.3430  175.7410  136.9420 C   0  0  0  0  0  2  0  0  0  0  0  0
  186.4970  176.4640  134.5940 O   0  0  0  0  0  1  0  0  0  0  0  0
  189.0610  176.7790  139.0690 O   0  0  0  0  0  0  0  0  0  0  0  0
  186.5570  179.0140  136.6140 C   0  0  0  0  0  2  0  0  0  0  0  0
  186.4100  179.4260  138.0660 C   0  0  0  0  0  2  0  0  0  0  0  0
  184.9490  177.0240  136.3610 C   0  0  1  0  0  3  0  0  0  0  0  0
  189.6140  173.2720  137.0120 N   0  0  0  0  0  0  0  0  0  0  0  0
  187.1820  178.6280  140.2720 C   0  0  0  0  0  0  0  0  0  0  0  0
  187.1930  173.6310  137.3700 C   0  0  1  0  0  3  0  0  0  0  0  0
  186.0540  176.0810  135.8610 C   0  0  1  0  0  3  0  0  0  0  0  0
  189.8790  175.8580  138.3600 C   0  0  2  0  0  3  0  0  0  0  0  0
  185.5380  174.6500  135.7850 C   0  0  0  0  0  2  0  0  0  0  0  0
  191.3000  176.3190  138.3570 C   0  0  0  0  0  0  0  0  0  0  0  0
  193.3140  176.7440  137.4660 C   0  0  0  0  0  0  0  0  0  0  0  0
  191.9010  176.8510  139.4980 C   0  0  0  0  0  3  0  0  0  0  0  0
  193.4720  177.2630  139.0540 S   0  0  0  0  0  0  0  0  0  0  0  0
  192.0730  176.2690  137.2370 N   0  0  0  0  0  0  0  0  0  0  0  0
  194.3650  176.8630  136.4110 C   0  0  0  0  0  3  0  0  0  0  0  0
  193.9370  176.0960  135.1740 C   0  0  0  0  0  2  0  0  0  0  0  0
  194.9580  175.4980  136.1130 C   0  0  0  0  0  2  0  0  0  0  0  0
  186.1520  173.1070  138.3600 C   0  0  0  0  0  2  0  0  0  0  0  0
  182.8740  171.4110  136.4870 C   0  0  0  0  0  1  0  0  0  0  0  0
  184.0330  172.0100  137.1500 C   0  0  0  0  0  0  0  0  0  0  0  0
  184.9870  172.5040  137.6970 C   0  0  0  0  0  0  0  0  0  0  0  0
  184.6740  176.8380  137.8490 C   0  0  0  0  0  2  0  0  0  0  0  0
  183.5870  175.8100  138.0830 C   0  0  0  0  0  2  0  0  0  0  0  0
  182.4250  176.4710  138.7980 C   0  0  0  0  0  2  0  0  0  0  0  0
  182.1510  177.8420  138.1940 C   0  0  2  0  0  3  0  0  0  0  0  0
  183.2070  179.9600  139.1590 C   0  0  0  0  0  1  0  0  0  0  0  0
  182.0760  178.9450  139.2600 C   0  0  2  0  0  3  0  0  0  0  0  0
  181.9970  178.3500  140.6610 C   0  0  0  0  0  2  0  0  0  0  0  0
  182.6440  178.5340  142.9070 C   0  0  1  0  0  3  0  0  0  0  0  0
  182.9200  179.0330  141.5520 N   0  0  0  0  0  0  0  0  0  0  0  0
  183.7680  177.9940  142.1510 C   0  0  0  0  0  2  0  0  0  0  0  0
  183.1540  179.5450  143.9180 C   0  0  0  0  0  2  0  0  0  0  0  0
  183.4300  178.8750  145.2550 C   0  0  0  0  0  2  0  0  0  0  0  0
  185.7240  178.7520  144.6120 O   0  0  0  0  0  0  0  0  0  0  0  0
  185.3360  178.9250  146.8620 O   0  0  0  0  0  1  0  0  0  0  0  0
  184.8920  178.8600  145.5490 C   0  0  0  0  0  0  0  0  0  0  0  0
  181.0090  177.8290  137.1660 C   0  0  0  0  0  2  0  0  0  0  0  0
  181.0350  179.9530  135.8580 O   0  0  0  0  0  1  0  0  0  0  0  0
  181.8040  178.0120  134.9160 O   0  0  0  0  0  0  0  0  0  0  0  0
  181.3090  178.5940  135.9170 C   0  0  0  0  0  0  0  0  0  0  0  0
  2 18  1  0  0  0  0
  2 16  1  0  0  0  0
  3 20  1  0  0  0  0
  4  5  1  0  0  0  0
  6 10  1  0  0  0  0
  6  7  2  0  0  0  0
  7  9  1  0  0  0  0
  9  5  2  0  0  0  0
 10  4  2  0  0  0  0
 11 13  1  0  0  0  0
 11 19  1  0  0  0  0
 12 21  1  0  0  0  0
 13 23  1  0  0  0  0
 15  6  1  0  0  0  0
 16 17  1  0  0  0  0
 17  3  1  0  0  0  0
 18 37  1  1  0  0  0
 19  1  2  0  0  0  0
 20  8  2  0  0  0  0
 20 10  1  0  0  0  0
 21  1  1  0  0  0  0
 21 33  1  1  0  0  0
 22 14  1  6  0  0  0
 22 18  1  0  0  0  0
 23 25  1  6  0  0  0
 23 15  1  0  0  0  0
 24 22  1  0  0  0  0
 24 12  1  0  0  0  0
 25 27  2  0  0  0  0
 26 28  1  0  0  0  0
 28 27  1  0  0  0  0
 29 26  2  0  0  0  0
 29 25  1  0  0  0  0
 30 26  1  0  0  0  0
 31 32  1  0  0  0  0
 31 30  1  0  0  0  0
 32 30  1  0  0  0  0
 34 35  1  0  0  0  0
 35 36  3  0  0  0  0
 36 33  1  0  0  0  0
 37 38  1  0  0  0  0
 38 39  1  0  0  0  0
 40 52  1  1  0  0  0
 40 39  1  0  0  0  0
 40 42  1  0  0  0  0
 42 41  1  1  0  0  0
 42 43  1  0  0  0  0
 43 45  1  0  0  0  0
 44 47  1  1  0  0  0
 45 46  1  0  0  0  0
 45 44  1  0  0  0  0
 46 44  1  0  0  0  0
 47 48  1  0  0  0  0
 48 51  1  0  0  0  0
 49 51  2  0  0  0  0
 51 50  1  0  0  0  0
 53 55  1  0  0  0  0
 54 55  2  0  0  0  0
 55 52  1  0  0  0  0
M  END
>  <MODEL>
6

>  <REMARK>
 VINA RESULT:      -1.8      3.147      8.969
  Name = 
  16 active torsions:
  status: ('A' for Active; 'I' for Inactive)
    1  A    between atoms: C_3  and  C_14
    2  A    between atoms: C_6  and  C_14
    3  A    between atoms: C_6  and  C_38
    4  A    between atoms: C_7  and  N_21
    5  A    between atoms: C_7  and  C_46
    6  A    between atoms: C_8  and  C_20
    7  A    between atoms: C_8  and  C_22
    8  A    between atoms: C_10  and  C_32
    9  A    between atoms: C_12  and  C_20
   10  A    between atoms: C_12  and  C_42
   11  A    between atoms: C_12  and  C_46
   12  A    between atoms: C_13  and  C_52
   13  A    between atoms: C_22  and  C_43
   14  A    between atoms: C_27  and  C_49
   15  A    between atoms: C_27  and  C_55
   16  A    between atoms: C_42  and  C_50
                            x       y       z     vdW  Elec       q    Type
                         _______ _______ _______ _____ _____    ______ ____

>  <TORSDO>
F 16

$$$$
=
 OpenBabel10262420243D

 55 59  0  0  1  0  0  0  0  0999 V2000
  184.6760  178.5470  140.9630 C   0  0  0  0  0  3  0  0  0  0  0  0
  190.1730  178.1580  137.2260 C   0  0  0  0  0  2  0  0  0  0  0  0
  187.7050  175.8720  136.5450 O   0  0  0  0  0  0  0  0  0  0  0  0
  185.7340  172.7520  137.2530 C   0  0  0  0  0  3  0  0  0  0  0  0
  184.5060  172.3270  137.7640 C   0  0  0  0  0  3  0  0  0  0  0  0
  185.0390  175.0680  137.4790 C   0  0  0  0  0  0  0  0  0  0  0  0
  183.8090  174.6290  137.9960 C   0  0  0  0  0  3  0  0  0  0  0  0
  188.1590  173.6430  136.1890 O   0  0  0  0  0  0  0  0  0  0  0  0
  183.5440  173.2660  138.1370 C   0  0  0  0  0  3  0  0  0  0  0  0
  186.0190  174.1190  137.1080 C   0  0  0  0  0  0  0  0  0  0  0  0
  184.5160  179.7560  138.8520 C   0  0  0  0  0  2  0  0  0  0  0  0
  187.0030  179.5050  140.9360 C   0  0  0  0  0  2  0  0  0  0  0  0
  185.2320  178.7300  137.9760 C   0  0  0  0  0  2  0  0  0  0  0  0
  188.6620  180.2160  138.3890 O   0  0  0  0  0  1  0  0  0  0  0  0
  185.3000  176.4350  137.3310 O   0  0  0  0  0  0  0  0  0  0  0  0
  189.0660  177.8140  136.2320 C   0  0  0  0  0  2  0  0  0  0  0  0
  188.9550  176.3140  136.0370 C   0  0  0  0  0  2  0  0  0  0  0  0
  189.7430  178.0780  138.6970 C   0  0  1  0  0  3  0  0  0  0  0  0
  183.9870  179.1870  140.0770 N   0  0  0  0  0  0  0  0  0  0  0  0
  187.3450  174.5220  136.5850 C   0  0  0  0  0  0  0  0  0  0  0  0
  186.1440  178.2450  140.8380 C   0  0  1  0  0  3  0  0  0  0  0  0
  188.5410  178.9780  139.0230 C   0  0  1  0  0  3  0  0  0  0  0  0
  184.4150  177.4670  137.7460 C   0  0  2  0  0  3  0  0  0  0  0  0
  188.4390  179.2070  140.5250 C   0  0  0  0  0  2  0  0  0  0  0  0
  183.3610  177.6960  136.7120 C   0  0  0  0  0  0  0  0  0  0  0  0
  181.4590  178.5420  135.8780 C   0  0  0  0  0  0  0  0  0  0  0  0
  183.4560  177.1460  135.4340 C   0  0  0  0  0  3  0  0  0  0  0  0
  182.0940  177.6680  134.5940 S   0  0  0  0  0  0  0  0  0  0  0  0
  182.2680  178.4710  136.9540 N   0  0  0  0  0  0  0  0  0  0  0  0
  180.2130  179.3640  135.8300 C   0  0  0  0  0  3  0  0  0  0  0  0
  179.0760  178.6110  136.4950 C   0  0  0  0  0  2  0  0  0  0  0  0
  179.1610  178.6640  134.9870 C   0  0  0  0  0  2  0  0  0  0  0  0
  186.5660  177.1680  141.8380 C   0  0  0  0  0  2  0  0  0  0  0  0
  185.5870  178.1290  145.7430 C   0  0  0  0  0  1  0  0  0  0  0  0
  185.9350  177.7890  144.3630 C   0  0  0  0  0  0  0  0  0  0  0  0
  186.2200  177.5100  143.2250 C   0  0  0  0  0  0  0  0  0  0  0  0
  189.4930  176.6290  139.0980 C   0  0  0  0  0  2  0  0  0  0  0  0
  190.3610  176.2250  140.2710 C   0  0  0  0  0  2  0  0  0  0  0  0
  190.9120  177.4720  140.9340 C   0  0  0  0  0  2  0  0  0  0  0  0
  190.8440  177.3330  142.4490 C   0  0  2  0  0  3  0  0  0  0  0  0
  191.7340  179.3730  143.7030 C   0  0  0  0  0  1  0  0  0  0  0  0
  190.5100  178.6610  143.1430 C   0  0  2  0  0  3  0  0  0  0  0  0
  189.4480  178.4670  144.2180 C   0  0  0  0  0  2  0  0  0  0  0  0
  189.1530  177.9150  146.4780 C   0  0  1  0  0  3  0  0  0  0  0  0
  189.9570  177.6190  145.2820 N   0  0  0  0  0  0  0  0  0  0  0  0
  188.8510  176.7350  145.6760 C   0  0  0  0  0  2  0  0  0  0  0  0
  189.9350  177.5000  147.7120 C   0  0  0  0  0  2  0  0  0  0  0  0
  190.7660  176.2590  147.4290 C   0  0  0  0  0  2  0  0  0  0  0  0
  192.4290  177.3980  148.7040 O   0  0  0  0  0  1  0  0  0  0  0  0
  193.0020  175.3020  147.9810 O   0  0  0  0  0  0  0  0  0  0  0  0
  192.1020  176.3530  148.0850 C   0  0  0  0  0  0  0  0  0  0  0  0
  192.0320  176.5530  143.0340 C   0  0  0  0  0  2  0  0  0  0  0  0
  190.4720  174.6170  143.2250 O   0  0  0  0  0  0  0  0  0  0  0  0
  192.4200  174.6480  144.4290 O   0  0  0  0  0  1  0  0  0  0  0  0
  191.6620  175.2220  143.6040 C   0  0  0  0  0  0  0  0  0  0  0  0
  2 18  1  0  0  0  0
  3 20  1  0  0  0  0
  4  5  1  0  0  0  0
  5  9  2  0  0  0  0
  6  7  2  0  0  0  0
  7  9  1  0  0  0  0
  8 20  2  0  0  0  0
 10  4  2  0  0  0  0
 10  6  1  0  0  0  0
 11 19  1  0  0  0  0
 13 11  1  0  0  0  0
 15  6  1  0  0  0  0
 15 23  1  0  0  0  0
 16  2  1  0  0  0  0
 17 16  1  0  0  0  0
 17  3  1  0  0  0  0
 18 22  1  0  0  0  0
 18 37  1  6  0  0  0
 19  1  2  0  0  0  0
 20 10  1  0  0  0  0
 21 12  1  0  0  0  0
 21  1  1  0  0  0  0
 21 33  1  1  0  0  0
 22 14  1  6  0  0  0
 22 24  1  0  0  0  0
 23 25  1  6  0  0  0
 23 13  1  0  0  0  0
 24 12  1  0  0  0  0
 25 29  1  0  0  0  0
 26 29  2  0  0  0  0
 27 25  2  0  0  0  0
 28 27  1  0  0  0  0
 28 26  1  0  0  0  0
 30 26  1  0  0  0  0
 30 31  1  0  0  0  0
 32 30  1  0  0  0  0
 32 31  1  0  0  0  0
 33 36  1  0  0  0  0
 35 34  1  0  0  0  0
 36 35  3  0  0  0  0
 37 38  1  0  0  0  0
 38 39  1  0  0  0  0
 40 39  1  6  0  0  0
 40 52  1  0  0  0  0
 40 42  1  0  0  0  0
 42 41  1  1  0  0  0
 42 43  1  0  0  0  0
 43 45  1  0  0  0  0
 44 47  1  1  0  0  0
 45 46  1  0  0  0  0
 45 44  1  0  0  0  0
 46 44  1  0  0  0  0
 48 47  1  0  0  0  0
 48 51  1  0  0  0  0
 50 51  2  0  0  0  0
 51 49  1  0  0  0  0
 52 55  1  0  0  0  0
 53 55  2  0  0  0  0
 55 54  1  0  0  0  0
M  END
>  <MODEL>
7

>  <REMARK>
 VINA RESULT:      -1.5      2.094      2.862
  Name = 
  16 active torsions:
  status: ('A' for Active; 'I' for Inactive)
    1  A    between atoms: C_3  and  C_14
    2  A    between atoms: C_6  and  C_14
    3  A    between atoms: C_6  and  C_38
    4  A    between atoms: C_7  and  N_21
    5  A    between atoms: C_7  and  C_46
    6  A    between atoms: C_8  and  C_20
    7  A    between atoms: C_8  and  C_22
    8  A    between atoms: C_10  and  C_32
    9  A    between atoms: C_12  and  C_20
   10  A    between atoms: C_12  and  C_42
   11  A    between atoms: C_12  and  C_46
   12  A    between atoms: C_13  and  C_52
   13  A    between atoms: C_22  and  C_43
   14  A    between atoms: C_27  and  C_49
   15  A    between atoms: C_27  and  C_55
   16  A    between atoms: C_42  and  C_50
                            x       y       z     vdW  Elec       q    Type
                         _______ _______ _______ _____ _____    ______ ____

>  <TORSDO>
F 16

$$$$
=
 OpenBabel10262420243D

 55 59  0  0  1  0  0  0  0  0999 V2000
  184.2020  179.2500  140.7870 C   0  0  0  0  0  3  0  0  0  0  0  0
  187.0970  176.6030  135.4060 C   0  0  0  0  0  2  0  0  0  0  0  0
  183.8390  175.6910  135.9850 O   0  0  0  0  0  0  0  0  0  0  0  0
  181.1650  173.7550  137.7800 C   0  0  0  0  0  3  0  0  0  0  0  0
  180.1750  173.9030  138.7530 C   0  0  0  0  0  3  0  0  0  0  0  0
  181.6720  176.1260  137.9210 C   0  0  0  0  0  0  0  0  0  0  0  0
  180.6770  176.2610  138.9030 C   0  0  0  0  0  3  0  0  0  0  0  0
  183.1210  173.5120  135.7990 O   0  0  0  0  0  0  0  0  0  0  0  0
  179.9330  175.1550  139.3160 C   0  0  0  0  0  3  0  0  0  0  0  0
  181.9260  174.8550  137.3550 C   0  0  0  0  0  0  0  0  0  0  0  0
  183.7760  180.4910  138.7320 C   0  0  0  0  0  2  0  0  0  0  0  0
  186.5050  179.0670  139.7880 C   0  0  0  0  0  2  0  0  0  0  0  0
  183.5860  179.2900  137.8060 C   0  0  0  0  0  2  0  0  0  0  0  0
  187.1860  179.0690  136.7430 O   0  0  0  0  0  1  0  0  0  0  0  0
  182.4130  177.2370  137.5020 O   0  0  0  0  0  0  0  0  0  0  0  0
  185.6620  176.8330  134.9370 C   0  0  0  0  0  2  0  0  0  0  0  0
  184.8550  175.5500  135.0040 C   0  0  0  0  0  2  0  0  0  0  0  0
  187.2760  176.6620  136.9290 C   0  0  1  0  0  3  0  0  0  0  0  0
  183.5710  180.1670  140.1310 N   0  0  0  0  0  0  0  0  0  0  0  0
  182.9820  174.6450  136.3380 C   0  0  0  0  0  0  0  0  0  0  0  0
  185.2250  178.3300  140.1820 C   0  0  1  0  0  3  0  0  0  0  0  0
  186.8020  177.9900  137.5410 C   0  0  1  0  0  3  0  0  0  0  0  0
  182.2900  178.5370  138.0630 C   0  0  2  0  0  3  0  0  0  0  0  0
  187.3940  178.1770  138.9310 C   0  0  0  0  0  2  0  0  0  0  0  0
  181.1270  179.2560  137.4590 C   0  0  0  0  0  0  0  0  0  0  0  0
  179.6190  180.9030  137.2540 C   0  0  0  0  0  0  0  0  0  0  0  0
  180.4700  178.7670  136.3300 C   0  0  0  0  0  3  0  0  0  0  0  0
  179.2580  179.8810  135.9730 S   0  0  0  0  0  0  0  0  0  0  0  0
  180.6660  180.4340  137.9620 N   0  0  0  0  0  0  0  0  0  0  0  0
  178.9400  182.2030  137.5390 C   0  0  0  0  0  3  0  0  0  0  0  0
  179.9770  183.2630  137.8600 C   0  0  0  0  0  2  0  0  0  0  0  0
  179.1930  182.6160  138.9780 C   0  0  0  0  0  2  0  0  0  0  0  0
  185.4960  177.1360  141.1000 C   0  0  0  0  0  2  0  0  0  0  0  0
  186.0510  178.2350  145.0510 C   0  0  0  0  0  1  0  0  0  0  0  0
  185.8560  177.8480  143.6540 C   0  0  0  0  0  0  0  0  0  0  0  0
  185.6930  177.5280  142.5020 C   0  0  0  0  0  0  0  0  0  0  0  0
  186.6060  175.4620  137.5890 C   0  0  0  0  0  2  0  0  0  0  0  0
  187.3700  174.1850  137.3110 C   0  0  0  0  0  2  0  0  0  0  0  0
  188.8230  174.5230  137.0400 C   0  0  0  0  0  2  0  0  0  0  0  0
  189.4630  173.4360  136.1880 C   0  0  2  0  0  3  0  0  0  0  0  0
  191.8450  172.6400  135.7170 C   0  0  0  0  0  1  0  0  0  0  0  0
  190.8760  173.8150  135.7220 C   0  0  2  0  0  3  0  0  0  0  0  0
  191.4290  174.9780  136.5360 C   0  0  0  0  0  2  0  0  0  0  0  0
  193.6870  175.5950  136.6800 C   0  0  1  0  0  3  0  0  0  0  0  0
  192.6960  174.6120  137.1430 N   0  0  0  0  0  0  0  0  0  0  0  0
  193.0890  175.7370  138.0030 C   0  0  0  0  0  2  0  0  0  0  0  0
  195.0760  174.9980  136.8140 C   0  0  0  0  0  2  0  0  0  0  0  0
  195.7830  174.9760  135.4680 C   0  0  0  0  0  2  0  0  0  0  0  0
  198.1000  175.5040  135.2680 O   0  0  0  0  0  0  0  0  0  0  0  0
  196.7140  177.2780  135.6890 O   0  0  0  0  0  1  0  0  0  0  0  0
  196.9300  175.9280  135.4560 C   0  0  0  0  0  0  0  0  0  0  0  0
  188.5230  172.8950  135.0980 C   0  0  0  0  0  2  0  0  0  0  0  0
  189.2800  170.5730  134.5940 O   0  0  0  0  0  0  0  0  0  0  0  0
  187.2980  170.9250  135.6850 O   0  0  0  0  0  1  0  0  0  0  0  0
  188.3260  171.4140  135.1480 C   0  0  0  0  0  0  0  0  0  0  0  0
  2 18  1  0  0  0  0
  3 20  1  0  0  0  0
  4  5  1  0  0  0  0
  5  9  2  0  0  0  0
  6  7  2  0  0  0  0
  7  9  1  0  0  0  0
  8 20  2  0  0  0  0
 10  4  2  0  0  0  0
 10  6  1  0  0  0  0
 11 19  1  0  0  0  0
 12 21  1  0  0  0  0
 13 23  1  0  0  0  0
 13 11  1  0  0  0  0
 15  6  1  0  0  0  0
 15 23  1  0  0  0  0
 16 17  1  0  0  0  0
 16  2  1  0  0  0  0
 17  3  1  0  0  0  0
 18 22  1  0  0  0  0
 18 37  1  1  0  0  0
 19  1  2  0  0  0  0
 20 10  1  0  0  0  0
 21  1  1  0  0  0  0
 21 33  1  1  0  0  0
 22 14  1  6  0  0  0
 22 24  1  0  0  0  0
 23 25  1  6  0  0  0
 24 12  1  0  0  0  0
 25 29  1  0  0  0  0
 26 30  1  0  0  0  0
 26 29  2  0  0  0  0
 27 25  2  0  0  0  0
 28 27  1  0  0  0  0
 28 26  1  0  0  0  0
 30 31  1  0  0  0  0
 30 32  1  0  0  0  0
 31 32  1  0  0  0  0
 33 36  1  0  0  0  0
 35 34  1  0  0  0  0
 36 35  3  0  0  0  0
 38 37  1  0  0  0  0
 39 38  1  0  0  0  0
 40 52  1  6  0  0  0
 40 39  1  0  0  0  0
 42 41  1  1  0  0  0
 42 40  1  0  0  0  0
 42 43  1  0  0  0  0
 43 45  1  0  0  0  0
 44 47  1  1  0  0  0
 44 45  1  0  0  0  0
 44 46  1  0  0  0  0
 45 46  1  0  0  0  0
 48 47  1  0  0  0  0
 49 51  2  0  0  0  0
 51 48  1  0  0  0  0
 51 50  1  0  0  0  0
 52 55  1  0  0  0  0
 53 55  2  0  0  0  0
 55 54  1  0  0  0  0
M  END
>  <MODEL>
8

>  <REMARK>
 VINA RESULT:      -0.8      3.346      5.103
  Name = 
  16 active torsions:
  status: ('A' for Active; 'I' for Inactive)
    1  A    between atoms: C_3  and  C_14
    2  A    between atoms: C_6  and  C_14
    3  A    between atoms: C_6  and  C_38
    4  A    between atoms: C_7  and  N_21
    5  A    between atoms: C_7  and  C_46
    6  A    between atoms: C_8  and  C_20
    7  A    between atoms: C_8  and  C_22
    8  A    between atoms: C_10  and  C_32
    9  A    between atoms: C_12  and  C_20
   10  A    between atoms: C_12  and  C_42
   11  A    between atoms: C_12  and  C_46
   12  A    between atoms: C_13  and  C_52
   13  A    between atoms: C_22  and  C_43
   14  A    between atoms: C_27  and  C_49
   15  A    between atoms: C_27  and  C_55
   16  A    between atoms: C_42  and  C_50
                            x       y       z     vdW  Elec       q    Type
                         _______ _______ _______ _____ _____    ______ ____

>  <TORSDO>
F 16

$$$$
=
 OpenBabel10262420243D

 55 59  0  0  1  0  0  0  0  0999 V2000
  182.8780  179.5970  140.3960 C   0  0  0  0  0  3  0  0  0  0  0  0
  186.9300  177.2460  135.6640 C   0  0  0  0  0  2  0  0  0  0  0  0
  183.5910  176.5450  135.2940 O   0  0  0  0  0  0  0  0  0  0  0  0
  180.4450  174.6660  136.1270 C   0  0  0  0  0  3  0  0  0  0  0  0
  179.2450  174.8000  136.8280 C   0  0  0  0  0  3  0  0  0  0  0  0
  181.0210  176.9650  136.6550 C   0  0  0  0  0  0  0  0  0  0  0  0
  179.8140  177.0860  137.3610 C   0  0  0  0  0  3  0  0  0  0  0  0
  182.8330  174.4560  134.6920 O   0  0  0  0  0  0  0  0  0  0  0  0
  178.9310  176.0090  137.4470 C   0  0  0  0  0  3  0  0  0  0  0  0
  181.3470  175.7380  136.0340 C   0  0  0  0  0  0  0  0  0  0  0  0
  183.0670  181.0550  138.4520 C   0  0  0  0  0  2  0  0  0  0  0  0
  185.3490  179.3270  140.0000 C   0  0  0  0  0  2  0  0  0  0  0  0
  183.0620  179.9650  137.3800 C   0  0  0  0  0  2  0  0  0  0  0  0
  186.7980  179.5600  137.2450 O   0  0  0  0  0  1  0  0  0  0  0  0
  181.9030  178.0490  136.5630 O   0  0  0  0  0  0  0  0  0  0  0  0
  185.6810  177.6310  134.8760 C   0  0  0  0  0  2  0  0  0  0  0  0
  184.8180  176.4160  134.5940 C   0  0  0  0  0  2  0  0  0  0  0  0
  186.7100  177.1480  137.1800 C   0  0  1  0  0  3  0  0  0  0  0  0
  182.4890  180.6190  139.7080 N   0  0  0  0  0  0  0  0  0  0  0  0
  182.6190  175.5410  135.3010 C   0  0  0  0  0  0  0  0  0  0  0  0
  183.9740  178.6600  139.9720 C   0  0  1  0  0  3  0  0  0  0  0  0
  186.1640  178.4450  137.7960 C   0  0  1  0  0  3  0  0  0  0  0  0
  181.7060  179.2960  137.2150 C   0  0  2  0  0  3  0  0  0  0  0  0
  186.3830  178.4540  139.3020 C   0  0  0  0  0  2  0  0  0  0  0  0
  180.7800  180.1580  136.4210 C   0  0  0  0  0  0  0  0  0  0  0  0
  179.5480  181.9800  135.9800 C   0  0  0  0  0  0  0  0  0  0  0  0
  180.3050  179.7650  135.1690 C   0  0  0  0  0  3  0  0  0  0  0  0
  179.3290  181.0230  134.6200 S   0  0  0  0  0  0  0  0  0  0  0  0
  180.3720  181.3800  136.8630 N   0  0  0  0  0  0  0  0  0  0  0  0
  178.9850  183.3510  136.1710 C   0  0  0  0  0  3  0  0  0  0  0  0
  180.0520  184.2680  136.7390 C   0  0  0  0  0  2  0  0  0  0  0  0
  178.9800  183.7090  137.6460 C   0  0  0  0  0  2  0  0  0  0  0  0
  183.9340  177.3670  140.7900 C   0  0  0  0  0  2  0  0  0  0  0  0
  180.5060  175.1470  140.1170 C   0  0  0  0  0  1  0  0  0  0  0  0
  181.7170  175.9320  140.3560 C   0  0  0  0  0  0  0  0  0  0  0  0
  182.7150  176.5800  140.5520 C   0  0  0  0  0  0  0  0  0  0  0  0
  185.8300  175.9480  137.5110 C   0  0  0  0  0  2  0  0  0  0  0  0
  186.5840  174.6460  137.3310 C   0  0  0  0  0  2  0  0  0  0  0  0
  188.0430  174.8650  137.6790 C   0  0  0  0  0  2  0  0  0  0  0  0
  188.9330  174.1970  136.6400 C   0  0  2  0  0  3  0  0  0  0  0  0
  191.4750  173.9990  136.8060 C   0  0  0  0  0  1  0  0  0  0  0  0
  190.2900  174.9020  136.4940 C   0  0  2  0  0  3  0  0  0  0  0  0
  190.3380  176.1780  137.3240 C   0  0  0  0  0  2  0  0  0  0  0  0
  191.2360  177.0460  139.3090 C   0  0  1  0  0  3  0  0  0  0  0  0
  190.5910  175.8630  138.7200 N   0  0  0  0  0  0  0  0  0  0  0  0
  189.8100  176.8210  139.5130 C   0  0  0  0  0  2  0  0  0  0  0  0
  191.9980  176.6250  140.5530 C   0  0  0  0  0  2  0  0  0  0  0  0
  191.7710  177.6170  141.6830 C   0  0  0  0  0  2  0  0  0  0  0  0
  190.6590  175.7840  142.7270 O   0  0  0  0  0  0  0  0  0  0  0  0
  190.8730  177.6700  144.0080 O   0  0  0  0  0  1  0  0  0  0  0  0
  191.0820  176.9640  142.8320 C   0  0  0  0  0  0  0  0  0  0  0  0
  188.1970  173.8860  135.3270 C   0  0  0  0  0  2  0  0  0  0  0  0
  189.1330  171.5960  135.0160 O   0  0  0  0  0  1  0  0  0  0  0  0
  186.8740  171.9450  134.8720 O   0  0  0  0  0  0  0  0  0  0  0  0
  188.0220  172.4260  135.0610 C   0  0  0  0  0  0  0  0  0  0  0  0
  2 18  1  0  0  0  0
  3 20  1  0  0  0  0
  4  5  1  0  0  0  0
  5  9  2  0  0  0  0
  6  7  2  0  0  0  0
  7  9  1  0  0  0  0
  8 20  2  0  0  0  0
 10  4  2  0  0  0  0
 10  6  1  0  0  0  0
 11 19  1  0  0  0  0
 13 11  1  0  0  0  0
 15  6  1  0  0  0  0
 15 23  1  0  0  0  0
 16  2  1  0  0  0  0
 17 16  1  0  0  0  0
 17  3  1  0  0  0  0
 18 37  1  6  0  0  0
 18 22  1  0  0  0  0
 19  1  2  0  0  0  0
 20 10  1  0  0  0  0
 21 12  1  0  0  0  0
 21  1  1  0  0  0  0
 21 33  1  1  0  0  0
 22 14  1  6  0  0  0
 22 24  1  0  0  0  0
 23 25  1  6  0  0  0
 23 13  1  0  0  0  0
 24 12  1  0  0  0  0
 25 29  1  0  0  0  0
 26 30  1  0  0  0  0
 26 29  2  0  0  0  0
 27 25  2  0  0  0  0
 28 27  1  0  0  0  0
 28 26  1  0  0  0  0
 30 31  1  0  0  0  0
 30 32  1  0  0  0  0
 31 32  1  0  0  0  0
 34 35  1  0  0  0  0
 35 36  3  0  0  0  0
 36 33  1  0  0  0  0
 38 37  1  0  0  0  0
 38 39  1  0  0  0  0
 40 52  1  6  0  0  0
 40 39  1  0  0  0  0
 42 40  1  0  0  0  0
 42 41  1  1  0  0  0
 42 43  1  0  0  0  0
 43 45  1  0  0  0  0
 44 46  1  0  0  0  0
 44 47  1  1  0  0  0
 45 44  1  0  0  0  0
 45 46  1  0  0  0  0
 47 48  1  0  0  0  0
 48 51  1  0  0  0  0
 49 51  2  0  0  0  0
 51 50  1  0  0  0  0
 53 55  1  0  0  0  0
 54 55  2  0  0  0  0
 55 52  1  0  0  0  0
M  END
>  <MODEL>
9

>  <REMARK>
 VINA RESULT:      -0.8      2.593      4.321
  Name = 
  16 active torsions:
  status: ('A' for Active; 'I' for Inactive)
    1  A    between atoms: C_3  and  C_14
    2  A    between atoms: C_6  and  C_14
    3  A    between atoms: C_6  and  C_38
    4  A    between atoms: C_7  and  N_21
    5  A    between atoms: C_7  and  C_46
    6  A    between atoms: C_8  and  C_20
    7  A    between atoms: C_8  and  C_22
    8  A    between atoms: C_10  and  C_32
    9  A    between atoms: C_12  and  C_20
   10  A    between atoms: C_12  and  C_42
   11  A    between atoms: C_12  and  C_46
   12  A    between atoms: C_13  and  C_52
   13  A    between atoms: C_22  and  C_43
   14  A    between atoms: C_27  and  C_49
   15  A    between atoms: C_27  and  C_55
   16  A    between atoms: C_42  and  C_50
                            x       y       z     vdW  Elec       q    Type
                         _______ _______ _______ _____ _____    ______ ____

>  <TORSDO>
F 16

$$$$
