=
 OpenBabel10262421503D

 30 33  0  0  1  0  0  0  0  0999 V2000
  187.7500  177.6970  145.3940 C   0  0  1  0  0  3  0  0  0  0  0  0
  188.2430  177.2740  144.0250 C   0  0  0  0  0  0  0  0  0  0  0  0
  188.8940  178.3230  146.1950 C   0  0  0  0  0  2  0  0  0  0  0  0
  191.6650  175.9050  145.3490 C   0  0  0  0  0  2  0  0  0  0  0  0
  189.8290  176.9240  141.2420 C   0  0  1  0  0  3  0  0  0  0  0  0
  190.4390  176.7090  145.1110 C   0  0  0  0  0  0  0  0  0  0  0  0
  191.0220  177.2330  147.3150 C   0  0  0  0  0  2  0  0  0  0  0  0
  188.6760  177.7460  140.8500 N   0  0  0  0  0  0  0  0  0  0  0  0
  190.0990  177.4280  146.1710 C   0  0  0  0  0  0  0  0  0  0  0  0
  189.6330  176.6770  143.8350 C   0  0  2  0  0  3  0  0  0  0  0  0
  188.8050  178.2930  139.5160 C   0  0  0  0  0  2  0  0  0  0  0  0
  190.8530  177.1150  140.1380 C   0  0  0  0  0  2  0  0  0  0  0  0
  192.0110  174.9730  147.6290 C   0  0  0  0  0  1  0  0  0  0  0  0
  192.0550  176.2340  146.7900 C   0  0  1  0  0  3  0  0  0  0  0  0
  187.6670  177.6440  142.9250 C   0  0  0  0  0  0  0  0  0  0  0  0
  187.5140  177.9310  141.6770 C   0  0  0  0  0  0  0  0  0  0  0  0
  190.0960  177.7150  138.9600 C   0  0  0  0  0  2  0  0  0  0  0  0
  190.7100  178.7690  142.7950 C   0  0  0  0  0  1  0  0  0  0  0  0
  190.4340  177.2750  142.6340 C   0  0  2  0  0  3  0  0  0  0  0  0
  186.2900  178.6340  141.1990 C   0  0  0  0  0  2  0  0  0  0  0  0
  186.0180  179.7210  142.0290 O   0  0  0  0  0  1  0  0  0  0  0  0
  186.6860  178.6170  145.3020 O   0  0  0  0  0  0  0  0  0  0  0  0
  185.9120  178.5630  146.4830 C   0  0  2  0  0  3  0  0  0  0  0  0
  186.3460  177.4600  147.4410 C   0  0  0  0  0  1  0  0  0  0  0  0
  184.4060  178.5590  146.2270 C   0  0  0  0  0  2  0  0  0  0  0  0
  184.1080  178.9530  144.7890 C   0  0  0  0  0  2  0  0  0  0  0  0
  182.6710  178.9820  144.5670 N   0  0  0  0  0  2  0  0  0  0  0  0
  182.4540  178.9200  143.1290 C   0  0  0  0  0  2  0  0  0  0  0  0
  180.1720  178.3490  143.9440 C   0  0  0  0  0  1  0  0  0  0  0  0
  180.9700  178.9920  142.8240 C   0  0  0  0  0  2  0  0  0  0  0  0
  1 22  1  6  0  0  0
  1  3  1  0  0  0  0
  2  1  1  0  0  0  0
  4 14  1  0  0  0  0
  5 12  1  6  0  0  0
  5 19  1  0  0  0  0
  6  4  1  0  0  0  0
  6  9  2  0  0  0  0
  8  5  1  0  0  0  0
  8 16  1  0  0  0  0
  9  3  1  0  0  0  0
  9  7  1  0  0  0  0
 10  2  1  1  0  0  0
 10  6  1  0  0  0  0
 11  8  1  0  0  0  0
 14  7  1  0  0  0  0
 14 13  1  1  0  0  0
 15  2  2  0  0  0  0
 16 15  2  0  0  0  0
 17 11  1  0  0  0  0
 17 12  1  0  0  0  0
 19 18  1  1  0  0  0
 19 10  1  0  0  0  0
 20 16  1  0  0  0  0
 20 21  1  0  0  0  0
 22 23  1  0  0  0  0
 23 24  1  6  0  0  0
 25 23  1  0  0  0  0
 26 25  1  0  0  0  0
 27 26  1  0  0  0  0
 28 27  1  0  0  0  0
 30 28  1  0  0  0  0
 30 29  1  0  0  0  0
M  END
>  <MODEL>
1

>  <REMARK>
 VINA RESULT:      -7.7      0.000      0.000
  Name = 
  8 active torsions:
  status: ('A' for Active; 'I' for Inactive)
    1  A    between atoms: C_1  and  O_22
    2  A    between atoms: C_2  and  C_14
    3  A    between atoms: C_2  and  O_22
    4  A    between atoms: C_11  and  C_25
    5  A    between atoms: C_14  and  C_20
    6  A    between atoms: C_19  and  C_29
    7  A    between atoms: C_20  and  N_28
    8  A    between atoms: N_28  and  C_29
                            x       y       z     vdW  Elec       q    Type
                         _______ _______ _______ _____ _____    ______ ____

>  <TORSDO>
F 8

$$$$
=
 OpenBabel10262421503D

 30 33  0  0  1  0  0  0  0  0999 V2000
  187.8460  177.8270  142.2150 C   0  0  1  0  0  3  0  0  0  0  0  0
  186.7180  178.5520  141.5090 C   0  0  0  0  0  0  0  0  0  0  0  0
  187.2830  176.9260  143.3170 C   0  0  0  0  0  2  0  0  0  0  0  0
  184.7120  179.2560  144.7980 C   0  0  0  0  0  2  0  0  0  0  0  0
  183.8980  179.4920  140.2650 C   0  0  1  0  0  3  0  0  0  0  0  0
  185.5340  178.6410  143.7260 C   0  0  0  0  0  0  0  0  0  0  0  0
  186.2180  177.5160  145.6600 C   0  0  0  0  0  2  0  0  0  0  0  0
  184.5740  178.8930  139.1050 N   0  0  0  0  0  0  0  0  0  0  0  0
  186.3410  177.6990  144.1930 C   0  0  0  0  0  0  0  0  0  0  0  0
  185.5060  179.0680  142.2790 C   0  0  2  0  0  3  0  0  0  0  0  0
  183.6900  178.7060  137.9750 C   0  0  0  0  0  2  0  0  0  0  0  0
  182.4250  179.5170  139.9020 C   0  0  0  0  0  2  0  0  0  0  0  0
  185.7530  179.5300  147.0410 C   0  0  0  0  0  1  0  0  0  0  0  0
  185.1530  178.5330  146.0710 C   0  0  1  0  0  3  0  0  0  0  0  0
  186.5620  178.5290  140.2240 C   0  0  0  0  0  0  0  0  0  0  0  0
  185.9810  178.5910  139.0750 C   0  0  0  0  0  0  0  0  0  0  0  0
  182.3580  179.3060  138.3940 C   0  0  0  0  0  2  0  0  0  0  0  0
  183.8680  177.2430  141.5020 C   0  0  0  0  0  1  0  0  0  0  0  0
  184.1320  178.7440  141.6110 C   0  0  2  0  0  3  0  0  0  0  0  0
  186.6780  178.1350  137.8390 C   0  0  0  0  0  2  0  0  0  0  0  0
  187.9980  178.5820  137.8530 O   0  0  0  0  0  1  0  0  0  0  0  0
  188.6040  177.0490  141.3180 O   0  0  0  0  0  0  0  0  0  0  0  0
  189.9790  177.3040  141.5190 C   0  0  2  0  0  3  0  0  0  0  0  0
  190.7900  177.3010  140.2280 C   0  0  0  0  0  1  0  0  0  0  0  0
  190.6090  176.4370  142.6080 C   0  0  0  0  0  2  0  0  0  0  0  0
  191.2400  177.3070  143.6840 C   0  0  0  0  0  2  0  0  0  0  0  0
  191.0190  176.7180  144.9950 N   0  0  0  0  0  2  0  0  0  0  0  0
  190.0250  177.5350  145.6750 C   0  0  0  0  0  2  0  0  0  0  0  0
  189.0990  177.9680  147.9450 C   0  0  0  0  0  1  0  0  0  0  0  0
  189.6730  176.9160  147.0140 C   0  0  0  0  0  2  0  0  0  0  0  0
  1 22  1  6  0  0  0
  1  3  1  0  0  0  0
  2  1  1  0  0  0  0
  3  9  1  0  0  0  0
  4 14  1  0  0  0  0
  5 12  1  6  0  0  0
  5 19  1  0  0  0  0
  6  9  2  0  0  0  0
  6  4  1  0  0  0  0
  7 14  1  0  0  0  0
  8  5  1  0  0  0  0
  9  7  1  0  0  0  0
 10  2  1  6  0  0  0
 10  6  1  0  0  0  0
 11 17  1  0  0  0  0
 11  8  1  0  0  0  0
 14 13  1  1  0  0  0
 15  2  2  0  0  0  0
 16  8  1  0  0  0  0
 16 15  2  0  0  0  0
 17 12  1  0  0  0  0
 19 18  1  6  0  0  0
 19 10  1  0  0  0  0
 20 21  1  0  0  0  0
 20 16  1  0  0  0  0
 22 23  1  0  0  0  0
 23 24  1  6  0  0  0
 23 25  1  0  0  0  0
 25 26  1  0  0  0  0
 26 27  1  0  0  0  0
 27 28  1  0  0  0  0
 28 30  1  0  0  0  0
 30 29  1  0  0  0  0
M  END
>  <MODEL>
2

>  <REMARK>
 VINA RESULT:      -7.6      2.489      6.497
  Name = 
  8 active torsions:
  status: ('A' for Active; 'I' for Inactive)
    1  A    between atoms: C_1  and  O_22
    2  A    between atoms: C_2  and  C_14
    3  A    between atoms: C_2  and  O_22
    4  A    between atoms: C_11  and  C_25
    5  A    between atoms: C_14  and  C_20
    6  A    between atoms: C_19  and  C_29
    7  A    between atoms: C_20  and  N_28
    8  A    between atoms: N_28  and  C_29
                            x       y       z     vdW  Elec       q    Type
                         _______ _______ _______ _____ _____    ______ ____

>  <TORSDO>
F 8

$$$$
=
 OpenBabel10262421503D

 30 33  0  0  1  0  0  0  0  0999 V2000
  186.0640  178.0610  143.9100 C   0  0  1  0  0  3  0  0  0  0  0  0
  187.3530  177.4810  143.3640 C   0  0  0  0  0  0  0  0  0  0  0  0
  186.3620  178.9730  145.1020 C   0  0  0  0  0  2  0  0  0  0  0  0
  188.9230  176.8620  146.8980 C   0  0  0  0  0  2  0  0  0  0  0  0
  190.4070  176.8780  142.5310 C   0  0  1  0  0  3  0  0  0  0  0  0
  188.2050  177.4300  145.7290 C   0  0  0  0  0  0  0  0  0  0  0  0
  187.1320  178.4070  147.5640 C   0  0  0  0  0  2  0  0  0  0  0  0
  189.8480  177.4480  141.2980 N   0  0  0  0  0  0  0  0  0  0  0  0
  187.2430  178.2670  146.0910 C   0  0  0  0  0  0  0  0  0  0  0  0
  188.4880  177.0620  144.2930 C   0  0  2  0  0  3  0  0  0  0  0  0
  190.8620  177.7660  140.3160 C   0  0  0  0  0  2  0  0  0  0  0  0
  191.9120  177.0160  142.3910 C   0  0  0  0  0  2  0  0  0  0  0  0
  187.6010  176.4000  148.9540 C   0  0  0  0  0  1  0  0  0  0  0  0
  188.2270  177.4890  148.1070 C   0  0  1  0  0  3  0  0  0  0  0  0
  187.6910  177.5670  142.1160 C   0  0  0  0  0  0  0  0  0  0  0  0
  188.4370  177.6070  141.0650 C   0  0  0  0  0  0  0  0  0  0  0  0
  192.1750  177.2880  140.9150 C   0  0  0  0  0  2  0  0  0  0  0  0
  190.0190  179.0710  143.8080 C   0  0  0  0  0  1  0  0  0  0  0  0
  189.9030  177.5480  143.8440 C   0  0  2  0  0  3  0  0  0  0  0  0
  187.8820  178.0360  139.7490 C   0  0  0  0  0  2  0  0  0  0  0  0
  186.6620  178.6810  139.9420 O   0  0  0  0  0  1  0  0  0  0  0  0
  185.3670  178.7910  142.9270 O   0  0  0  0  0  0  0  0  0  0  0  0
  184.0240  178.3540  142.8780 C   0  0  2  0  0  3  0  0  0  0  0  0
  183.5130  178.1250  141.4610 C   0  0  0  0  0  1  0  0  0  0  0  0
  183.0730  179.2080  143.7140 C   0  0  0  0  0  2  0  0  0  0  0  0
  181.6270  178.8260  143.4360 C   0  0  0  0  0  2  0  0  0  0  0  0
  180.8870  179.9840  142.9630 N   0  0  0  0  0  2  0  0  0  0  0  0
  179.7980  179.4920  142.1320 C   0  0  0  0  0  2  0  0  0  0  0  0
  179.6610  177.4960  140.6500 C   0  0  0  0  0  1  0  0  0  0  0  0
  179.8300  177.9760  142.0800 C   0  0  0  0  0  2  0  0  0  0  0  0
  1 22  1  6  0  0  0
  1  3  1  0  0  0  0
  2  1  1  0  0  0  0
  3  9  1  0  0  0  0
  4 14  1  0  0  0  0
  5 12  1  6  0  0  0
  5 19  1  0  0  0  0
  6  9  2  0  0  0  0
  6  4  1  0  0  0  0
  7 14  1  0  0  0  0
  8  5  1  0  0  0  0
  9  7  1  0  0  0  0
 10  2  1  6  0  0  0
 10  6  1  0  0  0  0
 11 17  1  0  0  0  0
 11  8  1  0  0  0  0
 14 13  1  1  0  0  0
 15  2  2  0  0  0  0
 16  8  1  0  0  0  0
 16 15  2  0  0  0  0
 17 12  1  0  0  0  0
 19 18  1  6  0  0  0
 19 10  1  0  0  0  0
 20 21  1  0  0  0  0
 20 16  1  0  0  0  0
 23 24  1  6  0  0  0
 23 22  1  0  0  0  0
 23 25  1  0  0  0  0
 26 25  1  0  0  0  0
 27 26  1  0  0  0  0
 28 27  1  0  0  0  0
 29 30  1  0  0  0  0
 30 28  1  0  0  0  0
M  END
>  <MODEL>
3

>  <REMARK>
 VINA RESULT:      -7.4      1.731      2.908
  Name = 
  8 active torsions:
  status: ('A' for Active; 'I' for Inactive)
    1  A    between atoms: C_1  and  O_22
    2  A    between atoms: C_2  and  C_14
    3  A    between atoms: C_2  and  O_22
    4  A    between atoms: C_11  and  C_25
    5  A    between atoms: C_14  and  C_20
    6  A    between atoms: C_19  and  C_29
    7  A    between atoms: C_20  and  N_28
    8  A    between atoms: N_28  and  C_29
                            x       y       z     vdW  Elec       q    Type
                         _______ _______ _______ _____ _____    ______ ____

>  <TORSDO>
F 8

$$$$
=
 OpenBabel10262421503D

 30 33  0  0  1  0  0  0  0  0999 V2000
  189.5350  176.9690  142.6280 C   0  0  1  0  0  3  0  0  0  0  0  0
  189.5450  177.6370  141.2680 C   0  0  0  0  0  0  0  0  0  0  0  0
  188.1400  176.4220  142.9350 C   0  0  0  0  0  2  0  0  0  0  0  0
  186.0400  179.3200  141.7370 C   0  0  0  0  0  2  0  0  0  0  0  0
  188.9610  178.5850  138.2440 C   0  0  1  0  0  3  0  0  0  0  0  0
  187.1880  178.3790  141.7370 C   0  0  0  0  0  0  0  0  0  0  0  0
  185.8910  177.6640  143.5470 C   0  0  0  0  0  2  0  0  0  0  0  0
  190.0880  177.6570  138.0750 N   0  0  0  0  0  0  0  0  0  0  0  0
  187.1020  177.4840  142.7110 C   0  0  0  0  0  0  0  0  0  0  0  0
  188.3540  178.4570  140.7820 C   0  0  2  0  0  3  0  0  0  0  0  0
  190.3310  177.3160  136.6900 C   0  0  0  0  0  2  0  0  0  0  0  0
  188.3240  178.6980  136.8710 C   0  0  0  0  0  2  0  0  0  0  0  0
  185.0900  179.9850  143.9380 C   0  0  0  0  0  1  0  0  0  0  0  0
  185.1840  178.8670  142.9200 C   0  0  1  0  0  3  0  0  0  0  0  0
  190.3970  177.3330  140.3410 C   0  0  0  0  0  0  0  0  0  0  0  0
  190.9050  177.1930  139.1640 C   0  0  0  0  0  0  0  0  0  0  0  0
  189.3480  178.1500  135.8850 C   0  0  0  0  0  2  0  0  0  0  0  0
  187.4510  176.7060  139.1270 C   0  0  0  0  0  1  0  0  0  0  0  0
  187.9160  178.1490  139.3140 C   0  0  2  0  0  3  0  0  0  0  0  0
  192.1390  176.3820  138.9550 C   0  0  0  0  0  2  0  0  0  0  0  0
  193.2610  177.1440  139.2780 O   0  0  0  0  0  1  0  0  0  0  0  0
  190.4730  175.9200  142.6980 O   0  0  0  0  0  0  0  0  0  0  0  0
  191.4620  176.2330  143.6570 C   0  0  2  0  0  3  0  0  0  0  0  0
  192.0530  175.0060  144.3400 C   0  0  0  0  0  1  0  0  0  0  0  0
  191.0290  177.3080  144.6530 C   0  0  0  0  0  2  0  0  0  0  0  0
  191.3930  176.8990  146.0710 C   0  0  0  0  0  2  0  0  0  0  0  0
  190.2430  177.0570  146.9470 N   0  0  0  0  0  2  0  0  0  0  0  0
  189.2220  177.7710  146.1960 C   0  0  0  0  0  2  0  0  0  0  0  0
  188.0890  177.6790  148.4110 C   0  0  0  0  0  1  0  0  0  0  0  0
  187.8860  177.6660  146.9070 C   0  0  0  0  0  2  0  0  0  0  0  0
  1 22  1  6  0  0  0
  1  3  1  0  0  0  0
  2  1  1  0  0  0  0
  4 14  1  0  0  0  0
  5 12  1  6  0  0  0
  5 19  1  0  0  0  0
  6  4  1  0  0  0  0
  6  9  2  0  0  0  0
  8  5  1  0  0  0  0
  8 16  1  0  0  0  0
  9  3  1  0  0  0  0
  9  7  1  0  0  0  0
 10  2  1  1  0  0  0
 10  6  1  0  0  0  0
 11  8  1  0  0  0  0
 14  7  1  0  0  0  0
 14 13  1  1  0  0  0
 15  2  2  0  0  0  0
 16 15  2  0  0  0  0
 17 11  1  0  0  0  0
 17 12  1  0  0  0  0
 19 18  1  1  0  0  0
 19 10  1  0  0  0  0
 20 16  1  0  0  0  0
 20 21  1  0  0  0  0
 22 23  1  0  0  0  0
 23 24  1  1  0  0  0
 23 25  1  0  0  0  0
 25 26  1  0  0  0  0
 26 27  1  0  0  0  0
 28 30  1  0  0  0  0
 28 27  1  0  0  0  0
 30 29  1  0  0  0  0
M  END
>  <MODEL>
4

>  <REMARK>
 VINA RESULT:      -7.4      2.819      6.060
  Name = 
  8 active torsions:
  status: ('A' for Active; 'I' for Inactive)
    1  A    between atoms: C_1  and  O_22
    2  A    between atoms: C_2  and  C_14
    3  A    between atoms: C_2  and  O_22
    4  A    between atoms: C_11  and  C_25
    5  A    between atoms: C_14  and  C_20
    6  A    between atoms: C_19  and  C_29
    7  A    between atoms: C_20  and  N_28
    8  A    between atoms: N_28  and  C_29
                            x       y       z     vdW  Elec       q    Type
                         _______ _______ _______ _____ _____    ______ ____

>  <TORSDO>
F 8

$$$$
=
 OpenBabel10262421503D

 30 33  0  0  1  0  0  0  0  0999 V2000
  188.4510  178.1310  140.3630 C   0  0  1  0  0  3  0  0  0  0  0  0
  187.4330  178.6770  141.3430 C   0  0  0  0  0  0  0  0  0  0  0  0
  189.2240  176.9730  140.9980 C   0  0  0  0  0  2  0  0  0  0  0  0
  189.8220  178.4130  144.4340 C   0  0  0  0  0  2  0  0  0  0  0  0
  185.3200  179.1250  143.7340 C   0  0  1  0  0  3  0  0  0  0  0  0
  189.0810  178.1660  143.1720 C   0  0  0  0  0  0  0  0  0  0  0  0
  191.0620  176.9530  142.8940 C   0  0  0  0  0  2  0  0  0  0  0  0
  184.4460  178.8740  142.5800 N   0  0  0  0  0  0  0  0  0  0  0  0
  189.7500  177.3740  142.3460 C   0  0  0  0  0  0  0  0  0  0  0  0
  187.7470  178.7840  142.8320 C   0  0  2  0  0  3  0  0  0  0  0  0
  183.0650  178.6590  142.9580 C   0  0  0  0  0  2  0  0  0  0  0  0
  184.4560  178.8680  144.9550 C   0  0  0  0  0  2  0  0  0  0  0  0
  192.3010  178.5830  144.3050 C   0  0  0  0  0  1  0  0  0  0  0  0
  191.1240  177.6290  144.2640 C   0  0  1  0  0  3  0  0  0  0  0  0
  186.1770  178.8090  141.0530 C   0  0  0  0  0  0  0  0  0  0  0  0
  184.9020  178.9070  141.2160 C   0  0  0  0  0  0  0  0  0  0  0  0
  183.0150  178.8730  144.4610 C   0  0  0  0  0  2  0  0  0  0  0  0
  186.3300  176.7700  143.5750 C   0  0  0  0  0  1  0  0  0  0  0  0
  186.6140  178.2590  143.7700 C   0  0  2  0  0  3  0  0  0  0  0  0
  183.9730  178.8080  140.0540 C   0  0  0  0  0  2  0  0  0  0  0  0
  183.9530  180.0200  139.3650 O   0  0  0  0  0  1  0  0  0  0  0  0
  187.8400  177.6870  139.1730 O   0  0  0  0  0  0  0  0  0  0  0  0
  188.8350  177.3780  138.2190 C   0  0  2  0  0  3  0  0  0  0  0  0
  189.1980  178.5550  137.3210 C   0  0  0  0  0  1  0  0  0  0  0  0
  188.5480  176.1030  137.4270 C   0  0  0  0  0  2  0  0  0  0  0  0
  189.8460  175.4290  137.0120 C   0  0  0  0  0  2  0  0  0  0  0  0
  190.6330  175.0940  138.1880 N   0  0  0  0  0  2  0  0  0  0  0  0
  192.0260  175.0280  137.7720 C   0  0  0  0  0  2  0  0  0  0  0  0
  192.4510  176.9820  139.2560 C   0  0  0  0  0  1  0  0  0  0  0  0
  192.6620  176.4030  137.8690 C   0  0  0  0  0  2  0  0  0  0  0  0
  1 22  1  6  0  0  0
  1  3  1  0  0  0  0
  1  2  1  0  0  0  0
  3  9  1  0  0  0  0
  5 19  1  0  0  0  0
  5 12  1  1  0  0  0
  6  4  1  0  0  0  0
  7 14  1  0  0  0  0
  8 11  1  0  0  0  0
  8  5  1  0  0  0  0
  9  7  1  0  0  0  0
  9  6  2  0  0  0  0
 10  2  1  6  0  0  0
 10  6  1  0  0  0  0
 10 19  1  0  0  0  0
 11 17  1  0  0  0  0
 14 13  1  6  0  0  0
 14  4  1  0  0  0  0
 15 16  2  0  0  0  0
 15  2  2  0  0  0  0
 16  8  1  0  0  0  0
 17 12  1  0  0  0  0
 19 18  1  6  0  0  0
 20 16  1  0  0  0  0
 21 20  1  0  0  0  0
 23 24  1  6  0  0  0
 23 22  1  0  0  0  0
 25 23  1  0  0  0  0
 26 25  1  0  0  0  0
 26 27  1  0  0  0  0
 28 30  1  0  0  0  0
 28 27  1  0  0  0  0
 30 29  1  0  0  0  0
M  END
>  <MODEL>
5

>  <REMARK>
 VINA RESULT:      -7.0      2.464      7.105
  Name = 
  8 active torsions:
  status: ('A' for Active; 'I' for Inactive)
    1  A    between atoms: C_1  and  O_22
    2  A    between atoms: C_2  and  C_14
    3  A    between atoms: C_2  and  O_22
    4  A    between atoms: C_11  and  C_25
    5  A    between atoms: C_14  and  C_20
    6  A    between atoms: C_19  and  C_29
    7  A    between atoms: C_20  and  N_28
    8  A    between atoms: N_28  and  C_29
                            x       y       z     vdW  Elec       q    Type
                         _______ _______ _______ _____ _____    ______ ____

>  <TORSDO>
F 8

$$$$
=
 OpenBabel10262421503D

 30 33  0  0  1  0  0  0  0  0999 V2000
  184.8970  178.7640  141.9160 C   0  0  1  0  0  3  0  0  0  0  0  0
  185.6360  178.9270  140.6030 C   0  0  0  0  0  0  0  0  0  0  0  0
  183.5860  178.0090  141.6910 C   0  0  0  0  0  2  0  0  0  0  0  0
  182.4030  179.7070  138.5350 C   0  0  0  0  0  2  0  0  0  0  0  0
  186.7940  178.6440  137.6090 C   0  0  1  0  0  3  0  0  0  0  0  0
  183.3910  179.1480  139.4920 C   0  0  0  0  0  0  0  0  0  0  0  0
  181.3330  178.7590  140.5340 C   0  0  0  0  0  2  0  0  0  0  0  0
  187.8580  178.0350  138.4200 N   0  0  0  0  0  0  0  0  0  0  0  0
  182.8110  178.6330  140.5670 C   0  0  0  0  0  0  0  0  0  0  0  0
  184.8870  179.2050  139.3030 C   0  0  2  0  0  3  0  0  0  0  0  0
  188.8400  177.3320  137.6230 C   0  0  0  0  0  2  0  0  0  0  0  0
  187.0220  178.1310  136.1990 C   0  0  0  0  0  2  0  0  0  0  0  0
  180.3700  180.7910  139.4730 C   0  0  0  0  0  1  0  0  0  0  0  0
  181.0510  179.4640  139.2070 C   0  0  1  0  0  3  0  0  0  0  0  0
  186.8690  178.5650  140.4400 C   0  0  0  0  0  0  0  0  0  0  0  0
  187.9490  178.1820  139.8490 C   0  0  0  0  0  0  0  0  0  0  0  0
  188.4400  177.5730  136.1760 C   0  0  0  0  0  2  0  0  0  0  0  0
  185.1150  176.8380  138.3220 C   0  0  0  0  0  1  0  0  0  0  0  0
  185.3470  178.3300  138.0930 C   0  0  2  0  0  3  0  0  0  0  0  0
  189.1190  177.6940  140.6340 C   0  0  0  0  0  2  0  0  0  0  0  0
  188.6810  176.8500  141.6530 O   0  0  0  0  0  1  0  0  0  0  0  0
  185.6750  178.0750  142.8670 O   0  0  0  0  0  0  0  0  0  0  0  0
  185.1570  178.3110  144.1600 C   0  0  2  0  0  3  0  0  0  0  0  0
  184.6960  179.7480  144.3740 C   0  0  0  0  0  1  0  0  0  0  0  0
  186.0650  177.8120  145.2830 C   0  0  0  0  0  2  0  0  0  0  0  0
  187.3900  177.3220  144.7210 C   0  0  0  0  0  2  0  0  0  0  0  0
  188.4930  178.0190  145.3610 N   0  0  0  0  0  2  0  0  0  0  0  0
  189.0420  177.1260  146.3710 C   0  0  0  0  0  2  0  0  0  0  0  0
  187.9560  177.8880  148.4770 C   0  0  0  0  0  1  0  0  0  0  0  0
  189.2430  177.8780  147.6740 C   0  0  0  0  0  2  0  0  0  0  0  0
  1 22  1  1  0  0  0
  2  1  1  0  0  0  0
  3  1  1  0  0  0  0
  4 14  1  0  0  0  0
  4  6  1  0  0  0  0
  5 12  1  6  0  0  0
  5 19  1  0  0  0  0
  5  8  1  0  0  0  0
  6  9  2  0  0  0  0
  7  9  1  0  0  0  0
  8 16  1  0  0  0  0
  9  3  1  0  0  0  0
 10  6  1  1  0  0  0
 10  2  1  0  0  0  0
 11  8  1  0  0  0  0
 14 13  1  1  0  0  0
 14  7  1  0  0  0  0
 15  2  2  0  0  0  0
 16 15  2  0  0  0  0
 16 20  1  0  0  0  0
 17 12  1  0  0  0  0
 17 11  1  0  0  0  0
 19 18  1  1  0  0  0
 19 10  1  0  0  0  0
 20 21  1  0  0  0  0
 22 23  1  0  0  0  0
 23 24  1  1  0  0  0
 23 25  1  0  0  0  0
 26 25  1  0  0  0  0
 26 27  1  0  0  0  0
 27 28  1  0  0  0  0
 28 30  1  0  0  0  0
 30 29  1  0  0  0  0
M  END
>  <MODEL>
6

>  <REMARK>
 VINA RESULT:      -6.9      2.637      7.211
  Name = 
  8 active torsions:
  status: ('A' for Active; 'I' for Inactive)
    1  A    between atoms: C_1  and  O_22
    2  A    between atoms: C_2  and  C_14
    3  A    between atoms: C_2  and  O_22
    4  A    between atoms: C_11  and  C_25
    5  A    between atoms: C_14  and  C_20
    6  A    between atoms: C_19  and  C_29
    7  A    between atoms: C_20  and  N_28
    8  A    between atoms: N_28  and  C_29
                            x       y       z     vdW  Elec       q    Type
                         _______ _______ _______ _____ _____    ______ ____

>  <TORSDO>
F 8

$$$$
=
 OpenBabel10262421503D

 30 33  0  0  1  0  0  0  0  0999 V2000
  191.0800  177.1410  141.2440 C   0  0  1  0  0  3  0  0  0  0  0  0
  189.8080  176.9550  140.4420 C   0  0  0  0  0  0  0  0  0  0  0  0
  192.2090  177.6270  140.3330 C   0  0  0  0  0  2  0  0  0  0  0  0
  191.6320  175.3880  137.3510 C   0  0  0  0  0  2  0  0  0  0  0  0
  187.4380  177.0770  138.2620 C   0  0  1  0  0  3  0  0  0  0  0  0
  191.2560  176.2190  138.5220 C   0  0  0  0  0  0  0  0  0  0  0  0
  193.5900  176.3670  138.4670 C   0  0  0  0  0  2  0  0  0  0  0  0
  186.9340  177.9510  139.3300 N   0  0  0  0  0  0  0  0  0  0  0  0
  192.3140  176.7500  139.1190 C   0  0  0  0  0  0  0  0  0  0  0  0
  189.8440  176.4000  139.0220 C   0  0  2  0  0  3  0  0  0  0  0  0
  185.7710  178.7140  138.9280 C   0  0  0  0  0  2  0  0  0  0  0  0
  186.6400  177.4510  137.0260 C   0  0  0  0  0  2  0  0  0  0  0  0
  193.7490  174.0880  137.4850 C   0  0  0  0  0  1  0  0  0  0  0  0
  193.1580  175.4720  137.3050 C   0  0  1  0  0  3  0  0  0  0  0  0
  188.6810  177.5020  140.7720 C   0  0  0  0  0  0  0  0  0  0  0  0
  187.4950  177.9930  140.6540 C   0  0  0  0  0  0  0  0  0  0  0  0
  185.4350  178.2380  137.5240 C   0  0  0  0  0  2  0  0  0  0  0  0
  189.4290  178.6370  137.8220 C   0  0  0  0  0  1  0  0  0  0  0  0
  188.9690  177.1910  137.9970 C   0  0  2  0  0  3  0  0  0  0  0  0
  186.8730  178.7650  141.7670 C   0  0  0  0  0  2  0  0  0  0  0  0
  186.0320  177.9320  142.5030 O   0  0  0  0  0  1  0  0  0  0  0  0
  190.9000  178.0630  142.2950 O   0  0  0  0  0  0  0  0  0  0  0  0
  191.3070  177.4740  143.5130 C   0  0  2  0  0  3  0  0  0  0  0  0
  191.3300  175.9500  143.4710 C   0  0  0  0  0  1  0  0  0  0  0  0
  190.5640  178.0160  144.7330 C   0  0  0  0  0  2  0  0  0  0  0  0
  189.0610  177.8700  144.5510 C   0  0  0  0  0  2  0  0  0  0  0  0
  188.4340  177.5490  145.8230 N   0  0  0  0  0  2  0  0  0  0  0  0
  189.4890  177.1280  146.7330 C   0  0  0  0  0  2  0  0  0  0  0  0
  187.9370  177.8990  148.5200 C   0  0  0  0  0  1  0  0  0  0  0  0
  189.3780  177.8860  148.0420 C   0  0  0  0  0  2  0  0  0  0  0  0
  1 22  1  1  0  0  0
  2 15  2  0  0  0  0
  2  1  1  0  0  0  0
  3  1  1  0  0  0  0
  4  6  1  0  0  0  0
  5 12  1  6  0  0  0
  5  8  1  0  0  0  0
  6  9  2  0  0  0  0
  7  9  1  0  0  0  0
  8 16  1  0  0  0  0
  9  3  1  0  0  0  0
 10  6  1  6  0  0  0
 10  2  1  0  0  0  0
 11  8  1  0  0  0  0
 12 17  1  0  0  0  0
 14  4  1  0  0  0  0
 14 13  1  1  0  0  0
 14  7  1  0  0  0  0
 16 15  2  0  0  0  0
 16 20  1  0  0  0  0
 17 11  1  0  0  0  0
 19 18  1  1  0  0  0
 19  5  1  0  0  0  0
 19 10  1  0  0  0  0
 20 21  1  0  0  0  0
 22 23  1  0  0  0  0
 23 24  1  6  0  0  0
 23 25  1  0  0  0  0
 26 25  1  0  0  0  0
 26 27  1  0  0  0  0
 27 28  1  0  0  0  0
 28 30  1  0  0  0  0
 30 29  1  0  0  0  0
M  END
>  <MODEL>
7

>  <REMARK>
 VINA RESULT:      -6.9      2.946      6.222
  Name = 
  8 active torsions:
  status: ('A' for Active; 'I' for Inactive)
    1  A    between atoms: C_1  and  O_22
    2  A    between atoms: C_2  and  C_14
    3  A    between atoms: C_2  and  O_22
    4  A    between atoms: C_11  and  C_25
    5  A    between atoms: C_14  and  C_20
    6  A    between atoms: C_19  and  C_29
    7  A    between atoms: C_20  and  N_28
    8  A    between atoms: N_28  and  C_29
                            x       y       z     vdW  Elec       q    Type
                         _______ _______ _______ _____ _____    ______ ____

>  <TORSDO>
F 8

$$$$
=
 OpenBabel10262421503D

 30 33  0  0  1  0  0  0  0  0999 V2000
  187.9820  178.2170  141.5820 C   0  0  1  0  0  3  0  0  0  0  0  0
  188.6970  177.2590  140.6510 C   0  0  0  0  0  0  0  0  0  0  0  0
  189.0020  179.0380  142.3750 C   0  0  0  0  0  2  0  0  0  0  0  0
  191.4650  176.3190  143.2570 C   0  0  0  0  0  2  0  0  0  0  0  0
  190.7930  175.7410  138.7320 C   0  0  1  0  0  3  0  0  0  0  0  0
  190.4710  177.0360  142.4190 C   0  0  0  0  0  0  0  0  0  0  0  0
  190.6180  178.3520  144.3480 C   0  0  0  0  0  2  0  0  0  0  0  0
  189.9060  176.4090  137.7690 N   0  0  0  0  0  0  0  0  0  0  0  0
  190.0200  178.1350  143.0080 C   0  0  0  0  0  0  0  0  0  0  0  0
  189.9800  176.5520  141.0770 C   0  0  2  0  0  3  0  0  0  0  0  0
  190.4190  176.3750  136.4160 C   0  0  0  0  0  2  0  0  0  0  0  0
  192.0560  175.4160  137.9560 C   0  0  0  0  0  2  0  0  0  0  0  0
  191.1330  176.3460  145.7230 C   0  0  0  0  0  1  0  0  0  0  0  0
  191.5680  177.1670  144.5260 C   0  0  1  0  0  3  0  0  0  0  0  0
  188.4520  177.1970  139.3810 C   0  0  0  0  0  0  0  0  0  0  0  0
  188.6320  176.9760  138.1240 C   0  0  0  0  0  0  0  0  0  0  0  0
  191.6920  175.5460  136.4820 C   0  0  0  0  0  2  0  0  0  0  0  0
  191.5860  177.9920  139.6770 C   0  0  0  0  0  1  0  0  0  0  0  0
  191.1170  176.5760  140.0060 C   0  0  2  0  0  3  0  0  0  0  0  0
  187.6780  177.5060  137.1090 C   0  0  0  0  0  2  0  0  0  0  0  0
  187.1960  178.7470  137.5210 O   0  0  0  0  0  1  0  0  0  0  0  0
  187.1300  179.0880  140.8750 O   0  0  0  0  0  0  0  0  0  0  0  0
  185.7850  178.7830  141.1810 C   0  0  2  0  0  3  0  0  0  0  0  0
  184.8280  179.0400  140.0230 C   0  0  0  0  0  1  0  0  0  0  0  0
  185.3000  179.4030  142.4910 C   0  0  0  0  0  2  0  0  0  0  0  0
  184.5340  178.3790  143.3140 C   0  0  0  0  0  2  0  0  0  0  0  0
  184.8130  178.5660  144.7290 N   0  0  0  0  0  2  0  0  0  0  0  0
  186.1430  178.0310  144.9820 C   0  0  0  0  0  2  0  0  0  0  0  0
  187.8510  177.5660  146.7320 C   0  0  0  0  0  1  0  0  0  0  0  0
  186.4850  178.1670  146.4540 C   0  0  0  0  0  2  0  0  0  0  0  0
  1 22  1  6  0  0  0
  1  3  1  0  0  0  0
  2  1  1  0  0  0  0
  3  9  1  0  0  0  0
  4 14  1  0  0  0  0
  5 12  1  6  0  0  0
  5 19  1  0  0  0  0
  6  9  2  0  0  0  0
  6  4  1  0  0  0  0
  7 14  1  0  0  0  0
  8 16  1  0  0  0  0
  8  5  1  0  0  0  0
  9  7  1  0  0  0  0
 10  2  1  6  0  0  0
 10  6  1  0  0  0  0
 11 17  1  0  0  0  0
 11  8  1  0  0  0  0
 14 13  1  1  0  0  0
 15  2  2  0  0  0  0
 16 15  2  0  0  0  0
 17 12  1  0  0  0  0
 19 18  1  6  0  0  0
 19 10  1  0  0  0  0
 20 21  1  0  0  0  0
 20 16  1  0  0  0  0
 22 23  1  0  0  0  0
 23 24  1  6  0  0  0
 23 25  1  0  0  0  0
 25 26  1  0  0  0  0
 26 27  1  0  0  0  0
 27 28  1  0  0  0  0
 28 30  1  0  0  0  0
 30 29  1  0  0  0  0
M  END
>  <MODEL>
8

>  <REMARK>
 VINA RESULT:      -6.8      2.024      4.100
  Name = 
  8 active torsions:
  status: ('A' for Active; 'I' for Inactive)
    1  A    between atoms: C_1  and  O_22
    2  A    between atoms: C_2  and  C_14
    3  A    between atoms: C_2  and  O_22
    4  A    between atoms: C_11  and  C_25
    5  A    between atoms: C_14  and  C_20
    6  A    between atoms: C_19  and  C_29
    7  A    between atoms: C_20  and  N_28
    8  A    between atoms: N_28  and  C_29
                            x       y       z     vdW  Elec       q    Type
                         _______ _______ _______ _____ _____    ______ ____

>  <TORSDO>
F 8

$$$$
=
 OpenBabel10262421503D

 30 33  0  0  1  0  0  0  0  0999 V2000
  184.8620  179.1380  141.8590 C   0  0  1  0  0  3  0  0  0  0  0  0
  184.5340  178.9860  140.3880 C   0  0  0  0  0  0  0  0  0  0  0  0
  183.8800  178.3230  142.7030 C   0  0  0  0  0  2  0  0  0  0  0  0
  180.6590  179.1610  140.9240 C   0  0  0  0  0  2  0  0  0  0  0  0
  183.5150  177.9940  137.4960 C   0  0  1  0  0  3  0  0  0  0  0  0
  182.1110  178.8770  141.0500 C   0  0  0  0  0  0  0  0  0  0  0  0
  181.3260  178.7160  143.2480 C   0  0  0  0  0  2  0  0  0  0  0  0
  184.9380  177.6280  137.4740 N   0  0  0  0  0  0  0  0  0  0  0  0
  182.4660  178.6320  142.3030 C   0  0  0  0  0  0  0  0  0  0  0  0
  183.0900  178.9170  139.9020 C   0  0  2  0  0  3  0  0  0  0  0  0
  185.2800  176.7710  136.3600 C   0  0  0  0  0  2  0  0  0  0  0  0
  182.8670  177.1530  136.4120 C   0  0  0  0  0  2  0  0  0  0  0  0
  179.5580  180.4000  142.7790 C   0  0  0  0  0  1  0  0  0  0  0  0
  180.1320  179.0630  142.3570 C   0  0  1  0  0  3  0  0  0  0  0  0
  185.4100  178.6210  139.5060 C   0  0  0  0  0  0  0  0  0  0  0  0
  185.9010  178.1270  138.4210 C   0  0  0  0  0  0  0  0  0  0  0  0
  184.0070  176.6360  135.5410 C   0  0  0  0  0  2  0  0  0  0  0  0
  183.0550  176.3860  139.4440 C   0  0  0  0  0  1  0  0  0  0  0  0
  182.8090  177.7800  138.8690 C   0  0  2  0  0  3  0  0  0  0  0  0
  187.3640  177.8730  138.2880 C   0  0  0  0  0  2  0  0  0  0  0  0
  188.0540  178.5890  139.2650 O   0  0  0  0  0  1  0  0  0  0  0  0
  186.1780  178.7230  142.1440 O   0  0  0  0  0  0  0  0  0  0  0  0
  186.1870  177.9700  143.3390 C   0  0  2  0  0  3  0  0  0  0  0  0
  185.8810  178.8000  144.5800 C   0  0  0  0  0  1  0  0  0  0  0  0
  187.4340  177.1030  143.5050 C   0  0  0  0  0  2  0  0  0  0  0  0
  187.9230  177.1420  144.9450 C   0  0  0  0  0  2  0  0  0  0  0  0
  189.2810  177.6570  144.9970 N   0  0  0  0  0  2  0  0  0  0  0  0
  189.7800  177.4290  146.3450 C   0  0  0  0  0  2  0  0  0  0  0  0
  188.7700  178.2510  148.4670 C   0  0  0  0  0  1  0  0  0  0  0  0
  188.6170  177.2820  147.3090 C   0  0  0  0  0  2  0  0  0  0  0  0
  1 22  1  6  0  0  0
  1  3  1  0  0  0  0
  2  1  1  0  0  0  0
  4  6  1  0  0  0  0
  4 14  1  0  0  0  0
  5 12  1  6  0  0  0
  5 19  1  0  0  0  0
  6  9  2  0  0  0  0
  8  5  1  0  0  0  0
  8 16  1  0  0  0  0
  9  3  1  0  0  0  0
  9  7  1  0  0  0  0
 10  2  1  1  0  0  0
 10  6  1  0  0  0  0
 11  8  1  0  0  0  0
 14 13  1  1  0  0  0
 14  7  1  0  0  0  0
 15  2  2  0  0  0  0
 16 15  2  0  0  0  0
 17 11  1  0  0  0  0
 17 12  1  0  0  0  0
 19 18  1  1  0  0  0
 19 10  1  0  0  0  0
 20 16  1  0  0  0  0
 20 21  1  0  0  0  0
 22 23  1  0  0  0  0
 23 25  1  0  0  0  0
 23 24  1  1  0  0  0
 25 26  1  0  0  0  0
 26 27  1  0  0  0  0
 27 28  1  0  0  0  0
 28 30  1  0  0  0  0
 30 29  1  0  0  0  0
M  END
>  <MODEL>
9

>  <REMARK>
 VINA RESULT:      -6.8      3.070      7.639
  Name = 
  8 active torsions:
  status: ('A' for Active; 'I' for Inactive)
    1  A    between atoms: C_1  and  O_22
    2  A    between atoms: C_2  and  C_14
    3  A    between atoms: C_2  and  O_22
    4  A    between atoms: C_11  and  C_25
    5  A    between atoms: C_14  and  C_20
    6  A    between atoms: C_19  and  C_29
    7  A    between atoms: C_20  and  N_28
    8  A    between atoms: N_28  and  C_29
                            x       y       z     vdW  Elec       q    Type
                         _______ _______ _______ _____ _____    ______ ____

>  <TORSDO>
F 8

$$$$
