=
 OpenBabel10262422393D

 43 48  0  0  1  0  0  0  0  0999 V2000
  187.6800  177.7530  138.2930 C   0  0  2  0  0  3  0  0  0  0  0  0
  191.2450  173.9250  135.6800 C   0  0  0  0  0  0  0  0  0  0  0  0
  186.3710  174.5300  136.0710 C   0  0  2  0  0  3  0  0  0  0  0  0
  185.6730  176.8460  136.7980 C   0  0  2  0  0  3  0  0  0  0  0  0
  189.8830  175.6170  134.8600 C   0  0  0  0  0  2  0  0  0  0  0  0
  190.0570  173.0030  135.9270 C   0  0  0  0  0  2  0  0  0  0  0  0
  192.1740  173.9550  136.4860 O   0  0  0  0  0  0  0  0  0  0  0  0
  187.8710  174.3110  136.0670 C   0  0  2  0  0  3  0  0  0  0  0  0
  191.1610  174.9180  134.6110 C   0  0  0  0  0  2  0  0  0  0  0  0
  188.9770  173.6020  136.8500 C   0  0  0  0  0  2  0  0  0  0  0  0
  185.7640  175.3570  137.1800 C   0  0  2  0  0  3  0  0  0  0  0  0
  187.2350  174.9760  137.2670 C   0  0  1  0  0  3  0  0  0  0  0  0
  189.4090  177.4370  136.2440 C   0  0  0  0  0  2  0  0  0  0  0  0
  188.8680  177.9380  137.6190 C   0  0  0  0  0  2  0  0  0  0  0  0
  186.3500  177.6480  137.7840 O   0  0  0  0  0  0  0  0  0  0  0  0
  190.0550  177.0320  134.9960 O   0  0  0  0  0  0  0  0  0  0  0  0
  189.1780  178.2880  141.8280 C   0  0  0  0  0  2  0  0  0  0  0  0
  187.9260  178.0370  142.6390 C   0  0  1  0  0  3  0  0  0  0  0  0
  186.4930  178.1710  140.5100 C   0  0  0  0  0  2  0  0  0  0  0  0
  188.9910  177.8240  140.3940 C   0  0  0  0  0  2  0  0  0  0  0  0
  187.7600  178.4450  139.6370 C   0  0  1  0  0  3  0  0  0  0  0  0
  186.6410  178.5690  142.0120 C   0  0  0  0  0  2  0  0  0  0  0  0
  189.2030  175.9920  143.1490 C   0  0  0  0  0  1  0  0  0  0  0  0
  187.7890  176.5890  143.0480 C   0  0  0  0  0  2  0  0  0  0  0  0
  184.1660  177.3030  136.6760 C   0  0  1  0  0  3  0  0  0  0  0  0
  183.6190  177.6370  135.3310 C   0  0  0  0  0  1  0  0  0  0  0  0
  183.1110  176.7960  137.6180 C   0  0  0  0  0  2  0  0  0  0  0  0
  182.7550  177.7440  138.7230 C   0  0  2  0  0  3  0  0  0  0  0  0
  183.4990  179.0340  138.6730 C   0  0  0  0  0  1  0  0  0  0  0  0
  182.9840  177.0780  140.0800 C   0  0  0  0  0  2  0  0  0  0  0  0
  182.2320  177.9390  141.1260 C   0  0  2  0  0  3  0  0  0  0  0  0
  180.4890  179.9770  142.8230 C   0  0  0  0  0  3  0  0  0  0  0  0
  183.3790  178.7030  144.5170 C   0  0  0  0  0  0  0  0  0  0  0  0
  182.6270  178.7340  143.4950 C   0  0  0  0  0  0  0  0  0  0  0  0
  180.8360  178.5200  140.7630 C   0  0  0  0  0  2  0  0  0  0  0  0
  183.1980  178.5270  142.1420 C   0  0  0  0  0  2  0  0  0  0  0  0
  184.1290  178.7480  145.6660 C   0  0  0  0  0  3  0  0  0  0  0  0
  181.1530  178.9830  143.7400 C   0  0  0  0  0  2  0  0  0  0  0  0
  180.3640  179.7560  141.4980 C   0  0  0  0  0  3  0  0  0  0  0  0
  185.6440  178.8980  145.7580 C   0  0  0  0  0  2  0  0  0  0  0  0
  187.9930  178.1090  146.3320 C   0  0  0  0  0  2  0  0  0  0  0  0
  186.5220  177.7470  146.2300 C   0  0  0  0  0  3  0  0  0  0  0  0
  187.1530  178.1430  147.5710 C   0  0  0  0  0  2  0  0  0  0  0  0
  1 14  1  6  0  0  0
  1 21  1  0  0  0  0
  2  6  1  0  0  0  0
  2  7  2  0  0  0  0
  3 11  1  0  0  0  0
  3 12  1  0  0  0  0
  4 11  1  0  0  0  0
  4 15  1  0  0  0  0
  5 16  1  0  0  0  0
  6 10  1  0  0  0  0
  8  3  1  0  0  0  0
  8 10  1  0  0  0  0
  8 12  1  0  0  0  0
  9  5  1  0  0  0  0
  9  2  1  0  0  0  0
 11 12  1  0  0  0  0
 13 14  1  0  0  0  0
 15  1  1  0  0  0  0
 16 13  1  0  0  0  0
 17 18  1  0  0  0  0
 18 24  1  0  0  0  0
 19 22  1  0  0  0  0
 20 17  1  0  0  0  0
 21 20  1  0  0  0  0
 21 19  1  0  0  0  0
 22 18  1  0  0  0  0
 24 23  1  0  0  0  0
 25  4  1  0  0  0  0
 25 27  1  0  0  0  0
 26 25  1  0  0  0  0
 27 28  1  0  0  0  0
 28 30  1  0  0  0  0
 29 28  1  0  0  0  0
 30 31  1  0  0  0  0
 31 36  1  0  0  0  0
 32 38  1  0  0  0  0
 33 37  2  0  0  0  0
 34 38  1  0  0  0  0
 34 33  2  0  0  0  0
 35 31  1  0  0  0  0
 35 39  1  0  0  0  0
 36 34  1  0  0  0  0
 37 40  1  0  0  0  0
 39 32  2  0  0  0  0
 40 42  1  0  0  0  0
 41 43  1  0  0  0  0
 42 41  1  0  0  0  0
 42 43  1  0  0  0  0
M  END
>  <MODEL>
1

>  <REMARK>
 VINA RESULT:      -8.4      0.000      0.000
  Name = 
  9 active torsions:
  status: ('A' for Active; 'I' for Inactive)
    1  A    between atoms: C_1  and  C_35
    2  A    between atoms: C_2  and  C_6
    3  A    between atoms: C_2  and  C_13
    4  A    between atoms: C_3  and  C_4
    5  A    between atoms: C_3  and  C_12
    6  A    between atoms: C_6  and  C_12
    7  A    between atoms: C_19  and  C_37
    8  A    between atoms: C_29  and  C_36
    9  A    between atoms: C_36  and  C_40
                            x       y       z     vdW  Elec       q    Type
                         _______ _______ _______ _____ _____    ______ ____

>  <TORSDO>
F 9

$$$$
=
 OpenBabel10262422393D

 43 48  0  0  1  0  0  0  0  0999 V2000
  188.8120  176.7650  137.8050 C   0  0  2  0  0  3  0  0  0  0  0  0
  193.8240  174.5220  135.7940 C   0  0  0  0  0  0  0  0  0  0  0  0
  192.3710  176.8340  139.8950 C   0  0  2  0  0  3  0  0  0  0  0  0
  189.8710  176.8400  140.2470 C   0  0  2  0  0  3  0  0  0  0  0  0
  192.3470  173.8350  137.4490 C   0  0  0  0  0  2  0  0  0  0  0  0
  194.4010  175.6210  136.6790 C   0  0  0  0  0  2  0  0  0  0  0  0
  193.6530  174.7290  134.5940 O   0  0  0  0  0  0  0  0  0  0  0  0
  192.8080  176.2280  138.5750 C   0  0  2  0  0  3  0  0  0  0  0  0
  193.2770  173.3210  136.4230 C   0  0  0  0  0  2  0  0  0  0  0  0
  193.3530  176.6220  137.2020 C   0  0  0  0  0  2  0  0  0  0  0  0
  191.1200  177.6800  139.9250 C   0  0  2  0  0  3  0  0  0  0  0  0
  191.6680  177.2220  138.5800 C   0  0  1  0  0  3  0  0  0  0  0  0
  190.1030  174.4550  137.2680 C   0  0  0  0  0  2  0  0  0  0  0  0
  189.0670  175.6090  137.0990 C   0  0  0  0  0  2  0  0  0  0  0  0
  188.8840  177.0080  139.2110 O   0  0  0  0  0  0  0  0  0  0  0  0
  191.0210  173.3170  137.2890 O   0  0  0  0  0  0  0  0  0  0  0  0
  185.1300  177.8920  137.3610 C   0  0  0  0  0  2  0  0  0  0  0  0
  184.9080  177.3730  135.9580 C   0  0  1  0  0  3  0  0  0  0  0  0
  187.4340  176.9940  135.6740 C   0  0  0  0  0  2  0  0  0  0  0  0
  186.4000  177.3080  137.9560 C   0  0  0  0  0  2  0  0  0  0  0  0
  187.7090  177.5360  137.1140 C   0  0  1  0  0  3  0  0  0  0  0  0
  186.1090  177.5090  135.0280 C   0  0  0  0  0  2  0  0  0  0  0  0
  182.8650  176.0520  135.5670 C   0  0  0  0  0  1  0  0  0  0  0  0
  184.3530  175.9680  135.9490 C   0  0  0  0  0  2  0  0  0  0  0  0
  189.2600  177.2560  141.6430 C   0  0  1  0  0  3  0  0  0  0  0  0
  187.8090  177.5880  141.7260 C   0  0  0  0  0  1  0  0  0  0  0  0
  189.8020  176.7120  142.9330 C   0  0  0  0  0  2  0  0  0  0  0  0
  190.1130  177.7510  143.9670 C   0  0  2  0  0  3  0  0  0  0  0  0
  191.3010  178.5890  143.6400 C   0  0  0  0  0  1  0  0  0  0  0  0
  190.3160  177.0900  145.3310 C   0  0  0  0  0  2  0  0  0  0  0  0
  189.1680  177.5950  146.2410 C   0  0  2  0  0  3  0  0  0  0  0  0
  187.0430  178.2950  148.4910 C   0  0  0  0  0  3  0  0  0  0  0  0
  185.8360  178.6290  145.1330 C   0  0  0  0  0  0  0  0  0  0  0  0
  186.7770  178.3670  145.9440 C   0  0  0  0  0  0  0  0  0  0  0  0
  189.4200  177.7330  147.7690 C   0  0  0  0  0  2  0  0  0  0  0  0
  187.8160  177.3700  145.5840 C   0  0  0  0  0  2  0  0  0  0  0  0
  184.7510  178.9240  144.3440 C   0  0  0  0  0  3  0  0  0  0  0  0
  186.7740  179.1180  147.2590 C   0  0  0  0  0  2  0  0  0  0  0  0
  188.2250  177.6790  148.6970 C   0  0  0  0  0  3  0  0  0  0  0  0
  184.2480  178.1180  143.1510 C   0  0  0  0  0  2  0  0  0  0  0  0
  184.5540  179.0420  140.8020 C   0  0  0  0  0  2  0  0  0  0  0  0
  183.5980  178.8010  141.9570 C   0  0  0  0  0  3  0  0  0  0  0  0
  183.6600  177.8420  140.7620 C   0  0  0  0  0  2  0  0  0  0  0  0
  1 14  1  1  0  0  0
  1 15  1  0  0  0  0
  2  9  1  0  0  0  0
  2  6  1  0  0  0  0
  3 11  1  0  0  0  0
  4 25  1  0  0  0  0
  6 10  1  0  0  0  0
  7  2  2  0  0  0  0
  8 12  1  0  0  0  0
  8  3  1  0  0  0  0
  9  5  1  0  0  0  0
 10  8  1  0  0  0  0
 11  4  1  0  0  0  0
 12  3  1  0  0  0  0
 12 11  1  0  0  0  0
 13 16  1  0  0  0  0
 14 13  1  0  0  0  0
 15  4  1  0  0  0  0
 16  5  1  0  0  0  0
 17 20  1  0  0  0  0
 18 17  1  0  0  0  0
 19 21  1  0  0  0  0
 21  1  1  0  0  0  0
 21 20  1  0  0  0  0
 22 19  1  0  0  0  0
 22 18  1  0  0  0  0
 23 24  1  0  0  0  0
 24 18  1  0  0  0  0
 25 26  1  0  0  0  0
 25 27  1  0  0  0  0
 27 28  1  0  0  0  0
 28 30  1  0  0  0  0
 29 28  1  0  0  0  0
 30 31  1  0  0  0  0
 31 35  1  0  0  0  0
 32 39  2  0  0  0  0
 33 34  2  0  0  0  0
 34 38  1  0  0  0  0
 35 39  1  0  0  0  0
 36 34  1  0  0  0  0
 36 31  1  0  0  0  0
 37 33  2  0  0  0  0
 38 32  1  0  0  0  0
 40 37  1  0  0  0  0
 41 42  1  0  0  0  0
 42 40  1  0  0  0  0
 43 41  1  0  0  0  0
 43 42  1  0  0  0  0
M  END
>  <MODEL>
2

>  <REMARK>
 VINA RESULT:      -8.4      2.041      6.381
  Name = 
  9 active torsions:
  status: ('A' for Active; 'I' for Inactive)
    1  A    between atoms: C_1  and  C_35
    2  A    between atoms: C_2  and  C_6
    3  A    between atoms: C_2  and  C_13
    4  A    between atoms: C_3  and  C_4
    5  A    between atoms: C_3  and  C_12
    6  A    between atoms: C_6  and  C_12
    7  A    between atoms: C_19  and  C_37
    8  A    between atoms: C_29  and  C_36
    9  A    between atoms: C_36  and  C_40
                            x       y       z     vdW  Elec       q    Type
                         _______ _______ _______ _____ _____    ______ ____

>  <TORSDO>
F 9

$$$$
=
 OpenBabel10262422393D

 43 48  0  0  1  0  0  0  0  0999 V2000
  181.2980  179.1420  138.7540 C   0  0  2  0  0  3  0  0  0  0  0  0
  185.5560  176.3820  135.8470 C   0  0  0  0  0  0  0  0  0  0  0  0
  185.0230  178.3340  140.3390 C   0  0  2  0  0  3  0  0  0  0  0  0
  182.6220  178.7110  141.0230 C   0  0  2  0  0  3  0  0  0  0  0  0
  184.1750  175.7370  137.5980 C   0  0  0  0  0  2  0  0  0  0  0  0
  186.4210  177.2410  136.7630 C   0  0  0  0  0  2  0  0  0  0  0  0
  185.2910  176.7750  134.7120 O   0  0  0  0  0  0  0  0  0  0  0  0
  185.1890  177.8460  138.9140 C   0  0  2  0  0  3  0  0  0  0  0  0
  184.8740  175.2160  136.4050 C   0  0  0  0  0  2  0  0  0  0  0  0
  185.6390  178.3240  137.5320 C   0  0  0  0  0  2  0  0  0  0  0  0
  183.9580  179.3660  140.6320 C   0  0  2  0  0  3  0  0  0  0  0  0
  184.2590  179.0070  139.1830 C   0  0  1  0  0  3  0  0  0  0  0  0
  182.0760  176.7420  137.7930 C   0  0  0  0  0  2  0  0  0  0  0  0
  181.2560  178.0650  137.8950 C   0  0  0  0  0  2  0  0  0  0  0  0
  181.5720  179.1790  140.1550 O   0  0  0  0  0  0  0  0  0  0  0  0
  182.7670  175.4740  137.5610 O   0  0  0  0  0  0  0  0  0  0  0  0
  179.9210  181.8140  136.3070 C   0  0  0  0  0  2  0  0  0  0  0  0
  179.8970  182.9920  137.2550 C   0  0  1  0  0  3  0  0  0  0  0  0
  180.2640  181.4170  139.2530 C   0  0  0  0  0  2  0  0  0  0  0  0
  180.7360  180.6720  136.8880 C   0  0  0  0  0  2  0  0  0  0  0  0
  180.2830  180.1720  138.3090 C   0  0  1  0  0  3  0  0  0  0  0  0
  179.4920  182.6510  138.6860 C   0  0  0  0  0  2  0  0  0  0  0  0
  180.9010  185.0880  136.4400 C   0  0  0  0  0  1  0  0  0  0  0  0
  181.1790  183.7880  137.2130 C   0  0  0  0  0  2  0  0  0  0  0  0
  182.2580  179.0330  142.5270 C   0  0  1  0  0  3  0  0  0  0  0  0
  180.9210  179.6110  142.8390 C   0  0  0  0  0  1  0  0  0  0  0  0
  182.8160  178.2220  143.6620 C   0  0  0  0  0  2  0  0  0  0  0  0
  184.0450  178.7990  144.2950 C   0  0  2  0  0  3  0  0  0  0  0  0
  184.2920  180.2260  143.9410 C   0  0  0  0  0  1  0  0  0  0  0  0
  185.2700  177.9630  143.9220 C   0  0  0  0  0  2  0  0  0  0  0  0
  186.1800  177.9310  145.1760 C   0  0  2  0  0  3  0  0  0  0  0  0
  187.7200  178.2820  147.9280 C   0  0  0  0  0  3  0  0  0  0  0  0
  189.7110  176.9710  145.2530 C   0  0  0  0  0  0  0  0  0  0  0  0
  188.5950  177.3820  145.6940 C   0  0  0  0  0  0  0  0  0  0  0  0
  185.5710  178.2910  146.5600 C   0  0  0  0  0  2  0  0  0  0  0  0
  187.6430  178.0720  144.7880 C   0  0  0  0  0  2  0  0  0  0  0  0
  190.9630  176.5510  144.8730 C   0  0  0  0  0  3  0  0  0  0  0  0
  188.3040  177.1270  147.1580 C   0  0  0  0  0  2  0  0  0  0  0  0
  186.5040  178.7920  147.6420 C   0  0  0  0  0  3  0  0  0  0  0  0
  191.7130  176.9570  143.6090 C   0  0  0  0  0  2  0  0  0  0  0  0
  191.5430  177.4390  141.1180 C   0  0  0  0  0  2  0  0  0  0  0  0
  191.0310  177.7600  142.5110 C   0  0  0  0  0  3  0  0  0  0  0  0
  190.2840  176.7830  141.5950 C   0  0  0  0  0  2  0  0  0  0  0  0
  1 14  1  1  0  0  0
  1 15  1  0  0  0  0
  2  9  1  0  0  0  0
  2  6  1  0  0  0  0
  3 11  1  0  0  0  0
  4 25  1  0  0  0  0
  6 10  1  0  0  0  0
  7  2  2  0  0  0  0
  8 12  1  0  0  0  0
  8  3  1  0  0  0  0
  9  5  1  0  0  0  0
 10  8  1  0  0  0  0
 11  4  1  0  0  0  0
 12  3  1  0  0  0  0
 12 11  1  0  0  0  0
 13 14  1  0  0  0  0
 15  4  1  0  0  0  0
 16  5  1  0  0  0  0
 16 13  1  0  0  0  0
 17 20  1  0  0  0  0
 17 18  1  0  0  0  0
 18 22  1  0  0  0  0
 20 21  1  0  0  0  0
 21  1  1  0  0  0  0
 21 19  1  0  0  0  0
 22 19  1  0  0  0  0
 23 24  1  0  0  0  0
 24 18  1  0  0  0  0
 25 26  1  0  0  0  0
 25 27  1  0  0  0  0
 27 28  1  0  0  0  0
 29 28  1  0  0  0  0
 30 28  1  0  0  0  0
 30 31  1  0  0  0  0
 31 35  1  0  0  0  0
 33 34  2  0  0  0  0
 34 38  1  0  0  0  0
 35 39  1  0  0  0  0
 36 31  1  0  0  0  0
 36 34  1  0  0  0  0
 37 33  2  0  0  0  0
 38 32  1  0  0  0  0
 39 32  2  0  0  0  0
 40 37  1  0  0  0  0
 41 43  1  0  0  0  0
 41 42  1  0  0  0  0
 42 40  1  0  0  0  0
 43 42  1  0  0  0  0
M  END
>  <MODEL>
3

>  <REMARK>
 VINA RESULT:      -8.1      2.817      7.434
  Name = 
  9 active torsions:
  status: ('A' for Active; 'I' for Inactive)
    1  A    between atoms: C_1  and  C_35
    2  A    between atoms: C_2  and  C_6
    3  A    between atoms: C_2  and  C_13
    4  A    between atoms: C_3  and  C_4
    5  A    between atoms: C_3  and  C_12
    6  A    between atoms: C_6  and  C_12
    7  A    between atoms: C_19  and  C_37
    8  A    between atoms: C_29  and  C_36
    9  A    between atoms: C_36  and  C_40
                            x       y       z     vdW  Elec       q    Type
                         _______ _______ _______ _____ _____    ______ ____

>  <TORSDO>
F 9

$$$$
=
 OpenBabel10262422393D

 43 48  0  0  1  0  0  0  0  0999 V2000
  191.2100  176.8150  138.9580 C   0  0  2  0  0  3  0  0  0  0  0  0
  195.8170  173.6340  137.2690 C   0  0  0  0  0  0  0  0  0  0  0  0
  191.0250  173.8070  136.1380 C   0  0  2  0  0  3  0  0  0  0  0  0
  189.8790  175.9500  136.8210 C   0  0  2  0  0  3  0  0  0  0  0  0
  194.5930  175.3060  136.2220 C   0  0  0  0  0  2  0  0  0  0  0  0
  194.7230  172.5990  137.0340 C   0  0  0  0  0  2  0  0  0  0  0  0
  196.4420  173.6340  138.3290 O   0  0  0  0  0  0  0  0  0  0  0  0
  192.4680  173.7060  136.5930 C   0  0  2  0  0  3  0  0  0  0  0  0
  195.9550  174.7450  136.3290 C   0  0  0  0  0  2  0  0  0  0  0  0
  193.3510  172.9910  137.6170 C   0  0  0  0  0  2  0  0  0  0  0  0
  190.0160  174.4370  137.0680 C   0  0  2  0  0  3  0  0  0  0  0  0
  191.4220  174.1630  137.5840 C   0  0  1  0  0  3  0  0  0  0  0  0
  193.5110  176.8940  137.5480 C   0  0  0  0  0  2  0  0  0  0  0  0
  192.5190  177.1750  138.7190 C   0  0  0  0  0  2  0  0  0  0  0  0
  190.1230  176.6720  138.0430 O   0  0  0  0  0  0  0  0  0  0  0  0
  194.5520  176.7020  136.5400 O   0  0  0  0  0  0  0  0  0  0  0  0
  191.8720  177.7420  142.6630 C   0  0  0  0  0  2  0  0  0  0  0  0
  190.8590  176.8200  143.3060 C   0  0  1  0  0  3  0  0  0  0  0  0
  189.7740  176.3800  141.0190 C   0  0  0  0  0  2  0  0  0  0  0  0
  192.0890  177.3700  141.2070 C   0  0  0  0  0  2  0  0  0  0  0  0
  190.7930  177.3350  140.3170 C   0  0  1  0  0  3  0  0  0  0  0  0
  189.5510  176.6710  142.5360 C   0  0  0  0  0  2  0  0  0  0  0  0
  192.0090  175.5720  145.0930 C   0  0  0  0  0  1  0  0  0  0  0  0
  191.4530  175.4770  143.6620 C   0  0  0  0  0  2  0  0  0  0  0  0
  188.4420  176.3010  136.2680 C   0  0  1  0  0  3  0  0  0  0  0  0
  188.0320  175.7720  134.9360 C   0  0  0  0  0  1  0  0  0  0  0  0
  187.2750  176.5150  137.1890 C   0  0  0  0  0  2  0  0  0  0  0  0
  187.0070  177.9480  137.5350 C   0  0  2  0  0  3  0  0  0  0  0  0
  187.6170  178.9200  136.5840 C   0  0  0  0  0  1  0  0  0  0  0  0
  187.4990  178.2460  138.9520 C   0  0  0  0  0  2  0  0  0  0  0  0
  186.2340  178.3790  139.8380 C   0  0  2  0  0  3  0  0  0  0  0  0
  183.4840  179.0350  141.2800 C   0  0  0  0  0  3  0  0  0  0  0  0
  186.0690  177.8360  143.4540 C   0  0  0  0  0  0  0  0  0  0  0  0
  185.6610  178.1370  142.2900 C   0  0  0  0  0  0  0  0  0  0  0  0
  184.8760  178.7310  139.1670 C   0  0  0  0  0  2  0  0  0  0  0  0
  186.6100  178.6690  141.2810 C   0  0  0  0  0  2  0  0  0  0  0  0
  186.4120  177.5460  144.7510 C   0  0  0  0  0  3  0  0  0  0  0  0
  184.1900  177.9190  142.0050 C   0  0  0  0  0  2  0  0  0  0  0  0
  183.8090  179.3870  140.0180 C   0  0  0  0  0  3  0  0  0  0  0  0
  187.6860  177.9760  145.4720 C   0  0  0  0  0  2  0  0  0  0  0  0
  189.6720  177.4900  146.9840 C   0  0  0  0  0  2  0  0  0  0  0  0
  188.2170  177.1940  146.6650 C   0  0  0  0  0  3  0  0  0  0  0  0
  188.6040  178.1940  147.7620 C   0  0  0  0  0  2  0  0  0  0  0  0
  1 14  1  6  0  0  0
  1 21  1  0  0  0  0
  2  7  2  0  0  0  0
  3  8  1  0  0  0  0
  3 11  1  0  0  0  0
  3 12  1  0  0  0  0
  4 11  1  0  0  0  0
  4 15  1  0  0  0  0
  5  9  1  0  0  0  0
  5 16  1  0  0  0  0
  6  2  1  0  0  0  0
  6 10  1  0  0  0  0
  8 12  1  0  0  0  0
  8 10  1  0  0  0  0
  9  2  1  0  0  0  0
 11 12  1  0  0  0  0
 13 14  1  0  0  0  0
 15  1  1  0  0  0  0
 16 13  1  0  0  0  0
 17 18  1  0  0  0  0
 18 24  1  0  0  0  0
 19 22  1  0  0  0  0
 20 17  1  0  0  0  0
 21 19  1  0  0  0  0
 21 20  1  0  0  0  0
 22 18  1  0  0  0  0
 24 23  1  0  0  0  0
 25  4  1  0  0  0  0
 25 27  1  0  0  0  0
 26 25  1  0  0  0  0
 27 28  1  0  0  0  0
 28 30  1  0  0  0  0
 29 28  1  0  0  0  0
 30 31  1  0  0  0  0
 31 36  1  0  0  0  0
 32 38  1  0  0  0  0
 33 37  2  0  0  0  0
 34 33  2  0  0  0  0
 35 31  1  0  0  0  0
 35 39  1  0  0  0  0
 36 34  1  0  0  0  0
 37 40  1  0  0  0  0
 38 34  1  0  0  0  0
 39 32  2  0  0  0  0
 40 42  1  0  0  0  0
 41 43  1  0  0  0  0
 42 41  1  0  0  0  0
 42 43  1  0  0  0  0
M  END
>  <MODEL>
4

>  <REMARK>
 VINA RESULT:      -7.9      2.470      3.955
  Name = 
  9 active torsions:
  status: ('A' for Active; 'I' for Inactive)
    1  A    between atoms: C_1  and  C_35
    2  A    between atoms: C_2  and  C_6
    3  A    between atoms: C_2  and  C_13
    4  A    between atoms: C_3  and  C_4
    5  A    between atoms: C_3  and  C_12
    6  A    between atoms: C_6  and  C_12
    7  A    between atoms: C_19  and  C_37
    8  A    between atoms: C_29  and  C_36
    9  A    between atoms: C_36  and  C_40
                            x       y       z     vdW  Elec       q    Type
                         _______ _______ _______ _____ _____    ______ ____

>  <TORSDO>
F 9

$$$$
=
 OpenBabel10262422393D

 43 48  0  0  1  0  0  0  0  0999 V2000
  190.0190  176.7090  140.0080 C   0  0  2  0  0  3  0  0  0  0  0  0
  194.1700  173.9010  136.9950 C   0  0  0  0  0  0  0  0  0  0  0  0
  189.6500  175.6160  136.0450 C   0  0  2  0  0  3  0  0  0  0  0  0
  188.8220  177.3230  137.7110 C   0  0  2  0  0  3  0  0  0  0  0  0
  193.3880  176.0860  136.9310 C   0  0  0  0  0  2  0  0  0  0  0  0
  192.9480  173.3760  136.2490 C   0  0  0  0  0  2  0  0  0  0  0  0
  194.6550  173.2430  137.9140 O   0  0  0  0  0  0  0  0  0  0  0  0
  190.9890  175.0020  136.4040 C   0  0  2  0  0  3  0  0  0  0  0  0
  194.6100  175.2740  136.7550 C   0  0  0  0  0  2  0  0  0  0  0  0
  191.6060  173.7060  136.9310 C   0  0  0  0  0  2  0  0  0  0  0  0
  188.6620  175.8980  137.1530 C   0  0  2  0  0  3  0  0  0  0  0  0
  189.9280  175.1150  137.4750 C   0  0  1  0  0  3  0  0  0  0  0  0
  192.4500  176.9920  138.8670 C   0  0  0  0  0  2  0  0  0  0  0  0
  191.3900  176.8550  140.0040 C   0  0  0  0  0  2  0  0  0  0  0  0
  189.0410  177.2720  139.1340 O   0  0  0  0  0  0  0  0  0  0  0  0
  193.5540  177.1120  137.9160 O   0  0  0  0  0  0  0  0  0  0  0  0
  188.3890  178.0270  143.2690 C   0  0  0  0  0  2  0  0  0  0  0  0
  189.5540  177.7990  144.2060 C   0  0  1  0  0  3  0  0  0  0  0  0
  190.7300  176.3600  142.4300 C   0  0  0  0  0  2  0  0  0  0  0  0
  188.8330  177.9110  141.8210 C   0  0  0  0  0  2  0  0  0  0  0  0
  189.5410  176.5600  141.4360 C   0  0  1  0  0  3  0  0  0  0  0  0
  190.3520  176.5270  143.9360 C   0  0  0  0  0  2  0  0  0  0  0  0
  191.9070  178.5130  144.3650 C   0  0  0  0  0  1  0  0  0  0  0  0
  190.4520  179.0090  144.3080 C   0  0  0  0  0  2  0  0  0  0  0  0
  187.5440  178.1960  137.3950 C   0  0  1  0  0  3  0  0  0  0  0  0
  187.6710  179.3540  136.4670 C   0  0  0  0  0  1  0  0  0  0  0  0
  186.1650  177.5980  137.3860 C   0  0  0  0  0  2  0  0  0  0  0  0
  185.1940  178.2570  138.3170 C   0  0  2  0  0  3  0  0  0  0  0  0
  185.7740  178.6030  139.6460 C   0  0  0  0  0  1  0  0  0  0  0  0
  183.9680  177.3650  138.5140 C   0  0  0  0  0  2  0  0  0  0  0  0
  182.8020  178.3030  138.9220 C   0  0  2  0  0  3  0  0  0  0  0  0
  180.5510  180.5070  139.2940 C   0  0  0  0  0  3  0  0  0  0  0  0
  181.6860  178.9960  142.3380 C   0  0  0  0  0  0  0  0  0  0  0  0
  181.7230  179.0840  141.0720 C   0  0  0  0  0  0  0  0  0  0  0  0
  181.9730  179.0030  137.8090 C   0  0  0  0  0  2  0  0  0  0  0  0
  182.9860  178.8110  140.3420 C   0  0  0  0  0  2  0  0  0  0  0  0
  181.5760  178.9850  143.7070 C   0  0  0  0  0  3  0  0  0  0  0  0
  180.4340  179.4680  140.3770 C   0  0  0  0  0  2  0  0  0  0  0  0
  181.2470  180.2840  138.1600 C   0  0  0  0  0  3  0  0  0  0  0  0
  182.7220  178.9980  144.7120 C   0  0  0  0  0  2  0  0  0  0  0  0
  185.2190  178.9170  145.1870 C   0  0  0  0  0  2  0  0  0  0  0  0
  184.1100  179.4830  144.3180 C   0  0  0  0  0  3  0  0  0  0  0  0
  184.9330  178.2700  143.8680 C   0  0  0  0  0  2  0  0  0  0  0  0
  1 14  1  1  0  0  0
  1 21  1  0  0  0  0
  2  7  2  0  0  0  0
  3  8  1  0  0  0  0
  3 11  1  0  0  0  0
  3 12  1  0  0  0  0
  4 15  1  0  0  0  0
  5 16  1  0  0  0  0
  6 10  1  0  0  0  0
  6  2  1  0  0  0  0
  8 10  1  0  0  0  0
  8 12  1  0  0  0  0
  9  5  1  0  0  0  0
  9  2  1  0  0  0  0
 11 12  1  0  0  0  0
 11  4  1  0  0  0  0
 13 14  1  0  0  0  0
 15  1  1  0  0  0  0
 16 13  1  0  0  0  0
 17 18  1  0  0  0  0
 18 24  1  0  0  0  0
 19 22  1  0  0  0  0
 20 17  1  0  0  0  0
 21 20  1  0  0  0  0
 21 19  1  0  0  0  0
 22 18  1  0  0  0  0
 24 23  1  0  0  0  0
 25  4  1  0  0  0  0
 26 25  1  0  0  0  0
 27 25  1  0  0  0  0
 27 28  1  0  0  0  0
 28 30  1  0  0  0  0
 28 29  1  0  0  0  0
 30 31  1  0  0  0  0
 31 36  1  0  0  0  0
 32 38  1  0  0  0  0
 33 37  2  0  0  0  0
 34 33  2  0  0  0  0
 35 39  1  0  0  0  0
 35 31  1  0  0  0  0
 36 34  1  0  0  0  0
 37 40  1  0  0  0  0
 38 34  1  0  0  0  0
 39 32  2  0  0  0  0
 42 40  1  0  0  0  0
 42 41  1  0  0  0  0
 43 42  1  0  0  0  0
 43 41  1  0  0  0  0
M  END
>  <MODEL>
5

>  <REMARK>
 VINA RESULT:      -7.4      2.069      3.318
  Name = 
  9 active torsions:
  status: ('A' for Active; 'I' for Inactive)
    1  A    between atoms: C_1  and  C_35
    2  A    between atoms: C_2  and  C_6
    3  A    between atoms: C_2  and  C_13
    4  A    between atoms: C_3  and  C_4
    5  A    between atoms: C_3  and  C_12
    6  A    between atoms: C_6  and  C_12
    7  A    between atoms: C_19  and  C_37
    8  A    between atoms: C_29  and  C_36
    9  A    between atoms: C_36  and  C_40
                            x       y       z     vdW  Elec       q    Type
                         _______ _______ _______ _____ _____    ______ ____

>  <TORSDO>
F 9

$$$$
=
 OpenBabel10262422393D

 43 48  0  0  1  0  0  0  0  0999 V2000
  183.9230  176.7120  137.1890 C   0  0  2  0  0  3  0  0  0  0  0  0
  179.8840  179.7050  140.1760 C   0  0  0  0  0  0  0  0  0  0  0  0
  184.7790  179.1840  140.3820 C   0  0  2  0  0  3  0  0  0  0  0  0
  185.8070  178.2470  138.2740 C   0  0  2  0  0  3  0  0  0  0  0  0
  181.5170  180.3530  138.6580 C   0  0  0  0  0  2  0  0  0  0  0  0
  180.9070  179.5200  141.2920 C   0  0  0  0  0  2  0  0  0  0  0  0
  178.9480  178.9150  140.0670 O   0  0  0  0  0  0  0  0  0  0  0  0
  183.2640  179.2310  140.3610 C   0  0  2  0  0  3  0  0  0  0  0  0
  180.1540  180.6820  139.1240 C   0  0  0  0  0  2  0  0  0  0  0  0
  182.0380  178.5310  140.9500 C   0  0  0  0  0  2  0  0  0  0  0  0
  185.4750  177.9980  139.7560 C   0  0  2  0  0  3  0  0  0  0  0  0
  183.9600  177.9680  139.9070 C   0  0  1  0  0  3  0  0  0  0  0  0
  182.2280  178.8090  137.0580 C   0  0  0  0  0  2  0  0  0  0  0  0
  182.7990  177.3870  136.7640 C   0  0  0  0  0  2  0  0  0  0  0  0
  185.2350  177.2060  137.4600 O   0  0  0  0  0  0  0  0  0  0  0  0
  181.5640  180.0980  137.2500 O   0  0  0  0  0  0  0  0  0  0  0  0
  184.5170  172.8850  137.3610 C   0  0  0  0  0  2  0  0  0  0  0  0
  185.5120  172.7650  136.2270 C   0  0  1  0  0  3  0  0  0  0  0  0
  184.9570  175.1530  135.4580 C   0  0  0  0  0  2  0  0  0  0  0  0
  184.3370  174.3380  137.7650 C   0  0  0  0  0  2  0  0  0  0  0  0
  183.9110  175.3150  136.6080 C   0  0  1  0  0  3  0  0  0  0  0  0
  185.2350  173.6760  135.0350 C   0  0  0  0  0  2  0  0  0  0  0  0
  187.8480  172.9190  135.4620 C   0  0  0  0  0  1  0  0  0  0  0  0
  186.9390  172.8860  136.7030 C   0  0  0  0  0  2  0  0  0  0  0  0
  187.3700  178.3050  138.0520 C   0  0  1  0  0  3  0  0  0  0  0  0
  187.9010  178.3390  136.6600 C   0  0  0  0  0  1  0  0  0  0  0  0
  188.2800  178.9860  139.0350 C   0  0  0  0  0  2  0  0  0  0  0  0
  189.2630  178.0770  139.7080 C   0  0  2  0  0  3  0  0  0  0  0  0
  190.2160  177.4190  138.7690 C   0  0  0  0  0  1  0  0  0  0  0  0
  188.5230  177.0080  140.5130 C   0  0  0  0  0  2  0  0  0  0  0  0
  189.1510  177.0100  141.9300 C   0  0  2  0  0  3  0  0  0  0  0  0
  190.7450  176.5870  144.6410 C   0  0  0  0  0  3  0  0  0  0  0  0
  187.4780  178.0100  145.0280 C   0  0  0  0  0  0  0  0  0  0  0  0
  188.4070  177.5700  144.2810 C   0  0  0  0  0  0  0  0  0  0  0  0
  190.6410  176.5980  142.0960 C   0  0  0  0  0  2  0  0  0  0  0  0
  188.0780  176.8990  143.0000 C   0  0  0  0  0  2  0  0  0  0  0  0
  186.5370  178.4560  145.9220 C   0  0  0  0  0  3  0  0  0  0  0  0
  189.8260  177.7750  144.7660 C   0  0  0  0  0  2  0  0  0  0  0  0
  191.0900  176.0730  143.4430 C   0  0  0  0  0  3  0  0  0  0  0  0
  185.0540  178.1010  145.9350 C   0  0  0  0  0  2  0  0  0  0  0  0
  184.2330  179.6440  144.0870 C   0  0  0  0  0  2  0  0  0  0  0  0
  184.0000  179.1040  145.4870 C   0  0  0  0  0  3  0  0  0  0  0  0
  183.2640  178.5190  144.2750 C   0  0  0  0  0  2  0  0  0  0  0  0
  1 14  1  6  0  0  0
  1 15  1  0  0  0  0
  2  6  1  0  0  0  0
  4 11  1  0  0  0  0
  5  9  1  0  0  0  0
  7  2  2  0  0  0  0
  8  3  1  0  0  0  0
  8 10  1  0  0  0  0
  9  2  1  0  0  0  0
 10  6  1  0  0  0  0
 11 12  1  0  0  0  0
 11  3  1  0  0  0  0
 12  8  1  0  0  0  0
 12  3  1  0  0  0  0
 13 16  1  0  0  0  0
 14 13  1  0  0  0  0
 15  4  1  0  0  0  0
 16  5  1  0  0  0  0
 17 20  1  0  0  0  0
 18 24  1  0  0  0  0
 18 17  1  0  0  0  0
 19 21  1  0  0  0  0
 21  1  1  0  0  0  0
 21 20  1  0  0  0  0
 22 19  1  0  0  0  0
 22 18  1  0  0  0  0
 23 24  1  0  0  0  0
 25  4  1  0  0  0  0
 25 27  1  0  0  0  0
 26 25  1  0  0  0  0
 27 28  1  0  0  0  0
 28 30  1  0  0  0  0
 29 28  1  0  0  0  0
 30 31  1  0  0  0  0
 31 35  1  0  0  0  0
 31 36  1  0  0  0  0
 32 38  1  0  0  0  0
 33 37  2  0  0  0  0
 34 38  1  0  0  0  0
 34 33  2  0  0  0  0
 35 39  1  0  0  0  0
 36 34  1  0  0  0  0
 37 40  1  0  0  0  0
 39 32  2  0  0  0  0
 41 43  1  0  0  0  0
 41 42  1  0  0  0  0
 42 40  1  0  0  0  0
 43 42  1  0  0  0  0
M  END
>  <MODEL>
6

>  <REMARK>
 VINA RESULT:      -7.1      2.202      7.684
  Name = 
  9 active torsions:
  status: ('A' for Active; 'I' for Inactive)
    1  A    between atoms: C_1  and  C_35
    2  A    between atoms: C_2  and  C_6
    3  A    between atoms: C_2  and  C_13
    4  A    between atoms: C_3  and  C_4
    5  A    between atoms: C_3  and  C_12
    6  A    between atoms: C_6  and  C_12
    7  A    between atoms: C_19  and  C_37
    8  A    between atoms: C_29  and  C_36
    9  A    between atoms: C_36  and  C_40
                            x       y       z     vdW  Elec       q    Type
                         _______ _______ _______ _____ _____    ______ ____

>  <TORSDO>
F 9

$$$$
=
 OpenBabel10262422393D

 43 48  0  0  1  0  0  0  0  0999 V2000
  182.0850  177.8620  140.1510 C   0  0  2  0  0  3  0  0  0  0  0  0
  184.8580  175.8700  135.4030 C   0  0  0  0  0  0  0  0  0  0  0  0
  186.1220  178.3690  139.4560 C   0  0  2  0  0  3  0  0  0  0  0  0
  184.4440  178.2060  141.3360 C   0  0  2  0  0  3  0  0  0  0  0  0
  184.8670  175.1980  137.6260 C   0  0  0  0  0  2  0  0  0  0  0  0
  185.7430  177.0750  135.6990 C   0  0  0  0  0  2  0  0  0  0  0  0
  183.9370  175.9700  134.5940 O   0  0  0  0  0  0  0  0  0  0  0  0
  185.6770  177.7000  138.1710 C   0  0  2  0  0  3  0  0  0  0  0  0
  184.9750  174.6810  136.2460 C   0  0  0  0  0  2  0  0  0  0  0  0
  185.1700  178.0290  136.7650 C   0  0  0  0  0  2  0  0  0  0  0  0
  185.0970  179.1140  140.2780 C   0  0  2  0  0  3  0  0  0  0  0  0
  184.7040  178.5990  138.9000 C   0  0  1  0  0  3  0  0  0  0  0  0
  182.9770  175.6250  138.9280 C   0  0  0  0  0  2  0  0  0  0  0  0
  181.9530  176.6780  139.4560 C   0  0  0  0  0  2  0  0  0  0  0  0
  183.0130  178.2170  141.1770 O   0  0  0  0  0  0  0  0  0  0  0  0
  183.8130  174.5680  138.3620 O   0  0  0  0  0  0  0  0  0  0  0  0
  178.9310  179.7080  138.8610 C   0  0  0  0  0  2  0  0  0  0  0  0
  179.0080  180.9270  139.7530 C   0  0  1  0  0  3  0  0  0  0  0  0
  180.7770  179.7720  141.2160 C   0  0  0  0  0  2  0  0  0  0  0  0
  180.2360  178.9320  138.8980 C   0  0  0  0  0  2  0  0  0  0  0  0
  180.7190  178.4880  140.3270 C   0  0  1  0  0  3  0  0  0  0  0  0
  179.4860  180.6490  141.1750 C   0  0  0  0  0  2  0  0  0  0  0  0
  179.1960  182.2950  137.7130 C   0  0  0  0  0  1  0  0  0  0  0  0
  179.7820  182.0560  139.1150 C   0  0  0  0  0  2  0  0  0  0  0  0
  184.8260  178.6790  142.7930 C   0  0  1  0  0  3  0  0  0  0  0  0
  183.7900  178.6310  143.8630 C   0  0  0  0  0  1  0  0  0  0  0  0
  186.2200  178.5230  143.3310 C   0  0  0  0  0  2  0  0  0  0  0  0
  186.3460  177.5480  144.4620 C   0  0  2  0  0  3  0  0  0  0  0  0
  186.8770  178.1490  145.7190 C   0  0  0  0  0  1  0  0  0  0  0  0
  187.2330  176.3730  144.0460 C   0  0  0  0  0  2  0  0  0  0  0  0
  188.6310  176.9640  143.7370 C   0  0  2  0  0  3  0  0  0  0  0  0
  191.3620  178.5610  143.4860 C   0  0  0  0  0  3  0  0  0  0  0  0
  190.3880  176.7830  140.5310 C   0  0  0  0  0  0  0  0  0  0  0  0
  190.1790  177.1060  141.7410 C   0  0  0  0  0  0  0  0  0  0  0  0
  189.4200  177.6730  144.8750 C   0  0  0  0  0  2  0  0  0  0  0  0
  188.7910  177.2330  142.2500 C   0  0  0  0  0  2  0  0  0  0  0  0
  190.7020  176.5020  139.2240 C   0  0  0  0  0  3  0  0  0  0  0  0
  191.4000  177.3400  142.6060 C   0  0  0  0  0  2  0  0  0  0  0  0
  190.4680  178.6940  144.4870 C   0  0  0  0  0  3  0  0  0  0  0  0
  189.7580  176.5640  138.0280 C   0  0  0  0  0  2  0  0  0  0  0  0
  189.0700  177.2750  135.6860 C   0  0  0  0  0  2  0  0  0  0  0  0
  190.1080  177.3750  136.7890 C   0  0  0  0  0  3  0  0  0  0  0  0
  189.0380  178.4570  136.6040 C   0  0  0  0  0  2  0  0  0  0  0  0
  1 14  1  1  0  0  0
  1 21  1  0  0  0  0
  1 15  1  0  0  0  0
  2  6  1  0  0  0  0
  2  9  1  0  0  0  0
  3 11  1  0  0  0  0
  4 25  1  0  0  0  0
  5 16  1  0  0  0  0
  6 10  1  0  0  0  0
  7  2  2  0  0  0  0
  8 12  1  0  0  0  0
  8  3  1  0  0  0  0
  9  5  1  0  0  0  0
 10  8  1  0  0  0  0
 11  4  1  0  0  0  0
 12  3  1  0  0  0  0
 12 11  1  0  0  0  0
 13 14  1  0  0  0  0
 15  4  1  0  0  0  0
 16 13  1  0  0  0  0
 17 20  1  0  0  0  0
 17 18  1  0  0  0  0
 18 22  1  0  0  0  0
 20 21  1  0  0  0  0
 21 19  1  0  0  0  0
 22 19  1  0  0  0  0
 23 24  1  0  0  0  0
 24 18  1  0  0  0  0
 25 27  1  0  0  0  0
 25 26  1  0  0  0  0
 27 28  1  0  0  0  0
 28 29  1  0  0  0  0
 30 28  1  0  0  0  0
 31 30  1  0  0  0  0
 31 35  1  0  0  0  0
 32 39  2  0  0  0  0
 33 34  2  0  0  0  0
 34 36  1  0  0  0  0
 34 38  1  0  0  0  0
 36 31  1  0  0  0  0
 37 33  2  0  0  0  0
 38 32  1  0  0  0  0
 39 35  1  0  0  0  0
 40 37  1  0  0  0  0
 41 43  1  0  0  0  0
 41 42  1  0  0  0  0
 42 40  1  0  0  0  0
 43 42  1  0  0  0  0
M  END
>  <MODEL>
7

>  <REMARK>
 VINA RESULT:      -7.1      2.493      8.030
  Name = 
  9 active torsions:
  status: ('A' for Active; 'I' for Inactive)
    1  A    between atoms: C_1  and  C_35
    2  A    between atoms: C_2  and  C_6
    3  A    between atoms: C_2  and  C_13
    4  A    between atoms: C_3  and  C_4
    5  A    between atoms: C_3  and  C_12
    6  A    between atoms: C_6  and  C_12
    7  A    between atoms: C_19  and  C_37
    8  A    between atoms: C_29  and  C_36
    9  A    between atoms: C_36  and  C_40
                            x       y       z     vdW  Elec       q    Type
                         _______ _______ _______ _____ _____    ______ ____

>  <TORSDO>
F 9

$$$$
=
 OpenBabel10262422393D

 43 48  0  0  1  0  0  0  0  0999 V2000
  184.2460  176.8740  136.1450 C   0  0  2  0  0  3  0  0  0  0  0  0
  179.8520  173.0720  135.4880 C   0  0  0  0  0  0  0  0  0  0  0  0
  181.7500  175.6840  139.2090 C   0  0  2  0  0  3  0  0  0  0  0  0
  183.2030  177.6150  138.4790 C   0  0  2  0  0  3  0  0  0  0  0  0
  179.9060  175.3690  135.8200 C   0  0  0  0  0  2  0  0  0  0  0  0
  180.1850  172.7890  136.9480 C   0  0  0  0  0  2  0  0  0  0  0  0
  180.3420  172.3720  134.6020 O   0  0  0  0  0  0  0  0  0  0  0  0
  181.2650  174.8110  138.0680 C   0  0  2  0  0  3  0  0  0  0  0  0
  179.1370  174.3000  135.1490 C   0  0  0  0  0  2  0  0  0  0  0  0
  181.4960  173.4400  137.4310 C   0  0  0  0  0  2  0  0  0  0  0  0
  183.1560  176.2320  139.1540 C   0  0  2  0  0  3  0  0  0  0  0  0
  182.7230  175.2090  138.1130 C   0  0  1  0  0  3  0  0  0  0  0  0
  181.7790  176.5580  135.0930 C   0  0  0  0  0  2  0  0  0  0  0  0
  183.3310  176.7160  135.1260 C   0  0  0  0  0  2  0  0  0  0  0  0
  184.1260  177.5920  137.3730 O   0  0  0  0  0  0  0  0  0  0  0  0
  180.3390  176.3830  134.9070 O   0  0  0  0  0  0  0  0  0  0  0  0
  187.4470  175.2110  134.7270 C   0  0  0  0  0  2  0  0  0  0  0  0
  188.4410  175.7530  135.7300 C   0  0  1  0  0  3  0  0  0  0  0  0
  186.6930  177.4300  136.5880 C   0  0  0  0  0  2  0  0  0  0  0  0
  186.0240  175.4220  135.2120 C   0  0  0  0  0  2  0  0  0  0  0  0
  185.6400  176.9080  135.5580 C   0  0  1  0  0  3  0  0  0  0  0  0
  188.1800  177.1880  136.1770 C   0  0  0  0  0  2  0  0  0  0  0  0
  190.1320  174.7590  137.2200 C   0  0  0  0  0  1  0  0  0  0  0  0
  188.6270  174.8280  136.9090 C   0  0  0  0  0  2  0  0  0  0  0  0
  183.6330  178.7290  139.5130 C   0  0  1  0  0  3  0  0  0  0  0  0
  183.3420  180.1560  139.2010 C   0  0  0  0  0  1  0  0  0  0  0  0
  183.6730  178.4580  140.9900 C   0  0  0  0  0  2  0  0  0  0  0  0
  185.0330  178.5710  141.6090 C   0  0  2  0  0  3  0  0  0  0  0  0
  185.0900  179.5030  142.7710 C   0  0  0  0  0  1  0  0  0  0  0  0
  186.0540  179.0080  140.5570 C   0  0  0  0  0  2  0  0  0  0  0  0
  187.4160  178.4100  140.9900 C   0  0  2  0  0  3  0  0  0  0  0  0
  190.1740  176.8930  141.3980 C   0  0  0  0  0  3  0  0  0  0  0  0
  188.5480  177.8900  144.4310 C   0  0  0  0  0  0  0  0  0  0  0  0
  188.5860  177.8550  143.1630 C   0  0  0  0  0  0  0  0  0  0  0  0
  188.4490  178.0170  139.8960 C   0  0  0  0  0  2  0  0  0  0  0  0
  187.3260  177.8040  142.3810 C   0  0  0  0  0  2  0  0  0  0  0  0
  188.5980  177.8670  145.8040 C   0  0  0  0  0  3  0  0  0  0  0  0
  189.9560  177.8730  142.5210 C   0  0  0  0  0  2  0  0  0  0  0  0
  189.4870  176.9690  140.2390 C   0  0  0  0  0  3  0  0  0  0  0  0
  187.4620  177.4920  146.7490 C   0  0  0  0  0  2  0  0  0  0  0  0
  185.8140  179.3600  146.2380 C   0  0  0  0  0  2  0  0  0  0  0  0
  186.5230  178.5510  147.3100 C   0  0  0  0  0  3  0  0  0  0  0  0
  185.0940  178.2080  146.8680 C   0  0  0  0  0  2  0  0  0  0  0  0
  1 14  1  6  0  0  0
  1 15  1  0  0  0  0
  2  6  1  0  0  0  0
  4 11  1  0  0  0  0
  4 25  1  0  0  0  0
  6 10  1  0  0  0  0
  7  2  2  0  0  0  0
  8 12  1  0  0  0  0
  8  3  1  0  0  0  0
  9  2  1  0  0  0  0
  9  5  1  0  0  0  0
 10  8  1  0  0  0  0
 11  3  1  0  0  0  0
 12 11  1  0  0  0  0
 12  3  1  0  0  0  0
 13 14  1  0  0  0  0
 15  4  1  0  0  0  0
 16 13  1  0  0  0  0
 16  5  1  0  0  0  0
 17 20  1  0  0  0  0
 17 18  1  0  0  0  0
 18 22  1  0  0  0  0
 18 24  1  0  0  0  0
 20 21  1  0  0  0  0
 21  1  1  0  0  0  0
 21 19  1  0  0  0  0
 22 19  1  0  0  0  0
 24 23  1  0  0  0  0
 25 27  1  0  0  0  0
 26 25  1  0  0  0  0
 27 28  1  0  0  0  0
 28 29  1  0  0  0  0
 30 31  1  0  0  0  0
 30 28  1  0  0  0  0
 31 36  1  0  0  0  0
 32 38  1  0  0  0  0
 33 37  2  0  0  0  0
 34 33  2  0  0  0  0
 35 39  1  0  0  0  0
 35 31  1  0  0  0  0
 36 34  1  0  0  0  0
 37 40  1  0  0  0  0
 38 34  1  0  0  0  0
 39 32  2  0  0  0  0
 40 42  1  0  0  0  0
 41 43  1  0  0  0  0
 41 42  1  0  0  0  0
 43 42  1  0  0  0  0
M  END
>  <MODEL>
8

>  <REMARK>
 VINA RESULT:      -7.0      2.656      6.663
  Name = 
  9 active torsions:
  status: ('A' for Active; 'I' for Inactive)
    1  A    between atoms: C_1  and  C_35
    2  A    between atoms: C_2  and  C_6
    3  A    between atoms: C_2  and  C_13
    4  A    between atoms: C_3  and  C_4
    5  A    between atoms: C_3  and  C_12
    6  A    between atoms: C_6  and  C_12
    7  A    between atoms: C_19  and  C_37
    8  A    between atoms: C_29  and  C_36
    9  A    between atoms: C_36  and  C_40
                            x       y       z     vdW  Elec       q    Type
                         _______ _______ _______ _____ _____    ______ ____

>  <TORSDO>
F 9

$$$$
=
 OpenBabel10262422393D

 43 48  0  0  1  0  0  0  0  0999 V2000
  189.8310  176.8010  140.3140 C   0  0  2  0  0  3  0  0  0  0  0  0
  193.7590  173.9500  137.0520 C   0  0  0  0  0  0  0  0  0  0  0  0
  189.1800  175.6490  136.4050 C   0  0  2  0  0  3  0  0  0  0  0  0
  188.4710  177.3800  138.1010 C   0  0  2  0  0  3  0  0  0  0  0  0
  192.9710  176.1340  137.0120 C   0  0  0  0  0  2  0  0  0  0  0  0
  192.4870  173.4130  136.4040 C   0  0  0  0  0  2  0  0  0  0  0  0
  194.3090  173.3060  137.9440 O   0  0  0  0  0  0  0  0  0  0  0  0
  190.5420  175.0400  136.6750 C   0  0  2  0  0  3  0  0  0  0  0  0
  194.1780  175.3190  136.7610 C   0  0  0  0  0  2  0  0  0  0  0  0
  191.1970  173.7530  137.1770 C   0  0  0  0  0  2  0  0  0  0  0  0
  188.2740  175.9470  137.5760 C   0  0  2  0  0  3  0  0  0  0  0  0
  189.5600  175.1690  137.8180 C   0  0  1  0  0  3  0  0  0  0  0  0
  192.1740  177.0680  138.9980 C   0  0  0  0  0  2  0  0  0  0  0  0
  191.1980  176.9480  140.2090 C   0  0  0  0  0  2  0  0  0  0  0  0
  188.7920  177.3510  139.5040 O   0  0  0  0  0  0  0  0  0  0  0  0
  193.2060  177.1740  137.9680 O   0  0  0  0  0  0  0  0  0  0  0  0
  189.1310  178.2340  143.8470 C   0  0  0  0  0  2  0  0  0  0  0  0
  190.1910  177.4700  144.6100 C   0  0  1  0  0  3  0  0  0  0  0  0
  190.5540  175.9190  142.5930 C   0  0  0  0  0  2  0  0  0  0  0  0
  189.3690  178.1350  142.3500 C   0  0  0  0  0  2  0  0  0  0  0  0
  189.4570  176.6740  141.7750 C   0  0  1  0  0  3  0  0  0  0  0  0
  190.4020  176.0330  144.1430 C   0  0  0  0  0  2  0  0  0  0  0  0
  191.3050  179.5720  143.9710 C   0  0  0  0  0  1  0  0  0  0  0  0
  191.4940  178.2270  144.6930 C   0  0  0  0  0  2  0  0  0  0  0  0
  187.1720  178.2480  137.8640 C   0  0  1  0  0  3  0  0  0  0  0  0
  187.1930  179.3100  136.8190 C   0  0  0  0  0  1  0  0  0  0  0  0
  185.7980  177.6830  138.0870 C   0  0  0  0  0  2  0  0  0  0  0  0
  185.0180  178.3520  139.1760 C   0  0  2  0  0  3  0  0  0  0  0  0
  184.2460  179.5430  138.7210 C   0  0  0  0  0  1  0  0  0  0  0  0
  185.9510  178.7580  140.3180 C   0  0  0  0  0  2  0  0  0  0  0  0
  185.0870  178.7920  141.6030 C   0  0  2  0  0  3  0  0  0  0  0  0
  183.7620  178.6290  144.4820 C   0  0  0  0  0  3  0  0  0  0  0  0
  181.4390  178.5330  141.7560 C   0  0  0  0  0  0  0  0  0  0  0  0
  182.6300  178.6280  142.1840 C   0  0  0  0  0  0  0  0  0  0  0  0
  185.7850  178.9950  142.9780 C   0  0  0  0  0  2  0  0  0  0  0  0
  183.7560  178.0910  141.3810 C   0  0  0  0  0  2  0  0  0  0  0  0
  180.1180  178.4160  141.3970 C   0  0  0  0  0  3  0  0  0  0  0  0
  182.8210  179.3100  143.5230 C   0  0  0  0  0  2  0  0  0  0  0  0
  185.0780  178.4930  144.2180 C   0  0  0  0  0  3  0  0  0  0  0  0
  179.5460  177.4950  140.3240 C   0  0  0  0  0  2  0  0  0  0  0  0
  179.7970  176.5900  137.9610 C   0  0  0  0  0  2  0  0  0  0  0  0
  180.4510  176.8030  139.3150 C   0  0  0  0  0  3  0  0  0  0  0  0
  180.7000  177.7690  138.1510 C   0  0  0  0  0  2  0  0  0  0  0  0
  1 14  1  1  0  0  0
  1 21  1  0  0  0  0
  2  7  2  0  0  0  0
  3  8  1  0  0  0  0
  3 11  1  0  0  0  0
  3 12  1  0  0  0  0
  4 15  1  0  0  0  0
  5 16  1  0  0  0  0
  6  2  1  0  0  0  0
  6 10  1  0  0  0  0
  8 10  1  0  0  0  0
  8 12  1  0  0  0  0
  9  5  1  0  0  0  0
  9  2  1  0  0  0  0
 11 12  1  0  0  0  0
 11  4  1  0  0  0  0
 13 14  1  0  0  0  0
 15  1  1  0  0  0  0
 16 13  1  0  0  0  0
 17 18  1  0  0  0  0
 18 24  1  0  0  0  0
 19 22  1  0  0  0  0
 20 17  1  0  0  0  0
 21 20  1  0  0  0  0
 21 19  1  0  0  0  0
 22 18  1  0  0  0  0
 23 24  1  0  0  0  0
 25 27  1  0  0  0  0
 25  4  1  0  0  0  0
 26 25  1  0  0  0  0
 27 28  1  0  0  0  0
 28 30  1  0  0  0  0
 29 28  1  0  0  0  0
 30 31  1  0  0  0  0
 31 35  1  0  0  0  0
 33 34  2  0  0  0  0
 34 38  1  0  0  0  0
 35 39  1  0  0  0  0
 36 31  1  0  0  0  0
 36 34  1  0  0  0  0
 37 33  2  0  0  0  0
 38 32  1  0  0  0  0
 39 32  2  0  0  0  0
 40 37  1  0  0  0  0
 41 43  1  0  0  0  0
 41 42  1  0  0  0  0
 42 40  1  0  0  0  0
 43 42  1  0  0  0  0
M  END
>  <MODEL>
9

>  <REMARK>
 VINA RESULT:      -6.9      2.059      4.558
  Name = 
  9 active torsions:
  status: ('A' for Active; 'I' for Inactive)
    1  A    between atoms: C_1  and  C_35
    2  A    between atoms: C_2  and  C_6
    3  A    between atoms: C_2  and  C_13
    4  A    between atoms: C_3  and  C_4
    5  A    between atoms: C_3  and  C_12
    6  A    between atoms: C_6  and  C_12
    7  A    between atoms: C_19  and  C_37
    8  A    between atoms: C_29  and  C_36
    9  A    between atoms: C_36  and  C_40
                            x       y       z     vdW  Elec       q    Type
                         _______ _______ _______ _____ _____    ______ ____

>  <TORSDO>
F 9

$$$$
