=
 OpenBabel10262421053D

 32 36  0  0  1  0  0  0  0  0999 V2000
  184.3100  172.4830  136.8140 C   0  0  1  0  0  3  0  0  0  0  0  0
  182.6970  177.2890  139.8130 C   0  0  0  0  0  3  0  0  0  0  0  0
  184.3550  173.4970  137.8020 O   0  0  0  0  0  0  0  0  0  0  0  0
  182.2880  173.7400  135.9360 N   0  0  0  0  0  0  0  0  0  0  0  0
  183.7440  177.1640  134.7560 C   0  0  0  0  0  2  0  0  0  0  0  0
  185.0030  174.6360  137.2950 C   0  0  0  0  0  2  0  0  0  0  0  0
  182.2550  177.2830  136.7510 C   0  0  0  0  0  2  0  0  0  0  0  0
  183.0080  176.1560  137.5120 C   0  0  1  0  0  0  0  0  0  0  0  0
  181.5790  173.8340  137.2190 C   0  0  2  0  0  3  0  0  0  0  0  0
  183.0350  179.6130  139.0480 C   0  0  0  0  0  2  0  0  0  0  0  0
  184.6900  177.8630  138.4140 C   0  0  0  0  0  0  0  0  0  0  0  0
  180.6700  175.0450  137.3050 C   0  0  0  0  0  2  0  0  0  0  0  0
  183.0880  172.4990  135.8740 C   0  0  2  0  0  3  0  0  0  0  0  0
  182.4030  178.5880  139.9540 C   0  0  0  0  0  0  0  0  0  0  0  0
  184.3820  179.1680  138.5350 C   0  0  0  0  0  3  0  0  0  0  0  0
  183.6770  176.7980  138.7650 C   0  0  1  0  0  3  0  0  0  0  0  0
  181.9970  175.0710  138.0530 C   0  0  2  0  0  3  0  0  0  0  0  0
  185.7760  177.4150  136.2320 C   0  0  0  0  0  2  0  0  0  0  0  0
  181.3270  173.7100  134.8360 C   0  0  0  0  0  1  0  0  0  0  0  0
  185.9530  177.4150  137.7460 C   0  0  1  0  0  3  0  0  0  0  0  0
  184.0480  175.5310  136.6320 N   0  0  1  0  0  0  0  0  0  0  0  0
  182.2600  171.2300  136.0960 C   0  0  0  0  0  1  0  0  0  0  0  0
  182.3020  177.0790  135.2460 C   0  0  0  0  0  2  0  0  0  0  0  0
  184.7290  176.4280  135.6700 C   0  0  1  0  0  3  0  0  0  0  0  0
  181.4760  178.6250  142.1460 O   0  0  0  0  0  1  0  0  0  0  0  0
  180.3730  179.8670  140.5710 O   0  0  0  0  0  0  0  0  0  0  0  0
  181.4090  179.0220  140.9490 C   0  0  0  0  0  0  0  0  0  0  0  0
  185.6360  172.1500  136.1220 C   0  0  0  0  0  2  0  0  0  0  0  0
  185.4830  172.2910  134.6200 C   0  0  0  0  0  1  0  0  0  0  0  0
  187.1640  178.2370  138.1610 C   0  0  0  0  0  2  0  0  0  0  0  0
  187.6040  179.0080  137.0860 O   0  0  0  0  0  0  0  0  0  0  0  0
  188.9950  179.0010  137.1970 C   0  0  0  0  0  1  0  0  0  0  0  0
  1 28  1  6  0  0  0
  1  3  1  0  0  0  0
  2 14  2  0  0  0  0
  4  9  1  0  0  0  0
  5 23  1  0  0  0  0
  6  3  1  0  0  0  0
  8  7  1  6  0  0  0
  8 17  1  0  0  0  0
  8 16  1  0  0  0  0
  9 12  1  6  0  0  0
  9 17  1  0  0  0  0
 10 14  1  0  0  0  0
 11 15  2  0  0  0  0
 11 16  1  0  0  0  0
 13  4  1  0  0  0  0
 13 22  1  1  0  0  0
 13  1  1  0  0  0  0
 14 27  1  0  0  0  0
 15 10  1  0  0  0  0
 16  2  1  1  0  0  0
 17 12  1  6  0  0  0
 18 20  1  0  0  0  0
 19  4  1  0  0  0  0
 20 30  1  6  0  0  0
 20 11  1  0  0  0  0
 21  6  1  1  0  0  0
 21  8  1  0  0  0  0
 23  7  1  0  0  0  0
 24  5  1  1  0  0  0
 24 18  1  0  0  0  0
 24 21  1  0  0  0  0
 26 27  2  0  0  0  0
 27 25  1  0  0  0  0
 29 28  1  0  0  0  0
 31 32  1  0  0  0  0
 31 30  1  0  0  0  0
M  END
>  <MODEL>
1

>  <REMARK>
 VINA RESULT:      -5.3      0.000      0.000
  Name = 
  4 active torsions:
  status: ('A' for Active; 'I' for Inactive)
    1  A    between atoms: C_1  and  O_4
    2  A    between atoms: C_1  and  C_27
    3  A    between atoms: C_2  and  C_14
    4  A    between atoms: C_19  and  C_26
                            x       y       z     vdW  Elec       q    Type
                         _______ _______ _______ _____ _____    ______ ____

>  <TORSDO>
F 4

$$$$
=
 OpenBabel10262421053D

 32 36  0  0  1  0  0  0  0  0999 V2000
  184.3950  176.5000  137.3180 C   0  0  1  0  0  3  0  0  0  0  0  0
  181.0050  178.8420  141.5260 C   0  0  0  0  0  3  0  0  0  0  0  0
  184.0020  177.3790  138.3560 O   0  0  0  0  0  0  0  0  0  0  0  0
  182.1000  175.4630  137.6300 N   0  0  0  0  0  0  0  0  0  0  0  0
  179.6330  178.2990  136.5760 C   0  0  0  0  0  2  0  0  0  0  0  0
  183.2140  178.4200  137.8340 C   0  0  0  0  0  2  0  0  0  0  0  0
  179.6070  177.7270  139.0020 C   0  0  0  0  0  2  0  0  0  0  0  0
  181.1510  177.8350  139.1510 C   0  0  1  0  0  0  0  0  0  0  0  0
  182.1890  175.2970  139.0870 C   0  0  2  0  0  3  0  0  0  0  0  0
  179.0350  180.2760  141.1210 C   0  0  0  0  0  2  0  0  0  0  0  0
  180.9560  180.3590  139.5370 C   0  0  0  0  0  0  0  0  0  0  0  0
  180.8340  175.3330  139.7690 C   0  0  0  0  0  2  0  0  0  0  0  0
  183.4360  175.3340  137.0110 C   0  0  2  0  0  3  0  0  0  0  0  0
  179.8960  179.4160  142.0100 C   0  0  0  0  0  0  0  0  0  0  0  0
  179.8270  180.9200  140.0100 C   0  0  0  0  0  3  0  0  0  0  0  0
  181.4510  179.0420  140.0910 C   0  0  1  0  0  3  0  0  0  0  0  0
  181.7360  176.5560  139.8690 C   0  0  2  0  0  3  0  0  0  0  0  0
  180.9770  180.3800  137.0600 C   0  0  0  0  0  2  0  0  0  0  0  0
  181.2390  174.4300  137.0610 C   0  0  0  0  0  1  0  0  0  0  0  0
  181.6500  180.8980  138.3260 C   0  0  1  0  0  3  0  0  0  0  0  0
  181.7960  178.0450  137.8160 N   0  0  1  0  0  0  0  0  0  0  0  0
  184.1290  174.0070  137.3340 C   0  0  0  0  0  1  0  0  0  0  0  0
  179.2050  177.2640  137.6110 C   0  0  0  0  0  2  0  0  0  0  0  0
  181.0380  178.8530  136.8320 C   0  0  1  0  0  3  0  0  0  0  0  0
  178.9310  180.0680  144.0860 O   0  0  0  0  0  1  0  0  0  0  0  0
  179.6660  177.9040  143.9600 O   0  0  0  0  0  0  0  0  0  0  0  0
  179.4680  179.1580  143.3950 C   0  0  0  0  0  0  0  0  0  0  0  0
  185.0200  177.1490  136.0790 C   0  0  0  0  0  2  0  0  0  0  0  0
  186.4300  177.6120  136.3950 C   0  0  0  0  0  1  0  0  0  0  0  0
  181.7400  182.4170  138.3230 C   0  0  0  0  0  2  0  0  0  0  0  0
  180.8830  182.9400  137.3550 O   0  0  0  0  0  0  0  0  0  0  0  0
  181.4050  184.2020  137.0730 C   0  0  0  0  0  1  0  0  0  0  0  0
  1 28  1  6  0  0  0
  1  3  1  0  0  0  0
  2 14  2  0  0  0  0
  4  9  1  0  0  0  0
  5 23  1  0  0  0  0
  6  3  1  0  0  0  0
  8  7  1  6  0  0  0
  8 17  1  0  0  0  0
  8 16  1  0  0  0  0
  9 12  1  1  0  0  0
  9 17  1  0  0  0  0
 10 14  1  0  0  0  0
 11 15  2  0  0  0  0
 11 16  1  0  0  0  0
 13  1  1  0  0  0  0
 13 22  1  1  0  0  0
 13  4  1  0  0  0  0
 14 27  1  0  0  0  0
 15 10  1  0  0  0  0
 16  2  1  1  0  0  0
 17 12  1  1  0  0  0
 18 20  1  0  0  0  0
 19  4  1  0  0  0  0
 20 30  1  1  0  0  0
 20 11  1  0  0  0  0
 21  6  1  1  0  0  0
 21  8  1  0  0  0  0
 23  7  1  0  0  0  0
 24  5  1  1  0  0  0
 24 18  1  0  0  0  0
 24 21  1  0  0  0  0
 27 26  2  0  0  0  0
 27 25  1  0  0  0  0
 28 29  1  0  0  0  0
 31 30  1  0  0  0  0
 32 31  1  0  0  0  0
M  END
>  <MODEL>
2

>  <REMARK>
 VINA RESULT:      -5.3      2.512      4.484
  Name = 
  4 active torsions:
  status: ('A' for Active; 'I' for Inactive)
    1  A    between atoms: C_1  and  O_4
    2  A    between atoms: C_1  and  C_27
    3  A    between atoms: C_2  and  C_14
    4  A    between atoms: C_19  and  C_26
                            x       y       z     vdW  Elec       q    Type
                         _______ _______ _______ _____ _____    ______ ____

>  <TORSDO>
F 4

$$$$
=
 OpenBabel10262421053D

 32 36  0  0  1  0  0  0  0  0999 V2000
  191.6860  176.3540  139.3420 C   0  0  1  0  0  3  0  0  0  0  0  0
  186.8970  173.8450  137.0070 C   0  0  0  0  0  3  0  0  0  0  0  0
  190.3690  175.8380  139.2740 O   0  0  0  0  0  0  0  0  0  0  0  0
  191.8010  175.7730  136.8740 N   0  0  0  0  0  0  0  0  0  0  0  0
  189.1630  178.1310  135.2250 C   0  0  0  0  0  2  0  0  0  0  0  0
  189.4930  176.8170  138.7730 C   0  0  0  0  0  2  0  0  0  0  0  0
  188.5760  175.7090  135.1980 C   0  0  0  0  0  2  0  0  0  0  0  0
  188.8430  175.5180  136.7170 C   0  0  1  0  0  0  0  0  0  0  0  0
  191.3260  174.3890  137.0060 C   0  0  2  0  0  3  0  0  0  0  0  0
  185.3070  174.9720  135.4890 C   0  0  0  0  0  2  0  0  0  0  0  0
  186.4640  176.2970  137.2530 C   0  0  0  0  0  0  0  0  0  0  0  0
  190.6220  173.8860  135.7600 C   0  0  0  0  0  2  0  0  0  0  0  0
  192.5530  176.1800  138.0790 C   0  0  2  0  0  3  0  0  0  0  0  0
  185.8870  173.7390  136.1330 C   0  0  0  0  0  0  0  0  0  0  0  0
  185.4650  176.1960  136.3550 C   0  0  0  0  0  3  0  0  0  0  0  0
  187.4810  175.1880  137.3980 C   0  0  1  0  0  3  0  0  0  0  0  0
  189.7810  174.2730  136.9700 C   0  0  2  0  0  3  0  0  0  0  0  0
  187.5430  178.5230  137.1200 C   0  0  0  0  0  2  0  0  0  0  0  0
  192.6970  175.8860  135.7270 C   0  0  0  0  0  1  0  0  0  0  0  0
  186.7280  177.5720  137.9900 C   0  0  1  0  0  3  0  0  0  0  0  0
  189.4300  176.7630  137.3080 N   0  0  1  0  0  0  0  0  0  0  0  0
  193.7350  175.2600  138.3980 C   0  0  0  0  0  1  0  0  0  0  0  0
  189.4730  176.7770  134.5950 C   0  0  0  0  0  2  0  0  0  0  0  0
  188.9640  178.0510  136.7430 C   0  0  1  0  0  3  0  0  0  0  0  0
  184.1390  172.1870  135.6850 O   0  0  0  0  0  1  0  0  0  0  0  0
  186.2710  171.3920  135.4350 O   0  0  0  0  0  0  0  0  0  0  0  0
  185.3800  172.4140  135.7390 C   0  0  0  0  0  0  0  0  0  0  0  0
  191.8500  177.7070  140.0410 C   0  0  0  0  0  2  0  0  0  0  0  0
  191.7260  177.5290  141.5430 C   0  0  0  0  0  1  0  0  0  0  0  0
  185.4560  178.2370  138.4960 C   0  0  0  0  0  2  0  0  0  0  0  0
  185.7310  178.9660  139.6520 O   0  0  0  0  0  0  0  0  0  0  0  0
  184.5130  179.0210  140.3280 C   0  0  0  0  0  1  0  0  0  0  0  0
  1 28  1  6  0  0  0
  3  1  1  0  0  0  0
  4  9  1  0  0  0  0
  4 13  1  0  0  0  0
  6  3  1  0  0  0  0
  8  7  1  6  0  0  0
  8 17  1  0  0  0  0
  8 21  1  0  0  0  0
  8 16  1  0  0  0  0
  9 12  1  6  0  0  0
 10 14  1  0  0  0  0
 10 15  1  0  0  0  0
 11 16  1  0  0  0  0
 11 20  1  0  0  0  0
 13 22  1  1  0  0  0
 13  1  1  0  0  0  0
 14  2  2  0  0  0  0
 15 11  2  0  0  0  0
 16  2  1  6  0  0  0
 17 12  1  6  0  0  0
 17  9  1  0  0  0  0
 18 20  1  0  0  0  0
 19  4  1  0  0  0  0
 20 30  1  6  0  0  0
 21  6  1  1  0  0  0
 23  7  1  0  0  0  0
 23  5  1  0  0  0  0
 24  5  1  6  0  0  0
 24 18  1  0  0  0  0
 24 21  1  0  0  0  0
 25 27  1  0  0  0  0
 26 27  2  0  0  0  0
 27 14  1  0  0  0  0
 28 29  1  0  0  0  0
 30 31  1  0  0  0  0
 31 32  1  0  0  0  0
M  END
>  <MODEL>
3

>  <REMARK>
 VINA RESULT:      -5.3      3.730      7.581
  Name = 
  4 active torsions:
  status: ('A' for Active; 'I' for Inactive)
    1  A    between atoms: C_1  and  O_4
    2  A    between atoms: C_1  and  C_27
    3  A    between atoms: C_2  and  C_14
    4  A    between atoms: C_19  and  C_26
                            x       y       z     vdW  Elec       q    Type
                         _______ _______ _______ _____ _____    ______ ____

>  <TORSDO>
F 4

$$$$
=
 OpenBabel10262421053D

 32 36  0  0  1  0  0  0  0  0999 V2000
  183.8000  178.8520  142.4500 C   0  0  1  0  0  3  0  0  0  0  0  0
  181.4070  180.0800  137.2110 C   0  0  0  0  0  3  0  0  0  0  0  0
  183.7330  179.2500  141.0920 O   0  0  0  0  0  0  0  0  0  0  0  0
  181.3060  178.4450  142.2220 N   0  0  0  0  0  0  0  0  0  0  0  0
  181.0580  175.5320  139.6350 C   0  0  0  0  0  2  0  0  0  0  0  0
  183.7670  178.1200  140.2570 C   0  0  0  0  0  2  0  0  0  0  0  0
  180.2080  177.7320  138.8290 C   0  0  0  0  0  2  0  0  0  0  0  0
  181.4900  178.5020  139.2550 C   0  0  1  0  0  0  0  0  0  0  0  0
  180.9760  179.7530  141.6400 C   0  0  2  0  0  3  0  0  0  0  0  0
  180.6670  178.3940  135.5640 C   0  0  0  0  0  2  0  0  0  0  0  0
  182.6140  177.8950  137.0350 C   0  0  0  0  0  0  0  0  0  0  0  0
  179.7470  179.7110  140.7520 C   0  0  0  0  0  2  0  0  0  0  0  0
  182.4550  178.5620  143.1430 C   0  0  2  0  0  3  0  0  0  0  0  0
  180.7110  179.8020  136.1000 C   0  0  0  0  0  0  0  0  0  0  0  0
  181.8970  177.6040  135.9330 C   0  0  0  0  0  3  0  0  0  0  0  0
  182.1850  179.0140  137.9570 C   0  0  1  0  0  3  0  0  0  0  0  0
  181.1210  179.7850  140.0980 C   0  0  2  0  0  3  0  0  0  0  0  0
  183.1730  175.8340  138.2900 C   0  0  0  0  0  2  0  0  0  0  0  0
  180.1690  177.9360  142.9830 C   0  0  0  0  0  1  0  0  0  0  0  0
  183.7290  177.0130  137.5000 C   0  0  1  0  0  3  0  0  0  0  0  0
  182.4140  177.6040  140.0180 N   0  0  1  0  0  0  0  0  0  0  0  0
  182.2320  179.5800  144.2660 C   0  0  0  0  0  1  0  0  0  0  0  0
  179.9290  176.5510  139.7440 C   0  0  0  0  0  2  0  0  0  0  0  0
  182.4460  176.1810  139.6090 C   0  0  1  0  0  3  0  0  0  0  0  0
  179.0250  180.5550  134.5980 O   0  0  0  0  0  0  0  0  0  0  0  0
  180.1830  182.1910  135.7050 O   0  0  0  0  0  1  0  0  0  0  0  0
  179.9260  180.8530  135.4320 C   0  0  0  0  0  0  0  0  0  0  0  0
  184.9250  177.8790  142.8180 C   0  0  0  0  0  2  0  0  0  0  0  0
  185.5750  178.3110  144.1190 C   0  0  0  0  0  1  0  0  0  0  0  0
  184.6240  176.5430  136.3620 C   0  0  0  0  0  2  0  0  0  0  0  0
  185.6040  177.5000  136.1050 O   0  0  0  0  0  0  0  0  0  0  0  0
  186.4430  177.4490  137.2190 C   0  0  0  0  0  1  0  0  0  0  0  0
  1 28  1  6  0  0  0
  1 13  1  0  0  0  0
  3  1  1  0  0  0  0
  4 19  1  0  0  0  0
  4 13  1  0  0  0  0
  5 23  1  0  0  0  0
  6  3  1  0  0  0  0
  7 23  1  0  0  0  0
  8  7  1  6  0  0  0
  8 21  1  0  0  0  0
  8 17  1  0  0  0  0
  9 12  1  6  0  0  0
  9  4  1  0  0  0  0
 10 15  1  0  0  0  0
 10 14  1  0  0  0  0
 11 20  1  0  0  0  0
 11 16  1  0  0  0  0
 13 22  1  1  0  0  0
 14  2  2  0  0  0  0
 15 11  2  0  0  0  0
 16  2  1  6  0  0  0
 16  8  1  0  0  0  0
 17 12  1  6  0  0  0
 17  9  1  0  0  0  0
 20 30  1  6  0  0  0
 20 18  1  0  0  0  0
 21  6  1  6  0  0  0
 24 18  1  6  0  0  0
 24  5  1  0  0  0  0
 24 21  1  0  0  0  0
 25 27  2  0  0  0  0
 27 26  1  0  0  0  0
 27 14  1  0  0  0  0
 28 29  1  0  0  0  0
 31 30  1  0  0  0  0
 31 32  1  0  0  0  0
M  END
>  <MODEL>
4

>  <REMARK>
 VINA RESULT:      -4.9      3.047      6.167
  Name = 
  4 active torsions:
  status: ('A' for Active; 'I' for Inactive)
    1  A    between atoms: C_1  and  O_4
    2  A    between atoms: C_1  and  C_27
    3  A    between atoms: C_2  and  C_14
    4  A    between atoms: C_19  and  C_26
                            x       y       z     vdW  Elec       q    Type
                         _______ _______ _______ _____ _____    ______ ____

>  <TORSDO>
F 4

$$$$
=
 OpenBabel10262421053D

 32 36  0  0  1  0  0  0  0  0999 V2000
  180.2450  175.7590  140.3230 C   0  0  1  0  0  3  0  0  0  0  0  0
  185.1590  177.0160  137.3280 C   0  0  0  0  0  3  0  0  0  0  0  0
  181.5550  175.5940  139.8100 O   0  0  0  0  0  0  0  0  0  0  0  0
  180.2280  177.9050  138.9670 N   0  0  0  0  0  0  0  0  0  0  0  0
  180.4340  176.6840  135.2650 C   0  0  0  0  0  2  0  0  0  0  0  0
  181.5010  175.0410  138.5190 C   0  0  0  0  0  2  0  0  0  0  0  0
  182.4570  177.8810  136.0950 C   0  0  0  0  0  2  0  0  0  0  0  0
  182.5760  177.0100  137.3770 C   0  0  1  0  0  0  0  0  0  0  0  0
  181.5060  178.4290  139.4670 C   0  0  2  0  0  3  0  0  0  0  0  0
  185.4100  176.8250  134.8780 C   0  0  0  0  0  2  0  0  0  0  0  0
  183.9040  175.2470  136.0800 C   0  0  0  0  0  0  0  0  0  0  0  0
  182.2020  179.3360  138.4710 C   0  0  0  0  0  2  0  0  0  0  0  0
  179.5540  177.1010  140.0080 C   0  0  2  0  0  3  0  0  0  0  0  0
  185.8690  177.3080  136.2300 C   0  0  0  0  0  0  0  0  0  0  0  0
  184.5990  175.5570  134.9700 C   0  0  0  0  0  3  0  0  0  0  0  0
  183.8920  176.1840  137.2660 C   0  0  1  0  0  3  0  0  0  0  0  0
  182.7260  177.9190  138.6600 C   0  0  2  0  0  3  0  0  0  0  0  0
  181.6240  174.4700  135.5020 C   0  0  0  0  0  2  0  0  0  0  0  0
  179.3410  179.0090  138.6090 C   0  0  0  0  0  1  0  0  0  0  0  0
  182.9640  174.0830  136.1160 C   0  0  1  0  0  3  0  0  0  0  0  0
  181.3970  176.0940  137.5030 N   0  0  1  0  0  0  0  0  0  0  0  0
  179.3180  177.8690  141.3120 C   0  0  0  0  0  1  0  0  0  0  0  0
  181.0120  178.0410  135.6520 C   0  0  0  0  0  2  0  0  0  0  0  0
  180.8280  175.5690  136.2400 C   0  0  1  0  0  3  0  0  0  0  0  0
  187.1340  179.0870  137.1780 O   0  0  0  0  0  1  0  0  0  0  0  0
  188.1300  177.9580  135.4530 O   0  0  0  0  0  0  0  0  0  0  0  0
  187.0650  178.1600  136.3230 C   0  0  0  0  0  0  0  0  0  0  0  0
  179.3240  174.5380  140.2410 C   0  0  0  0  0  2  0  0  0  0  0  0
  179.3420  173.7900  141.5610 C   0  0  0  0  0  1  0  0  0  0  0  0
  183.5380  172.8390  135.4540 C   0  0  0  0  0  2  0  0  0  0  0  0
  184.1570  172.0360  136.4110 O   0  0  0  0  0  0  0  0  0  0  0  0
  183.1560  171.1610  136.8330 C   0  0  0  0  0  1  0  0  0  0  0  0
  1 28  1  6  0  0  0
  3  1  1  0  0  0  0
  4  9  1  0  0  0  0
  4 13  1  0  0  0  0
  5 23  1  0  0  0  0
  6  3  1  0  0  0  0
  8  7  1  6  0  0  0
  8 21  1  0  0  0  0
  8 17  1  0  0  0  0
  9 12  1  6  0  0  0
 10 15  1  0  0  0  0
 10 14  1  0  0  0  0
 11 20  1  0  0  0  0
 11 16  1  0  0  0  0
 13  1  1  0  0  0  0
 13 22  1  1  0  0  0
 14 27  1  0  0  0  0
 14  2  2  0  0  0  0
 15 11  2  0  0  0  0
 16  2  1  6  0  0  0
 16  8  1  0  0  0  0
 17 12  1  6  0  0  0
 17  9  1  0  0  0  0
 18 20  1  0  0  0  0
 18 24  1  0  0  0  0
 19  4  1  0  0  0  0
 20 30  1  6  0  0  0
 21  6  1  1  0  0  0
 23  7  1  0  0  0  0
 24  5  1  6  0  0  0
 24 21  1  0  0  0  0
 26 27  2  0  0  0  0
 27 25  1  0  0  0  0
 28 29  1  0  0  0  0
 30 31  1  0  0  0  0
 31 32  1  0  0  0  0
M  END
>  <MODEL>
5

>  <REMARK>
 VINA RESULT:      -4.8      2.155      5.848
  Name = 
  4 active torsions:
  status: ('A' for Active; 'I' for Inactive)
    1  A    between atoms: C_1  and  O_4
    2  A    between atoms: C_1  and  C_27
    3  A    between atoms: C_2  and  C_14
    4  A    between atoms: C_19  and  C_26
                            x       y       z     vdW  Elec       q    Type
                         _______ _______ _______ _____ _____    ______ ____

>  <TORSDO>
F 4

$$$$
=
 OpenBabel10262421053D

 32 36  0  0  1  0  0  0  0  0999 V2000
  190.5750  176.3900  139.0330 C   0  0  1  0  0  3  0  0  0  0  0  0
  185.4090  174.2350  137.2020 C   0  0  0  0  0  3  0  0  0  0  0  0
  189.2320  175.9470  139.1050 O   0  0  0  0  0  0  0  0  0  0  0  0
  190.3660  175.9070  136.5500 N   0  0  0  0  0  0  0  0  0  0  0  0
  187.6900  178.4670  135.3130 C   0  0  0  0  0  2  0  0  0  0  0  0
  188.3600  176.9910  138.7480 C   0  0  0  0  0  2  0  0  0  0  0  0
  186.9660  176.0820  135.2710 C   0  0  0  0  0  2  0  0  0  0  0  0
  187.4000  175.8150  136.7400 C   0  0  1  0  0  0  0  0  0  0  0  0
  189.8310  174.5470  136.6890 C   0  0  2  0  0  3  0  0  0  0  0  0
  183.7180  175.5060  135.9260 C   0  0  0  0  0  2  0  0  0  0  0  0
  185.1480  176.6940  137.5840 C   0  0  0  0  0  0  0  0  0  0  0  0
  188.9580  174.1330  135.5200 C   0  0  0  0  0  2  0  0  0  0  0  0
  191.2760  176.2240  137.6700 C   0  0  2  0  0  3  0  0  0  0  0  0
  184.2990  174.2180  136.4520 C   0  0  0  0  0  0  0  0  0  0  0  0
  184.0460  176.6830  136.8100 C   0  0  0  0  0  3  0  0  0  0  0  0
  186.1100  175.5280  137.5670 C   0  0  1  0  0  3  0  0  0  0  0  0
  188.2890  174.5130  136.8350 C   0  0  2  0  0  3  0  0  0  0  0  0
  186.3290  178.8640  137.4020 C   0  0  0  0  0  2  0  0  0  0  0  0
  191.1250  176.0210  135.3080 C   0  0  0  0  0  1  0  0  0  0  0  0
  185.5690  177.9210  138.3290 C   0  0  1  0  0  3  0  0  0  0  0  0
  188.1220  177.0010  137.3000 N   0  0  1  0  0  0  0  0  0  0  0  0
  192.4330  175.2310  137.8120 C   0  0  0  0  0  1  0  0  0  0  0  0
  187.8460  177.1270  134.6030 C   0  0  0  0  0  2  0  0  0  0  0  0
  187.6670  178.3340  136.8400 C   0  0  1  0  0  3  0  0  0  0  0  0
  183.2500  172.7480  134.9010 O   0  0  0  0  0  0  0  0  0  0  0  0
  183.5330  171.9320  137.0210 O   0  0  0  0  0  1  0  0  0  0  0  0
  183.6740  172.9400  136.0750 C   0  0  0  0  0  0  0  0  0  0  0  0
  190.8970  177.7030  139.7550 C   0  0  0  0  0  2  0  0  0  0  0  0
  192.0080  177.4760  140.7630 C   0  0  0  0  0  1  0  0  0  0  0  0
  184.4060  178.6310  139.0070 C   0  0  0  0  0  2  0  0  0  0  0  0
  184.8860  179.6550  139.8210 O   0  0  0  0  0  0  0  0  0  0  0  0
  185.3280  179.0050  140.9740 C   0  0  0  0  0  1  0  0  0  0  0  0
  1  3  1  0  0  0  0
  1 28  1  6  0  0  0
  4  9  1  0  0  0  0
  4 13  1  0  0  0  0
  6  3  1  0  0  0  0
  8  7  1  6  0  0  0
  8 17  1  0  0  0  0
  8 21  1  0  0  0  0
  8 16  1  0  0  0  0
  9 12  1  6  0  0  0
  9 17  1  0  0  0  0
 10 14  1  0  0  0  0
 10 15  1  0  0  0  0
 11 20  1  0  0  0  0
 13 22  1  1  0  0  0
 13  1  1  0  0  0  0
 14  2  2  0  0  0  0
 15 11  2  0  0  0  0
 16  2  1  6  0  0  0
 16 11  1  0  0  0  0
 17 12  1  6  0  0  0
 18 20  1  0  0  0  0
 19  4  1  0  0  0  0
 20 30  1  6  0  0  0
 21  6  1  1  0  0  0
 23  7  1  0  0  0  0
 23  5  1  0  0  0  0
 24  5  1  6  0  0  0
 24 21  1  0  0  0  0
 24 18  1  0  0  0  0
 25 27  2  0  0  0  0
 27 14  1  0  0  0  0
 27 26  1  0  0  0  0
 28 29  1  0  0  0  0
 30 31  1  0  0  0  0
 31 32  1  0  0  0  0
M  END
>  <MODEL>
6

>  <REMARK>
 VINA RESULT:      -4.8      3.080      6.570
  Name = 
  4 active torsions:
  status: ('A' for Active; 'I' for Inactive)
    1  A    between atoms: C_1  and  O_4
    2  A    between atoms: C_1  and  C_27
    3  A    between atoms: C_2  and  C_14
    4  A    between atoms: C_19  and  C_26
                            x       y       z     vdW  Elec       q    Type
                         _______ _______ _______ _____ _____    ______ ____

>  <TORSDO>
F 4

$$$$
=
 OpenBabel10262421053D

 32 36  0  0  1  0  0  0  0  0999 V2000
  186.2900  173.8280  135.7230 C   0  0  1  0  0  3  0  0  0  0  0  0
  189.6820  176.3740  139.8090 C   0  0  0  0  0  3  0  0  0  0  0  0
  187.2030  173.9300  136.8000 O   0  0  0  0  0  0  0  0  0  0  0  0
  186.3530  176.3650  135.7210 N   0  0  0  0  0  0  0  0  0  0  0  0
  190.0290  177.2170  134.7240 C   0  0  0  0  0  2  0  0  0  0  0  0
  188.5060  174.1210  136.3110 C   0  0  0  0  0  2  0  0  0  0  0  0
  189.4140  177.7880  137.0710 C   0  0  0  0  0  2  0  0  0  0  0  0
  188.8260  176.3810  137.3710 C   0  0  1  0  0  0  0  0  0  0  0  0
  186.0970  176.5390  137.1570 C   0  0  2  0  0  3  0  0  0  0  0  0
  191.8530  177.4660  139.3650 C   0  0  0  0  0  2  0  0  0  0  0  0
  191.1580  175.5160  137.9800 C   0  0  0  0  0  0  0  0  0  0  0  0
  186.6910  177.8200  137.7120 C   0  0  0  0  0  2  0  0  0  0  0  0
  185.6790  175.1500  135.2180 C   0  0  2  0  0  3  0  0  0  0  0  0
  190.6610  177.1790  140.2430 C   0  0  0  0  0  0  0  0  0  0  0  0
  192.1340  176.3420  138.3990 C   0  0  0  0  0  3  0  0  0  0  0  0
  189.7330  175.7100  138.4470 C   0  0  1  0  0  3  0  0  0  0  0  0
  187.3870  176.4990  138.0130 C   0  0  2  0  0  3  0  0  0  0  0  0
  191.2830  175.1790  135.5290 C   0  0  0  0  0  2  0  0  0  0  0  0
  185.8300  177.5090  134.9790 C   0  0  0  0  0  1  0  0  0  0  0  0
  191.3940  174.5120  136.8950 C   0  0  1  0  0  3  0  0  0  0  0  0
  188.7930  175.5480  136.1270 N   0  0  1  0  0  0  0  0  0  0  0  0
  184.1690  175.1420  135.4730 C   0  0  0  0  0  1  0  0  0  0  0  0
  189.2400  178.1740  135.6110 C   0  0  0  0  0  2  0  0  0  0  0  0
  189.8970  175.7540  135.1610 C   0  0  1  0  0  3  0  0  0  0  0  0
  189.4480  178.3110  141.9490 O   0  0  0  0  0  0  0  0  0  0  0  0
  191.6760  177.9800  142.3560 O   0  0  0  0  0  1  0  0  0  0  0  0
  190.5520  177.8450  141.5500 C   0  0  0  0  0  0  0  0  0  0  0  0
  186.6550  172.8350  134.6140 C   0  0  0  0  0  2  0  0  0  0  0  0
  186.1380  171.4540  134.9690 C   0  0  0  0  0  1  0  0  0  0  0  0
  192.7170  173.7770  137.0470 C   0  0  0  0  0  2  0  0  0  0  0  0
  193.5770  174.1320  136.0090 O   0  0  0  0  0  0  0  0  0  0  0  0
  194.8020  174.3670  136.6350 C   0  0  0  0  0  1  0  0  0  0  0  0
  1 28  1  6  0  0  0
  1  3  1  0  0  0  0
  2 14  2  0  0  0  0
  4  9  1  0  0  0  0
  5 23  1  0  0  0  0
  6  3  1  0  0  0  0
  8  7  1  6  0  0  0
  8 17  1  0  0  0  0
  8 16  1  0  0  0  0
  9 12  1  6  0  0  0
  9 17  1  0  0  0  0
 10 14  1  0  0  0  0
 11 15  2  0  0  0  0
 11 16  1  0  0  0  0
 13 22  1  1  0  0  0
 13  4  1  0  0  0  0
 13  1  1  0  0  0  0
 14 27  1  0  0  0  0
 15 10  1  0  0  0  0
 16  2  1  1  0  0  0
 17 12  1  6  0  0  0
 18 20  1  0  0  0  0
 19  4  1  0  0  0  0
 20 30  1  1  0  0  0
 20 11  1  0  0  0  0
 21  6  1  1  0  0  0
 21  8  1  0  0  0  0
 23  7  1  0  0  0  0
 24  5  1  1  0  0  0
 24 18  1  0  0  0  0
 24 21  1  0  0  0  0
 27 25  2  0  0  0  0
 27 26  1  0  0  0  0
 28 29  1  0  0  0  0
 31 32  1  0  0  0  0
 31 30  1  0  0  0  0
M  END
>  <MODEL>
7

>  <REMARK>
 VINA RESULT:      -4.2      3.951      6.462
  Name = 
  4 active torsions:
  status: ('A' for Active; 'I' for Inactive)
    1  A    between atoms: C_1  and  O_4
    2  A    between atoms: C_1  and  C_27
    3  A    between atoms: C_2  and  C_14
    4  A    between atoms: C_19  and  C_26
                            x       y       z     vdW  Elec       q    Type
                         _______ _______ _______ _____ _____    ______ ____

>  <TORSDO>
F 4

$$$$
=
 OpenBabel10262421053D

 32 36  0  0  1  0  0  0  0  0999 V2000
  191.2470  176.5560  139.7390 C   0  0  1  0  0  3  0  0  0  0  0  0
  188.2430  172.6440  136.5200 C   0  0  0  0  0  3  0  0  0  0  0  0
  190.2280  175.6330  139.4010 O   0  0  0  0  0  0  0  0  0  0  0  0
  192.1290  176.0950  137.4050 N   0  0  0  0  0  0  0  0  0  0  0  0
  189.3360  177.4750  135.0520 C   0  0  0  0  0  2  0  0  0  0  0  0
  189.2250  176.2750  138.6530 C   0  0  0  0  0  2  0  0  0  0  0  0
  189.5980  174.9960  135.0370 C   0  0  0  0  0  2  0  0  0  0  0  0
  189.5440  174.8750  136.5860 C   0  0  1  0  0  0  0  0  0  0  0  0
  192.1150  174.6300  137.5070 C   0  0  2  0  0  3  0  0  0  0  0  0
  186.7800  173.2090  134.6110 C   0  0  0  0  0  2  0  0  0  0  0  0
  186.9860  174.8080  136.5100 C   0  0  0  0  0  0  0  0  0  0  0  0
  191.9320  173.9460  136.1660 C   0  0  0  0  0  2  0  0  0  0  0  0
  192.3970  176.7050  138.7240 C   0  0  2  0  0  3  0  0  0  0  0  0
  187.5620  172.2260  135.4450 C   0  0  0  0  0  0  0  0  0  0  0  0
  186.3180  174.3990  135.4150 C   0  0  0  0  0  3  0  0  0  0  0  0
  188.2440  174.0980  136.9530 C   0  0  1  0  0  3  0  0  0  0  0  0
  190.7490  174.0080  137.1230 C   0  0  2  0  0  3  0  0  0  0  0  0
  187.2760  177.2680  136.4950 C   0  0  0  0  0  2  0  0  0  0  0  0
  193.1840  176.5220  136.4900 C   0  0  0  0  0  1  0  0  0  0  0  0
  186.6350  176.0830  137.2100 C   0  0  1  0  0  3  0  0  0  0  0  0
  189.5330  176.2320  137.2190 N   0  0  1  0  0  0  0  0  0  0  0  0
  193.7040  176.2240  139.3610 C   0  0  0  0  0  1  0  0  0  0  0  0
  190.2120  176.3140  134.5940 C   0  0  0  0  0  2  0  0  0  0  0  0
  188.8200  177.3030  136.4850 C   0  0  1  0  0  3  0  0  0  0  0  0
  188.7350  170.2580  134.7990 O   0  0  0  0  0  0  0  0  0  0  0  0
  186.4530  170.0880  134.8630 O   0  0  0  0  0  1  0  0  0  0  0  0
  187.6250  170.8170  135.0260 C   0  0  0  0  0  0  0  0  0  0  0  0
  190.7880  177.8720  140.3740 C   0  0  0  0  0  2  0  0  0  0  0  0
  190.2580  177.6130  141.7720 C   0  0  0  0  0  1  0  0  0  0  0  0
  185.1340  176.2780  137.3670 C   0  0  0  0  0  2  0  0  0  0  0  0
  184.7840  177.5750  136.9980 O   0  0  0  0  0  0  0  0  0  0  0  0
  183.7650  177.9280  137.8830 C   0  0  0  0  0  1  0  0  0  0  0  0
  1 28  1  6  0  0  0
  3  1  1  0  0  0  0
  4  9  1  0  0  0  0
  4 13  1  0  0  0  0
  6  3  1  0  0  0  0
  8  7  1  6  0  0  0
  8 16  1  0  0  0  0
  8 17  1  0  0  0  0
  8 21  1  0  0  0  0
  9 12  1  6  0  0  0
 10 15  1  0  0  0  0
 10 14  1  0  0  0  0
 11 16  1  0  0  0  0
 11 20  1  0  0  0  0
 13 22  1  1  0  0  0
 13  1  1  0  0  0  0
 14  2  2  0  0  0  0
 15 11  2  0  0  0  0
 16  2  1  6  0  0  0
 17 12  1  6  0  0  0
 17  9  1  0  0  0  0
 18 20  1  0  0  0  0
 19  4  1  0  0  0  0
 20 30  1  6  0  0  0
 21  6  1  1  0  0  0
 23  7  1  0  0  0  0
 23  5  1  0  0  0  0
 24  5  1  6  0  0  0
 24 18  1  0  0  0  0
 24 21  1  0  0  0  0
 25 27  2  0  0  0  0
 26 27  1  0  0  0  0
 27 14  1  0  0  0  0
 28 29  1  0  0  0  0
 31 30  1  0  0  0  0
 31 32  1  0  0  0  0
M  END
>  <MODEL>
8

>  <REMARK>
 VINA RESULT:      -3.9      4.116      8.421
  Name = 
  4 active torsions:
  status: ('A' for Active; 'I' for Inactive)
    1  A    between atoms: C_1  and  O_4
    2  A    between atoms: C_1  and  C_27
    3  A    between atoms: C_2  and  C_14
    4  A    between atoms: C_19  and  C_26
                            x       y       z     vdW  Elec       q    Type
                         _______ _______ _______ _____ _____    ______ ____

>  <TORSDO>
F 4

$$$$
=
 OpenBabel10262421053D

 32 36  0  0  1  0  0  0  0  0999 V2000
  180.5670  176.3490  140.1350 C   0  0  1  0  0  3  0  0  0  0  0  0
  185.2930  174.6710  137.0470 C   0  0  0  0  0  3  0  0  0  0  0  0
  181.5530  175.4850  139.6010 O   0  0  0  0  0  0  0  0  0  0  0  0
  181.7210  178.1470  138.7650 N   0  0  0  0  0  0  0  0  0  0  0  0
  181.1460  177.0320  135.0680 C   0  0  0  0  0  2  0  0  0  0  0  0
  181.1780  175.0610  138.3140 C   0  0  0  0  0  2  0  0  0  0  0  0
  183.5080  176.8980  135.8550 C   0  0  0  0  0  2  0  0  0  0  0  0
  183.1450  176.1040  137.1410 C   0  0  1  0  0  0  0  0  0  0  0  0
  183.0840  177.8690  139.2380 C   0  0  2  0  0  3  0  0  0  0  0  0
  185.3500  174.3830  134.5940 C   0  0  0  0  0  2  0  0  0  0  0  0
  183.2430  173.9040  135.8330 C   0  0  0  0  0  0  0  0  0  0  0  0
  184.1490  178.2400  138.2240 C   0  0  0  0  0  2  0  0  0  0  0  0
  180.7330  177.8500  139.8230 C   0  0  2  0  0  3  0  0  0  0  0  0
  186.0250  174.5230  135.9340 C   0  0  0  0  0  0  0  0  0  0  0  0
  183.9730  173.7790  134.7090 C   0  0  0  0  0  3  0  0  0  0  0  0
  183.7770  174.6850  137.0130 C   0  0  1  0  0  3  0  0  0  0  0  0
  183.7990  176.7700  138.4150 C   0  0  2  0  0  3  0  0  0  0  0  0
  180.9060  174.5300  135.3000 C   0  0  0  0  0  2  0  0  0  0  0  0
  181.5930  179.5590  138.4140 C   0  0  0  0  0  1  0  0  0  0  0  0
  181.8160  173.4600  135.8930 C   0  0  1  0  0  3  0  0  0  0  0  0
  181.6590  175.9980  137.2930 N   0  0  1  0  0  0  0  0  0  0  0  0
  180.9890  178.6140  141.1250 C   0  0  0  0  0  1  0  0  0  0  0  0
  182.3880  177.8370  135.4360 C   0  0  0  0  0  2  0  0  0  0  0  0
  180.8700  175.8830  136.0440 C   0  0  1  0  0  3  0  0  0  0  0  0
  188.0830  175.2030  136.9180 O   0  0  0  0  0  1  0  0  0  0  0  0
  188.2510  173.9100  135.0370 O   0  0  0  0  0  0  0  0  0  0  0  0
  187.4950  174.5650  136.0000 C   0  0  0  0  0  0  0  0  0  0  0  0
  179.1210  175.8470  140.0770 C   0  0  0  0  0  2  0  0  0  0  0  0
  178.9330  174.7040  141.0560 C   0  0  0  0  0  1  0  0  0  0  0  0
  181.5880  172.1100  135.2300 C   0  0  0  0  0  2  0  0  0  0  0  0
  181.3940  171.1310  136.2040 O   0  0  0  0  0  0  0  0  0  0  0  0
  180.0720  170.7210  136.0270 C   0  0  0  0  0  1  0  0  0  0  0  0
  1 28  1  6  0  0  0
  3  1  1  0  0  0  0
  4  9  1  0  0  0  0
  4 13  1  0  0  0  0
  5 23  1  0  0  0  0
  6  3  1  0  0  0  0
  8  7  1  6  0  0  0
  8 21  1  0  0  0  0
  8 17  1  0  0  0  0
  9 12  1  6  0  0  0
 10 15  1  0  0  0  0
 10 14  1  0  0  0  0
 11 20  1  0  0  0  0
 11 16  1  0  0  0  0
 13  1  1  0  0  0  0
 13 22  1  1  0  0  0
 14 27  1  0  0  0  0
 14  2  2  0  0  0  0
 15 11  2  0  0  0  0
 16  2  1  6  0  0  0
 16  8  1  0  0  0  0
 17 12  1  6  0  0  0
 17  9  1  0  0  0  0
 18 20  1  0  0  0  0
 18 24  1  0  0  0  0
 19  4  1  0  0  0  0
 20 30  1  6  0  0  0
 21  6  1  1  0  0  0
 23  7  1  0  0  0  0
 24  5  1  6  0  0  0
 24 21  1  0  0  0  0
 26 27  2  0  0  0  0
 27 25  1  0  0  0  0
 28 29  1  0  0  0  0
 30 31  1  0  0  0  0
 32 31  1  0  0  0  0
M  END
>  <MODEL>
9

>  <REMARK>
 VINA RESULT:      -3.8      2.322      6.632
  Name = 
  4 active torsions:
  status: ('A' for Active; 'I' for Inactive)
    1  A    between atoms: C_1  and  O_4
    2  A    between atoms: C_1  and  C_27
    3  A    between atoms: C_2  and  C_14
    4  A    between atoms: C_19  and  C_26
                            x       y       z     vdW  Elec       q    Type
                         _______ _______ _______ _____ _____    ______ ____

>  <TORSDO>
F 4

$$$$
