=
 OpenBabel10262419513D

 25 28  0  0  0  0  0  0  0  0999 V2000
  187.4060  177.7840  145.5880 C   0  0  0  0  0  0  0  0  0  0  0  0
  188.7080  177.3250  145.3380 C   0  0  0  0  0  0  0  0  0  0  0  0
  187.8690  177.8240  147.9690 C   0  0  0  0  0  3  0  0  0  0  0  0
  186.3830  178.0520  144.6640 C   0  0  0  0  0  0  0  0  0  0  0  0
  184.1260  178.6850  143.1460 C   0  0  0  0  0  3  0  0  0  0  0  0
  189.1310  177.3780  147.7160 N   0  0  0  0  0  0  0  0  0  0  0  0
  185.2100  178.4960  145.2750 C   0  0  0  0  0  0  0  0  0  0  0  0
  184.0720  178.8190  144.5420 C   0  0  0  0  0  3  0  0  0  0  0  0
  190.8760  176.6680  146.2100 C   0  0  0  0  0  0  0  0  0  0  0  0
  191.8320  176.4390  147.3310 C   0  0  0  0  0  1  0  0  0  0  0  0
  189.1500  177.0730  144.0760 N   0  0  0  0  0  0  0  0  0  0  0  0
  185.3010  178.2380  142.5150 C   0  0  0  0  0  3  0  0  0  0  0  0
  187.0050  178.0260  146.8980 C   0  0  0  0  0  0  0  0  0  0  0  0
  185.4080  178.5680  146.9480 S   0  0  0  0  0  0  0  0  0  0  0  0
  191.2940  176.4200  144.9020 C   0  0  0  0  0  3  0  0  0  0  0  0
  186.4380  177.9180  143.2740 C   0  0  0  0  0  3  0  0  0  0  0  0
  190.4120  176.6280  143.8320 C   0  0  0  0  0  0  0  0  0  0  0  0
  189.5710  177.1250  146.4450 C   0  0  0  0  0  0  0  0  0  0  0  0
  190.8010  176.3890  142.5100 O   0  0  0  0  0  0  0  0  0  0  0  0
  190.9640  177.4310  141.5580 C   0  0  0  0  0  2  0  0  0  0  0  0
  190.1110  177.1400  140.3420 C   0  0  0  0  0  2  0  0  0  0  0  0
  188.8210  177.9320  140.4310 C   0  0  0  0  0  2  0  0  0  0  0  0
  188.5450  178.5690  139.1550 N   0  0  0  0  0  0  0  0  0  0  0  0
  189.5080  178.0400  138.2080 C   0  0  0  0  0  1  0  0  0  0  0  0
  187.2390  178.1020  138.7200 C   0  0  0  0  0  1  0  0  0  0  0  0
  1 13  1  0  0  0  0
  2  1  2  0  0  0  0
  2 18  1  0  0  0  0
  4  7  1  0  0  0  0
  4  1  1  0  0  0  0
  5  8  1  0  0  0  0
  6  3  1  0  0  0  0
  7 14  1  0  0  0  0
  8  7  2  0  0  0  0
  9 18  1  0  0  0  0
  9 10  1  0  0  0  0
 11  2  1  0  0  0  0
 12  5  2  0  0  0  0
 12 16  1  0  0  0  0
 13 14  1  0  0  0  0
 13  3  2  0  0  0  0
 15  9  2  0  0  0  0
 16  4  2  0  0  0  0
 17 11  2  0  0  0  0
 17 15  1  0  0  0  0
 18  6  2  0  0  0  0
 19 17  1  0  0  0  0
 20 19  1  0  0  0  0
 21 22  1  0  0  0  0
 21 20  1  0  0  0  0
 23 22  1  0  0  0  0
 24 23  1  0  0  0  0
 25 23  1  0  0  0  0
M  END
>  <MODEL>
1

>  <REMARK>
 VINA RESULT:      -9.3      0.000      0.000
  Name = 
  5 active torsions:
  status: ('A' for Active; 'I' for Inactive)
    1  A    between atoms: N_2  and  C_25
    2  A    between atoms: O_6  and  C_15
    3  A    between atoms: O_6  and  C_23
    4  A    between atoms: C_15  and  C_21
    5  A    between atoms: C_21  and  C_25
                            x       y       z     vdW  Elec       q    Type
                         _______ _______ _______ _____ _____    ______ ____

>  <TORSDO>
F 5

$$$$
=
 OpenBabel10262419513D

 25 28  0  0  0  0  0  0  0  0999 V2000
  187.5720  177.8740  145.8320 C   0  0  0  0  0  0  0  0  0  0  0  0
  186.7550  178.1280  144.7210 C   0  0  0  0  0  0  0  0  0  0  0  0
  185.7380  178.4330  147.3170 C   0  0  0  0  0  3  0  0  0  0  0  0
  188.9150  177.4630  145.8530 C   0  0  0  0  0  0  0  0  0  0  0  0
  191.5510  176.6540  146.2950 C   0  0  0  0  0  3  0  0  0  0  0  0
  184.9520  178.6770  146.2310 N   0  0  0  0  0  0  0  0  0  0  0  0
  189.4090  177.3080  147.1480 C   0  0  0  0  0  0  0  0  0  0  0  0
  190.7180  176.9060  147.3950 C   0  0  0  0  0  3  0  0  0  0  0  0
  184.5900  178.7940  143.8500 C   0  0  0  0  0  0  0  0  0  0  0  0
  183.1740  179.2280  144.0270 C   0  0  0  0  0  1  0  0  0  0  0  0
  187.2140  177.9910  143.4470 N   0  0  0  0  0  0  0  0  0  0  0  0
  191.0670  176.8060  144.9820 C   0  0  0  0  0  3  0  0  0  0  0  0
  187.0530  178.0300  147.1130 C   0  0  0  0  0  0  0  0  0  0  0  0
  188.2150  177.6710  148.2820 S   0  0  0  0  0  0  0  0  0  0  0  0
  185.0950  178.6430  142.5580 C   0  0  0  0  0  3  0  0  0  0  0  0
  189.7430  177.2120  144.7550 C   0  0  0  0  0  3  0  0  0  0  0  0
  186.4230  178.2360  142.3670 C   0  0  0  0  0  0  0  0  0  0  0  0
  185.4180  178.5380  144.9520 C   0  0  0  0  0  0  0  0  0  0  0  0
  186.9590  178.0750  141.0860 O   0  0  0  0  0  0  0  0  0  0  0  0
  188.2470  178.5570  140.7260 C   0  0  0  0  0  2  0  0  0  0  0  0
  188.9910  177.4840  139.9610 C   0  0  0  0  0  2  0  0  0  0  0  0
  188.3260  177.2730  138.6140 C   0  0  0  0  0  2  0  0  0  0  0  0
  187.9880  178.5560  138.0240 N   0  0  0  0  0  0  0  0  0  0  0  0
  189.0690  178.8940  137.1180 C   0  0  0  0  0  1  0  0  0  0  0  0
  186.8090  178.3470  137.2000 C   0  0  0  0  0  1  0  0  0  0  0  0
  1  4  1  0  0  0  0
  1 13  2  0  0  0  0
  2 18  2  0  0  0  0
  2  1  1  0  0  0  0
  4  7  1  0  0  0  0
  5  8  1  0  0  0  0
  6  3  2  0  0  0  0
  7  8  2  0  0  0  0
  7 14  1  0  0  0  0
  9 10  1  0  0  0  0
  9 18  1  0  0  0  0
 11  2  1  0  0  0  0
 12  5  2  0  0  0  0
 13  3  1  0  0  0  0
 13 14  1  0  0  0  0
 15  9  2  0  0  0  0
 16 12  1  0  0  0  0
 16  4  2  0  0  0  0
 17 15  1  0  0  0  0
 17 11  2  0  0  0  0
 18  6  1  0  0  0  0
 19 17  1  0  0  0  0
 20 19  1  0  0  0  0
 21 20  1  0  0  0  0
 22 21  1  0  0  0  0
 23 22  1  0  0  0  0
 24 23  1  0  0  0  0
 25 23  1  0  0  0  0
M  END
>  <MODEL>
2

>  <REMARK>
 VINA RESULT:      -9.1      1.781      4.617
  Name = 
  5 active torsions:
  status: ('A' for Active; 'I' for Inactive)
    1  A    between atoms: N_2  and  C_25
    2  A    between atoms: O_6  and  C_15
    3  A    between atoms: O_6  and  C_23
    4  A    between atoms: C_15  and  C_21
    5  A    between atoms: C_21  and  C_25
                            x       y       z     vdW  Elec       q    Type
                         _______ _______ _______ _____ _____    ______ ____

>  <TORSDO>
F 5

$$$$
=
 OpenBabel10262419513D

 25 28  0  0  0  0  0  0  0  0999 V2000
  187.5200  177.7610  145.6420 C   0  0  0  0  0  0  0  0  0  0  0  0
  188.8420  177.3360  145.4510 C   0  0  0  0  0  0  0  0  0  0  0  0
  187.8640  177.7730  148.0430 C   0  0  0  0  0  3  0  0  0  0  0  0
  186.5370  178.0220  144.6730 C   0  0  0  0  0  0  0  0  0  0  0  0
  184.3440  178.6310  143.0550 C   0  0  0  0  0  3  0  0  0  0  0  0
  189.1460  177.3590  147.8470 N   0  0  0  0  0  0  0  0  0  0  0  0
  185.3270  178.4310  145.2320 C   0  0  0  0  0  0  0  0  0  0  0  0
  184.2190  178.7410  144.4480 C   0  0  0  0  0  3  0  0  0  0  0  0
  190.9790  176.7110  146.4190 C   0  0  0  0  0  0  0  0  0  0  0  0
  191.8830  176.4850  147.5820 C   0  0  0  0  0  1  0  0  0  0  0  0
  189.3510  177.1130  144.2080 N   0  0  0  0  0  0  0  0  0  0  0  0
  185.5590  178.2200  142.4760 C   0  0  0  0  0  3  0  0  0  0  0  0
  187.0490  177.9740  146.9340 C   0  0  0  0  0  0  0  0  0  0  0  0
  185.4400  178.4790  146.9130 S   0  0  0  0  0  0  0  0  0  0  0  0
  191.4660  176.4930  145.1300 C   0  0  0  0  0  3  0  0  0  0  0  0
  186.6650  177.9120  143.2850 C   0  0  0  0  0  3  0  0  0  0  0  0
  190.6340  176.7000  144.0200 C   0  0  0  0  0  0  0  0  0  0  0  0
  189.6550  177.1360  146.5950 C   0  0  0  0  0  0  0  0  0  0  0  0
  191.0930  176.4910  142.7160 O   0  0  0  0  0  0  0  0  0  0  0  0
  190.2270  176.4940  141.5890 C   0  0  0  0  0  2  0  0  0  0  0  0
  190.8650  177.2860  140.4670 C   0  0  0  0  0  2  0  0  0  0  0  0
  190.2250  176.8980  139.1480 C   0  0  0  0  0  2  0  0  0  0  0  0
  190.8190  175.6680  138.6540 N   0  0  0  0  0  0  0  0  0  0  0  0
  189.9970  175.2270  137.5420 C   0  0  0  0  0  1  0  0  0  0  0  0
  192.1150  176.0150  138.0970 C   0  0  0  0  0  1  0  0  0  0  0  0
  1 13  1  0  0  0  0
  2  1  2  0  0  0  0
  2 18  1  0  0  0  0
  4  7  1  0  0  0  0
  4  1  1  0  0  0  0
  5  8  1  0  0  0  0
  6  3  1  0  0  0  0
  7 14  1  0  0  0  0
  8  7  2  0  0  0  0
  9 18  1  0  0  0  0
  9 10  1  0  0  0  0
 11  2  1  0  0  0  0
 12  5  2  0  0  0  0
 12 16  1  0  0  0  0
 13  3  2  0  0  0  0
 14 13  1  0  0  0  0
 15  9  2  0  0  0  0
 16  4  2  0  0  0  0
 17 11  2  0  0  0  0
 17 15  1  0  0  0  0
 18  6  2  0  0  0  0
 19 17  1  0  0  0  0
 20 19  1  0  0  0  0
 21 20  1  0  0  0  0
 22 21  1  0  0  0  0
 23 22  1  0  0  0  0
 24 23  1  0  0  0  0
 25 23  1  0  0  0  0
M  END
>  <MODEL>
3

>  <REMARK>
 VINA RESULT:      -9.0      1.219      1.530
  Name = 
  5 active torsions:
  status: ('A' for Active; 'I' for Inactive)
    1  A    between atoms: N_2  and  C_25
    2  A    between atoms: O_6  and  C_15
    3  A    between atoms: O_6  and  C_23
    4  A    between atoms: C_15  and  C_21
    5  A    between atoms: C_21  and  C_25
                            x       y       z     vdW  Elec       q    Type
                         _______ _______ _______ _____ _____    ______ ____

>  <TORSDO>
F 5

$$$$
=
 OpenBabel10262419513D

 25 28  0  0  0  0  0  0  0  0999 V2000
  186.2480  178.3850  142.6500 C   0  0  0  0  0  0  0  0  0  0  0  0
  187.4140  178.0880  141.9290 C   0  0  0  0  0  0  0  0  0  0  0  0
  185.1300  179.0210  140.5940 C   0  0  0  0  0  3  0  0  0  0  0  0
  186.0270  178.2820  144.0330 C   0  0  0  0  0  0  0  0  0  0  0  0
  185.2160  178.2100  146.7040 C   0  0  0  0  0  3  0  0  0  0  0  0
  186.2670  178.7310  139.9020 N   0  0  0  0  0  0  0  0  0  0  0  0
  184.7370  178.6650  144.4000 C   0  0  0  0  0  0  0  0  0  0  0  0
  184.3080  178.6380  145.7240 C   0  0  0  0  0  3  0  0  0  0  0  0
  188.5570  177.9810  139.7900 C   0  0  0  0  0  0  0  0  0  0  0  0
  188.6030  178.1550  138.3100 C   0  0  0  0  0  1  0  0  0  0  0  0
  188.5410  177.6340  142.5420 N   0  0  0  0  0  0  0  0  0  0  0  0
  186.5200  177.8210  146.3490 C   0  0  0  0  0  3  0  0  0  0  0  0
  185.1230  178.8470  141.9730 C   0  0  0  0  0  0  0  0  0  0  0  0
  183.8520  179.1340  143.0440 S   0  0  0  0  0  0  0  0  0  0  0  0
  189.6930  177.5170  140.4530 C   0  0  0  0  0  3  0  0  0  0  0  0
  186.9330  177.8550  145.0080 C   0  0  0  0  0  3  0  0  0  0  0  0
  189.6730  177.3460  141.8450 C   0  0  0  0  0  0  0  0  0  0  0  0
  187.3980  178.2740  140.5240 C   0  0  0  0  0  0  0  0  0  0  0  0
  190.7950  176.8830  142.5390 O   0  0  0  0  0  0  0  0  0  0  0  0
  191.7470  177.7570  143.1280 C   0  0  0  0  0  2  0  0  0  0  0  0
  191.4160  177.9490  144.5930 C   0  0  0  0  0  2  0  0  0  0  0  0
  191.5650  176.6280  145.3220 C   0  0  0  0  0  2  0  0  0  0  0  0
  191.6760  176.8630  146.7510 N   0  0  0  0  0  0  0  0  0  0  0  0
  190.3230  176.9040  147.2720 C   0  0  0  0  0  1  0  0  0  0  0  0
  192.3050  175.6860  147.3270 C   0  0  0  0  0  1  0  0  0  0  0  0
  1  4  1  0  0  0  0
  2 11  1  0  0  0  0
  2  1  1  0  0  0  0
  3 13  1  0  0  0  0
  4  7  2  0  0  0  0
  4 16  1  0  0  0  0
  6 18  1  0  0  0  0
  6  3  2  0  0  0  0
  7  8  1  0  0  0  0
  8  5  2  0  0  0  0
  9 15  2  0  0  0  0
  9 18  1  0  0  0  0
 10  9  1  0  0  0  0
 12  5  1  0  0  0  0
 13  1  2  0  0  0  0
 13 14  1  0  0  0  0
 14  7  1  0  0  0  0
 15 17  1  0  0  0  0
 16 12  2  0  0  0  0
 17 19  1  0  0  0  0
 17 11  2  0  0  0  0
 18  2  2  0  0  0  0
 19 20  1  0  0  0  0
 20 21  1  0  0  0  0
 21 22  1  0  0  0  0
 22 23  1  0  0  0  0
 23 24  1  0  0  0  0
 23 25  1  0  0  0  0
M  END
>  <MODEL>
4

>  <REMARK>
 VINA RESULT:      -9.0      1.575      5.567
  Name = 
  5 active torsions:
  status: ('A' for Active; 'I' for Inactive)
    1  A    between atoms: N_2  and  C_25
    2  A    between atoms: O_6  and  C_15
    3  A    between atoms: O_6  and  C_23
    4  A    between atoms: C_15  and  C_21
    5  A    between atoms: C_21  and  C_25
                            x       y       z     vdW  Elec       q    Type
                         _______ _______ _______ _____ _____    ______ ____

>  <TORSDO>
F 5

$$$$
=
 OpenBabel10262419513D

 25 28  0  0  0  0  0  0  0  0999 V2000
  187.6210  177.8410  145.8130 C   0  0  0  0  0  0  0  0  0  0  0  0
  186.8030  178.1090  144.7050 C   0  0  0  0  0  0  0  0  0  0  0  0
  185.7990  178.4180  147.3070 C   0  0  0  0  0  3  0  0  0  0  0  0
  188.9580  177.4110  145.8280 C   0  0  0  0  0  0  0  0  0  0  0  0
  191.5840  176.5650  146.2570 C   0  0  0  0  0  3  0  0  0  0  0  0
  185.0130  178.6770  146.2250 N   0  0  0  0  0  0  0  0  0  0  0  0
  189.4540  177.2450  147.1200 C   0  0  0  0  0  0  0  0  0  0  0  0
  190.7590  176.8240  147.3620 C   0  0  0  0  0  3  0  0  0  0  0  0
  184.6440  178.8080  143.8450 C   0  0  0  0  0  0  0  0  0  0  0  0
  183.2350  179.2600  144.0290 C   0  0  0  0  0  1  0  0  0  0  0  0
  187.2560  177.9700  143.4290 N   0  0  0  0  0  0  0  0  0  0  0  0
  191.0980  176.7280  144.9470 C   0  0  0  0  0  3  0  0  0  0  0  0
  187.1080  177.9990  147.0970 C   0  0  0  0  0  0  0  0  0  0  0  0
  188.2700  177.6190  148.2590 S   0  0  0  0  0  0  0  0  0  0  0  0
  185.1420  178.6540  142.5510 C   0  0  0  0  0  3  0  0  0  0  0  0
  189.7780  177.1530  144.7250 C   0  0  0  0  0  3  0  0  0  0  0  0
  186.4650  178.2300  142.3540 C   0  0  0  0  0  0  0  0  0  0  0  0
  185.4730  178.5360  144.9430 C   0  0  0  0  0  0  0  0  0  0  0  0
  186.9940  178.0670  141.0700 O   0  0  0  0  0  0  0  0  0  0  0  0
  188.3180  178.4540  140.7310 C   0  0  0  0  0  2  0  0  0  0  0  0
  188.8490  177.5390  139.6480 C   0  0  0  0  0  2  0  0  0  0  0  0
  190.1410  176.8990  140.1170 C   0  0  0  0  0  2  0  0  0  0  0  0
  190.6490  176.0050  139.0910 N   0  0  0  0  0  0  0  0  0  0  0  0
  189.7090  176.0610  137.9880 C   0  0  0  0  0  1  0  0  0  0  0  0
  191.8920  176.5780  138.6040 C   0  0  0  0  0  1  0  0  0  0  0  0
  1  4  1  0  0  0  0
  1 13  2  0  0  0  0
  2 18  2  0  0  0  0
  2  1  1  0  0  0  0
  4  7  1  0  0  0  0
  5  8  1  0  0  0  0
  6  3  2  0  0  0  0
  7  8  2  0  0  0  0
  7 14  1  0  0  0  0
  9 10  1  0  0  0  0
  9 18  1  0  0  0  0
 11  2  1  0  0  0  0
 12  5  2  0  0  0  0
 13  3  1  0  0  0  0
 13 14  1  0  0  0  0
 15  9  2  0  0  0  0
 16 12  1  0  0  0  0
 16  4  2  0  0  0  0
 17 15  1  0  0  0  0
 17 11  2  0  0  0  0
 18  6  1  0  0  0  0
 19 17  1  0  0  0  0
 20 19  1  0  0  0  0
 21 22  1  0  0  0  0
 21 20  1  0  0  0  0
 23 22  1  0  0  0  0
 24 23  1  0  0  0  0
 25 23  1  0  0  0  0
M  END
>  <MODEL>
5

>  <REMARK>
 VINA RESULT:      -8.9      1.881      4.748
  Name = 
  5 active torsions:
  status: ('A' for Active; 'I' for Inactive)
    1  A    between atoms: N_2  and  C_25
    2  A    between atoms: O_6  and  C_15
    3  A    between atoms: O_6  and  C_23
    4  A    between atoms: C_15  and  C_21
    5  A    between atoms: C_21  and  C_25
                            x       y       z     vdW  Elec       q    Type
                         _______ _______ _______ _____ _____    ______ ____

>  <TORSDO>
F 5

$$$$
=
 OpenBabel10262419513D

 25 28  0  0  0  0  0  0  0  0999 V2000
  187.0260  177.8950  145.2140 C   0  0  0  0  0  0  0  0  0  0  0  0
  188.2540  177.4580  144.6950 C   0  0  0  0  0  0  0  0  0  0  0  0
  187.9170  177.7470  147.4650 C   0  0  0  0  0  3  0  0  0  0  0  0
  185.8560  178.2360  144.5170 C   0  0  0  0  0  0  0  0  0  0  0  0
  183.3700  178.9880  143.4920 C   0  0  0  0  0  3  0  0  0  0  0  0
  189.1050  177.3230  146.9520 N   0  0  0  0  0  0  0  0  0  0  0  0
  184.8220  178.6310  145.3650 C   0  0  0  0  0  0  0  0  0  0  0  0
  183.5730  179.0100  144.8800 C   0  0  0  0  0  3  0  0  0  0  0  0
  190.5350  176.7330  145.1020 C   0  0  0  0  0  0  0  0  0  0  0  0
  191.6760  176.4160  146.0080 C   0  0  0  0  0  1  0  0  0  0  0  0
  188.4550  177.3060  143.3580 N   0  0  0  0  0  0  0  0  0  0  0  0
  184.4030  178.5910  142.6230 C   0  0  0  0  0  3  0  0  0  0  0  0
  186.8750  178.0340  146.5900 C   0  0  0  0  0  0  0  0  0  0  0  0
  185.3220  178.5700  146.9730 S   0  0  0  0  0  0  0  0  0  0  0  0
  190.7040  176.5890  143.7240 C   0  0  0  0  0  3  0  0  0  0  0  0
  185.6550  178.2120  143.1340 C   0  0  0  0  0  3  0  0  0  0  0  0
  189.6450  176.8810  142.8530 C   0  0  0  0  0  0  0  0  0  0  0  0
  189.3020  177.1710  145.6060 C   0  0  0  0  0  0  0  0  0  0  0  0
  189.7820  176.7470  141.4680 O   0  0  0  0  0  0  0  0  0  0  0  0
  190.9650  177.1210  140.7750 C   0  0  0  0  0  2  0  0  0  0  0  0
  190.6220  177.4580  139.3400 C   0  0  0  0  0  2  0  0  0  0  0  0
  189.2230  178.0400  139.2790 C   0  0  0  0  0  2  0  0  0  0  0  0
  188.6210  177.7440  137.9900 N   0  0  0  0  0  0  0  0  0  0  0  0
  187.1870  177.8910  138.1580 C   0  0  0  0  0  1  0  0  0  0  0  0
  189.0390  178.7910  137.0750 C   0  0  0  0  0  1  0  0  0  0  0  0
  1 13  1  0  0  0  0
  2  1  2  0  0  0  0
  2 18  1  0  0  0  0
  4  1  1  0  0  0  0
  4  7  1  0  0  0  0
  5  8  1  0  0  0  0
  6  3  1  0  0  0  0
  7 14  1  0  0  0  0
  8  7  2  0  0  0  0
  9 18  1  0  0  0  0
  9 10  1  0  0  0  0
 11  2  1  0  0  0  0
 12 16  1  0  0  0  0
 12  5  2  0  0  0  0
 13 14  1  0  0  0  0
 13  3  2  0  0  0  0
 15  9  2  0  0  0  0
 16  4  2  0  0  0  0
 17 11  2  0  0  0  0
 17 15  1  0  0  0  0
 18  6  2  0  0  0  0
 19 17  1  0  0  0  0
 20 19  1  0  0  0  0
 21 20  1  0  0  0  0
 22 21  1  0  0  0  0
 23 24  1  0  0  0  0
 23 22  1  0  0  0  0
 25 23  1  0  0  0  0
M  END
>  <MODEL>
6

>  <REMARK>
 VINA RESULT:      -8.8      0.876      1.154
  Name = 
  5 active torsions:
  status: ('A' for Active; 'I' for Inactive)
    1  A    between atoms: N_2  and  C_25
    2  A    between atoms: O_6  and  C_15
    3  A    between atoms: O_6  and  C_23
    4  A    between atoms: C_15  and  C_21
    5  A    between atoms: C_21  and  C_25
                            x       y       z     vdW  Elec       q    Type
                         _______ _______ _______ _____ _____    ______ ____

>  <TORSDO>
F 5

$$$$
=
 OpenBabel10262419513D

 25 28  0  0  0  0  0  0  0  0999 V2000
  189.5390  177.4930  144.0660 C   0  0  0  0  0  0  0  0  0  0  0  0
  188.8980  177.7820  142.8530 C   0  0  0  0  0  0  0  0  0  0  0  0
  191.5910  176.9950  142.8710 C   0  0  0  0  0  3  0  0  0  0  0  0
  189.0100  177.5380  145.3660 C   0  0  0  0  0  0  0  0  0  0  0  0
  188.3220  177.5110  148.0720 C   0  0  0  0  0  3  0  0  0  0  0  0
  190.9590  177.2770  141.6980 N   0  0  0  0  0  0  0  0  0  0  0  0
  189.9440  177.1840  146.3390 C   0  0  0  0  0  0  0  0  0  0  0  0
  189.6270  177.1630  147.6940 C   0  0  0  0  0  3  0  0  0  0  0  0
  189.0180  177.9500  140.4340 C   0  0  0  0  0  0  0  0  0  0  0  0
  189.7500  177.8440  139.1400 C   0  0  0  0  0  1  0  0  0  0  0  0
  187.5930  178.1660  142.8050 N   0  0  0  0  0  0  0  0  0  0  0  0
  187.3680  177.8710  147.1020 C   0  0  0  0  0  3  0  0  0  0  0  0
  190.8750  177.1040  144.0580 C   0  0  0  0  0  0  0  0  0  0  0  0
  191.4260  176.8120  145.6260 S   0  0  0  0  0  0  0  0  0  0  0  0
  187.6790  178.3410  140.4240 C   0  0  0  0  0  3  0  0  0  0  0  0
  187.7090  177.8860  145.7400 C   0  0  0  0  0  3  0  0  0  0  0  0
  186.9690  178.4470  141.6290 C   0  0  0  0  0  0  0  0  0  0  0  0
  189.6460  177.6630  141.6540 C   0  0  0  0  0  0  0  0  0  0  0  0
  185.6260  178.8370  141.6520 O   0  0  0  0  0  0  0  0  0  0  0  0
  184.7750  178.5890  142.7630 C   0  0  0  0  0  2  0  0  0  0  0  0
  183.3310  178.6610  142.3150 C   0  0  0  0  0  2  0  0  0  0  0  0
  182.4500  178.9910  143.5050 C   0  0  0  0  0  2  0  0  0  0  0  0
  181.0990  179.2760  143.0540 N   0  0  0  0  0  0  0  0  0  0  0  0
  180.9350  178.6050  141.7790 C   0  0  0  0  0  1  0  0  0  0  0  0
  180.1940  178.6220  143.9840 C   0  0  0  0  0  1  0  0  0  0  0  0
  1  4  1  0  0  0  0
  2  1  1  0  0  0  0
  3 13  1  0  0  0  0
  4 16  2  0  0  0  0
  4  7  1  0  0  0  0
  6  3  2  0  0  0  0
  7  8  2  0  0  0  0
  8  5  1  0  0  0  0
  9 18  1  0  0  0  0
 10  9  1  0  0  0  0
 11  2  1  0  0  0  0
 12  5  2  0  0  0  0
 13  1  2  0  0  0  0
 13 14  1  0  0  0  0
 14  7  1  0  0  0  0
 15  9  2  0  0  0  0
 15 17  1  0  0  0  0
 16 12  1  0  0  0  0
 17 19  1  0  0  0  0
 17 11  2  0  0  0  0
 18  6  1  0  0  0  0
 18  2  2  0  0  0  0
 19 20  1  0  0  0  0
 21 20  1  0  0  0  0
 21 22  1  0  0  0  0
 23 22  1  0  0  0  0
 23 25  1  0  0  0  0
 24 23  1  0  0  0  0
M  END
>  <MODEL>
7

>  <REMARK>
 VINA RESULT:      -8.3      2.903      6.072
  Name = 
  5 active torsions:
  status: ('A' for Active; 'I' for Inactive)
    1  A    between atoms: N_2  and  C_25
    2  A    between atoms: O_6  and  C_15
    3  A    between atoms: O_6  and  C_23
    4  A    between atoms: C_15  and  C_21
    5  A    between atoms: C_21  and  C_25
                            x       y       z     vdW  Elec       q    Type
                         _______ _______ _______ _____ _____    ______ ____

>  <TORSDO>
F 5

$$$$
=
 OpenBabel10262419513D

 25 28  0  0  0  0  0  0  0  0999 V2000
  187.0550  177.9970  145.3030 C   0  0  0  0  0  0  0  0  0  0  0  0
  186.0870  178.2770  144.3270 C   0  0  0  0  0  0  0  0  0  0  0  0
  185.4240  178.4110  147.0500 C   0  0  0  0  0  3  0  0  0  0  0  0
  188.3990  177.6340  145.1200 C   0  0  0  0  0  0  0  0  0  0  0  0
  191.0930  176.8990  145.1590 C   0  0  0  0  0  3  0  0  0  0  0  0
  184.4910  178.6820  146.0940 N   0  0  0  0  0  0  0  0  0  0  0  0
  189.0690  177.4300  146.3260 C   0  0  0  0  0  0  0  0  0  0  0  0
  190.4110  177.0640  146.3730 C   0  0  0  0  0  3  0  0  0  0  0  0
  183.8050  178.9080  143.7940 C   0  0  0  0  0  0  0  0  0  0  0  0
  182.4150  179.2810  144.1830 C   0  0  0  0  0  1  0  0  0  0  0  0
  186.3730  178.2220  142.9980 N   0  0  0  0  0  0  0  0  0  0  0  0
  190.4310  177.1010  143.9340 C   0  0  0  0  0  3  0  0  0  0  0  0
  186.7100  178.0670  146.6490 C   0  0  0  0  0  0  0  0  0  0  0  0
  188.0310  177.6910  147.6290 S   0  0  0  0  0  0  0  0  0  0  0  0
  184.1340  178.8420  142.4390 C   0  0  0  0  0  3  0  0  0  0  0  0
  189.0770  177.4700  143.9090 C   0  0  0  0  0  3  0  0  0  0  0  0
  185.4360  178.4940  142.0490 C   0  0  0  0  0  0  0  0  0  0  0  0
  184.7830  178.6260  144.7580 C   0  0  0  0  0  0  0  0  0  0  0  0
  185.7970  178.4190  140.7010 O   0  0  0  0  0  0  0  0  0  0  0  0
  184.9700  178.9150  139.6560 C   0  0  0  0  0  2  0  0  0  0  0  0
  185.1690  178.0730  138.4140 C   0  0  0  0  0  2  0  0  0  0  0  0
  186.5400  178.3530  137.8290 C   0  0  0  0  0  2  0  0  0  0  0  0
  187.3110  177.1230  137.7700 N   0  0  0  0  0  0  0  0  0  0  0  0
  187.6570  176.9170  136.3760 C   0  0  0  0  0  1  0  0  0  0  0  0
  188.5590  177.3700  138.4720 C   0  0  0  0  0  1  0  0  0  0  0  0
  1 13  2  0  0  0  0
  2 18  2  0  0  0  0
  2  1  1  0  0  0  0
  4  1  1  0  0  0  0
  4  7  1  0  0  0  0
  5  8  1  0  0  0  0
  6  3  2  0  0  0  0
  7  8  2  0  0  0  0
  7 14  1  0  0  0  0
  9 10  1  0  0  0  0
  9 18  1  0  0  0  0
 11  2  1  0  0  0  0
 12  5  2  0  0  0  0
 13  3  1  0  0  0  0
 13 14  1  0  0  0  0
 15  9  2  0  0  0  0
 16 12  1  0  0  0  0
 16  4  2  0  0  0  0
 17 15  1  0  0  0  0
 17 11  2  0  0  0  0
 18  6  1  0  0  0  0
 19 17  1  0  0  0  0
 20 19  1  0  0  0  0
 21 20  1  0  0  0  0
 22 21  1  0  0  0  0
 23 22  1  0  0  0  0
 23 25  1  0  0  0  0
 24 23  1  0  0  0  0
M  END
>  <MODEL>
8

>  <REMARK>
 VINA RESULT:      -8.2      2.145      5.072
  Name = 
  5 active torsions:
  status: ('A' for Active; 'I' for Inactive)
    1  A    between atoms: N_2  and  C_25
    2  A    between atoms: O_6  and  C_15
    3  A    between atoms: O_6  and  C_23
    4  A    between atoms: C_15  and  C_21
    5  A    between atoms: C_21  and  C_25
                            x       y       z     vdW  Elec       q    Type
                         _______ _______ _______ _____ _____    ______ ____

>  <TORSDO>
F 5

$$$$
=
 OpenBabel10262419513D

 25 28  0  0  0  0  0  0  0  0999 V2000
  186.0480  178.3710  144.6500 C   0  0  0  0  0  0  0  0  0  0  0  0
  186.0920  178.4490  143.2500 C   0  0  0  0  0  0  0  0  0  0  0  0
  183.6970  178.9670  144.6170 C   0  0  0  0  0  3  0  0  0  0  0  0
  187.0870  178.0510  145.5390 C   0  0  0  0  0  0  0  0  0  0  0  0
  188.8800  177.4660  147.5980 C   0  0  0  0  0  3  0  0  0  0  0  0
  183.7500  179.0410  143.2580 N   0  0  0  0  0  0  0  0  0  0  0  0
  186.6780  178.0690  146.8710 C   0  0  0  0  0  0  0  0  0  0  0  0
  187.5510  177.7810  147.9170 C   0  0  0  0  0  3  0  0  0  0  0  0
  184.9310  178.8770  141.1610 C   0  0  0  0  0  0  0  0  0  0  0  0
  183.7130  179.2350  140.3790 C   0  0  0  0  0  1  0  0  0  0  0  0
  187.2350  178.2050  142.5530 N   0  0  0  0  0  0  0  0  0  0  0  0
  189.3090  177.4440  146.2580 C   0  0  0  0  0  3  0  0  0  0  0  0
  184.8530  178.6300  145.3130 C   0  0  0  0  0  0  0  0  0  0  0  0
  185.0450  178.4740  146.9810 S   0  0  0  0  0  0  0  0  0  0  0  0
  186.1210  178.6200  140.4800 C   0  0  0  0  0  3  0  0  0  0  0  0
  188.4110  177.7370  145.2190 C   0  0  0  0  0  3  0  0  0  0  0  0
  187.2800  178.2810  141.1950 C   0  0  0  0  0  0  0  0  0  0  0  0
  184.9020  178.7950  142.5610 C   0  0  0  0  0  0  0  0  0  0  0  0
  188.4870  178.0180  140.5420 O   0  0  0  0  0  0  0  0  0  0  0  0
  189.4630  177.1260  141.0650 C   0  0  0  0  0  2  0  0  0  0  0  0
  190.8270  177.5020  140.5280 C   0  0  0  0  0  2  0  0  0  0  0  0
  191.8510  177.4100  141.6420 C   0  0  0  0  0  2  0  0  0  0  0  0
  191.1810  177.4310  142.9310 N   0  0  0  0  0  0  0  0  0  0  0  0
  191.6710  176.2840  143.6730 C   0  0  0  0  0  1  0  0  0  0  0  0
  191.6530  178.6110  143.6360 C   0  0  0  0  0  1  0  0  0  0  0  0
  1 13  2  0  0  0  0
  1  4  1  0  0  0  0
  2  1  1  0  0  0  0
  3 13  1  0  0  0  0
  4  7  1  0  0  0  0
  5  8  1  0  0  0  0
  6  3  2  0  0  0  0
  7 14  1  0  0  0  0
  7  8  2  0  0  0  0
  9 18  1  0  0  0  0
 10  9  1  0  0  0  0
 11  2  1  0  0  0  0
 12  5  2  0  0  0  0
 13 14  1  0  0  0  0
 15  9  2  0  0  0  0
 15 17  1  0  0  0  0
 16  4  2  0  0  0  0
 16 12  1  0  0  0  0
 17 11  2  0  0  0  0
 18  2  2  0  0  0  0
 18  6  1  0  0  0  0
 19 20  1  0  0  0  0
 19 17  1  0  0  0  0
 21 20  1  0  0  0  0
 21 22  1  0  0  0  0
 22 23  1  0  0  0  0
 23 25  1  0  0  0  0
 23 24  1  0  0  0  0
M  END
>  <MODEL>
9

>  <REMARK>
 VINA RESULT:      -8.2      1.911      5.112
  Name = 
  5 active torsions:
  status: ('A' for Active; 'I' for Inactive)
    1  A    between atoms: N_2  and  C_25
    2  A    between atoms: O_6  and  C_15
    3  A    between atoms: O_6  and  C_23
    4  A    between atoms: C_15  and  C_21
    5  A    between atoms: C_21  and  C_25
                            x       y       z     vdW  Elec       q    Type
                         _______ _______ _______ _____ _____    ______ ____

>  <TORSDO>
F 5

$$$$
