=
 OpenBabel10262420563D

 28 29  0  0  1  0  0  0  0  0999 V2000
  190.4950  175.5040  142.5050 O   0  0  0  0  0  1  0  0  0  0  0  0
  188.8500  177.4760  140.9490 C   0  0  0  0  0  2  0  0  0  0  0  0
  190.5470  177.7530  143.3600 C   0  0  2  0  0  3  0  0  0  0  0  0
  188.5430  178.5790  141.9520 C   0  0  0  0  0  2  0  0  0  0  0  0
  190.9180  176.8020  142.2120 C   0  0  2  0  0  3  0  0  0  0  0  0
  190.3580  177.2780  140.8660 C   0  0  1  0  0  3  0  0  0  0  0  0
  189.0780  178.2400  143.3550 C   0  0  1  0  0  3  0  0  0  0  0  0
  188.0990  177.4280  144.2480 C   0  0  1  0  0  0  0  0  0  0  0  0
  187.6600  176.1590  143.5370 C   0  0  0  0  0  1  0  0  0  0  0  0
  189.0850  177.8580  146.5080 C   0  0  0  0  0  3  0  0  0  0  0  0
  188.7520  177.0010  145.5410 C   0  0  0  0  0  3  0  0  0  0  0  0
  189.7260  177.3580  147.7550 C   0  0  0  0  0  1  0  0  0  0  0  0
  186.8220  178.2280  144.5400 C   0  0  0  0  0  2  0  0  0  0  0  0
  185.8300  177.4930  145.4410 C   0  0  0  0  0  2  0  0  0  0  0  0
  185.2000  178.4340  146.4560 C   0  0  1  0  0  3  0  0  0  0  0  0
  186.0910  179.4320  146.8100 F   0  0  0  0  0  0  0  0  0  0  0  0
  184.0350  179.0010  145.9360 O   0  0  0  0  0  1  0  0  0  0  0  0
  190.7190  176.3290  139.7610 C   0  0  0  0  0  3  0  0  0  0  0  0
  190.0690  176.2830  138.5900 C   0  0  0  0  0  3  0  0  0  0  0  0
  188.1860  179.1090  136.8690 C   0  0  0  0  0  3  0  0  0  0  0  0
  188.9210  177.1830  138.2480 C   0  0  1  0  0  3  0  0  0  0  0  0
  187.1370  176.9470  136.3830 C   0  0  1  0  0  3  0  0  0  0  0  0
  189.3800  178.3280  137.3340 C   0  0  0  0  0  2  0  0  0  0  0  0
  187.7640  176.3500  137.6540 C   0  0  0  0  0  2  0  0  0  0  0  0
  185.7360  176.4070  136.1930 C   0  0  0  0  0  1  0  0  0  0  0  0
  187.1120  178.4490  136.4220 C   0  0  0  0  0  3  0  0  0  0  0  0
  191.0010  179.9460  144.2570 O   0  0  0  0  0  1  0  0  0  0  0  0
  191.5260  178.9200  143.4680 C   0  0  0  0  0  2  0  0  0  0  0  0
  2  4  1  0  0  0  0
  3 28  1  6  0  0  0
  4  7  1  0  0  0  0
  5  1  1  1  0  0  0
  5  3  1  0  0  0  0
  6 18  1  6  0  0  0
  6  2  1  0  0  0  0
  6  5  1  0  0  0  0
  7  3  1  0  0  0  0
  7  8  1  6  0  0  0
  8  9  1  6  0  0  0
  8 13  1  0  0  0  0
  8 11  1  0  0  0  0
 10 12  1  0  0  0  0
 11 10  2  0  0  0  0
 13 14  1  0  0  0  0
 14 15  1  0  0  0  0
 15 17  1  6  0  0  0
 15 16  1  0  0  0  0
 19 18  2  0  0  0  0
 20 23  1  0  0  0  0
 21 19  1  6  0  0  0
 22 25  1  1  0  0  0
 22 26  1  0  0  0  0
 22 24  1  0  0  0  0
 23 21  1  0  0  0  0
 24 21  1  0  0  0  0
 26 20  2  0  0  0  0
 28 27  1  0  0  0  0
M  END
>  <MODEL>
1

>  <REMARK>
 VINA RESULT:      -7.7      0.000      0.000
  Name = 
  8 active torsions:
  status: ('A' for Active; 'I' for Inactive)
    1  A    between atoms: C_1  and  C_3
    2  A    between atoms: C_1  and  C_11
    3  A    between atoms: C_1  and  C_27
    4  A    between atoms: C_6  and  C_8
    5  A    between atoms: C_8  and  C_11
    6  A    between atoms: C_9  and  C_18
    7  A    between atoms: C_14  and  C_25
    8  A    between atoms: C_16  and  C_21
                            x       y       z     vdW  Elec       q    Type
                         _______ _______ _______ _____ _____    ______ ____

>  <TORSDO>
F 8

$$$$
=
 OpenBabel10262420563D

 28 29  0  0  1  0  0  0  0  0999 V2000
  189.1440  179.4710  143.1030 O   0  0  0  0  0  1  0  0  0  0  0  0
  188.5330  176.6810  142.1760 C   0  0  0  0  0  2  0  0  0  0  0  0
  188.7470  177.8880  144.8720 C   0  0  2  0  0  3  0  0  0  0  0  0
  188.9250  175.8030  143.3560 C   0  0  0  0  0  2  0  0  0  0  0  0
  188.1630  178.6620  143.6810 C   0  0  2  0  0  3  0  0  0  0  0  0
  187.5310  177.7290  142.6410 C   0  0  1  0  0  3  0  0  0  0  0  0
  189.5550  176.6230  144.4950 C   0  0  1  0  0  3  0  0  0  0  0  0
  191.0930  176.8180  144.3850 C   0  0  1  0  0  0  0  0  0  0  0  0
  191.4550  178.2860  144.5300 C   0  0  0  0  0  1  0  0  0  0  0  0
  191.6920  176.3660  146.7730 C   0  0  0  0  0  3  0  0  0  0  0  0
  191.8260  176.0770  145.4770 C   0  0  0  0  0  3  0  0  0  0  0  0
  192.4510  175.5890  147.7910 C   0  0  0  0  0  1  0  0  0  0  0  0
  191.6100  176.3760  143.0080 C   0  0  0  0  0  2  0  0  0  0  0  0
  191.9920  177.5400  142.0930 C   0  0  0  0  0  2  0  0  0  0  0  0
  191.8170  177.1720  140.6280 C   0  0  1  0  0  3  0  0  0  0  0  0
  190.7620  177.8760  140.0740 F   0  0  0  0  0  0  0  0  0  0  0  0
  192.9880  177.4360  139.9170 O   0  0  0  0  0  1  0  0  0  0  0  0
  186.9790  178.5030  141.4800 C   0  0  0  0  0  3  0  0  0  0  0  0
  185.6800  178.8060  141.3490 C   0  0  0  0  0  3  0  0  0  0  0  0
  183.4730  179.0930  144.4370 C   0  0  0  0  0  3  0  0  0  0  0  0
  184.6380  178.4210  142.3530 C   0  0  1  0  0  3  0  0  0  0  0  0
  182.1070  178.9790  142.4040 C   0  0  1  0  0  3  0  0  0  0  0  0
  184.6340  179.3990  143.5370 C   0  0  0  0  0  2  0  0  0  0  0  0
  183.2660  178.2940  141.6580 C   0  0  0  0  0  2  0  0  0  0  0  0
  180.7870  178.3720  141.9830 C   0  0  0  0  0  1  0  0  0  0  0  0
  182.2680  178.8860  143.8950 C   0  0  0  0  0  3  0  0  0  0  0  0
  188.2320  177.5930  147.2110 O   0  0  0  0  0  1  0  0  0  0  0  0
  187.6850  177.5830  145.9260 C   0  0  0  0  0  2  0  0  0  0  0  0
  2  6  1  0  0  0  0
  2  4  1  0  0  0  0
  3 28  1  1  0  0  0
  4  7  1  0  0  0  0
  5  1  1  6  0  0  0
  5  3  1  0  0  0  0
  6 18  1  6  0  0  0
  6  5  1  0  0  0  0
  7  8  1  6  0  0  0
  7  3  1  0  0  0  0
  8  9  1  1  0  0  0
  8 11  1  0  0  0  0
 10 12  1  0  0  0  0
 11 10  2  0  0  0  0
 13  8  1  0  0  0  0
 14 13  1  0  0  0  0
 15 17  1  6  0  0  0
 15 14  1  0  0  0  0
 16 15  1  0  0  0  0
 19 18  2  0  0  0  0
 21 19  1  6  0  0  0
 21 23  1  0  0  0  0
 22 25  1  1  0  0  0
 22 26  1  0  0  0  0
 23 20  1  0  0  0  0
 24 21  1  0  0  0  0
 24 22  1  0  0  0  0
 26 20  2  0  0  0  0
 28 27  1  0  0  0  0
M  END
>  <MODEL>
2

>  <REMARK>
 VINA RESULT:      -7.5      3.398      5.958
  Name = 
  8 active torsions:
  status: ('A' for Active; 'I' for Inactive)
    1  A    between atoms: C_1  and  C_3
    2  A    between atoms: C_1  and  C_11
    3  A    between atoms: C_1  and  C_27
    4  A    between atoms: C_6  and  C_8
    5  A    between atoms: C_8  and  C_11
    6  A    between atoms: C_9  and  C_18
    7  A    between atoms: C_14  and  C_25
    8  A    between atoms: C_16  and  C_21
                            x       y       z     vdW  Elec       q    Type
                         _______ _______ _______ _____ _____    ______ ____

>  <TORSDO>
F 8

$$$$
=
 OpenBabel10262420563D

 28 29  0  0  1  0  0  0  0  0999 V2000
  190.3790  178.9420  142.5000 O   0  0  0  0  0  1  0  0  0  0  0  0
  190.0100  175.9640  142.6050 C   0  0  0  0  0  2  0  0  0  0  0  0
  188.1020  178.2220  142.8000 C   0  0  2  0  0  3  0  0  0  0  0  0
  188.7120  175.7770  143.3780 C   0  0  0  0  0  2  0  0  0  0  0  0
  189.3270  178.2720  141.8730 C   0  0  2  0  0  3  0  0  0  0  0  0
  189.7560  176.8750  141.4100 C   0  0  1  0  0  3  0  0  0  0  0  0
  188.1490  177.1170  143.8830 C   0  0  1  0  0  3  0  0  0  0  0  0
  188.6810  177.5640  145.2740 C   0  0  1  0  0  0  0  0  0  0  0  0
  189.7090  178.6710  145.1190 C   0  0  0  0  0  1  0  0  0  0  0  0
  186.2820  177.8470  145.9330 C   0  0  0  0  0  3  0  0  0  0  0  0
  187.5730  178.1130  146.1410 C   0  0  0  0  0  3  0  0  0  0  0  0
  185.2490  178.4280  146.8330 C   0  0  0  0  0  1  0  0  0  0  0  0
  189.3900  176.4080  145.9940 C   0  0  0  0  0  2  0  0  0  0  0  0
  190.1360  176.8370  147.2570 C   0  0  0  0  0  2  0  0  0  0  0  0
  191.5420  176.2600  147.2930 C   0  0  1  0  0  3  0  0  0  0  0  0
  192.1300  176.3380  146.0430 F   0  0  0  0  0  0  0  0  0  0  0  0
  192.3240  176.9400  148.2280 O   0  0  0  0  0  1  0  0  0  0  0  0
  190.9610  176.9440  140.5180 C   0  0  0  0  0  3  0  0  0  0  0  0
  190.8830  177.0270  139.1830 C   0  0  0  0  0  3  0  0  0  0  0  0
  187.9960  178.5320  137.2120 C   0  0  0  0  0  3  0  0  0  0  0  0
  189.5870  177.0750  138.4340 C   0  0  1  0  0  3  0  0  0  0  0  0
  189.1370  176.8070  135.8950 C   0  0  1  0  0  3  0  0  0  0  0  0
  189.2000  178.5240  138.1070 C   0  0  0  0  0  2  0  0  0  0  0  0
  189.6710  176.1670  137.1880 C   0  0  0  0  0  2  0  0  0  0  0  0
  188.7550  175.7310  134.9020 C   0  0  0  0  0  1  0  0  0  0  0  0
  187.9630  177.7070  136.1600 C   0  0  0  0  0  3  0  0  0  0  0  0
  186.9210  178.8510  140.7930 O   0  0  0  0  0  1  0  0  0  0  0  0
  186.7960  178.1800  142.0120 C   0  0  0  0  0  2  0  0  0  0  0  0
  2  4  1  0  0  0  0
  3 28  1  6  0  0  0
  3  7  1  0  0  0  0
  4  7  1  0  0  0  0
  5  1  1  1  0  0  0
  5  3  1  0  0  0  0
  6 18  1  1  0  0  0
  6  5  1  0  0  0  0
  6  2  1  0  0  0  0
  7  8  1  1  0  0  0
  8  9  1  6  0  0  0
  8 13  1  0  0  0  0
  8 11  1  0  0  0  0
 10 11  2  0  0  0  0
 10 12  1  0  0  0  0
 13 14  1  0  0  0  0
 14 15  1  0  0  0  0
 15 16  1  6  0  0  0
 15 17  1  0  0  0  0
 19 18  2  0  0  0  0
 20 23  1  0  0  0  0
 21 19  1  6  0  0  0
 22 25  1  6  0  0  0
 22 26  1  0  0  0  0
 22 24  1  0  0  0  0
 23 21  1  0  0  0  0
 24 21  1  0  0  0  0
 26 20  2  0  0  0  0
 27 28  1  0  0  0  0
M  END
>  <MODEL>
3

>  <REMARK>
 VINA RESULT:      -7.5      2.265      3.659
  Name = 
  8 active torsions:
  status: ('A' for Active; 'I' for Inactive)
    1  A    between atoms: C_1  and  C_3
    2  A    between atoms: C_1  and  C_11
    3  A    between atoms: C_1  and  C_27
    4  A    between atoms: C_6  and  C_8
    5  A    between atoms: C_8  and  C_11
    6  A    between atoms: C_9  and  C_18
    7  A    between atoms: C_14  and  C_25
    8  A    between atoms: C_16  and  C_21
                            x       y       z     vdW  Elec       q    Type
                         _______ _______ _______ _____ _____    ______ ____

>  <TORSDO>
F 8

$$$$
=
 OpenBabel10262420563D

 28 29  0  0  1  0  0  0  0  0999 V2000
  189.7770  179.1290  143.2820 O   0  0  0  0  0  1  0  0  0  0  0  0
  189.4960  176.1440  143.1050 C   0  0  0  0  0  2  0  0  0  0  0  0
  187.5610  178.3570  142.7460 C   0  0  2  0  0  3  0  0  0  0  0  0
  188.0190  175.8920  143.3760 C   0  0  0  0  0  2  0  0  0  0  0  0
  189.0260  178.4800  142.3000 C   0  0  2  0  0  3  0  0  0  0  0  0
  189.6350  177.1190  141.9440 C   0  0  1  0  0  3  0  0  0  0  0  0
  187.2720  177.1920  143.7230 C   0  0  1  0  0  3  0  0  0  0  0  0
  187.2810  177.5650  145.2320 C   0  0  1  0  0  0  0  0  0  0  0  0
  186.5430  176.5140  146.0440 C   0  0  0  0  0  1  0  0  0  0  0  0
  189.0740  176.9850  146.8800 C   0  0  0  0  0  3  0  0  0  0  0  0
  188.6870  177.6320  145.7790 C   0  0  0  0  0  3  0  0  0  0  0  0
  190.4790  177.1020  147.3560 C   0  0  0  0  0  1  0  0  0  0  0  0
  186.5550  178.8950  145.4790 C   0  0  0  0  0  2  0  0  0  0  0  0
  185.0930  178.7280  145.8960 C   0  0  0  0  0  2  0  0  0  0  0  0
  184.1580  178.8800  144.7060 C   0  0  1  0  0  3  0  0  0  0  0  0
  182.8520  179.0420  145.1340 F   0  0  0  0  0  0  0  0  0  0  0  0
  184.5380  179.9710  143.9240 O   0  0  0  0  0  1  0  0  0  0  0  0
  191.0700  177.2590  141.5240 C   0  0  0  0  0  3  0  0  0  0  0  0
  191.4900  177.0600  140.2670 C   0  0  0  0  0  3  0  0  0  0  0  0
  189.2380  177.5560  137.2390 C   0  0  0  0  0  3  0  0  0  0  0  0
  190.5760  176.6910  139.1390 C   0  0  1  0  0  3  0  0  0  0  0  0
  191.1400  176.1150  136.6760 C   0  0  1  0  0  3  0  0  0  0  0  0
  190.0080  177.9480  138.4660 C   0  0  0  0  0  2  0  0  0  0  0  0
  191.3080  175.7480  138.1610 C   0  0  0  0  0  2  0  0  0  0  0  0
  191.4000  174.9020  135.8090 C   0  0  0  0  0  1  0  0  0  0  0  0
  189.7760  176.6750  136.3890 C   0  0  0  0  0  3  0  0  0  0  0  0
  187.2580  178.7160  140.3800 O   0  0  0  0  0  1  0  0  0  0  0  0
  186.6050  178.3420  141.5560 C   0  0  0  0  0  2  0  0  0  0  0  0
  2  4  1  0  0  0  0
  3 28  1  6  0  0  0
  3  7  1  0  0  0  0
  4  7  1  0  0  0  0
  5  3  1  0  0  0  0
  5  1  1  1  0  0  0
  6 18  1  1  0  0  0
  6  5  1  0  0  0  0
  6  2  1  0  0  0  0
  7  8  1  1  0  0  0
  8 13  1  0  0  0  0
  8 11  1  0  0  0  0
  8  9  1  1  0  0  0
 10 12  1  0  0  0  0
 11 10  2  0  0  0  0
 13 14  1  0  0  0  0
 15 17  1  1  0  0  0
 15 16  1  0  0  0  0
 15 14  1  0  0  0  0
 19 18  2  0  0  0  0
 20 23  1  0  0  0  0
 21 19  1  1  0  0  0
 22 25  1  6  0  0  0
 22 24  1  0  0  0  0
 23 21  1  0  0  0  0
 24 21  1  0  0  0  0
 26 22  1  0  0  0  0
 26 20  2  0  0  0  0
 27 28  1  0  0  0  0
M  END
>  <MODEL>
4

>  <REMARK>
 VINA RESULT:      -7.2      1.868      2.948
  Name = 
  8 active torsions:
  status: ('A' for Active; 'I' for Inactive)
    1  A    between atoms: C_1  and  C_3
    2  A    between atoms: C_1  and  C_11
    3  A    between atoms: C_1  and  C_27
    4  A    between atoms: C_6  and  C_8
    5  A    between atoms: C_8  and  C_11
    6  A    between atoms: C_9  and  C_18
    7  A    between atoms: C_14  and  C_25
    8  A    between atoms: C_16  and  C_21
                            x       y       z     vdW  Elec       q    Type
                         _______ _______ _______ _____ _____    ______ ____

>  <TORSDO>
F 8

$$$$
=
 OpenBabel10262420563D

 28 29  0  0  1  0  0  0  0  0999 V2000
  187.3780  177.1280  142.9980 O   0  0  0  0  0  1  0  0  0  0  0  0
  189.6780  179.0590  142.9270 C   0  0  0  0  0  2  0  0  0  0  0  0
  189.5050  176.1820  143.6130 C   0  0  2  0  0  3  0  0  0  0  0  0
  190.6960  178.4600  143.8880 C   0  0  0  0  0  2  0  0  0  0  0  0
  188.6440  176.8050  142.5030 C   0  0  2  0  0  3  0  0  0  0  0  0
  189.3190  178.0260  141.8670 C   0  0  1  0  0  3  0  0  0  0  0  0
  190.1540  177.1990  144.5840 C   0  0  1  0  0  3  0  0  0  0  0  0
  189.3680  177.4670  145.8970 C   0  0  1  0  0  0  0  0  0  0  0  0
  189.6860  178.8520  146.4340 C   0  0  0  0  0  1  0  0  0  0  0  0
  187.0040  178.1210  146.3970 C   0  0  0  0  0  3  0  0  0  0  0  0
  187.8750  177.4180  145.6720 C   0  0  0  0  0  3  0  0  0  0  0  0
  185.5460  178.0180  146.1130 C   0  0  0  0  0  1  0  0  0  0  0  0
  189.7680  176.4720  146.9960 C   0  0  0  0  0  2  0  0  0  0  0  0
  191.0640  176.8430  147.7180 C   0  0  0  0  0  2  0  0  0  0  0  0
  192.0500  175.6850  147.7150 C   0  0  1  0  0  3  0  0  0  0  0  0
  192.4240  175.3690  146.4200 F   0  0  0  0  0  0  0  0  0  0  0  0
  193.1790  176.0050  148.4700 O   0  0  0  0  0  1  0  0  0  0  0  0
  188.4570  178.6270  140.7960 C   0  0  0  0  0  3  0  0  0  0  0  0
  188.3660  178.1240  139.5570 C   0  0  0  0  0  3  0  0  0  0  0  0
  189.3890  175.2580  137.2710 C   0  0  0  0  0  3  0  0  0  0  0  0
  189.1000  176.8980  139.1080 C   0  0  1  0  0  3  0  0  0  0  0  0
  191.3110  176.6950  137.7710 C   0  0  1  0  0  3  0  0  0  0  0  0
  188.5290  176.3750  137.7830 C   0  0  0  0  0  2  0  0  0  0  0  0
  190.6150  177.1900  139.0510 C   0  0  0  0  0  2  0  0  0  0  0  0
  192.7940  176.5240  138.0200 C   0  0  0  0  0  1  0  0  0  0  0  0
  190.7180  175.4080  137.2730 C   0  0  0  0  0  3  0  0  0  0  0  0
  191.7680  175.3490  143.6940 O   0  0  0  0  0  1  0  0  0  0  0  0
  190.5350  175.2060  143.0520 C   0  0  0  0  0  2  0  0  0  0  0  0
  2  4  1  0  0  0  0
  3 28  1  6  0  0  0
  3  7  1  0  0  0  0
  4  7  1  0  0  0  0
  5  1  1  1  0  0  0
  5  3  1  0  0  0  0
  6 18  1  6  0  0  0
  6  5  1  0  0  0  0
  6  2  1  0  0  0  0
  7  8  1  1  0  0  0
  8  9  1  1  0  0  0
  8 13  1  0  0  0  0
 11  8  1  0  0  0  0
 11 10  2  0  0  0  0
 12 10  1  0  0  0  0
 13 14  1  0  0  0  0
 15 16  1  6  0  0  0
 15 14  1  0  0  0  0
 15 17  1  0  0  0  0
 19 18  2  0  0  0  0
 20 26  2  0  0  0  0
 20 23  1  0  0  0  0
 21 19  1  6  0  0  0
 22 25  1  1  0  0  0
 22 24  1  0  0  0  0
 23 21  1  0  0  0  0
 24 21  1  0  0  0  0
 26 22  1  0  0  0  0
 28 27  1  0  0  0  0
M  END
>  <MODEL>
5

>  <REMARK>
 VINA RESULT:      -6.9      2.448      4.392
  Name = 
  8 active torsions:
  status: ('A' for Active; 'I' for Inactive)
    1  A    between atoms: C_1  and  C_3
    2  A    between atoms: C_1  and  C_11
    3  A    between atoms: C_1  and  C_27
    4  A    between atoms: C_6  and  C_8
    5  A    between atoms: C_8  and  C_11
    6  A    between atoms: C_9  and  C_18
    7  A    between atoms: C_14  and  C_25
    8  A    between atoms: C_16  and  C_21
                            x       y       z     vdW  Elec       q    Type
                         _______ _______ _______ _____ _____    ______ ____

>  <TORSDO>
F 8

$$$$
=
 OpenBabel10262420563D

 28 29  0  0  1  0  0  0  0  0999 V2000
  188.9520  179.6880  142.0700 O   0  0  0  0  0  1  0  0  0  0  0  0
  189.9250  176.9390  141.3540 C   0  0  0  0  0  2  0  0  0  0  0  0
  187.7800  177.8900  143.1610 C   0  0  2  0  0  3  0  0  0  0  0  0
  189.5150  176.0780  142.5410 C   0  0  0  0  0  2  0  0  0  0  0  0
  188.1030  178.6030  141.8380 C   0  0  2  0  0  3  0  0  0  0  0  0
  188.6960  177.6460  140.7980 C   0  0  1  0  0  3  0  0  0  0  0  0
  188.8740  176.9160  143.6610 C   0  0  1  0  0  3  0  0  0  0  0  0
  189.8780  177.5060  144.6890 C   0  0  1  0  0  0  0  0  0  0  0  0
  190.6170  178.6910  144.0920 C   0  0  0  0  0  1  0  0  0  0  0  0
  188.2230  177.3170  146.5580 C   0  0  0  0  0  3  0  0  0  0  0  0
  189.1740  178.0090  145.9270 C   0  0  0  0  0  3  0  0  0  0  0  0
  187.5760  177.8820  147.7730 C   0  0  0  0  0  1  0  0  0  0  0  0
  190.9480  176.4740  145.0740 C   0  0  0  0  0  2  0  0  0  0  0  0
  191.8600  176.9310  146.2140 C   0  0  0  0  0  2  0  0  0  0  0  0
  192.0030  175.8510  147.2750 C   0  0  1  0  0  3  0  0  0  0  0  0
  192.6820  174.7580  146.7650 F   0  0  0  0  0  0  0  0  0  0  0  0
  192.6780  176.3510  148.3890 O   0  0  0  0  0  1  0  0  0  0  0  0
  189.0170  178.3640  139.5200 C   0  0  0  0  0  3  0  0  0  0  0  0
  189.5170  177.7500  138.4380 C   0  0  0  0  0  3  0  0  0  0  0  0
  189.4360  174.1910  137.0930 C   0  0  0  0  0  3  0  0  0  0  0  0
  189.7970  176.2800  138.3790 C   0  0  1  0  0  3  0  0  0  0  0  0
  191.7420  175.0140  137.2250 C   0  0  1  0  0  3  0  0  0  0  0  0
  189.0080  175.6210  137.2390 C   0  0  0  0  0  2  0  0  0  0  0  0
  191.3190  176.0420  138.2890 C   0  0  0  0  0  2  0  0  0  0  0  0
  193.1070  174.4530  137.5580 C   0  0  0  0  0  1  0  0  0  0  0  0
  190.7420  173.9000  137.0940 C   0  0  0  0  0  3  0  0  0  0  0  0
  185.4410  178.0860  142.6040 O   0  0  0  0  0  1  0  0  0  0  0  0
  186.4070  177.2230  143.1250 C   0  0  0  0  0  2  0  0  0  0  0  0
  2  4  1  0  0  0  0
  3 28  1  6  0  0  0
  3  7  1  0  0  0  0
  4  7  1  0  0  0  0
  5  1  1  1  0  0  0
  5  3  1  0  0  0  0
  6 18  1  6  0  0  0
  6  2  1  0  0  0  0
  6  5  1  0  0  0  0
  7  8  1  6  0  0  0
  8  9  1  6  0  0  0
  8 13  1  0  0  0  0
  8 11  1  0  0  0  0
 10 12  1  0  0  0  0
 11 10  2  0  0  0  0
 13 14  1  0  0  0  0
 14 15  1  0  0  0  0
 15 16  1  6  0  0  0
 15 17  1  0  0  0  0
 19 18  2  0  0  0  0
 20 26  2  0  0  0  0
 20 23  1  0  0  0  0
 21 19  1  6  0  0  0
 22 25  1  1  0  0  0
 22 24  1  0  0  0  0
 23 21  1  0  0  0  0
 24 21  1  0  0  0  0
 26 22  1  0  0  0  0
 27 28  1  0  0  0  0
M  END
>  <MODEL>
6

>  <REMARK>
 VINA RESULT:      -6.7      2.682      4.580
  Name = 
  8 active torsions:
  status: ('A' for Active; 'I' for Inactive)
    1  A    between atoms: C_1  and  C_3
    2  A    between atoms: C_1  and  C_11
    3  A    between atoms: C_1  and  C_27
    4  A    between atoms: C_6  and  C_8
    5  A    between atoms: C_8  and  C_11
    6  A    between atoms: C_9  and  C_18
    7  A    between atoms: C_14  and  C_25
    8  A    between atoms: C_16  and  C_21
                            x       y       z     vdW  Elec       q    Type
                         _______ _______ _______ _____ _____    ______ ____

>  <TORSDO>
F 8

$$$$
=
 OpenBabel10262420563D

 28 29  0  0  1  0  0  0  0  0999 V2000
  183.1670  180.1190  139.4640 O   0  0  0  0  0  1  0  0  0  0  0  0
  182.9700  177.4570  140.8400 C   0  0  0  0  0  2  0  0  0  0  0  0
  184.1340  178.2830  138.2440 C   0  0  2  0  0  3  0  0  0  0  0  0
  183.0540  176.4450  139.7060 C   0  0  0  0  0  2  0  0  0  0  0  0
  184.2030  179.1820  139.4880 C   0  0  2  0  0  3  0  0  0  0  0  0
  184.1870  178.3700  140.7880 C   0  0  1  0  0  3  0  0  0  0  0  0
  183.1030  177.1310  138.3290 C   0  0  1  0  0  3  0  0  0  0  0  0
  181.7140  177.4260  137.6980 C   0  0  1  0  0  0  0  0  0  0  0  0
  181.8050  178.6010  136.7390 C   0  0  0  0  0  1  0  0  0  0  0  0
  182.0070  175.3130  136.3880 C   0  0  0  0  0  3  0  0  0  0  0  0
  181.2060  176.2490  136.9000 C   0  0  0  0  0  3  0  0  0  0  0  0
  181.4280  174.1830  135.6120 C   0  0  0  0  0  1  0  0  0  0  0  0
  180.6890  177.8180  138.7720 C   0  0  0  0  0  2  0  0  0  0  0  0
  179.4230  176.9620  138.7520 C   0  0  0  0  0  2  0  0  0  0  0  0
  179.2660  176.1750  140.0450 C   0  0  1  0  0  3  0  0  0  0  0  0
  180.1400  175.1030  140.0690 F   0  0  0  0  0  0  0  0  0  0  0  0
  179.4970  177.0000  141.1470 O   0  0  0  0  0  1  0  0  0  0  0  0
  184.2410  179.2680  141.9900 C   0  0  0  0  0  3  0  0  0  0  0  0
  185.1080  179.0950  142.9980 C   0  0  0  0  0  3  0  0  0  0  0  0
  188.3200  177.2320  142.1610 C   0  0  0  0  0  3  0  0  0  0  0  0
  186.1270  177.9980  143.0300 C   0  0  1  0  0  3  0  0  0  0  0  0
  188.1990  177.7150  144.5620 C   0  0  1  0  0  3  0  0  0  0  0  0
  187.2280  178.2460  141.9890 C   0  0  0  0  0  2  0  0  0  0  0  0
  186.6680  177.8310  144.4670 C   0  0  0  0  0  2  0  0  0  0  0  0
  188.5890  177.0330  145.8550 C   0  0  0  0  0  1  0  0  0  0  0  0
  188.7780  176.9730  143.3900 C   0  0  0  0  0  3  0  0  0  0  0  0
  186.5170  178.6580  138.2360 O   0  0  0  0  0  1  0  0  0  0  0  0
  185.5140  177.7730  137.8360 C   0  0  0  0  0  2  0  0  0  0  0  0
  3 28  1  1  0  0  0
  3  7  1  0  0  0  0
  3  5  1  0  0  0  0
  4  2  1  0  0  0  0
  5  1  1  1  0  0  0
  5  6  1  0  0  0  0
  6  2  1  0  0  0  0
  6 18  1  1  0  0  0
  7  8  1  1  0  0  0
  7  4  1  0  0  0  0
  8  9  1  6  0  0  0
  8 13  1  0  0  0  0
 10 11  2  0  0  0  0
 11  8  1  0  0  0  0
 12 10  1  0  0  0  0
 14 13  1  0  0  0  0
 14 15  1  0  0  0  0
 15 16  1  6  0  0  0
 15 17  1  0  0  0  0
 18 19  2  0  0  0  0
 20 26  2  0  0  0  0
 21 19  1  1  0  0  0
 21 24  1  0  0  0  0
 22 25  1  1  0  0  0
 23 20  1  0  0  0  0
 23 21  1  0  0  0  0
 24 22  1  0  0  0  0
 26 22  1  0  0  0  0
 28 27  1  0  0  0  0
M  END
>  <MODEL>
7

>  <REMARK>
 VINA RESULT:      -6.4      4.689      8.571
  Name = 
  8 active torsions:
  status: ('A' for Active; 'I' for Inactive)
    1  A    between atoms: C_1  and  C_3
    2  A    between atoms: C_1  and  C_11
    3  A    between atoms: C_1  and  C_27
    4  A    between atoms: C_6  and  C_8
    5  A    between atoms: C_8  and  C_11
    6  A    between atoms: C_9  and  C_18
    7  A    between atoms: C_14  and  C_25
    8  A    between atoms: C_16  and  C_21
                            x       y       z     vdW  Elec       q    Type
                         _______ _______ _______ _____ _____    ______ ____

>  <TORSDO>
F 8

$$$$
=
 OpenBabel10262420563D

 28 29  0  0  1  0  0  0  0  0999 V2000
  188.1860  178.8460  141.7740 O   0  0  0  0  0  1  0  0  0  0  0  0
  188.8210  175.9720  142.3690 C   0  0  0  0  0  2  0  0  0  0  0  0
  190.4790  178.4260  142.3710 C   0  0  2  0  0  3  0  0  0  0  0  0
  190.3160  175.8590  142.1090 C   0  0  0  0  0  2  0  0  0  0  0  0
  189.0110  178.4380  142.8240 C   0  0  2  0  0  3  0  0  0  0  0  0
  188.5690  177.0800  143.3820 C   0  0  1  0  0  3  0  0  0  0  0  0
  190.9030  177.1740  141.5650 C   0  0  1  0  0  3  0  0  0  0  0  0
  190.8460  177.3220  140.0190 C   0  0  1  0  0  0  0  0  0  0  0  0
  192.1840  177.8000  139.4810 C   0  0  0  0  0  1  0  0  0  0  0  0
  191.0940  175.6390  138.1830 C   0  0  0  0  0  3  0  0  0  0  0  0
  190.5500  176.0040  139.3450 C   0  0  0  0  0  3  0  0  0  0  0  0
  190.7510  174.3210  137.5820 C   0  0  0  0  0  1  0  0  0  0  0  0
  189.8070  178.3730  139.6000 C   0  0  0  0  0  2  0  0  0  0  0  0
  188.8480  177.8890  138.5120 C   0  0  0  0  0  2  0  0  0  0  0  0
  188.9430  178.7540  137.2650 C   0  0  1  0  0  3  0  0  0  0  0  0
  189.4230  178.0160  136.1980 F   0  0  0  0  0  0  0  0  0  0  0  0
  187.6940  179.2890  136.9480 O   0  0  0  0  0  1  0  0  0  0  0  0
  187.1290  177.1090  143.8060 C   0  0  0  0  0  3  0  0  0  0  0  0
  186.7240  177.5520  145.0040 C   0  0  0  0  0  3  0  0  0  0  0  0
  187.9890  178.4730  148.4740 C   0  0  0  0  0  3  0  0  0  0  0  0
  187.6600  178.0810  146.0470 C   0  0  1  0  0  3  0  0  0  0  0  0
  189.4810  176.8420  147.4130 C   0  0  1  0  0  3  0  0  0  0  0  0
  186.9820  178.1060  147.4240 C   0  0  0  0  0  2  0  0  0  0  0  0
  188.9750  177.2740  146.0260 C   0  0  0  0  0  2  0  0  0  0  0  0
  190.9670  176.5620  147.3600 C   0  0  0  0  0  1  0  0  0  0  0  0
  189.1850  177.8750  148.4640 C   0  0  0  0  0  3  0  0  0  0  0  0
  190.9460  179.7090  144.3610 O   0  0  0  0  0  1  0  0  0  0  0  0
  191.4330  178.6950  143.5330 C   0  0  0  0  0  2  0  0  0  0  0  0
  2  6  1  0  0  0  0
  3  5  1  0  0  0  0
  3 28  1  1  0  0  0
  4  2  1  0  0  0  0
  5  1  1  6  0  0  0
  5  6  1  0  0  0  0
  6 18  1  6  0  0  0
  7  8  1  6  0  0  0
  7  4  1  0  0  0  0
  7  3  1  0  0  0  0
  8  9  1  6  0  0  0
 10 11  2  0  0  0  0
 11  8  1  0  0  0  0
 12 10  1  0  0  0  0
 13  8  1  0  0  0  0
 14 13  1  0  0  0  0
 15 16  1  6  0  0  0
 15 14  1  0  0  0  0
 17 15  1  0  0  0  0
 18 19  2  0  0  0  0
 21 19  1  6  0  0  0
 21 23  1  0  0  0  0
 22 25  1  6  0  0  0
 22 26  1  0  0  0  0
 23 20  1  0  0  0  0
 24 21  1  0  0  0  0
 24 22  1  0  0  0  0
 26 20  2  0  0  0  0
 28 27  1  0  0  0  0
M  END
>  <MODEL>
8

>  <REMARK>
 VINA RESULT:      -6.4      2.901      7.694
  Name = 
  8 active torsions:
  status: ('A' for Active; 'I' for Inactive)
    1  A    between atoms: C_1  and  C_3
    2  A    between atoms: C_1  and  C_11
    3  A    between atoms: C_1  and  C_27
    4  A    between atoms: C_6  and  C_8
    5  A    between atoms: C_8  and  C_11
    6  A    between atoms: C_9  and  C_18
    7  A    between atoms: C_14  and  C_25
    8  A    between atoms: C_16  and  C_21
                            x       y       z     vdW  Elec       q    Type
                         _______ _______ _______ _____ _____    ______ ____

>  <TORSDO>
F 8

$$$$
=
 OpenBabel10262420563D

 28 29  0  0  1  0  0  0  0  0999 V2000
  181.0820  180.0780  139.5940 O   0  0  0  0  0  1  0  0  0  0  0  0
  181.2390  177.2900  140.7000 C   0  0  0  0  0  2  0  0  0  0  0  0
  182.8610  178.7350  138.6860 C   0  0  2  0  0  3  0  0  0  0  0  0
  181.9550  176.4990  139.6150 C   0  0  0  0  0  2  0  0  0  0  0  0
  182.2820  179.4420  139.9210 C   0  0  2  0  0  3  0  0  0  0  0  0
  182.0980  178.4820  141.1020 C   0  0  1  0  0  3  0  0  0  0  0  0
  182.2290  177.3580  138.3680 C   0  0  1  0  0  3  0  0  0  0  0  0
  181.0800  177.3740  137.3210 C   0  0  1  0  0  0  0  0  0  0  0  0
  179.7340  177.5020  138.0120 C   0  0  0  0  0  1  0  0  0  0  0  0
  180.2480  179.4700  136.2340 C   0  0  0  0  0  3  0  0  0  0  0  0
  181.2030  178.5480  136.3800 C   0  0  0  0  0  3  0  0  0  0  0  0
  180.4440  180.5990  135.2850 C   0  0  0  0  0  1  0  0  0  0  0  0
  181.0380  176.0620  136.5250 C   0  0  0  0  0  2  0  0  0  0  0  0
  182.4190  175.5470  136.1170 C   0  0  0  0  0  2  0  0  0  0  0  0
  182.6770  174.1550  136.6750 C   0  0  1  0  0  3  0  0  0  0  0  0
  183.8060  174.1560  137.4750 F   0  0  0  0  0  0  0  0  0  0  0  0
  181.5760  173.7130  137.4090 O   0  0  0  0  0  1  0  0  0  0  0  0
  181.5190  179.1890  142.2930 C   0  0  0  0  0  3  0  0  0  0  0  0
  182.0810  179.1610  143.5090 C   0  0  0  0  0  3  0  0  0  0  0  0
  185.7700  178.2530  143.2810 C   0  0  0  0  0  3  0  0  0  0  0  0
  183.3550  178.4350  143.8130 C   0  0  1  0  0  3  0  0  0  0  0  0
  185.1980  178.9890  145.5480 C   0  0  1  0  0  3  0  0  0  0  0  0
  184.4690  178.8620  142.8470 C   0  0  0  0  0  2  0  0  0  0  0  0
  183.7240  178.6280  145.2990 C   0  0  0  0  0  2  0  0  0  0  0  0
  185.5880  178.6320  146.9660 C   0  0  0  0  0  1  0  0  0  0  0  0
  186.1140  178.3070  144.5720 C   0  0  0  0  0  3  0  0  0  0  0  0
  184.9230  179.7530  139.4140 O   0  0  0  0  0  1  0  0  0  0  0  0
  184.3850  178.6540  138.7410 C   0  0  0  0  0  2  0  0  0  0  0  0
  2  6  1  0  0  0  0
  3 28  1  1  0  0  0
  3  5  1  0  0  0  0
  4  2  1  0  0  0  0
  5  1  1  6  0  0  0
  5  6  1  0  0  0  0
  6 18  1  1  0  0  0
  7  8  1  1  0  0  0
  7  3  1  0  0  0  0
  7  4  1  0  0  0  0
  8  9  1  1  0  0  0
 10 11  2  0  0  0  0
 11  8  1  0  0  0  0
 12 10  1  0  0  0  0
 13  8  1  0  0  0  0
 14 13  1  0  0  0  0
 14 15  1  0  0  0  0
 15 17  1  1  0  0  0
 15 16  1  0  0  0  0
 18 19  2  0  0  0  0
 20 26  2  0  0  0  0
 21 19  1  6  0  0  0
 21 24  1  0  0  0  0
 22 25  1  1  0  0  0
 23 20  1  0  0  0  0
 23 21  1  0  0  0  0
 24 22  1  0  0  0  0
 26 22  1  0  0  0  0
 28 27  1  0  0  0  0
M  END
>  <MODEL>
9

>  <REMARK>
 VINA RESULT:      -6.4      5.375      9.860
  Name = 
  8 active torsions:
  status: ('A' for Active; 'I' for Inactive)
    1  A    between atoms: C_1  and  C_3
    2  A    between atoms: C_1  and  C_11
    3  A    between atoms: C_1  and  C_27
    4  A    between atoms: C_6  and  C_8
    5  A    between atoms: C_8  and  C_11
    6  A    between atoms: C_9  and  C_18
    7  A    between atoms: C_14  and  C_25
    8  A    between atoms: C_16  and  C_21
                            x       y       z     vdW  Elec       q    Type
                         _______ _______ _______ _____ _____    ______ ____

>  <TORSDO>
F 8

$$$$
