=
 OpenBabel10262420043D

 27 31  0  0  1  0  0  0  0  0999 V2000
  184.8760  179.6060  139.9000 N   0  0  0  0  0  2  0  0  0  0  0  0
  184.5820  178.8870  142.2800 C   0  0  0  0  0  0  0  0  0  0  0  0
  186.9310  178.2830  141.4740 N   0  0  0  0  0  0  0  0  0  0  0  0
  185.8400  178.0620  146.2160 C   0  0  0  0  0  3  0  0  0  0  0  0
  187.5330  177.3600  147.7370 F   0  0  0  0  0  0  0  0  0  0  0  0
  183.7240  179.0500  143.3750 C   0  0  0  0  0  3  0  0  0  0  0  0
  187.6350  177.7190  144.1000 C   0  0  0  0  0  3  0  0  0  0  0  0
  188.1110  178.0870  138.0260 C   0  0  0  0  0  0  0  0  0  0  0  0
  188.0370  177.4500  145.4110 C   0  0  0  0  0  3  0  0  0  0  0  0
  189.2490  177.9040  137.3760 C   0  0  0  0  0  2  0  0  0  0  0  0
  186.3290  178.1620  143.8280 C   0  0  0  0  0  0  0  0  0  0  0  0
  183.9470  179.2080  140.9500 C   0  0  2  0  0  3  0  0  0  0  0  0
  187.1410  177.6210  146.4670 C   0  0  0  0  0  0  0  0  0  0  0  0
  185.4310  178.3330  144.9070 C   0  0  0  0  0  0  0  0  0  0  0  0
  185.5810  178.4290  139.4340 C   0  0  1  0  0  3  0  0  0  0  0  0
  185.9200  178.4340  142.4990 C   0  0  0  0  0  0  0  0  0  0  0  0
  188.0930  178.0940  139.4510 N   0  0  0  0  0  2  0  0  0  0  0  0
  184.1370  178.7770  144.6730 C   0  0  0  0  0  3  0  0  0  0  0  0
  186.8720  178.3230  137.2880 C   0  0  0  0  0  3  0  0  0  0  0  0
  185.7180  178.4910  137.9330 C   0  0  0  0  0  3  0  0  0  0  0  0
  186.8770  178.2930  140.1770 C   0  0  0  0  0  0  0  0  0  0  0  0
  180.9140  176.4940  139.6140 C   0  0  0  0  0  3  0  0  0  0  0  0
  182.8970  178.2270  140.4940 C   0  0  0  0  0  0  0  0  0  0  0  0
  183.2240  176.9080  140.1510 C   0  0  0  0  0  3  0  0  0  0  0  0
  182.2290  176.0350  139.7110 C   0  0  0  0  0  3  0  0  0  0  0  0
  180.6140  177.7800  139.9440 N   0  0  0  0  0  0  0  0  0  0  0  0
  181.5700  178.6460  140.3750 C   0  0  0  0  0  3  0  0  0  0  0  0
  1 12  1  0  0  0  0
  2 16  2  0  0  0  0
  2  6  1  0  0  0  0
  3 16  1  0  0  0  0
  4 13  1  0  0  0  0
  6 18  2  0  0  0  0
  7  9  1  0  0  0  0
  8 17  1  0  0  0  0
  9 13  2  0  0  0  0
 10  8  2  0  0  0  0
 11  7  2  0  0  0  0
 11 14  1  0  0  0  0
 12 23  1  6  0  0  0
 12  2  1  0  0  0  0
 13  5  1  0  0  0  0
 14  4  2  0  0  0  0
 15 20  1  6  0  0  0
 15  1  1  0  0  0  0
 15 21  1  0  0  0  0
 16 11  1  0  0  0  0
 17 21  1  0  0  0  0
 18 14  1  0  0  0  0
 19 20  2  0  0  0  0
 19  8  1  0  0  0  0
 21  3  2  0  0  0  0
 22 25  2  0  0  0  0
 22 26  1  0  0  0  0
 24 23  2  0  0  0  0
 25 24  1  0  0  0  0
 26 27  2  0  0  0  0
 27 23  1  0  0  0  0
M  END
>  <MODEL>
1

>  <REMARK>
 VINA RESULT:      -9.8      0.000      0.000
  Name = 
  1 active torsions:
  status: ('A' for Active; 'I' for Inactive)
    1  A    between atoms: C_9  and  C_15
                            x       y       z     vdW  Elec       q    Type
                         _______ _______ _______ _____ _____    ______ ____

>  <TORSDO>
F 1

$$$$
=
 OpenBabel10262420043D

 27 31  0  0  1  0  0  0  0  0999 V2000
  184.5500  179.4950  139.1070 N   0  0  0  0  0  2  0  0  0  0  0  0
  183.6770  178.9660  141.3940 C   0  0  0  0  0  0  0  0  0  0  0  0
  186.2070  178.6030  141.3230 N   0  0  0  0  0  0  0  0  0  0  0  0
  183.8640  178.6790  145.5930 C   0  0  0  0  0  3  0  0  0  0  0  0
  185.1280  178.3480  147.5850 F   0  0  0  0  0  0  0  0  0  0  0  0
  182.5360  179.1140  142.1920 C   0  0  0  0  0  3  0  0  0  0  0  0
  186.2030  178.3810  144.0910 C   0  0  0  0  0  3  0  0  0  0  0  0
  188.3150  178.2470  138.3660 C   0  0  0  0  0  0  0  0  0  0  0  0
  186.2490  178.2890  145.4850 C   0  0  0  0  0  3  0  0  0  0  0  0
  189.6020  178.1550  138.0700 C   0  0  0  0  0  2  0  0  0  0  0  0
  184.9880  178.6220  143.4280 C   0  0  0  0  0  0  0  0  0  0  0  0
  183.4100  179.0770  139.9130 C   0  0  2  0  0  3  0  0  0  0  0  0
  185.0810  178.4370  146.2350 C   0  0  0  0  0  0  0  0  0  0  0  0
  183.8110  178.7720  144.1990 C   0  0  0  0  0  0  0  0  0  0  0  0
  185.4710  178.3820  138.9960 C   0  0  1  0  0  3  0  0  0  0  0  0
  184.9400  178.7140  142.0160 C   0  0  0  0  0  0  0  0  0  0  0  0
  187.9000  178.3820  139.7230 N   0  0  0  0  0  2  0  0  0  0  0  0
  182.5970  179.0190  143.5760 C   0  0  0  0  0  3  0  0  0  0  0  0
  187.3140  178.2490  137.3010 C   0  0  0  0  0  3  0  0  0  0  0  0
  186.0150  178.3230  137.5900 C   0  0  0  0  0  3  0  0  0  0  0  0
  186.5150  178.4860  140.0680 C   0  0  0  0  0  0  0  0  0  0  0  0
  181.2100  175.8570  138.1410 C   0  0  0  0  0  3  0  0  0  0  0  0
  182.6330  177.9290  139.3200 C   0  0  0  0  0  0  0  0  0  0  0  0
  182.7240  176.6320  139.8440 C   0  0  0  0  0  3  0  0  0  0  0  0
  182.0080  175.5900  139.2550 C   0  0  0  0  0  3  0  0  0  0  0  0
  181.1380  177.1200  137.6400 N   0  0  0  0  0  0  0  0  0  0  0  0
  181.8280  178.1490  138.2000 C   0  0  0  0  0  3  0  0  0  0  0  0
  1 12  1  0  0  0  0
  2 16  2  0  0  0  0
  2  6  1  0  0  0  0
  3 16  1  0  0  0  0
  4 13  1  0  0  0  0
  6 18  2  0  0  0  0
  7  9  1  0  0  0  0
  8 17  1  0  0  0  0
  9 13  2  0  0  0  0
 10  8  2  0  0  0  0
 11  7  2  0  0  0  0
 11 14  1  0  0  0  0
 12 23  1  6  0  0  0
 12  2  1  0  0  0  0
 13  5  1  0  0  0  0
 14  4  2  0  0  0  0
 15 20  1  6  0  0  0
 15  1  1  0  0  0  0
 15 21  1  0  0  0  0
 16 11  1  0  0  0  0
 17 21  1  0  0  0  0
 18 14  1  0  0  0  0
 19 20  2  0  0  0  0
 19  8  1  0  0  0  0
 21  3  2  0  0  0  0
 22 25  1  0  0  0  0
 23 24  1  0  0  0  0
 25 24  2  0  0  0  0
 26 22  2  0  0  0  0
 26 27  1  0  0  0  0
 27 23  2  0  0  0  0
M  END
>  <MODEL>
2

>  <REMARK>
 VINA RESULT:      -9.5      1.164      1.471
  Name = 
  1 active torsions:
  status: ('A' for Active; 'I' for Inactive)
    1  A    between atoms: C_9  and  C_15
                            x       y       z     vdW  Elec       q    Type
                         _______ _______ _______ _____ _____    ______ ____

>  <TORSDO>
F 1

$$$$
=
 OpenBabel10262420043D

 27 31  0  0  1  0  0  0  0  0999 V2000
  189.8040  178.6490  144.7170 N   0  0  0  0  0  2  0  0  0  0  0  0
  190.6530  177.8050  142.5170 C   0  0  0  0  0  0  0  0  0  0  0  0
  188.0990  177.9100  142.4810 N   0  0  0  0  0  0  0  0  0  0  0  0
  190.5800  177.2490  138.3410 C   0  0  0  0  0  3  0  0  0  0  0  0
  189.3540  177.0060  136.3130 F   0  0  0  0  0  0  0  0  0  0  0  0
  191.8320  177.6870  141.7710 C   0  0  0  0  0  3  0  0  0  0  0  0
  188.1690  177.4880  139.7370 C   0  0  0  0  0  3  0  0  0  0  0  0
  185.8490  178.1570  145.3430 C   0  0  0  0  0  0  0  0  0  0  0  0
  188.1610  177.3040  138.3520 C   0  0  0  0  0  3  0  0  0  0  0  0
  184.5560  178.3210  145.5770 C   0  0  0  0  0  1  0  0  0  0  0  0
  189.3820  177.5540  140.4450 C   0  0  0  0  0  0  0  0  0  0  0  0
  190.8790  177.9750  143.9990 C   0  0  2  0  0  3  0  0  0  0  0  0
  189.3640  177.1840  137.6550 C   0  0  0  0  0  0  0  0  0  0  0  0
  190.5950  177.4340  139.7270 C   0  0  0  0  0  0  0  0  0  0  0  0
  188.6910  177.7320  144.8530 C   0  0  1  0  0  3  0  0  0  0  0  0
  189.3900  177.7400  141.8490 C   0  0  0  0  0  0  0  0  0  0  0  0
  186.3340  178.1160  144.0030 N   0  0  0  0  0  0  0  0  0  0  0  0
  191.8090  177.5030  140.3940 C   0  0  0  0  0  3  0  0  0  0  0  0
  186.7910  178.0570  146.4550 C   0  0  0  0  0  3  0  0  0  0  0  0
  188.0910  177.8750  146.2290 C   0  0  0  0  0  3  0  0  0  0  0  0
  187.7260  177.9430  143.7240 C   0  0  0  0  0  0  0  0  0  0  0  0
  192.4310  174.4770  145.9230 C   0  0  0  0  0  3  0  0  0  0  0  0
  191.4080  176.7530  144.7050 C   0  0  0  0  0  0  0  0  0  0  0  0
  191.6680  176.7540  146.0820 C   0  0  0  0  0  3  0  0  0  0  0  0
  192.1800  175.6120  146.6970 C   0  0  0  0  0  3  0  0  0  0  0  0
  192.1790  174.4930  144.5860 N   0  0  0  0  0  0  0  0  0  0  0  0
  191.6810  175.5970  143.9680 C   0  0  0  0  0  3  0  0  0  0  0  0
  1 15  1  0  0  0  0
  2 12  1  0  0  0  0
  3 21  2  0  0  0  0
  4 14  1  0  0  0  0
  5 13  1  0  0  0  0
  6  2  2  0  0  0  0
  7 11  1  0  0  0  0
  8 10  1  0  0  0  0
  8 19  1  0  0  0  0
  9  7  2  0  0  0  0
 11 16  2  0  0  0  0
 12 23  1  1  0  0  0
 12  1  1  0  0  0  0
 13  4  2  0  0  0  0
 13  9  1  0  0  0  0
 14 18  2  0  0  0  0
 14 11  1  0  0  0  0
 15 20  1  1  0  0  0
 16  3  1  0  0  0  0
 16  2  1  0  0  0  0
 17  8  2  0  0  0  0
 18  6  1  0  0  0  0
 20 19  2  0  0  0  0
 21 17  1  0  0  0  0
 21 15  1  0  0  0  0
 22 25  1  0  0  0  0
 23 24  1  0  0  0  0
 24 25  2  0  0  0  0
 26 22  2  0  0  0  0
 27 26  1  0  0  0  0
 27 23  2  0  0  0  0
M  END
>  <MODEL>
3

>  <REMARK>
 VINA RESULT:      -8.9      4.160      8.507
  Name = 
  1 active torsions:
  status: ('A' for Active; 'I' for Inactive)
    1  A    between atoms: C_9  and  C_15
                            x       y       z     vdW  Elec       q    Type
                         _______ _______ _______ _____ _____    ______ ____

>  <TORSDO>
F 1

$$$$
=
 OpenBabel10262420043D

 27 31  0  0  1  0  0  0  0  0999 V2000
  186.1090  179.2600  139.5030 N   0  0  0  0  0  2  0  0  0  0  0  0
  185.2130  178.8660  141.8080 C   0  0  0  0  0  0  0  0  0  0  0  0
  187.5960  177.9560  141.6340 N   0  0  0  0  0  0  0  0  0  0  0  0
  185.4650  178.4140  145.9900 C   0  0  0  0  0  3  0  0  0  0  0  0
  186.6860  177.7510  147.9240 F   0  0  0  0  0  0  0  0  0  0  0  0
  184.1590  179.2380  142.6520 C   0  0  0  0  0  3  0  0  0  0  0  0
  187.6300  177.6540  144.3940 C   0  0  0  0  0  3  0  0  0  0  0  0
  189.4780  177.2350  138.5910 C   0  0  0  0  0  0  0  0  0  0  0  0
  187.6990  177.5110  145.7820 C   0  0  0  0  0  3  0  0  0  0  0  0
  190.7020  176.8710  138.2450 C   0  0  0  0  0  2  0  0  0  0  0  0
  186.4780  178.1780  143.7830 C   0  0  0  0  0  0  0  0  0  0  0  0
  184.9300  179.0790  140.3410 C   0  0  2  0  0  3  0  0  0  0  0  0
  186.6170  177.8900  146.5790 C   0  0  0  0  0  0  0  0  0  0  0  0
  185.3900  178.5600  144.6020 C   0  0  0  0  0  0  0  0  0  0  0  0
  186.7560  177.9760  139.3310 C   0  0  1  0  0  3  0  0  0  0  0  0
  186.4080  178.3220  142.3760 C   0  0  0  0  0  0  0  0  0  0  0  0
  189.1460  177.4170  139.9660 N   0  0  0  0  0  2  0  0  0  0  0  0
  184.2410  179.0880  144.0310 C   0  0  0  0  0  3  0  0  0  0  0  0
  188.4690  177.4910  137.5650 C   0  0  0  0  0  3  0  0  0  0  0  0
  187.2290  177.8410  137.9050 C   0  0  0  0  0  3  0  0  0  0  0  0
  187.8310  177.8120  140.3650 C   0  0  0  0  0  0  0  0  0  0  0  0
  182.0450  176.4500  138.5790 C   0  0  0  0  0  3  0  0  0  0  0  0
  183.9000  178.1500  139.7520 C   0  0  0  0  0  0  0  0  0  0  0  0
  183.3410  177.1050  140.4990 C   0  0  0  0  0  3  0  0  0  0  0  0
  182.4070  176.2500  139.9120 C   0  0  0  0  0  3  0  0  0  0  0  0
  182.6030  177.4650  137.8640 N   0  0  0  0  0  0  0  0  0  0  0  0
  183.5150  178.3080  138.4180 C   0  0  0  0  0  3  0  0  0  0  0  0
  1 12  1  0  0  0  0
  2 16  2  0  0  0  0
  2  6  1  0  0  0  0
  3 16  1  0  0  0  0
  4 13  1  0  0  0  0
  6 18  2  0  0  0  0
  7  9  1  0  0  0  0
  8 17  1  0  0  0  0
  9 13  2  0  0  0  0
 10  8  2  0  0  0  0
 11  7  2  0  0  0  0
 11 14  1  0  0  0  0
 12 23  1  6  0  0  0
 12  2  1  0  0  0  0
 13  5  1  0  0  0  0
 14  4  2  0  0  0  0
 15 20  1  6  0  0  0
 15  1  1  0  0  0  0
 15 21  1  0  0  0  0
 16 11  1  0  0  0  0
 17 21  1  0  0  0  0
 18 14  1  0  0  0  0
 19 20  2  0  0  0  0
 19  8  1  0  0  0  0
 21  3  2  0  0  0  0
 22 25  1  0  0  0  0
 23 24  1  0  0  0  0
 25 24  2  0  0  0  0
 26 27  1  0  0  0  0
 26 22  2  0  0  0  0
 27 23  2  0  0  0  0
M  END
>  <MODEL>
4

>  <REMARK>
 VINA RESULT:      -8.3      1.143      1.302
  Name = 
  1 active torsions:
  status: ('A' for Active; 'I' for Inactive)
    1  A    between atoms: C_9  and  C_15
                            x       y       z     vdW  Elec       q    Type
                         _______ _______ _______ _____ _____    ______ ____

>  <TORSDO>
F 1

$$$$
=
 OpenBabel10262420043D

 27 31  0  0  1  0  0  0  0  0999 V2000
  189.1190  176.4380  141.6570 N   0  0  0  0  0  2  0  0  0  0  0  0
  187.5230  177.3060  143.3800 C   0  0  0  0  0  0  0  0  0  0  0  0
  186.8180  178.1110  141.0590 N   0  0  0  0  0  0  0  0  0  0  0  0
  183.7820  178.5820  144.8390 C   0  0  0  0  0  3  0  0  0  0  0  0
  181.6580  179.5940  144.4670 F   0  0  0  0  0  0  0  0  0  0  0  0
  187.1600  177.1340  144.7220 C   0  0  0  0  0  3  0  0  0  0  0  0
  184.4050  178.9600  142.1400 C   0  0  0  0  0  3  0  0  0  0  0  0
  188.8390  178.1660  138.0210 C   0  0  0  0  0  0  0  0  0  0  0  0
  183.1680  179.3780  142.6390 C   0  0  0  0  0  3  0  0  0  0  0  0
  188.6860  178.4270  136.7330 C   0  0  0  0  0  2  0  0  0  0  0  0
  185.3480  178.3490  142.9830 C   0  0  0  0  0  0  0  0  0  0  0  0
  188.9090  176.8090  143.0510 C   0  0  2  0  0  3  0  0  0  0  0  0
  182.8570  179.1890  143.9860 C   0  0  0  0  0  0  0  0  0  0  0  0
  185.0210  178.1620  144.3470 C   0  0  0  0  0  0  0  0  0  0  0  0
  189.2160  177.6480  140.8660 C   0  0  1  0  0  3  0  0  0  0  0  0
  186.6030  177.9270  142.4790 C   0  0  0  0  0  0  0  0  0  0  0  0
  187.7290  178.2710  138.9100 N   0  0  0  0  0  2  0  0  0  0  0  0
  185.9270  177.5550  145.2040 C   0  0  0  0  0  3  0  0  0  0  0  0
  190.1360  177.7310  138.5350 C   0  0  0  0  0  3  0  0  0  0  0  0
  190.3040  177.4830  139.8330 C   0  0  0  0  0  3  0  0  0  0  0  0
  187.8680  177.9920  140.3060 C   0  0  0  0  0  0  0  0  0  0  0  0
  192.1600  179.0430  144.7180 C   0  0  0  0  0  3  0  0  0  0  0  0
  190.0320  177.6220  143.6400 C   0  0  0  0  0  0  0  0  0  0  0  0
  190.1300  179.0040  143.4260 C   0  0  0  0  0  3  0  0  0  0  0  0
  191.1970  179.7200  143.9680 C   0  0  0  0  0  3  0  0  0  0  0  0
  192.0550  177.7010  144.9110 N   0  0  0  0  0  0  0  0  0  0  0  0
  191.0230  176.9840  144.3910 C   0  0  0  0  0  3  0  0  0  0  0  0
  1 12  1  0  0  0  0
  2  6  1  0  0  0  0
  3 16  1  0  0  0  0
  6 18  2  0  0  0  0
  7  9  2  0  0  0  0
  7 11  1  0  0  0  0
  8 19  1  0  0  0  0
  8 17  1  0  0  0  0
  9 13  1  0  0  0  0
 10  8  2  0  0  0  0
 11 14  2  0  0  0  0
 12  2  1  0  0  0  0
 12 23  1  6  0  0  0
 13  5  1  0  0  0  0
 13  4  2  0  0  0  0
 14  4  1  0  0  0  0
 14 18  1  0  0  0  0
 15 20  1  6  0  0  0
 15  1  1  0  0  0  0
 16 11  1  0  0  0  0
 16  2  2  0  0  0  0
 17 21  1  0  0  0  0
 19 20  2  0  0  0  0
 21 15  1  0  0  0  0
 21  3  2  0  0  0  0
 22 26  1  0  0  0  0
 23 27  1  0  0  0  0
 24 23  2  0  0  0  0
 24 25  1  0  0  0  0
 25 22  2  0  0  0  0
 27 26  2  0  0  0  0
M  END
>  <MODEL>
5

>  <REMARK>
 VINA RESULT:      -8.2      2.702      5.945
  Name = 
  1 active torsions:
  status: ('A' for Active; 'I' for Inactive)
    1  A    between atoms: C_9  and  C_15
                            x       y       z     vdW  Elec       q    Type
                         _______ _______ _______ _____ _____    ______ ____

>  <TORSDO>
F 1

$$$$
=
 OpenBabel10262420043D

 27 31  0  0  1  0  0  0  0  0999 V2000
  189.8000  178.0750  137.5000 N   0  0  0  0  0  2  0  0  0  0  0  0
  188.6180  177.8540  139.6970 C   0  0  0  0  0  0  0  0  0  0  0  0
  190.8910  176.6920  139.8130 N   0  0  0  0  0  0  0  0  0  0  0  0
  188.3550  177.5190  143.8890 C   0  0  0  0  0  3  0  0  0  0  0  0
  189.2760  176.7950  145.9620 F   0  0  0  0  0  0  0  0  0  0  0  0
  187.5240  178.3640  140.4070 C   0  0  0  0  0  3  0  0  0  0  0  0
  190.5880  176.4810  142.5650 C   0  0  0  0  0  3  0  0  0  0  0  0
  193.0080  175.6760  137.0190 C   0  0  0  0  0  0  0  0  0  0  0  0
  190.4870  176.3780  143.9550 C   0  0  0  0  0  3  0  0  0  0  0  0
  194.2160  175.1730  136.8220 C   0  0  0  0  0  2  0  0  0  0  0  0
  189.5740  177.1030  141.8170 C   0  0  0  0  0  0  0  0  0  0  0  0
  188.5230  178.0470  138.2030 C   0  0  2  0  0  3  0  0  0  0  0  0
  189.3720  176.8950  144.6160 C   0  0  0  0  0  0  0  0  0  0  0  0
  188.4500  177.6260  142.4980 C   0  0  0  0  0  0  0  0  0  0  0  0
  190.3180  176.7240  137.4300 C   0  0  1  0  0  3  0  0  0  0  0  0
  189.6760  177.2070  140.4080 C   0  0  0  0  0  0  0  0  0  0  0  0
  192.5490  175.9370  138.3430 N   0  0  0  0  0  2  0  0  0  0  0  0
  187.4360  178.2530  141.7890 C   0  0  0  0  0  3  0  0  0  0  0  0
  192.1530  176.0030  135.8810 C   0  0  0  0  0  3  0  0  0  0  0  0
  190.9280  176.4930  136.0700 C   0  0  0  0  0  3  0  0  0  0  0  0
  191.2480  176.4830  138.5820 C   0  0  0  0  0  0  0  0  0  0  0  0
  185.5220  175.7450  136.1930 C   0  0  0  0  0  3  0  0  0  0  0  0
  187.4700  177.2130  137.5200 C   0  0  0  0  0  0  0  0  0  0  0  0
  187.4790  175.8140  137.5930 C   0  0  0  0  0  3  0  0  0  0  0  0
  186.5010  175.0740  136.9300 C   0  0  0  0  0  3  0  0  0  0  0  0
  185.5310  177.1040  136.1260 N   0  0  0  0  0  0  0  0  0  0  0  0
  186.4760  177.8430  136.7660 C   0  0  0  0  0  3  0  0  0  0  0  0
  1 12  1  0  0  0  0
  2  6  2  0  0  0  0
  2 16  1  0  0  0  0
  3 16  1  0  0  0  0
  4 13  2  0  0  0  0
  6 18  1  0  0  0  0
  7  9  2  0  0  0  0
  8 17  1  0  0  0  0
  9 13  1  0  0  0  0
 10  8  2  0  0  0  0
 11 14  1  0  0  0  0
 11  7  1  0  0  0  0
 12 23  1  6  0  0  0
 12  2  1  0  0  0  0
 13  5  1  0  0  0  0
 14  4  1  0  0  0  0
 15 20  1  6  0  0  0
 15  1  1  0  0  0  0
 15 21  1  0  0  0  0
 16 11  2  0  0  0  0
 17 21  1  0  0  0  0
 18 14  2  0  0  0  0
 19 20  2  0  0  0  0
 19  8  1  0  0  0  0
 21  3  2  0  0  0  0
 22 25  1  0  0  0  0
 23 24  1  0  0  0  0
 25 24  2  0  0  0  0
 26 22  2  0  0  0  0
 26 27  1  0  0  0  0
 27 23  2  0  0  0  0
M  END
>  <MODEL>
6

>  <REMARK>
 VINA RESULT:      -8.0      3.539      4.936
  Name = 
  1 active torsions:
  status: ('A' for Active; 'I' for Inactive)
    1  A    between atoms: C_9  and  C_15
                            x       y       z     vdW  Elec       q    Type
                         _______ _______ _______ _____ _____    ______ ____

>  <TORSDO>
F 1

$$$$
=
 OpenBabel10262420043D

 27 31  0  0  1  0  0  0  0  0999 V2000
  187.1240  178.7590  137.9210 N   0  0  0  0  0  2  0  0  0  0  0  0
  185.1390  178.6030  139.4390 C   0  0  0  0  0  0  0  0  0  0  0  0
  187.2870  178.2460  140.7780 N   0  0  0  0  0  0  0  0  0  0  0  0
  183.0630  179.0010  143.0840 C   0  0  0  0  0  3  0  0  0  0  0  0
  183.0580  179.0030  145.4660 F   0  0  0  0  0  0  0  0  0  0  0  0
  183.7650  178.8740  139.4760 C   0  0  0  0  0  3  0  0  0  0  0  0
  185.8090  178.4750  143.1180 C   0  0  0  0  0  3  0  0  0  0  0  0
  190.5980  177.4260  139.4820 C   0  0  0  0  0  0  0  0  0  0  0  0
  185.1070  178.6100  144.3180 C   0  0  0  0  0  3  0  0  0  0  0  0
  191.8350  177.2940  139.9330 C   0  0  0  0  0  2  0  0  0  0  0  0
  185.1490  178.6000  141.8830 C   0  0  0  0  0  0  0  0  0  0  0  0
  185.7010  178.4720  138.0450 C   0  0  2  0  0  3  0  0  0  0  0  0
  183.7360  178.8720  144.3020 C   0  0  0  0  0  0  0  0  0  0  0  0
  183.7600  178.8670  141.8790 C   0  0  0  0  0  0  0  0  0  0  0  0
  187.8710  177.6480  138.4740 C   0  0  1  0  0  3  0  0  0  0  0  0
  185.8600  178.4610  140.6660 C   0  0  0  0  0  0  0  0  0  0  0  0
  189.5440  177.7770  140.3740 N   0  0  0  0  0  2  0  0  0  0  0  0
  183.0800  179.0040  140.6780 C   0  0  0  0  0  3  0  0  0  0  0  0
  190.3120  177.2510  138.0600 C   0  0  0  0  0  3  0  0  0  0  0  0
  189.0670  177.3640  137.5990 C   0  0  0  0  0  3  0  0  0  0  0  0
  188.1990  177.9290  139.9110 C   0  0  0  0  0  0  0  0  0  0  0  0
  184.5310  174.9770  135.8620 C   0  0  0  0  0  3  0  0  0  0  0  0
  185.2610  177.2390  137.2970 C   0  0  0  0  0  0  0  0  0  0  0  0
  184.5470  176.2120  137.9280 C   0  0  0  0  0  3  0  0  0  0  0  0
  184.1760  175.0760  137.2090 C   0  0  0  0  0  3  0  0  0  0  0  0
  185.2310  175.9790  135.2650 N   0  0  0  0  0  0  0  0  0  0  0  0
  185.6010  177.0950  135.9490 C   0  0  0  0  0  3  0  0  0  0  0  0
  1 12  1  0  0  0  0
  1 15  1  0  0  0  0
  2  6  2  0  0  0  0
  2 16  1  0  0  0  0
  4 13  2  0  0  0  0
  6 18  1  0  0  0  0
  7  9  2  0  0  0  0
  8 10  2  0  0  0  0
  8 17  1  0  0  0  0
 11  7  1  0  0  0  0
 12 23  1  1  0  0  0
 12  2  1  0  0  0  0
 13  9  1  0  0  0  0
 13  5  1  0  0  0  0
 14 11  1  0  0  0  0
 14  4  1  0  0  0  0
 15 20  1  6  0  0  0
 15 21  1  0  0  0  0
 16  3  1  0  0  0  0
 16 11  2  0  0  0  0
 18 14  2  0  0  0  0
 19  8  1  0  0  0  0
 20 19  2  0  0  0  0
 21 17  1  0  0  0  0
 21  3  2  0  0  0  0
 22 25  1  0  0  0  0
 23 24  1  0  0  0  0
 25 24  2  0  0  0  0
 26 22  2  0  0  0  0
 26 27  1  0  0  0  0
 27 23  2  0  0  0  0
M  END
>  <MODEL>
7

>  <REMARK>
 VINA RESULT:      -7.9      2.372      3.720
  Name = 
  1 active torsions:
  status: ('A' for Active; 'I' for Inactive)
    1  A    between atoms: C_9  and  C_15
                            x       y       z     vdW  Elec       q    Type
                         _______ _______ _______ _____ _____    ______ ____

>  <TORSDO>
F 1

$$$$
=
 OpenBabel10262420043D

 27 31  0  0  1  0  0  0  0  0999 V2000
  188.9760  178.6800  140.2430 N   0  0  0  0  0  2  0  0  0  0  0  0
  189.2210  178.1710  142.6820 C   0  0  0  0  0  0  0  0  0  0  0  0
  190.4450  176.4040  141.2990 N   0  0  0  0  0  0  0  0  0  0  0  0
  191.1710  176.6820  146.1080 C   0  0  0  0  0  3  0  0  0  0  0  0
  192.6630  175.1250  147.1200 F   0  0  0  0  0  0  0  0  0  0  0  0
  189.0290  178.7450  143.9450 C   0  0  0  0  0  3  0  0  0  0  0  0
  191.6340  175.4740  143.6300 C   0  0  0  0  0  3  0  0  0  0  0  0
  190.0330  175.6940  137.7440 C   0  0  0  0  0  0  0  0  0  0  0  0
  192.2740  174.9910  144.7750 C   0  0  0  0  0  3  0  0  0  0  0  0
  190.5910  174.9360  136.8120 C   0  0  0  0  0  2  0  0  0  0  0  0
  190.7530  176.5650  143.7070 C   0  0  0  0  0  0  0  0  0  0  0  0
  188.4210  178.8240  141.5830 C   0  0  2  0  0  3  0  0  0  0  0  0
  192.0420  175.5930  146.0120 C   0  0  0  0  0  0  0  0  0  0  0  0
  190.5280  177.1690  144.9660 C   0  0  0  0  0  0  0  0  0  0  0  0
  188.7460  177.3230  139.7910 C   0  0  1  0  0  3  0  0  0  0  0  0
  190.1040  177.0540  142.5470 C   0  0  0  0  0  0  0  0  0  0  0  0
  190.5310  175.6680  139.0790 N   0  0  0  0  0  2  0  0  0  0  0  0
  189.6700  178.2540  145.0750 C   0  0  0  0  0  3  0  0  0  0  0  0
  188.9310  176.5890  137.4000 C   0  0  0  0  0  3  0  0  0  0  0  0
  188.3510  177.3420  138.3350 C   0  0  0  0  0  3  0  0  0  0  0  0
  189.9470  176.4790  140.1030 C   0  0  0  0  0  0  0  0  0  0  0  0
  184.1940  178.1450  141.6900 C   0  0  0  0  0  3  0  0  0  0  0  0
  186.9340  178.5900  141.6540 C   0  0  0  0  0  0  0  0  0  0  0  0
  186.3340  178.0180  142.7840 C   0  0  0  0  0  3  0  0  0  0  0  0
  184.9570  177.7950  142.8050 C   0  0  0  0  0  3  0  0  0  0  0  0
  184.7920  178.6930  140.5980 N   0  0  0  0  0  0  0  0  0  0  0  0
  186.1330  178.9180  140.5580 C   0  0  0  0  0  3  0  0  0  0  0  0
  1 12  1  0  0  0  0
  2  6  1  0  0  0  0
  3 16  1  0  0  0  0
  6 18  2  0  0  0  0
  7 11  2  0  0  0  0
  7  9  1  0  0  0  0
  8 17  1  0  0  0  0
  9 13  2  0  0  0  0
 10  8  2  0  0  0  0
 11 14  1  0  0  0  0
 12 23  1  6  0  0  0
 12  2  1  0  0  0  0
 13  4  1  0  0  0  0
 13  5  1  0  0  0  0
 14 18  1  0  0  0  0
 14  4  2  0  0  0  0
 15 20  1  6  0  0  0
 15 21  1  0  0  0  0
 15  1  1  0  0  0  0
 16  2  2  0  0  0  0
 16 11  1  0  0  0  0
 17 21  1  0  0  0  0
 19  8  1  0  0  0  0
 19 20  2  0  0  0  0
 21  3  2  0  0  0  0
 22 25  1  0  0  0  0
 23 24  1  0  0  0  0
 24 25  2  0  0  0  0
 26 22  2  0  0  0  0
 27 26  1  0  0  0  0
 27 23  2  0  0  0  0
M  END
>  <MODEL>
8

>  <REMARK>
 VINA RESULT:      -7.8      2.821      4.415
  Name = 
  1 active torsions:
  status: ('A' for Active; 'I' for Inactive)
    1  A    between atoms: C_9  and  C_15
                            x       y       z     vdW  Elec       q    Type
                         _______ _______ _______ _____ _____    ______ ____

>  <TORSDO>
F 1

$$$$
=
 OpenBabel10262420043D

 27 31  0  0  1  0  0  0  0  0999 V2000
  188.3100  178.7520  138.7590 N   0  0  0  0  0  2  0  0  0  0  0  0
  185.8790  178.5780  139.3370 C   0  0  0  0  0  0  0  0  0  0  0  0
  187.2980  178.2250  141.4330 N   0  0  0  0  0  0  0  0  0  0  0  0
  182.4960  178.9470  141.8210 C   0  0  0  0  0  3  0  0  0  0  0  0
  181.5210  178.9360  143.9940 F   0  0  0  0  0  0  0  0  0  0  0  0
  184.6080  178.8410  138.8120 C   0  0  0  0  0  3  0  0  0  0  0  0
  184.9930  178.4340  142.9690 C   0  0  0  0  0  3  0  0  0  0  0  0
  190.8550  177.4280  141.5960 C   0  0  0  0  0  0  0  0  0  0  0  0
  183.8620  178.5590  143.7800 C   0  0  0  0  0  3  0  0  0  0  0  0
  191.8020  177.3000  142.5120 C   0  0  0  0  0  1  0  0  0  0  0  0
  184.8930  178.5620  141.5730 C   0  0  0  0  0  0  0  0  0  0  0  0
  186.9610  178.4570  138.2920 C   0  0  2  0  0  3  0  0  0  0  0  0
  182.6150  178.8140  143.2070 C   0  0  0  0  0  0  0  0  0  0  0  0
  183.6240  178.8220  141.0040 C   0  0  0  0  0  0  0  0  0  0  0  0
  188.7740  177.6420  139.5660 C   0  0  1  0  0  3  0  0  0  0  0  0
  186.0390  178.4330  140.7500 C   0  0  0  0  0  0  0  0  0  0  0  0
  189.5270  177.7700  141.9830 N   0  0  0  0  0  0  0  0  0  0  0  0
  183.4920  178.9620  139.6310 C   0  0  0  0  0  3  0  0  0  0  0  0
  191.1740  177.2590  140.1800 C   0  0  0  0  0  3  0  0  0  0  0  0
  190.2240  177.3690  139.2520 C   0  0  0  0  0  3  0  0  0  0  0  0
  188.4860  177.9170  141.0120 C   0  0  0  0  0  0  0  0  0  0  0  0
  186.8060  174.9640  135.8170 C   0  0  0  0  0  3  0  0  0  0  0  0
  186.8730  177.2260  137.4260 C   0  0  0  0  0  0  0  0  0  0  0  0
  185.9240  176.2240  137.6690 C   0  0  0  0  0  3  0  0  0  0  0  0
  185.8870  175.0880  136.8600 C   0  0  0  0  0  3  0  0  0  0  0  0
  187.7260  175.9430  135.5990 N   0  0  0  0  0  0  0  0  0  0  0  0
  187.7780  177.0580  136.3760 C   0  0  0  0  0  3  0  0  0  0  0  0
  1 15  1  0  0  0  0
  2 16  1  0  0  0  0
  4 13  2  0  0  0  0
  6  2  2  0  0  0  0
  6 18  1  0  0  0  0
  7  9  2  0  0  0  0
  8 17  2  0  0  0  0
  8 10  1  0  0  0  0
 11  7  1  0  0  0  0
 12 23  1  1  0  0  0
 12  1  1  0  0  0  0
 12  2  1  0  0  0  0
 13  9  1  0  0  0  0
 13  5  1  0  0  0  0
 14 11  1  0  0  0  0
 14  4  1  0  0  0  0
 15 20  1  1  0  0  0
 15 21  1  0  0  0  0
 16  3  1  0  0  0  0
 16 11  2  0  0  0  0
 18 14  2  0  0  0  0
 19  8  1  0  0  0  0
 20 19  2  0  0  0  0
 21  3  2  0  0  0  0
 21 17  1  0  0  0  0
 22 25  1  0  0  0  0
 23 24  1  0  0  0  0
 25 24  2  0  0  0  0
 26 22  2  0  0  0  0
 26 27  1  0  0  0  0
 27 23  2  0  0  0  0
M  END
>  <MODEL>
9

>  <REMARK>
 VINA RESULT:      -7.8      2.817      4.855
  Name = 
  1 active torsions:
  status: ('A' for Active; 'I' for Inactive)
    1  A    between atoms: C_9  and  C_15
                            x       y       z     vdW  Elec       q    Type
                         _______ _______ _______ _____ _____    ______ ____

>  <TORSDO>
F 1

$$$$
