=
 OpenBabel10252414573D

 34 38  0  0  1  0  0  0  0  0999 V2000
  182.2610  174.3010  137.6350 C   0  0  0  0  0  0  0  0  0  0  0  0
  184.2510  175.4290  136.5340 C   0  0  0  0  0  0  0  0  0  0  0  0
  180.7810  182.2070  138.4260 S   0  0  0  0  0  1  0  0  0  0  0  0
  183.1550  176.4770  138.4500 C   0  0  0  0  0  0  0  0  0  0  0  0
  184.0970  178.5510  140.7080 C   0  0  0  0  0  2  0  0  0  0  0  0
  179.7860  175.2330  137.2070 Cl  0  0  0  0  0  0  0  0  0  0  0  0
  179.4750  179.6570  139.9900 C   0  0  0  0  0  0  0  0  0  0  0  0
  179.4970  180.4510  141.1420 C   0  0  0  0  0  3  0  0  0  0  0  0
  184.4100  174.3530  135.5140 C   0  0  0  0  0  1  0  0  0  0  0  0
  184.9880  177.5450  137.3360 N   0  0  0  0  0  0  0  0  0  0  0  0
  179.4040  181.0690  136.5490 F   0  0  0  0  0  0  0  0  0  0  0  0
  181.1090  178.1570  140.9820 C   0  0  0  0  0  0  0  0  0  0  0  0
  182.4440  179.9400  137.6060 O   0  0  0  0  0  0  0  0  0  0  0  0
  180.0300  180.6950  137.7250 C   0  0  2  0  0  0  0  0  0  0  0  0
  183.2510  175.4040  137.5290 C   0  0  0  0  0  0  0  0  0  0  0  0
  180.2950  180.0740  142.2320 C   0  0  0  0  0  3  0  0  0  0  0  0
  182.7130  179.6510  138.9500 C   0  0  0  0  0  2  0  0  0  0  0  0
  183.9850  178.8330  139.1890 C   0  0  1  0  0  0  0  0  0  0  0  0
  182.4690  173.1730  137.1140 O   0  0  0  0  0  0  0  0  0  0  0  0
  182.1310  176.4060  139.5290 C   0  0  0  0  0  0  0  0  0  0  0  0
  180.2220  178.4880  139.9560 C   0  0  0  0  0  3  0  0  0  0  0  0
  180.9690  174.5450  138.3460 C   0  0  2  0  0  3  0  0  0  0  0  0
  185.1090  176.5180  136.4640 C   0  0  0  0  0  3  0  0  0  0  0  0
  183.4270  177.4240  141.2550 O   0  0  0  0  0  0  0  0  0  0  0  0
  181.1320  178.9530  142.1360 C   0  0  0  0  0  3  0  0  0  0  0  0
  182.2130  177.2860  140.6550 N   0  0  0  0  0  0  0  0  0  0  0  0
  185.0610  179.6640  138.8650 O   0  0  0  0  0  1  0  0  0  0  0  0
  178.9310  180.1750  138.6890 C   0  0  0  0  0  2  0  0  0  0  0  0
  184.0520  177.5750  138.3260 C   0  0  0  0  0  0  0  0  0  0  0  0
  181.1560  175.4870  139.4950 C   0  0  0  0  0  3  0  0  0  0  0  0
  181.0930  179.5810  137.4290 C   0  0  1  0  0  3  0  0  0  0  0  0
  180.8710  178.7840  136.1420 C   0  0  0  0  0  2  0  0  0  0  0  0
  182.1500  178.6220  135.3320 C   0  0  0  0  0  2  0  0  0  0  0  0
  182.1470  177.3940  134.6720 O   0  0  0  0  0  1  0  0  0  0  0  0
  1 22  1  0  0  0  0
  2 15  1  0  0  0  0
  4 20  1  0  0  0  0
  5 24  1  0  0  0  0
  7  8  1  0  0  0  0
  8 16  2  0  0  0  0
  9  2  1  0  0  0  0
 10 29  2  0  0  0  0
 12 25  2  0  0  0  0
 13 17  1  0  0  0  0
 14 11  1  6  0  0  0
 14  3  1  0  0  0  0
 14 28  1  0  0  0  0
 15  1  1  0  0  0  0
 15  4  2  0  0  0  0
 17 18  1  0  0  0  0
 18 27  1  6  0  0  0
 18  5  1  0  0  0  0
 19  1  2  0  0  0  0
 20 26  1  0  0  0  0
 21  7  2  0  0  0  0
 21 12  1  0  0  0  0
 22  6  1  6  0  0  0
 22 30  1  0  0  0  0
 23  2  2  0  0  0  0
 23 10  1  0  0  0  0
 25 16  1  0  0  0  0
 26 12  1  0  0  0  0
 26 24  1  0  0  0  0
 28  7  1  0  0  0  0
 29  4  1  0  0  0  0
 29 18  1  0  0  0  0
 30 20  2  0  0  0  0
 31 32  1  6  0  0  0
 31 13  1  0  0  0  0
 31 14  1  0  0  0  0
 33 32  1  0  0  0  0
 34 33  1  0  0  0  0
M  END
>  <MODEL>
1

>  <REMARK>
 VINA RESULT:      -4.8      0.000      0.000
  Name = 
  2 active torsions:
  status: ('A' for Active; 'I' for Inactive)
    1  A    between atoms: C_20  and  C_22
    2  A    between atoms: C_20  and  C_34
                            x       y       z     vdW  Elec       q    Type
                         _______ _______ _______ _____ _____    ______ ____

>  <TORSDO>
F 2

$$$$
=
 OpenBabel10252414573D

 34 38  0  0  1  0  0  0  0  0999 V2000
  180.3250  179.0720  142.7150 C   0  0  0  0  0  0  0  0  0  0  0  0
  182.8060  178.7480  143.1470 C   0  0  0  0  0  0  0  0  0  0  0  0
  183.1860  175.9960  135.8100 S   0  0  0  0  0  1  0  0  0  0  0  0
  182.0190  179.3300  140.9080 C   0  0  0  0  0  0  0  0  0  0  0  0
  183.3470  180.7870  138.3780 C   0  0  0  0  0  2  0  0  0  0  0  0
  178.9310  177.1780  141.4320 Cl  0  0  0  0  0  0  0  0  0  0  0  0
  180.3810  177.5520  136.4150 C   0  0  0  0  0  0  0  0  0  0  0  0
  180.5460  178.1720  135.1720 C   0  0  0  0  0  3  0  0  0  0  0  0
  182.6040  178.4280  144.5900 C   0  0  0  0  0  1  0  0  0  0  0  0
  184.3440  178.9420  141.3410 N   0  0  0  0  0  0  0  0  0  0  0  0
  181.9170  174.2750  137.2740 F   0  0  0  0  0  0  0  0  0  0  0  0
  180.6540  179.6950  137.5280 C   0  0  0  0  0  0  0  0  0  0  0  0
  183.5090  177.0140  138.5370 O   0  0  0  0  0  0  0  0  0  0  0  0
  181.9360  175.6480  137.0990 C   0  0  2  0  0  0  0  0  0  0  0  0
  181.7440  179.0550  142.2710 C   0  0  0  0  0  0  0  0  0  0  0  0
  180.7240  179.5610  135.1040 C   0  0  0  0  0  3  0  0  0  0  0  0
  183.2450  178.3130  138.0840 C   0  0  0  0  0  2  0  0  0  0  0  0
  183.7760  179.4280  138.9870 C   0  0  1  0  0  0  0  0  0  0  0  0
  180.0140  179.1880  143.9300 O   0  0  0  0  0  0  0  0  0  0  0  0
  180.8920  179.7070  140.0110 C   0  0  0  0  0  0  0  0  0  0  0  0
  180.3650  178.3300  137.5650 C   0  0  0  0  0  3  0  0  0  0  0  0
  179.2400  178.9110  141.6990 C   0  0  2  0  0  3  0  0  0  0  0  0
  184.1010  178.7010  142.6500 C   0  0  0  0  0  3  0  0  0  0  0  0
  182.0680  181.3150  138.6960 O   0  0  0  0  0  0  0  0  0  0  0  0
  180.8210  180.3160  136.2820 C   0  0  0  0  0  3  0  0  0  0  0  0
  181.1580  180.3030  138.7370 N   0  0  0  0  0  0  0  0  0  0  0  0
  185.1700  179.3850  138.9010 O   0  0  0  0  0  1  0  0  0  0  0  0
  180.5350  176.0670  136.5800 C   0  0  0  0  0  2  0  0  0  0  0  0
  183.3630  179.2550  140.4480 C   0  0  0  0  0  0  0  0  0  0  0  0
  179.6190  179.5520  140.4000 C   0  0  0  0  0  3  0  0  0  0  0  0
  182.2680  176.3510  138.4590 C   0  0  1  0  0  3  0  0  0  0  0  0
  181.9730  175.5290  139.7160 C   0  0  0  0  0  2  0  0  0  0  0  0
  180.4810  175.3710  139.9680 C   0  0  0  0  0  2  0  0  0  0  0  0
  180.0960  174.0480  139.7490 O   0  0  0  0  0  1  0  0  0  0  0  0
  1 19  2  0  0  0  0
  2  9  1  0  0  0  0
  4 15  1  0  0  0  0
  5 24  1  0  0  0  0
  5 18  1  0  0  0  0
  7 28  1  0  0  0  0
  7 21  1  0  0  0  0
  8  7  2  0  0  0  0
 10 23  2  0  0  0  0
 12 21  2  0  0  0  0
 12 26  1  0  0  0  0
 14  3  1  6  0  0  0
 14 11  1  0  0  0  0
 14 31  1  0  0  0  0
 15  1  1  0  0  0  0
 15  2  2  0  0  0  0
 16  8  1  0  0  0  0
 16 25  2  0  0  0  0
 17 13  1  0  0  0  0
 17 18  1  0  0  0  0
 18 27  1  6  0  0  0
 18 29  1  0  0  0  0
 20 30  2  0  0  0  0
 20  4  1  0  0  0  0
 22  6  1  6  0  0  0
 22  1  1  0  0  0  0
 23  2  1  0  0  0  0
 24 26  1  0  0  0  0
 25 12  1  0  0  0  0
 26 20  1  0  0  0  0
 28 14  1  0  0  0  0
 29  4  2  0  0  0  0
 29 10  1  0  0  0  0
 30 22  1  0  0  0  0
 31 13  1  0  0  0  0
 31 32  1  1  0  0  0
 32 33  1  0  0  0  0
 34 33  1  0  0  0  0
M  END
>  <MODEL>
2

>  <REMARK>
 VINA RESULT:      -4.1      2.712      5.459
  Name = 
  2 active torsions:
  status: ('A' for Active; 'I' for Inactive)
    1  A    between atoms: C_20  and  C_22
    2  A    between atoms: C_20  and  C_34
                            x       y       z     vdW  Elec       q    Type
                         _______ _______ _______ _____ _____    ______ ____

>  <TORSDO>
F 2

$$$$
=
 OpenBabel10252414573D

 34 38  0  0  1  0  0  0  0  0999 V2000
  185.9970  175.7530  136.4210 C   0  0  0  0  0  0  0  0  0  0  0  0
  185.0200  173.5690  137.2700 C   0  0  0  0  0  0  0  0  0  0  0  0
  179.0890  177.9050  140.0250 S   0  0  0  0  0  1  0  0  0  0  0  0
  183.5390  175.3660  136.5280 C   0  0  0  0  0  0  0  0  0  0  0  0
  180.5440  175.4690  135.3860 C   0  0  0  0  0  2  0  0  0  0  0  0
  185.9370  177.9390  137.9680 Cl  0  0  0  0  0  0  0  0  0  0  0  0
  180.9530  179.5430  137.9040 C   0  0  0  0  0  0  0  0  0  0  0  0
  179.7620  180.0030  137.3310 C   0  0  0  0  0  3  0  0  0  0  0  0
  186.3590  172.9730  137.5430 C   0  0  0  0  0  1  0  0  0  0  0  0
  182.6570  173.3190  137.4070 N   0  0  0  0  0  0  0  0  0  0  0  0
  181.2040  178.4050  141.4360 F   0  0  0  0  0  0  0  0  0  0  0  0
  181.4630  178.3120  135.8710 C   0  0  0  0  0  0  0  0  0  0  0  0
  181.0380  175.9200  139.1060 O   0  0  0  0  0  0  0  0  0  0  0  0
  180.8850  178.2440  140.0990 C   0  0  2  0  0  0  0  0  0  0  0  0
  184.8480  174.8660  136.7400 C   0  0  0  0  0  0  0  0  0  0  0  0
  179.4410  179.6500  136.0130 C   0  0  0  0  0  3  0  0  0  0  0  0
  180.6540  176.1580  137.7790 C   0  0  0  0  0  2  0  0  0  0  0  0
  180.9720  175.0210  136.8050 C   0  0  1  0  0  0  0  0  0  0  0  0
  187.1570  175.2960  136.2430 O   0  0  0  0  0  0  0  0  0  0  0  0
  183.3770  176.7130  135.9160 C   0  0  0  0  0  0  0  0  0  0  0  0
  181.8170  178.7670  137.1430 C   0  0  0  0  0  3  0  0  0  0  0  0
  185.7780  177.2300  136.3420 C   0  0  2  0  0  3  0  0  0  0  0  0
  183.9000  172.8160  137.5940 C   0  0  0  0  0  3  0  0  0  0  0  0
  181.4510  176.2240  134.5950 O   0  0  0  0  0  0  0  0  0  0  0  0
  180.2690  178.7710  135.2990 C   0  0  0  0  0  3  0  0  0  0  0  0
  182.1080  177.1140  135.3880 N   0  0  0  0  0  0  0  0  0  0  0  0
  180.1350  173.9550  137.1470 O   0  0  0  0  0  1  0  0  0  0  0  0
  181.1810  179.5910  139.3870 C   0  0  0  0  0  2  0  0  0  0  0  0
  182.4260  174.5570  136.8890 C   0  0  0  0  0  0  0  0  0  0  0  0
  184.4200  177.5460  135.7950 C   0  0  0  0  0  3  0  0  0  0  0  0
  181.7390  177.0810  139.4860 C   0  0  1  0  0  3  0  0  0  0  0  0
  183.0370  176.7550  140.2280 C   0  0  0  0  0  2  0  0  0  0  0  0
  183.8060  178.0050  140.6290 C   0  0  0  0  0  2  0  0  0  0  0  0
  184.2730  177.8810  141.9380 O   0  0  0  0  0  1  0  0  0  0  0  0
  1 15  1  0  0  0  0
  2  9  1  0  0  0  0
  2 23  1  0  0  0  0
  4 15  1  0  0  0  0
  4 29  2  0  0  0  0
  5 18  1  0  0  0  0
  7 28  1  0  0  0  0
  8  7  1  0  0  0  0
 10 23  2  0  0  0  0
 12 21  1  0  0  0  0
 13 31  1  0  0  0  0
 14  3  1  6  0  0  0
 14 11  1  0  0  0  0
 15  2  2  0  0  0  0
 16  8  2  0  0  0  0
 17 13  1  0  0  0  0
 18 29  1  0  0  0  0
 18 27  1  1  0  0  0
 18 17  1  0  0  0  0
 19  1  2  0  0  0  0
 20  4  1  0  0  0  0
 21  7  2  0  0  0  0
 22  1  1  0  0  0  0
 22  6  1  1  0  0  0
 24  5  1  0  0  0  0
 24 26  1  0  0  0  0
 25 12  2  0  0  0  0
 25 16  1  0  0  0  0
 26 12  1  0  0  0  0
 26 20  1  0  0  0  0
 28 14  1  0  0  0  0
 29 10  1  0  0  0  0
 30 20  2  0  0  0  0
 30 22  1  0  0  0  0
 31 14  1  0  0  0  0
 31 32  1  1  0  0  0
 32 33  1  0  0  0  0
 33 34  1  0  0  0  0
M  END
>  <MODEL>
3

>  <REMARK>
 VINA RESULT:      -3.8      2.676      4.990
  Name = 
  2 active torsions:
  status: ('A' for Active; 'I' for Inactive)
    1  A    between atoms: C_20  and  C_22
    2  A    between atoms: C_20  and  C_34
                            x       y       z     vdW  Elec       q    Type
                         _______ _______ _______ _____ _____    ______ ____

>  <TORSDO>
F 2

$$$$
=
 OpenBabel10252414573D

 34 38  0  0  1  0  0  0  0  0999 V2000
  179.9810  179.1450  140.6870 C   0  0  0  0  0  0  0  0  0  0  0  0
  179.6290  180.6600  138.6810 C   0  0  0  0  0  0  0  0  0  0  0  0
  184.5760  175.8980  134.8830 S   0  0  0  0  0  1  0  0  0  0  0  0
  180.0150  178.2690  138.3560 C   0  0  0  0  0  0  0  0  0  0  0  0
  179.2700  176.1760  136.0440 C   0  0  0  0  0  2  0  0  0  0  0  0
  182.4390  178.2620  141.2840 Cl  0  0  0  0  0  0  0  0  0  0  0  0
  183.5080  174.6110  137.6860 C   0  0  0  0  0  0  0  0  0  0  0  0
  183.3280  173.4160  136.9800 C   0  0  0  0  0  3  0  0  0  0  0  0
  179.4740  181.8830  139.5190 C   0  0  0  0  0  1  0  0  0  0  0  0
  179.7540  179.7450  136.4870 N   0  0  0  0  0  0  0  0  0  0  0  0
  185.9140  177.2480  136.6440 F   0  0  0  0  0  0  0  0  0  0  0  0
  181.1060  174.7890  138.0100 C   0  0  0  0  0  0  0  0  0  0  0  0
  182.6470  177.8640  135.8830 O   0  0  0  0  0  0  0  0  0  0  0  0
  184.7100  176.5710  136.5780 C   0  0  2  0  0  0  0  0  0  0  0  0
  179.8600  179.3790  139.2240 C   0  0  0  0  0  0  0  0  0  0  0  0
  182.0400  172.8870  136.8230 C   0  0  0  0  0  3  0  0  0  0  0  0
  181.6620  176.8700  135.9380 C   0  0  0  0  0  2  0  0  0  0  0  0
  180.2230  177.3900  135.9130 C   0  0  1  0  0  0  0  0  0  0  0  0
  179.5240  179.9640  141.5280 O   0  0  0  0  0  0  0  0  0  0  0  0
  180.2020  176.9160  138.9490 C   0  0  0  0  0  0  0  0  0  0  0  0
  182.4060  175.2380  138.2510 C   0  0  0  0  0  3  0  0  0  0  0  0
  180.6940  177.9240  141.1750 C   0  0  2  0  0  3  0  0  0  0  0  0
  179.5800  180.8120  137.3020 C   0  0  0  0  0  3  0  0  0  0  0  0
  178.9350  175.6940  137.3370 O   0  0  0  0  0  0  0  0  0  0  0  0
  180.9260  173.5930  137.3010 C   0  0  0  0  0  3  0  0  0  0  0  0
  180.0350  175.7480  138.1380 N   0  0  0  0  0  0  0  0  0  0  0  0
  180.0100  177.9170  134.6370 O   0  0  0  0  0  1  0  0  0  0  0  0
  184.7840  175.3960  137.5900 C   0  0  0  0  0  2  0  0  0  0  0  0
  179.9690  178.4820  136.9500 C   0  0  0  0  0  0  0  0  0  0  0  0
  180.4700  176.7650  140.2530 C   0  0  0  0  0  3  0  0  0  0  0  0
  183.5340  177.5450  136.9300 C   0  0  1  0  0  3  0  0  0  0  0  0
  183.9210  178.7750  137.7540 C   0  0  0  0  0  2  0  0  0  0  0  0
  184.7650  178.4180  138.9690 C   0  0  0  0  0  2  0  0  0  0  0  0
  185.0430  179.5650  139.7120 O   0  0  0  0  0  1  0  0  0  0  0  0
  1 22  1  0  0  0  0
  1 19  2  0  0  0  0
  2 15  1  0  0  0  0
  2  9  1  0  0  0  0
  4 20  1  0  0  0  0
  4 15  2  0  0  0  0
  5 24  1  0  0  0  0
  7 21  1  0  0  0  0
  8  7  2  0  0  0  0
 10 29  2  0  0  0  0
 10 23  1  0  0  0  0
 12 26  1  0  0  0  0
 12 21  2  0  0  0  0
 13 17  1  0  0  0  0
 13 31  1  0  0  0  0
 14  3  1  6  0  0  0
 14 11  1  0  0  0  0
 14 31  1  0  0  0  0
 14 28  1  0  0  0  0
 15  1  1  0  0  0  0
 16  8  1  0  0  0  0
 16 25  2  0  0  0  0
 18 27  1  6  0  0  0
 18 17  1  0  0  0  0
 18  5  1  0  0  0  0
 18 29  1  0  0  0  0
 20 30  2  0  0  0  0
 22  6  1  6  0  0  0
 23  2  2  0  0  0  0
 24 26  1  0  0  0  0
 25 12  1  0  0  0  0
 26 20  1  0  0  0  0
 28  7  1  0  0  0  0
 29  4  1  0  0  0  0
 30 22  1  0  0  0  0
 31 32  1  6  0  0  0
 32 33  1  0  0  0  0
 33 34  1  0  0  0  0
M  END
>  <MODEL>
4

>  <REMARK>
 VINA RESULT:      -3.6      2.951      6.123
  Name = 
  2 active torsions:
  status: ('A' for Active; 'I' for Inactive)
    1  A    between atoms: C_20  and  C_22
    2  A    between atoms: C_20  and  C_34
                            x       y       z     vdW  Elec       q    Type
                         _______ _______ _______ _____ _____    ______ ____

>  <TORSDO>
F 2

$$$$
=
 OpenBabel10252414573D

 34 38  0  0  1  0  0  0  0  0999 V2000
  184.5020  178.7680  141.3190 C   0  0  0  0  0  0  0  0  0  0  0  0
  182.2880  178.9440  142.5480 C   0  0  0  0  0  0  0  0  0  0  0  0
  178.9310  178.5440  135.4670 S   0  0  0  0  0  1  0  0  0  0  0  0
  182.4470  177.6290  140.4940 C   0  0  0  0  0  0  0  0  0  0  0  0
  180.8000  175.1550  139.2880 C   0  0  0  0  0  2  0  0  0  0  0  0
  184.8960  180.1580  139.0620 Cl  0  0  0  0  0  0  0  0  0  0  0  0
  182.0790  177.6860  135.4060 C   0  0  0  0  0  0  0  0  0  0  0  0
  181.6920  176.6140  134.5940 C   0  0  0  0  0  3  0  0  0  0  0  0
  182.8470  179.8240  143.6140 C   0  0  0  0  0  1  0  0  0  0  0  0
  180.3590  177.8820  141.6430 N   0  0  0  0  0  0  0  0  0  0  0  0
  180.1200  180.8350  135.6900 F   0  0  0  0  0  0  0  0  0  0  0  0
  182.7200  176.1330  137.1620 C   0  0  0  0  0  0  0  0  0  0  0  0
  179.7520  178.6430  138.2770 O   0  0  0  0  0  0  0  0  0  0  0  0
  180.3930  179.5110  135.9870 C   0  0  2  0  0  0  0  0  0  0  0  0
  183.0600  178.4450  141.4780 C   0  0  0  0  0  0  0  0  0  0  0  0
  181.8570  175.2990  135.0500 C   0  0  0  0  0  3  0  0  0  0  0  0
  180.1770  177.3100  138.2000 C   0  0  0  0  0  2  0  0  0  0  0  0
  180.2580  176.5840  139.5440 C   0  0  1  0  0  0  0  0  0  0  0  0
  185.2000  179.1730  142.2860 O   0  0  0  0  0  0  0  0  0  0  0  0
  183.2900  177.0650  139.4040 C   0  0  0  0  0  0  0  0  0  0  0  0
  182.6530  177.4280  136.6430 C   0  0  0  0  0  3  0  0  0  0  0  0
  185.1340  178.6440  139.9690 C   0  0  2  0  0  3  0  0  0  0  0  0
  180.9340  178.6420  142.6030 C   0  0  0  0  0  3  0  0  0  0  0  0
  182.2040  174.9460  139.2380 O   0  0  0  0  0  0  0  0  0  0  0  0
  182.3300  175.0590  136.3480 C   0  0  0  0  0  3  0  0  0  0  0  0
  182.7940  175.9910  138.5960 N   0  0  0  0  0  0  0  0  0  0  0  0
  178.9450  176.4280  139.9950 O   0  0  0  0  0  1  0  0  0  0  0  0
  181.6160  179.0880  135.1310 C   0  0  0  0  0  2  0  0  0  0  0  0
  181.0530  177.3610  140.5920 C   0  0  0  0  0  0  0  0  0  0  0  0
  184.5380  177.5060  139.1990 C   0  0  0  0  0  3  0  0  0  0  0  0
  180.6960  179.3620  137.5170 C   0  0  1  0  0  3  0  0  0  0  0  0
  181.1550  180.6380  138.2260 C   0  0  0  0  0  2  0  0  0  0  0  0
  180.3870  180.8950  139.5140 C   0  0  0  0  0  2  0  0  0  0  0  0
  179.3710  181.8240  139.2890 O   0  0  0  0  0  1  0  0  0  0  0  0
  1 15  1  0  0  0  0
  1 19  2  0  0  0  0
  2 23  1  0  0  0  0
  2  9  1  0  0  0  0
  4 29  2  0  0  0  0
  4 15  1  0  0  0  0
  5 18  1  0  0  0  0
  7 21  1  0  0  0  0
  8 16  1  0  0  0  0
  8  7  2  0  0  0  0
 10 23  2  0  0  0  0
 11 14  1  0  0  0  0
 12 26  1  0  0  0  0
 14  3  1  6  0  0  0
 14 31  1  0  0  0  0
 15  2  2  0  0  0  0
 16 25  2  0  0  0  0
 17 13  1  0  0  0  0
 17 18  1  0  0  0  0
 18 27  1  1  0  0  0
 18 29  1  0  0  0  0
 20  4  1  0  0  0  0
 21 12  2  0  0  0  0
 22  6  1  6  0  0  0
 22  1  1  0  0  0  0
 24  5  1  0  0  0  0
 25 12  1  0  0  0  0
 26 24  1  0  0  0  0
 26 20  1  0  0  0  0
 28  7  1  0  0  0  0
 28 14  1  0  0  0  0
 29 10  1  0  0  0  0
 30 20  2  0  0  0  0
 30 22  1  0  0  0  0
 31 32  1  1  0  0  0
 31 13  1  0  0  0  0
 32 33  1  0  0  0  0
 34 33  1  0  0  0  0
M  END
>  <MODEL>
5

>  <REMARK>
 VINA RESULT:      -3.5      2.449      5.530
  Name = 
  2 active torsions:
  status: ('A' for Active; 'I' for Inactive)
    1  A    between atoms: C_20  and  C_22
    2  A    between atoms: C_20  and  C_34
                            x       y       z     vdW  Elec       q    Type
                         _______ _______ _______ _____ _____    ______ ____

>  <TORSDO>
F 2

$$$$
=
 OpenBabel10252414573D

 34 38  0  0  1  0  0  0  0  0999 V2000
  182.0690  175.7820  136.6220 C   0  0  0  0  0  0  0  0  0  0  0  0
  180.7510  177.7230  135.6530 C   0  0  0  0  0  0  0  0  0  0  0  0
  180.4310  180.4780  142.9930 S   0  0  0  0  0  1  0  0  0  0  0  0
  182.2330  178.0820  137.5630 C   0  0  0  0  0  0  0  0  0  0  0  0
  183.8050  180.6210  138.7300 C   0  0  0  0  0  2  0  0  0  0  0  0
  181.3000  174.6600  138.9300 Cl  0  0  0  0  0  0  0  0  0  0  0  0
  182.6350  178.0950  142.6490 C   0  0  0  0  0  0  0  0  0  0  0  0
  183.5010  178.8910  143.4070 C   0  0  0  0  0  3  0  0  0  0  0  0
  180.1010  176.8790  134.6100 C   0  0  0  0  0  1  0  0  0  0  0  0
  180.9140  179.8710  136.6670 N   0  0  0  0  0  0  0  0  0  0  0  0
  178.9310  178.3720  142.8340 F   0  0  0  0  0  0  0  0  0  0  0  0
  184.0820  178.3520  140.7130 C   0  0  0  0  0  0  0  0  0  0  0  0
  180.3760  179.8640  140.1290 O   0  0  0  0  0  0  0  0  0  0  0  0
  180.1850  178.7650  142.4020 C   0  0  2  0  0  0  0  0  0  0  0  0
  181.6740  177.2140  136.5900 C   0  0  0  0  0  0  0  0  0  0  0  0
  184.6790  179.3850  142.8290 C   0  0  0  0  0  3  0  0  0  0  0  0
  181.7550  180.1050  140.0510 C   0  0  0  0  0  2  0  0  0  0  0  0
  182.2680  180.4480  138.6510 C   0  0  1  0  0  0  0  0  0  0  0  0
  181.9130  175.0310  135.6220 O   0  0  0  0  0  0  0  0  0  0  0  0
  183.2480  177.5400  138.5070 C   0  0  0  0  0  0  0  0  0  0  0  0
  182.9740  177.7780  141.3410 C   0  0  0  0  0  3  0  0  0  0  0  0
  182.6320  175.2070  137.8820 C   0  0  2  0  0  3  0  0  0  0  0  0
  180.3900  179.0620  135.7170 C   0  0  0  0  0  3  0  0  0  0  0  0
  184.6380  179.4770  138.6130 O   0  0  0  0  0  0  0  0  0  0  0  0
  184.9480  179.1510  141.4730 C   0  0  0  0  0  3  0  0  0  0  0  0
  184.0650  178.4320  139.2720 N   0  0  0  0  0  0  0  0  0  0  0  0
  181.7490  181.7060  138.3310 O   0  0  0  0  0  1  0  0  0  0  0  0
  181.2220  177.8350  143.0860 C   0  0  0  0  0  2  0  0  0  0  0  0
  181.8180  179.4420  137.5920 C   0  0  0  0  0  0  0  0  0  0  0  0
  183.4550  176.2200  138.6150 C   0  0  0  0  0  3  0  0  0  0  0  0
  180.2680  178.6530  140.8410 C   0  0  1  0  0  3  0  0  0  0  0  0
  179.2680  177.6910  140.1950 C   0  0  0  0  0  2  0  0  0  0  0  0
  179.6760  176.2340  140.3590 C   0  0  0  0  0  2  0  0  0  0  0  0
  178.9440  175.6450  141.3900 O   0  0  0  0  0  1  0  0  0  0  0  0
  1 22  1  0  0  0  0
  2 23  2  0  0  0  0
  2 15  1  0  0  0  0
  4 29  1  0  0  0  0
  4 20  1  0  0  0  0
  7 28  1  0  0  0  0
  7  8  1  0  0  0  0
  9  2  1  0  0  0  0
 10 29  2  0  0  0  0
 12 21  1  0  0  0  0
 12 25  2  0  0  0  0
 13 31  1  0  0  0  0
 14 11  1  1  0  0  0
 14  3  1  0  0  0  0
 14 28  1  0  0  0  0
 15  1  1  0  0  0  0
 15  4  2  0  0  0  0
 16  8  2  0  0  0  0
 17 13  1  0  0  0  0
 18 27  1  6  0  0  0
 18  5  1  0  0  0  0
 18 17  1  0  0  0  0
 19  1  2  0  0  0  0
 20 30  2  0  0  0  0
 20 26  1  0  0  0  0
 21  7  2  0  0  0  0
 22 30  1  0  0  0  0
 22  6  1  1  0  0  0
 23 10  1  0  0  0  0
 24  5  1  0  0  0  0
 24 26  1  0  0  0  0
 25 16  1  0  0  0  0
 26 12  1  0  0  0  0
 29 18  1  0  0  0  0
 31 32  1  6  0  0  0
 31 14  1  0  0  0  0
 32 33  1  0  0  0  0
 33 34  1  0  0  0  0
M  END
>  <MODEL>
6

>  <REMARK>
 VINA RESULT:      -2.6      2.443      4.053
  Name = 
  2 active torsions:
  status: ('A' for Active; 'I' for Inactive)
    1  A    between atoms: C_20  and  C_22
    2  A    between atoms: C_20  and  C_34
                            x       y       z     vdW  Elec       q    Type
                         _______ _______ _______ _____ _____    ______ ____

>  <TORSDO>
F 2

$$$$
=
 OpenBabel10252414573D

 34 38  0  0  1  0  0  0  0  0999 V2000
  186.0950  178.2940  139.7950 C   0  0  0  0  0  0  0  0  0  0  0  0
  184.5230  178.9830  141.6660 C   0  0  0  0  0  0  0  0  0  0  0  0
  178.9310  179.2130  136.1670 S   0  0  0  0  0  1  0  0  0  0  0  0
  183.6950  177.6280  139.8090 C   0  0  0  0  0  0  0  0  0  0  0  0
  181.2670  175.5630  139.4520 C   0  0  0  0  0  2  0  0  0  0  0  0
  185.9640  179.5190  137.4160 Cl  0  0  0  0  0  0  0  0  0  0  0  0
  181.6210  177.6720  135.1470 C   0  0  0  0  0  0  0  0  0  0  0  0
  180.7690  176.7000  134.6130 C   0  0  0  0  0  3  0  0  0  0  0  0
  185.5810  179.7350  142.4000 C   0  0  0  0  0  1  0  0  0  0  0  0
  182.2270  178.3620  141.5540 N   0  0  0  0  0  0  0  0  0  0  0  0
  180.5650  181.1840  135.7680 F   0  0  0  0  0  0  0  0  0  0  0  0
  182.4960  176.0470  136.7290 C   0  0  0  0  0  0  0  0  0  0  0  0
  180.6690  179.1780  138.5240 O   0  0  0  0  0  0  0  0  0  0  0  0
  180.6460  179.8380  136.0800 C   0  0  2  0  0  0  0  0  0  0  0  0
  184.7610  178.3040  140.4530 C   0  0  0  0  0  0  0  0  0  0  0  0
  180.8090  175.3890  135.1100 C   0  0  0  0  0  3  0  0  0  0  0  0
  180.7610  177.7830  138.4360 C   0  0  0  0  0  2  0  0  0  0  0  0
  181.1490  177.0810  139.7390 C   0  0  1  0  0  0  0  0  0  0  0  0
  187.1490  178.5510  140.4340 O   0  0  0  0  0  0  0  0  0  0  0  0
  183.9780  176.8700  138.5590 C   0  0  0  0  0  0  0  0  0  0  0  0
  182.5200  177.3150  136.1430 C   0  0  0  0  0  3  0  0  0  0  0  0
  186.1850  178.0070  138.3310 C   0  0  2  0  0  3  0  0  0  0  0  0
  183.2390  178.9920  142.1950 C   0  0  0  0  0  3  0  0  0  0  0  0
  182.4940  175.0440  138.9600 O   0  0  0  0  0  0  0  0  0  0  0  0
  181.6400  175.0740  136.1950 C   0  0  0  0  0  3  0  0  0  0  0  0
  183.0280  175.9200  138.0650 N   0  0  0  0  0  0  0  0  0  0  0  0
  180.0680  177.2310  140.6120 O   0  0  0  0  0  1  0  0  0  0  0  0
  181.3880  179.1370  134.9110 C   0  0  0  0  0  2  0  0  0  0  0  0
  182.3960  177.6800  140.3870 C   0  0  0  0  0  0  0  0  0  0  0  0
  185.1420  177.0170  137.9110 C   0  0  0  0  0  3  0  0  0  0  0  0
  181.4200  179.6540  137.4310 C   0  0  1  0  0  3  0  0  0  0  0  0
  182.3450  180.8070  137.8240 C   0  0  0  0  0  2  0  0  0  0  0  0
  181.6530  181.8270  138.7190 C   0  0  0  0  0  2  0  0  0  0  0  0
  181.2470  182.9270  137.9650 O   0  0  0  0  0  1  0  0  0  0  0  0
  1 19  2  0  0  0  0
  1 15  1  0  0  0  0
  2 23  1  0  0  0  0
  2  9  1  0  0  0  0
  4 29  2  0  0  0  0
  4 15  1  0  0  0  0
  5 18  1  0  0  0  0
  7 21  1  0  0  0  0
  8 16  1  0  0  0  0
  8  7  2  0  0  0  0
 10 23  2  0  0  0  0
 12 26  1  0  0  0  0
 14 11  1  6  0  0  0
 14  3  1  0  0  0  0
 14 31  1  0  0  0  0
 15  2  2  0  0  0  0
 16 25  2  0  0  0  0
 17 13  1  0  0  0  0
 17 18  1  0  0  0  0
 18 29  1  0  0  0  0
 18 27  1  1  0  0  0
 20  4  1  0  0  0  0
 21 12  2  0  0  0  0
 22  6  1  6  0  0  0
 22  1  1  0  0  0  0
 24  5  1  0  0  0  0
 25 12  1  0  0  0  0
 26 20  1  0  0  0  0
 26 24  1  0  0  0  0
 28  7  1  0  0  0  0
 28 14  1  0  0  0  0
 29 10  1  0  0  0  0
 30 22  1  0  0  0  0
 30 20  2  0  0  0  0
 31 32  1  1  0  0  0
 31 13  1  0  0  0  0
 32 33  1  0  0  0  0
 34 33  1  0  0  0  0
M  END
>  <MODEL>
7

>  <REMARK>
 VINA RESULT:      -2.3      2.534      5.168
  Name = 
  2 active torsions:
  status: ('A' for Active; 'I' for Inactive)
    1  A    between atoms: C_20  and  C_22
    2  A    between atoms: C_20  and  C_34
                            x       y       z     vdW  Elec       q    Type
                         _______ _______ _______ _____ _____    ______ ____

>  <TORSDO>
F 2

$$$$
