=
 OpenBabel10262422533D

 37 42  0  0  1  0  0  0  0  0999 V2000
  184.3970  176.6140  137.7140 C   0  0  0  0  0  0  0  0  0  0  0  0
  185.9930  173.7240  137.0020 C   0  0  2  0  0  3  0  0  0  0  0  0
  181.1420  177.2110  136.7560 C   0  0  2  0  0  3  0  0  0  0  0  0
  185.2980  176.2800  136.5070 C   0  0  2  0  0  0  0  0  0  0  0  0
  182.0020  178.9400  138.3540 C   0  0  1  0  0  3  0  0  0  0  0  0
  181.8750  173.0890  135.7020 C   0  0  0  0  0  3  0  0  0  0  0  0
  183.7820  177.8260  139.8050 C   0  0  0  0  0  2  0  0  0  0  0  0
  184.5370  175.8460  135.4200 O   0  0  0  0  0  0  0  0  0  0  0  0
  186.3640  175.2230  136.8820 C   0  0  0  0  0  2  0  0  0  0  0  0
  182.4820  175.0290  137.0370 C   0  0  0  0  0  0  0  0  0  0  0  0
  180.7540  173.7570  135.2250 C   0  0  0  0  0  3  0  0  0  0  0  0
  185.5340  177.7850  134.7140 O   0  0  0  0  0  0  0  0  0  0  0  0
  183.3080  175.6480  138.1260 C   0  0  0  0  0  2  0  0  0  0  0  0
  185.1010  173.1980  135.8930 C   0  0  0  0  0  2  0  0  0  0  0  0
  186.0410  177.4870  135.9760 C   0  0  0  0  0  2  0  0  0  0  0  0
  180.5120  175.0720  135.6100 C   0  0  0  0  0  3  0  0  0  0  0  0
  184.9170  173.4180  138.0250 C   0  0  0  0  0  2  0  0  0  0  0  0
  182.8460  179.0250  139.6260 C   0  0  0  0  0  2  0  0  0  0  0  0
  181.3620  175.7300  136.5100 C   0  0  0  0  0  0  0  0  0  0  0  0
  184.6840  177.5990  138.6100 C   0  0  0  0  0  0  0  0  0  0  0  0
  182.7600  173.7020  136.5950 C   0  0  0  0  0  0  0  0  0  0  0  0
  181.2050  177.6360  138.2250 C   0  0  1  0  0  3  0  0  0  0  0  0
  184.0110  172.8990  136.9130 C   0  0  1  0  0  3  0  0  0  0  0  0
  184.4060  176.9690  134.5940 C   0  0  0  0  0  2  0  0  0  0  0  0
  179.9860  177.6970  136.1320 O   0  0  0  0  0  1  0  0  0  0  0  0
  180.5290  180.8530  139.1190 C   0  0  0  0  0  3  0  0  0  0  0  0
  181.2130  180.1890  138.0880 C   0  0  0  0  0  0  0  0  0  0  0  0
  181.1430  180.6850  136.7820 C   0  0  0  0  0  3  0  0  0  0  0  0
  180.3390  182.3150  135.2400 F   0  0  0  0  0  0  0  0  0  0  0  0
  179.7240  182.4980  137.5360 C   0  0  0  0  0  3  0  0  0  0  0  0
  180.4020  181.8380  136.5060 C   0  0  0  0  0  0  0  0  0  0  0  0
  179.7880  182.0050  138.8420 C   0  0  0  0  0  3  0  0  0  0  0  0
  186.9630  178.3020  139.2860 C   0  0  0  0  0  1  0  0  0  0  0  0
  185.8160  178.4080  138.4540 O   0  0  0  0  0  0  0  0  0  0  0  0
  179.8640  177.6270  138.9610 C   0  0  0  0  0  2  0  0  0  0  0  0
  179.8800  177.9140  141.5790 C   0  0  0  0  0  1  0  0  0  0  0  0
  179.9300  176.5270  140.4080 S   0  0  0  0  0  0  0  0  0  0  0  0
  1 13  1  0  0  0  0
  1 20  2  0  0  0  0
  2 14  1  6  0  0  0
  2 17  1  0  0  0  0
  3 25  1  1  0  0  0
  3 22  1  0  0  0  0
  4 15  1  6  0  0  0
  4  9  1  0  0  0  0
  4  1  1  0  0  0  0
  5 27  1  1  0  0  0
  5 18  1  0  0  0  0
  6 21  1  0  0  0  0
  8  4  1  0  0  0  0
  9  2  1  0  0  0  0
 10 13  1  0  0  0  0
 11 16  1  0  0  0  0
 11  6  2  0  0  0  0
 12 15  1  0  0  0  0
 16 19  2  0  0  0  0
 18  7  1  0  0  0  0
 19  3  1  0  0  0  0
 19 10  1  0  0  0  0
 20  7  1  0  0  0  0
 21 23  1  0  0  0  0
 21 10  2  0  0  0  0
 22  5  1  0  0  0  0
 22 35  1  6  0  0  0
 23 14  1  6  0  0  0
 23 17  1  0  0  0  0
 24 12  1  0  0  0  0
 24  8  1  0  0  0  0
 27 26  2  0  0  0  0
 28 27  1  0  0  0  0
 29 31  1  0  0  0  0
 30 32  2  0  0  0  0
 31 28  2  0  0  0  0
 31 30  1  0  0  0  0
 32 26  1  0  0  0  0
 34 20  1  0  0  0  0
 34 33  1  0  0  0  0
 35 37  1  0  0  0  0
 37 36  1  0  0  0  0
M  END
>  <MODEL>
1

>  <REMARK>
 VINA RESULT:      -5.0      0.000      0.000
  Name = 
  4 active torsions:
  status: ('A' for Active; 'I' for Inactive)
    1  A    between atoms: C_6  and  C_7
    2  A    between atoms: C_14  and  C_31
    3  A    between atoms: C_14  and  S_37
    4  A    between atoms: C_29  and  O_33
                            x       y       z     vdW  Elec       q    Type
                         _______ _______ _______ _____ _____    ______ ____

>  <TORSDO>
F 4

$$$$
=
 OpenBabel10262422533D

 37 42  0  0  1  0  0  0  0  0999 V2000
  182.0070  178.5890  138.8360 C   0  0  0  0  0  0  0  0  0  0  0  0
  180.5060  181.5870  139.2470 C   0  0  2  0  0  3  0  0  0  0  0  0
  181.3250  176.5350  136.1540 C   0  0  2  0  0  3  0  0  0  0  0  0
  180.7320  178.9310  139.6360 C   0  0  2  0  0  0  0  0  0  0  0  0
  183.3060  175.7550  137.4780 C   0  0  1  0  0  3  0  0  0  0  0  0
  179.1880  180.1950  135.3270 C   0  0  0  0  0  3  0  0  0  0  0  0
  184.3600  177.8110  138.5640 C   0  0  0  0  0  2  0  0  0  0  0  0
  179.5880  178.7350  138.8590 O   0  0  0  0  0  0  0  0  0  0  0  0
  180.7840  180.3780  140.1770 C   0  0  0  0  0  2  0  0  0  0  0  0
  180.9780  179.0620  136.5210 C   0  0  0  0  0  0  0  0  0  0  0  0
  178.9360  179.0410  134.5940 C   0  0  0  0  0  3  0  0  0  0  0  0
  179.4020  177.2350  140.5820 O   0  0  0  0  0  0  0  0  0  0  0  0
  182.1720  179.1180  137.4280 C   0  0  0  0  0  2  0  0  0  0  0  0
  179.3210  181.4160  138.3170 C   0  0  0  0  0  2  0  0  0  0  0  0
  180.5240  178.0210  140.8280 C   0  0  0  0  0  2  0  0  0  0  0  0
  179.6650  177.8830  134.8460 C   0  0  0  0  0  3  0  0  0  0  0  0
  181.4370  181.6950  138.0550 C   0  0  0  0  0  2  0  0  0  0  0  0
  184.5330  176.3390  138.1810 C   0  0  0  0  0  2  0  0  0  0  0  0
  180.6860  177.8670  135.8060 C   0  0  0  0  0  0  0  0  0  0  0  0
  183.1260  178.0610  139.4050 C   0  0  0  0  0  0  0  0  0  0  0  0
  180.1900  180.2300  136.3020 C   0  0  0  0  0  0  0  0  0  0  0  0
  182.8530  176.5610  136.2540 C   0  0  1  0  0  3  0  0  0  0  0  0
  180.2490  181.5130  137.1160 C   0  0  1  0  0  3  0  0  0  0  0  0
  179.0960  177.4810  139.2410 C   0  0  0  0  0  2  0  0  0  0  0  0
  180.8840  175.4920  135.3320 O   0  0  0  0  0  1  0  0  0  0  0  0
  184.6460  173.6460  137.0710 C   0  0  0  0  0  3  0  0  0  0  0  0
  183.4040  174.2750  137.2570 C   0  0  0  0  0  0  0  0  0  0  0  0
  182.2310  173.5130  137.2150 C   0  0  0  0  0  3  0  0  0  0  0  0
  181.1570  171.4010  136.9560 F   0  0  0  0  0  0  0  0  0  0  0  0
  183.5340  171.5110  136.8120 C   0  0  0  0  0  3  0  0  0  0  0  0
  182.2950  172.1340  136.9950 C   0  0  0  0  0  0  0  0  0  0  0  0
  184.7090  172.2670  136.8500 C   0  0  0  0  0  3  0  0  0  0  0  0
  184.1190  178.3100  141.6620 C   0  0  0  0  0  1  0  0  0  0  0  0
  183.1640  177.7530  140.7700 O   0  0  0  0  0  0  0  0  0  0  0  0
  183.5930  176.2300  134.9570 C   0  0  0  0  0  2  0  0  0  0  0  0
  186.2210  176.1680  134.8080 C   0  0  0  0  0  1  0  0  0  0  0  0
  184.9250  177.4300  134.6490 S   0  0  0  0  0  0  0  0  0  0  0  0
  1 20  2  0  0  0  0
  1  4  1  0  0  0  0
  2 17  1  6  0  0  0
  2  9  1  0  0  0  0
  3 25  1  6  0  0  0
  3 22  1  0  0  0  0
  4  9  1  1  0  0  0
  4 15  1  0  0  0  0
  5 27  1  6  0  0  0
  5 18  1  0  0  0  0
  6 21  1  0  0  0  0
  7 20  1  0  0  0  0
  8 24  1  0  0  0  0
  8  4  1  0  0  0  0
 10 13  1  0  0  0  0
 11 16  1  0  0  0  0
 11  6  2  0  0  0  0
 12 15  1  0  0  0  0
 13  1  1  0  0  0  0
 14  2  1  0  0  0  0
 16 19  2  0  0  0  0
 18  7  1  0  0  0  0
 19  3  1  0  0  0  0
 19 10  1  0  0  0  0
 20 34  1  0  0  0  0
 21 10  2  0  0  0  0
 21 23  1  0  0  0  0
 22 35  1  6  0  0  0
 22  5  1  0  0  0  0
 23 17  1  1  0  0  0
 23 14  1  0  0  0  0
 24 12  1  0  0  0  0
 26 27  1  0  0  0  0
 28 27  2  0  0  0  0
 29 31  1  0  0  0  0
 30 32  1  0  0  0  0
 30 31  2  0  0  0  0
 31 28  1  0  0  0  0
 32 26  2  0  0  0  0
 34 33  1  0  0  0  0
 37 36  1  0  0  0  0
 37 35  1  0  0  0  0
M  END
>  <MODEL>
2

>  <REMARK>
 VINA RESULT:      -4.4      2.833      6.964
  Name = 
  4 active torsions:
  status: ('A' for Active; 'I' for Inactive)
    1  A    between atoms: C_6  and  C_7
    2  A    between atoms: C_14  and  C_31
    3  A    between atoms: C_14  and  S_37
    4  A    between atoms: C_29  and  O_33
                            x       y       z     vdW  Elec       q    Type
                         _______ _______ _______ _____ _____    ______ ____

>  <TORSDO>
F 4

$$$$
=
 OpenBabel10262422533D

 37 42  0  0  1  0  0  0  0  0999 V2000
  182.0010  176.1990  136.2610 C   0  0  0  0  0  0  0  0  0  0  0  0
  179.0560  174.5480  136.2210 C   0  0  2  0  0  3  0  0  0  0  0  0
  184.9880  174.6320  136.9670 C   0  0  2  0  0  3  0  0  0  0  0  0
  180.9770  176.0220  137.4010 C   0  0  2  0  0  0  0  0  0  0  0  0
  185.3110  176.9610  136.1000 C   0  0  1  0  0  3  0  0  0  0  0  0
  182.0790  171.4480  136.7640 C   0  0  0  0  0  3  0  0  0  0  0  0
  183.3220  177.5010  134.5930 C   0  0  0  0  0  2  0  0  0  0  0  0
  181.3050  174.9270  138.2020 O   0  0  0  0  0  0  0  0  0  0  0  0
  179.5410  175.8810  136.8440 C   0  0  0  0  0  2  0  0  0  0  0  0
  182.7090  173.7230  136.1810 C   0  0  0  0  0  0  0  0  0  0  0  0
  183.3460  171.2230  137.2900 C   0  0  0  0  0  3  0  0  0  0  0  0
  181.4590  176.7450  139.5880 O   0  0  0  0  0  0  0  0  0  0  0  0
  182.4270  174.9990  135.4430 C   0  0  0  0  0  2  0  0  0  0  0  0
  179.4420  173.3040  136.9980 C   0  0  0  0  0  2  0  0  0  0  0  0
  180.9630  177.1890  138.3650 C   0  0  0  0  0  2  0  0  0  0  0  0
  184.2830  172.2500  137.3080 C   0  0  0  0  0  3  0  0  0  0  0  0
  179.8690  174.0700  135.0340 C   0  0  0  0  0  2  0  0  0  0  0  0
  184.7390  177.8870  135.0250 C   0  0  0  0  0  2  0  0  0  0  0  0
  183.9880  173.5080  136.7640 C   0  0  0  0  0  0  0  0  0  0  0  0
  182.3550  177.4140  135.7560 C   0  0  0  0  0  0  0  0  0  0  0  0
  181.7300  172.6870  136.2180 C   0  0  0  0  0  0  0  0  0  0  0  0
  185.2700  175.4750  135.7210 C   0  0  1  0  0  3  0  0  0  0  0  0
  180.2700  172.8230  135.8150 C   0  0  1  0  0  3  0  0  0  0  0  0
  181.9580  175.4690  139.3150 C   0  0  0  0  0  2  0  0  0  0  0  0
  186.1750  174.1980  137.5710 O   0  0  0  0  0  1  0  0  0  0  0  0
  187.7170  177.6910  135.8000 C   0  0  0  0  0  3  0  0  0  0  0  0
  186.6260  177.4360  136.6450 C   0  0  0  0  0  0  0  0  0  0  0  0
  186.7670  177.6050  138.0270 C   0  0  0  0  0  3  0  0  0  0  0  0
  188.1180  178.1950  139.9000 F   0  0  0  0  0  0  0  0  0  0  0  0
  189.0710  178.2870  137.7170 C   0  0  0  0  0  3  0  0  0  0  0  0
  187.9870  178.0320  138.5620 C   0  0  0  0  0  0  0  0  0  0  0  0
  188.9360  178.1160  136.3360 C   0  0  0  0  0  3  0  0  0  0  0  0
  180.9820  179.4660  135.5490 C   0  0  0  0  0  1  0  0  0  0  0  0
  181.8280  178.5970  136.2880 O   0  0  0  0  0  0  0  0  0  0  0  0
  186.4440  174.9960  134.8660 C   0  0  0  0  0  2  0  0  0  0  0  0
  188.1520  172.9950  134.7540 C   0  0  0  0  0  1  0  0  0  0  0  0
  186.3550  173.2000  134.5940 S   0  0  0  0  0  0  0  0  0  0  0  0
  1  4  1  0  0  0  0
  2 17  1  6  0  0  0
  2  9  1  0  0  0  0
  2 14  1  0  0  0  0
  3 25  1  6  0  0  0
  4  9  1  6  0  0  0
  4  8  1  0  0  0  0
  4 15  1  0  0  0  0
  5 27  1  6  0  0  0
  6 11  1  0  0  0  0
  7 18  1  0  0  0  0
  7 20  1  0  0  0  0
  8 24  1  0  0  0  0
 10 21  1  0  0  0  0
 10 19  2  0  0  0  0
 11 16  2  0  0  0  0
 13 10  1  0  0  0  0
 13  1  1  0  0  0  0
 15 12  1  0  0  0  0
 18  5  1  0  0  0  0
 19  3  1  0  0  0  0
 19 16  1  0  0  0  0
 20  1  2  0  0  0  0
 20 34  1  0  0  0  0
 21  6  2  0  0  0  0
 22 35  1  1  0  0  0
 22  5  1  0  0  0  0
 22  3  1  0  0  0  0
 23 17  1  6  0  0  0
 23 21  1  0  0  0  0
 23 14  1  0  0  0  0
 24 12  1  0  0  0  0
 26 32  2  0  0  0  0
 26 27  1  0  0  0  0
 27 28  2  0  0  0  0
 28 31  1  0  0  0  0
 30 31  2  0  0  0  0
 31 29  1  0  0  0  0
 32 30  1  0  0  0  0
 33 34  1  0  0  0  0
 37 36  1  0  0  0  0
 37 35  1  0  0  0  0
M  END
>  <MODEL>
3

>  <REMARK>
 VINA RESULT:      -3.9      3.154      6.354
  Name = 
  4 active torsions:
  status: ('A' for Active; 'I' for Inactive)
    1  A    between atoms: C_6  and  C_7
    2  A    between atoms: C_14  and  C_31
    3  A    between atoms: C_14  and  S_37
    4  A    between atoms: C_29  and  O_33
                            x       y       z     vdW  Elec       q    Type
                         _______ _______ _______ _____ _____    ______ ____

>  <TORSDO>
F 4

$$$$
=
 OpenBabel10262422533D

 37 42  0  0  1  0  0  0  0  0999 V2000
  183.5840  178.2580  138.6680 C   0  0  0  0  0  0  0  0  0  0  0  0
  180.9480  180.3280  139.0810 C   0  0  2  0  0  3  0  0  0  0  0  0
  183.7600  175.9830  136.0860 C   0  0  2  0  0  3  0  0  0  0  0  0
  182.3200  178.0530  139.5280 C   0  0  2  0  0  0  0  0  0  0  0  0
  185.9320  176.2020  137.3180 C   0  0  1  0  0  3  0  0  0  0  0  0
  180.2160  178.3130  135.2800 C   0  0  0  0  0  3  0  0  0  0  0  0
  186.0300  178.5620  138.2860 C   0  0  0  0  0  2  0  0  0  0  0  0
  181.3450  177.3440  138.8220 O   0  0  0  0  0  0  0  0  0  0  0  0
  181.7580  179.4050  140.0260 C   0  0  0  0  0  2  0  0  0  0  0  0
  182.3640  178.1250  136.4030 C   0  0  0  0  0  0  0  0  0  0  0  0
  180.4620  177.1290  134.5940 C   0  0  0  0  0  3  0  0  0  0  0  0
  181.8960  175.9970  140.5930 O   0  0  0  0  0  0  0  0  0  0  0  0
  183.4490  178.7370  137.2390 C   0  0  0  0  0  2  0  0  0  0  0  0
  179.9190  179.6160  138.2230 C   0  0  0  0  0  2  0  0  0  0  0  0
  182.5740  177.2030  140.7550 C   0  0  0  0  0  2  0  0  0  0  0  0
  181.6300  176.4150  134.8370 C   0  0  0  0  0  3  0  0  0  0  0  0
  181.6920  180.7700  137.8360 C   0  0  0  0  0  2  0  0  0  0  0  0
  186.8100  177.2920  137.9350 C   0  0  0  0  0  2  0  0  0  0  0  0
  182.5930  176.8890  135.7380 C   0  0  0  0  0  0  0  0  0  0  0  0
  184.8430  178.2940  139.1880 C   0  0  0  0  0  0  0  0  0  0  0  0
  181.1390  178.8250  136.1960 C   0  0  0  0  0  0  0  0  0  0  0  0
  185.1270  176.6710  136.0990 C   0  0  1  0  0  3  0  0  0  0  0  0
  180.6670  180.0460  136.9700 C   0  0  1  0  0  3  0  0  0  0  0  0
  181.4620  176.0210  139.2650 C   0  0  0  0  0  2  0  0  0  0  0  0
  183.7840  174.8120  135.3180 O   0  0  0  0  0  1  0  0  0  0  0  0
  185.9670  173.7260  136.7890 C   0  0  0  0  0  3  0  0  0  0  0  0
  186.6550  174.9010  137.1320 C   0  0  0  0  0  0  0  0  0  0  0  0
  188.0400  174.8580  137.3270 C   0  0  0  0  0  3  0  0  0  0  0  0
  190.0760  173.6190  137.3640 F   0  0  0  0  0  0  0  0  0  0  0  0
  188.0470  172.4870  136.8310 C   0  0  0  0  0  3  0  0  0  0  0  0
  188.7350  173.6550  137.1750 C   0  0  0  0  0  0  0  0  0  0  0  0
  186.6630  172.5230  136.6380 C   0  0  0  0  0  3  0  0  0  0  0  0
  185.6180  179.0990  141.4000 C   0  0  0  0  0  1  0  0  0  0  0  0
  185.0640  178.1000  140.5570 O   0  0  0  0  0  0  0  0  0  0  0  0
  185.8870  176.6300  134.7730 C   0  0  0  0  0  2  0  0  0  0  0  0
  188.4770  177.0760  134.5940 C   0  0  0  0  0  1  0  0  0  0  0  0
  186.9660  178.0840  134.6010 S   0  0  0  0  0  0  0  0  0  0  0  0
  1 20  2  0  0  0  0
  1  4  1  0  0  0  0
  2 17  1  6  0  0  0
  2  9  1  0  0  0  0
  3 25  1  6  0  0  0
  3 22  1  0  0  0  0
  4  9  1  1  0  0  0
  4 15  1  0  0  0  0
  5 27  1  6  0  0  0
  5 18  1  0  0  0  0
  6 21  1  0  0  0  0
  7 20  1  0  0  0  0
  8 24  1  0  0  0  0
  8  4  1  0  0  0  0
 10 13  1  0  0  0  0
 11 16  1  0  0  0  0
 11  6  2  0  0  0  0
 12 15  1  0  0  0  0
 13  1  1  0  0  0  0
 14  2  1  0  0  0  0
 16 19  2  0  0  0  0
 18  7  1  0  0  0  0
 19  3  1  0  0  0  0
 19 10  1  0  0  0  0
 20 34  1  0  0  0  0
 21 10  2  0  0  0  0
 21 23  1  0  0  0  0
 22 35  1  6  0  0  0
 22  5  1  0  0  0  0
 23 17  1  1  0  0  0
 23 14  1  0  0  0  0
 24 12  1  0  0  0  0
 26 27  1  0  0  0  0
 27 28  2  0  0  0  0
 30 31  2  0  0  0  0
 31 28  1  0  0  0  0
 31 29  1  0  0  0  0
 32 26  2  0  0  0  0
 32 30  1  0  0  0  0
 34 33  1  0  0  0  0
 36 37  1  0  0  0  0
 37 35  1  0  0  0  0
M  END
>  <MODEL>
4

>  <REMARK>
 VINA RESULT:      -2.9      3.241      7.015
  Name = 
  4 active torsions:
  status: ('A' for Active; 'I' for Inactive)
    1  A    between atoms: C_6  and  C_7
    2  A    between atoms: C_14  and  C_31
    3  A    between atoms: C_14  and  S_37
    4  A    between atoms: C_29  and  O_33
                            x       y       z     vdW  Elec       q    Type
                         _______ _______ _______ _____ _____    ______ ____

>  <TORSDO>
F 4

$$$$
=
 OpenBabel10262422533D

 37 42  0  0  1  0  0  0  0  0999 V2000
  181.5980  177.9410  138.0210 C   0  0  0  0  0  0  0  0  0  0  0  0
  178.9440  176.9640  136.1750 C   0  0  2  0  0  3  0  0  0  0  0  0
  184.6940  176.4530  137.7360 C   0  0  2  0  0  3  0  0  0  0  0  0
  180.5000  176.9160  138.3740 C   0  0  2  0  0  0  0  0  0  0  0  0
  184.7610  178.5460  139.1140 C   0  0  1  0  0  3  0  0  0  0  0  0
  182.3160  174.6890  134.5940 C   0  0  0  0  0  3  0  0  0  0  0  0
  182.8780  180.0640  138.2950 C   0  0  0  0  0  2  0  0  0  0  0  0
  180.9010  175.6200  138.0430 O   0  0  0  0  0  0  0  0  0  0  0  0
  179.1640  177.2680  137.6780 C   0  0  0  0  0  2  0  0  0  0  0  0
  182.6640  176.5240  136.1510 C   0  0  0  0  0  0  0  0  0  0  0  0
  183.5420  174.1410  134.9530 C   0  0  0  0  0  3  0  0  0  0  0  0
  180.6460  175.6020  140.3200 O   0  0  0  0  0  0  0  0  0  0  0  0
  182.2760  177.8780  136.6690 C   0  0  0  0  0  2  0  0  0  0  0  0
  179.4270  175.5990  135.7230 C   0  0  0  0  0  2  0  0  0  0  0  0
  180.2180  176.8440  139.8590 C   0  0  0  0  0  2  0  0  0  0  0  0
  184.3130  174.7490  135.9380 C   0  0  0  0  0  3  0  0  0  0  0  0
  179.9360  177.6320  135.2420 C   0  0  0  0  0  2  0  0  0  0  0  0
  184.1720  179.9580  139.1060 C   0  0  0  0  0  2  0  0  0  0  0  0
  183.8950  175.9360  136.5540 C   0  0  0  0  0  0  0  0  0  0  0  0
  181.8200  179.0750  138.7420 C   0  0  0  0  0  0  0  0  0  0  0  0
  181.8480  175.8670  135.1840 C   0  0  0  0  0  0  0  0  0  0  0  0
  184.9750  177.9580  137.7130 C   0  0  1  0  0  3  0  0  0  0  0  0
  180.4320  176.2620  134.7930 C   0  0  1  0  0  3  0  0  0  0  0  0
  181.3520  175.0580  139.2440 C   0  0  0  0  0  2  0  0  0  0  0  0
  185.8630  175.7180  137.9620 O   0  0  0  0  0  1  0  0  0  0  0  0
  187.2370  178.2530  139.5540 C   0  0  0  0  0  3  0  0  0  0  0  0
  185.9300  178.4020  140.0430 C   0  0  0  0  0  0  0  0  0  0  0  0
  185.7040  178.3950  141.4240 C   0  0  0  0  0  3  0  0  0  0  0  0
  186.5500  178.2410  143.6470 F   0  0  0  0  0  0  0  0  0  0  0  0
  188.0750  178.1000  141.8200 C   0  0  0  0  0  3  0  0  0  0  0  0
  186.7740  178.2460  142.3110 C   0  0  0  0  0  0  0  0  0  0  0  0
  188.3060  178.1040  140.4420 C   0  0  0  0  0  3  0  0  0  0  0  0
  180.2470  180.5030  140.0170 C   0  0  0  0  0  1  0  0  0  0  0  0
  181.0750  179.3550  139.8930 O   0  0  0  0  0  0  0  0  0  0  0  0
  186.2880  178.3620  137.0400 C   0  0  0  0  0  2  0  0  0  0  0  0
  187.6140  176.8470  135.3430 C   0  0  0  0  0  1  0  0  0  0  0  0
  186.2300  178.0200  135.2550 S   0  0  0  0  0  0  0  0  0  0  0  0
  1  4  1  0  0  0  0
  1 20  2  0  0  0  0
  2 17  1  6  0  0  0
  2  9  1  0  0  0  0
  3 25  1  6  0  0  0
  4  9  1  6  0  0  0
  4 15  1  0  0  0  0
  5 27  1  6  0  0  0
  6 11  2  0  0  0  0
  6 21  1  0  0  0  0
  7 20  1  0  0  0  0
  7 18  1  0  0  0  0
  8  4  1  0  0  0  0
  8 24  1  0  0  0  0
 10 19  1  0  0  0  0
 10 13  1  0  0  0  0
 11 16  1  0  0  0  0
 13  1  1  0  0  0  0
 14  2  1  0  0  0  0
 15 12  1  0  0  0  0
 16 19  2  0  0  0  0
 18  5  1  0  0  0  0
 19  3  1  0  0  0  0
 20 34  1  0  0  0  0
 21 10  2  0  0  0  0
 22 35  1  1  0  0  0
 22  3  1  0  0  0  0
 22  5  1  0  0  0  0
 23 21  1  0  0  0  0
 23 17  1  1  0  0  0
 23 14  1  0  0  0  0
 24 12  1  0  0  0  0
 26 27  2  0  0  0  0
 26 32  1  0  0  0  0
 27 28  1  0  0  0  0
 28 31  2  0  0  0  0
 30 31  1  0  0  0  0
 31 29  1  0  0  0  0
 32 30  2  0  0  0  0
 34 33  1  0  0  0  0
 37 36  1  0  0  0  0
 37 35  1  0  0  0  0
M  END
>  <MODEL>
5

>  <REMARK>
 VINA RESULT:      -2.9      3.011      6.188
  Name = 
  4 active torsions:
  status: ('A' for Active; 'I' for Inactive)
    1  A    between atoms: C_6  and  C_7
    2  A    between atoms: C_14  and  C_31
    3  A    between atoms: C_14  and  S_37
    4  A    between atoms: C_29  and  O_33
                            x       y       z     vdW  Elec       q    Type
                         _______ _______ _______ _____ _____    ______ ____

>  <TORSDO>
F 4

$$$$
=
 OpenBabel10262422533D

 37 42  0  0  1  0  0  0  0  0999 V2000
  181.1490  179.0130  138.0820 C   0  0  0  0  0  0  0  0  0  0  0  0
  178.9310  180.3000  140.2790 C   0  0  2  0  0  3  0  0  0  0  0  0
  184.2640  177.8960  139.0430 C   0  0  2  0  0  3  0  0  0  0  0  0
  180.9220  180.4880  138.4750 C   0  0  2  0  0  0  0  0  0  0  0  0
  183.7070  177.2660  136.6810 C   0  0  1  0  0  3  0  0  0  0  0  0
  182.2330  178.8440  142.7330 C   0  0  0  0  0  3  0  0  0  0  0  0
  181.1670  177.0710  136.5180 C   0  0  0  0  0  2  0  0  0  0  0  0
  181.7920  180.8720  139.4980 O   0  0  0  0  0  0  0  0  0  0  0  0
  179.4520  180.7360  138.8870 C   0  0  0  0  0  2  0  0  0  0  0  0
  182.0910  178.2920  140.3690 C   0  0  0  0  0  0  0  0  0  0  0  0
  183.6040  178.6140  142.7130 C   0  0  0  0  0  3  0  0  0  0  0  0
  182.3620  182.1840  137.7080 O   0  0  0  0  0  0  0  0  0  0  0  0
  181.2650  177.9590  139.1610 C   0  0  0  0  0  2  0  0  0  0  0  0
  179.8600  180.6150  141.4360 C   0  0  0  0  0  2  0  0  0  0  0  0
  181.2340  181.4520  137.3500 C   0  0  0  0  0  2  0  0  0  0  0  0
  184.2330  178.2670  141.5220 C   0  0  0  0  0  3  0  0  0  0  0  0
  179.0610  178.8170  140.5680 C   0  0  0  0  0  2  0  0  0  0  0  0
  182.5170  176.7550  135.8680 C   0  0  0  0  0  2  0  0  0  0  0  0
  183.5000  178.1050  140.3380 C   0  0  0  0  0  0  0  0  0  0  0  0
  180.9860  178.5460  136.8130 C   0  0  0  0  0  0  0  0  0  0  0  0
  181.4570  178.7040  141.5780 C   0  0  0  0  0  0  0  0  0  0  0  0
  183.7090  176.7910  138.1400 C   0  0  1  0  0  3  0  0  0  0  0  0
  180.0050  179.1280  141.7250 C   0  0  1  0  0  3  0  0  0  0  0  0
  182.8380  181.5460  138.8560 C   0  0  0  0  0  2  0  0  0  0  0  0
  185.6420  177.7480  139.2440 O   0  0  0  0  0  1  0  0  0  0  0  0
  185.3160  175.9480  135.2370 C   0  0  0  0  0  3  0  0  0  0  0  0
  185.0170  177.1100  135.9660 C   0  0  0  0  0  0  0  0  0  0  0  0
  185.9640  178.1370  136.0490 C   0  0  0  0  0  3  0  0  0  0  0  0
  188.1110  179.0060  135.4880 F   0  0  0  0  0  0  0  0  0  0  0  0
  187.4920  176.8510  134.6780 C   0  0  0  0  0  3  0  0  0  0  0  0
  187.1990  178.0090  135.4060 C   0  0  0  0  0  0  0  0  0  0  0  0
  186.5510  175.8220  134.5940 C   0  0  0  0  0  3  0  0  0  0  0  0
  179.9070  178.9820  134.6250 C   0  0  0  0  0  1  0  0  0  0  0  0
  180.6380  179.4070  135.7660 O   0  0  0  0  0  0  0  0  0  0  0  0
  184.3160  175.4050  138.3640 C   0  0  0  0  0  2  0  0  0  0  0  0
  184.6700  172.9730  137.4160 C   0  0  0  0  0  1  0  0  0  0  0  0
  183.2730  174.1150  137.6170 S   0  0  0  0  0  0  0  0  0  0  0  0
  1  4  1  0  0  0  0
  1 13  1  0  0  0  0
  2  9  1  6  0  0  0
  2 17  1  0  0  0  0
  2 14  1  0  0  0  0
  3 25  1  1  0  0  0
  3 19  1  0  0  0  0
  4 15  1  6  0  0  0
  4  9  1  0  0  0  0
  4  8  1  0  0  0  0
  5 27  1  6  0  0  0
  5 22  1  0  0  0  0
  7 20  1  0  0  0  0
 10 21  1  0  0  0  0
 11  6  1  0  0  0  0
 12 24  1  0  0  0  0
 13 10  1  0  0  0  0
 14 23  1  0  0  0  0
 15 12  1  0  0  0  0
 16 11  2  0  0  0  0
 18  7  1  0  0  0  0
 18  5  1  0  0  0  0
 19 10  2  0  0  0  0
 19 16  1  0  0  0  0
 20  1  2  0  0  0  0
 21 23  1  0  0  0  0
 21  6  2  0  0  0  0
 22 35  1  6  0  0  0
 22  3  1  0  0  0  0
 23 17  1  6  0  0  0
 24  8  1  0  0  0  0
 26 27  1  0  0  0  0
 27 28  2  0  0  0  0
 30 31  2  0  0  0  0
 31 29  1  0  0  0  0
 31 28  1  0  0  0  0
 32 30  1  0  0  0  0
 32 26  2  0  0  0  0
 33 34  1  0  0  0  0
 34 20  1  0  0  0  0
 36 37  1  0  0  0  0
 37 35  1  0  0  0  0
M  END
>  <MODEL>
6

>  <REMARK>
 VINA RESULT:      -2.2      2.507      7.012
  Name = 
  4 active torsions:
  status: ('A' for Active; 'I' for Inactive)
    1  A    between atoms: C_6  and  C_7
    2  A    between atoms: C_14  and  C_31
    3  A    between atoms: C_14  and  S_37
    4  A    between atoms: C_29  and  O_33
                            x       y       z     vdW  Elec       q    Type
                         _______ _______ _______ _____ _____    ______ ____

>  <TORSDO>
F 4

$$$$
=
 OpenBabel10262422533D

 37 42  0  0  1  0  0  0  0  0999 V2000
  185.7900  176.7550  137.6090 C   0  0  0  0  0  0  0  0  0  0  0  0
  187.7370  174.3060  136.3380 C   0  0  2  0  0  3  0  0  0  0  0  0
  182.4110  176.9500  136.9630 C   0  0  2  0  0  3  0  0  0  0  0  0
  186.6240  176.7580  136.3100 C   0  0  2  0  0  0  0  0  0  0  0  0
  183.1340  178.5350  138.7650 C   0  0  1  0  0  3  0  0  0  0  0  0
  183.6670  173.2100  135.2080 C   0  0  0  0  0  3  0  0  0  0  0  0
  185.1820  177.5200  139.9030 C   0  0  0  0  0  2  0  0  0  0  0  0
  185.8450  176.3760  135.2160 O   0  0  0  0  0  0  0  0  0  0  0  0
  187.8650  175.8460  136.4420 C   0  0  0  0  0  2  0  0  0  0  0  0
  184.0860  174.9990  136.8010 C   0  0  0  0  0  0  0  0  0  0  0  0
  182.4200  173.7510  134.9170 C   0  0  0  0  0  3  0  0  0  0  0  0
  186.4720  178.5360  134.7760 O   0  0  0  0  0  0  0  0  0  0  0  0
  184.8990  175.5730  137.9240 C   0  0  0  0  0  2  0  0  0  0  0  0
  186.8420  173.8150  135.2150 C   0  0  0  0  0  2  0  0  0  0  0  0
  187.1260  178.1370  135.9380 C   0  0  0  0  0  2  0  0  0  0  0  0
  182.0160  174.9350  135.5250 C   0  0  0  0  0  3  0  0  0  0  0  0
  186.8130  173.6770  137.3610 C   0  0  0  0  0  2  0  0  0  0  0  0
  184.0630  178.5630  139.9800 C   0  0  0  0  0  2  0  0  0  0  0  0
  182.8310  175.5790  136.4660 C   0  0  0  0  0  0  0  0  0  0  0  0
  186.0010  177.6270  138.6340 C   0  0  0  0  0  0  0  0  0  0  0  0
  184.5220  173.8180  136.1330 C   0  0  0  0  0  0  0  0  0  0  0  0
  182.5360  177.1530  138.4750 C   0  0  1  0  0  3  0  0  0  0  0  0
  185.9030  173.1910  136.2370 C   0  0  1  0  0  3  0  0  0  0  0  0
  185.4750  177.5740  134.5940 C   0  0  0  0  0  2  0  0  0  0  0  0
  181.1450  177.3300  136.4990 O   0  0  0  0  0  1  0  0  0  0  0  0
  182.0630  180.5520  137.6730 C   0  0  0  0  0  3  0  0  0  0  0  0
  182.1450  179.6640  138.7560 C   0  0  0  0  0  0  0  0  0  0  0  0
  181.3070  179.8420  139.8620 C   0  0  0  0  0  3  0  0  0  0  0  0
  179.5780  181.0640  140.9570 F   0  0  0  0  0  0  0  0  0  0  0  0
  180.3070  181.7780  138.8020 C   0  0  0  0  0  3  0  0  0  0  0  0
  180.3880  180.8960  139.8850 C   0  0  0  0  0  0  0  0  0  0  0  0
  181.1440  181.6050  137.6970 C   0  0  0  0  0  3  0  0  0  0  0  0
  188.2520  178.5180  139.1660 C   0  0  0  0  0  1  0  0  0  0  0  0
  186.9800  178.6230  138.5430 O   0  0  0  0  0  0  0  0  0  0  0  0
  181.2810  176.8130  139.2810 C   0  0  0  0  0  2  0  0  0  0  0  0
  179.4350  175.1880  140.2230 C   0  0  0  0  0  1  0  0  0  0  0  0
  180.8290  175.0640  139.0660 S   0  0  0  0  0  0  0  0  0  0  0  0
  1 13  1  0  0  0  0
  1 20  2  0  0  0  0
  2 14  1  6  0  0  0
  2  9  1  0  0  0  0
  2 17  1  0  0  0  0
  3 25  1  1  0  0  0
  3 22  1  0  0  0  0
  4 15  1  6  0  0  0
  4  9  1  0  0  0  0
  4  1  1  0  0  0  0
  5 27  1  1  0  0  0
  5 18  1  0  0  0  0
  6 21  1  0  0  0  0
  7 18  1  0  0  0  0
  8  4  1  0  0  0  0
 10 13  1  0  0  0  0
 11  6  2  0  0  0  0
 11 16  1  0  0  0  0
 12 15  1  0  0  0  0
 16 19  2  0  0  0  0
 19 10  1  0  0  0  0
 19  3  1  0  0  0  0
 20  7  1  0  0  0  0
 21 23  1  0  0  0  0
 21 10  2  0  0  0  0
 22  5  1  0  0  0  0
 22 35  1  1  0  0  0
 23 14  1  6  0  0  0
 23 17  1  0  0  0  0
 24 12  1  0  0  0  0
 24  8  1  0  0  0  0
 26 32  2  0  0  0  0
 26 27  1  0  0  0  0
 27 28  2  0  0  0  0
 28 31  1  0  0  0  0
 30 31  2  0  0  0  0
 31 29  1  0  0  0  0
 32 30  1  0  0  0  0
 34 20  1  0  0  0  0
 34 33  1  0  0  0  0
 37 35  1  0  0  0  0
 37 36  1  0  0  0  0
M  END
>  <MODEL>
7

>  <REMARK>
 VINA RESULT:      -2.1      1.685      2.018
  Name = 
  4 active torsions:
  status: ('A' for Active; 'I' for Inactive)
    1  A    between atoms: C_6  and  C_7
    2  A    between atoms: C_14  and  C_31
    3  A    between atoms: C_14  and  S_37
    4  A    between atoms: C_29  and  O_33
                            x       y       z     vdW  Elec       q    Type
                         _______ _______ _______ _____ _____    ______ ____

>  <TORSDO>
F 4

$$$$
