=
 OpenBabel10262420133D

 27 31  0  0  0  0  0  0  0  0999 V2000
  186.9170  179.3120  141.0530 C   0  0  0  0  0  2  0  0  0  0  0  0
  186.7250  178.0830  143.2410 C   0  0  0  0  0  0  0  0  0  0  0  0
  189.2140  178.2830  142.5290 C   0  0  0  0  0  2  0  0  0  0  0  0
  186.0260  177.7060  144.3300 N   0  0  0  0  0  2  0  0  0  0  0  0
  190.4460  175.6020  138.6000 O   0  0  0  0  0  1  0  0  0  0  0  0
  189.5900  176.5170  139.1980 C   0  0  0  0  0  0  0  0  0  0  0  0
  186.1060  178.5990  142.0390 N   0  0  0  0  0  0  0  0  0  0  0  0
  188.2100  177.3970  144.7350 C   0  0  0  0  0  0  0  0  0  0  0  0
  187.8690  178.3680  140.3970 C   0  0  0  0  0  0  0  0  0  0  0  0
  188.0890  177.9020  143.4490 C   0  0  0  0  0  0  0  0  0  0  0  0
  189.8160  176.9260  140.5150 C   0  0  0  0  0  3  0  0  0  0  0  0
  186.9250  177.2870  145.2430 C   0  0  0  0  0  3  0  0  0  0  0  0
  188.5030  177.0270  138.4820 C   0  0  0  0  0  3  0  0  0  0  0  0
  187.6410  177.9500  139.0830 C   0  0  0  0  0  3  0  0  0  0  0  0
  188.9550  177.8480  141.1210 C   0  0  0  0  0  0  0  0  0  0  0  0
  189.4670  177.0940  146.8700 C   0  0  0  0  0  3  0  0  0  0  0  0
  191.7690  176.3470  146.8880 C   0  0  0  0  0  3  0  0  0  0  0  0
  191.7580  176.2840  145.4940 C   0  0  0  0  0  3  0  0  0  0  0  0
  190.6020  176.6270  144.7880 C   0  0  0  0  0  3  0  0  0  0  0  0
  189.4460  177.0360  145.4680 C   0  0  0  0  0  0  0  0  0  0  0  0
  190.6230  176.7520  147.5780 C   0  0  0  0  0  3  0  0  0  0  0  0
  181.9610  178.0860  141.2120 C   0  0  0  0  0  3  0  0  0  0  0  0
  184.7010  178.4060  141.7620 C   0  0  0  0  0  0  0  0  0  0  0  0
  184.2750  177.7920  140.5710 C   0  0  0  0  0  3  0  0  0  0  0  0
  182.9140  177.6300  140.2990 C   0  0  0  0  0  3  0  0  0  0  0  0
  182.3690  178.7050  142.3960 C   0  0  0  0  0  3  0  0  0  0  0  0
  183.7300  178.8670  142.6670 C   0  0  0  0  0  3  0  0  0  0  0  0
  1  7  1  0  0  0  0
  2 10  2  0  0  0  0
  2  4  1  0  0  0  0
  3 10  1  0  0  0  0
  4 12  1  0  0  0  0
  5  6  1  0  0  0  0
  6 11  1  0  0  0  0
  7  2  1  0  0  0  0
  8 12  2  0  0  0  0
  8 20  1  0  0  0  0
  9  1  1  0  0  0  0
  9 15  1  0  0  0  0
 10  8  1  0  0  0  0
 11 15  2  0  0  0  0
 13 14  1  0  0  0  0
 13  6  2  0  0  0  0
 14  9  2  0  0  0  0
 15  3  1  0  0  0  0
 16 21  1  0  0  0  0
 17 21  2  0  0  0  0
 18 17  1  0  0  0  0
 19 20  1  0  0  0  0
 19 18  2  0  0  0  0
 20 16  2  0  0  0  0
 22 26  1  0  0  0  0
 23  7  1  0  0  0  0
 23 27  1  0  0  0  0
 24 23  2  0  0  0  0
 25 24  1  0  0  0  0
 25 22  2  0  0  0  0
 26 27  2  0  0  0  0
M  END
>  <MODEL>
1

>  <REMARK>
 VINA RESULT:      -8.9      0.000      0.000
  Name = 
  2 active torsions:
  status: ('A' for Active; 'I' for Inactive)
    1  A    between atoms: C_9  and  N_15
    2  A    between atoms: C_14  and  C_17
                            x       y       z     vdW  Elec       q    Type
                         _______ _______ _______ _____ _____    ______ ____

>  <TORSDO>
F 2

$$$$
=
 OpenBabel10262420133D

 27 31  0  0  1  0  0  0  0  0999 V2000
  187.1620  176.2780  143.9670 C   0  0  0  0  0  2  0  0  0  0  0  0
  187.7550  177.5880  141.9010 C   0  0  0  0  0  0  0  0  0  0  0  0
  189.7540  176.1060  142.6400 C   0  0  0  0  0  2  0  0  0  0  0  0
  187.4110  178.3430  140.8390 N   0  0  0  0  0  0  0  0  0  0  0  0
  191.9110  177.5070  146.8260 O   0  0  0  0  0  1  0  0  0  0  0  0
  190.7520  177.1960  146.1290 C   0  0  0  0  0  0  0  0  0  0  0  0
  186.8840  177.3710  143.0370 N   0  0  0  0  0  0  0  0  0  0  0  0
  189.4750  177.5330  140.5080 C   0  0  0  0  0  0  0  0  0  0  0  0
  188.4150  176.5620  144.7270 C   0  0  0  0  0  0  0  0  0  0  0  0
  189.0340  177.0680  141.7370 C   0  0  1  0  0  3  0  0  0  0  0  0
  190.8260  176.8250  144.7830 C   0  0  0  0  0  3  0  0  0  0  0  0
  188.4560  178.3140  139.9870 C   0  0  0  0  0  3  0  0  0  0  0  0
  189.5120  177.2560  146.7720 C   0  0  0  0  0  3  0  0  0  0  0  0
  188.3430  176.9430  146.0710 C   0  0  0  0  0  3  0  0  0  0  0  0
  189.6600  176.5100  144.0770 C   0  0  0  0  0  0  0  0  0  0  0  0
  190.7870  176.7300  138.5410 C   0  0  0  0  0  3  0  0  0  0  0  0
  193.2070  176.7720  138.5310 C   0  0  0  0  0  3  0  0  0  0  0  0
  193.2010  177.3120  139.8180 C   0  0  0  0  0  3  0  0  0  0  0  0
  191.9880  177.5590  140.4670 C   0  0  0  0  0  3  0  0  0  0  0  0
  190.7700  177.2710  139.8360 C   0  0  0  0  0  0  0  0  0  0  0  0
  191.9990  176.4810  137.8900 C   0  0  0  0  0  3  0  0  0  0  0  0
  183.5150  179.8510  143.8320 C   0  0  0  0  0  3  0  0  0  0  0  0
  185.7520  178.2280  143.3040 C   0  0  0  0  0  0  0  0  0  0  0  0
  185.6670  178.9670  144.4970 C   0  0  0  0  0  3  0  0  0  0  0  0
  184.5580  179.7750  144.7580 C   0  0  0  0  0  3  0  0  0  0  0  0
  183.5810  179.1170  142.6460 C   0  0  0  0  0  3  0  0  0  0  0  0
  184.6910  178.3080  142.3850 C   0  0  0  0  0  3  0  0  0  0  0  0
  1  9  1  0  0  0  0
  2  7  1  0  0  0  0
  3 15  1  0  0  0  0
  4  2  2  0  0  0  0
  6 13  1  0  0  0  0
  6  5  1  0  0  0  0
  7 23  1  0  0  0  0
  7  1  1  0  0  0  0
  8 10  1  0  0  0  0
  9 14  1  0  0  0  0
 10  2  1  0  0  0  0
 10  3  1  6  0  0  0
 11  6  2  0  0  0  0
 12  8  2  0  0  0  0
 12  4  1  0  0  0  0
 14 13  2  0  0  0  0
 15  9  2  0  0  0  0
 15 11  1  0  0  0  0
 16 20  1  0  0  0  0
 17 18  2  0  0  0  0
 18 19  1  0  0  0  0
 20 19  2  0  0  0  0
 20  8  1  0  0  0  0
 21 17  1  0  0  0  0
 21 16  2  0  0  0  0
 22 25  1  0  0  0  0
 23 24  1  0  0  0  0
 24 25  2  0  0  0  0
 26 22  2  0  0  0  0
 27 26  1  0  0  0  0
 27 23  2  0  0  0  0
M  END
>  <MODEL>
2

>  <REMARK>
 VINA RESULT:      -8.7      2.372      5.406
  Name = 
  2 active torsions:
  status: ('A' for Active; 'I' for Inactive)
    1  A    between atoms: C_9  and  N_15
    2  A    between atoms: C_14  and  C_17
                            x       y       z     vdW  Elec       q    Type
                         _______ _______ _______ _____ _____    ______ ____

>  <TORSDO>
F 2

$$$$
=
 OpenBabel10262420133D

 27 31  0  0  0  0  0  0  0  0999 V2000
  185.5380  179.3170  140.1020 C   0  0  0  0  0  2  0  0  0  0  0  0
  185.7000  178.1580  142.3310 C   0  0  0  0  0  0  0  0  0  0  0  0
  188.0680  178.5820  141.3550 C   0  0  0  0  0  2  0  0  0  0  0  0
  185.1580  177.7530  143.4960 N   0  0  0  0  0  2  0  0  0  0  0  0
  189.1660  175.8940  137.3920 O   0  0  0  0  0  1  0  0  0  0  0  0
  188.2850  176.7390  138.0510 C   0  0  0  0  0  0  0  0  0  0  0  0
  184.9100  178.5630  141.1870 N   0  0  0  0  0  0  0  0  0  0  0  0
  187.3920  177.6830  143.6770 C   0  0  0  0  0  0  0  0  0  0  0  0
  186.5110  178.4500  139.3750 C   0  0  0  0  0  0  0  0  0  0  0  0
  187.0880  178.1240  142.3990 C   0  0  0  0  0  0  0  0  0  0  0  0
  188.6000  177.2180  139.3260 C   0  0  0  0  0  3  0  0  0  0  0  0
  186.1840  177.4620  144.3210 C   0  0  0  0  0  3  0  0  0  0  0  0
  187.0830  177.1100  137.4410 C   0  0  0  0  0  3  0  0  0  0  0  0
  186.1950  177.9620  138.1040 C   0  0  0  0  0  3  0  0  0  0  0  0
  187.7140  178.0700  139.9940 C   0  0  0  0  0  0  0  0  0  0  0  0
  188.9100  177.6980  145.6600 C   0  0  0  0  0  3  0  0  0  0  0  0
  191.2430  177.0820  145.4720 C   0  0  0  0  0  3  0  0  0  0  0  0
  191.0720  176.8570  144.1050 C   0  0  0  0  0  3  0  0  0  0  0  0
  189.8200  177.0530  143.5160 C   0  0  0  0  0  3  0  0  0  0  0  0
  188.7270  177.4760  144.2860 C   0  0  0  0  0  0  0  0  0  0  0  0
  190.1620  177.5030  146.2510 C   0  0  0  0  0  3  0  0  0  0  0  0
  180.7810  177.5980  140.8010 C   0  0  0  0  0  3  0  0  0  0  0  0
  183.5120  178.2190  141.0640 C   0  0  0  0  0  0  0  0  0  0  0  0
  183.0810  177.2650  140.1270 C   0  0  0  0  0  3  0  0  0  0  0  0
  181.7240  176.9540  139.9970 C   0  0  0  0  0  3  0  0  0  0  0  0
  181.1940  178.5540  141.7320 C   0  0  0  0  0  3  0  0  0  0  0  0
  182.5500  178.8650  141.8610 C   0  0  0  0  0  3  0  0  0  0  0  0
  1  7  1  0  0  0  0
  2 10  2  0  0  0  0
  2  4  1  0  0  0  0
  3 10  1  0  0  0  0
  4 12  1  0  0  0  0
  5  6  1  0  0  0  0
  6 11  1  0  0  0  0
  7  2  1  0  0  0  0
  8 20  1  0  0  0  0
  8 12  2  0  0  0  0
  9 15  1  0  0  0  0
  9  1  1  0  0  0  0
 10  8  1  0  0  0  0
 11 15  2  0  0  0  0
 13  6  2  0  0  0  0
 13 14  1  0  0  0  0
 14  9  2  0  0  0  0
 15  3  1  0  0  0  0
 16 21  1  0  0  0  0
 17 21  2  0  0  0  0
 18 17  1  0  0  0  0
 19 18  2  0  0  0  0
 19 20  1  0  0  0  0
 20 16  2  0  0  0  0
 22 26  1  0  0  0  0
 23  7  1  0  0  0  0
 23 27  1  0  0  0  0
 24 23  2  0  0  0  0
 25 24  1  0  0  0  0
 25 22  2  0  0  0  0
 26 27  2  0  0  0  0
M  END
>  <MODEL>
3

>  <REMARK>
 VINA RESULT:      -8.1      1.170      1.538
  Name = 
  2 active torsions:
  status: ('A' for Active; 'I' for Inactive)
    1  A    between atoms: C_9  and  N_15
    2  A    between atoms: C_14  and  C_17
                            x       y       z     vdW  Elec       q    Type
                         _______ _______ _______ _____ _____    ______ ____

>  <TORSDO>
F 2

$$$$
=
 OpenBabel10262420133D

 27 31  0  0  1  0  0  0  0  0999 V2000
  188.6360  178.8240  138.9190 C   0  0  0  0  0  2  0  0  0  0  0  0
  186.2110  178.2660  139.2990 C   0  0  0  0  0  0  0  0  0  0  0  0
  187.3590  178.8960  141.5410 C   0  0  0  0  0  2  0  0  0  0  0  0
  184.9610  178.0470  138.8450 N   0  0  0  0  0  0  0  0  0  0  0  0
  190.6480  175.6210  143.1530 O   0  0  0  0  0  1  0  0  0  0  0  0
  190.1610  176.4130  142.1220 C   0  0  0  0  0  0  0  0  0  0  0  0
  187.3820  178.2370  138.4480 N   0  0  0  0  0  0  0  0  0  0  0  0
  184.8650  178.4480  141.0480 C   0  0  0  0  0  0  0  0  0  0  0  0
  189.1870  178.0140  140.0450 C   0  0  0  0  0  0  0  0  0  0  0  0
  186.1970  178.5140  140.6670 C   0  0  1  0  0  3  0  0  0  0  0  0
  189.0440  177.2250  142.3340 C   0  0  0  0  0  3  0  0  0  0  0  0
  184.1370  178.1560  139.9060 C   0  0  0  0  0  3  0  0  0  0  0  0
  190.7880  176.3960  140.8730 C   0  0  0  0  0  3  0  0  0  0  0  0
  190.2990  177.1930  139.8330 C   0  0  0  0  0  3  0  0  0  0  0  0
  188.5500  178.0240  141.2970 C   0  0  0  0  0  0  0  0  0  0  0  0
  182.9000  178.8350  142.5400 C   0  0  0  0  0  3  0  0  0  0  0  0
  183.1490  179.0140  144.9410 C   0  0  0  0  0  3  0  0  0  0  0  0
  184.5260  178.8260  144.8100 C   0  0  0  0  0  3  0  0  0  0  0  0
  185.0900  178.6430  143.5450 C   0  0  0  0  0  3  0  0  0  0  0  0
  184.2840  178.6460  142.3970 C   0  0  0  0  0  0  0  0  0  0  0  0
  182.3340  179.0180  143.8050 C   0  0  0  0  0  3  0  0  0  0  0  0
  187.3760  176.4220  134.5970 C   0  0  0  0  0  3  0  0  0  0  0  0
  187.3620  177.6140  137.1450 C   0  0  0  0  0  0  0  0  0  0  0  0
  187.5300  176.2250  137.0030 C   0  0  0  0  0  3  0  0  0  0  0  0
  187.5340  175.6320  135.7380 C   0  0  0  0  0  3  0  0  0  0  0  0
  187.2160  177.8040  134.7210 C   0  0  0  0  0  3  0  0  0  0  0  0
  187.2120  178.3960  135.9870 C   0  0  0  0  0  3  0  0  0  0  0  0
  1  9  1  0  0  0  0
  2 10  1  0  0  0  0
  4  2  2  0  0  0  0
  4 12  1  0  0  0  0
  6 11  1  0  0  0  0
  6  5  1  0  0  0  0
  7  1  1  0  0  0  0
  7  2  1  0  0  0  0
  8 20  1  0  0  0  0
  9 15  1  0  0  0  0
 10  8  1  0  0  0  0
 10  3  1  6  0  0  0
 12  8  2  0  0  0  0
 13  6  2  0  0  0  0
 14  9  2  0  0  0  0
 14 13  1  0  0  0  0
 15  3  1  0  0  0  0
 15 11  2  0  0  0  0
 16 21  1  0  0  0  0
 18 17  1  0  0  0  0
 19 18  2  0  0  0  0
 20 16  2  0  0  0  0
 20 19  1  0  0  0  0
 21 17  2  0  0  0  0
 22 26  2  0  0  0  0
 22 25  1  0  0  0  0
 23  7  1  0  0  0  0
 24 23  1  0  0  0  0
 25 24  2  0  0  0  0
 26 27  1  0  0  0  0
 27 23  2  0  0  0  0
M  END
>  <MODEL>
4

>  <REMARK>
 VINA RESULT:      -8.0      2.785      5.752
  Name = 
  2 active torsions:
  status: ('A' for Active; 'I' for Inactive)
    1  A    between atoms: C_9  and  N_15
    2  A    between atoms: C_14  and  C_17
                            x       y       z     vdW  Elec       q    Type
                         _______ _______ _______ _____ _____    ______ ____

>  <TORSDO>
F 2

$$$$
=
 OpenBabel10262420133D

 27 31  0  0  0  0  0  0  0  0999 V2000
  187.9530  178.6030  137.8450 C   0  0  0  0  0  2  0  0  0  0  0  0
  187.2410  178.2640  140.2350 C   0  0  0  0  0  0  0  0  0  0  0  0
  189.8090  177.9680  140.0040 C   0  0  0  0  0  2  0  0  0  0  0  0
  186.3330  178.3670  141.2260 N   0  0  0  0  0  2  0  0  0  0  0  0
  191.1990  173.9550  137.5320 O   0  0  0  0  0  1  0  0  0  0  0  0
  190.4140  175.0980  137.6050 C   0  0  0  0  0  0  0  0  0  0  0  0
  186.9000  178.3680  138.8330 N   0  0  0  0  0  0  0  0  0  0  0  0
  188.3550  178.0280  142.1350 C   0  0  0  0  0  0  0  0  0  0  0  0
  188.8360  177.4030  137.7470 C   0  0  0  0  0  0  0  0  0  0  0  0
  188.5110  178.0470  140.7570 C   0  0  0  0  0  0  0  0  0  0  0  0
  190.4950  175.9300  138.7260 C   0  0  0  0  0  3  0  0  0  0  0  0
  187.0060  178.2250  142.3860 C   0  0  0  0  0  3  0  0  0  0  0  0
  189.5410  175.4130  136.5600 C   0  0  0  0  0  3  0  0  0  0  0  0
  188.7490  176.5640  136.6320 C   0  0  0  0  0  3  0  0  0  0  0  0
  189.7050  177.0820  138.8030 C   0  0  0  0  0  0  0  0  0  0  0  0
  189.0640  177.2140  144.3860 C   0  0  0  0  0  3  0  0  0  0  0  0
  191.3410  177.4680  145.1650 C   0  0  0  0  0  3  0  0  0  0  0  0
  191.6800  178.0940  143.9640 C   0  0  0  0  0  3  0  0  0  0  0  0
  190.7110  178.2800  142.9750 C   0  0  0  0  0  3  0  0  0  0  0  0
  189.3930  177.8430  143.1750 C   0  0  0  0  0  0  0  0  0  0  0  0
  190.0320  177.0280  145.3770 C   0  0  0  0  0  3  0  0  0  0  0  0
  182.8920  177.8730  137.4830 C   0  0  0  0  0  3  0  0  0  0  0  0
  185.5410  178.2160  138.3650 C   0  0  0  0  0  0  0  0  0  0  0  0
  184.5090  179.0350  138.8560 C   0  0  0  0  0  3  0  0  0  0  0  0
  183.1940  178.8660  138.4170 C   0  0  0  0  0  3  0  0  0  0  0  0
  183.9050  177.0460  136.9910 C   0  0  0  0  0  3  0  0  0  0  0  0
  185.2200  177.2150  137.4320 C   0  0  0  0  0  3  0  0  0  0  0  0
  1  7  1  0  0  0  0
  2 10  2  0  0  0  0
  2  4  1  0  0  0  0
  3 10  1  0  0  0  0
  4 12  1  0  0  0  0
  5  6  1  0  0  0  0
  6 11  1  0  0  0  0
  7  2  1  0  0  0  0
  8 12  2  0  0  0  0
  8 20  1  0  0  0  0
  9  1  1  0  0  0  0
  9 15  1  0  0  0  0
 10  8  1  0  0  0  0
 11 15  2  0  0  0  0
 13 14  1  0  0  0  0
 13  6  2  0  0  0  0
 14  9  2  0  0  0  0
 15  3  1  0  0  0  0
 16 21  1  0  0  0  0
 17 21  2  0  0  0  0
 18 17  1  0  0  0  0
 19 20  1  0  0  0  0
 19 18  2  0  0  0  0
 20 16  2  0  0  0  0
 22 25  1  0  0  0  0
 23  7  1  0  0  0  0
 23 24  1  0  0  0  0
 25 24  2  0  0  0  0
 26 27  1  0  0  0  0
 26 22  2  0  0  0  0
 27 23  2  0  0  0  0
M  END
>  <MODEL>
5

>  <REMARK>
 VINA RESULT:      -7.7      1.924      3.080
  Name = 
  2 active torsions:
  status: ('A' for Active; 'I' for Inactive)
    1  A    between atoms: C_9  and  N_15
    2  A    between atoms: C_14  and  C_17
                            x       y       z     vdW  Elec       q    Type
                         _______ _______ _______ _____ _____    ______ ____

>  <TORSDO>
F 2

$$$$
=
 OpenBabel10262420133D

 27 31  0  0  0  0  0  0  0  0999 V2000
  187.5150  176.4530  144.1960 C   0  0  0  0  0  2  0  0  0  0  0  0
  185.6730  177.9790  144.9800 C   0  0  0  0  0  0  0  0  0  0  0  0
  185.3670  177.4060  142.4670 C   0  0  0  0  0  2  0  0  0  0  0  0
  184.9670  178.5760  145.9610 N   0  0  0  0  0  2  0  0  0  0  0  0
  188.7380  179.3770  139.4860 O   0  0  0  0  0  1  0  0  0  0  0  0
  188.4380  178.6530  140.6310 C   0  0  0  0  0  0  0  0  0  0  0  0
  186.9730  177.3790  145.1900 N   0  0  0  0  0  0  0  0  0  0  0  0
  183.7890  178.6880  144.0560 C   0  0  0  0  0  0  0  0  0  0  0  0
  187.8350  177.1870  142.9370 C   0  0  0  0  0  0  0  0  0  0  0  0
  184.9770  178.0310  143.7770 C   0  0  0  0  0  0  0  0  0  0  0  0
  187.1040  178.4030  140.9690 C   0  0  0  0  0  3  0  0  0  0  0  0
  183.8180  179.0100  145.4040 C   0  0  0  0  0  3  0  0  0  0  0  0
  189.4680  178.1780  141.4470 C   0  0  0  0  0  3  0  0  0  0  0  0
  189.1670  177.4480  142.6020 C   0  0  0  0  0  3  0  0  0  0  0  0
  186.7980  177.6740  142.1230 C   0  0  0  0  0  0  0  0  0  0  0  0
  181.4260  179.3870  143.6510 C   0  0  0  0  0  3  0  0  0  0  0  0
  180.5410  179.6170  141.4100 C   0  0  0  0  0  3  0  0  0  0  0  0
  181.7780  179.2380  140.8840 C   0  0  0  0  0  3  0  0  0  0  0  0
  182.8380  178.9320  141.7420 C   0  0  0  0  0  3  0  0  0  0  0  0
  182.6730  179.0030  143.1330 C   0  0  0  0  0  0  0  0  0  0  0  0
  180.3650  179.6920  142.7940 C   0  0  0  0  0  3  0  0  0  0  0  0
  189.3230  178.2530  148.6310 C   0  0  0  0  0  3  0  0  0  0  0  0
  187.7780  177.6910  146.3480 C   0  0  0  0  0  0  0  0  0  0  0  0
  189.1610  177.4400  146.3580 C   0  0  0  0  0  3  0  0  0  0  0  0
  189.9300  177.7220  147.4910 C   0  0  0  0  0  3  0  0  0  0  0  0
  187.9490  178.4990  148.6400 C   0  0  0  0  0  3  0  0  0  0  0  0
  187.1810  178.2170  147.5070 C   0  0  0  0  0  3  0  0  0  0  0  0
  1  7  1  0  0  0  0
  2  7  1  0  0  0  0
  2  4  1  0  0  0  0
  3 10  1  0  0  0  0
  5  6  1  0  0  0  0
  6 11  2  0  0  0  0
  6 13  1  0  0  0  0
  7 23  1  0  0  0  0
  8 12  2  0  0  0  0
  9  1  1  0  0  0  0
 10  8  1  0  0  0  0
 10  2  2  0  0  0  0
 11 15  1  0  0  0  0
 12  4  1  0  0  0  0
 13 14  2  0  0  0  0
 14  9  1  0  0  0  0
 15  3  1  0  0  0  0
 15  9  2  0  0  0  0
 17 21  1  0  0  0  0
 18 17  2  0  0  0  0
 18 19  1  0  0  0  0
 19 20  2  0  0  0  0
 20 16  1  0  0  0  0
 20  8  1  0  0  0  0
 21 16  2  0  0  0  0
 22 26  1  0  0  0  0
 23 24  2  0  0  0  0
 23 27  1  0  0  0  0
 24 25  1  0  0  0  0
 25 22  2  0  0  0  0
 27 26  2  0  0  0  0
M  END
>  <MODEL>
6

>  <REMARK>
 VINA RESULT:      -7.6      1.907      6.728
  Name = 
  2 active torsions:
  status: ('A' for Active; 'I' for Inactive)
    1  A    between atoms: C_9  and  N_15
    2  A    between atoms: C_14  and  C_17
                            x       y       z     vdW  Elec       q    Type
                         _______ _______ _______ _____ _____    ______ ____

>  <TORSDO>
F 2

$$$$
=
 OpenBabel10262420133D

 27 31  0  0  0  0  0  0  0  0999 V2000
  184.5520  179.2510  140.5710 C   0  0  0  0  0  2  0  0  0  0  0  0
  186.9220  178.4010  140.5720 C   0  0  0  0  0  0  0  0  0  0  0  0
  185.9070  178.2530  138.1870 C   0  0  0  0  0  2  0  0  0  0  0  0
  188.1310  178.2650  141.1520 N   0  0  0  0  0  2  0  0  0  0  0  0
  182.3640  174.8880  137.6710 O   0  0  0  0  0  1  0  0  0  0  0  0
  182.8940  175.9620  138.3720 C   0  0  0  0  0  0  0  0  0  0  0  0
  185.7300  178.7790  141.3000 N   0  0  0  0  0  0  0  0  0  0  0  0
  188.3290  177.8200  138.9640 C   0  0  0  0  0  0  0  0  0  0  0  0
  183.9590  178.1300  139.7840 C   0  0  0  0  0  0  0  0  0  0  0  0
  187.0000  178.1280  139.2100 C   0  0  0  0  0  0  0  0  0  0  0  0
  184.0910  176.5480  137.9500 C   0  0  0  0  0  3  0  0  0  0  0  0
  188.9930  177.9110  140.1770 C   0  0  0  0  0  3  0  0  0  0  0  0
  182.2330  176.4540  139.5010 C   0  0  0  0  0  3  0  0  0  0  0  0
  182.7670  177.5360  140.2090 C   0  0  0  0  0  3  0  0  0  0  0  0
  184.6290  177.6300  138.6550 C   0  0  0  0  0  0  0  0  0  0  0  0
  189.7960  176.3330  137.5950 C   0  0  0  0  0  3  0  0  0  0  0  0
  190.1800  176.7530  135.2420 C   0  0  0  0  0  3  0  0  0  0  0  0
  189.3560  177.8780  135.3090 C   0  0  0  0  0  3  0  0  0  0  0  0
  188.7520  178.2300  136.5200 C   0  0  0  0  0  3  0  0  0  0  0  0
  188.9660  177.4630  137.6740 C   0  0  0  0  0  0  0  0  0  0  0  0
  190.4000  175.9790  136.3850 C   0  0  0  0  0  3  0  0  0  0  0  0
  185.4490  178.4500  145.5360 C   0  0  0  0  0  3  0  0  0  0  0  0
  185.6510  178.6780  142.7390 C   0  0  0  0  0  0  0  0  0  0  0  0
  186.5340  177.8540  143.4580 C   0  0  0  0  0  3  0  0  0  0  0  0
  186.4360  177.7430  144.8470 C   0  0  0  0  0  3  0  0  0  0  0  0
  184.5590  179.2670  144.8350 C   0  0  0  0  0  3  0  0  0  0  0  0
  184.6570  179.3780  143.4460 C   0  0  0  0  0  3  0  0  0  0  0  0
  1  7  1  0  0  0  0
  2  4  1  0  0  0  0
  2  7  1  0  0  0  0
  3 15  1  0  0  0  0
  3 10  1  0  0  0  0
  5  6  1  0  0  0  0
  6 13  1  0  0  0  0
  7 23  1  0  0  0  0
  8 10  1  0  0  0  0
  8 12  2  0  0  0  0
  9 14  1  0  0  0  0
  9  1  1  0  0  0  0
 10  2  2  0  0  0  0
 11  6  2  0  0  0  0
 11 15  1  0  0  0  0
 12  4  1  0  0  0  0
 13 14  2  0  0  0  0
 15  9  2  0  0  0  0
 16 20  1  0  0  0  0
 17 18  2  0  0  0  0
 17 21  1  0  0  0  0
 18 19  1  0  0  0  0
 19 20  2  0  0  0  0
 20  8  1  0  0  0  0
 21 16  2  0  0  0  0
 23 27  2  0  0  0  0
 23 24  1  0  0  0  0
 24 25  2  0  0  0  0
 25 22  1  0  0  0  0
 26 22  2  0  0  0  0
 27 26  1  0  0  0  0
M  END
>  <MODEL>
7

>  <REMARK>
 VINA RESULT:      -7.5      3.013      6.356
  Name = 
  2 active torsions:
  status: ('A' for Active; 'I' for Inactive)
    1  A    between atoms: C_9  and  N_15
    2  A    between atoms: C_14  and  C_17
                            x       y       z     vdW  Elec       q    Type
                         _______ _______ _______ _____ _____    ______ ____

>  <TORSDO>
F 2

$$$$
=
 OpenBabel10262420133D

 27 31  0  0  0  0  0  0  0  0999 V2000
  184.9650  179.3860  139.3910 C   0  0  0  0  0  2  0  0  0  0  0  0
  186.8500  178.5010  140.8060 C   0  0  0  0  0  0  0  0  0  0  0  0
  187.3940  178.2070  138.2840 C   0  0  0  0  0  2  0  0  0  0  0  0
  187.4930  178.3850  141.9850 N   0  0  0  0  0  2  0  0  0  0  0  0
  184.6310  174.8720  135.9640 O   0  0  0  0  0  1  0  0  0  0  0  0
  184.7140  175.9820  136.7930 C   0  0  0  0  0  0  0  0  0  0  0  0
  185.4780  178.9470  140.6890 N   0  0  0  0  0  0  0  0  0  0  0  0
  188.8960  177.7900  140.3410 C   0  0  0  0  0  0  0  0  0  0  0  0
  184.8780  178.2240  138.4590 C   0  0  0  0  0  0  0  0  0  0  0  0
  187.6870  178.1340  139.7570 C   0  0  0  0  0  0  0  0  0  0  0  0
  185.9630  176.5190  137.1170 C   0  0  0  0  0  3  0  0  0  0  0  0
  188.7390  177.9530  141.7090 C   0  0  0  0  0  3  0  0  0  0  0  0
  183.5480  176.5600  137.3050 C   0  0  0  0  0  3  0  0  0  0  0  0
  183.6300  177.6790  138.1410 C   0  0  0  0  0  3  0  0  0  0  0  0
  186.0500  177.6380  137.9530 C   0  0  0  0  0  0  0  0  0  0  0  0
  191.3760  177.5060  140.3220 C   0  0  0  0  0  3  0  0  0  0  0  0
  192.5180  176.4760  138.4530 C   0  0  0  0  0  3  0  0  0  0  0  0
  191.2950  176.3000  137.8050 C   0  0  0  0  0  3  0  0  0  0  0  0
  190.1130  176.7280  138.4150 C   0  0  0  0  0  3  0  0  0  0  0  0
  190.1410  177.3360  139.6780 C   0  0  0  0  0  0  0  0  0  0  0  0
  192.5600  177.0790  139.7140 C   0  0  0  0  0  3  0  0  0  0  0  0
  182.8180  178.8840  144.0130 C   0  0  0  0  0  3  0  0  0  0  0  0
  184.5770  178.9450  141.8180 C   0  0  0  0  0  0  0  0  0  0  0  0
  185.0440  179.1990  143.1190 C   0  0  0  0  0  3  0  0  0  0  0  0
  184.1710  179.1720  144.2090 C   0  0  0  0  0  3  0  0  0  0  0  0
  182.3410  178.6210  142.7270 C   0  0  0  0  0  3  0  0  0  0  0  0
  183.2150  178.6470  141.6380 C   0  0  0  0  0  3  0  0  0  0  0  0
  1  7  1  0  0  0  0
  2  4  1  0  0  0  0
  3 10  1  0  0  0  0
  5  6  1  0  0  0  0
  6 11  2  0  0  0  0
  6 13  1  0  0  0  0
  7  2  1  0  0  0  0
  7 23  1  0  0  0  0
  8 12  2  0  0  0  0
  9  1  1  0  0  0  0
 10  8  1  0  0  0  0
 10  2  2  0  0  0  0
 11 15  1  0  0  0  0
 12  4  1  0  0  0  0
 13 14  2  0  0  0  0
 14  9  1  0  0  0  0
 15  3  1  0  0  0  0
 15  9  2  0  0  0  0
 17 21  2  0  0  0  0
 18 19  2  0  0  0  0
 18 17  1  0  0  0  0
 19 20  1  0  0  0  0
 20 16  2  0  0  0  0
 20  8  1  0  0  0  0
 21 16  1  0  0  0  0
 22 25  1  0  0  0  0
 23 24  1  0  0  0  0
 24 25  2  0  0  0  0
 26 22  2  0  0  0  0
 27 23  2  0  0  0  0
 27 26  1  0  0  0  0
M  END
>  <MODEL>
8

>  <REMARK>
 VINA RESULT:      -7.3      3.104      4.809
  Name = 
  2 active torsions:
  status: ('A' for Active; 'I' for Inactive)
    1  A    between atoms: C_9  and  N_15
    2  A    between atoms: C_14  and  C_17
                            x       y       z     vdW  Elec       q    Type
                         _______ _______ _______ _____ _____    ______ ____

>  <TORSDO>
F 2

$$$$
=
 OpenBabel10262420133D

 27 31  0  0  0  0  0  0  0  0999 V2000
  186.9170  179.2480  139.1590 C   0  0  0  0  0  2  0  0  0  0  0  0
  185.8880  178.3610  141.2780 C   0  0  0  0  0  0  0  0  0  0  0  0
  188.4720  178.4720  141.5020 C   0  0  0  0  0  2  0  0  0  0  0  0
  184.8250  178.1470  142.0790 N   0  0  0  0  0  2  0  0  0  0  0  0
  190.9140  175.2390  138.7220 O   0  0  0  0  0  1  0  0  0  0  0  0
  189.9440  176.2270  138.8280 C   0  0  0  0  0  0  0  0  0  0  0  0
  185.7710  178.6860  139.8730 N   0  0  0  0  0  0  0  0  0  0  0  0
  186.6970  177.9210  143.2920 C   0  0  0  0  0  0  0  0  0  0  0  0
  187.9950  178.2230  139.0380 C   0  0  0  0  0  0  0  0  0  0  0  0
  187.0740  178.2250  141.9930 C   0  0  0  0  0  0  0  0  0  0  0  0
  189.6970  176.8310  140.0640 C   0  0  0  0  0  3  0  0  0  0  0  0
  185.3120  177.8780  143.3070 C   0  0  0  0  0  3  0  0  0  0  0  0
  189.2150  176.6150  137.7000 C   0  0  0  0  0  3  0  0  0  0  0  0
  188.2390  177.6100  137.8060 C   0  0  0  0  0  3  0  0  0  0  0  0
  188.7210  177.8270  140.1750 C   0  0  0  0  0  0  0  0  0  0  0  0
  188.9040  177.3050  144.2850 C   0  0  0  0  0  3  0  0  0  0  0  0
  189.2400  177.2380  146.6810 C   0  0  0  0  0  3  0  0  0  0  0  0
  187.9110  177.6160  146.8760 C   0  0  0  0  0  3  0  0  0  0  0  0
  187.0780  177.8380  145.7760 C   0  0  0  0  0  3  0  0  0  0  0  0
  187.5650  177.6840  144.4700 C   0  0  0  0  0  0  0  0  0  0  0  0
  189.7380  177.0820  145.3840 C   0  0  0  0  0  3  0  0  0  0  0  0
  182.1990  178.0080  137.6560 C   0  0  0  0  0  3  0  0  0  0  0  0
  184.5540  178.4410  139.1330 C   0  0  0  0  0  0  0  0  0  0  0  0
  184.4200  177.3090  138.3110 C   0  0  0  0  0  3  0  0  0  0  0  0
  183.2500  177.0920  137.5800 C   0  0  0  0  0  3  0  0  0  0  0  0
  182.3200  179.1430  138.4620 C   0  0  0  0  0  3  0  0  0  0  0  0
  183.4920  179.3600  139.1920 C   0  0  0  0  0  3  0  0  0  0  0  0
  1  7  1  0  0  0  0
  2 10  2  0  0  0  0
  2  4  1  0  0  0  0
  3 10  1  0  0  0  0
  4 12  1  0  0  0  0
  5  6  1  0  0  0  0
  6 11  1  0  0  0  0
  7  2  1  0  0  0  0
  8 12  2  0  0  0  0
  8 20  1  0  0  0  0
  9  1  1  0  0  0  0
  9 15  1  0  0  0  0
 10  8  1  0  0  0  0
 11 15  2  0  0  0  0
 13 14  1  0  0  0  0
 13  6  2  0  0  0  0
 14  9  2  0  0  0  0
 15  3  1  0  0  0  0
 16 20  2  0  0  0  0
 16 21  1  0  0  0  0
 17 18  1  0  0  0  0
 19 18  2  0  0  0  0
 20 19  1  0  0  0  0
 21 17  2  0  0  0  0
 22 26  1  0  0  0  0
 23 27  1  0  0  0  0
 23  7  1  0  0  0  0
 24 23  2  0  0  0  0
 25 22  2  0  0  0  0
 25 24  1  0  0  0  0
 26 27  2  0  0  0  0
M  END
>  <MODEL>
9

>  <REMARK>
 VINA RESULT:      -7.2      1.559      2.451
  Name = 
  2 active torsions:
  status: ('A' for Active; 'I' for Inactive)
    1  A    between atoms: C_9  and  N_15
    2  A    between atoms: C_14  and  C_17
                            x       y       z     vdW  Elec       q    Type
                         _______ _______ _______ _____ _____    ______ ____

>  <TORSDO>
F 2

$$$$
