=
 OpenBabel10262423233D

 34 39  0  0  0  0  0  0  0  0999 V2000
  184.0790  178.6730  141.8260 C   0  0  0  0  0  0  0  0  0  0  0  0
  185.3140  178.3640  138.2880 C   0  0  0  0  0  3  0  0  0  0  0  0
  182.8820  178.5390  139.0760 S   0  0  0  0  0  0  0  0  0  0  0  0
  183.5540  178.8670  144.2340 C   0  0  0  0  0  0  0  0  0  0  0  0
  184.4930  178.7450  143.1810 C   0  0  0  0  0  3  0  0  0  0  0  0
  181.7790  178.8390  142.6290 C   0  0  0  0  0  0  0  0  0  0  0  0
  180.5280  178.8570  142.0370 C   0  0  0  0  0  3  0  0  0  0  0  0
  182.1700  178.9100  143.9620 C   0  0  0  0  0  3  0  0  0  0  0  0
  182.0330  178.6810  140.5100 C   0  0  0  0  0  0  0  0  0  0  0  0
  182.6900  178.7280  141.6280 C   0  0  0  0  0  0  0  0  0  0  0  0
  180.6950  178.7570  140.6890 N   0  0  0  0  0  0  0  0  0  0  0  0
  186.7640  178.2780  138.0970 C   0  0  0  0  0  3  0  0  0  0  0  0
  187.7480  178.2900  138.9930 C   0  0  0  0  0  0  0  0  0  0  0  0
  187.5530  178.4000  140.4410 C   0  0  0  0  0  3  0  0  0  0  0  0
  184.5620  178.4780  139.3820 C   0  0  0  0  0  0  0  0  0  0  0  0
  186.4340  178.5060  141.1470 C   0  0  0  0  0  3  0  0  0  0  0  0
  185.0120  178.5500  140.7410 C   0  0  0  0  0  0  0  0  0  0  0  0
  189.1370  178.1870  138.5000 C   0  0  0  0  0  0  0  0  0  0  0  0
  190.0830  177.9310  139.2940 O   0  0  0  0  0  0  0  0  0  0  0  0
  189.4280  178.3780  137.1180 N   0  0  0  0  0  1  0  0  0  0  0  0
  184.0290  178.9090  145.6470 C   0  0  0  0  0  2  0  0  0  0  0  0
  187.3450  177.3090  144.7450 C   0  0  0  0  0  3  0  0  0  0  0  0
  186.1530  178.5950  146.9350 C   0  0  0  0  0  3  0  0  0  0  0  0
  190.1000  177.1690  147.2220 C   0  0  0  0  0  0  0  0  0  0  0  0
  189.3770  177.0040  146.0310 C   0  0  0  0  0  3  0  0  0  0  0  0
  188.0660  177.4760  145.9310 C   0  0  0  0  0  0  0  0  0  0  0  0
  188.1840  178.2870  148.2210 C   0  0  0  0  0  3  0  0  0  0  0  0
  187.4650  178.1240  147.0340 C   0  0  0  0  0  0  0  0  0  0  0  0
  189.4960  177.8120  148.3120 C   0  0  0  0  0  3  0  0  0  0  0  0
  185.4390  178.4290  145.7440 C   0  0  0  0  0  0  0  0  0  0  0  0
  186.0330  177.7830  144.6530 C   0  0  0  0  0  3  0  0  0  0  0  0
  191.4800  176.6690  147.3190 C   0  0  0  0  0  0  0  0  0  0  0  0
  192.2080  176.9910  148.2970 O   0  0  0  0  0  1  0  0  0  0  0  0
  191.9950  175.8350  146.3340 O   0  0  0  0  0  0  0  0  0  0  0  0
  1  5  1  0  0  0  0
  2 15  2  0  0  0  0
  3 15  1  0  0  0  0
  3  9  1  0  0  0  0
  4 21  1  0  0  0  0
  5  4  2  0  0  0  0
  6  8  2  0  0  0  0
  7  6  1  0  0  0  0
  8  4  1  0  0  0  0
  9 11  1  0  0  0  0
  9 10  2  0  0  0  0
 10  1  1  0  0  0  0
 10  6  1  0  0  0  0
 11  7  2  0  0  0  0
 12  2  1  0  0  0  0
 12 13  2  0  0  0  0
 13 14  1  0  0  0  0
 14 16  2  0  0  0  0
 15 17  1  0  0  0  0
 17 16  1  0  0  0  0
 17  1  2  0  0  0  0
 18 13  1  0  0  0  0
 18 19  2  0  0  0  0
 20 18  1  0  0  0  0
 21 30  1  0  0  0  0
 22 26  1  0  0  0  0
 23 28  1  0  0  0  0
 24 32  1  0  0  0  0
 24 29  1  0  0  0  0
 25 24  2  0  0  0  0
 26 25  1  0  0  0  0
 26 28  2  0  0  0  0
 27 29  2  0  0  0  0
 28 27  1  0  0  0  0
 30 23  2  0  0  0  0
 31 22  2  0  0  0  0
 31 30  1  0  0  0  0
 32 33  1  0  0  0  0
 34 32  2  0  0  0  0
M  END
>  <MODEL>
1

>  <REMARK>
 VINA RESULT:     -12.8      0.000      0.000
  Name = 
  4 active torsions:
  status: ('A' for Active; 'I' for Inactive)
    1  A    between atoms: C_3  and  C_25
    2  A    between atoms: C_7  and  C_11
    3  A    between atoms: C_8  and  C_18
    4  A    between atoms: C_18  and  C_30
                            x       y       z     vdW  Elec       q    Type
                         _______ _______ _______ _____ _____    ______ ____

>  <TORSDO>
F 4

$$$$
=
 OpenBabel10262423233D

 34 39  0  0  0  0  0  0  0  0999 V2000
  183.9660  178.6780  141.8010 C   0  0  0  0  0  0  0  0  0  0  0  0
  185.3690  178.3520  138.3270 C   0  0  0  0  0  3  0  0  0  0  0  0
  182.9000  178.5020  139.0000 S   0  0  0  0  0  0  0  0  0  0  0  0
  183.3260  178.8880  144.1790 C   0  0  0  0  0  0  0  0  0  0  0  0
  184.3150  178.7690  143.1720 C   0  0  0  0  0  3  0  0  0  0  0  0
  181.6290  178.8220  142.4940 C   0  0  0  0  0  0  0  0  0  0  0  0
  180.4060  178.8170  141.8440 C   0  0  0  0  0  3  0  0  0  0  0  0
  181.9560  178.9100  143.8420 C   0  0  0  0  0  3  0  0  0  0  0  0
  181.9830  178.6470  140.3900 C   0  0  0  0  0  0  0  0  0  0  0  0
  182.5870  178.7130  141.5370 C   0  0  0  0  0  0  0  0  0  0  0  0
  180.6380  178.7060  140.5060 N   0  0  0  0  0  0  0  0  0  0  0  0
  186.8270  178.2830  138.2050 C   0  0  0  0  0  3  0  0  0  0  0  0
  187.7670  178.3180  139.1450 C   0  0  0  0  0  0  0  0  0  0  0  0
  187.5040  178.4380  140.5810 C   0  0  0  0  0  3  0  0  0  0  0  0
  184.5650  178.4660  139.3840 C   0  0  0  0  0  0  0  0  0  0  0  0
  186.3520  178.5360  141.2340 C   0  0  0  0  0  3  0  0  0  0  0  0
  184.9500  178.5570  140.7610 C   0  0  0  0  0  0  0  0  0  0  0  0
  189.1800  178.2280  138.7190 C   0  0  0  0  0  0  0  0  0  0  0  0
  189.5270  178.5960  137.5650 O   0  0  0  0  0  0  0  0  0  0  0  0
  190.1710  177.7220  139.6100 N   0  0  0  0  0  1  0  0  0  0  0  0
  183.7340  178.9510  145.6130 C   0  0  0  0  0  2  0  0  0  0  0  0
  187.2010  178.5380  147.0910 C   0  0  0  0  0  3  0  0  0  0  0  0
  185.8280  177.8990  144.7290 C   0  0  0  0  0  3  0  0  0  0  0  0
  189.8830  176.8670  145.1540 C   0  0  0  0  0  0  0  0  0  0  0  0
  189.2130  177.5300  146.1930 C   0  0  0  0  0  3  0  0  0  0  0  0
  187.8660  177.8750  146.0570 C   0  0  0  0  0  0  0  0  0  0  0  0
  187.8410  176.8940  143.8310 C   0  0  0  0  0  3  0  0  0  0  0  0
  187.1750  177.5530  144.8660 C   0  0  0  0  0  0  0  0  0  0  0  0
  189.1890  176.5520  143.9760 C   0  0  0  0  0  3  0  0  0  0  0  0
  185.1650  178.5580  145.7700 C   0  0  0  0  0  0  0  0  0  0  0  0
  185.8520  178.8810  146.9470 C   0  0  0  0  0  3  0  0  0  0  0  0
  191.3010  176.5070  145.3050 C   0  0  0  0  0  0  0  0  0  0  0  0
  191.9550  176.8960  146.3100 O   0  0  0  0  0  1  0  0  0  0  0  0
  191.9340  175.7320  144.3410 O   0  0  0  0  0  0  0  0  0  0  0  0
  1  5  1  0  0  0  0
  2 15  2  0  0  0  0
  3 15  1  0  0  0  0
  3  9  1  0  0  0  0
  4 21  1  0  0  0  0
  5  4  2  0  0  0  0
  6  8  2  0  0  0  0
  7  6  1  0  0  0  0
  8  4  1  0  0  0  0
  9 11  1  0  0  0  0
  9 10  2  0  0  0  0
 10  1  1  0  0  0  0
 10  6  1  0  0  0  0
 11  7  2  0  0  0  0
 12  2  1  0  0  0  0
 12 13  2  0  0  0  0
 13 14  1  0  0  0  0
 14 16  2  0  0  0  0
 15 17  1  0  0  0  0
 17 16  1  0  0  0  0
 17  1  2  0  0  0  0
 18 13  1  0  0  0  0
 18 20  1  0  0  0  0
 19 18  2  0  0  0  0
 21 30  1  0  0  0  0
 23 28  2  0  0  0  0
 23 30  1  0  0  0  0
 24 32  1  0  0  0  0
 24 25  2  0  0  0  0
 26 25  1  0  0  0  0
 26 22  2  0  0  0  0
 27 29  2  0  0  0  0
 27 28  1  0  0  0  0
 28 26  1  0  0  0  0
 29 24  1  0  0  0  0
 30 31  2  0  0  0  0
 31 22  1  0  0  0  0
 32 33  1  0  0  0  0
 34 32  2  0  0  0  0
M  END
>  <MODEL>
2

>  <REMARK>
 VINA RESULT:     -12.6      0.954      1.668
  Name = 
  4 active torsions:
  status: ('A' for Active; 'I' for Inactive)
    1  A    between atoms: C_3  and  C_25
    2  A    between atoms: C_7  and  C_11
    3  A    between atoms: C_8  and  C_18
    4  A    between atoms: C_18  and  C_30
                            x       y       z     vdW  Elec       q    Type
                         _______ _______ _______ _____ _____    ______ ____

>  <TORSDO>
F 4

$$$$
=
 OpenBabel10262423233D

 34 39  0  0  0  0  0  0  0  0999 V2000
  188.7060  177.7440  144.2060 C   0  0  0  0  0  0  0  0  0  0  0  0
  191.0560  177.0300  141.3590 C   0  0  0  0  0  3  0  0  0  0  0  0
  191.4410  176.5600  143.8490 S   0  0  0  0  0  0  0  0  0  0  0  0
  186.9740  178.3230  145.8730 C   0  0  0  0  0  0  0  0  0  0  0  0
  187.4340  178.2780  144.5340 C   0  0  0  0  0  3  0  0  0  0  0  0
  189.0250  177.3200  146.5900 C   0  0  0  0  0  0  0  0  0  0  0  0
  190.0340  176.7770  147.3670 C   0  0  0  0  0  3  0  0  0  0  0  0
  187.7810  177.8420  146.9260 C   0  0  0  0  0  3  0  0  0  0  0  0
  190.6360  176.7470  145.3020 C   0  0  0  0  0  0  0  0  0  0  0  0
  189.4520  177.2780  145.3010 C   0  0  0  0  0  0  0  0  0  0  0  0
  191.0560  176.4150  146.5430 N   0  0  0  0  0  0  0  0  0  0  0  0
  190.6000  177.3960  140.0160 C   0  0  0  0  0  3  0  0  0  0  0  0
  189.4600  177.9560  139.6220 C   0  0  0  0  0  0  0  0  0  0  0  0
  188.3680  178.3410  140.5200 C   0  0  0  0  0  3  0  0  0  0  0  0
  190.4850  177.1430  142.5580 C   0  0  0  0  0  0  0  0  0  0  0  0
  188.2660  178.2280  141.8380 C   0  0  0  0  0  3  0  0  0  0  0  0
  189.1940  177.6880  142.8570 C   0  0  0  0  0  0  0  0  0  0  0  0
  189.2740  178.2120  138.1780 C   0  0  0  0  0  0  0  0  0  0  0  0
  189.4980  177.3070  137.3310 O   0  0  0  0  0  0  0  0  0  0  0  0
  188.8370  179.4910  137.7230 N   0  0  0  0  0  1  0  0  0  0  0  0
  185.6420  178.9200  146.1780 C   0  0  0  0  0  2  0  0  0  0  0  0
  182.5460  178.6440  144.0090 C   0  0  0  0  0  3  0  0  0  0  0  0
  185.3140  178.9730  143.6970 C   0  0  0  0  0  3  0  0  0  0  0  0
  182.8220  178.7750  140.3150 C   0  0  0  0  0  0  0  0  0  0  0  0
  182.2710  178.6780  141.6010 C   0  0  0  0  0  3  0  0  0  0  0  0
  183.0950  178.7430  142.7280 C   0  0  0  0  0  0  0  0  0  0  0  0
  185.0390  179.0040  141.2900 C   0  0  0  0  0  3  0  0  0  0  0  0
  184.4900  178.9090  142.5700 C   0  0  0  0  0  0  0  0  0  0  0  0
  184.2070  178.9380  140.1680 C   0  0  0  0  0  3  0  0  0  0  0  0
  184.7580  178.8780  144.9770 C   0  0  0  0  0  0  0  0  0  0  0  0
  183.3770  178.7090  145.1320 C   0  0  0  0  0  3  0  0  0  0  0  0
  181.9480  178.7050  139.1330 C   0  0  0  0  0  0  0  0  0  0  0  0
  180.6950  178.7580  139.2620 O   0  0  0  0  0  1  0  0  0  0  0  0
  182.4960  178.5810  137.8630 O   0  0  0  0  0  0  0  0  0  0  0  0
  1  5  1  0  0  0  0
  1 10  1  0  0  0  0
  2 15  2  0  0  0  0
  3  9  1  0  0  0  0
  4 21  1  0  0  0  0
  4  8  1  0  0  0  0
  5  4  2  0  0  0  0
  6  8  2  0  0  0  0
  6  7  1  0  0  0  0
  9 11  1  0  0  0  0
 10  9  2  0  0  0  0
 10  6  1  0  0  0  0
 11  7  2  0  0  0  0
 12  2  1  0  0  0  0
 13 12  2  0  0  0  0
 13 14  1  0  0  0  0
 14 16  2  0  0  0  0
 15 17  1  0  0  0  0
 15  3  1  0  0  0  0
 16 17  1  0  0  0  0
 17  1  2  0  0  0  0
 18 13  1  0  0  0  0
 19 18  2  0  0  0  0
 20 18  1  0  0  0  0
 22 31  1  0  0  0  0
 23 30  1  0  0  0  0
 24 25  2  0  0  0  0
 25 26  1  0  0  0  0
 26 22  2  0  0  0  0
 27 28  1  0  0  0  0
 28 26  1  0  0  0  0
 28 23  2  0  0  0  0
 29 24  1  0  0  0  0
 29 27  2  0  0  0  0
 30 31  2  0  0  0  0
 30 21  1  0  0  0  0
 32 33  1  0  0  0  0
 32 24  1  0  0  0  0
 34 32  2  0  0  0  0
M  END
>  <MODEL>
3

>  <REMARK>
 VINA RESULT:     -12.3      3.595      7.355
  Name = 
  4 active torsions:
  status: ('A' for Active; 'I' for Inactive)
    1  A    between atoms: C_3  and  C_25
    2  A    between atoms: C_7  and  C_11
    3  A    between atoms: C_8  and  C_18
    4  A    between atoms: C_18  and  C_30
                            x       y       z     vdW  Elec       q    Type
                         _______ _______ _______ _____ _____    ______ ____

>  <TORSDO>
F 4

$$$$
=
 OpenBabel10262423233D

 34 39  0  0  0  0  0  0  0  0999 V2000
  187.3450  177.8420  144.8920 C   0  0  0  0  0  0  0  0  0  0  0  0
  183.7410  178.8100  145.3490 C   0  0  0  0  0  3  0  0  0  0  0  0
  185.5230  178.5470  147.1720 S   0  0  0  0  0  0  0  0  0  0  0  0
  189.6550  177.1890  144.3010 C   0  0  0  0  0  0  0  0  0  0  0  0
  188.3220  177.4880  143.9270 C   0  0  0  0  0  3  0  0  0  0  0  0
  189.0790  177.5750  146.5910 C   0  0  0  0  0  0  0  0  0  0  0  0
  189.1370  177.7030  147.9680 C   0  0  0  0  0  3  0  0  0  0  0  0
  190.0470  177.2250  145.6550 C   0  0  0  0  0  3  0  0  0  0  0  0
  187.1420  178.1470  147.2980 C   0  0  0  0  0  0  0  0  0  0  0  0
  187.8050  177.8650  146.2190 C   0  0  0  0  0  0  0  0  0  0  0  0
  187.9020  178.0670  148.4120 N   0  0  0  0  0  0  0  0  0  0  0  0
  182.9180  178.8910  144.1400 C   0  0  0  0  0  3  0  0  0  0  0  0
  183.2410  178.6730  142.8680 C   0  0  0  0  0  0  0  0  0  0  0  0
  184.5740  178.2820  142.4040 C   0  0  0  0  0  3  0  0  0  0  0  0
  185.0240  178.5030  145.5380 C   0  0  0  0  0  0  0  0  0  0  0  0
  185.6910  178.0710  143.0910 C   0  0  0  0  0  3  0  0  0  0  0  0
  185.9880  178.1500  144.5390 C   0  0  0  0  0  0  0  0  0  0  0  0
  182.1860  178.8340  141.8450 C   0  0  0  0  0  0  0  0  0  0  0  0
  182.3770  178.4500  140.6600 O   0  0  0  0  0  0  0  0  0  0  0  0
  180.9360  179.4290  142.1860 N   0  0  0  0  0  1  0  0  0  0  0  0
  190.6440  176.7920  143.2570 C   0  0  0  0  0  2  0  0  0  0  0  0
  188.6400  178.4180  140.4800 C   0  0  0  0  0  3  0  0  0  0  0  0
  190.6660  176.4990  140.7710 C   0  0  0  0  0  3  0  0  0  0  0  0
  189.1960  177.4480  136.9460 C   0  0  0  0  0  0  0  0  0  0  0  0
  188.6760  178.0910  138.0790 C   0  0  0  0  0  3  0  0  0  0  0  0
  189.1610  177.7790  139.3510 C   0  0  0  0  0  0  0  0  0  0  0  0
  190.6980  176.1700  138.3700 C   0  0  0  0  0  3  0  0  0  0  0  0
  190.1810  176.8120  139.4970 C   0  0  0  0  0  0  0  0  0  0  0  0
  190.2080  176.4880  137.1000 C   0  0  0  0  0  3  0  0  0  0  0  0
  190.1440  177.1460  141.8960 C   0  0  0  0  0  0  0  0  0  0  0  0
  189.1300  178.1000  141.7500 C   0  0  0  0  0  3  0  0  0  0  0  0
  188.6800  177.7810  135.6090 C   0  0  0  0  0  0  0  0  0  0  0  0
  189.4340  177.7220  134.6010 O   0  0  0  0  0  0  0  0  0  0  0  0
  187.3540  178.1640  135.4450 O   0  0  0  0  0  1  0  0  0  0  0  0
  1 10  1  0  0  0  0
  2 15  2  0  0  0  0
  3  9  1  0  0  0  0
  4  8  1  0  0  0  0
  5  4  2  0  0  0  0
  5  1  1  0  0  0  0
  6  7  1  0  0  0  0
  7 11  2  0  0  0  0
  8  6  2  0  0  0  0
  9 11  1  0  0  0  0
 10  6  1  0  0  0  0
 10  9  2  0  0  0  0
 12  2  1  0  0  0  0
 13 12  2  0  0  0  0
 14 13  1  0  0  0  0
 14 16  2  0  0  0  0
 15  3  1  0  0  0  0
 16 17  1  0  0  0  0
 17  1  2  0  0  0  0
 17 15  1  0  0  0  0
 18 20  1  0  0  0  0
 18 13  1  0  0  0  0
 19 18  2  0  0  0  0
 21  4  1  0  0  0  0
 22 31  1  0  0  0  0
 23 30  1  0  0  0  0
 24 29  1  0  0  0  0
 24 25  2  0  0  0  0
 25 26  1  0  0  0  0
 26 28  1  0  0  0  0
 26 22  2  0  0  0  0
 27 28  1  0  0  0  0
 28 23  2  0  0  0  0
 29 27  2  0  0  0  0
 30 21  1  0  0  0  0
 31 30  2  0  0  0  0
 32 24  1  0  0  0  0
 33 32  2  0  0  0  0
 34 32  1  0  0  0  0
M  END
>  <MODEL>
4

>  <REMARK>
 VINA RESULT:     -11.9      3.986      8.157
  Name = 
  4 active torsions:
  status: ('A' for Active; 'I' for Inactive)
    1  A    between atoms: C_3  and  C_25
    2  A    between atoms: C_7  and  C_11
    3  A    between atoms: C_8  and  C_18
    4  A    between atoms: C_18  and  C_30
                            x       y       z     vdW  Elec       q    Type
                         _______ _______ _______ _____ _____    ______ ____

>  <TORSDO>
F 4

$$$$
=
 OpenBabel10262423233D

 34 39  0  0  0  0  0  0  0  0999 V2000
  186.3600  178.2150  143.9400 C   0  0  0  0  0  0  0  0  0  0  0  0
  187.8600  177.5210  147.3170 C   0  0  0  0  0  3  0  0  0  0  0  0
  185.4690  178.2890  146.8060 S   0  0  0  0  0  0  0  0  0  0  0  0
  185.6400  178.6000  141.6070 C   0  0  0  0  0  0  0  0  0  0  0  0
  186.6320  178.2320  142.5490 C   0  0  0  0  0  3  0  0  0  0  0  0
  184.0950  178.9510  143.4000 C   0  0  0  0  0  0  0  0  0  0  0  0
  182.9570  179.2510  144.1280 C   0  0  0  0  0  3  0  0  0  0  0  0
  184.3480  178.9720  142.0330 C   0  0  0  0  0  3  0  0  0  0  0  0
  184.5290  178.6700  145.4770 C   0  0  0  0  0  0  0  0  0  0  0  0
  185.0530  178.5910  144.2920 C   0  0  0  0  0  0  0  0  0  0  0  0
  183.2380  179.0700  145.4490 N   0  0  0  0  0  0  0  0  0  0  0  0
  189.2600  177.0920  147.3450 C   0  0  0  0  0  3  0  0  0  0  0  0
  190.1170  176.9000  146.3460 C   0  0  0  0  0  0  0  0  0  0  0  0
  189.8000  177.0980  144.9290 C   0  0  0  0  0  3  0  0  0  0  0  0
  187.0430  177.8410  146.3140 C   0  0  0  0  0  0  0  0  0  0  0  0
  188.6680  177.4830  144.3520 C   0  0  0  0  0  3  0  0  0  0  0  0
  187.3480  177.8460  144.9140 C   0  0  0  0  0  0  0  0  0  0  0  0
  191.4870  176.4580  146.6800 C   0  0  0  0  0  0  0  0  0  0  0  0
  192.1430  175.7380  145.8790 O   0  0  0  0  0  0  0  0  0  0  0  0
  192.0860  176.8380  147.9160 N   0  0  0  0  0  1  0  0  0  0  0  0
  185.9760  178.6320  140.1540 C   0  0  0  0  0  2  0  0  0  0  0  0
  189.6480  177.8850  140.7250 C   0  0  0  0  0  3  0  0  0  0  0  0
  187.7380  177.6270  138.6860 C   0  0  0  0  0  3  0  0  0  0  0  0
  191.7020  176.3860  138.0280 C   0  0  0  0  0  0  0  0  0  0  0  0
  191.3310  176.9280  139.2670 C   0  0  0  0  0  3  0  0  0  0  0  0
  190.0160  177.3420  139.4910 C   0  0  0  0  0  0  0  0  0  0  0  0
  189.4230  176.6740  137.2290 C   0  0  0  0  0  3  0  0  0  0  0  0
  189.0540  177.2120  138.4630 C   0  0  0  0  0  0  0  0  0  0  0  0
  190.7410  176.2620  137.0140 C   0  0  0  0  0  3  0  0  0  0  0  0
  187.3740  178.1650  139.9260 C   0  0  0  0  0  0  0  0  0  0  0  0
  188.3290  178.2970  140.9410 C   0  0  0  0  0  3  0  0  0  0  0  0
  193.0890  175.9520  137.8000 C   0  0  0  0  0  0  0  0  0  0  0  0
  193.9780  176.7910  137.4910 O   0  0  0  0  0  0  0  0  0  0  0  0
  193.4340  174.6120  137.9250 O   0  0  0  0  0  1  0  0  0  0  0  0
  1 10  1  0  0  0  0
  1 17  2  0  0  0  0
  2 12  1  0  0  0  0
  4  8  1  0  0  0  0
  4  5  2  0  0  0  0
  5  1  1  0  0  0  0
  6  7  1  0  0  0  0
  6 10  1  0  0  0  0
  7 11  2  0  0  0  0
  8  6  2  0  0  0  0
  9  3  1  0  0  0  0
 10  9  2  0  0  0  0
 11  9  1  0  0  0  0
 13 18  1  0  0  0  0
 13 12  2  0  0  0  0
 14 13  1  0  0  0  0
 15  3  1  0  0  0  0
 15  2  2  0  0  0  0
 16 17  1  0  0  0  0
 16 14  2  0  0  0  0
 17 15  1  0  0  0  0
 18 20  1  0  0  0  0
 19 18  2  0  0  0  0
 21  4  1  0  0  0  0
 22 31  1  0  0  0  0
 23 30  1  0  0  0  0
 24 25  2  0  0  0  0
 25 26  1  0  0  0  0
 26 22  2  0  0  0  0
 27 28  1  0  0  0  0
 28 23  2  0  0  0  0
 28 26  1  0  0  0  0
 29 27  2  0  0  0  0
 29 24  1  0  0  0  0
 30 21  1  0  0  0  0
 30 31  2  0  0  0  0
 32 34  1  0  0  0  0
 32 24  1  0  0  0  0
 33 32  2  0  0  0  0
M  END
>  <MODEL>
5

>  <REMARK>
 VINA RESULT:     -11.9      3.167      7.271
  Name = 
  4 active torsions:
  status: ('A' for Active; 'I' for Inactive)
    1  A    between atoms: C_3  and  C_25
    2  A    between atoms: C_7  and  C_11
    3  A    between atoms: C_8  and  C_18
    4  A    between atoms: C_18  and  C_30
                            x       y       z     vdW  Elec       q    Type
                         _______ _______ _______ _____ _____    ______ ____

>  <TORSDO>
F 4

$$$$
=
 OpenBabel10262423233D

 34 39  0  0  0  0  0  0  0  0999 V2000
  185.5470  178.5070  141.5480 C   0  0  0  0  0  0  0  0  0  0  0  0
  187.8890  177.9230  138.6640 C   0  0  0  0  0  3  0  0  0  0  0  0
  185.3610  178.3320  138.5560 S   0  0  0  0  0  0  0  0  0  0  0  0
  184.2460  178.8620  143.6200 C   0  0  0  0  0  0  0  0  0  0  0  0
  185.4750  178.6130  142.9600 C   0  0  0  0  0  3  0  0  0  0  0  0
  183.1370  178.8970  141.5000 C   0  0  0  0  0  0  0  0  0  0  0  0
  182.1730  178.9860  140.5100 C   0  0  0  0  0  3  0  0  0  0  0  0
  183.0510  179.0030  142.8840 C   0  0  0  0  0  3  0  0  0  0  0  0
  184.0880  178.6140  139.6030 C   0  0  0  0  0  0  0  0  0  0  0  0
  184.3220  178.6630  140.8790 C   0  0  0  0  0  0  0  0  0  0  0  0
  182.7840  178.8040  139.3060 N   0  0  0  0  0  0  0  0  0  0  0  0
  189.3020  177.7120  138.9900 C   0  0  0  0  0  3  0  0  0  0  0  0
  189.9140  177.6910  140.1700 C   0  0  0  0  0  0  0  0  0  0  0  0
  189.2450  177.8880  141.4590 C   0  0  0  0  0  3  0  0  0  0  0  0
  186.8200  178.1520  139.4270 C   0  0  0  0  0  0  0  0  0  0  0  0
  187.9660  178.1180  141.7310 C   0  0  0  0  0  3  0  0  0  0  0  0
  186.7800  178.2550  140.8560 C   0  0  0  0  0  0  0  0  0  0  0  0
  191.3720  177.4520  140.1930 C   0  0  0  0  0  0  0  0  0  0  0  0
  192.0540  177.7340  141.2150 O   0  0  0  0  0  0  0  0  0  0  0  0
  192.0300  176.9000  139.0540 N   0  0  0  0  0  1  0  0  0  0  0  0
  184.2090  178.9380  145.1090 C   0  0  0  0  0  2  0  0  0  0  0  0
  186.9720  178.2530  147.6130 C   0  0  0  0  0  3  0  0  0  0  0  0
  186.5050  177.9700  144.8600 C   0  0  0  0  0  3  0  0  0  0  0  0
  190.1970  176.8030  146.5020 C   0  0  0  0  0  0  0  0  0  0  0  0
  189.1960  177.3330  147.3290 C   0  0  0  0  0  3  0  0  0  0  0  0
  187.9680  177.7220  146.7880 C   0  0  0  0  0  0  0  0  0  0  0  0
  188.7300  177.0530  144.5780 C   0  0  0  0  0  3  0  0  0  0  0  0
  187.7330  177.5800  145.4020 C   0  0  0  0  0  0  0  0  0  0  0  0
  189.9560  176.6660  145.1270 C   0  0  0  0  0  3  0  0  0  0  0  0
  185.5100  178.4970  145.6910 C   0  0  0  0  0  0  0  0  0  0  0  0
  185.7450  178.6410  147.0640 C   0  0  0  0  0  3  0  0  0  0  0  0
  191.4880  176.3950  147.0780 C   0  0  0  0  0  0  0  0  0  0  0  0
  192.0900  175.3790  146.6390 O   0  0  0  0  0  0  0  0  0  0  0  0
  192.0560  177.1280  148.1130 O   0  0  0  0  0  1  0  0  0  0  0  0
  1  5  1  0  0  0  0
  2 12  1  0  0  0  0
  2 15  2  0  0  0  0
  3 15  1  0  0  0  0
  3  9  1  0  0  0  0
  4 21  1  0  0  0  0
  5  4  2  0  0  0  0
  6  8  2  0  0  0  0
  7  6  1  0  0  0  0
  8  4  1  0  0  0  0
  9 10  2  0  0  0  0
 10  6  1  0  0  0  0
 10  1  1  0  0  0  0
 11  9  1  0  0  0  0
 11  7  2  0  0  0  0
 12 13  2  0  0  0  0
 13 18  1  0  0  0  0
 13 14  1  0  0  0  0
 14 16  2  0  0  0  0
 15 17  1  0  0  0  0
 17  1  2  0  0  0  0
 17 16  1  0  0  0  0
 18 19  2  0  0  0  0
 20 18  1  0  0  0  0
 21 30  1  0  0  0  0
 23 28  2  0  0  0  0
 23 30  1  0  0  0  0
 24 32  1  0  0  0  0
 24 25  2  0  0  0  0
 26 25  1  0  0  0  0
 26 22  2  0  0  0  0
 27 29  2  0  0  0  0
 27 28  1  0  0  0  0
 28 26  1  0  0  0  0
 29 24  1  0  0  0  0
 30 31  2  0  0  0  0
 31 22  1  0  0  0  0
 32 34  1  0  0  0  0
 33 32  2  0  0  0  0
M  END
>  <MODEL>
6

>  <REMARK>
 VINA RESULT:     -11.7      1.393      2.202
  Name = 
  4 active torsions:
  status: ('A' for Active; 'I' for Inactive)
    1  A    between atoms: C_3  and  C_25
    2  A    between atoms: C_7  and  C_11
    3  A    between atoms: C_8  and  C_18
    4  A    between atoms: C_18  and  C_30
                            x       y       z     vdW  Elec       q    Type
                         _______ _______ _______ _____ _____    ______ ____

>  <TORSDO>
F 4

$$$$
=
 OpenBabel10262423233D

 34 39  0  0  0  0  0  0  0  0999 V2000
  187.6560  177.8800  144.9050 C   0  0  0  0  0  0  0  0  0  0  0  0
  190.8510  176.8860  143.1910 C   0  0  0  0  0  3  0  0  0  0  0  0
  190.4340  177.0790  145.7120 S   0  0  0  0  0  0  0  0  0  0  0  0
  185.4380  178.5620  145.7590 C   0  0  0  0  0  0  0  0  0  0  0  0
  186.3120  178.2740  144.6810 C   0  0  0  0  0  3  0  0  0  0  0  0
  187.2080  178.0830  147.2960 C   0  0  0  0  0  0  0  0  0  0  0  0
  187.9430  177.8990  148.4550 C   0  0  0  0  0  3  0  0  0  0  0  0
  185.8880  178.4710  147.0920 C   0  0  0  0  0  3  0  0  0  0  0  0
  189.1870  177.4770  146.7520 C   0  0  0  0  0  0  0  0  0  0  0  0
  188.0340  177.8050  146.2550 C   0  0  0  0  0  0  0  0  0  0  0  0
  189.2010  177.5140  148.1030 N   0  0  0  0  0  0  0  0  0  0  0  0
  190.8350  176.8510  141.7260 C   0  0  0  0  0  3  0  0  0  0  0  0
  189.8500  177.1210  140.8740 C   0  0  0  0  0  0  0  0  0  0  0  0
  188.5000  177.5340  141.2670 C   0  0  0  0  0  3  0  0  0  0  0  0
  189.9140  177.1880  144.0880 C   0  0  0  0  0  0  0  0  0  0  0  0
  187.9810  177.7200  142.4750 C   0  0  0  0  0  3  0  0  0  0  0  0
  188.5610  177.5830  143.8300 C   0  0  0  0  0  0  0  0  0  0  0  0
  190.1280  176.9990  139.4280 C   0  0  0  0  0  0  0  0  0  0  0  0
  189.8130  177.9240  138.6320 O   0  0  0  0  0  0  0  0  0  0  0  0
  190.7580  175.8280  138.9120 N   0  0  0  0  0  1  0  0  0  0  0  0
  184.0410  179.0020  145.4800 C   0  0  0  0  0  2  0  0  0  0  0  0
  184.4580  178.7350  141.7210 C   0  0  0  0  0  3  0  0  0  0  0  0
  182.3880  178.7510  143.6160 C   0  0  0  0  0  3  0  0  0  0  0  0
  181.4930  178.4090  139.5210 C   0  0  0  0  0  0  0  0  0  0  0  0
  182.8260  178.5140  139.9430 C   0  0  0  0  0  3  0  0  0  0  0  0
  183.1290  178.6270  141.3020 C   0  0  0  0  0  0  0  0  0  0  0  0
  180.7580  178.5330  141.8360 C   0  0  0  0  0  3  0  0  0  0  0  0
  182.0860  178.6360  142.2560 C   0  0  0  0  0  0  0  0  0  0  0  0
  180.4640  178.4190  140.4740 C   0  0  0  0  0  3  0  0  0  0  0  0
  183.7210  178.8530  144.0300 C   0  0  0  0  0  0  0  0  0  0  0  0
  184.7520  178.8500  143.0840 C   0  0  0  0  0  3  0  0  0  0  0  0
  181.1820  178.2890  138.0870 C   0  0  0  0  0  0  0  0  0  0  0  0
  182.0720  178.5050  137.2210 O   0  0  0  0  0  0  0  0  0  0  0  0
  179.9030  177.9350  137.6750 O   0  0  0  0  0  1  0  0  0  0  0  0
  1 10  1  0  0  0  0
  2 15  2  0  0  0  0
  3  9  1  0  0  0  0
  4  8  1  0  0  0  0
  5  1  1  0  0  0  0
  5  4  2  0  0  0  0
  6  7  1  0  0  0  0
  8  6  2  0  0  0  0
  9 11  1  0  0  0  0
 10  9  2  0  0  0  0
 10  6  1  0  0  0  0
 11  7  2  0  0  0  0
 12  2  1  0  0  0  0
 13 14  1  0  0  0  0
 13 12  2  0  0  0  0
 14 16  2  0  0  0  0
 15  3  1  0  0  0  0
 16 17  1  0  0  0  0
 17 15  1  0  0  0  0
 17  1  2  0  0  0  0
 18 13  1  0  0  0  0
 19 18  2  0  0  0  0
 20 18  1  0  0  0  0
 21  4  1  0  0  0  0
 22 31  1  0  0  0  0
 23 30  1  0  0  0  0
 24 25  2  0  0  0  0
 24 29  1  0  0  0  0
 25 26  1  0  0  0  0
 26 22  2  0  0  0  0
 26 28  1  0  0  0  0
 27 28  1  0  0  0  0
 28 23  2  0  0  0  0
 29 27  2  0  0  0  0
 30 21  1  0  0  0  0
 31 30  2  0  0  0  0
 32 24  1  0  0  0  0
 33 32  2  0  0  0  0
 34 32  1  0  0  0  0
M  END
>  <MODEL>
7

>  <REMARK>
 VINA RESULT:     -11.6      3.742      7.740
  Name = 
  4 active torsions:
  status: ('A' for Active; 'I' for Inactive)
    1  A    between atoms: C_3  and  C_25
    2  A    between atoms: C_7  and  C_11
    3  A    between atoms: C_8  and  C_18
    4  A    between atoms: C_18  and  C_30
                            x       y       z     vdW  Elec       q    Type
                         _______ _______ _______ _____ _____    ______ ____

>  <TORSDO>
F 4

$$$$
=
 OpenBabel10262423233D

 34 39  0  0  0  0  0  0  0  0999 V2000
  188.8690  177.6380  143.8940 C   0  0  0  0  0  0  0  0  0  0  0  0
  185.5520  178.0530  145.6150 C   0  0  0  0  0  3  0  0  0  0  0  0
  187.8070  177.4980  146.6990 S   0  0  0  0  0  0  0  0  0  0  0  0
  190.9050  177.4220  142.5080 C   0  0  0  0  0  0  0  0  0  0  0  0
  189.5150  177.6670  142.6320 C   0  0  0  0  0  3  0  0  0  0  0  0
  191.0410  177.1080  144.8760 C   0  0  0  0  0  0  0  0  0  0  0  0
  191.5100  176.8630  146.1560 C   0  0  0  0  0  3  0  0  0  0  0  0
  191.6870  177.1320  143.6450 C   0  0  0  0  0  3  0  0  0  0  0  0
  189.3970  177.2560  146.2380 C   0  0  0  0  0  0  0  0  0  0  0  0
  189.7080  177.3490  144.9820 C   0  0  0  0  0  0  0  0  0  0  0  0
  190.4600  176.9580  147.0180 N   0  0  0  0  0  0  0  0  0  0  0  0
  184.4000  178.3700  144.7670 C   0  0  0  0  0  3  0  0  0  0  0  0
  184.3280  178.5410  143.4500 C   0  0  0  0  0  0  0  0  0  0  0  0
  185.4670  178.4370  142.5340 C   0  0  0  0  0  3  0  0  0  0  0  0
  186.8380  177.8450  145.3350 C   0  0  0  0  0  0  0  0  0  0  0  0
  186.7430  178.1680  142.7840 C   0  0  0  0  0  3  0  0  0  0  0  0
  187.4620  177.8830  144.0450 C   0  0  0  0  0  0  0  0  0  0  0  0
  183.0110  178.8600  142.8620 C   0  0  0  0  0  0  0  0  0  0  0  0
  182.1230  179.4370  143.5460 O   0  0  0  0  0  0  0  0  0  0  0  0
  182.7240  178.5160  141.5080 N   0  0  0  0  0  1  0  0  0  0  0  0
  191.5400  177.4320  141.1590 C   0  0  0  0  0  2  0  0  0  0  0  0
  189.8760  175.9140  138.1100 C   0  0  0  0  0  3  0  0  0  0  0  0
  189.3260  177.8480  140.0660 C   0  0  0  0  0  3  0  0  0  0  0  0
  186.5230  177.0670  137.0300 C   0  0  0  0  0  0  0  0  0  0  0  0
  187.7340  176.3610  137.0680 C   0  0  0  0  0  3  0  0  0  0  0  0
  188.6680  176.6160  138.0740 C   0  0  0  0  0  0  0  0  0  0  0  0
  187.1860  178.2960  139.0220 C   0  0  0  0  0  3  0  0  0  0  0  0
  188.3910  177.5910  139.0600 C   0  0  0  0  0  0  0  0  0  0  0  0
  186.2560  178.0330  138.0110 C   0  0  0  0  0  3  0  0  0  0  0  0
  190.5310  177.1390  140.0990 C   0  0  0  0  0  0  0  0  0  0  0  0
  190.8070  176.1770  139.1200 C   0  0  0  0  0  3  0  0  0  0  0  0
  185.5430  176.7920  135.9670 C   0  0  0  0  0  0  0  0  0  0  0  0
  185.5450  177.4720  134.9060 O   0  0  0  0  0  0  0  0  0  0  0  0
  184.6070  175.7770  136.1220 O   0  0  0  0  0  1  0  0  0  0  0  0
  1 17  2  0  0  0  0
  1 10  1  0  0  0  0
  4  5  2  0  0  0  0
  4  8  1  0  0  0  0
  5  1  1  0  0  0  0
  6 10  1  0  0  0  0
  6  7  1  0  0  0  0
  7 11  2  0  0  0  0
  8  6  2  0  0  0  0
  9  3  1  0  0  0  0
  9 11  1  0  0  0  0
 10  9  2  0  0  0  0
 12  2  1  0  0  0  0
 13 12  2  0  0  0  0
 14 16  2  0  0  0  0
 14 13  1  0  0  0  0
 15  2  2  0  0  0  0
 15  3  1  0  0  0  0
 16 17  1  0  0  0  0
 17 15  1  0  0  0  0
 18 13  1  0  0  0  0
 18 19  2  0  0  0  0
 20 18  1  0  0  0  0
 21  4  1  0  0  0  0
 22 31  1  0  0  0  0
 23 30  1  0  0  0  0
 24 25  2  0  0  0  0
 24 29  1  0  0  0  0
 25 26  1  0  0  0  0
 26 22  2  0  0  0  0
 26 28  1  0  0  0  0
 27 28  1  0  0  0  0
 28 23  2  0  0  0  0
 29 27  2  0  0  0  0
 30 21  1  0  0  0  0
 31 30  2  0  0  0  0
 32 34  1  0  0  0  0
 32 24  1  0  0  0  0
 33 32  2  0  0  0  0
M  END
>  <MODEL>
8

>  <REMARK>
 VINA RESULT:     -11.4      3.852      8.759
  Name = 
  4 active torsions:
  status: ('A' for Active; 'I' for Inactive)
    1  A    between atoms: C_3  and  C_25
    2  A    between atoms: C_7  and  C_11
    3  A    between atoms: C_8  and  C_18
    4  A    between atoms: C_18  and  C_30
                            x       y       z     vdW  Elec       q    Type
                         _______ _______ _______ _____ _____    ______ ____

>  <TORSDO>
F 4

$$$$
=
 OpenBabel10262423233D

 34 39  0  0  0  0  0  0  0  0999 V2000
  185.8820  178.2480  142.9210 C   0  0  0  0  0  0  0  0  0  0  0  0
  187.6670  177.5510  146.1560 C   0  0  0  0  0  3  0  0  0  0  0  0
  185.2090  178.2060  145.8460 S   0  0  0  0  0  0  0  0  0  0  0  0
  184.9690  178.6510  140.6590 C   0  0  0  0  0  0  0  0  0  0  0  0
  186.0470  178.3120  141.5140 C   0  0  0  0  0  3  0  0  0  0  0  0
  183.5490  178.8780  142.5710 C   0  0  0  0  0  0  0  0  0  0  0  0
  182.4560  179.1000  143.3910 C   0  0  0  0  0  3  0  0  0  0  0  0
  183.6960  178.9450  141.1900 C   0  0  0  0  0  3  0  0  0  0  0  0
  184.1520  178.5690  144.6020 C   0  0  0  0  0  0  0  0  0  0  0  0
  184.5890  178.5460  143.3800 C   0  0  0  0  0  0  0  0  0  0  0  0
  182.8450  178.9030  144.6810 N   0  0  0  0  0  0  0  0  0  0  0  0
  189.0850  177.1940  146.0680 C   0  0  0  0  0  3  0  0  0  0  0  0
  189.8720  177.0720  145.0030 C   0  0  0  0  0  0  0  0  0  0  0  0
  189.4390  177.2870  143.6190 C   0  0  0  0  0  3  0  0  0  0  0  0
  186.7610  177.8520  145.2260 C   0  0  0  0  0  0  0  0  0  0  0  0
  188.2490  177.6270  143.1390 C   0  0  0  0  0  3  0  0  0  0  0  0
  186.9590  177.9070  143.8080 C   0  0  0  0  0  0  0  0  0  0  0  0
  191.2830  176.6930  145.2210 C   0  0  0  0  0  0  0  0  0  0  0  0
  191.9670  176.1930  144.2870 O   0  0  0  0  0  0  0  0  0  0  0  0
  191.8930  176.8870  146.4950 N   0  0  0  0  0  1  0  0  0  0  0  0
  185.1920  178.7360  139.1870 C   0  0  0  0  0  2  0  0  0  0  0  0
  187.6920  176.5350  137.3760 C   0  0  0  0  0  3  0  0  0  0  0  0
  187.6280  178.2960  139.5590 C   0  0  0  0  0  3  0  0  0  0  0  0
  191.2090  176.3440  138.5300 C   0  0  0  0  0  0  0  0  0  0  0  0
  190.0440  176.1180  137.7820 C   0  0  0  0  0  3  0  0  0  0  0  0
  188.8530  176.7640  138.1200 C   0  0  0  0  0  0  0  0  0  0  0  0
  189.9800  177.8750  139.9660 C   0  0  0  0  0  3  0  0  0  0  0  0
  188.8210  177.6500  139.2200 C   0  0  0  0  0  0  0  0  0  0  0  0
  191.1690  177.2250  139.6210 C   0  0  0  0  0  3  0  0  0  0  0  0
  186.4710  178.0670  138.8080 C   0  0  0  0  0  0  0  0  0  0  0  0
  186.5020  177.1850  137.7210 C   0  0  0  0  0  3  0  0  0  0  0  0
  192.4610  175.6600  138.1670 C   0  0  0  0  0  0  0  0  0  0  0  0
  193.5700  176.2420  138.3080 O   0  0  0  0  0  1  0  0  0  0  0  0
  192.4310  174.3640  137.6670 O   0  0  0  0  0  0  0  0  0  0  0  0
  1 10  1  0  0  0  0
  1 17  2  0  0  0  0
  4  8  1  0  0  0  0
  4  5  2  0  0  0  0
  5  1  1  0  0  0  0
  6 10  1  0  0  0  0
  6  7  1  0  0  0  0
  7 11  2  0  0  0  0
  8  6  2  0  0  0  0
  9 11  1  0  0  0  0
  9  3  1  0  0  0  0
 10  9  2  0  0  0  0
 12  2  1  0  0  0  0
 13 18  1  0  0  0  0
 13 12  2  0  0  0  0
 14 13  1  0  0  0  0
 15  3  1  0  0  0  0
 15  2  2  0  0  0  0
 16 14  2  0  0  0  0
 16 17  1  0  0  0  0
 17 15  1  0  0  0  0
 18 20  1  0  0  0  0
 19 18  2  0  0  0  0
 21  4  1  0  0  0  0
 22 31  2  0  0  0  0
 22 26  1  0  0  0  0
 24 29  1  0  0  0  0
 25 26  1  0  0  0  0
 25 24  2  0  0  0  0
 26 28  2  0  0  0  0
 28 23  1  0  0  0  0
 28 27  1  0  0  0  0
 29 27  2  0  0  0  0
 30 21  1  0  0  0  0
 30 23  2  0  0  0  0
 31 30  1  0  0  0  0
 32 33  1  0  0  0  0
 32 24  1  0  0  0  0
 34 32  2  0  0  0  0
M  END
>  <MODEL>
9

>  <REMARK>
 VINA RESULT:     -11.2      2.883      6.686
  Name = 
  4 active torsions:
  status: ('A' for Active; 'I' for Inactive)
    1  A    between atoms: C_3  and  C_25
    2  A    between atoms: C_7  and  C_11
    3  A    between atoms: C_8  and  C_18
    4  A    between atoms: C_18  and  C_30
                            x       y       z     vdW  Elec       q    Type
                         _______ _______ _______ _____ _____    ______ ____

>  <TORSDO>
F 4

$$$$
