=
 OpenBabel10262423103D

 34 38  0  0  1  0  0  0  0  0999 V2000
  187.9690  177.7920  141.0500 C   0  0  0  0  0  0  0  0  0  0  0  0
  188.0200  177.4490  144.7410 C   0  0  0  0  0  3  0  0  0  0  0  0
  189.7260  177.5800  143.2200 N   0  0  0  0  0  2  0  0  0  0  0  0
  189.6820  177.4720  138.3910 C   0  0  0  0  0  0  0  0  0  0  0  0
  187.2130  177.9670  140.0550 O   0  0  0  0  0  0  0  0  0  0  0  0
  190.0970  177.5360  139.7600 N   0  0  0  0  0  0  0  0  0  0  0  0
  191.3740  177.4820  140.1230 N   0  0  0  0  0  0  0  0  0  0  0  0
  190.3050  178.1350  137.5200 O   0  0  0  0  0  0  0  0  0  0  0  0
  190.1720  177.5580  141.9450 C   0  0  0  0  0  0  0  0  0  0  0  0
  189.3400  177.5870  140.8770 C   0  0  0  0  0  0  0  0  0  0  0  0
  191.4630  177.4890  141.4760 C   0  0  0  0  0  3  0  0  0  0  0  0
  186.6320  177.1900  145.2150 C   0  0  0  0  0  2  0  0  0  0  0  0
  185.7160  178.3330  144.9680 C   0  0  0  0  0  0  0  0  0  0  0  0
  185.4830  178.7600  143.7300 C   0  0  0  0  0  3  0  0  0  0  0  0
  188.3860  177.6720  143.4740 C   0  0  0  0  0  0  0  0  0  0  0  0
  186.2070  178.3480  142.5140 C   0  0  0  0  0  3  0  0  0  0  0  0
  187.4690  177.8850  142.3800 C   0  0  0  0  0  0  0  0  0  0  0  0
  184.9350  178.8770  146.0930 C   0  0  0  0  0  0  0  0  0  0  0  0
  185.5750  179.2460  147.2720 O   0  0  0  0  0  1  0  0  0  0  0  0
  183.6860  179.0210  146.0000 O   0  0  0  0  0  0  0  0  0  0  0  0
  188.3900  176.3440  137.8650 S   0  0  0  0  0  0  0  0  0  0  0  0
  190.0500  173.2040  135.8460 C   0  0  0  0  0  3  0  0  0  0  0  0
  190.9110  175.2240  137.6390 C   0  0  0  0  0  3  0  0  0  0  0  0
  192.3560  172.4270  135.8500 N   0  0  0  0  0  0  0  0  0  0  0  0
  191.3810  173.2790  136.2560 C   0  0  0  0  0  0  0  0  0  0  0  0
  193.4330  174.1030  137.4270 S   0  0  0  0  0  0  0  0  0  0  0  0
  191.7910  174.2720  137.1320 C   0  0  0  0  0  0  0  0  0  0  0  0
  193.5440  172.7470  136.4210 C   0  0  0  0  0  0  0  0  0  0  0  0
  189.5670  175.1540  137.2380 C   0  0  0  0  0  0  0  0  0  0  0  0
  189.1410  174.1520  136.3440 C   0  0  0  0  0  3  0  0  0  0  0  0
  194.8190  172.0200  136.1400 C   0  0  1  0  0  3  0  0  0  0  0  0
  195.9030  172.8990  136.1830 O   0  0  0  0  0  1  0  0  0  0  0  0
  195.0270  170.8670  137.1140 C   0  0  0  0  0  2  0  0  0  0  0  0
  195.4810  171.3360  138.3480 O   0  0  0  0  0  1  0  0  0  0  0  0
  1 17  1  0  0  0  0
  2 12  1  0  0  0  0
  3 15  1  0  0  0  0
  4  6  1  0  0  0  0
  5  1  2  0  0  0  0
  6  7  1  0  0  0  0
  6 10  1  0  0  0  0
  7 11  2  0  0  0  0
  8  4  2  0  0  0  0
  9  3  1  0  0  0  0
 10  1  1  0  0  0  0
 10  9  2  0  0  0  0
 11  9  1  0  0  0  0
 13 12  1  0  0  0  0
 13 18  1  0  0  0  0
 14 13  2  0  0  0  0
 15  2  2  0  0  0  0
 16 14  1  0  0  0  0
 17 16  2  0  0  0  0
 17 15  1  0  0  0  0
 18 19  1  0  0  0  0
 20 18  2  0  0  0  0
 21  4  1  0  0  0  0
 22 25  2  0  0  0  0
 22 30  1  0  0  0  0
 24 25  1  0  0  0  0
 24 28  2  0  0  0  0
 25 27  1  0  0  0  0
 27 26  1  0  0  0  0
 27 23  2  0  0  0  0
 28 26  1  0  0  0  0
 29 23  1  0  0  0  0
 29 21  1  0  0  0  0
 30 29  2  0  0  0  0
 31 32  1  1  0  0  0
 31 28  1  0  0  0  0
 31 33  1  0  0  0  0
 33 34  1  0  0  0  0
M  END
>  <MODEL>
1

>  <REMARK>
 VINA RESULT:      -8.5      0.000      0.000
  Name = 
  5 active torsions:
  status: ('A' for Active; 'I' for Inactive)
    1  A    between atoms: C_3  and  C_25
    2  A    between atoms: C_7  and  C_11
    3  A    between atoms: C_7  and  C_29
    4  A    between atoms: C_8  and  S_18
    5  A    between atoms: S_18  and  C_30
                            x       y       z     vdW  Elec       q    Type
                         _______ _______ _______ _____ _____    ______ ____

>  <TORSDO>
F 5

$$$$
=
 OpenBabel10262423103D

 34 38  0  0  1  0  0  0  0  0999 V2000
  183.6610  178.6460  142.4480 C   0  0  0  0  0  0  0  0  0  0  0  0
  187.1990  177.7390  143.0830 C   0  0  0  0  0  3  0  0  0  0  0  0
  186.1770  178.5900  141.2200 N   0  0  0  0  0  2  0  0  0  0  0  0
  181.5040  179.2570  140.1940 C   0  0  0  0  0  0  0  0  0  0  0  0
  182.5270  178.7590  142.9900 O   0  0  0  0  0  0  0  0  0  0  0  0
  182.9340  179.2120  140.1230 N   0  0  0  0  0  0  0  0  0  0  0  0
  183.6010  179.4620  139.0010 N   0  0  0  0  0  0  0  0  0  0  0  0
  180.8820  180.2000  139.6390 O   0  0  0  0  0  0  0  0  0  0  0  0
  185.0600  178.9010  140.5270 C   0  0  0  0  0  0  0  0  0  0  0  0
  183.8220  178.8670  141.0780 C   0  0  0  0  0  0  0  0  0  0  0  0
  184.9280  179.2760  139.2100 C   0  0  0  0  0  3  0  0  0  0  0  0
  187.2820  177.0250  144.3880 C   0  0  0  0  0  2  0  0  0  0  0  0
  186.9150  177.8880  145.5400 C   0  0  0  0  0  0  0  0  0  0  0  0
  185.7010  178.4260  145.6240 C   0  0  0  0  0  3  0  0  0  0  0  0
  186.0910  178.2580  142.5430 C   0  0  0  0  0  0  0  0  0  0  0  0
  184.6760  178.4370  144.5650 C   0  0  0  0  0  3  0  0  0  0  0  0
  184.8240  178.3770  143.2250 C   0  0  0  0  0  0  0  0  0  0  0  0
  187.8490  178.0010  146.6740 C   0  0  0  0  0  0  0  0  0  0  0  0
  187.3690  178.2970  147.9450 O   0  0  0  0  0  1  0  0  0  0  0  0
  189.0870  177.8260  146.5090 O   0  0  0  0  0  0  0  0  0  0  0  0
  180.5700  177.9100  140.9250 S   0  0  0  0  0  0  0  0  0  0  0  0
  180.0540  175.7990  137.4650 C   0  0  0  0  0  3  0  0  0  0  0  0
  182.1000  176.1900  139.3880 C   0  0  0  0  0  3  0  0  0  0  0  0
  181.6130  174.3170  136.3280 N   0  0  0  0  0  0  0  0  0  0  0  0
  181.2860  175.1570  137.3420 C   0  0  0  0  0  0  0  0  0  0  0  0
  183.6320  174.4620  137.8640 S   0  0  0  0  0  0  0  0  0  0  0  0
  182.2790  175.3570  138.2880 C   0  0  0  0  0  0  0  0  0  0  0  0
  182.8750  173.8440  136.4820 C   0  0  0  0  0  0  0  0  0  0  0  0
  180.8610  176.8370  139.5260 C   0  0  0  0  0  0  0  0  0  0  0  0
  179.8460  176.6440  138.5680 C   0  0  0  0  0  3  0  0  0  0  0  0
  183.5400  172.9280  135.5070 C   0  0  1  0  0  3  0  0  0  0  0  0
  184.4260  173.6390  134.6940 O   0  0  0  0  0  1  0  0  0  0  0  0
  184.2620  171.7900  136.2160 C   0  0  0  0  0  2  0  0  0  0  0  0
  183.3520  170.9560  136.8680 O   0  0  0  0  0  1  0  0  0  0  0  0
  1  5  2  0  0  0  0
  1 17  1  0  0  0  0
  2 12  1  0  0  0  0
  3 15  1  0  0  0  0
  4 21  1  0  0  0  0
  6  4  1  0  0  0  0
  6 10  1  0  0  0  0
  7 11  2  0  0  0  0
  7  6  1  0  0  0  0
  8  4  2  0  0  0  0
  9 10  2  0  0  0  0
  9  3  1  0  0  0  0
 10  1  1  0  0  0  0
 11  9  1  0  0  0  0
 12 13  1  0  0  0  0
 13 14  2  0  0  0  0
 13 18  1  0  0  0  0
 15  2  2  0  0  0  0
 15 17  1  0  0  0  0
 16 14  1  0  0  0  0
 17 16  2  0  0  0  0
 18 19  1  0  0  0  0
 20 18  2  0  0  0  0
 22 30  1  0  0  0  0
 23 29  1  0  0  0  0
 24 28  2  0  0  0  0
 24 25  1  0  0  0  0
 25 22  2  0  0  0  0
 25 27  1  0  0  0  0
 26 27  1  0  0  0  0
 27 23  2  0  0  0  0
 28 26  1  0  0  0  0
 29 21  1  0  0  0  0
 30 29  2  0  0  0  0
 31 32  1  1  0  0  0
 31 33  1  0  0  0  0
 31 28  1  0  0  0  0
 33 34  1  0  0  0  0
M  END
>  <MODEL>
2

>  <REMARK>
 VINA RESULT:      -8.4      6.286      7.776
  Name = 
  5 active torsions:
  status: ('A' for Active; 'I' for Inactive)
    1  A    between atoms: C_3  and  C_25
    2  A    between atoms: C_7  and  C_11
    3  A    between atoms: C_7  and  C_29
    4  A    between atoms: C_8  and  S_18
    5  A    between atoms: S_18  and  C_30
                            x       y       z     vdW  Elec       q    Type
                         _______ _______ _______ _____ _____    ______ ____

>  <TORSDO>
F 5

$$$$
=
 OpenBabel10262423103D

 34 38  0  0  1  0  0  0  0  0999 V2000
  184.5420  178.4030  142.4540 C   0  0  0  0  0  0  0  0  0  0  0  0
  184.7540  178.9010  146.1210 C   0  0  0  0  0  3  0  0  0  0  0  0
  182.9440  178.7360  144.7300 N   0  0  0  0  0  2  0  0  0  0  0  0
  182.6520  178.6400  139.9090 C   0  0  0  0  0  0  0  0  0  0  0  0
  185.2240  178.1730  141.4180 O   0  0  0  0  0  0  0  0  0  0  0  0
  182.3330  178.6420  141.3050 N   0  0  0  0  0  0  0  0  0  0  0  0
  181.0850  178.7330  141.7520 N   0  0  0  0  0  0  0  0  0  0  0  0
  181.9610  177.9530  139.1120 O   0  0  0  0  0  0  0  0  0  0  0  0
  182.4100  178.7120  143.4890 C   0  0  0  0  0  0  0  0  0  0  0  0
  183.1650  178.6240  142.3670 C   0  0  0  0  0  0  0  0  0  0  0  0
  181.0910  178.7840  143.1080 C   0  0  0  0  0  3  0  0  0  0  0  0
  186.1750  179.1560  146.4870 C   0  0  0  0  0  2  0  0  0  0  0  0
  187.0550  177.9880  146.2270 C   0  0  0  0  0  0  0  0  0  0  0  0
  187.1950  177.5050  144.9950 C   0  0  0  0  0  3  0  0  0  0  0  0
  184.2970  178.6310  144.8940 C   0  0  0  0  0  0  0  0  0  0  0  0
  186.3930  177.8790  143.8150 C   0  0  0  0  0  3  0  0  0  0  0  0
  185.1330  178.3570  143.7490 C   0  0  0  0  0  0  0  0  0  0  0  0
  187.9050  177.4770  147.3170 C   0  0  0  0  0  0  0  0  0  0  0  0
  189.0560  176.7540  147.0220 O   0  0  0  0  0  0  0  0  0  0  0  0
  187.6060  177.6920  148.5220 O   0  0  0  0  0  1  0  0  0  0  0  0
  183.9200  179.7230  139.2470 S   0  0  0  0  0  0  0  0  0  0  0  0
  184.4960  176.4480  136.8730 C   0  0  0  0  0  3  0  0  0  0  0  0
  186.0940  178.2520  138.3650 C   0  0  0  0  0  3  0  0  0  0  0  0
  186.5770  175.3400  136.2700 N   0  0  0  0  0  0  0  0  0  0  0  0
  185.8830  176.3110  136.9160 C   0  0  0  0  0  0  0  0  0  0  0  0
  188.2710  176.7810  137.4990 S   0  0  0  0  0  0  0  0  0  0  0  0
  186.6540  177.2000  137.6480 C   0  0  0  0  0  0  0  0  0  0  0  0
  187.9070  175.4600  136.5040 C   0  0  0  0  0  0  0  0  0  0  0  0
  184.6970  178.3970  138.3350 C   0  0  0  0  0  0  0  0  0  0  0  0
  183.9040  177.5010  137.5910 C   0  0  0  0  0  3  0  0  0  0  0  0
  188.9380  174.5640  135.8990 C   0  0  1  0  0  3  0  0  0  0  0  0
  190.0730  175.2950  135.5410 O   0  0  0  0  0  1  0  0  0  0  0  0
  189.3100  173.4290  136.8440 C   0  0  0  0  0  2  0  0  0  0  0  0
  190.4480  173.7540  137.5860 O   0  0  0  0  0  1  0  0  0  0  0  0
  1 17  1  0  0  0  0
  2 12  1  0  0  0  0
  3 15  1  0  0  0  0
  4  6  1  0  0  0  0
  5  1  2  0  0  0  0
  6  7  1  0  0  0  0
  6 10  1  0  0  0  0
  7 11  2  0  0  0  0
  8  4  2  0  0  0  0
  9  3  1  0  0  0  0
 10  1  1  0  0  0  0
 10  9  2  0  0  0  0
 11  9  1  0  0  0  0
 13 12  1  0  0  0  0
 13 18  1  0  0  0  0
 14 13  2  0  0  0  0
 15  2  2  0  0  0  0
 16 14  1  0  0  0  0
 17 16  2  0  0  0  0
 17 15  1  0  0  0  0
 18 20  1  0  0  0  0
 19 18  2  0  0  0  0
 21  4  1  0  0  0  0
 22 25  2  0  0  0  0
 22 30  1  0  0  0  0
 24 28  2  0  0  0  0
 24 25  1  0  0  0  0
 25 27  1  0  0  0  0
 26 27  1  0  0  0  0
 27 23  2  0  0  0  0
 28 26  1  0  0  0  0
 29 23  1  0  0  0  0
 29 21  1  0  0  0  0
 30 29  2  0  0  0  0
 31 32  1  1  0  0  0
 31 28  1  0  0  0  0
 31 33  1  0  0  0  0
 33 34  1  0  0  0  0
M  END
>  <MODEL>
3

>  <REMARK>
 VINA RESULT:      -8.2      3.946      6.005
  Name = 
  5 active torsions:
  status: ('A' for Active; 'I' for Inactive)
    1  A    between atoms: C_3  and  C_25
    2  A    between atoms: C_7  and  C_11
    3  A    between atoms: C_7  and  C_29
    4  A    between atoms: C_8  and  S_18
    5  A    between atoms: S_18  and  C_30
                            x       y       z     vdW  Elec       q    Type
                         _______ _______ _______ _____ _____    ______ ____

>  <TORSDO>
F 5

$$$$
=
 OpenBabel10262423103D

 34 38  0  0  1  0  0  0  0  0999 V2000
  190.6660  177.0360  139.4150 C   0  0  0  0  0  0  0  0  0  0  0  0
  191.6720  175.2940  136.3010 C   0  0  0  0  0  3  0  0  0  0  0  0
  189.9550  176.7480  136.7220 N   0  0  0  0  0  2  0  0  0  0  0  0
  188.3060  178.5890  140.8730 C   0  0  0  0  0  0  0  0  0  0  0  0
  191.0000  177.2530  140.6120 O   0  0  0  0  0  0  0  0  0  0  0  0
  188.4900  178.2670  139.4890 N   0  0  0  0  0  0  0  0  0  0  0  0
  187.6210  178.6280  138.5500 N   0  0  0  0  0  0  0  0  0  0  0  0
  187.9230  179.7430  141.1980 O   0  0  0  0  0  0  0  0  0  0  0  0
  189.1790  177.4370  137.5880 C   0  0  0  0  0  0  0  0  0  0  0  0
  189.4620  177.5320  138.9090 C   0  0  0  0  0  0  0  0  0  0  0  0
  188.0130  178.1270  137.3520 C   0  0  0  0  0  3  0  0  0  0  0  0
  192.7260  174.2950  136.6320 C   0  0  0  0  0  2  0  0  0  0  0  0
  193.9810  174.9220  137.1200 C   0  0  0  0  0  0  0  0  0  0  0  0
  193.9830  175.6660  138.2230 C   0  0  0  0  0  3  0  0  0  0  0  0
  191.0980  176.1430  137.1610 C   0  0  0  0  0  0  0  0  0  0  0  0
  192.7970  176.1350  138.9610 C   0  0  0  0  0  3  0  0  0  0  0  0
  191.5410  176.3600  138.5180 C   0  0  0  0  0  0  0  0  0  0  0  0
  195.2550  174.5720  136.4670 C   0  0  0  0  0  0  0  0  0  0  0  0
  196.4200  175.2530  136.8040 O   0  0  0  0  0  1  0  0  0  0  0  0
  195.3060  173.6540  135.6050 O   0  0  0  0  0  0  0  0  0  0  0  0
  188.4580  177.3330  142.1450 S   0  0  0  0  0  0  0  0  0  0  0  0
  185.5980  178.2530  144.9130 C   0  0  0  0  0  3  0  0  0  0  0  0
  185.7800  178.0290  142.0930 C   0  0  0  0  0  3  0  0  0  0  0  0
  183.2590  178.8280  144.5660 N   0  0  0  0  0  0  0  0  0  0  0  0
  184.4870  178.4850  144.1030 C   0  0  0  0  0  0  0  0  0  0  0  0
  183.0990  178.7140  142.0330 S   0  0  0  0  0  0  0  0  0  0  0  0
  184.5880  178.3730  142.7250 C   0  0  0  0  0  0  0  0  0  0  0  0
  182.3820  178.9790  143.5430 C   0  0  0  0  0  0  0  0  0  0  0  0
  186.9040  177.7880  142.9000 C   0  0  0  0  0  0  0  0  0  0  0  0
  186.8130  177.9030  144.3010 C   0  0  0  0  0  3  0  0  0  0  0  0
  180.9590  179.3960  143.7280 C   0  0  1  0  0  3  0  0  0  0  0  0
  180.5160  180.1280  142.6240 O   0  0  0  0  0  1  0  0  0  0  0  0
  180.0550  178.1940  143.9690 C   0  0  0  0  0  2  0  0  0  0  0  0
  179.3330  177.8770  142.8160 O   0  0  0  0  0  1  0  0  0  0  0  0
  1  5  2  0  0  0  0
  2 12  1  0  0  0  0
  2 15  2  0  0  0  0
  3 15  1  0  0  0  0
  3  9  1  0  0  0  0
  4  8  2  0  0  0  0
  4 21  1  0  0  0  0
  6  4  1  0  0  0  0
  7  6  1  0  0  0  0
  9 10  2  0  0  0  0
 10  1  1  0  0  0  0
 10  6  1  0  0  0  0
 11  9  1  0  0  0  0
 11  7  2  0  0  0  0
 12 13  1  0  0  0  0
 13 14  2  0  0  0  0
 14 16  1  0  0  0  0
 15 17  1  0  0  0  0
 17 16  2  0  0  0  0
 17  1  1  0  0  0  0
 18 19  1  0  0  0  0
 18 13  1  0  0  0  0
 20 18  2  0  0  0  0
 21 29  1  0  0  0  0
 23 27  2  0  0  0  0
 23 29  1  0  0  0  0
 25 24  1  0  0  0  0
 25 22  2  0  0  0  0
 26 27  1  0  0  0  0
 26 28  1  0  0  0  0
 27 25  1  0  0  0  0
 28 31  1  0  0  0  0
 28 24  2  0  0  0  0
 29 30  2  0  0  0  0
 30 22  1  0  0  0  0
 31 32  1  6  0  0  0
 31 33  1  0  0  0  0
 34 33  1  0  0  0  0
M  END
>  <MODEL>
4

>  <REMARK>
 VINA RESULT:      -7.7      3.064     10.744
  Name = 
  5 active torsions:
  status: ('A' for Active; 'I' for Inactive)
    1  A    between atoms: C_3  and  C_25
    2  A    between atoms: C_7  and  C_11
    3  A    between atoms: C_7  and  C_29
    4  A    between atoms: C_8  and  S_18
    5  A    between atoms: S_18  and  C_30
                            x       y       z     vdW  Elec       q    Type
                         _______ _______ _______ _____ _____    ______ ____

>  <TORSDO>
F 5

$$$$
=
 OpenBabel10262423103D

 34 38  0  0  1  0  0  0  0  0999 V2000
  187.1140  177.7770  144.0830 C   0  0  0  0  0  0  0  0  0  0  0  0
  188.7390  178.0410  147.4050 C   0  0  0  0  0  3  0  0  0  0  0  0
  186.5400  178.2060  146.7910 N   0  0  0  0  0  2  0  0  0  0  0  0
  184.4760  178.4140  142.4280 C   0  0  0  0  0  0  0  0  0  0  0  0
  187.3220  177.5110  142.8680 O   0  0  0  0  0  0  0  0  0  0  0  0
  184.7000  178.3840  143.8420 N   0  0  0  0  0  0  0  0  0  0  0  0
  183.7340  178.6250  144.7230 N   0  0  0  0  0  0  0  0  0  0  0  0
  183.4450  177.8740  141.9490 O   0  0  0  0  0  0  0  0  0  0  0  0
  185.5880  178.3240  145.8390 C   0  0  0  0  0  0  0  0  0  0  0  0
  185.8520  178.1930  144.5170 C   0  0  0  0  0  0  0  0  0  0  0  0
  184.2480  178.6010  145.9790 C   0  0  0  0  0  3  0  0  0  0  0  0
  190.2150  178.0740  147.2130 C   0  0  0  0  0  2  0  0  0  0  0  0
  190.7510  176.8110  146.6450 C   0  0  0  0  0  0  0  0  0  0  0  0
  190.3510  176.3810  145.4510 C   0  0  0  0  0  3  0  0  0  0  0  0
  187.8250  177.9050  146.4380 C   0  0  0  0  0  0  0  0  0  0  0  0
  189.2360  176.9260  144.6550 C   0  0  0  0  0  3  0  0  0  0  0  0
  188.1270  177.5790  145.0640 C   0  0  0  0  0  0  0  0  0  0  0  0
  191.8570  176.1280  147.3390 C   0  0  0  0  0  0  0  0  0  0  0  0
  192.4410  176.7120  148.4590 O   0  0  0  0  0  1  0  0  0  0  0  0
  192.2810  175.0130  146.9350 O   0  0  0  0  0  0  0  0  0  0  0  0
  185.5560  179.3440  141.3380 S   0  0  0  0  0  0  0  0  0  0  0  0
  184.1570  177.6320  137.9020 C   0  0  0  0  0  3  0  0  0  0  0  0
  183.4130  179.7490  139.6340 C   0  0  0  0  0  3  0  0  0  0  0  0
  182.2010  178.2250  136.5820 N   0  0  0  0  0  0  0  0  0  0  0  0
  183.0250  178.4060  137.6440 C   0  0  0  0  0  0  0  0  0  0  0  0
  181.2740  180.1700  137.9300 S   0  0  0  0  0  0  0  0  0  0  0  0
  182.6710  179.4380  138.4990 C   0  0  0  0  0  0  0  0  0  0  0  0
  181.1920  179.1310  136.5960 C   0  0  0  0  0  0  0  0  0  0  0  0
  184.5580  178.9820  139.9010 C   0  0  0  0  0  0  0  0  0  0  0  0
  184.9260  177.9270  139.0410 C   0  0  0  0  0  3  0  0  0  0  0  0
  180.0970  179.1650  135.5800 C   0  0  1  0  0  3  0  0  0  0  0  0
  179.0870  178.2620  135.9180 O   0  0  0  0  0  1  0  0  0  0  0  0
  179.5270  180.5690  135.4240 C   0  0  0  0  0  2  0  0  0  0  0  0
  180.3410  181.3450  134.5950 O   0  0  0  0  0  1  0  0  0  0  0  0
  1 10  1  0  0  0  0
  1 17  1  0  0  0  0
  4  6  1  0  0  0  0
  5  1  2  0  0  0  0
  6 10  1  0  0  0  0
  6  7  1  0  0  0  0
  7 11  2  0  0  0  0
  8  4  2  0  0  0  0
  9 11  1  0  0  0  0
  9  3  1  0  0  0  0
 10  9  2  0  0  0  0
 12  2  1  0  0  0  0
 13 12  1  0  0  0  0
 13 18  1  0  0  0  0
 14 13  2  0  0  0  0
 15  3  1  0  0  0  0
 15  2  2  0  0  0  0
 16 17  2  0  0  0  0
 16 14  1  0  0  0  0
 17 15  1  0  0  0  0
 18 19  1  0  0  0  0
 20 18  2  0  0  0  0
 21  4  1  0  0  0  0
 22 30  1  0  0  0  0
 23 29  1  0  0  0  0
 24 28  2  0  0  0  0
 24 25  1  0  0  0  0
 25 22  2  0  0  0  0
 25 27  1  0  0  0  0
 26 27  1  0  0  0  0
 27 23  2  0  0  0  0
 28 26  1  0  0  0  0
 29 21  1  0  0  0  0
 30 29  2  0  0  0  0
 31 32  1  1  0  0  0
 31 28  1  0  0  0  0
 33 31  1  0  0  0  0
 34 33  1  0  0  0  0
M  END
>  <MODEL>
5

>  <REMARK>
 VINA RESULT:      -7.7      6.566      9.362
  Name = 
  5 active torsions:
  status: ('A' for Active; 'I' for Inactive)
    1  A    between atoms: C_3  and  C_25
    2  A    between atoms: C_7  and  C_11
    3  A    between atoms: C_7  and  C_29
    4  A    between atoms: C_8  and  S_18
    5  A    between atoms: S_18  and  C_30
                            x       y       z     vdW  Elec       q    Type
                         _______ _______ _______ _____ _____    ______ ____

>  <TORSDO>
F 5

$$$$
=
 OpenBabel10262423103D

 34 38  0  0  1  0  0  0  0  0999 V2000
  188.1960  177.8070  144.0190 C   0  0  0  0  0  0  0  0  0  0  0  0
  191.4020  175.9970  144.4520 C   0  0  0  0  0  3  0  0  0  0  0  0
  190.4780  176.9970  142.6120 N   0  0  0  0  0  2  0  0  0  0  0  0
  186.0830  178.8680  141.8940 C   0  0  0  0  0  0  0  0  0  0  0  0
  187.1900  178.2560  144.6340 O   0  0  0  0  0  0  0  0  0  0  0  0
  187.4350  178.4280  141.7190 N   0  0  0  0  0  0  0  0  0  0  0  0
  188.0370  178.4260  140.5340 N   0  0  0  0  0  0  0  0  0  0  0  0
  185.6890  179.9150  141.3170 O   0  0  0  0  0  0  0  0  0  0  0  0
  189.4260  177.5670  141.9840 C   0  0  0  0  0  0  0  0  0  0  0  0
  188.2830  177.9030  142.6270 C   0  0  0  0  0  0  0  0  0  0  0  0
  189.2780  177.8930  140.6560 C   0  0  0  0  0  3  0  0  0  0  0  0
  191.4120  175.3580  145.7980 C   0  0  0  0  0  2  0  0  0  0  0  0
  191.3990  176.3470  146.9060 C   0  0  0  0  0  0  0  0  0  0  0  0
  190.3890  177.2030  147.0400 C   0  0  0  0  0  3  0  0  0  0  0  0
  190.4300  176.7720  143.9590 C   0  0  0  0  0  0  0  0  0  0  0  0
  189.3110  177.4390  146.0630 C   0  0  0  0  0  3  0  0  0  0  0  0
  189.3110  177.2710  144.7230 C   0  0  0  0  0  0  0  0  0  0  0  0
  192.4310  176.2590  147.9530 C   0  0  0  0  0  0  0  0  0  0  0  0
  192.5740  177.2870  148.8790 O   0  0  0  0  0  1  0  0  0  0  0  0
  193.1890  175.2540  148.0280 O   0  0  0  0  0  0  0  0  0  0  0  0
  184.8930  177.8710  142.7930 S   0  0  0  0  0  0  0  0  0  0  0  0
  181.3460  179.0020  141.1100 C   0  0  0  0  0  3  0  0  0  0  0  0
  183.8030  177.8800  140.2490 C   0  0  0  0  0  3  0  0  0  0  0  0
  180.6470  178.8770  138.7830 N   0  0  0  0  0  0  0  0  0  0  0  0
  181.5590  178.6850  139.7680 C   0  0  0  0  0  0  0  0  0  0  0  0
  182.7170  177.8750  137.7040 S   0  0  0  0  0  0  0  0  0  0  0  0
  182.7650  178.1380  139.3590 C   0  0  0  0  0  0  0  0  0  0  0  0
  181.1360  178.4680  137.5860 C   0  0  0  0  0  0  0  0  0  0  0  0
  183.5990  178.1900  141.6030 C   0  0  0  0  0  0  0  0  0  0  0  0
  182.3780  178.7510  142.0300 C   0  0  0  0  0  3  0  0  0  0  0  0
  180.3850  178.5880  136.3000 C   0  0  1  0  0  3  0  0  0  0  0  0
  179.5010  177.5170  136.1480 O   0  0  0  0  0  1  0  0  0  0  0  0
  179.6380  179.9130  136.2140 C   0  0  0  0  0  2  0  0  0  0  0  0
  180.5120  180.9540  135.8940 O   0  0  0  0  0  1  0  0  0  0  0  0
  1  5  2  0  0  0  0
  1 17  1  0  0  0  0
  2 12  1  0  0  0  0
  3 15  1  0  0  0  0
  4 21  1  0  0  0  0
  6  4  1  0  0  0  0
  6 10  1  0  0  0  0
  7 11  2  0  0  0  0
  7  6  1  0  0  0  0
  8  4  2  0  0  0  0
  9  3  1  0  0  0  0
  9 10  2  0  0  0  0
 10  1  1  0  0  0  0
 11  9  1  0  0  0  0
 12 13  1  0  0  0  0
 13 14  2  0  0  0  0
 13 18  1  0  0  0  0
 15  2  2  0  0  0  0
 15 17  1  0  0  0  0
 16 14  1  0  0  0  0
 17 16  2  0  0  0  0
 18 20  2  0  0  0  0
 18 19  1  0  0  0  0
 22 30  1  0  0  0  0
 23 29  1  0  0  0  0
 24 25  1  0  0  0  0
 25 22  2  0  0  0  0
 26 27  1  0  0  0  0
 27 25  1  0  0  0  0
 27 23  2  0  0  0  0
 28 26  1  0  0  0  0
 28 24  2  0  0  0  0
 29 30  2  0  0  0  0
 29 21  1  0  0  0  0
 31 32  1  1  0  0  0
 31 28  1  0  0  0  0
 33 31  1  0  0  0  0
 34 33  1  0  0  0  0
M  END
>  <MODEL>
6

>  <REMARK>
 VINA RESULT:      -7.7      5.571      9.153
  Name = 
  5 active torsions:
  status: ('A' for Active; 'I' for Inactive)
    1  A    between atoms: C_3  and  C_25
    2  A    between atoms: C_7  and  C_11
    3  A    between atoms: C_7  and  C_29
    4  A    between atoms: C_8  and  S_18
    5  A    between atoms: S_18  and  C_30
                            x       y       z     vdW  Elec       q    Type
                         _______ _______ _______ _____ _____    ______ ____

>  <TORSDO>
F 5

$$$$
=
 OpenBabel10262423103D

 34 38  0  0  1  0  0  0  0  0999 V2000
  187.0480  177.7720  143.8500 C   0  0  0  0  0  0  0  0  0  0  0  0
  188.8030  177.9960  147.1080 C   0  0  0  0  0  3  0  0  0  0  0  0
  186.5830  178.1800  146.5820 N   0  0  0  0  0  2  0  0  0  0  0  0
  184.3520  178.4400  142.3050 C   0  0  0  0  0  0  0  0  0  0  0  0
  187.2070  177.5160  142.6250 O   0  0  0  0  0  0  0  0  0  0  0  0
  184.6300  178.3960  143.7090 N   0  0  0  0  0  0  0  0  0  0  0  0
  183.7010  178.6350  144.6300 N   0  0  0  0  0  0  0  0  0  0  0  0
  183.2990  177.9110  141.8620 O   0  0  0  0  0  0  0  0  0  0  0  0
  185.5960  178.3130  145.6690 C   0  0  0  0  0  0  0  0  0  0  0  0
  185.8070  178.1910  144.3370 C   0  0  0  0  0  0  0  0  0  0  0  0
  184.2640  178.5960  145.8630 C   0  0  0  0  0  3  0  0  0  0  0  0
  190.2720  178.0220  146.8590 C   0  0  0  0  0  2  0  0  0  0  0  0
  190.7760  176.7600  146.2590 C   0  0  0  0  0  0  0  0  0  0  0  0
  190.3270  176.3430  145.0780 C   0  0  0  0  0  3  0  0  0  0  0  0
  187.8520  177.8740  146.1760 C   0  0  0  0  0  0  0  0  0  0  0  0
  189.1860  176.9030  144.3320 C   0  0  0  0  0  3  0  0  0  0  0  0
  188.0980  177.5590  144.7890 C   0  0  0  0  0  0  0  0  0  0  0  0
  191.9040  176.0640  146.9040 C   0  0  0  0  0  0  0  0  0  0  0  0
  192.4340  176.5520  148.0940 O   0  0  0  0  0  1  0  0  0  0  0  0
  192.3960  175.0230  146.3920 O   0  0  0  0  0  0  0  0  0  0  0  0
  185.3950  179.3720  141.1820 S   0  0  0  0  0  0  0  0  0  0  0  0
  182.4520  179.4390  138.3480 C   0  0  0  0  0  3  0  0  0  0  0  0
  184.7140  177.8480  138.9740 C   0  0  0  0  0  3  0  0  0  0  0  0
  182.0890  177.9200  136.4820 N   0  0  0  0  0  0  0  0  0  0  0  0
  182.7850  178.3290  137.5710 C   0  0  0  0  0  0  0  0  0  0  0  0
  184.0340  176.3130  136.7750 S   0  0  0  0  0  0  0  0  0  0  0  0
  183.8950  177.5600  137.8860 C   0  0  0  0  0  0  0  0  0  0  0  0
  182.6490  176.8110  135.9390 C   0  0  0  0  0  0  0  0  0  0  0  0
  184.3850  178.9600  139.7660 C   0  0  0  0  0  0  0  0  0  0  0  0
  183.2620  179.7520  139.4530 C   0  0  0  0  0  3  0  0  0  0  0  0
  182.1350  176.1440  134.7050 C   0  0  1  0  0  3  0  0  0  0  0  0
  182.6560  174.8530  134.5940 O   0  0  0  0  0  1  0  0  0  0  0  0
  180.6120  176.1100  134.6840 C   0  0  0  0  0  2  0  0  0  0  0  0
  180.1340  174.9680  135.3300 O   0  0  0  0  0  1  0  0  0  0  0  0
  1 10  1  0  0  0  0
  1 17  1  0  0  0  0
  4  6  1  0  0  0  0
  5  1  2  0  0  0  0
  6 10  1  0  0  0  0
  6  7  1  0  0  0  0
  7 11  2  0  0  0  0
  8  4  2  0  0  0  0
  9 11  1  0  0  0  0
  9  3  1  0  0  0  0
 10  9  2  0  0  0  0
 12  2  1  0  0  0  0
 13 12  1  0  0  0  0
 13 18  1  0  0  0  0
 14 13  2  0  0  0  0
 15  3  1  0  0  0  0
 15  2  2  0  0  0  0
 16 17  2  0  0  0  0
 16 14  1  0  0  0  0
 17 15  1  0  0  0  0
 18 19  1  0  0  0  0
 20 18  2  0  0  0  0
 21  4  1  0  0  0  0
 22 30  1  0  0  0  0
 23 29  1  0  0  0  0
 24 25  1  0  0  0  0
 25 27  1  0  0  0  0
 25 22  2  0  0  0  0
 26 27  1  0  0  0  0
 27 23  2  0  0  0  0
 28 24  2  0  0  0  0
 28 26  1  0  0  0  0
 29 21  1  0  0  0  0
 30 29  2  0  0  0  0
 31 32  1  1  0  0  0
 31 28  1  0  0  0  0
 33 31  1  0  0  0  0
 33 34  1  0  0  0  0
M  END
>  <MODEL>
7

>  <REMARK>
 VINA RESULT:      -7.6      6.426      8.451
  Name = 
  5 active torsions:
  status: ('A' for Active; 'I' for Inactive)
    1  A    between atoms: C_3  and  C_25
    2  A    between atoms: C_7  and  C_11
    3  A    between atoms: C_7  and  C_29
    4  A    between atoms: C_8  and  S_18
    5  A    between atoms: S_18  and  C_30
                            x       y       z     vdW  Elec       q    Type
                         _______ _______ _______ _____ _____    ______ ____

>  <TORSDO>
F 5

$$$$
=
 OpenBabel10262423103D

 34 38  0  0  1  0  0  0  0  0999 V2000
  184.1990  178.2610  142.6300 C   0  0  0  0  0  0  0  0  0  0  0  0
  185.0880  178.9980  146.1520 C   0  0  0  0  0  3  0  0  0  0  0  0
  183.0590  178.9490  145.0940 N   0  0  0  0  0  2  0  0  0  0  0  0
  181.9370  178.5350  140.4130 C   0  0  0  0  0  0  0  0  0  0  0  0
  184.6650  177.8770  141.5220 O   0  0  0  0  0  0  0  0  0  0  0  0
  181.8640  178.6760  141.8370 N   0  0  0  0  0  0  0  0  0  0  0  0
  180.7270  178.9490  142.4700 N   0  0  0  0  0  0  0  0  0  0  0  0
  181.0510  177.8780  139.8060 O   0  0  0  0  0  0  0  0  0  0  0  0
  182.3210  178.8970  143.9630 C   0  0  0  0  0  0  0  0  0  0  0  0
  182.8590  178.6380  142.7470 C   0  0  0  0  0  0  0  0  0  0  0  0
  180.9700  179.0980  143.7960 C   0  0  0  0  0  3  0  0  0  0  0  0
  186.5690  179.1080  146.2580 C   0  0  0  0  0  2  0  0  0  0  0  0
  187.2640  177.8280  145.9680 C   0  0  0  0  0  0  0  0  0  0  0  0
  187.1390  177.2430  144.7800 C   0  0  0  0  0  3  0  0  0  0  0  0
  184.4010  178.6960  145.0460 C   0  0  0  0  0  0  0  0  0  0  0  0
  186.1910  177.6220  143.7160 C   0  0  0  0  0  3  0  0  0  0  0  0
  184.9950  178.2410  143.8100 C   0  0  0  0  0  0  0  0  0  0  0  0
  188.2300  177.3010  146.9480 C   0  0  0  0  0  0  0  0  0  0  0  0
  187.9450  177.3630  148.3080 O   0  0  0  0  0  1  0  0  0  0  0  0
  189.3160  176.7870  146.5700 O   0  0  0  0  0  0  0  0  0  0  0  0
  183.1790  179.4070  139.4580 S   0  0  0  0  0  0  0  0  0  0  0  0
  182.3990  177.3220  136.0320 C   0  0  0  0  0  3  0  0  0  0  0  0
  184.0260  177.0240  138.3340 C   0  0  0  0  0  3  0  0  0  0  0  0
  183.3080  175.1880  135.2980 N   0  0  0  0  0  0  0  0  0  0  0  0
  183.2150  176.2030  136.1930 C   0  0  0  0  0  0  0  0  0  0  0  0
  184.8700  174.6340  137.2230 S   0  0  0  0  0  0  0  0  0  0  0  0
  184.0070  176.0680  137.3220 C   0  0  0  0  0  0  0  0  0  0  0  0
  184.1740  174.2400  135.7310 C   0  0  0  0  0  0  0  0  0  0  0  0
  183.2040  178.1520  138.1850 C   0  0  0  0  0  0  0  0  0  0  0  0
  182.3980  178.3020  137.0390 C   0  0  0  0  0  3  0  0  0  0  0  0
  184.5230  173.0160  134.9470 C   0  0  1  0  0  3  0  0  0  0  0  0
  185.8110  172.5820  135.2650 O   0  0  0  0  0  1  0  0  0  0  0  0
  183.5110  171.9020  135.1770 C   0  0  0  0  0  2  0  0  0  0  0  0
  183.6750  171.3370  136.4440 O   0  0  0  0  0  1  0  0  0  0  0  0
  1 10  1  0  0  0  0
  1 17  1  0  0  0  0
  2 12  1  0  0  0  0
  4  6  1  0  0  0  0
  5  1  2  0  0  0  0
  6  7  1  0  0  0  0
  6 10  1  0  0  0  0
  7 11  2  0  0  0  0
  8  4  2  0  0  0  0
  9  3  1  0  0  0  0
 10  9  2  0  0  0  0
 11  9  1  0  0  0  0
 13 12  1  0  0  0  0
 13 18  1  0  0  0  0
 14 13  2  0  0  0  0
 15  3  1  0  0  0  0
 15  2  2  0  0  0  0
 16 17  2  0  0  0  0
 16 14  1  0  0  0  0
 17 15  1  0  0  0  0
 18 19  1  0  0  0  0
 20 18  2  0  0  0  0
 21  4  1  0  0  0  0
 22 25  2  0  0  0  0
 22 30  1  0  0  0  0
 24 28  2  0  0  0  0
 24 25  1  0  0  0  0
 25 27  1  0  0  0  0
 26 27  1  0  0  0  0
 27 23  2  0  0  0  0
 28 26  1  0  0  0  0
 29 23  1  0  0  0  0
 29 21  1  0  0  0  0
 30 29  2  0  0  0  0
 31 33  1  0  0  0  0
 31 32  1  1  0  0  0
 31 28  1  0  0  0  0
 33 34  1  0  0  0  0
M  END
>  <MODEL>
8

>  <REMARK>
 VINA RESULT:      -7.6      6.340      7.555
  Name = 
  5 active torsions:
  status: ('A' for Active; 'I' for Inactive)
    1  A    between atoms: C_3  and  C_25
    2  A    between atoms: C_7  and  C_11
    3  A    between atoms: C_7  and  C_29
    4  A    between atoms: C_8  and  S_18
    5  A    between atoms: S_18  and  C_30
                            x       y       z     vdW  Elec       q    Type
                         _______ _______ _______ _____ _____    ______ ____

>  <TORSDO>
F 5

$$$$
=
 OpenBabel10262423103D

 34 38  0  0  1  0  0  0  0  0999 V2000
  186.2350  178.3230  142.1400 C   0  0  0  0  0  0  0  0  0  0  0  0
  188.9900  177.1400  144.3190 C   0  0  0  0  0  3  0  0  0  0  0  0
  188.9600  177.6780  142.0940 N   0  0  0  0  0  2  0  0  0  0  0  0
  185.2830  178.6870  139.1290 C   0  0  0  0  0  0  0  0  0  0  0  0
  185.0300  178.6960  142.1360 O   0  0  0  0  0  0  0  0  0  0  0  0
  186.5890  178.4470  139.6670 N   0  0  0  0  0  0  0  0  0  0  0  0
  187.6710  178.3560  138.9010 N   0  0  0  0  0  0  0  0  0  0  0  0
  185.1300  179.5550  138.2290 O   0  0  0  0  0  0  0  0  0  0  0  0
  188.2840  177.9670  140.9610 C   0  0  0  0  0  0  0  0  0  0  0  0
  186.9510  178.2130  140.9450 C   0  0  0  0  0  0  0  0  0  0  0  0
  188.7470  178.0540  139.6690 C   0  0  0  0  0  3  0  0  0  0  0  0
  188.4180  176.7290  145.6320 C   0  0  0  0  0  2  0  0  0  0  0  0
  187.8230  177.8640  146.3810 C   0  0  0  0  0  0  0  0  0  0  0  0
  186.8090  178.5570  145.8700 C   0  0  0  0  0  3  0  0  0  0  0  0
  188.3070  177.6620  143.2950 C   0  0  0  0  0  0  0  0  0  0  0  0
  186.2940  178.4630  144.4920 C   0  0  0  0  0  3  0  0  0  0  0  0
  186.9290  178.0890  143.3600 C   0  0  0  0  0  0  0  0  0  0  0  0
  188.2530  178.1060  147.7700 C   0  0  0  0  0  0  0  0  0  0  0  0
  189.5440  177.7740  148.1670 O   0  0  0  0  0  0  0  0  0  0  0  0
  187.4640  178.6190  148.6080 O   0  0  0  0  0  1  0  0  0  0  0  0
  183.8850  177.6650  139.5980 S   0  0  0  0  0  0  0  0  0  0  0  0
  181.3890  178.7670  136.5570 C   0  0  0  0  0  3  0  0  0  0  0  0
  182.3430  179.8800  138.9830 C   0  0  0  0  0  3  0  0  0  0  0  0
  180.1470  180.8390  136.2690 N   0  0  0  0  0  0  0  0  0  0  0  0
  180.9940  180.0410  136.9650 C   0  0  0  0  0  0  0  0  0  0  0  0
  180.8130  182.1030  138.3700 S   0  0  0  0  0  0  0  0  0  0  0  0
  181.4660  180.5740  138.1540 C   0  0  0  0  0  0  0  0  0  0  0  0
  179.9570  182.0180  136.9120 C   0  0  0  0  0  0  0  0  0  0  0  0
  182.7520  178.5990  138.5790 C   0  0  0  0  0  0  0  0  0  0  0  0
  182.2750  178.0450  137.3740 C   0  0  0  0  0  3  0  0  0  0  0  0
  179.0440  183.0920  136.4190 C   0  0  1  0  0  3  0  0  0  0  0  0
  178.9310  184.1120  137.3660 O   0  0  0  0  0  1  0  0  0  0  0  0
  179.5170  183.6530  135.0840 C   0  0  0  0  0  2  0  0  0  0  0  0
  180.8310  184.1170  135.1790 O   0  0  0  0  0  1  0  0  0  0  0  0
  1 17  1  0  0  0  0
  2 12  1  0  0  0  0
  3 15  1  0  0  0  0
  4 21  1  0  0  0  0
  4  6  1  0  0  0  0
  5  1  2  0  0  0  0
  6 10  1  0  0  0  0
  7  6  1  0  0  0  0
  7 11  2  0  0  0  0
  8  4  2  0  0  0  0
  9  3  1  0  0  0  0
 10  9  2  0  0  0  0
 10  1  1  0  0  0  0
 11  9  1  0  0  0  0
 12 13  1  0  0  0  0
 13 18  1  0  0  0  0
 14 13  2  0  0  0  0
 15 17  1  0  0  0  0
 15  2  2  0  0  0  0
 16 14  1  0  0  0  0
 17 16  2  0  0  0  0
 18 19  2  0  0  0  0
 18 20  1  0  0  0  0
 22 25  2  0  0  0  0
 22 30  1  0  0  0  0
 24 28  2  0  0  0  0
 24 25  1  0  0  0  0
 25 27  1  0  0  0  0
 27 26  1  0  0  0  0
 27 23  2  0  0  0  0
 28 26  1  0  0  0  0
 29 23  1  0  0  0  0
 29 21  1  0  0  0  0
 30 29  2  0  0  0  0
 31 28  1  0  0  0  0
 31 32  1  1  0  0  0
 33 34  1  0  0  0  0
 33 31  1  0  0  0  0
M  END
>  <MODEL>
9

>  <REMARK>
 VINA RESULT:      -7.6      5.799      9.619
  Name = 
  5 active torsions:
  status: ('A' for Active; 'I' for Inactive)
    1  A    between atoms: C_3  and  C_25
    2  A    between atoms: C_7  and  C_11
    3  A    between atoms: C_7  and  C_29
    4  A    between atoms: C_8  and  S_18
    5  A    between atoms: S_18  and  C_30
                            x       y       z     vdW  Elec       q    Type
                         _______ _______ _______ _____ _____    ______ ____

>  <TORSDO>
F 5

$$$$
