=
 OpenBabel10262420253D

 55 59  0  0  1  0  0  0  0  0999 V2000
  186.3340  177.7590  137.2130 C   0  0  0  0  0  3  0  0  0  0  0  0
  183.3230  177.4930  141.4300 C   0  0  0  0  0  2  0  0  0  0  0  0
  182.6800  175.8060  139.2540 O   0  0  0  0  0  0  0  0  0  0  0  0
  180.4590  176.6090  136.1330 C   0  0  0  0  0  2  0  0  0  0  0  0
  179.3680  175.5850  135.8500 C   0  0  0  0  0  2  0  0  0  0  0  0
  182.0980  174.8360  135.3830 C   0  0  0  0  0  0  0  0  0  0  0  0
  181.1460  174.2800  134.6260 C   0  0  0  0  0  3  0  0  0  0  0  0
  182.7220  177.6290  137.8260 O   0  0  0  0  0  0  0  0  0  0  0  0
  179.7290  174.7900  134.5940 C   0  0  0  0  0  2  0  0  0  0  0  0
  188.5680  177.0220  137.9230 C   0  0  0  0  0  2  0  0  0  0  0  0
  181.7730  175.8770  136.4270 C   0  0  1  0  0  3  0  0  0  0  0  0
  187.9740  178.4700  140.3740 C   0  0  1  0  0  3  0  0  0  0  0  0
  185.3220  176.9850  136.9270 C   0  0  0  0  0  0  0  0  0  0  0  0
  187.3190  178.7160  139.1360 O   0  0  0  0  0  0  0  0  0  0  0  0
  184.5100  174.9190  135.8780 C   0  0  0  0  0  0  0  0  0  0  0  0
  183.6670  178.5910  142.2250 O   0  0  0  0  0  0  0  0  0  0  0  0
  183.4590  174.3050  135.3110 C   0  0  0  0  0  3  0  0  0  0  0  0
  182.4350  177.9500  140.2810 C   0  0  0  0  0  2  0  0  0  0  0  0
  182.6280  177.0560  139.1020 C   0  0  0  0  0  0  0  0  0  0  0  0
  189.7010  177.5300  138.8080 C   0  0  0  0  0  2  0  0  0  0  0  0
  184.9480  178.2840  142.6970 C   0  0  1  0  0  3  0  0  0  0  0  0
  187.1970  177.5160  138.4010 C   0  0  1  0  0  3  0  0  0  0  0  0
  182.9230  176.8700  136.6280 C   0  0  2  0  0  3  0  0  0  0  0  0
  184.3020  176.2300  136.5910 C   0  0  0  0  0  0  0  0  0  0  0  0
  185.9920  178.9350  141.8080 C   0  0  0  0  0  2  0  0  0  0  0  0
  187.0260  177.8920  141.4140 C   0  0  0  0  0  2  0  0  0  0  0  0
  189.2400  177.6050  140.2550 C   0  0  0  0  0  2  0  0  0  0  0  0
  186.7710  174.7640  134.7880 C   0  0  0  0  0  3  0  0  0  0  0  0
  188.4290  173.1220  135.4780 C   0  0  0  0  0  0  0  0  0  0  0  0
  186.2410  173.1980  136.5410 C   0  0  0  0  0  3  0  0  0  0  0  0
  187.5120  172.6290  136.4200 C   0  0  0  0  0  3  0  0  0  0  0  0
  188.0460  174.1980  134.6650 C   0  0  0  0  0  3  0  0  0  0  0  0
  185.8450  174.2650  135.7200 C   0  0  0  0  0  0  0  0  0  0  0  0
  189.7440  172.5450  135.3640 N   0  0  0  0  0  0  0  0  0  0  0  0
  190.9230  173.2570  135.8620 C   0  0  0  0  0  1  0  0  0  0  0  0
  189.9540  171.2550  134.7160 C   0  0  0  0  0  1  0  0  0  0  0  0
  184.9950  180.2310  144.3250 C   0  0  0  0  0  1  0  0  0  0  0  0
  185.1480  178.7250  144.1490 C   0  0  2  0  0  3  0  0  0  0  0  0
  186.3220  178.1770  144.7650 O   0  0  0  0  0  0  0  0  0  0  0  0
  186.6630  178.2690  146.1320 C   0  0  0  0  0  0  0  0  0  0  0  0
  185.9060  178.9270  146.8940 O   0  0  0  0  0  0  0  0  0  0  0  0
  187.8960  177.6080  146.6920 C   0  0  2  0  0  3  0  0  0  0  0  0
  188.0510  177.8240  148.1860 C   0  0  0  0  0  1  0  0  0  0  0  0
  189.1960  177.8300  145.8920 C   0  0  1  0  0  3  0  0  0  0  0  0
  190.3030  176.9990  146.4800 C   0  0  0  0  0  0  0  0  0  0  0  0
  190.0220  175.9630  147.1420 O   0  0  0  0  0  1  0  0  0  0  0  0
  191.6400  177.3590  146.3060 O   0  0  0  0  0  0  0  0  0  0  0  0
  189.1170  177.6810  144.3530 C   0  0  2  0  0  3  0  0  0  0  0  0
  189.3460  176.2180  143.9430 C   0  0  1  0  0  3  0  0  0  0  0  0
  188.2480  175.7170  143.2500 O   0  0  0  0  0  1  0  0  0  0  0  0
  190.6090  176.0410  143.1110 C   0  0  0  0  0  2  0  0  0  0  0  0
  191.2780  174.8700  143.4990 O   0  0  0  0  0  1  0  0  0  0  0  0
  190.0540  178.6180  143.5810 C   0  0  0  0  0  2  0  0  0  0  0  0
  191.8900  179.6640  143.9660 O   0  0  0  0  0  1  0  0  0  0  0  0
  190.6870  179.4930  144.4740 O   0  0  0  0  0  0  0  0  0  0  0  0
  2 16  1  0  0  0  0
  5  4  1  0  0  0  0
  6 11  1  0  0  0  0
  7  6  2  0  0  0  0
  8 19  1  0  0  0  0
  9  7  1  0  0  0  0
  9  5  1  0  0  0  0
 10 22  1  0  0  0  0
 10 20  1  0  0  0  0
 11  4  1  6  0  0  0
 11 23  1  0  0  0  0
 12 27  1  6  0  0  0
 12 26  1  0  0  0  0
 13  1  2  0  0  0  0
 14 12  1  0  0  0  0
 15 24  1  0  0  0  0
 16 21  1  0  0  0  0
 17  6  1  0  0  0  0
 17 15  2  0  0  0  0
 18  2  1  0  0  0  0
 19  3  2  0  0  0  0
 19 18  1  0  0  0  0
 20 27  1  0  0  0  0
 21 38  1  1  0  0  0
 22  1  1  6  0  0  0
 22 14  1  0  0  0  0
 23 24  1  1  0  0  0
 23  8  1  0  0  0  0
 24 13  2  0  0  0  0
 25 21  1  0  0  0  0
 26 25  1  0  0  0  0
 28 33  1  0  0  0  0
 29 31  2  0  0  0  0
 31 30  1  0  0  0  0
 32 28  2  0  0  0  0
 32 29  1  0  0  0  0
 33 15  1  0  0  0  0
 33 30  2  0  0  0  0
 34 29  1  0  0  0  0
 34 35  1  0  0  0  0
 36 34  1  0  0  0  0
 38 37  1  6  0  0  0
 38 39  1  0  0  0  0
 39 40  1  0  0  0  0
 40 42  1  0  0  0  0
 40 41  2  0  0  0  0
 42 43  1  1  0  0  0
 44 45  1  1  0  0  0
 44 42  1  0  0  0  0
 45 46  1  0  0  0  0
 47 45  2  0  0  0  0
 48 53  1  6  0  0  0
 48 44  1  0  0  0  0
 49 50  1  6  0  0  0
 49 48  1  0  0  0  0
 51 52  1  0  0  0  0
 51 49  1  0  0  0  0
 53 55  1  0  0  0  0
 54 55  1  0  0  0  0
M  END
>  <MODEL>
1

>  <REMARK>
 VINA RESULT:      -7.8      0.000      0.000
  Name = 
  13 active torsions:
  status: ('A' for Active; 'I' for Inactive)
    1  A    between atoms: C_1  and  C_53
    2  A    between atoms: C_3  and  O_14
    3  A    between atoms: C_3  and  C_38
    4  A    between atoms: C_6  and  C_20
    5  A    between atoms: C_6  and  C_53
    6  A    between atoms: C_8  and  O_22
    7  A    between atoms: C_8  and  C_43
    8  A    between atoms: N_10  and  C_32
    9  A    between atoms: C_11  and  C_29
   10  A    between atoms: C_20  and  O_22
   11  A    between atoms: C_29  and  C_38
   12  A    between atoms: C_33  and  C_52
   13  A    between atoms: C_38  and  C_53
                            x       y       z     vdW  Elec       q    Type
                         _______ _______ _______ _____ _____    ______ ____

>  <TORSDO>
F 13

$$$$
=
 OpenBabel10262420253D

 55 59  0  0  1  0  0  0  0  0999 V2000
  183.6070  177.6330  136.8130 C   0  0  0  0  0  3  0  0  0  0  0  0
  186.8330  178.1150  140.8480 C   0  0  0  0  0  2  0  0  0  0  0  0
  184.1410  177.4510  141.3970 O   0  0  0  0  0  0  0  0  0  0  0  0
  181.0970  179.8620  141.8860 C   0  0  0  0  0  2  0  0  0  0  0  0
  180.2850  179.6120  143.1500 C   0  0  0  0  0  2  0  0  0  0  0  0
  180.1320  177.6890  141.0270 C   0  0  0  0  0  0  0  0  0  0  0  0
  179.0650  177.8540  141.8170 C   0  0  0  0  0  3  0  0  0  0  0  0
  183.4340  179.2380  140.1040 O   0  0  0  0  0  0  0  0  0  0  0  0
  178.9310  179.0070  142.7760 C   0  0  0  0  0  2  0  0  0  0  0  0
  184.4490  175.7410  135.4890 C   0  0  0  0  0  2  0  0  0  0  0  0
  181.3780  178.5240  141.1950 C   0  0  1  0  0  3  0  0  0  0  0  0
  187.0780  176.7790  136.1720 C   0  0  1  0  0  3  0  0  0  0  0  0
  182.8910  177.5530  137.9020 C   0  0  0  0  0  0  0  0  0  0  0  0
  185.8900  177.5590  136.2080 O   0  0  0  0  0  0  0  0  0  0  0  0
  181.0810  176.4370  139.1290 C   0  0  0  0  0  0  0  0  0  0  0  0
  187.9980  178.7060  140.3470 O   0  0  0  0  0  0  0  0  0  0  0  0
  180.1510  176.5660  140.0890 C   0  0  0  0  0  3  0  0  0  0  0  0
  185.7520  179.1730  141.0170 C   0  0  0  0  0  2  0  0  0  0  0  0
  184.4050  178.5550  140.8520 C   0  0  0  0  0  0  0  0  0  0  0  0
  185.6530  175.4190  134.6110 C   0  0  0  0  0  2  0  0  0  0  0  0
  188.5790  177.7060  139.5600 C   0  0  1  0  0  3  0  0  0  0  0  0
  184.7900  176.7590  136.5850 C   0  0  1  0  0  3  0  0  0  0  0  0
  182.1150  178.7330  139.8680 C   0  0  2  0  0  3  0  0  0  0  0  0
  182.1340  177.5030  138.9730 C   0  0  0  0  0  0  0  0  0  0  0  0
  188.1750  177.8960  138.1090 C   0  0  0  0  0  2  0  0  0  0  0  0
  187.6640  176.5720  137.5610 C   0  0  0  0  0  2  0  0  0  0  0  0
  186.9250  175.4330  135.4430 C   0  0  0  0  0  2  0  0  0  0  0  0
  182.1150  174.4720  137.9490 C   0  0  0  0  0  3  0  0  0  0  0  0
  180.7880  172.9010  136.6470 C   0  0  0  0  0  0  0  0  0  0  0  0
  179.7390  174.8090  137.7340 C   0  0  0  0  0  3  0  0  0  0  0  0
  179.6440  173.6590  136.9450 C   0  0  0  0  0  3  0  0  0  0  0  0
  182.0240  173.3190  137.1600 C   0  0  0  0  0  3  0  0  0  0  0  0
  180.9750  175.2410  138.2370 C   0  0  0  0  0  0  0  0  0  0  0  0
  180.6890  171.7070  135.8470 N   0  0  0  0  0  0  0  0  0  0  0  0
  179.4480  170.9290  135.8080 C   0  0  0  0  0  1  0  0  0  0  0  0
  181.8260  171.2100  135.0790 C   0  0  0  0  0  1  0  0  0  0  0  0
  190.7260  176.4620  139.0270 C   0  0  0  0  0  1  0  0  0  0  0  0
  190.1040  177.6900  139.6810 C   0  0  2  0  0  3  0  0  0  0  0  0
  190.5830  177.9560  141.0070 O   0  0  0  0  0  0  0  0  0  0  0  0
  190.3240  177.1760  142.1560 C   0  0  0  0  0  0  0  0  0  0  0  0
  190.2780  175.9240  142.0310 O   0  0  0  0  0  0  0  0  0  0  0  0
  190.1040  177.8010  143.5100 C   0  0  2  0  0  3  0  0  0  0  0  0
  191.0840  178.9220  143.8050 C   0  0  0  0  0  1  0  0  0  0  0  0
  189.9180  176.8140  144.6800 C   0  0  1  0  0  3  0  0  0  0  0  0
  191.2070  176.6760  145.4410 C   0  0  0  0  0  0  0  0  0  0  0  0
  191.9970  175.7320  145.1650 O   0  0  0  0  0  0  0  0  0  0  0  0
  191.5440  177.5780  146.4500 O   0  0  0  0  0  1  0  0  0  0  0  0
  188.7120  177.0520  145.6230 C   0  0  2  0  0  3  0  0  0  0  0  0
  187.5460  177.6910  144.8520 C   0  0  1  0  0  3  0  0  0  0  0  0
  186.8620  176.7380  144.1040 O   0  0  0  0  0  1  0  0  0  0  0  0
  186.5780  178.4220  145.7710 C   0  0  0  0  0  2  0  0  0  0  0  0
  185.2620  178.2470  145.3180 O   0  0  0  0  0  1  0  0  0  0  0  0
  189.0470  177.8640  146.8800 C   0  0  0  0  0  2  0  0  0  0  0  0
  188.6310  178.0700  148.9770 O   0  0  0  0  0  1  0  0  0  0  0  0
  188.6210  177.1670  148.0200 O   0  0  0  0  0  0  0  0  0  0  0  0
  1 13  2  0  0  0  0
  2 18  1  0  0  0  0
  4  5  1  0  0  0  0
  6 11  1  0  0  0  0
  6  7  2  0  0  0  0
  7  9  1  0  0  0  0
  8 19  1  0  0  0  0
  9  5  1  0  0  0  0
 11  4  1  6  0  0  0
 12 27  1  1  0  0  0
 12 14  1  0  0  0  0
 12 26  1  0  0  0  0
 13 24  2  0  0  0  0
 14 22  1  0  0  0  0
 15 17  2  0  0  0  0
 16  2  1  0  0  0  0
 17  6  1  0  0  0  0
 19 18  1  0  0  0  0
 19  3  2  0  0  0  0
 20 27  1  0  0  0  0
 20 10  1  0  0  0  0
 21 38  1  6  0  0  0
 21 16  1  0  0  0  0
 22 10  1  6  0  0  0
 22  1  1  0  0  0  0
 23 24  1  1  0  0  0
 23  8  1  0  0  0  0
 23 11  1  0  0  0  0
 24 15  1  0  0  0  0
 25 21  1  0  0  0  0
 26 25  1  0  0  0  0
 28 33  1  0  0  0  0
 29 31  2  0  0  0  0
 29 32  1  0  0  0  0
 30 33  2  0  0  0  0
 31 30  1  0  0  0  0
 32 28  2  0  0  0  0
 33 15  1  0  0  0  0
 34 29  1  0  0  0  0
 35 34  1  0  0  0  0
 36 34  1  0  0  0  0
 38 37  1  1  0  0  0
 38 39  1  0  0  0  0
 39 40  1  0  0  0  0
 40 42  1  0  0  0  0
 41 40  2  0  0  0  0
 42 43  1  1  0  0  0
 42 44  1  0  0  0  0
 44 45  1  1  0  0  0
 44 48  1  0  0  0  0
 45 47  1  0  0  0  0
 46 45  2  0  0  0  0
 48 53  1  1  0  0  0
 49 50  1  1  0  0  0
 49 48  1  0  0  0  0
 49 51  1  0  0  0  0
 52 51  1  0  0  0  0
 53 55  1  0  0  0  0
 55 54  1  0  0  0  0
M  END
>  <MODEL>
2

>  <REMARK>
 VINA RESULT:      -7.8      2.363      5.625
  Name = 
  13 active torsions:
  status: ('A' for Active; 'I' for Inactive)
    1  A    between atoms: C_1  and  C_53
    2  A    between atoms: C_3  and  O_14
    3  A    between atoms: C_3  and  C_38
    4  A    between atoms: C_6  and  C_20
    5  A    between atoms: C_6  and  C_53
    6  A    between atoms: C_8  and  O_22
    7  A    between atoms: C_8  and  C_43
    8  A    between atoms: N_10  and  C_32
    9  A    between atoms: C_11  and  C_29
   10  A    between atoms: C_20  and  O_22
   11  A    between atoms: C_29  and  C_38
   12  A    between atoms: C_33  and  C_52
   13  A    between atoms: C_38  and  C_53
                            x       y       z     vdW  Elec       q    Type
                         _______ _______ _______ _____ _____    ______ ____

>  <TORSDO>
F 13

$$$$
=
 OpenBabel10262420253D

 55 59  0  0  1  0  0  0  0  0999 V2000
  185.8620  178.8700  137.9940 C   0  0  0  0  0  3  0  0  0  0  0  0
  189.7260  176.7420  140.7250 C   0  0  0  0  0  2  0  0  0  0  0  0
  187.1620  176.8020  141.9140 O   0  0  0  0  0  0  0  0  0  0  0  0
  185.5250  179.6690  144.0150 C   0  0  0  0  0  2  0  0  0  0  0  0
  184.9470  179.2260  145.3530 C   0  0  0  0  0  2  0  0  0  0  0  0
  183.6110  178.4080  142.9500 C   0  0  0  0  0  0  0  0  0  0  0  0
  182.8810  178.5860  144.0570 C   0  0  0  0  0  3  0  0  0  0  0  0
  187.0070  179.0690  141.4710 O   0  0  0  0  0  0  0  0  0  0  0  0
  183.4200  179.2670  145.2870 C   0  0  0  0  0  2  0  0  0  0  0  0
  185.5830  177.4630  135.9990 C   0  0  0  0  0  2  0  0  0  0  0  0
  185.0960  178.6790  142.9280 C   0  0  1  0  0  3  0  0  0  0  0  0
  188.4840  177.2810  136.0490 C   0  0  1  0  0  3  0  0  0  0  0  0
  185.4040  178.6120  139.1900 C   0  0  0  0  0  0  0  0  0  0  0  0
  187.7500  178.3190  136.6840 O   0  0  0  0  0  0  0  0  0  0  0  0
  183.5750  177.7430  140.5780 C   0  0  0  0  0  0  0  0  0  0  0  0
  190.9090  177.0810  140.0580 O   0  0  0  0  0  0  0  0  0  0  0  0
  182.9870  177.7820  141.7840 C   0  0  0  0  0  3  0  0  0  0  0  0
  189.2270  177.9380  141.5240 C   0  0  0  0  0  2  0  0  0  0  0  0
  187.7410  177.8870  141.6420 C   0  0  0  0  0  0  0  0  0  0  0  0
  186.3530  177.1390  134.7240 C   0  0  0  0  0  2  0  0  0  0  0  0
  190.8640  176.3280  138.8800 C   0  0  1  0  0  3  0  0  0  0  0  0
  186.5160  177.8250  137.1610 C   0  0  1  0  0  3  0  0  0  0  0  0
  185.5780  179.1350  141.5460 C   0  0  2  0  0  3  0  0  0  0  0  0
  184.9180  178.3980  140.3900 C   0  0  0  0  0  0  0  0  0  0  0  0
  190.2970  177.1710  137.7530 C   0  0  0  0  0  2  0  0  0  0  0  0
  189.1950  176.3890  137.0560 C   0  0  0  0  0  2  0  0  0  0  0  0
  187.6570  176.4350  135.0660 C   0  0  0  0  0  2  0  0  0  0  0  0
  181.8120  177.7700  138.7850 C   0  0  0  0  0  3  0  0  0  0  0  0
  181.4470  175.8760  137.3010 C   0  0  0  0  0  0  0  0  0  0  0  0
  183.1410  175.7770  139.0460 C   0  0  0  0  0  3  0  0  0  0  0  0
  182.4630  175.1820  137.9780 C   0  0  0  0  0  3  0  0  0  0  0  0
  181.1310  177.1780  137.7140 C   0  0  0  0  0  3  0  0  0  0  0  0
  182.8190  177.0740  139.4740 C   0  0  0  0  0  0  0  0  0  0  0  0
  180.7580  175.2690  136.1910 N   0  0  0  0  0  0  0  0  0  0  0  0
  181.2390  175.4470  134.8190 C   0  0  0  0  0  1  0  0  0  0  0  0
  179.5400  174.4900  136.3870 C   0  0  0  0  0  1  0  0  0  0  0  0
  193.0350  176.7800  137.6450 C   0  0  0  0  0  1  0  0  0  0  0  0
  192.2420  175.7890  138.4890 C   0  0  2  0  0  3  0  0  0  0  0  0
  192.2150  174.4560  137.9590 O   0  0  0  0  0  0  0  0  0  0  0  0
  192.6800  174.0580  136.6870 C   0  0  0  0  0  0  0  0  0  0  0  0
  191.9270  174.2360  135.6920 O   0  0  0  0  0  0  0  0  0  0  0  0
  194.0370  173.4340  136.4940 C   0  0  2  0  0  3  0  0  0  0  0  0
  194.0510  171.9490  136.8100 C   0  0  0  0  0  1  0  0  0  0  0  0
  195.2240  174.2100  137.1020 C   0  0  1  0  0  3  0  0  0  0  0  0
  195.3210  173.9200  138.5740 C   0  0  0  0  0  0  0  0  0  0  0  0
  195.4900  174.8690  139.3870 O   0  0  0  0  0  1  0  0  0  0  0  0
  195.2290  172.6130  139.0550 O   0  0  0  0  0  0  0  0  0  0  0  0
  196.5950  174.0780  136.3940 C   0  0  2  0  0  3  0  0  0  0  0  0
  197.6440  173.5040  137.3600 C   0  0  1  0  0  3  0  0  0  0  0  0
  198.0810  172.2530  136.9360 O   0  0  0  0  0  1  0  0  0  0  0  0
  198.8340  174.4360  137.5410 C   0  0  0  0  0  2  0  0  0  0  0  0
  198.5570  175.3800  138.5400 O   0  0  0  0  0  1  0  0  0  0  0  0
  197.0980  175.3750  135.7490 C   0  0  0  0  0  2  0  0  0  0  0  0
  196.6890  177.4510  135.3820 O   0  0  0  0  0  1  0  0  0  0  0  0
  196.1080  176.3630  135.8420 O   0  0  0  0  0  0  0  0  0  0  0  0
  1 13  2  0  0  0  0
  2 18  1  0  0  0  0
  4  5  1  0  0  0  0
  6  7  2  0  0  0  0
  7  9  1  0  0  0  0
  8 23  1  0  0  0  0
  8 19  1  0  0  0  0
  9  5  1  0  0  0  0
 11  6  1  0  0  0  0
 11  4  1  1  0  0  0
 12 27  1  1  0  0  0
 12 14  1  0  0  0  0
 12 26  1  0  0  0  0
 13 24  2  0  0  0  0
 14 22  1  0  0  0  0
 15 17  2  0  0  0  0
 16  2  1  0  0  0  0
 17  6  1  0  0  0  0
 18 19  1  0  0  0  0
 19  3  2  0  0  0  0
 20 27  1  0  0  0  0
 20 10  1  0  0  0  0
 21 38  1  6  0  0  0
 21 16  1  0  0  0  0
 22 10  1  6  0  0  0
 22  1  1  0  0  0  0
 23 24  1  6  0  0  0
 23 11  1  0  0  0  0
 24 15  1  0  0  0  0
 25 21  1  0  0  0  0
 26 25  1  0  0  0  0
 28 33  1  0  0  0  0
 29 32  1  0  0  0  0
 29 31  2  0  0  0  0
 30 33  2  0  0  0  0
 31 30  1  0  0  0  0
 32 28  2  0  0  0  0
 33 15  1  0  0  0  0
 34 36  1  0  0  0  0
 34 29  1  0  0  0  0
 35 34  1  0  0  0  0
 38 37  1  6  0  0  0
 39 38  1  0  0  0  0
 40 39  1  0  0  0  0
 41 40  2  0  0  0  0
 42 40  1  0  0  0  0
 42 43  1  1  0  0  0
 42 44  1  0  0  0  0
 44 45  1  1  0  0  0
 45 47  2  0  0  0  0
 45 46  1  0  0  0  0
 48 53  1  1  0  0  0
 48 44  1  0  0  0  0
 48 49  1  0  0  0  0
 49 50  1  6  0  0  0
 49 51  1  0  0  0  0
 51 52  1  0  0  0  0
 53 55  1  0  0  0  0
 54 55  1  0  0  0  0
M  END
>  <MODEL>
3

>  <REMARK>
 VINA RESULT:      -7.0      4.248      8.658
  Name = 
  13 active torsions:
  status: ('A' for Active; 'I' for Inactive)
    1  A    between atoms: C_1  and  C_53
    2  A    between atoms: C_3  and  O_14
    3  A    between atoms: C_3  and  C_38
    4  A    between atoms: C_6  and  C_20
    5  A    between atoms: C_6  and  C_53
    6  A    between atoms: C_8  and  O_22
    7  A    between atoms: C_8  and  C_43
    8  A    between atoms: N_10  and  C_32
    9  A    between atoms: C_11  and  C_29
   10  A    between atoms: C_20  and  O_22
   11  A    between atoms: C_29  and  C_38
   12  A    between atoms: C_33  and  C_52
   13  A    between atoms: C_38  and  C_53
                            x       y       z     vdW  Elec       q    Type
                         _______ _______ _______ _____ _____    ______ ____

>  <TORSDO>
F 13

$$$$
=
 OpenBabel10262420253D

 55 59  0  0  1  0  0  0  0  0999 V2000
  185.1620  177.5220  136.9890 C   0  0  0  0  0  3  0  0  0  0  0  0
  187.1070  178.3270  141.7330 C   0  0  0  0  0  2  0  0  0  0  0  0
  184.4300  177.4340  141.5490 O   0  0  0  0  0  0  0  0  0  0  0  0
  181.1830  179.5740  141.1080 C   0  0  0  0  0  2  0  0  0  0  0  0
  180.0790  179.2660  142.1110 C   0  0  0  0  0  2  0  0  0  0  0  0
  180.6710  177.3160  140.0920 C   0  0  0  0  0  0  0  0  0  0  0  0
  179.4190  177.3940  140.5550 C   0  0  0  0  0  3  0  0  0  0  0  0
  183.9620  179.1390  140.0530 O   0  0  0  0  0  0  0  0  0  0  0  0
  178.9330  178.5410  141.4020 C   0  0  0  0  0  2  0  0  0  0  0  0
  186.4870  175.6990  136.0100 C   0  0  0  0  0  2  0  0  0  0  0  0
  181.7510  178.2590  140.5660 C   0  0  1  0  0  3  0  0  0  0  0  0
  188.7330  176.9700  137.3490 C   0  0  1  0  0  3  0  0  0  0  0  0
  184.1840  177.3910  137.8450 C   0  0  0  0  0  0  0  0  0  0  0  0
  187.5220  177.6430  137.0330 O   0  0  0  0  0  0  0  0  0  0  0  0
  182.2040  176.1330  138.5680 C   0  0  0  0  0  0  0  0  0  0  0  0
  188.3120  179.0130  141.5490 O   0  0  0  0  0  0  0  0  0  0  0  0
  181.0390  176.1900  139.2340 C   0  0  0  0  0  3  0  0  0  0  0  0
  185.9380  179.2880  141.5650 C   0  0  0  0  0  2  0  0  0  0  0  0
  184.7430  178.5520  141.0600 C   0  0  0  0  0  0  0  0  0  0  0  0
  187.9080  175.4750  135.5050 C   0  0  0  0  0  2  0  0  0  0  0  0
  189.1660  178.0590  140.9840 C   0  0  1  0  0  3  0  0  0  0  0  0
  186.4290  176.7530  137.1230 C   0  0  1  0  0  3  0  0  0  0  0  0
  182.8040  178.5180  139.4830 C   0  0  2  0  0  3  0  0  0  0  0  0
  183.1690  177.2850  138.6700 C   0  0  0  0  0  0  0  0  0  0  0  0
  189.1620  178.1980  139.4730 C   0  0  0  0  0  2  0  0  0  0  0  0
  188.9310  176.8300  138.8510 C   0  0  0  0  0  2  0  0  0  0  0  0
  188.8970  175.6090  136.6520 C   0  0  0  0  0  2  0  0  0  0  0  0
  183.6100  174.1590  137.8990 C   0  0  0  0  0  3  0  0  0  0  0  0
  182.8760  172.5590  136.2190 C   0  0  0  0  0  0  0  0  0  0  0  0
  181.4910  174.4750  136.7970 C   0  0  0  0  0  3  0  0  0  0  0  0
  181.7040  173.3120  136.0490 C   0  0  0  0  0  3  0  0  0  0  0  0
  183.8270  172.9940  137.1530 C   0  0  0  0  0  3  0  0  0  0  0  0
  182.4450  174.9230  137.7230 C   0  0  0  0  0  0  0  0  0  0  0  0
  183.0890  171.3530  135.4600 N   0  0  0  0  0  0  0  0  0  0  0  0
  181.9620  170.5080  135.0600 C   0  0  0  0  0  1  0  0  0  0  0  0
  184.4310  170.9110  135.0950 C   0  0  0  0  0  1  0  0  0  0  0  0
  191.5950  177.3920  140.6790 C   0  0  0  0  0  1  0  0  0  0  0  0
  190.5950  178.1790  141.5170 C   0  0  2  0  0  3  0  0  0  0  0  0
  190.7080  177.9550  142.9300 O   0  0  0  0  0  0  0  0  0  0  0  0
  190.5610  176.7140  143.5890 C   0  0  0  0  0  0  0  0  0  0  0  0
  189.7620  175.8700  143.1040 O   0  0  0  0  0  0  0  0  0  0  0  0
  191.3300  176.3820  144.8410 C   0  0  2  0  0  3  0  0  0  0  0  0
  192.1790  175.1310  144.6950 C   0  0  0  0  0  1  0  0  0  0  0  0
  190.5250  176.4370  146.1550 C   0  0  1  0  0  3  0  0  0  0  0  0
  191.3910  175.9970  147.3030 C   0  0  0  0  0  0  0  0  0  0  0  0
  191.1740  174.8860  147.8590 O   0  0  0  0  0  1  0  0  0  0  0  0
  192.4340  176.8020  147.7630 O   0  0  0  0  0  0  0  0  0  0  0  0
  189.7700  177.7520  146.4710 C   0  0  2  0  0  3  0  0  0  0  0  0
  189.4050  177.8160  147.9630 C   0  0  1  0  0  3  0  0  0  0  0  0
  190.2150  178.7250  148.6360 O   0  0  0  0  0  1  0  0  0  0  0  0
  187.9400  178.1640  148.1850 C   0  0  0  0  0  2  0  0  0  0  0  0
  187.3600  177.2520  149.0790 O   0  0  0  0  0  1  0  0  0  0  0  0
  188.5360  177.9960  145.5950 C   0  0  0  0  0  2  0  0  0  0  0  0
  187.0710  176.9130  144.4570 O   0  0  0  0  0  1  0  0  0  0  0  0
  187.7200  176.8560  145.6010 O   0  0  0  0  0  0  0  0  0  0  0  0
  1 22  1  0  0  0  0
  1 13  2  0  0  0  0
  4  5  1  0  0  0  0
  6  7  2  0  0  0  0
  6 11  1  0  0  0  0
  7  9  1  0  0  0  0
  8 19  1  0  0  0  0
  9  5  1  0  0  0  0
 11  4  1  6  0  0  0
 12 27  1  6  0  0  0
 12 26  1  0  0  0  0
 13 24  2  0  0  0  0
 14 22  1  0  0  0  0
 14 12  1  0  0  0  0
 15 24  1  0  0  0  0
 15 17  2  0  0  0  0
 16  2  1  0  0  0  0
 17  6  1  0  0  0  0
 18  2  1  0  0  0  0
 19  3  2  0  0  0  0
 19 18  1  0  0  0  0
 20 10  1  0  0  0  0
 20 27  1  0  0  0  0
 21 38  1  1  0  0  0
 21 16  1  0  0  0  0
 22 10  1  6  0  0  0
 23 24  1  1  0  0  0
 23  8  1  0  0  0  0
 23 11  1  0  0  0  0
 25 21  1  0  0  0  0
 26 25  1  0  0  0  0
 29 32  1  0  0  0  0
 30 33  2  0  0  0  0
 31 29  2  0  0  0  0
 31 30  1  0  0  0  0
 32 28  2  0  0  0  0
 33 28  1  0  0  0  0
 33 15  1  0  0  0  0
 34 29  1  0  0  0  0
 35 34  1  0  0  0  0
 36 34  1  0  0  0  0
 38 37  1  6  0  0  0
 38 39  1  0  0  0  0
 39 40  1  0  0  0  0
 40 42  1  0  0  0  0
 41 40  2  0  0  0  0
 42 43  1  6  0  0  0
 42 44  1  0  0  0  0
 44 48  1  0  0  0  0
 44 45  1  1  0  0  0
 45 47  2  0  0  0  0
 45 46  1  0  0  0  0
 48 53  1  6  0  0  0
 48 49  1  0  0  0  0
 49 51  1  0  0  0  0
 49 50  1  1  0  0  0
 51 52  1  0  0  0  0
 53 55  1  0  0  0  0
 54 55  1  0  0  0  0
M  END
>  <MODEL>
4

>  <REMARK>
 VINA RESULT:      -6.9      2.173      4.836
  Name = 
  13 active torsions:
  status: ('A' for Active; 'I' for Inactive)
    1  A    between atoms: C_1  and  C_53
    2  A    between atoms: C_3  and  O_14
    3  A    between atoms: C_3  and  C_38
    4  A    between atoms: C_6  and  C_20
    5  A    between atoms: C_6  and  C_53
    6  A    between atoms: C_8  and  O_22
    7  A    between atoms: C_8  and  C_43
    8  A    between atoms: N_10  and  C_32
    9  A    between atoms: C_11  and  C_29
   10  A    between atoms: C_20  and  O_22
   11  A    between atoms: C_29  and  C_38
   12  A    between atoms: C_33  and  C_52
   13  A    between atoms: C_38  and  C_53
                            x       y       z     vdW  Elec       q    Type
                         _______ _______ _______ _____ _____    ______ ____

>  <TORSDO>
F 13

$$$$
=
 OpenBabel10262420253D

 55 59  0  0  1  0  0  0  0  0999 V2000
  187.0270  179.4090  140.6020 C   0  0  0  0  0  3  0  0  0  0  0  0
  184.8160  176.0410  137.3310 C   0  0  0  0  0  2  0  0  0  0  0  0
  187.5390  175.6430  137.9780 O   0  0  0  0  0  0  0  0  0  0  0  0
  190.6940  177.2120  136.2740 C   0  0  0  0  0  2  0  0  0  0  0  0
  191.7610  176.2060  135.8650 C   0  0  0  0  0  2  0  0  0  0  0  0
  191.3660  176.7180  138.6600 C   0  0  0  0  0  0  0  0  0  0  0  0
  192.5890  176.3740  138.2420 C   0  0  0  0  0  3  0  0  0  0  0  0
  187.9940  177.8470  137.4300 O   0  0  0  0  0  0  0  0  0  0  0  0
  192.9750  176.3480  136.7860 C   0  0  0  0  0  2  0  0  0  0  0  0
  185.8440  179.1570  142.7410 C   0  0  0  0  0  2  0  0  0  0  0  0
  190.2180  176.8930  137.6950 C   0  0  1  0  0  3  0  0  0  0  0  0
  183.4740  178.8330  141.0880 C   0  0  1  0  0  3  0  0  0  0  0  0
  187.9680  178.6270  140.1450 C   0  0  0  0  0  0  0  0  0  0  0  0
  184.6640  179.4690  140.6410 O   0  0  0  0  0  0  0  0  0  0  0  0
  189.9700  177.2850  140.6100 C   0  0  0  0  0  0  0  0  0  0  0  0
  183.5880  176.6030  136.9640 O   0  0  0  0  0  0  0  0  0  0  0  0
  191.0970  176.7650  140.0970 C   0  0  0  0  0  3  0  0  0  0  0  0
  185.9420  176.7250  136.5680 C   0  0  0  0  0  2  0  0  0  0  0  0
  187.1950  176.6950  137.3760 C   0  0  0  0  0  0  0  0  0  0  0  0
  184.4620  179.4530  143.3140 C   0  0  0  0  0  2  0  0  0  0  0  0
  182.8110  176.5160  138.1240 C   0  0  1  0  0  3  0  0  0  0  0  0
  185.7950  178.8660  141.2360 C   0  0  1  0  0  3  0  0  0  0  0  0
  189.2080  177.9360  138.1850 C   0  0  2  0  0  3  0  0  0  0  0  0
  188.9450  177.8840  139.6820 C   0  0  0  0  0  0  0  0  0  0  0  0
  182.8820  177.8260  138.8880 C   0  0  0  0  0  2  0  0  0  0  0  0
  183.2110  177.5320  140.3440 C   0  0  0  0  0  2  0  0  0  0  0  0
  183.4130  178.6090  142.6080 C   0  0  0  0  0  2  0  0  0  0  0  0
  188.9620  176.3580  142.7180 C   0  0  0  0  0  3  0  0  0  0  0  0
  189.6330  177.1380  144.9240 C   0  0  0  0  0  0  0  0  0  0  0  0
  190.6130  178.1010  142.9160 C   0  0  0  0  0  3  0  0  0  0  0  0
  190.5130  178.0420  144.3090 C   0  0  0  0  0  3  0  0  0  0  0  0
  188.8590  176.2940  144.1140 C   0  0  0  0  0  3  0  0  0  0  0  0
  189.8310  177.2710  142.0990 C   0  0  0  0  0  0  0  0  0  0  0  0
  189.5400  177.0660  146.3600 N   0  0  0  0  0  0  0  0  0  0  0  0
  188.3450  177.5420  147.0610 C   0  0  0  0  0  1  0  0  0  0  0  0
  190.6420  176.5530  147.1680 C   0  0  0  0  0  1  0  0  0  0  0  0
  180.8150  175.0690  138.7260 C   0  0  0  0  0  1  0  0  0  0  0  0
  181.3540  176.1680  137.8170 C   0  0  2  0  0  3  0  0  0  0  0  0
  181.0900  175.9580  136.4220 O   0  0  0  0  0  0  0  0  0  0  0  0
  181.6140  174.9180  135.6240 C   0  0  0  0  0  0  0  0  0  0  0  0
  182.5400  175.1920  134.8160 O   0  0  0  0  0  0  0  0  0  0  0  0
  181.0970  173.5060  135.7160 C   0  0  2  0  0  3  0  0  0  0  0  0
  179.5850  173.4410  135.8430 C   0  0  0  0  0  1  0  0  0  0  0  0
  181.8440  172.5810  136.6990 C   0  0  1  0  0  3  0  0  0  0  0  0
  180.8760  171.6180  137.3280 C   0  0  0  0  0  0  0  0  0  0  0  0
  180.5350  171.7720  138.5320 O   0  0  0  0  0  1  0  0  0  0  0  0
  180.3490  170.5520  136.5980 O   0  0  0  0  0  0  0  0  0  0  0  0
  183.1140  171.8670  136.1750 C   0  0  2  0  0  3  0  0  0  0  0  0
  184.3600  172.7260  136.4410 C   0  0  1  0  0  3  0  0  0  0  0  0
  184.8660  172.4890  137.7150 O   0  0  0  0  0  1  0  0  0  0  0  0
  185.4490  172.5020  135.4010 C   0  0  0  0  0  2  0  0  0  0  0  0
  186.3970  171.5900  135.8870 O   0  0  0  0  0  1  0  0  0  0  0  0
  183.0400  171.4520  134.7010 C   0  0  0  0  0  2  0  0  0  0  0  0
  183.5790  169.6720  135.7750 O   0  0  0  0  0  1  0  0  0  0  0  0
  183.1330  170.0570  134.5980 O   0  0  0  0  0  0  0  0  0  0  0  0
  5  4  1  0  0  0  0
  5  9  1  0  0  0  0
  6 17  1  0  0  0  0
  7  6  2  0  0  0  0
  9  7  1  0  0  0  0
 10 20  1  0  0  0  0
 11  4  1  6  0  0  0
 11 23  1  0  0  0  0
 11  6  1  0  0  0  0
 12 26  1  6  0  0  0
 12 27  1  0  0  0  0
 13  1  2  0  0  0  0
 14 12  1  0  0  0  0
 14 22  1  0  0  0  0
 15 33  1  0  0  0  0
 16  2  1  0  0  0  0
 16 21  1  0  0  0  0
 17 15  2  0  0  0  0
 18  2  1  0  0  0  0
 18 19  1  0  0  0  0
 19  8  1  0  0  0  0
 19  3  2  0  0  0  0
 21 38  1  6  0  0  0
 21 25  1  0  0  0  0
 22  1  1  6  0  0  0
 22 10  1  0  0  0  0
 23  8  1  6  0  0  0
 23 24  1  0  0  0  0
 24 13  2  0  0  0  0
 24 15  1  0  0  0  0
 25 26  1  0  0  0  0
 27 20  1  0  0  0  0
 28 32  1  0  0  0  0
 29 34  1  0  0  0  0
 30 31  2  0  0  0  0
 31 29  1  0  0  0  0
 32 29  2  0  0  0  0
 33 28  2  0  0  0  0
 33 30  1  0  0  0  0
 34 35  1  0  0  0  0
 34 36  1  0  0  0  0
 38 37  1  1  0  0  0
 39 38  1  0  0  0  0
 40 42  1  0  0  0  0
 40 39  1  0  0  0  0
 41 40  2  0  0  0  0
 42 43  1  1  0  0  0
 42 44  1  0  0  0  0
 44 45  1  6  0  0  0
 45 46  1  0  0  0  0
 47 45  2  0  0  0  0
 48 53  1  6  0  0  0
 48 49  1  0  0  0  0
 48 44  1  0  0  0  0
 49 50  1  1  0  0  0
 51 52  1  0  0  0  0
 51 49  1  0  0  0  0
 55 53  1  0  0  0  0
 55 54  1  0  0  0  0
M  END
>  <MODEL>
5

>  <REMARK>
 VINA RESULT:      -6.7      3.572      9.856
  Name = 
  13 active torsions:
  status: ('A' for Active; 'I' for Inactive)
    1  A    between atoms: C_1  and  C_53
    2  A    between atoms: C_3  and  O_14
    3  A    between atoms: C_3  and  C_38
    4  A    between atoms: C_6  and  C_20
    5  A    between atoms: C_6  and  C_53
    6  A    between atoms: C_8  and  O_22
    7  A    between atoms: C_8  and  C_43
    8  A    between atoms: N_10  and  C_32
    9  A    between atoms: C_11  and  C_29
   10  A    between atoms: C_20  and  O_22
   11  A    between atoms: C_29  and  C_38
   12  A    between atoms: C_33  and  C_52
   13  A    between atoms: C_38  and  C_53
                            x       y       z     vdW  Elec       q    Type
                         _______ _______ _______ _____ _____    ______ ____

>  <TORSDO>
F 13

$$$$
=
 OpenBabel10262420253D

 55 59  0  0  1  0  0  0  0  0999 V2000
  186.9150  178.3650  137.9520 C   0  0  0  0  0  3  0  0  0  0  0  0
  183.9990  177.7200  142.1960 C   0  0  0  0  0  2  0  0  0  0  0  0
  182.9910  176.7200  139.7510 O   0  0  0  0  0  0  0  0  0  0  0  0
  180.9070  178.6090  137.0300 C   0  0  0  0  0  2  0  0  0  0  0  0
  179.6300  177.8990  136.6010 C   0  0  0  0  0  2  0  0  0  0  0  0
  182.1480  176.7770  135.8080 C   0  0  0  0  0  0  0  0  0  0  0  0
  181.0900  176.5950  135.0100 C   0  0  0  0  0  3  0  0  0  0  0  0
  183.3620  178.7780  138.7540 O   0  0  0  0  0  0  0  0  0  0  0  0
  179.8010  177.3550  135.1810 C   0  0  0  0  0  2  0  0  0  0  0  0
  188.9740  177.0810  138.3400 C   0  0  0  0  0  2  0  0  0  0  0  0
  182.0570  177.5980  137.0720 C   0  0  1  0  0  3  0  0  0  0  0  0
  188.7280  178.0220  141.0800 C   0  0  1  0  0  3  0  0  0  0  0  0
  185.7640  177.8790  137.5710 C   0  0  0  0  0  0  0  0  0  0  0  0
  188.1090  178.6590  139.9710 O   0  0  0  0  0  0  0  0  0  0  0  0
  184.5390  176.2940  136.1520 C   0  0  0  0  0  0  0  0  0  0  0  0
  184.5690  178.5260  143.1870 O   0  0  0  0  0  0  0  0  0  0  0  0
  183.3770  176.0310  135.5340 C   0  0  0  0  0  3  0  0  0  0  0  0
  183.1950  178.5830  141.2330 C   0  0  0  0  0  2  0  0  0  0  0  0
  183.1830  177.9590  139.8790 C   0  0  0  0  0  0  0  0  0  0  0  0
  190.2030  177.1540  139.2390 C   0  0  0  0  0  2  0  0  0  0  0  0
  185.7740  177.8860  143.4970 C   0  0  1  0  0  3  0  0  0  0  0  0
  187.7370  177.7020  139.0010 C   0  0  1  0  0  3  0  0  0  0  0  0
  183.3840  178.2860  137.4090 C   0  0  2  0  0  3  0  0  0  0  0  0
  184.6090  177.4240  137.1450 C   0  0  0  0  0  0  0  0  0  0  0  0
  186.9070  178.5140  142.7060 C   0  0  0  0  0  2  0  0  0  0  0  0
  187.7070  177.4120  142.0280 C   0  0  0  0  0  2  0  0  0  0  0  0
  189.7960  176.9850  140.6940 C   0  0  0  0  0  2  0  0  0  0  0  0
  186.7660  176.0090  135.0190 C   0  0  0  0  0  3  0  0  0  0  0  0
  188.0160  173.9230  135.1280 C   0  0  0  0  0  0  0  0  0  0  0  0
  185.8450  174.1280  136.2100 C   0  0  0  0  0  3  0  0  0  0  0  0
  186.9750  173.3690  135.8900 C   0  0  0  0  0  3  0  0  0  0  0  0
  187.9000  175.2520  134.6970 C   0  0  0  0  0  3  0  0  0  0  0  0
  185.7160  175.4540  135.7690 C   0  0  0  0  0  0  0  0  0  0  0  0
  189.1870  173.1460  134.8110 N   0  0  0  0  0  0  0  0  0  0  0  0
  189.1210  171.6850  134.7340 C   0  0  0  0  0  1  0  0  0  0  0  0
  190.4830  173.7800  134.5940 C   0  0  0  0  0  1  0  0  0  0  0  0
  185.5400  179.2000  145.6550 C   0  0  0  0  0  1  0  0  0  0  0  0
  186.0870  177.9410  144.9940 C   0  0  2  0  0  3  0  0  0  0  0  0
  187.4570  177.6580  145.3110 O   0  0  0  0  0  0  0  0  0  0  0  0
  188.0360  177.6900  146.5990 C   0  0  0  0  0  0  0  0  0  0  0  0
  187.3300  178.0880  147.5620 O   0  0  0  0  0  0  0  0  0  0  0  0
  189.4610  177.2640  146.8420 C   0  0  2  0  0  3  0  0  0  0  0  0
  190.1090  178.0140  147.9920 C   0  0  0  0  0  1  0  0  0  0  0  0
  190.3520  177.1590  145.5880 C   0  0  1  0  0  3  0  0  0  0  0  0
  190.5610  178.5240  144.9940 C   0  0  0  0  0  0  0  0  0  0  0  0
  189.5640  179.2610  144.7590 O   0  0  0  0  0  1  0  0  0  0  0  0
  191.8420  178.9900  144.6990 O   0  0  0  0  0  0  0  0  0  0  0  0
  191.6830  176.3790  145.7270 C   0  0  2  0  0  3  0  0  0  0  0  0
  192.0240  175.6610  144.4110 C   0  0  1  0  0  3  0  0  0  0  0  0
  192.2020  174.2970  144.6200 O   0  0  0  0  0  1  0  0  0  0  0  0
  190.9690  175.8890  143.3380 C   0  0  0  0  0  2  0  0  0  0  0  0
  190.2510  174.7050  143.1140 O   0  0  0  0  0  1  0  0  0  0  0  0
  191.7210  175.4020  146.9080 C   0  0  0  0  0  2  0  0  0  0  0  0
  192.8840  176.3400  148.4510 O   0  0  0  0  0  1  0  0  0  0  0  0
  192.9890  175.4310  147.5050 O   0  0  0  0  0  0  0  0  0  0  0  0
  2 16  1  0  0  0  0
  3 19  2  0  0  0  0
  5  4  1  0  0  0  0
  6 11  1  0  0  0  0
  7  9  1  0  0  0  0
  7  6  2  0  0  0  0
  8 19  1  0  0  0  0
  9  5  1  0  0  0  0
 10 22  1  0  0  0  0
 10 20  1  0  0  0  0
 11  4  1  6  0  0  0
 11 23  1  0  0  0  0
 12 27  1  6  0  0  0
 12 26  1  0  0  0  0
 13  1  2  0  0  0  0
 14 12  1  0  0  0  0
 15 24  1  0  0  0  0
 16 21  1  0  0  0  0
 17  6  1  0  0  0  0
 17 15  2  0  0  0  0
 18  2  1  0  0  0  0
 19 18  1  0  0  0  0
 20 27  1  0  0  0  0
 21 38  1  1  0  0  0
 22  1  1  6  0  0  0
 22 14  1  0  0  0  0
 23 24  1  1  0  0  0
 23  8  1  0  0  0  0
 24 13  2  0  0  0  0
 25 21  1  0  0  0  0
 26 25  1  0  0  0  0
 28 33  1  0  0  0  0
 29 31  2  0  0  0  0
 31 30  1  0  0  0  0
 32 28  2  0  0  0  0
 32 29  1  0  0  0  0
 33 15  1  0  0  0  0
 33 30  2  0  0  0  0
 34 29  1  0  0  0  0
 35 34  1  0  0  0  0
 36 34  1  0  0  0  0
 38 39  1  0  0  0  0
 38 37  1  6  0  0  0
 39 40  1  0  0  0  0
 40 42  1  0  0  0  0
 40 41  2  0  0  0  0
 42 43  1  1  0  0  0
 44 45  1  1  0  0  0
 44 48  1  0  0  0  0
 44 42  1  0  0  0  0
 46 45  1  0  0  0  0
 47 45  2  0  0  0  0
 48 53  1  1  0  0  0
 49 50  1  1  0  0  0
 49 48  1  0  0  0  0
 51 49  1  0  0  0  0
 52 51  1  0  0  0  0
 53 55  1  0  0  0  0
 55 54  1  0  0  0  0
M  END
>  <MODEL>
6

>  <REMARK>
 VINA RESULT:      -6.5      1.374      2.171
  Name = 
  13 active torsions:
  status: ('A' for Active; 'I' for Inactive)
    1  A    between atoms: C_1  and  C_53
    2  A    between atoms: C_3  and  O_14
    3  A    between atoms: C_3  and  C_38
    4  A    between atoms: C_6  and  C_20
    5  A    between atoms: C_6  and  C_53
    6  A    between atoms: C_8  and  O_22
    7  A    between atoms: C_8  and  C_43
    8  A    between atoms: N_10  and  C_32
    9  A    between atoms: C_11  and  C_29
   10  A    between atoms: C_20  and  O_22
   11  A    between atoms: C_29  and  C_38
   12  A    between atoms: C_33  and  C_52
   13  A    between atoms: C_38  and  C_53
                            x       y       z     vdW  Elec       q    Type
                         _______ _______ _______ _____ _____    ______ ____

>  <TORSDO>
F 13

$$$$
=
 OpenBabel10262420253D

 55 59  0  0  1  0  0  0  0  0999 V2000
  187.6290  179.2050  140.6410 C   0  0  0  0  0  3  0  0  0  0  0  0
  185.0200  176.0840  137.4200 C   0  0  0  0  0  2  0  0  0  0  0  0
  187.7580  175.5280  137.8490 O   0  0  0  0  0  0  0  0  0  0  0  0
  190.8590  177.0110  135.9760 C   0  0  0  0  0  2  0  0  0  0  0  0
  191.8410  175.9710  135.4530 C   0  0  0  0  0  2  0  0  0  0  0  0
  191.6740  176.3880  138.2870 C   0  0  0  0  0  0  0  0  0  0  0  0
  192.8450  176.0030  137.7670 C   0  0  0  0  0  3  0  0  0  0  0  0
  188.2850  177.7280  137.3510 O   0  0  0  0  0  0  0  0  0  0  0  0
  193.1230  176.0170  136.2870 C   0  0  0  0  0  2  0  0  0  0  0  0
  186.5910  178.9250  142.8510 C   0  0  0  0  0  2  0  0  0  0  0  0
  190.4710  176.6580  137.4150 C   0  0  1  0  0  3  0  0  0  0  0  0
  184.0960  178.7840  141.3650 C   0  0  1  0  0  3  0  0  0  0  0  0
  188.4940  178.3980  140.0870 C   0  0  0  0  0  0  0  0  0  0  0  0
  185.2820  179.3780  140.8560 O   0  0  0  0  0  0  0  0  0  0  0  0
  190.4530  176.9430  140.3530 C   0  0  0  0  0  0  0  0  0  0  0  0
  183.7990  176.7190  137.1650 O   0  0  0  0  0  0  0  0  0  0  0  0
  191.5120  176.3890  139.7410 C   0  0  0  0  0  3  0  0  0  0  0  0
  186.1220  176.7430  136.6020 C   0  0  0  0  0  2  0  0  0  0  0  0
  187.4270  176.6190  137.3130 C   0  0  0  0  0  0  0  0  0  0  0  0
  185.2720  179.2640  143.5340 C   0  0  0  0  0  2  0  0  0  0  0  0
  183.1040  176.6230  138.3760 C   0  0  1  0  0  3  0  0  0  0  0  0
  186.4200  178.6970  141.3440 C   0  0  1  0  0  3  0  0  0  0  0  0
  189.5530  177.7280  138.0170 C   0  0  2  0  0  3  0  0  0  0  0  0
  189.3960  177.6270  139.5270 C   0  0  0  0  0  0  0  0  0  0  0  0
  183.2970  177.8960  139.1800 C   0  0  0  0  0  2  0  0  0  0  0  0
  183.7140  177.5280  140.5950 C   0  0  0  0  0  2  0  0  0  0  0  0
  184.1320  178.5010  142.8770 C   0  0  0  0  0  2  0  0  0  0  0  0
  191.4680  177.4280  142.6020 C   0  0  0  0  0  3  0  0  0  0  0  0
  190.3330  176.8680  144.6810 C   0  0  0  0  0  0  0  0  0  0  0  0
  189.3210  176.3360  142.5320 C   0  0  0  0  0  3  0  0  0  0  0  0
  189.2770  176.3260  143.9300 C   0  0  0  0  0  3  0  0  0  0  0  0
  191.4280  177.4210  144.0020 C   0  0  0  0  0  3  0  0  0  0  0  0
  190.4200  176.8750  141.8470 C   0  0  0  0  0  0  0  0  0  0  0  0
  190.2820  176.8710  146.1210 N   0  0  0  0  0  0  0  0  0  0  0  0
  189.0740  177.2980  146.8290 C   0  0  0  0  0  1  0  0  0  0  0  0
  191.4390  176.4880  146.9230 C   0  0  0  0  0  1  0  0  0  0  0  0
  181.3590  175.1690  137.2450 C   0  0  0  0  0  1  0  0  0  0  0  0
  181.6120  176.3580  138.1630 C   0  0  2  0  0  3  0  0  0  0  0  0
  180.8570  177.5310  137.8280 O   0  0  0  0  0  0  0  0  0  0  0  0
  179.6110  177.9030  138.3780 C   0  0  0  0  0  0  0  0  0  0  0  0
  179.0630  177.1210  139.2000 O   0  0  0  0  0  0  0  0  0  0  0  0
  178.9310  179.1960  138.0090 C   0  0  2  0  0  3  0  0  0  0  0  0
  178.9310  179.4540  136.5130 C   0  0  0  0  0  1  0  0  0  0  0  0
  179.3270  180.4250  138.8520 C   0  0  1  0  0  3  0  0  0  0  0  0
  179.7140  179.9890  140.2380 C   0  0  0  0  0  0  0  0  0  0  0  0
  179.0290  180.3710  141.2260 O   0  0  0  0  0  1  0  0  0  0  0  0
  180.8220  179.1680  140.4480 O   0  0  0  0  0  0  0  0  0  0  0  0
  180.3650  181.3990  138.2410 C   0  0  2  0  0  3  0  0  0  0  0  0
  179.6770  182.3790  137.2770 C   0  0  1  0  0  3  0  0  0  0  0  0
  179.3180  183.5530  137.9320 O   0  0  0  0  0  1  0  0  0  0  0  0
  180.5420  182.7040  136.0680 C   0  0  0  0  0  2  0  0  0  0  0  0
  179.7570  183.2760  135.0560 O   0  0  0  0  0  1  0  0  0  0  0  0
  181.5530  180.7090  137.5620 C   0  0  0  0  0  2  0  0  0  0  0  0
  182.7190  182.0790  138.7360 O   0  0  0  0  0  1  0  0  0  0  0  0
  182.6890  180.8120  138.3790 O   0  0  0  0  0  0  0  0  0  0  0  0
  5  4  1  0  0  0  0
  5  9  1  0  0  0  0
  6 17  1  0  0  0  0
  7  6  2  0  0  0  0
  9  7  1  0  0  0  0
 10 20  1  0  0  0  0
 11  4  1  6  0  0  0
 11 23  1  0  0  0  0
 11  6  1  0  0  0  0
 12 26  1  6  0  0  0
 12 27  1  0  0  0  0
 13  1  2  0  0  0  0
 14 22  1  0  0  0  0
 14 12  1  0  0  0  0
 15 33  1  0  0  0  0
 16  2  1  0  0  0  0
 16 21  1  0  0  0  0
 17 15  2  0  0  0  0
 18 19  1  0  0  0  0
 18  2  1  0  0  0  0
 19  8  1  0  0  0  0
 19  3  2  0  0  0  0
 21 38  1  6  0  0  0
 21 25  1  0  0  0  0
 22  1  1  6  0  0  0
 22 10  1  0  0  0  0
 23  8  1  6  0  0  0
 23 24  1  0  0  0  0
 24 13  2  0  0  0  0
 24 15  1  0  0  0  0
 25 26  1  0  0  0  0
 27 20  1  0  0  0  0
 28 32  1  0  0  0  0
 29 34  1  0  0  0  0
 30 31  2  0  0  0  0
 31 29  1  0  0  0  0
 32 29  2  0  0  0  0
 33 30  1  0  0  0  0
 33 28  2  0  0  0  0
 34 35  1  0  0  0  0
 34 36  1  0  0  0  0
 38 37  1  6  0  0  0
 39 38  1  0  0  0  0
 39 40  1  0  0  0  0
 40 41  2  0  0  0  0
 42 43  1  6  0  0  0
 42 40  1  0  0  0  0
 42 44  1  0  0  0  0
 44 45  1  1  0  0  0
 45 47  2  0  0  0  0
 45 46  1  0  0  0  0
 48 53  1  6  0  0  0
 48 44  1  0  0  0  0
 49 50  1  1  0  0  0
 49 48  1  0  0  0  0
 51 49  1  0  0  0  0
 52 51  1  0  0  0  0
 53 55  1  0  0  0  0
 55 54  1  0  0  0  0
M  END
>  <MODEL>
7

>  <REMARK>
 VINA RESULT:      -6.5      3.618      9.626
  Name = 
  13 active torsions:
  status: ('A' for Active; 'I' for Inactive)
    1  A    between atoms: C_1  and  C_53
    2  A    between atoms: C_3  and  O_14
    3  A    between atoms: C_3  and  C_38
    4  A    between atoms: C_6  and  C_20
    5  A    between atoms: C_6  and  C_53
    6  A    between atoms: C_8  and  O_22
    7  A    between atoms: C_8  and  C_43
    8  A    between atoms: N_10  and  C_32
    9  A    between atoms: C_11  and  C_29
   10  A    between atoms: C_20  and  O_22
   11  A    between atoms: C_29  and  C_38
   12  A    between atoms: C_33  and  C_52
   13  A    between atoms: C_38  and  C_53
                            x       y       z     vdW  Elec       q    Type
                         _______ _______ _______ _____ _____    ______ ____

>  <TORSDO>
F 13

$$$$
=
 OpenBabel10262420253D

 55 59  0  0  1  0  0  0  0  0999 V2000
  186.0370  178.8820  137.8300 C   0  0  0  0  0  3  0  0  0  0  0  0
  189.6420  177.1440  141.1330 C   0  0  0  0  0  2  0  0  0  0  0  0
  186.9440  177.0520  141.9730 O   0  0  0  0  0  0  0  0  0  0  0  0
  184.8470  179.8590  143.7150 C   0  0  0  0  0  2  0  0  0  0  0  0
  184.1280  179.4200  144.9840 C   0  0  0  0  0  2  0  0  0  0  0  0
  183.1840  178.4230  142.4650 C   0  0  0  0  0  0  0  0  0  0  0  0
  182.3020  178.5840  143.4590 C   0  0  0  0  0  3  0  0  0  0  0  0
  186.6920  179.2860  141.4150 O   0  0  0  0  0  0  0  0  0  0  0  0
  182.6240  179.3450  144.7180 C   0  0  0  0  0  2  0  0  0  0  0  0
  186.1250  177.3910  135.8790 C   0  0  0  0  0  2  0  0  0  0  0  0
  184.6360  178.8040  142.6260 C   0  0  1  0  0  3  0  0  0  0  0  0
  188.9990  177.4280  136.3150 C   0  0  1  0  0  3  0  0  0  0  0  0
  185.4440  178.6310  138.9670 C   0  0  0  0  0  0  0  0  0  0  0  0
  188.1170  178.4290  136.8030 O   0  0  0  0  0  0  0  0  0  0  0  0
  183.5110  177.6760  140.1410 C   0  0  0  0  0  0  0  0  0  0  0  0
  190.8760  177.5470  140.6110 O   0  0  0  0  0  0  0  0  0  0  0  0
  182.7660  177.7130  141.2570 C   0  0  0  0  0  3  0  0  0  0  0  0
  188.9590  178.3260  141.8060 C   0  0  0  0  0  2  0  0  0  0  0  0
  187.4770  178.1670  141.7310 C   0  0  0  0  0  0  0  0  0  0  0  0
  187.0790  177.0820  134.7310 C   0  0  0  0  0  2  0  0  0  0  0  0
  191.0420  176.7530  139.4710 C   0  0  1  0  0  3  0  0  0  0  0  0
  186.8680  177.8610  137.1360 C   0  0  1  0  0  3  0  0  0  0  0  0
  185.2650  179.2470  141.3000 C   0  0  2  0  0  3  0  0  0  0  0  0
  184.8180  178.4240  140.1010 C   0  0  0  0  0  0  0  0  0  0  0  0
  190.5730  177.5120  138.2440 C   0  0  0  0  0  2  0  0  0  0  0  0
  189.6300  176.6260  137.4450 C   0  0  0  0  0  2  0  0  0  0  0  0
  188.3710  176.4890  135.2710 C   0  0  0  0  0  2  0  0  0  0  0  0
  183.7370  175.9430  138.3340 C   0  0  0  0  0  3  0  0  0  0  0  0
  181.8950  175.3740  136.8480 C   0  0  0  0  0  0  0  0  0  0  0  0
  181.6310  177.0910  138.5530 C   0  0  0  0  0  3  0  0  0  0  0  0
  181.1060  176.3370  137.4990 C   0  0  0  0  0  3  0  0  0  0  0  0
  183.2160  175.1840  137.2790 C   0  0  0  0  0  3  0  0  0  0  0  0
  182.9560  176.9160  138.9780 C   0  0  0  0  0  0  0  0  0  0  0  0
  181.3510  174.5860  135.7720 N   0  0  0  0  0  0  0  0  0  0  0  0
  182.2190  173.7510  134.9390 C   0  0  0  0  0  1  0  0  0  0  0  0
  179.9280  174.6190  135.4500 C   0  0  0  0  0  1  0  0  0  0  0  0
  193.4890  177.3860  139.6920 C   0  0  0  0  0  1  0  0  0  0  0  0
  192.4930  176.3050  139.2870 C   0  0  2  0  0  3  0  0  0  0  0  0
  192.7590  175.7090  138.0100 O   0  0  0  0  0  0  0  0  0  0  0  0
  194.0310  175.5370  137.4210 C   0  0  0  0  0  0  0  0  0  0  0  0
  194.4270  176.3970  136.5900 O   0  0  0  0  0  0  0  0  0  0  0  0
  194.9140  174.3640  137.7610 C   0  0  2  0  0  3  0  0  0  0  0  0
  195.6360  174.5370  139.0850 C   0  0  0  0  0  1  0  0  0  0  0  0
  195.8200  173.8560  136.6200 C   0  0  1  0  0  3  0  0  0  0  0  0
  197.2390  174.2890  136.8650 C   0  0  0  0  0  0  0  0  0  0  0  0
  198.1050  173.4320  137.1900 O   0  0  0  0  0  1  0  0  0  0  0  0
  197.6110  175.6270  136.7390 O   0  0  0  0  0  0  0  0  0  0  0  0
  195.7280  172.3530  136.2590 C   0  0  2  0  0  3  0  0  0  0  0  0
  194.4540  172.0740  135.4450 C   0  0  1  0  0  3  0  0  0  0  0  0
  193.4070  171.6880  136.2760 O   0  0  0  0  0  1  0  0  0  0  0  0
  194.0330  173.2700  134.6020 C   0  0  0  0  0  2  0  0  0  0  0  0
  192.6620  173.5150  134.7680 O   0  0  0  0  0  1  0  0  0  0  0  0
  195.8250  171.4080  137.4620 C   0  0  0  0  0  2  0  0  0  0  0  0
  197.4650  170.0310  137.6280 O   0  0  0  0  0  1  0  0  0  0  0  0
  196.2930  170.1550  137.0420 O   0  0  0  0  0  0  0  0  0  0  0  0
  1 13  2  0  0  0  0
  2 18  1  0  0  0  0
  4  5  1  0  0  0  0
  6 11  1  0  0  0  0
  6  7  2  0  0  0  0
  7  9  1  0  0  0  0
  8 19  1  0  0  0  0
  9  5  1  0  0  0  0
 11  4  1  1  0  0  0
 12 27  1  6  0  0  0
 12 14  1  0  0  0  0
 12 26  1  0  0  0  0
 13 24  2  0  0  0  0
 14 22  1  0  0  0  0
 15 17  2  0  0  0  0
 16  2  1  0  0  0  0
 17  6  1  0  0  0  0
 19 18  1  0  0  0  0
 19  3  2  0  0  0  0
 20 27  1  0  0  0  0
 20 10  1  0  0  0  0
 21 38  1  6  0  0  0
 21 16  1  0  0  0  0
 22 10  1  6  0  0  0
 22  1  1  0  0  0  0
 23 24  1  6  0  0  0
 23  8  1  0  0  0  0
 23 11  1  0  0  0  0
 24 15  1  0  0  0  0
 25 21  1  0  0  0  0
 26 25  1  0  0  0  0
 28 33  1  0  0  0  0
 29 32  1  0  0  0  0
 29 31  2  0  0  0  0
 30 33  2  0  0  0  0
 31 30  1  0  0  0  0
 32 28  2  0  0  0  0
 33 15  1  0  0  0  0
 34 29  1  0  0  0  0
 35 34  1  0  0  0  0
 36 34  1  0  0  0  0
 38 37  1  6  0  0  0
 39 38  1  0  0  0  0
 40 42  1  0  0  0  0
 40 39  1  0  0  0  0
 41 40  2  0  0  0  0
 42 43  1  1  0  0  0
 44 45  1  1  0  0  0
 44 42  1  0  0  0  0
 45 46  1  0  0  0  0
 47 45  2  0  0  0  0
 48 44  1  0  0  0  0
 48 53  1  1  0  0  0
 49 48  1  0  0  0  0
 49 50  1  1  0  0  0
 51 52  1  0  0  0  0
 51 49  1  0  0  0  0
 55 53  1  0  0  0  0
 55 54  1  0  0  0  0
M  END
>  <MODEL>
8

>  <REMARK>
 VINA RESULT:      -6.4      4.295      8.604
  Name = 
  13 active torsions:
  status: ('A' for Active; 'I' for Inactive)
    1  A    between atoms: C_1  and  C_53
    2  A    between atoms: C_3  and  O_14
    3  A    between atoms: C_3  and  C_38
    4  A    between atoms: C_6  and  C_20
    5  A    between atoms: C_6  and  C_53
    6  A    between atoms: C_8  and  O_22
    7  A    between atoms: C_8  and  C_43
    8  A    between atoms: N_10  and  C_32
    9  A    between atoms: C_11  and  C_29
   10  A    between atoms: C_20  and  O_22
   11  A    between atoms: C_29  and  C_38
   12  A    between atoms: C_33  and  C_52
   13  A    between atoms: C_38  and  C_53
                            x       y       z     vdW  Elec       q    Type
                         _______ _______ _______ _____ _____    ______ ____

>  <TORSDO>
F 13

$$$$
=
 OpenBabel10262420253D

 55 59  0  0  1  0  0  0  0  0999 V2000
  186.2170  178.4080  137.8410 C   0  0  0  0  0  3  0  0  0  0  0  0
  183.0030  177.8090  141.8700 C   0  0  0  0  0  2  0  0  0  0  0  0
  182.3200  176.5210  139.4480 O   0  0  0  0  0  0  0  0  0  0  0  0
  180.3210  177.9660  136.4090 C   0  0  0  0  0  2  0  0  0  0  0  0
  179.1610  177.0970  135.9410 C   0  0  0  0  0  2  0  0  0  0  0  0
  181.8360  176.1790  135.4590 C   0  0  0  0  0  0  0  0  0  0  0  0
  180.8750  175.8270  134.5960 C   0  0  0  0  0  3  0  0  0  0  0  0
  182.5820  178.5200  138.3080 O   0  0  0  0  0  0  0  0  0  0  0  0
  179.5100  176.4630  134.5940 C   0  0  0  0  0  2  0  0  0  0  0  0
  188.3450  177.3760  138.5080 C   0  0  0  0  0  2  0  0  0  0  0  0
  181.5530  177.0830  136.6340 C   0  0  1  0  0  3  0  0  0  0  0  0
  187.7640  178.5020  141.1250 C   0  0  1  0  0  3  0  0  0  0  0  0
  185.1560  177.7790  137.4100 C   0  0  0  0  0  0  0  0  0  0  0  0
  187.1900  178.9820  139.9170 O   0  0  0  0  0  0  0  0  0  0  0  0
  184.2210  175.9700  136.0400 C   0  0  0  0  0  0  0  0  0  0  0  0
  183.4020  178.7450  142.8310 O   0  0  0  0  0  0  0  0  0  0  0  0
  183.1490  175.5420  135.3540 C   0  0  0  0  0  3  0  0  0  0  0  0
  182.2110  178.5060  140.7730 C   0  0  0  0  0  2  0  0  0  0  0  0
  182.3810  177.7790  139.4820 C   0  0  0  0  0  0  0  0  0  0  0  0
  189.4750  177.6450  139.4950 C   0  0  0  0  0  2  0  0  0  0  0  0
  184.6290  178.2570  143.2940 C   0  0  1  0  0  3  0  0  0  0  0  0
  187.0000  177.9180  139.0080 C   0  0  1  0  0  3  0  0  0  0  0  0
  182.7730  177.9270  137.0180 C   0  0  2  0  0  3  0  0  0  0  0  0
  184.0930  177.1770  136.9320 C   0  0  0  0  0  0  0  0  0  0  0  0
  185.7650  178.9330  142.5460 C   0  0  0  0  0  2  0  0  0  0  0  0
  186.7230  177.8680  142.0360 C   0  0  0  0  0  2  0  0  0  0  0  0
  188.9560  177.5510  140.9210 C   0  0  0  0  0  2  0  0  0  0  0  0
  186.6130  175.8780  135.2700 C   0  0  0  0  0  3  0  0  0  0  0  0
  187.9790  173.8800  135.5300 C   0  0  0  0  0  0  0  0  0  0  0  0
  185.6560  173.8980  136.2560 C   0  0  0  0  0  3  0  0  0  0  0  0
  186.8750  173.2300  136.1040 C   0  0  0  0  0  3  0  0  0  0  0  0
  187.8360  175.2130  135.1160 C   0  0  0  0  0  3  0  0  0  0  0  0
  185.5020  175.2270  135.8310 C   0  0  0  0  0  0  0  0  0  0  0  0
  189.2390  173.1970  135.3860 N   0  0  0  0  0  0  0  0  0  0  0  0
  190.4530  173.9290  135.0190 C   0  0  0  0  0  1  0  0  0  0  0  0
  189.3450  171.7530  135.5620 C   0  0  0  0  0  1  0  0  0  0  0  0
  183.5430  179.0270  145.4540 C   0  0  0  0  0  1  0  0  0  0  0  0
  184.7990  178.4630  144.8000 C   0  0  2  0  0  3  0  0  0  0  0  0
  186.0070  179.1470  145.1600 O   0  0  0  0  0  0  0  0  0  0  0  0
  187.0020  178.6700  146.0420 C   0  0  0  0  0  0  0  0  0  0  0  0
  186.8790  178.9160  147.2710 O   0  0  0  0  0  0  0  0  0  0  0  0
  188.1900  177.8830  145.5530 C   0  0  2  0  0  3  0  0  0  0  0  0
  187.8000  176.5480  144.9440 C   0  0  0  0  0  1  0  0  0  0  0  0
  189.3840  177.7980  146.5260 C   0  0  1  0  0  3  0  0  0  0  0  0
  188.8970  177.4190  147.8970 C   0  0  0  0  0  0  0  0  0  0  0  0
  189.0110  178.2400  148.8480 O   0  0  0  0  0  1  0  0  0  0  0  0
  188.3220  176.1710  148.1340 O   0  0  0  0  0  0  0  0  0  0  0  0
  190.5970  176.9430  146.0860 C   0  0  2  0  0  3  0  0  0  0  0  0
  191.2370  176.2540  147.3020 C   0  0  1  0  0  3  0  0  0  0  0  0
  192.1600  175.2920  146.9020 O   0  0  0  0  0  1  0  0  0  0  0  0
  191.8980  177.2460  148.2480 C   0  0  0  0  0  2  0  0  0  0  0  0
  193.1210  176.7330  148.7030 O   0  0  0  0  0  1  0  0  0  0  0  0
  191.6500  177.7110  145.2780 C   0  0  0  0  0  2  0  0  0  0  0  0
  191.4040  176.1720  143.8000 O   0  0  0  0  0  1  0  0  0  0  0  0
  191.4530  177.4830  143.9090 O   0  0  0  0  0  0  0  0  0  0  0  0
  2 16  1  0  0  0  0
  3 19  2  0  0  0  0
  5  4  1  0  0  0  0
  6 11  1  0  0  0  0
  7  6  2  0  0  0  0
  8 19  1  0  0  0  0
  9  7  1  0  0  0  0
  9  5  1  0  0  0  0
 10 22  1  0  0  0  0
 10 20  1  0  0  0  0
 11  4  1  6  0  0  0
 11 23  1  0  0  0  0
 12 27  1  6  0  0  0
 12 26  1  0  0  0  0
 13  1  2  0  0  0  0
 14 12  1  0  0  0  0
 15 24  1  0  0  0  0
 16 21  1  0  0  0  0
 17  6  1  0  0  0  0
 17 15  2  0  0  0  0
 18  2  1  0  0  0  0
 19 18  1  0  0  0  0
 20 27  1  0  0  0  0
 21 38  1  1  0  0  0
 22  1  1  6  0  0  0
 22 14  1  0  0  0  0
 23 24  1  1  0  0  0
 23  8  1  0  0  0  0
 24 13  2  0  0  0  0
 25 21  1  0  0  0  0
 26 25  1  0  0  0  0
 28 33  1  0  0  0  0
 29 31  2  0  0  0  0
 31 30  1  0  0  0  0
 32 28  2  0  0  0  0
 32 29  1  0  0  0  0
 33 15  1  0  0  0  0
 33 30  2  0  0  0  0
 34 29  1  0  0  0  0
 34 36  1  0  0  0  0
 35 34  1  0  0  0  0
 38 39  1  0  0  0  0
 38 37  1  6  0  0  0
 39 40  1  0  0  0  0
 40 41  2  0  0  0  0
 42 43  1  1  0  0  0
 42 40  1  0  0  0  0
 42 44  1  0  0  0  0
 44 45  1  1  0  0  0
 45 47  2  0  0  0  0
 45 46  1  0  0  0  0
 48 53  1  1  0  0  0
 48 44  1  0  0  0  0
 48 49  1  0  0  0  0
 49 50  1  6  0  0  0
 49 51  1  0  0  0  0
 51 52  1  0  0  0  0
 54 55  1  0  0  0  0
 55 53  1  0  0  0  0
M  END
>  <MODEL>
9

>  <REMARK>
 VINA RESULT:      -6.3      1.323      2.028
  Name = 
  13 active torsions:
  status: ('A' for Active; 'I' for Inactive)
    1  A    between atoms: C_1  and  C_53
    2  A    between atoms: C_3  and  O_14
    3  A    between atoms: C_3  and  C_38
    4  A    between atoms: C_6  and  C_20
    5  A    between atoms: C_6  and  C_53
    6  A    between atoms: C_8  and  O_22
    7  A    between atoms: C_8  and  C_43
    8  A    between atoms: N_10  and  C_32
    9  A    between atoms: C_11  and  C_29
   10  A    between atoms: C_20  and  O_22
   11  A    between atoms: C_29  and  C_38
   12  A    between atoms: C_33  and  C_52
   13  A    between atoms: C_38  and  C_53
                            x       y       z     vdW  Elec       q    Type
                         _______ _______ _______ _____ _____    ______ ____

>  <TORSDO>
F 13

$$$$
