=
 OpenBabel10262421293D

 32 36  0  0  1  0  0  0  0  0999 V2000
  191.0300  175.8200  135.6650 C   0  0  1  0  0  3  0  0  0  0  0  0
  189.4400  177.1400  140.3720 C   0  0  0  0  0  0  0  0  0  0  0  0
  185.1600  179.2010  139.7420 C   0  0  0  0  0  3  0  0  0  0  0  0
  185.0140  179.3180  141.0880 N   0  0  0  0  0  0  0  0  0  0  0  0
  190.7840  176.4310  138.4830 C   0  0  0  0  0  0  0  0  0  0  0  0
  188.6170  177.4670  138.1090 C   0  0  0  0  0  3  0  0  0  0  0  0
  189.9530  176.8170  136.1070 C   0  0  0  0  0  2  0  0  0  0  0  0
  186.2820  178.6400  139.2210 N   0  0  0  0  0  0  0  0  0  0  0  0
  188.4360  177.6010  139.4910 C   0  0  0  0  0  0  0  0  0  0  0  0
  187.2790  178.1840  140.0290 C   0  0  0  0  0  0  0  0  0  0  0  0
  188.1700  177.8320  142.2660 C   0  0  0  0  0  0  0  0  0  0  0  0
  192.2900  176.0010  136.5090 C   0  0  0  0  0  2  0  0  0  0  0  0
  189.7750  176.8730  137.5980 C   0  0  0  0  0  0  0  0  0  0  0  0
  192.0120  175.7240  137.9860 C   0  0  0  0  0  2  0  0  0  0  0  0
  185.9800  178.8790  141.9350 C   0  0  0  0  0  3  0  0  0  0  0  0
  187.1450  178.2960  141.4280 C   0  0  0  0  0  0  0  0  0  0  0  0
  188.0290  177.9230  143.6910 N   0  0  0  0  0  2  0  0  0  0  0  0
  190.6000  176.5540  139.8630 C   0  0  0  0  0  3  0  0  0  0  0  0
  189.2780  177.2620  141.7160 N   0  0  0  0  0  0  0  0  0  0  0  0
  190.4820  177.7330  144.3170 C   0  0  1  0  0  3  0  0  0  0  0  0
  188.7810  177.4140  145.9860 C   0  0  0  0  0  0  0  0  0  0  0  0
  189.8370  177.1790  146.7350 C   0  0  0  0  0  3  0  0  0  0  0  0
  191.3810  177.2140  145.8270 S   0  0  0  0  0  0  0  0  0  0  0  0
  187.1550  177.4180  146.6430 Cl  0  0  0  0  0  0  0  0  0  0  0  0
  189.0580  177.6710  144.6190 N   0  0  0  0  0  0  0  0  0  0  0  0
  190.8900  179.1520  143.9330 C   0  0  0  0  0  2  0  0  0  0  0  0
  192.1890  179.4170  144.3320 F   0  0  0  0  0  0  0  0  0  0  0  0
  189.3240  174.1530  135.4470 C   0  0  0  0  0  3  0  0  0  0  0  0
  190.5430  174.4500  135.7600 N   0  0  0  0  0  0  0  0  0  0  0  0
  188.8360  172.7770  135.5450 C   0  0  0  0  0  0  0  0  0  0  0  0
  189.1660  171.9140  134.6880 O   0  0  0  0  0  0  0  0  0  0  0  0
  187.9420  172.3950  136.6690 C   0  0  0  0  0  1  0  0  0  0  0  0
  1 29  1  1  0  0  0
  1  7  1  0  0  0  0
  1 12  1  0  0  0  0
  2 19  1  0  0  0  0
  3  4  1  0  0  0  0
  4 15  2  0  0  0  0
  5 18  2  0  0  0  0
  6  9  1  0  0  0  0
  7 13  1  0  0  0  0
  8  3  2  0  0  0  0
  8 10  1  0  0  0  0
  9 10  1  0  0  0  0
  9  2  2  0  0  0  0
 10 16  2  0  0  0  0
 11 17  1  0  0  0  0
 12 14  1  0  0  0  0
 13  6  2  0  0  0  0
 13  5  1  0  0  0  0
 14  5  1  0  0  0  0
 16 15  1  0  0  0  0
 16 11  1  0  0  0  0
 17 25  1  0  0  0  0
 18  2  1  0  0  0  0
 19 11  2  0  0  0  0
 20 26  1  1  0  0  0
 20 25  1  0  0  0  0
 20 23  1  0  0  0  0
 21 24  1  0  0  0  0
 21 22  2  0  0  0  0
 23 22  1  0  0  0  0
 25 21  1  0  0  0  0
 26 27  1  0  0  0  0
 28 30  1  0  0  0  0
 28 29  2  0  0  0  0
 30 32  1  0  0  0  0
 31 30  2  0  0  0  0
M  END
>  <MODEL>
1

>  <REMARK>
 VINA RESULT:      -8.5      0.000      0.000
  Name = 
  4 active torsions:
  status: ('A' for Active; 'I' for Inactive)
    1  A    between atoms: C_1  and  C_10
    2  A    between atoms: C_2  and  N_24
    3  A    between atoms: C_6  and  C_7
    4  A    between atoms: N_27  and  N_32
                            x       y       z     vdW  Elec       q    Type
                         _______ _______ _______ _____ _____    ______ ____

>  <TORSDO>
F 4

$$$$
=
 OpenBabel10262421293D

 32 36  0  0  1  0  0  0  0  0999 V2000
  180.1470  178.9180  141.9690 C   0  0  1  0  0  3  0  0  0  0  0  0
  185.1610  178.1870  142.8340 C   0  0  0  0  0  0  0  0  0  0  0  0
  185.7090  178.5930  147.5780 C   0  0  0  0  0  3  0  0  0  0  0  0
  187.0230  178.2680  147.4570 N   0  0  0  0  0  0  0  0  0  0  0  0
  183.0150  178.5840  141.7780 C   0  0  0  0  0  0  0  0  0  0  0  0
  183.2380  178.7990  144.1890 C   0  0  0  0  0  3  0  0  0  0  0  0
  181.0080  179.2770  143.1850 C   0  0  0  0  0  2  0  0  0  0  0  0
  184.9160  178.6590  146.4760 N   0  0  0  0  0  0  0  0  0  0  0  0
  184.5960  178.4660  144.0990 C   0  0  0  0  0  0  0  0  0  0  0  0
  185.4150  178.4020  145.2360 C   0  0  0  0  0  0  0  0  0  0  0  0
  187.2970  177.8000  143.8150 C   0  0  0  0  0  0  0  0  0  0  0  0
  180.8670  179.3130  140.6800 C   0  0  0  0  0  2  0  0  0  0  0  0
  182.4410  178.8450  143.0420 C   0  0  0  0  0  0  0  0  0  0  0  0
  182.1840  178.5530  140.5280 C   0  0  0  0  0  2  0  0  0  0  0  0
  187.5680  178.0030  146.2420 C   0  0  0  0  0  3  0  0  0  0  0  0
  186.7760  178.0620  145.0910 C   0  0  0  0  0  0  0  0  0  0  0  0
  188.6770  177.4320  143.6650 N   0  0  0  0  0  2  0  0  0  0  0  0
  184.3660  178.2410  141.6870 C   0  0  0  0  0  3  0  0  0  0  0  0
  186.4760  177.8610  142.7310 N   0  0  0  0  0  0  0  0  0  0  0  0
  188.7100  177.3720  141.1270 C   0  0  1  0  0  3  0  0  0  0  0  0
  190.7690  177.2770  142.3660 C   0  0  0  0  0  0  0  0  0  0  0  0
  191.2660  177.1700  141.1520 C   0  0  0  0  0  3  0  0  0  0  0  0
  190.0150  177.0930  139.8710 S   0  0  0  0  0  0  0  0  0  0  0  0
  191.7930  177.3540  143.7870 Cl  0  0  0  0  0  0  0  0  0  0  0  0
  189.3530  177.3340  142.4340 N   0  0  0  0  0  0  0  0  0  0  0  0
  188.0460  178.7240  140.8930 C   0  0  0  0  0  2  0  0  0  0  0  0
  187.2310  178.6860  139.7740 F   0  0  0  0  0  0  0  0  0  0  0  0
  179.4270  176.9120  140.8760 C   0  0  0  0  0  3  0  0  0  0  0  0
  179.8240  177.4970  141.9590 N   0  0  0  0  0  0  0  0  0  0  0  0
  179.1000  175.4850  140.8670 C   0  0  0  0  0  0  0  0  0  0  0  0
  178.9310  174.8580  141.9460 O   0  0  0  0  0  0  0  0  0  0  0  0
  178.9670  174.7720  139.5710 C   0  0  0  0  0  1  0  0  0  0  0  0
  1 29  1  6  0  0  0
  1  7  1  0  0  0  0
  2  9  1  0  0  0  0
  4  3  1  0  0  0  0
  5 13  2  0  0  0  0
  8  3  2  0  0  0  0
  9  6  2  0  0  0  0
  9 10  1  0  0  0  0
 10  8  1  0  0  0  0
 11 16  1  0  0  0  0
 12  1  1  0  0  0  0
 13  7  1  0  0  0  0
 13  6  1  0  0  0  0
 14 12  1  0  0  0  0
 14  5  1  0  0  0  0
 15  4  2  0  0  0  0
 16 10  2  0  0  0  0
 16 15  1  0  0  0  0
 17 11  1  0  0  0  0
 18  5  1  0  0  0  0
 18  2  2  0  0  0  0
 19  2  1  0  0  0  0
 19 11  2  0  0  0  0
 20 26  1  6  0  0  0
 20 25  1  0  0  0  0
 21 25  1  0  0  0  0
 21 24  1  0  0  0  0
 22 21  2  0  0  0  0
 23 20  1  0  0  0  0
 23 22  1  0  0  0  0
 25 17  1  0  0  0  0
 27 26  1  0  0  0  0
 28 29  2  0  0  0  0
 30 28  1  0  0  0  0
 30 31  2  0  0  0  0
 32 30  1  0  0  0  0
M  END
>  <MODEL>
2

>  <REMARK>
 VINA RESULT:      -8.4      4.580      7.987
  Name = 
  4 active torsions:
  status: ('A' for Active; 'I' for Inactive)
    1  A    between atoms: C_1  and  C_10
    2  A    between atoms: C_2  and  N_24
    3  A    between atoms: C_6  and  C_7
    4  A    between atoms: N_27  and  N_32
                            x       y       z     vdW  Elec       q    Type
                         _______ _______ _______ _____ _____    ______ ____

>  <TORSDO>
F 4

$$$$
=
 OpenBabel10262421293D

 32 36  0  0  1  0  0  0  0  0999 V2000
  187.5590  177.9180  136.5930 C   0  0  1  0  0  3  0  0  0  0  0  0
  187.7940  177.8220  141.7280 C   0  0  0  0  0  0  0  0  0  0  0  0
  183.4460  179.1650  143.2290 C   0  0  0  0  0  3  0  0  0  0  0  0
  183.8180  178.9440  144.5170 N   0  0  0  0  0  0  0  0  0  0  0  0
  188.3640  177.8160  139.3710 C   0  0  0  0  0  0  0  0  0  0  0  0
  186.1420  178.5010  140.0800 C   0  0  0  0  0  3  0  0  0  0  0  0
  186.6560  178.5760  137.6420 C   0  0  0  0  0  2  0  0  0  0  0  0
  184.3250  178.9490  142.2160 N   0  0  0  0  0  0  0  0  0  0  0  0
  186.4950  178.2820  141.4180 C   0  0  0  0  0  0  0  0  0  0  0  0
  185.5890  178.5090  142.4640 C   0  0  0  0  0  0  0  0  0  0  0  0
  187.2960  177.8230  144.0580 C   0  0  0  0  0  0  0  0  0  0  0  0
  189.0270  178.1260  136.9600 C   0  0  0  0  0  2  0  0  0  0  0  0
  187.0600  178.2580  139.0540 C   0  0  0  0  0  0  0  0  0  0  0  0
  189.3610  177.4740  138.3020 C   0  0  0  0  0  2  0  0  0  0  0  0
  185.0680  178.5050  144.8160 C   0  0  0  0  0  3  0  0  0  0  0  0
  185.9930  178.2730  143.7940 C   0  0  0  0  0  0  0  0  0  0  0  0
  187.7050  177.5600  145.4080 N   0  0  0  0  0  2  0  0  0  0  0  0
  188.7140  177.5860  140.7040 C   0  0  0  0  0  3  0  0  0  0  0  0
  188.1500  177.6030  143.0210 N   0  0  0  0  0  0  0  0  0  0  0  0
  190.1840  177.3080  144.9230 C   0  0  1  0  0  3  0  0  0  0  0  0
  189.3610  177.0680  147.1700 C   0  0  0  0  0  0  0  0  0  0  0  0
  190.6320  176.8150  147.3990 C   0  0  0  0  0  3  0  0  0  0  0  0
  191.6350  176.7880  145.9140 S   0  0  0  0  0  0  0  0  0  0  0  0
  188.1770  177.1310  148.4620 Cl  0  0  0  0  0  0  0  0  0  0  0  0
  189.0280  177.2940  145.8100 N   0  0  0  0  0  0  0  0  0  0  0  0
  190.4150  178.7070  144.3620 C   0  0  0  0  0  2  0  0  0  0  0  0
  191.7640  179.0130  144.3380 F   0  0  0  0  0  0  0  0  0  0  0  0
  186.0420  176.0800  136.3530 C   0  0  0  0  0  3  0  0  0  0  0  0
  187.2610  176.4970  136.4660 N   0  0  0  0  0  0  0  0  0  0  0  0
  185.7430  174.6530  136.2280 C   0  0  0  0  0  0  0  0  0  0  0  0
  184.9910  174.2310  135.3090 O   0  0  0  0  0  0  0  0  0  0  0  0
  186.3340  173.6920  137.1950 C   0  0  0  0  0  1  0  0  0  0  0  0
  1 29  1  1  0  0  0
  1 12  1  0  0  0  0
  1  7  1  0  0  0  0
  2 19  1  0  0  0  0
  3  4  1  0  0  0  0
  4 15  2  0  0  0  0
  5 18  1  0  0  0  0
  6  9  2  0  0  0  0
  7 13  1  0  0  0  0
  8 10  1  0  0  0  0
  8  3  2  0  0  0  0
  9  2  1  0  0  0  0
  9 10  1  0  0  0  0
 10 16  2  0  0  0  0
 11 17  1  0  0  0  0
 12 14  1  0  0  0  0
 13  5  2  0  0  0  0
 13  6  1  0  0  0  0
 14  5  1  0  0  0  0
 16 11  1  0  0  0  0
 16 15  1  0  0  0  0
 17 25  1  0  0  0  0
 18  2  2  0  0  0  0
 19 11  2  0  0  0  0
 20 26  1  1  0  0  0
 20 25  1  0  0  0  0
 20 23  1  0  0  0  0
 21 22  2  0  0  0  0
 21 24  1  0  0  0  0
 23 22  1  0  0  0  0
 25 21  1  0  0  0  0
 27 26  1  0  0  0  0
 28 29  2  0  0  0  0
 30 28  1  0  0  0  0
 30 32  1  0  0  0  0
 31 30  2  0  0  0  0
M  END
>  <MODEL>
3

>  <REMARK>
 VINA RESULT:      -8.1      2.141      2.895
  Name = 
  4 active torsions:
  status: ('A' for Active; 'I' for Inactive)
    1  A    between atoms: C_1  and  C_10
    2  A    between atoms: C_2  and  N_24
    3  A    between atoms: C_6  and  C_7
    4  A    between atoms: N_27  and  N_32
                            x       y       z     vdW  Elec       q    Type
                         _______ _______ _______ _____ _____    ______ ____

>  <TORSDO>
F 4

$$$$
=
 OpenBabel10262421293D

 32 36  0  0  1  0  0  0  0  0999 V2000
  181.1290  179.4820  138.5450 C   0  0  1  0  0  3  0  0  0  0  0  0
  185.7580  178.5850  140.5950 C   0  0  0  0  0  0  0  0  0  0  0  0
  188.7230  178.0540  136.8680 C   0  0  0  0  0  3  0  0  0  0  0  0
  189.7770  177.9440  137.7170 N   0  0  0  0  0  0  0  0  0  0  0  0
  183.3730  178.8840  140.2720 C   0  0  0  0  0  0  0  0  0  0  0  0
  184.8350  178.6250  138.3470 C   0  0  0  0  0  3  0  0  0  0  0  0
  182.3920  178.8750  137.9220 C   0  0  0  0  0  2  0  0  0  0  0  0
  187.4670  178.2380  137.3540 N   0  0  0  0  0  0  0  0  0  0  0  0
  185.9420  178.5080  139.1960 C   0  0  0  0  0  0  0  0  0  0  0  0
  187.2380  178.3150  138.6940 C   0  0  0  0  0  0  0  0  0  0  0  0
  188.0900  178.2780  140.9730 C   0  0  0  0  0  0  0  0  0  0  0  0
  180.8780  178.8710  139.9220 C   0  0  0  0  0  2  0  0  0  0  0  0
  183.5550  178.8270  138.8720 C   0  0  0  0  0  0  0  0  0  0  0  0
  182.0310  179.1710  140.8800 C   0  0  0  0  0  2  0  0  0  0  0  0
  189.6000  178.0140  139.0620 C   0  0  0  0  0  3  0  0  0  0  0  0
  188.3200  178.2030  139.5910 C   0  0  0  0  0  0  0  0  0  0  0  0
  189.1900  178.1870  141.8900 N   0  0  0  0  0  2  0  0  0  0  0  0
  184.4790  178.7790  141.1200 C   0  0  0  0  0  3  0  0  0  0  0  0
  186.8230  178.4750  141.4320 N   0  0  0  0  0  0  0  0  0  0  0  0
  187.9130  177.4800  143.9670 C   0  0  1  0  0  3  0  0  0  0  0  0
  190.1220  178.4090  144.1650 C   0  0  0  0  0  0  0  0  0  0  0  0
  189.8600  178.2510  145.4450 C   0  0  0  0  0  3  0  0  0  0  0  0
  188.2030  177.6510  145.7680 S   0  0  0  0  0  0  0  0  0  0  0  0
  191.6720  179.0010  143.5970 Cl  0  0  0  0  0  0  0  0  0  0  0  0
  189.0650  178.0570  143.2860 N   0  0  0  0  0  0  0  0  0  0  0  0
  187.7560  176.0070  143.6050 C   0  0  0  0  0  2  0  0  0  0  0  0
  188.9680  175.4630  143.2140 F   0  0  0  0  0  0  0  0  0  0  0  0
  181.0480  181.6850  137.6090 C   0  0  0  0  0  3  0  0  0  0  0  0
  181.2400  180.9310  138.6420 N   0  0  0  0  0  0  0  0  0  0  0  0
  181.1620  183.1410  137.7070 C   0  0  0  0  0  0  0  0  0  0  0  0
  182.2710  183.6830  137.9570 O   0  0  0  0  0  0  0  0  0  0  0  0
  179.9570  183.9860  137.5070 C   0  0  0  0  0  1  0  0  0  0  0  0
  1 29  1  1  0  0  0
  1 12  1  0  0  0  0
  2 18  1  0  0  0  0
  2 19  1  0  0  0  0
  3  8  2  0  0  0  0
  3  4  1  0  0  0  0
  4 15  2  0  0  0  0
  5 14  1  0  0  0  0
  5 18  2  0  0  0  0
  6 13  2  0  0  0  0
  6  9  1  0  0  0  0
  7  1  1  0  0  0  0
  7 13  1  0  0  0  0
  8 10  1  0  0  0  0
  9  2  2  0  0  0  0
 10  9  1  0  0  0  0
 10 16  2  0  0  0  0
 11 19  2  0  0  0  0
 11 17  1  0  0  0  0
 12 14  1  0  0  0  0
 13  5  1  0  0  0  0
 15 16  1  0  0  0  0
 16 11  1  0  0  0  0
 17 25  1  0  0  0  0
 20 26  1  1  0  0  0
 20 23  1  0  0  0  0
 21 22  2  0  0  0  0
 22 23  1  0  0  0  0
 24 21  1  0  0  0  0
 25 20  1  0  0  0  0
 25 21  1  0  0  0  0
 27 26  1  0  0  0  0
 28 30  1  0  0  0  0
 28 29  2  0  0  0  0
 30 31  2  0  0  0  0
 32 30  1  0  0  0  0
M  END
>  <MODEL>
4

>  <REMARK>
 VINA RESULT:      -7.7      4.050      7.271
  Name = 
  4 active torsions:
  status: ('A' for Active; 'I' for Inactive)
    1  A    between atoms: C_1  and  C_10
    2  A    between atoms: C_2  and  N_24
    3  A    between atoms: C_6  and  C_7
    4  A    between atoms: N_27  and  N_32
                            x       y       z     vdW  Elec       q    Type
                         _______ _______ _______ _____ _____    ______ ____

>  <TORSDO>
F 4

$$$$
=
 OpenBabel10262421293D

 32 36  0  0  1  0  0  0  0  0999 V2000
  181.1740  178.6250  140.3020 C   0  0  1  0  0  3  0  0  0  0  0  0
  185.7510  178.1530  142.5930 C   0  0  0  0  0  0  0  0  0  0  0  0
  184.8920  178.6720  147.2780 C   0  0  0  0  0  3  0  0  0  0  0  0
  186.1970  178.4080  147.5500 N   0  0  0  0  0  0  0  0  0  0  0  0
  183.9860  178.4270  140.9530 C   0  0  0  0  0  0  0  0  0  0  0  0
  183.4960  178.6960  143.3190 C   0  0  0  0  0  3  0  0  0  0  0  0
  181.6320  179.0470  141.7020 C   0  0  0  0  0  2  0  0  0  0  0  0
  184.4490  178.6790  145.9940 N   0  0  0  0  0  0  0  0  0  0  0  0
  184.8350  178.4270  143.6320 C   0  0  0  0  0  0  0  0  0  0  0  0
  185.2940  178.4240  144.9580 C   0  0  0  0  0  0  0  0  0  0  0  0
  187.5290  177.8870  144.1570 C   0  0  0  0  0  0  0  0  0  0  0  0
  182.2170  179.0300  139.2620 C   0  0  0  0  0  2  0  0  0  0  0  0
  183.0620  178.6830  141.9900 C   0  0  0  0  0  0  0  0  0  0  0  0
  183.5530  178.3320  139.5180 C   0  0  0  0  0  2  0  0  0  0  0  0
  187.0790  178.1480  146.5510 C   0  0  0  0  0  3  0  0  0  0  0  0
  186.6510  178.1480  145.2210 C   0  0  0  0  0  0  0  0  0  0  0  0
  188.9070  177.5840  144.4210 N   0  0  0  0  0  2  0  0  0  0  0  0
  185.3190  178.1480  141.2650 C   0  0  0  0  0  3  0  0  0  0  0  0
  187.0530  177.8890  142.8810 N   0  0  0  0  0  0  0  0  0  0  0  0
  190.8020  178.5880  143.0630 C   0  0  1  0  0  3  0  0  0  0  0  0
  190.2060  176.2750  142.7810 C   0  0  0  0  0  0  0  0  0  0  0  0
  191.1590  176.3440  141.8750 C   0  0  0  0  0  3  0  0  0  0  0  0
  191.8380  177.9900  141.6750 S   0  0  0  0  0  0  0  0  0  0  0  0
  189.3750  174.7750  143.1470 Cl  0  0  0  0  0  0  0  0  0  0  0  0
  189.9120  177.4970  143.4400 N   0  0  0  0  0  0  0  0  0  0  0  0
  191.6890  178.9880  144.2360 C   0  0  0  0  0  2  0  0  0  0  0  0
  191.9430  177.9030  145.0570 F   0  0  0  0  0  0  0  0  0  0  0  0
  180.0820  176.6930  139.4000 C   0  0  0  0  0  3  0  0  0  0  0  0
  180.9260  177.1900  140.2440 N   0  0  0  0  0  0  0  0  0  0  0  0
  179.8320  175.2520  139.3450 C   0  0  0  0  0  0  0  0  0  0  0  0
  179.8820  174.6330  138.2490 O   0  0  0  0  0  0  0  0  0  0  0  0
  179.5170  174.5140  140.5950 C   0  0  0  0  0  1  0  0  0  0  0  0
  1 29  1  1  0  0  0
  1  7  1  0  0  0  0
  2 19  1  0  0  0  0
  2  9  1  0  0  0  0
  3  4  1  0  0  0  0
  5 18  1  0  0  0  0
  5 13  2  0  0  0  0
  6  9  2  0  0  0  0
  7 13  1  0  0  0  0
  8  3  2  0  0  0  0
  9 10  1  0  0  0  0
 10 16  2  0  0  0  0
 10  8  1  0  0  0  0
 11 17  1  0  0  0  0
 11 16  1  0  0  0  0
 12 14  1  0  0  0  0
 12  1  1  0  0  0  0
 13  6  1  0  0  0  0
 14  5  1  0  0  0  0
 15  4  2  0  0  0  0
 16 15  1  0  0  0  0
 18  2  2  0  0  0  0
 19 11  2  0  0  0  0
 20 25  1  0  0  0  0
 20 26  1  1  0  0  0
 21 24  1  0  0  0  0
 21 25  1  0  0  0  0
 22 21  2  0  0  0  0
 23 22  1  0  0  0  0
 23 20  1  0  0  0  0
 25 17  1  0  0  0  0
 26 27  1  0  0  0  0
 28 29  2  0  0  0  0
 30 28  1  0  0  0  0
 30 32  1  0  0  0  0
 31 30  2  0  0  0  0
M  END
>  <MODEL>
5

>  <REMARK>
 VINA RESULT:      -6.9      4.470      6.931
  Name = 
  4 active torsions:
  status: ('A' for Active; 'I' for Inactive)
    1  A    between atoms: C_1  and  C_10
    2  A    between atoms: C_2  and  N_24
    3  A    between atoms: C_6  and  C_7
    4  A    between atoms: N_27  and  N_32
                            x       y       z     vdW  Elec       q    Type
                         _______ _______ _______ _____ _____    ______ ____

>  <TORSDO>
F 4

$$$$
=
 OpenBabel10262421293D

 32 36  0  0  1  0  0  0  0  0999 V2000
  191.3970  178.3330  144.3390 C   0  0  1  0  0  3  0  0  0  0  0  0
  189.6680  176.7650  139.7590 C   0  0  0  0  0  0  0  0  0  0  0  0
  193.5550  176.4190  136.9780 C   0  0  0  0  0  3  0  0  0  0  0  0
  192.7930  175.9260  135.9680 N   0  0  0  0  0  0  0  0  0  0  0  0
  189.8150  177.6150  142.0250 C   0  0  0  0  0  0  0  0  0  0  0  0
  191.8180  177.4550  140.6580 C   0  0  0  0  0  3  0  0  0  0  0  0
  192.0560  178.3890  142.9560 C   0  0  0  0  0  2  0  0  0  0  0  0
  192.9860  176.7530  138.1650 N   0  0  0  0  0  0  0  0  0  0  0  0
  191.0600  176.9440  139.5960 C   0  0  0  0  0  0  0  0  0  0  0  0
  191.6480  176.6020  138.3690 C   0  0  0  0  0  0  0  0  0  0  0  0
  189.4610  175.9370  137.5340 C   0  0  0  0  0  0  0  0  0  0  0  0
  189.9440  178.7950  144.2480 C   0  0  0  0  0  2  0  0  0  0  0  0
  191.2100  177.7770  141.8740 C   0  0  0  0  0  0  0  0  0  0  0  0
  189.1290  177.8800  143.3340 C   0  0  0  0  0  2  0  0  0  0  0  0
  191.4540  175.7570  136.1220 C   0  0  0  0  0  3  0  0  0  0  0  0
  190.8410  176.0920  137.3320 C   0  0  0  0  0  0  0  0  0  0  0  0
  188.6380  175.3970  136.4900 N   0  0  0  0  0  2  0  0  0  0  0  0
  189.0590  177.0950  140.9710 C   0  0  0  0  0  3  0  0  0  0  0  0
  188.9200  176.2680  138.7390 N   0  0  0  0  0  0  0  0  0  0  0  0
  186.3790  176.5080  136.1680 C   0  0  1  0  0  3  0  0  0  0  0  0
  186.5070  174.1850  136.7750 C   0  0  0  0  0  0  0  0  0  0  0  0
  185.1980  174.3140  136.7730 C   0  0  0  0  0  3  0  0  0  0  0  0
  184.6450  175.9890  136.4550 S   0  0  0  0  0  0  0  0  0  0  0  0
  187.2900  172.6450  137.0780 Cl  0  0  0  0  0  0  0  0  0  0  0  0
  187.2310  175.3750  136.5050 N   0  0  0  0  0  0  0  0  0  0  0  0
  186.5650  176.9050  134.7070 C   0  0  0  0  0  2  0  0  0  0  0  0
  186.9900  178.2180  134.6040 F   0  0  0  0  0  0  0  0  0  0  0  0
  192.0040  176.7810  146.0590 C   0  0  0  0  0  3  0  0  0  0  0  0
  191.4720  176.9900  144.8990 N   0  0  0  0  0  0  0  0  0  0  0  0
  192.0810  175.4310  146.6200 C   0  0  0  0  0  0  0  0  0  0  0  0
  192.1700  174.4260  145.8660 O   0  0  0  0  0  0  0  0  0  0  0  0
  192.0550  175.2460  148.0940 C   0  0  0  0  0  1  0  0  0  0  0  0
  1 29  1  6  0  0  0
  2 18  1  0  0  0  0
  3  8  1  0  0  0  0
  4 15  1  0  0  0  0
  4  3  2  0  0  0  0
  5 14  1  0  0  0  0
  6 13  2  0  0  0  0
  7  1  1  0  0  0  0
  8 10  2  0  0  0  0
  9  2  2  0  0  0  0
  9  6  1  0  0  0  0
 10  9  1  0  0  0  0
 11 19  2  0  0  0  0
 12  1  1  0  0  0  0
 13  5  1  0  0  0  0
 13  7  1  0  0  0  0
 14 12  1  0  0  0  0
 15 16  2  0  0  0  0
 16 11  1  0  0  0  0
 16 10  1  0  0  0  0
 17 25  1  0  0  0  0
 17 11  1  0  0  0  0
 18  5  2  0  0  0  0
 19  2  1  0  0  0  0
 20 26  1  6  0  0  0
 20 23  1  0  0  0  0
 20 25  1  0  0  0  0
 21 24  1  0  0  0  0
 22 21  2  0  0  0  0
 23 22  1  0  0  0  0
 25 21  1  0  0  0  0
 27 26  1  0  0  0  0
 28 30  1  0  0  0  0
 29 28  2  0  0  0  0
 30 32  1  0  0  0  0
 31 30  2  0  0  0  0
M  END
>  <MODEL>
6

>  <REMARK>
 VINA RESULT:      -6.7      4.632      8.480
  Name = 
  4 active torsions:
  status: ('A' for Active; 'I' for Inactive)
    1  A    between atoms: C_1  and  C_10
    2  A    between atoms: C_2  and  N_24
    3  A    between atoms: C_6  and  C_7
    4  A    between atoms: N_27  and  N_32
                            x       y       z     vdW  Elec       q    Type
                         _______ _______ _______ _____ _____    ______ ____

>  <TORSDO>
F 4

$$$$
=
 OpenBabel10262421293D

 32 36  0  0  1  0  0  0  0  0999 V2000
  191.3060  178.2100  143.8130 C   0  0  1  0  0  3  0  0  0  0  0  0
  190.1320  176.3780  139.1560 C   0  0  0  0  0  0  0  0  0  0  0  0
  194.2320  176.4700  136.6770 C   0  0  0  0  0  3  0  0  0  0  0  0
  193.6130  175.8730  135.6250 N   0  0  0  0  0  0  0  0  0  0  0  0
  190.0030  177.2710  141.4060 C   0  0  0  0  0  0  0  0  0  0  0  0
  192.1080  177.3370  140.1940 C   0  0  0  0  0  3  0  0  0  0  0  0
  192.0560  178.3260  142.4820 C   0  0  0  0  0  2  0  0  0  0  0  0
  193.5380  176.7480  137.8120 N   0  0  0  0  0  0  0  0  0  0  0  0
  191.5000  176.7230  139.0920 C   0  0  0  0  0  0  0  0  0  0  0  0
  192.2160  176.4380  137.9200 C   0  0  0  0  0  0  0  0  0  0  0  0
  190.1950  175.5000  136.9420 C   0  0  0  0  0  0  0  0  0  0  0  0
  189.8190  178.4900  143.6050 C   0  0  0  0  0  2  0  0  0  0  0  0
  191.3750  177.6000  141.3550 C   0  0  0  0  0  0  0  0  0  0  0  0
  189.1920  177.4690  142.6540 C   0  0  0  0  0  2  0  0  0  0  0  0
  192.2970  175.5450  135.6840 C   0  0  0  0  0  3  0  0  0  0  0  0
  191.5580  175.8190  136.8380 C   0  0  0  0  0  0  0  0  0  0  0  0
  189.5250  174.8480  135.8520 N   0  0  0  0  0  2  0  0  0  0  0  0
  189.3970  176.6480  140.3120 C   0  0  0  0  0  3  0  0  0  0  0  0
  189.5280  175.7790  138.0950 N   0  0  0  0  0  0  0  0  0  0  0  0
  187.4680  173.3610  135.8450 C   0  0  1  0  0  3  0  0  0  0  0  0
  187.2340  175.7480  135.6740 C   0  0  0  0  0  0  0  0  0  0  0  0
  185.9630  175.4200  135.5800 C   0  0  0  0  0  3  0  0  0  0  0  0
  185.6810  173.6510  135.5610 S   0  0  0  0  0  0  0  0  0  0  0  0
  187.7650  177.4200  135.6950 Cl  0  0  0  0  0  0  0  0  0  0  0  0
  188.1340  174.6550  135.7640 N   0  0  0  0  0  0  0  0  0  0  0  0
  187.6790  172.7320  137.2180 C   0  0  0  0  0  2  0  0  0  0  0  0
  186.4810  172.6330  137.9040 F   0  0  0  0  0  0  0  0  0  0  0  0
  191.8580  176.7680  145.6440 C   0  0  0  0  0  3  0  0  0  0  0  0
  191.5000  176.8940  144.4080 N   0  0  0  0  0  0  0  0  0  0  0  0
  192.0550  175.4450  146.2400 C   0  0  0  0  0  0  0  0  0  0  0  0
  192.4270  174.4710  145.5340 O   0  0  0  0  0  0  0  0  0  0  0  0
  191.8140  175.2530  147.6940 C   0  0  0  0  0  1  0  0  0  0  0  0
  1 29  1  6  0  0  0
  2 18  1  0  0  0  0
  3  8  1  0  0  0  0
  4 15  1  0  0  0  0
  4  3  2  0  0  0  0
  5 14  1  0  0  0  0
  6 13  2  0  0  0  0
  7  1  1  0  0  0  0
  8 10  2  0  0  0  0
  9  2  2  0  0  0  0
  9  6  1  0  0  0  0
 10  9  1  0  0  0  0
 11 19  2  0  0  0  0
 12  1  1  0  0  0  0
 13  5  1  0  0  0  0
 13  7  1  0  0  0  0
 14 12  1  0  0  0  0
 15 16  2  0  0  0  0
 16 11  1  0  0  0  0
 16 10  1  0  0  0  0
 17 11  1  0  0  0  0
 18  5  2  0  0  0  0
 19  2  1  0  0  0  0
 20 26  1  1  0  0  0
 21 24  1  0  0  0  0
 21 25  1  0  0  0  0
 22 21  2  0  0  0  0
 23 22  1  0  0  0  0
 23 20  1  0  0  0  0
 25 20  1  0  0  0  0
 25 17  1  0  0  0  0
 26 27  1  0  0  0  0
 28 30  1  0  0  0  0
 29 28  2  0  0  0  0
 30 32  1  0  0  0  0
 31 30  2  0  0  0  0
M  END
>  <MODEL>
7

>  <REMARK>
 VINA RESULT:      -6.6      4.720      8.626
  Name = 
  4 active torsions:
  status: ('A' for Active; 'I' for Inactive)
    1  A    between atoms: C_1  and  C_10
    2  A    between atoms: C_2  and  N_24
    3  A    between atoms: C_6  and  C_7
    4  A    between atoms: N_27  and  N_32
                            x       y       z     vdW  Elec       q    Type
                         _______ _______ _______ _____ _____    ______ ____

>  <TORSDO>
F 4

$$$$
=
 OpenBabel10262421293D

 32 36  0  0  1  0  0  0  0  0999 V2000
  187.6980  178.0240  135.9690 C   0  0  1  0  0  3  0  0  0  0  0  0
  187.8100  177.8650  141.1060 C   0  0  0  0  0  0  0  0  0  0  0  0
  183.3710  178.9960  142.5140 C   0  0  0  0  0  3  0  0  0  0  0  0
  183.7210  178.7720  143.8080 N   0  0  0  0  0  0  0  0  0  0  0  0
  188.4380  177.9180  138.7650 C   0  0  0  0  0  0  0  0  0  0  0  0
  186.1710  178.4960  139.4260 C   0  0  0  0  0  3  0  0  0  0  0  0
  186.7420  178.6280  137.0030 C   0  0  0  0  0  2  0  0  0  0  0  0
  184.2840  178.8330  141.5210 N   0  0  0  0  0  0  0  0  0  0  0  0
  186.5000  178.2730  140.7690 C   0  0  0  0  0  0  0  0  0  0  0  0
  185.5590  178.4450  141.7950 C   0  0  0  0  0  0  0  0  0  0  0  0
  187.2550  177.8110  143.4220 C   0  0  0  0  0  0  0  0  0  0  0  0
  189.1470  178.2910  136.3750 C   0  0  0  0  0  2  0  0  0  0  0  0
  187.1240  178.3070  138.4210 C   0  0  0  0  0  0  0  0  0  0  0  0
  189.4750  177.6350  137.7170 C   0  0  0  0  0  2  0  0  0  0  0  0
  184.9810  178.3840  144.1330 C   0  0  0  0  0  3  0  0  0  0  0  0
  185.9400  178.2080  143.1320 C   0  0  0  0  0  0  0  0  0  0  0  0
  187.6420  177.5470  144.7790 N   0  0  0  0  0  2  0  0  0  0  0  0
  188.7650  177.6850  140.1030 C   0  0  0  0  0  3  0  0  0  0  0  0
  188.1440  177.6440  142.4050 N   0  0  0  0  0  0  0  0  0  0  0  0
  189.5380  177.8790  146.4340 C   0  0  1  0  0  3  0  0  0  0  0  0
  189.8460  176.4700  144.5100 C   0  0  0  0  0  0  0  0  0  0  0  0
  191.0570  176.3780  145.0170 C   0  0  0  0  0  3  0  0  0  0  0  0
  191.3060  177.3990  146.4680 S   0  0  0  0  0  0  0  0  0  0  0  0
  189.3640  175.5780  143.0790 Cl  0  0  0  0  0  0  0  0  0  0  0  0
  188.9640  177.3330  145.2110 N   0  0  0  0  0  0  0  0  0  0  0  0
  188.8250  177.3180  147.6600 C   0  0  0  0  0  2  0  0  0  0  0  0
  188.9400  178.1800  148.7360 F   0  0  0  0  0  0  0  0  0  0  0  0
  186.2750  176.1300  135.6210 C   0  0  0  0  0  3  0  0  0  0  0  0
  187.4660  176.5940  135.8160 N   0  0  0  0  0  0  0  0  0  0  0  0
  186.0420  174.6930  135.4700 C   0  0  0  0  0  0  0  0  0  0  0  0
  184.9970  174.2670  134.9110 O   0  0  0  0  0  0  0  0  0  0  0  0
  187.0500  173.7290  135.9810 C   0  0  0  0  0  1  0  0  0  0  0  0
  1 29  1  1  0  0  0
  1 12  1  0  0  0  0
  1  7  1  0  0  0  0
  2 19  1  0  0  0  0
  3  4  1  0  0  0  0
  4 15  2  0  0  0  0
  5 18  1  0  0  0  0
  6  9  2  0  0  0  0
  7 13  1  0  0  0  0
  8 10  1  0  0  0  0
  8  3  2  0  0  0  0
  9  2  1  0  0  0  0
  9 10  1  0  0  0  0
 10 16  2  0  0  0  0
 11 17  1  0  0  0  0
 12 14  1  0  0  0  0
 13  5  2  0  0  0  0
 13  6  1  0  0  0  0
 14  5  1  0  0  0  0
 16 11  1  0  0  0  0
 16 15  1  0  0  0  0
 17 25  1  0  0  0  0
 18  2  2  0  0  0  0
 19 11  2  0  0  0  0
 20 23  1  0  0  0  0
 20 26  1  1  0  0  0
 21 22  2  0  0  0  0
 21 25  1  0  0  0  0
 22 23  1  0  0  0  0
 24 21  1  0  0  0  0
 25 20  1  0  0  0  0
 26 27  1  0  0  0  0
 28 29  2  0  0  0  0
 30 28  1  0  0  0  0
 30 32  1  0  0  0  0
 31 30  2  0  0  0  0
M  END
>  <MODEL>
8

>  <REMARK>
 VINA RESULT:      -6.4      2.377      3.074
  Name = 
  4 active torsions:
  status: ('A' for Active; 'I' for Inactive)
    1  A    between atoms: C_1  and  C_10
    2  A    between atoms: C_2  and  N_24
    3  A    between atoms: C_6  and  C_7
    4  A    between atoms: N_27  and  N_32
                            x       y       z     vdW  Elec       q    Type
                         _______ _______ _______ _____ _____    ______ ____

>  <TORSDO>
F 4

$$$$
=
 OpenBabel10262421293D

 32 36  0  0  1  0  0  0  0  0999 V2000
  190.0490  176.3950  137.7500 C   0  0  1  0  0  3  0  0  0  0  0  0
  184.9570  177.0070  137.3920 C   0  0  0  0  0  0  0  0  0  0  0  0
  183.1770  172.5910  136.8530 C   0  0  0  0  0  3  0  0  0  0  0  0
  181.9140  173.0910  136.8920 N   0  0  0  0  0  0  0  0  0  0  0  0
  187.3490  177.3970  137.4660 C   0  0  0  0  0  0  0  0  0  0  0  0
  186.4970  175.1370  137.1970 C   0  0  0  0  0  3  0  0  0  0  0  0
  188.9700  175.4500  137.2090 C   0  0  0  0  0  2  0  0  0  0  0  0
  184.2460  173.4210  136.9640 N   0  0  0  0  0  0  0  0  0  0  0  0
  185.1830  175.6220  137.2330 C   0  0  0  0  0  0  0  0  0  0  0  0
  184.0790  174.7640  137.1150 C   0  0  0  0  0  0  0  0  0  0  0  0
  182.5980  176.6850  137.3100 C   0  0  0  0  0  0  0  0  0  0  0  0
  189.8230  177.8090  137.2170 C   0  0  0  0  0  2  0  0  0  0  0  0
  187.5800  176.0110  137.3270 C   0  0  0  0  0  0  0  0  0  0  0  0
  188.4760  178.3660  137.6800 C   0  0  0  0  0  2  0  0  0  0  0  0
  181.6960  174.4230  137.0410 C   0  0  0  0  0  3  0  0  0  0  0  0
  182.7770  175.3010  137.1580 C   0  0  0  0  0  0  0  0  0  0  0  0
  181.2740  177.2350  137.3770 N   0  0  0  0  0  2  0  0  0  0  0  0
  186.0390  177.8810  137.5140 C   0  0  0  0  0  3  0  0  0  0  0  0
  183.6880  177.4920  137.4310 N   0  0  0  0  0  0  0  0  0  0  0  0
  180.6490  179.4250  138.4980 C   0  0  1  0  0  3  0  0  0  0  0  0
  181.0410  179.3500  136.1270 C   0  0  0  0  0  0  0  0  0  0  0  0
  180.7140  180.6200  136.2310 C   0  0  0  0  0  3  0  0  0  0  0  0
  180.2270  181.1000  137.8870 S   0  0  0  0  0  0  0  0  0  0  0  0
  181.5370  178.6380  134.6030 Cl  0  0  0  0  0  0  0  0  0  0  0  0
  180.9700  178.6090  137.3340 N   0  0  0  0  0  0  0  0  0  0  0  0
  181.8410  179.5040  139.4460 C   0  0  0  0  0  2  0  0  0  0  0  0
  182.8710  180.2380  138.8840 F   0  0  0  0  0  0  0  0  0  0  0  0
  190.8890  177.1380  139.8660 C   0  0  0  0  0  3  0  0  0  0  0  0
  190.0620  176.3940  139.2070 N   0  0  0  0  0  0  0  0  0  0  0  0
  190.9030  177.1340  141.3300 C   0  0  0  0  0  0  0  0  0  0  0  0
  191.9550  177.4170  141.9630 O   0  0  0  0  0  0  0  0  0  0  0  0
  189.6640  176.7930  142.0740 C   0  0  0  0  0  1  0  0  0  0  0  0
  1 29  1  1  0  0  0
  2 19  1  0  0  0  0
  2 18  1  0  0  0  0
  3  4  2  0  0  0  0
  3  8  1  0  0  0  0
  4 15  1  0  0  0  0
  5 18  2  0  0  0  0
  5 14  1  0  0  0  0
  6  9  1  0  0  0  0
  6 13  2  0  0  0  0
  7 13  1  0  0  0  0
  7  1  1  0  0  0  0
  8 10  2  0  0  0  0
  9  2  2  0  0  0  0
 10 16  1  0  0  0  0
 10  9  1  0  0  0  0
 11 17  1  0  0  0  0
 11 19  2  0  0  0  0
 12 14  1  0  0  0  0
 12  1  1  0  0  0  0
 13  5  1  0  0  0  0
 15 16  2  0  0  0  0
 16 11  1  0  0  0  0
 20 26  1  1  0  0  0
 21 22  2  0  0  0  0
 21 25  1  0  0  0  0
 22 23  1  0  0  0  0
 23 20  1  0  0  0  0
 24 21  1  0  0  0  0
 25 17  1  0  0  0  0
 25 20  1  0  0  0  0
 27 26  1  0  0  0  0
 28 30  1  0  0  0  0
 29 28  2  0  0  0  0
 30 31  2  0  0  0  0
 30 32  1  0  0  0  0
M  END
>  <MODEL>
9

>  <REMARK>
 VINA RESULT:      -6.3      5.730      8.102
  Name = 
  4 active torsions:
  status: ('A' for Active; 'I' for Inactive)
    1  A    between atoms: C_1  and  C_10
    2  A    between atoms: C_2  and  N_24
    3  A    between atoms: C_6  and  C_7
    4  A    between atoms: N_27  and  N_32
                            x       y       z     vdW  Elec       q    Type
                         _______ _______ _______ _____ _____    ______ ____

>  <TORSDO>
F 4

$$$$
