=
 OpenBabel10262419513D

 25 29  0  0  1  0  0  0  0  0999 V2000
  189.1050  177.7330  143.3790 C   0  0  2  0  0  3  0  0  0  0  0  0
  187.8830  177.8300  144.2500 C   0  0  0  0  0  0  0  0  0  0  0  0
  190.5650  177.5240  145.3370 C   0  0  0  0  0  2  0  0  0  0  0  0
  188.9200  177.1490  141.9950 C   0  0  2  0  0  3  0  0  0  0  0  0
  189.9200  177.4890  139.3160 C   0  0  0  0  0  3  0  0  0  0  0  0
  189.3740  177.5380  146.3100 C   0  0  0  0  0  2  0  0  0  0  0  0
  190.2580  176.7420  141.5600 N   0  0  0  0  0  0  0  0  0  0  0  0
  190.6480  176.7870  140.1840 C   0  0  0  0  0  3  0  0  0  0  0  0
  186.8980  178.0240  146.4510 C   0  0  0  0  0  0  0  0  0  0  0  0
  186.9930  178.0040  147.8380 O   0  0  0  0  0  1  0  0  0  0  0  0
  186.6600  178.0610  143.6980 N   0  0  0  0  0  0  0  0  0  0  0  0
  188.7490  178.2530  139.7830 C   0  0  0  0  0  3  0  0  0  0  0  0
  190.1370  176.8540  144.0470 C   0  0  2  0  0  3  0  0  0  0  0  0
  191.4680  176.6030  142.8420 S   0  0  0  0  0  0  0  0  0  0  0  0
  185.6560  178.2350  145.8530 C   0  0  0  0  0  3  0  0  0  0  0  0
  188.3050  178.1380  141.0380 C   0  0  0  0  0  3  0  0  0  0  0  0
  185.5450  178.2520  144.4570 C   0  0  0  0  0  0  0  0  0  0  0  0
  188.0350  177.8340  145.6560 C   0  0  0  0  0  0  0  0  0  0  0  0
  182.8700  178.6280  141.7970 C   0  0  0  0  0  0  0  0  0  0  0  0
  184.2400  178.4830  143.8020 C   0  0  0  0  0  0  0  0  0  0  0  0
  184.1080  178.4070  142.4060 C   0  0  0  0  0  3  0  0  0  0  0  0
  182.7430  178.5450  140.3190 C   0  0  0  0  0  1  0  0  0  0  0  0
  183.1090  178.7840  144.5770 C   0  0  0  0  0  3  0  0  0  0  0  0
  181.7500  178.9270  142.5780 C   0  0  0  0  0  3  0  0  0  0  0  0
  181.8700  179.0040  143.9680 C   0  0  0  0  0  3  0  0  0  0  0  0
  1 13  1  0  0  0  0
  1  2  1  1  0  0  0
  2 18  1  0  0  0  0
  3  6  1  0  0  0  0
  4 16  1  6  0  0  0
  4  1  1  0  0  0  0
  5 12  1  0  0  0  0
  5  8  2  0  0  0  0
  7  4  1  0  0  0  0
  7 14  1  0  0  0  0
  8  7  1  0  0  0  0
  9 10  1  0  0  0  0
 11  2  2  0  0  0  0
 11 17  1  0  0  0  0
 12 16  2  0  0  0  0
 13  3  1  1  0  0  0
 14 13  1  0  0  0  0
 15  9  1  0  0  0  0
 17 15  2  0  0  0  0
 18  6  1  0  0  0  0
 18  9  2  0  0  0  0
 19 21  2  0  0  0  0
 19 24  1  0  0  0  0
 20 17  1  0  0  0  0
 20 23  2  0  0  0  0
 21 20  1  0  0  0  0
 22 19  1  0  0  0  0
 24 25  2  0  0  0  0
 25 23  1  0  0  0  0
M  END
>  <MODEL>
1

>  <REMARK>
 VINA RESULT:     -10.7      0.000      0.000
  Name = 
  1 active torsions:
  status: ('A' for Active; 'I' for Inactive)
    1  A    between atoms: C_6  and  C_23
                            x       y       z     vdW  Elec       q    Type
                         _______ _______ _______ _____ _____    ______ ____

>  <TORSDO>
F 1

$$$$
=
 OpenBabel10262419513D

 25 29  0  0  1  0  0  0  0  0999 V2000
  188.9040  177.7660  143.3380 C   0  0  2  0  0  3  0  0  0  0  0  0
  187.6290  177.8750  144.1280 C   0  0  0  0  0  0  0  0  0  0  0  0
  190.2420  177.6320  145.3880 C   0  0  0  0  0  2  0  0  0  0  0  0
  188.8110  177.1380  141.9640 C   0  0  2  0  0  3  0  0  0  0  0  0
  189.9720  177.4080  139.3420 C   0  0  0  0  0  3  0  0  0  0  0  0
  188.9930  177.6620  146.2850 C   0  0  0  0  0  2  0  0  0  0  0  0
  190.1780  176.7330  141.6250 N   0  0  0  0  0  0  0  0  0  0  0  0
  190.6520  176.7410  140.2750 C   0  0  0  0  0  3  0  0  0  0  0  0
  186.5090  178.1240  146.2580 C   0  0  0  0  0  0  0  0  0  0  0  0
  186.5170  178.1470  147.6470 O   0  0  0  0  0  1  0  0  0  0  0  0
  186.4420  178.0750  143.4960 N   0  0  0  0  0  0  0  0  0  0  0  0
  188.7670  178.1730  139.7130 C   0  0  0  0  0  3  0  0  0  0  0  0
  189.9010  176.9190  144.0960 C   0  0  2  0  0  3  0  0  0  0  0  0
  191.3070  176.6460  142.9830 S   0  0  0  0  0  0  0  0  0  0  0  0
  185.3040  178.3030  145.5780 C   0  0  0  0  0  3  0  0  0  0  0  0
  188.2470  178.0900  140.9410 C   0  0  0  0  0  3  0  0  0  0  0  0
  185.2800  178.2760  144.1770 C   0  0  0  0  0  0  0  0  0  0  0  0
  187.6940  177.9230  145.5400 C   0  0  0  0  0  0  0  0  0  0  0  0
  181.6110  178.8420  143.4090 C   0  0  0  0  0  0  0  0  0  0  0  0
  184.0160  178.4730  143.4370 C   0  0  0  0  0  0  0  0  0  0  0  0
  182.8010  178.6560  144.1180 C   0  0  0  0  0  3  0  0  0  0  0  0
  180.3320  179.0340  144.1410 C   0  0  0  0  0  1  0  0  0  0  0  0
  184.0160  178.4800  142.0340 C   0  0  0  0  0  3  0  0  0  0  0  0
  181.6230  178.8470  142.0120 C   0  0  0  0  0  3  0  0  0  0  0  0
  182.8260  178.6660  141.3240 C   0  0  0  0  0  3  0  0  0  0  0  0
  1 13  1  0  0  0  0
  1  2  1  1  0  0  0
  2 18  1  0  0  0  0
  3  6  1  0  0  0  0
  4 16  1  6  0  0  0
  4  1  1  0  0  0  0
  5 12  1  0  0  0  0
  5  8  2  0  0  0  0
  7  4  1  0  0  0  0
  7 14  1  0  0  0  0
  8  7  1  0  0  0  0
  9 10  1  0  0  0  0
 11  2  2  0  0  0  0
 11 17  1  0  0  0  0
 12 16  2  0  0  0  0
 13  3  1  1  0  0  0
 14 13  1  0  0  0  0
 15  9  1  0  0  0  0
 17 15  2  0  0  0  0
 18  9  2  0  0  0  0
 18  6  1  0  0  0  0
 19 21  1  0  0  0  0
 19 22  1  0  0  0  0
 20 21  2  0  0  0  0
 20 17  1  0  0  0  0
 23 20  1  0  0  0  0
 24 19  2  0  0  0  0
 25 24  1  0  0  0  0
 25 23  2  0  0  0  0
M  END
>  <MODEL>
2

>  <REMARK>
 VINA RESULT:     -10.5      0.477      1.373
  Name = 
  1 active torsions:
  status: ('A' for Active; 'I' for Inactive)
    1  A    between atoms: C_6  and  C_23
                            x       y       z     vdW  Elec       q    Type
                         _______ _______ _______ _____ _____    ______ ____

>  <TORSDO>
F 1

$$$$
=
 OpenBabel10262419513D

 25 29  0  0  1  0  0  0  0  0999 V2000
  186.8280  177.7100  144.7330 C   0  0  2  0  0  3  0  0  0  0  0  0
  188.1810  177.5370  144.1020 C   0  0  0  0  0  0  0  0  0  0  0  0
  187.7290  177.2110  146.9590 C   0  0  0  0  0  2  0  0  0  0  0  0
  185.8650  178.6590  144.0520 C   0  0  2  0  0  3  0  0  0  0  0  0
  183.0480  178.9210  143.5180 C   0  0  0  0  0  3  0  0  0  0  0  0
  189.1650  177.0860  146.4220 C   0  0  0  0  0  2  0  0  0  0  0  0
  184.8660  178.9980  145.0670 N   0  0  0  0  0  0  0  0  0  0  0  0
  183.5040  179.2730  144.7200 C   0  0  0  0  0  3  0  0  0  0  0  0
  190.5050  176.8890  144.2880 C   0  0  0  0  0  0  0  0  0  0  0  0
  191.6160  176.5280  145.0420 O   0  0  0  0  0  1  0  0  0  0  0  0
  188.3260  177.6120  142.7510 N   0  0  0  0  0  0  0  0  0  0  0  0
  183.9280  178.2100  142.5730 C   0  0  0  0  0  3  0  0  0  0  0  0
  186.9880  178.2470  146.1370 C   0  0  2  0  0  3  0  0  0  0  0  0
  185.3230  178.6430  146.7370 S   0  0  0  0  0  0  0  0  0  0  0  0
  190.6240  176.9980  142.9030 C   0  0  0  0  0  3  0  0  0  0  0  0
  185.2280  178.0420  142.8330 C   0  0  0  0  0  3  0  0  0  0  0  0
  189.5140  177.3660  142.1320 C   0  0  0  0  0  0  0  0  0  0  0  0
  189.2740  177.1420  144.9080 C   0  0  0  0  0  0  0  0  0  0  0  0
  190.7330  176.9450  138.5670 C   0  0  0  0  0  0  0  0  0  0  0  0
  189.6160  177.4780  140.6610 C   0  0  0  0  0  0  0  0  0  0  0  0
  190.6450  176.8330  139.9570 C   0  0  0  0  0  3  0  0  0  0  0  0
  191.8270  176.2580  137.8340 C   0  0  0  0  0  1  0  0  0  0  0  0
  188.6760  178.2380  139.9470 C   0  0  0  0  0  3  0  0  0  0  0  0
  189.7920  177.7040  137.8660 C   0  0  0  0  0  3  0  0  0  0  0  0
  188.7630  178.3500  138.5570 C   0  0  0  0  0  3  0  0  0  0  0  0
  1  2  1  6  0  0  0
  1 13  1  0  0  0  0
  2 18  1  0  0  0  0
  4 16  1  6  0  0  0
  4  1  1  0  0  0  0
  4  7  1  0  0  0  0
  5  8  2  0  0  0  0
  6  3  1  0  0  0  0
  7 14  1  0  0  0  0
  8  7  1  0  0  0  0
  9 18  2  0  0  0  0
  9 10  1  0  0  0  0
 11  2  2  0  0  0  0
 12 16  2  0  0  0  0
 12  5  1  0  0  0  0
 13 14  1  0  0  0  0
 13  3  1  1  0  0  0
 15  9  1  0  0  0  0
 17 11  1  0  0  0  0
 17 15  2  0  0  0  0
 18  6  1  0  0  0  0
 19 21  1  0  0  0  0
 20 17  1  0  0  0  0
 21 20  2  0  0  0  0
 22 19  1  0  0  0  0
 23 20  1  0  0  0  0
 24 25  1  0  0  0  0
 24 19  2  0  0  0  0
 25 23  2  0  0  0  0
M  END
>  <MODEL>
3

>  <REMARK>
 VINA RESULT:     -10.3      2.226      6.113
  Name = 
  1 active torsions:
  status: ('A' for Active; 'I' for Inactive)
    1  A    between atoms: C_6  and  C_23
                            x       y       z     vdW  Elec       q    Type
                         _______ _______ _______ _____ _____    ______ ____

>  <TORSDO>
F 1

$$$$
=
 OpenBabel10262419513D

 25 29  0  0  1  0  0  0  0  0999 V2000
  186.2890  178.0050  141.7910 C   0  0  2  0  0  3  0  0  0  0  0  0
  185.9860  178.2470  143.2430 C   0  0  0  0  0  0  0  0  0  0  0  0
  183.9580  178.4370  141.1630 C   0  0  0  0  0  2  0  0  0  0  0  0
  187.6960  178.3030  141.3210 C   0  0  2  0  0  3  0  0  0  0  0  0
  189.6590  177.2840  139.4760 C   0  0  0  0  0  3  0  0  0  0  0  0
  183.5620  178.7780  142.6100 C   0  0  0  0  0  2  0  0  0  0  0  0
  187.6030  178.4380  139.8660 N   0  0  0  0  0  0  0  0  0  0  0  0
  188.6810  178.0560  139.0040 C   0  0  0  0  0  3  0  0  0  0  0  0
  184.3720  178.6460  145.0000 C   0  0  0  0  0  0  0  0  0  0  0  0
  183.0850  178.9460  145.4320 O   0  0  0  0  0  1  0  0  0  0  0  0
  186.9470  178.0600  144.1880 N   0  0  0  0  0  0  0  0  0  0  0  0
  189.6030  176.7880  140.8640 C   0  0  0  0  0  3  0  0  0  0  0  0
  185.3930  178.8690  140.9330 C   0  0  2  0  0  3  0  0  0  0  0  0
  185.9750  178.6920  139.2250 S   0  0  0  0  0  0  0  0  0  0  0  0
  185.3860  178.4710  145.9420 C   0  0  0  0  0  3  0  0  0  0  0  0
  188.6680  177.2190  141.7150 C   0  0  0  0  0  3  0  0  0  0  0  0
  186.6880  178.1740  145.5200 C   0  0  0  0  0  0  0  0  0  0  0  0
  184.6540  178.5210  143.6350 C   0  0  0  0  0  0  0  0  0  0  0  0
  190.0310  177.2450  147.0470 C   0  0  0  0  0  0  0  0  0  0  0  0
  187.7760  177.9750  146.5020 C   0  0  0  0  0  0  0  0  0  0  0  0
  189.0090  177.4290  146.1120 C   0  0  0  0  0  3  0  0  0  0  0  0
  191.3320  176.6650  146.6230 C   0  0  0  0  0  1  0  0  0  0  0  0
  187.5850  178.3340  147.8450 C   0  0  0  0  0  3  0  0  0  0  0  0
  189.8300  177.6050  148.3820 C   0  0  0  0  0  3  0  0  0  0  0  0
  188.6070  178.1500  148.7810 C   0  0  0  0  0  3  0  0  0  0  0  0
  1  2  1  1  0  0  0
  2 18  2  0  0  0  0
  2 11  1  0  0  0  0
  3  6  1  0  0  0  0
  4 16  1  6  0  0  0
  4  1  1  0  0  0  0
  5 12  1  0  0  0  0
  6 18  1  0  0  0  0
  7  4  1  0  0  0  0
  8  5  2  0  0  0  0
  8  7  1  0  0  0  0
  9 10  1  0  0  0  0
  9 15  2  0  0  0  0
 11 17  2  0  0  0  0
 12 16  2  0  0  0  0
 13  3  1  6  0  0  0
 13  1  1  0  0  0  0
 14  7  1  0  0  0  0
 14 13  1  0  0  0  0
 17 15  1  0  0  0  0
 17 20  1  0  0  0  0
 18  9  1  0  0  0  0
 19 24  1  0  0  0  0
 20 23  2  0  0  0  0
 21 20  1  0  0  0  0
 21 19  2  0  0  0  0
 22 19  1  0  0  0  0
 23 25  1  0  0  0  0
 24 25  2  0  0  0  0
M  END
>  <MODEL>
4

>  <REMARK>
 VINA RESULT:     -10.1      2.190      5.462
  Name = 
  1 active torsions:
  status: ('A' for Active; 'I' for Inactive)
    1  A    between atoms: C_6  and  C_23
                            x       y       z     vdW  Elec       q    Type
                         _______ _______ _______ _____ _____    ______ ____

>  <TORSDO>
F 1

$$$$
=
 OpenBabel10262419513D

 25 29  0  0  1  0  0  0  0  0999 V2000
  187.5900  178.1530  145.4160 C   0  0  2  0  0  3  0  0  0  0  0  0
  186.5140  178.2880  144.3750 C   0  0  0  0  0  0  0  0  0  0  0  0
  185.9830  178.5470  147.2250 C   0  0  0  0  0  2  0  0  0  0  0  0
  188.7690  177.2650  145.0770 C   0  0  2  0  0  3  0  0  0  0  0  0
  191.6150  177.1360  145.5010 C   0  0  0  0  0  3  0  0  0  0  0  0
  184.8000  178.6280  146.2460 C   0  0  0  0  0  2  0  0  0  0  0  0
  189.3940  176.9380  146.3600 N   0  0  0  0  0  0  0  0  0  0  0  0
  190.8060  176.7300  146.4790 C   0  0  0  0  0  3  0  0  0  0  0  0
  184.2300  178.8330  143.7920 C   0  0  0  0  0  0  0  0  0  0  0  0
  182.9170  179.1240  144.1410 O   0  0  0  0  0  1  0  0  0  0  0  0
  186.8270  178.2470  143.0510 N   0  0  0  0  0  0  0  0  0  0  0  0
  191.0610  177.8380  144.3280 C   0  0  0  0  0  3  0  0  0  0  0  0
  187.0040  177.5680  146.6800 C   0  0  2  0  0  3  0  0  0  0  0  0
  188.3950  177.2240  147.7910 S   0  0  0  0  0  0  0  0  0  0  0  0
  184.5800  178.7610  142.4440 C   0  0  0  0  0  3  0  0  0  0  0  0
  189.7420  177.9440  144.1460 C   0  0  0  0  0  3  0  0  0  0  0  0
  185.8990  178.4620  142.0780 C   0  0  0  0  0  0  0  0  0  0  0  0
  185.1990  178.6130  144.7800 C   0  0  0  0  0  0  0  0  0  0  0  0
  188.0020  178.1850  138.9360 C   0  0  0  0  0  0  0  0  0  0  0  0
  186.2920  178.3900  140.6550 C   0  0  0  0  0  0  0  0  0  0  0  0
  187.6400  178.2530  140.2840 C   0  0  0  0  0  3  0  0  0  0  0  0
  189.4310  178.0400  138.5570 C   0  0  0  0  0  1  0  0  0  0  0  0
  185.3140  178.4570  139.6510 C   0  0  0  0  0  3  0  0  0  0  0  0
  187.0200  178.2530  137.9440 C   0  0  0  0  0  3  0  0  0  0  0  0
  185.6760  178.3890  138.3020 C   0  0  0  0  0  3  0  0  0  0  0  0
  1  2  1  6  0  0  0
  1 13  1  0  0  0  0
  2 18  1  0  0  0  0
  4 16  1  6  0  0  0
  4  1  1  0  0  0  0
  4  7  1  0  0  0  0
  5  8  2  0  0  0  0
  6  3  1  0  0  0  0
  7  8  1  0  0  0  0
  7 14  1  0  0  0  0
  9 10  1  0  0  0  0
  9 18  2  0  0  0  0
 11  2  2  0  0  0  0
 12  5  1  0  0  0  0
 13  3  1  1  0  0  0
 13 14  1  0  0  0  0
 15  9  1  0  0  0  0
 16 12  2  0  0  0  0
 17 15  2  0  0  0  0
 17 11  1  0  0  0  0
 18  6  1  0  0  0  0
 19 21  1  0  0  0  0
 20 17  1  0  0  0  0
 21 20  2  0  0  0  0
 22 19  1  0  0  0  0
 23 20  1  0  0  0  0
 24 25  1  0  0  0  0
 24 19  2  0  0  0  0
 25 23  2  0  0  0  0
M  END
>  <MODEL>
5

>  <REMARK>
 VINA RESULT:      -9.8      2.304      4.797
  Name = 
  1 active torsions:
  status: ('A' for Active; 'I' for Inactive)
    1  A    between atoms: C_6  and  C_23
                            x       y       z     vdW  Elec       q    Type
                         _______ _______ _______ _____ _____    ______ ____

>  <TORSDO>
F 1

$$$$
=
 OpenBabel10262419513D

 25 29  0  0  1  0  0  0  0  0999 V2000
  188.7360  177.8380  144.9220 C   0  0  2  0  0  3  0  0  0  0  0  0
  187.2420  177.9980  144.9730 C   0  0  0  0  0  0  0  0  0  0  0  0
  188.8930  177.9050  147.3680 C   0  0  0  0  0  2  0  0  0  0  0  0
  189.3090  177.0910  143.7370 C   0  0  2  0  0  3  0  0  0  0  0  0
  191.6130  177.1470  142.0100 C   0  0  0  0  0  3  0  0  0  0  0  0
  187.3660  177.9950  147.5300 C   0  0  0  0  0  2  0  0  0  0  0  0
  190.6530  176.6780  144.1470 N   0  0  0  0  0  0  0  0  0  0  0  0
  191.7280  176.5740  143.2080 C   0  0  0  0  0  3  0  0  0  0  0  0
  185.2290  178.4160  146.2490 C   0  0  0  0  0  0  0  0  0  0  0  0
  184.5570  178.5620  147.4560 O   0  0  0  0  0  1  0  0  0  0  0  0
  186.5230  178.1250  143.8240 N   0  0  0  0  0  0  0  0  0  0  0  0
  190.4050  177.9230  141.6760 C   0  0  0  0  0  3  0  0  0  0  0  0
  189.2070  177.0750  146.1380 C   0  0  2  0  0  3  0  0  0  0  0  0
  190.9690  176.7270  145.8860 S   0  0  0  0  0  0  0  0  0  0  0  0
  184.5180  178.5180  145.0530 C   0  0  0  0  0  3  0  0  0  0  0  0
  189.3470  177.9420  142.4930 C   0  0  0  0  0  3  0  0  0  0  0  0
  185.1830  178.3680  143.8290 C   0  0  0  0  0  0  0  0  0  0  0  0
  186.6080  178.1700  146.2250 C   0  0  0  0  0  0  0  0  0  0  0  0
  184.4320  178.5970  140.1200 C   0  0  0  0  0  0  0  0  0  0  0  0
  184.4500  178.4810  142.5500 C   0  0  0  0  0  0  0  0  0  0  0  0
  185.1340  178.4900  141.3240 C   0  0  0  0  0  3  0  0  0  0  0  0
  185.1670  178.6060  138.8290 C   0  0  0  0  0  1  0  0  0  0  0  0
  183.0500  178.5800  142.5490 C   0  0  0  0  0  3  0  0  0  0  0  0
  183.0380  178.6960  140.1300 C   0  0  0  0  0  3  0  0  0  0  0  0
  182.3470  178.6870  141.3450 C   0  0  0  0  0  3  0  0  0  0  0  0
  1  2  1  6  0  0  0
  1 13  1  0  0  0  0
  2 18  1  0  0  0  0
  3  6  1  0  0  0  0
  4 16  1  6  0  0  0
  4  7  1  0  0  0  0
  4  1  1  0  0  0  0
  5  8  2  0  0  0  0
  7 14  1  0  0  0  0
  8  7  1  0  0  0  0
  9 10  1  0  0  0  0
 11 17  1  0  0  0  0
 11  2  2  0  0  0  0
 12  5  1  0  0  0  0
 12 16  2  0  0  0  0
 13  3  1  1  0  0  0
 14 13  1  0  0  0  0
 15  9  1  0  0  0  0
 17 15  2  0  0  0  0
 18  9  2  0  0  0  0
 18  6  1  0  0  0  0
 19 24  2  0  0  0  0
 19 21  1  0  0  0  0
 20 17  1  0  0  0  0
 21 20  2  0  0  0  0
 22 19  1  0  0  0  0
 23 20  1  0  0  0  0
 24 25  1  0  0  0  0
 25 23  2  0  0  0  0
M  END
>  <MODEL>
6

>  <REMARK>
 VINA RESULT:      -9.7      1.548      2.210
  Name = 
  1 active torsions:
  status: ('A' for Active; 'I' for Inactive)
    1  A    between atoms: C_6  and  C_23
                            x       y       z     vdW  Elec       q    Type
                         _______ _______ _______ _____ _____    ______ ____

>  <TORSDO>
F 1

$$$$
=
 OpenBabel10262419513D

 25 29  0  0  1  0  0  0  0  0999 V2000
  186.0530  178.6310  141.7430 C   0  0  2  0  0  3  0  0  0  0  0  0
  187.4560  178.1230  141.9250 C   0  0  0  0  0  0  0  0  0  0  0  0
  186.3510  178.7830  139.3140 C   0  0  0  0  0  2  0  0  0  0  0  0
  185.0250  178.1970  142.7660 C   0  0  2  0  0  3  0  0  0  0  0  0
  182.7140  179.2360  144.1350 C   0  0  0  0  0  3  0  0  0  0  0  0
  187.7730  178.1990  139.3850 C   0  0  0  0  0  2  0  0  0  0  0  0
  183.7240  178.4160  142.1300 N   0  0  0  0  0  0  0  0  0  0  0  0
  182.5670  178.7820  142.8900 C   0  0  0  0  0  3  0  0  0  0  0  0
  189.6360  177.6340  140.9960 C   0  0  0  0  0  0  0  0  0  0  0  0
  190.4980  177.4820  139.9160 O   0  0  0  0  0  1  0  0  0  0  0  0
  187.9560  177.9120  143.1720 N   0  0  0  0  0  0  0  0  0  0  0  0
  184.0640  179.4040  144.7040 C   0  0  0  0  0  3  0  0  0  0  0  0
  185.5110  178.1620  140.4120 C   0  0  2  0  0  3  0  0  0  0  0  0
  183.7560  178.6150  140.3740 S   0  0  0  0  0  0  0  0  0  0  0  0
  190.1100  177.4030  142.2870 C   0  0  0  0  0  3  0  0  0  0  0  0
  185.1470  178.9670  144.0560 C   0  0  0  0  0  3  0  0  0  0  0  0
  189.2510  177.5460  143.3840 C   0  0  0  0  0  0  0  0  0  0  0  0
  188.3030  178.0140  140.7970 C   0  0  0  0  0  0  0  0  0  0  0  0
  189.3800  177.3530  147.1680 C   0  0  0  0  0  0  0  0  0  0  0  0
  189.7360  177.3150  144.7620 C   0  0  0  0  0  0  0  0  0  0  0  0
  188.9130  177.5750  145.8700 C   0  0  0  0  0  3  0  0  0  0  0  0
  188.5010  177.6320  148.3320 C   0  0  0  0  0  1  0  0  0  0  0  0
  191.0350  176.8290  144.9780 C   0  0  0  0  0  3  0  0  0  0  0  0
  190.6760  176.8700  147.3720 C   0  0  0  0  0  3  0  0  0  0  0  0
  191.5020  176.6080  146.2760 C   0  0  0  0  0  3  0  0  0  0  0  0
  1  2  1  1  0  0  0
  1  4  1  0  0  0  0
  2 11  1  0  0  0  0
  3  6  1  0  0  0  0
  4 16  1  1  0  0  0
  5 12  1  0  0  0  0
  6 18  1  0  0  0  0
  7  4  1  0  0  0  0
  7  8  1  0  0  0  0
  8  5  2  0  0  0  0
  9 15  2  0  0  0  0
 10  9  1  0  0  0  0
 11 17  2  0  0  0  0
 13  3  1  6  0  0  0
 13  1  1  0  0  0  0
 14 13  1  0  0  0  0
 14  7  1  0  0  0  0
 15 17  1  0  0  0  0
 16 12  2  0  0  0  0
 17 20  1  0  0  0  0
 18  9  1  0  0  0  0
 18  2  2  0  0  0  0
 19 24  1  0  0  0  0
 19 22  1  0  0  0  0
 20 23  2  0  0  0  0
 20 21  1  0  0  0  0
 21 19  2  0  0  0  0
 23 25  1  0  0  0  0
 25 24  2  0  0  0  0
M  END
>  <MODEL>
7

>  <REMARK>
 VINA RESULT:      -9.6      2.820      6.985
  Name = 
  1 active torsions:
  status: ('A' for Active; 'I' for Inactive)
    1  A    between atoms: C_6  and  C_23
                            x       y       z     vdW  Elec       q    Type
                         _______ _______ _______ _____ _____    ______ ____

>  <TORSDO>
F 1

$$$$
=
 OpenBabel10262419513D

 25 29  0  0  1  0  0  0  0  0999 V2000
  186.6760  177.8120  144.0550 C   0  0  2  0  0  3  0  0  0  0  0  0
  187.8220  177.7680  143.0830 C   0  0  0  0  0  0  0  0  0  0  0  0
  188.1350  177.1390  145.9080 C   0  0  0  0  0  2  0  0  0  0  0  0
  185.5490  178.7760  143.7500 C   0  0  2  0  0  3  0  0  0  0  0  0
  182.6850  178.9520  143.9880 C   0  0  0  0  0  3  0  0  0  0  0  0
  189.3850  177.1380  145.0110 C   0  0  0  0  0  2  0  0  0  0  0  0
  184.8410  178.9640  145.0180 N   0  0  0  0  0  0  0  0  0  0  0  0
  183.4310  179.2050  145.0630 C   0  0  0  0  0  3  0  0  0  0  0  0
  190.1270  177.2190  142.5970 C   0  0  0  0  0  0  0  0  0  0  0  0
  191.4030  176.8400  142.9970 O   0  0  0  0  0  1  0  0  0  0  0  0
  187.6090  177.9850  141.7560 N   0  0  0  0  0  0  0  0  0  0  0  0
  183.3050  178.3820  142.7770 C   0  0  0  0  0  3  0  0  0  0  0  0
  187.1830  178.2140  145.4210 C   0  0  2  0  0  3  0  0  0  0  0  0
  185.7240  178.4670  146.4670 S   0  0  0  0  0  0  0  0  0  0  0  0
  189.8800  177.4710  141.2470 C   0  0  0  0  0  3  0  0  0  0  0  0
  184.6310  178.2530  142.6750 C   0  0  0  0  0  3  0  0  0  0  0  0
  188.6000  177.8590  140.8310 C   0  0  0  0  0  0  0  0  0  0  0  0
  189.0950  177.3490  143.5340 C   0  0  0  0  0  0  0  0  0  0  0  0
  186.7850  178.1100  137.5120 C   0  0  0  0  0  0  0  0  0  0  0  0
  188.3140  178.1210  139.4040 C   0  0  0  0  0  0  0  0  0  0  0  0
  187.0460  177.8580  138.8610 C   0  0  0  0  0  3  0  0  0  0  0  0
  185.4390  177.8270  136.9490 C   0  0  0  0  0  1  0  0  0  0  0  0
  189.3160  178.6420  138.5710 C   0  0  0  0  0  3  0  0  0  0  0  0
  187.7900  178.6280  136.6910 C   0  0  0  0  0  3  0  0  0  0  0  0
  189.0550  178.8940  137.2210 C   0  0  0  0  0  3  0  0  0  0  0  0
  1  2  1  6  0  0  0
  1 13  1  0  0  0  0
  2 18  1  0  0  0  0
  4 16  1  6  0  0  0
  4  1  1  0  0  0  0
  4  7  1  0  0  0  0
  5  8  2  0  0  0  0
  6  3  1  0  0  0  0
  7  8  1  0  0  0  0
  7 14  1  0  0  0  0
  9 10  1  0  0  0  0
  9 18  2  0  0  0  0
 11  2  2  0  0  0  0
 12  5  1  0  0  0  0
 13  3  1  1  0  0  0
 13 14  1  0  0  0  0
 15  9  1  0  0  0  0
 16 12  2  0  0  0  0
 17 15  2  0  0  0  0
 17 11  1  0  0  0  0
 18  6  1  0  0  0  0
 19 21  1  0  0  0  0
 20 17  1  0  0  0  0
 21 20  2  0  0  0  0
 22 19  1  0  0  0  0
 23 20  1  0  0  0  0
 24 25  1  0  0  0  0
 24 19  2  0  0  0  0
 25 23  2  0  0  0  0
M  END
>  <MODEL>
8

>  <REMARK>
 VINA RESULT:      -9.5      2.601      5.834
  Name = 
  1 active torsions:
  status: ('A' for Active; 'I' for Inactive)
    1  A    between atoms: C_6  and  C_23
                            x       y       z     vdW  Elec       q    Type
                         _______ _______ _______ _____ _____    ______ ____

>  <TORSDO>
F 1

$$$$
=
 OpenBabel10262419513D

 25 29  0  0  1  0  0  0  0  0999 V2000
  188.6090  177.8640  144.6210 C   0  0  2  0  0  3  0  0  0  0  0  0
  187.1170  178.0350  144.5730 C   0  0  0  0  0  0  0  0  0  0  0  0
  188.6070  177.9370  147.0710 C   0  0  0  0  0  2  0  0  0  0  0  0
  189.2540  177.1090  143.4780 C   0  0  2  0  0  3  0  0  0  0  0  0
  191.6660  177.1420  141.9060 C   0  0  0  0  0  3  0  0  0  0  0  0
  187.0730  178.0390  147.1330 C   0  0  0  0  0  2  0  0  0  0  0  0
  190.5650  176.6880  143.9770 N   0  0  0  0  0  0  0  0  0  0  0  0
  191.6980  176.5720  143.1100 C   0  0  0  0  0  3  0  0  0  0  0  0
  185.0280  178.4720  145.7130 C   0  0  0  0  0  0  0  0  0  0  0  0
  184.2790  178.6260  146.8730 O   0  0  0  0  0  1  0  0  0  0  0  0
  186.4760  178.1630  143.3790 N   0  0  0  0  0  0  0  0  0  0  0  0
  190.4890  177.9270  141.4910 C   0  0  0  0  0  3  0  0  0  0  0  0
  188.9950  177.1020  145.8680 C   0  0  2  0  0  3  0  0  0  0  0  0
  190.7660  176.7400  145.7330 S   0  0  0  0  0  0  0  0  0  0  0  0
  184.3980  178.5750  144.4730 C   0  0  0  0  0  3  0  0  0  0  0  0
  189.3800  177.9550  142.2370 C   0  0  0  0  0  3  0  0  0  0  0  0
  185.1400  178.4160  143.2960 C   0  0  0  0  0  0  0  0  0  0  0  0
  186.4030  178.2160  145.7810 C   0  0  0  0  0  0  0  0  0  0  0  0
  182.5360  178.3180  140.5420 C   0  0  0  0  0  0  0  0  0  0  0  0
  184.4930  178.5300  141.9710 C   0  0  0  0  0  0  0  0  0  0  0  0
  183.1380  178.2060  141.7980 C   0  0  0  0  0  3  0  0  0  0  0  0
  181.1010  177.9720  140.3730 C   0  0  0  0  0  1  0  0  0  0  0  0
  185.2340  178.9680  140.8620 C   0  0  0  0  0  3  0  0  0  0  0  0
  183.2830  178.7540  139.4450 C   0  0  0  0  0  3  0  0  0  0  0  0
  184.6320  179.0790  139.6060 C   0  0  0  0  0  3  0  0  0  0  0  0
  1  2  1  6  0  0  0
  1 13  1  0  0  0  0
  2 18  1  0  0  0  0
  3  6  1  0  0  0  0
  4 16  1  6  0  0  0
  4  7  1  0  0  0  0
  4  1  1  0  0  0  0
  5  8  2  0  0  0  0
  7 14  1  0  0  0  0
  8  7  1  0  0  0  0
  9 18  2  0  0  0  0
  9 10  1  0  0  0  0
 11  2  2  0  0  0  0
 12  5  1  0  0  0  0
 12 16  2  0  0  0  0
 13  3  1  1  0  0  0
 14 13  1  0  0  0  0
 15  9  1  0  0  0  0
 17 11  1  0  0  0  0
 17 15  2  0  0  0  0
 18  6  1  0  0  0  0
 19 21  1  0  0  0  0
 20 17  1  0  0  0  0
 21 20  2  0  0  0  0
 22 19  1  0  0  0  0
 23 20  1  0  0  0  0
 24 25  1  0  0  0  0
 24 19  2  0  0  0  0
 25 23  2  0  0  0  0
M  END
>  <MODEL>
9

>  <REMARK>
 VINA RESULT:      -9.5      1.598      2.479
  Name = 
  1 active torsions:
  status: ('A' for Active; 'I' for Inactive)
    1  A    between atoms: C_6  and  C_23
                            x       y       z     vdW  Elec       q    Type
                         _______ _______ _______ _____ _____    ______ ____

>  <TORSDO>
F 1

$$$$
