=
 OpenBabel10252415103D

 34 38  0  0  1  0  0  0  0  0999 V2000
  190.5020  176.8590  147.3780 C   0  0  0  0  0  0  0  0  0  0  0  0
  191.4870  176.1380  145.2930 C   0  0  0  0  0  0  0  0  0  0  0  0
  189.4220  177.5290  145.2550 N   0  0  0  0  0  0  0  0  0  0  0  0
  188.2410  177.7570  142.9980 C   0  0  2  0  0  3  0  0  0  0  0  0
  192.4600  175.5280  147.3600 C   0  0  0  0  0  3  0  0  0  0  0  0
  192.4550  175.5010  146.0020 N   0  0  0  0  0  0  0  0  0  0  0  0
  190.1410  176.3560  143.2350 C   0  0  2  0  0  3  0  0  0  0  0  0
  190.4770  176.8500  145.9750 C   0  0  0  0  0  0  0  0  0  0  0  0
  188.6440  177.2800  141.5970 C   0  0  0  0  0  2  0  0  0  0  0  0
  191.4950  176.2060  148.0360 N   0  0  0  0  0  0  0  0  0  0  0  0
  188.2360  177.9410  147.3520 C   0  0  0  0  0  2  0  0  0  0  0  0
  189.5070  177.6710  148.1570 C   0  0  0  0  0  2  0  0  0  0  0  0
  191.5440  176.1300  143.7880 C   0  0  0  0  0  2  0  0  0  0  0  0
  189.9500  176.4850  141.7320 C   0  0  1  0  0  3  0  0  0  0  0  0
  189.5340  177.6140  143.7950 C   0  0  2  0  0  3  0  0  0  0  0  0
  188.5940  178.4930  145.9770 C   0  0  0  0  0  2  0  0  0  0  0  0
  191.6220  178.1840  141.6880 O   0  0  0  0  0  0  0  0  0  0  0  0
  191.0740  177.2290  141.0740 C   0  0  0  0  0  0  0  0  0  0  0  0
  191.4780  176.8890  139.7800 O   0  0  0  0  0  0  0  0  0  0  0  0
  190.6020  176.2640  138.8490 C   0  0  0  0  0  2  0  0  0  0  0  0
  190.3930  177.1610  137.6290 C   0  0  0  0  0  2  0  0  0  0  0  0
  188.8070  178.5050  136.2930 C   0  0  0  0  0  1  0  0  0  0  0  0
  187.9280  177.0140  138.0460 C   0  0  0  0  0  1  0  0  0  0  0  0
  189.0750  177.9350  137.6700 C   0  0  0  0  0  0  0  0  0  0  0  0
  189.1490  178.9840  138.5850 O   0  0  0  0  0  1  0  0  0  0  0  0
  187.1360  176.8390  143.5110 C   0  0  0  0  0  2  0  0  0  0  0  0
  186.2230  177.5780  144.3130 O   0  0  0  0  0  0  0  0  0  0  0  0
  182.4040  178.9070  142.3770 C   0  0  0  0  0  3  0  0  0  0  0  0
  183.5680  178.5930  141.8120 C   0  0  0  0  0  3  0  0  0  0  0  0
  185.0790  178.1980  143.8040 C   0  0  0  0  0  0  0  0  0  0  0  0
  184.7290  178.0120  142.5150 C   0  0  0  0  0  3  0  0  0  0  0  0
  183.0400  179.3240  144.7220 C   0  0  0  0  0  3  0  0  0  0  0  0
  184.3530  179.0950  144.7270 C   0  0  0  0  0  3  0  0  0  0  0  0
  182.0920  178.6240  143.8080 C   0  0  0  0  0  2  0  0  0  0  0  0
  1 10  1  0  0  0  0
  1 12  1  0  0  0  0
  2  8  1  0  0  0  0
  2  6  2  0  0  0  0
  3  8  1  0  0  0  0
  3 16  1  0  0  0  0
  4 26  1  1  0  0  0
  4 15  1  0  0  0  0
  5 10  2  0  0  0  0
  6  5  1  0  0  0  0
  7 13  1  6  0  0  0
  7 15  1  0  0  0  0
  8  1  2  0  0  0  0
  9 14  1  0  0  0  0
  9  4  1  0  0  0  0
 11 12  1  0  0  0  0
 13  2  1  0  0  0  0
 14 18  1  1  0  0  0
 14  7  1  0  0  0  0
 15  3  1  1  0  0  0
 16 11  1  0  0  0  0
 18 17  2  0  0  0  0
 19 18  1  0  0  0  0
 20 19  1  0  0  0  0
 21 24  1  0  0  0  0
 21 20  1  0  0  0  0
 22 24  1  0  0  0  0
 24 23  1  0  0  0  0
 24 25  1  0  0  0  0
 26 27  1  0  0  0  0
 28 34  1  0  0  0  0
 29 28  2  0  0  0  0
 29 31  1  0  0  0  0
 30 27  1  0  0  0  0
 30 33  1  0  0  0  0
 31 30  2  0  0  0  0
 32 33  2  0  0  0  0
 34 32  1  0  0  0  0
M  END
>  <MODEL>
1

>  <REMARK>
 VINA RESULT:      -8.5      0.000      0.000
  Name = 
  8 active torsions:
  status: ('A' for Active; 'I' for Inactive)
    1  A    between atoms: C_5  and  C_26
    2  A    between atoms: C_12  and  O_28
    3  A    between atoms: O_13  and  C_17
    4  A    between atoms: O_13  and  C_33
    5  A    between atoms: C_17  and  C_29
    6  A    between atoms: C_20  and  C_34
    7  A    between atoms: C_26  and  O_28
    8  A    between atoms: C_33  and  C_34
                            x       y       z     vdW  Elec       q    Type
                         _______ _______ _______ _____ _____    ______ ____

>  <TORSDO>
F 8

$$$$
=
 OpenBabel10252415103D

 34 38  0  0  1  0  0  0  0  0999 V2000
  189.0840  177.2360  146.2380 C   0  0  0  0  0  0  0  0  0  0  0  0
  187.0500  178.4890  146.5990 C   0  0  0  0  0  0  0  0  0  0  0  0
  187.4700  177.4530  144.3750 N   0  0  0  0  0  0  0  0  0  0  0  0
  185.8940  178.1390  142.4800 C   0  0  2  0  0  3  0  0  0  0  0  0
  188.6420  178.2490  148.3320 C   0  0  0  0  0  3  0  0  0  0  0  0
  187.4560  178.7290  147.8720 N   0  0  0  0  0  0  0  0  0  0  0  0
  185.7170  179.1380  144.6250 C   0  0  2  0  0  3  0  0  0  0  0  0
  187.8630  177.7180  145.7410 C   0  0  0  0  0  0  0  0  0  0  0  0
  184.6290  179.0050  142.4860 C   0  0  0  0  0  2  0  0  0  0  0  0
  189.4400  177.5060  147.5210 N   0  0  0  0  0  0  0  0  0  0  0  0
  189.6760  176.5100  143.9080 C   0  0  0  0  0  2  0  0  0  0  0  0
  189.9490  176.3380  145.4020 C   0  0  0  0  0  2  0  0  0  0  0  0
  185.7060  178.9940  146.1430 C   0  0  0  0  0  2  0  0  0  0  0  0
  184.4380  179.5440  143.9100 C   0  0  1  0  0  3  0  0  0  0  0  0
  186.1190  177.8490  143.9610 C   0  0  2  0  0  3  0  0  0  0  0  0
  188.1790  176.4100  143.6350 C   0  0  0  0  0  2  0  0  0  0  0  0
  183.0790  178.9710  145.7830 O   0  0  0  0  0  0  0  0  0  0  0  0
  183.2170  178.9330  144.5320 C   0  0  0  0  0  0  0  0  0  0  0  0
  182.2670  178.2940  143.7290 O   0  0  0  0  0  0  0  0  0  0  0  0
  180.9130  178.7250  143.6610 C   0  0  0  0  0  2  0  0  0  0  0  0
  180.6270  179.3680  142.3050 C   0  0  0  0  0  2  0  0  0  0  0  0
  179.0490  179.0730  140.4260 C   0  0  0  0  0  1  0  0  0  0  0  0
  181.2170  177.9050  140.3600 C   0  0  0  0  0  1  0  0  0  0  0  0
  180.0960  178.3760  141.2680 C   0  0  0  0  0  0  0  0  0  0  0  0
  179.5110  177.2760  141.8950 O   0  0  0  0  0  1  0  0  0  0  0  0
  187.0260  178.9590  141.8680 C   0  0  0  0  0  2  0  0  0  0  0  0
  187.1710  178.6370  140.4910 O   0  0  0  0  0  0  0  0  0  0  0  0
  190.9560  176.7660  138.9810 C   0  0  0  0  0  3  0  0  0  0  0  0
  190.6430  177.1530  140.2160 C   0  0  0  0  0  3  0  0  0  0  0  0
  188.3860  178.2560  139.9140 C   0  0  0  0  0  0  0  0  0  0  0  0
  189.3120  177.6150  140.6550 C   0  0  0  0  0  3  0  0  0  0  0  0
  189.3170  177.9900  137.6050 C   0  0  0  0  0  3  0  0  0  0  0  0
  188.5990  178.6580  138.5080 C   0  0  0  0  0  3  0  0  0  0  0  0
  189.9520  176.6690  137.8810 C   0  0  0  0  0  2  0  0  0  0  0  0
  1 10  1  0  0  0  0
  2  6  2  0  0  0  0
  3  8  1  0  0  0  0
  4 26  1  1  0  0  0
  4  9  1  0  0  0  0
  4 15  1  0  0  0  0
  6  5  1  0  0  0  0
  7 13  1  1  0  0  0
  8  1  2  0  0  0  0
  8  2  1  0  0  0  0
  9 14  1  0  0  0  0
 10  5  2  0  0  0  0
 11 12  1  0  0  0  0
 12  1  1  0  0  0  0
 13  2  1  0  0  0  0
 14 18  1  1  0  0  0
 14  7  1  0  0  0  0
 15  3  1  6  0  0  0
 15  7  1  0  0  0  0
 16 11  1  0  0  0  0
 16  3  1  0  0  0  0
 18 17  2  0  0  0  0
 19 18  1  0  0  0  0
 20 19  1  0  0  0  0
 21 20  1  0  0  0  0
 22 24  1  0  0  0  0
 23 24  1  0  0  0  0
 24 25  1  0  0  0  0
 24 21  1  0  0  0  0
 27 26  1  0  0  0  0
 28 29  2  0  0  0  0
 29 31  1  0  0  0  0
 30 27  1  0  0  0  0
 30 31  2  0  0  0  0
 32 34  1  0  0  0  0
 32 33  2  0  0  0  0
 33 30  1  0  0  0  0
 34 28  1  0  0  0  0
M  END
>  <MODEL>
2

>  <REMARK>
 VINA RESULT:      -8.3      2.280      6.971
  Name = 
  8 active torsions:
  status: ('A' for Active; 'I' for Inactive)
    1  A    between atoms: C_5  and  C_26
    2  A    between atoms: C_12  and  O_28
    3  A    between atoms: O_13  and  C_17
    4  A    between atoms: O_13  and  C_33
    5  A    between atoms: C_17  and  C_29
    6  A    between atoms: C_20  and  C_34
    7  A    between atoms: C_26  and  O_28
    8  A    between atoms: C_33  and  C_34
                            x       y       z     vdW  Elec       q    Type
                         _______ _______ _______ _____ _____    ______ ____

>  <TORSDO>
F 8

$$$$
=
 OpenBabel10252415103D

 34 38  0  0  1  0  0  0  0  0999 V2000
  187.6510  177.8010  146.3500 C   0  0  0  0  0  0  0  0  0  0  0  0
  185.6410  178.7170  145.3710 C   0  0  0  0  0  0  0  0  0  0  0  0
  187.3370  177.6410  143.9000 N   0  0  0  0  0  0  0  0  0  0  0  0
  187.0220  177.9470  141.3800 C   0  0  2  0  0  3  0  0  0  0  0  0
  186.0120  178.8430  147.7030 C   0  0  0  0  0  3  0  0  0  0  0  0
  185.2410  179.0930  146.6130 N   0  0  0  0  0  0  0  0  0  0  0  0
  185.5740  179.0230  142.9220 C   0  0  2  0  0  3  0  0  0  0  0  0
  186.8710  178.0440  145.2090 C   0  0  0  0  0  0  0  0  0  0  0  0
  185.8840  178.5900  140.5780 C   0  0  0  0  0  2  0  0  0  0  0  0
  187.2010  178.1980  147.5680 N   0  0  0  0  0  0  0  0  0  0  0  0
  189.5150  177.0520  144.8410 C   0  0  0  0  0  2  0  0  0  0  0  0
  188.9250  177.0130  146.2520 C   0  0  0  0  0  2  0  0  0  0  0  0
  184.7350  178.9660  144.1930 C   0  0  0  0  0  2  0  0  0  0  0  0
  184.8760  179.1700  141.5800 C   0  0  1  0  0  3  0  0  0  0  0  0
  186.4130  177.7830  142.7700 C   0  0  2  0  0  3  0  0  0  0  0  0
  188.4440  176.6900  143.8180 C   0  0  0  0  0  2  0  0  0  0  0  0
  182.5910  178.8180  142.1630 O   0  0  0  0  0  0  0  0  0  0  0  0
  183.5900  178.4010  141.5170 C   0  0  0  0  0  0  0  0  0  0  0  0
  183.5170  177.2150  140.7810 O   0  0  0  0  0  0  0  0  0  0  0  0
  182.5590  177.0160  139.7480 C   0  0  0  0  0  2  0  0  0  0  0  0
  182.8600  177.9300  138.5600 C   0  0  0  0  0  2  0  0  0  0  0  0
  182.4140  180.3590  138.6330 C   0  0  0  0  0  1  0  0  0  0  0  0
  181.3080  178.9920  136.9080 C   0  0  0  0  0  1  0  0  0  0  0  0
  181.7970  179.0070  138.3440 C   0  0  0  0  0  0  0  0  0  0  0  0
  180.7170  178.8130  139.2060 O   0  0  0  0  0  1  0  0  0  0  0  0
  188.2070  178.9080  141.3740 C   0  0  0  0  0  2  0  0  0  0  0  0
  189.3860  178.2240  140.9660 O   0  0  0  0  0  0  0  0  0  0  0  0
  189.9330  176.2660  136.9700 C   0  0  0  0  0  3  0  0  0  0  0  0
  190.6430  176.1120  138.0860 C   0  0  0  0  0  3  0  0  0  0  0  0
  189.6250  177.8220  139.6490 C   0  0  0  0  0  0  0  0  0  0  0  0
  190.2950  176.6790  139.4040 C   0  0  0  0  0  3  0  0  0  0  0  0
  188.7570  178.3960  137.3710 C   0  0  0  0  0  3  0  0  0  0  0  0
  189.1700  178.7460  138.5890 C   0  0  0  0  0  3  0  0  0  0  0  0
  188.6220  176.9770  136.9320 C   0  0  0  0  0  2  0  0  0  0  0  0
  1 10  1  0  0  0  0
  2  6  2  0  0  0  0
  3  8  1  0  0  0  0
  4 26  1  1  0  0  0
  4 15  1  0  0  0  0
  6  5  1  0  0  0  0
  7 13  1  1  0  0  0
  8  2  1  0  0  0  0
  8  1  2  0  0  0  0
  9  4  1  0  0  0  0
  9 14  1  0  0  0  0
 10  5  2  0  0  0  0
 11 12  1  0  0  0  0
 12  1  1  0  0  0  0
 13  2  1  0  0  0  0
 14 18  1  1  0  0  0
 14  7  1  0  0  0  0
 15  7  1  0  0  0  0
 15  3  1  1  0  0  0
 16  3  1  0  0  0  0
 16 11  1  0  0  0  0
 18 17  2  0  0  0  0
 19 18  1  0  0  0  0
 20 19  1  0  0  0  0
 21 20  1  0  0  0  0
 23 24  1  0  0  0  0
 24 21  1  0  0  0  0
 24 22  1  0  0  0  0
 24 25  1  0  0  0  0
 27 26  1  0  0  0  0
 28 29  2  0  0  0  0
 29 31  1  0  0  0  0
 30 27  1  0  0  0  0
 31 30  2  0  0  0  0
 32 33  2  0  0  0  0
 33 30  1  0  0  0  0
 34 28  1  0  0  0  0
 34 32  1  0  0  0  0
M  END
>  <MODEL>
3

>  <REMARK>
 VINA RESULT:      -8.3      2.801      6.518
  Name = 
  8 active torsions:
  status: ('A' for Active; 'I' for Inactive)
    1  A    between atoms: C_5  and  C_26
    2  A    between atoms: C_12  and  O_28
    3  A    between atoms: O_13  and  C_17
    4  A    between atoms: O_13  and  C_33
    5  A    between atoms: C_17  and  C_29
    6  A    between atoms: C_20  and  C_34
    7  A    between atoms: C_26  and  O_28
    8  A    between atoms: C_33  and  C_34
                            x       y       z     vdW  Elec       q    Type
                         _______ _______ _______ _____ _____    ______ ____

>  <TORSDO>
F 8

$$$$
=
 OpenBabel10252415103D

 34 38  0  0  1  0  0  0  0  0999 V2000
  187.6660  177.8000  146.3740 C   0  0  0  0  0  0  0  0  0  0  0  0
  185.6660  178.7340  145.3900 C   0  0  0  0  0  0  0  0  0  0  0  0
  187.3550  177.6380  143.9250 N   0  0  0  0  0  0  0  0  0  0  0  0
  187.0470  177.9430  141.4030 C   0  0  2  0  0  3  0  0  0  0  0  0
  186.0350  178.8610  147.7230 C   0  0  0  0  0  3  0  0  0  0  0  0
  185.2670  179.1160  146.6310 N   0  0  0  0  0  0  0  0  0  0  0  0
  185.6070  179.0360  142.9410 C   0  0  2  0  0  3  0  0  0  0  0  0
  186.8900  178.0490  145.2320 C   0  0  0  0  0  0  0  0  0  0  0  0
  185.9160  178.5960  140.5980 C   0  0  0  0  0  2  0  0  0  0  0  0
  187.2170  178.2040  147.5910 N   0  0  0  0  0  0  0  0  0  0  0  0
  189.5250  177.0300  144.8700 C   0  0  0  0  0  2  0  0  0  0  0  0
  188.9330  177.0000  146.2800 C   0  0  0  0  0  2  0  0  0  0  0  0
  184.7640  178.9890  144.2110 C   0  0  0  0  0  2  0  0  0  0  0  0
  184.9120  179.1870  141.5970 C   0  0  1  0  0  3  0  0  0  0  0  0
  186.4340  177.7880  142.7930 C   0  0  2  0  0  3  0  0  0  0  0  0
  188.4530  176.6770  143.8450 C   0  0  0  0  0  2  0  0  0  0  0  0
  182.6150  178.8750  142.1520 O   0  0  0  0  0  0  0  0  0  0  0  0
  183.6190  178.4300  141.5340 C   0  0  0  0  0  0  0  0  0  0  0  0
  183.5450  177.2260  140.8280 O   0  0  0  0  0  0  0  0  0  0  0  0
  182.5740  176.9950  139.8140 C   0  0  0  0  0  2  0  0  0  0  0  0
  182.8830  177.8420  138.5790 C   0  0  0  0  0  2  0  0  0  0  0  0
  184.9730  177.3820  137.3440 C   0  0  0  0  0  1  0  0  0  0  0  0
  183.3660  175.5480  137.6990 C   0  0  0  0  0  1  0  0  0  0  0  0
  183.5020  177.0370  137.4360 C   0  0  0  0  0  0  0  0  0  0  0  0
  182.8890  177.3530  136.2240 O   0  0  0  0  0  1  0  0  0  0  0  0
  188.2410  178.8920  141.3970 C   0  0  0  0  0  2  0  0  0  0  0  0
  189.4170  178.1920  141.0110 O   0  0  0  0  0  0  0  0  0  0  0  0
  190.0090  176.1870  137.0440 C   0  0  0  0  0  3  0  0  0  0  0  0
  190.7140  176.0560  138.1660 C   0  0  0  0  0  3  0  0  0  0  0  0
  189.6680  177.7760  139.7000 C   0  0  0  0  0  0  0  0  0  0  0  0
  190.3520  176.6370  139.4740 C   0  0  0  0  0  3  0  0  0  0  0  0
  188.8060  178.3080  137.4100 C   0  0  0  0  0  3  0  0  0  0  0  0
  189.2080  178.6790  138.6250 C   0  0  0  0  0  3  0  0  0  0  0  0
  188.6900  176.8820  136.9890 C   0  0  0  0  0  2  0  0  0  0  0  0
  1 10  1  0  0  0  0
  2  6  2  0  0  0  0
  3  8  1  0  0  0  0
  4 26  1  1  0  0  0
  4 15  1  0  0  0  0
  6  5  1  0  0  0  0
  7 13  1  1  0  0  0
  8  2  1  0  0  0  0
  8  1  2  0  0  0  0
  9  4  1  0  0  0  0
  9 14  1  0  0  0  0
 10  5  2  0  0  0  0
 11 12  1  0  0  0  0
 12  1  1  0  0  0  0
 13  2  1  0  0  0  0
 14 18  1  1  0  0  0
 14  7  1  0  0  0  0
 15  7  1  0  0  0  0
 15  3  1  1  0  0  0
 16  3  1  0  0  0  0
 16 11  1  0  0  0  0
 18 17  2  0  0  0  0
 19 18  1  0  0  0  0
 20 19  1  0  0  0  0
 21 20  1  0  0  0  0
 22 24  1  0  0  0  0
 24 23  1  0  0  0  0
 24 21  1  0  0  0  0
 25 24  1  0  0  0  0
 27 26  1  0  0  0  0
 28 29  2  0  0  0  0
 29 31  1  0  0  0  0
 30 27  1  0  0  0  0
 31 30  2  0  0  0  0
 32 33  2  0  0  0  0
 33 30  1  0  0  0  0
 34 28  1  0  0  0  0
 34 32  1  0  0  0  0
M  END
>  <MODEL>
4

>  <REMARK>
 VINA RESULT:      -8.3      2.701      6.271
  Name = 
  8 active torsions:
  status: ('A' for Active; 'I' for Inactive)
    1  A    between atoms: C_5  and  C_26
    2  A    between atoms: C_12  and  O_28
    3  A    between atoms: O_13  and  C_17
    4  A    between atoms: O_13  and  C_33
    5  A    between atoms: C_17  and  C_29
    6  A    between atoms: C_20  and  C_34
    7  A    between atoms: C_26  and  O_28
    8  A    between atoms: C_33  and  C_34
                            x       y       z     vdW  Elec       q    Type
                         _______ _______ _______ _____ _____    ______ ____

>  <TORSDO>
F 8

$$$$
=
 OpenBabel10252415103D

 34 38  0  0  1  0  0  0  0  0999 V2000
  191.6500  173.8970  136.4110 C   0  0  0  0  0  0  0  0  0  0  0  0
  189.3460  174.6260  136.4420 C   0  0  0  0  0  0  0  0  0  0  0  0
  191.0660  175.9540  137.6570 N   0  0  0  0  0  0  0  0  0  0  0  0
  190.2010  177.7920  139.2120 C   0  0  2  0  0  3  0  0  0  0  0  0
  189.9750  172.6640  135.2800 C   0  0  0  0  0  3  0  0  0  0  0  0
  189.0250  173.5530  135.6740 N   0  0  0  0  0  0  0  0  0  0  0  0
  188.6920  176.3460  138.0880 C   0  0  2  0  0  3  0  0  0  0  0  0
  190.6880  174.8310  136.8270 C   0  0  0  0  0  0  0  0  0  0  0  0
  188.7820  178.3220  139.4530 C   0  0  0  0  0  2  0  0  0  0  0  0
  191.2730  172.8430  135.6420 N   0  0  0  0  0  0  0  0  0  0  0  0
  193.3090  175.0200  137.9260 C   0  0  0  0  0  2  0  0  0  0  0  0
  193.1050  174.1100  136.7150 C   0  0  0  0  0  2  0  0  0  0  0  0
  188.2740  175.6160  136.8160 C   0  0  0  0  0  2  0  0  0  0  0  0
  187.8160  177.4700  138.6180 C   0  0  1  0  0  3  0  0  0  0  0  0
  190.0500  176.9750  137.9310 C   0  0  2  0  0  3  0  0  0  0  0  0
  192.4840  176.2930  137.7680 C   0  0  0  0  0  2  0  0  0  0  0  0
  187.9060  179.2200  137.0020 O   0  0  0  0  0  0  0  0  0  0  0  0
  187.2200  178.2970  137.5180 C   0  0  0  0  0  0  0  0  0  0  0  0
  185.9050  178.0690  137.1030 O   0  0  0  0  0  0  0  0  0  0  0  0
  184.9390  177.4460  137.9410 C   0  0  0  0  0  2  0  0  0  0  0  0
  183.6290  178.2320  137.9190 C   0  0  0  0  0  2  0  0  0  0  0  0
  182.2630  180.0540  138.8790 C   0  0  0  0  0  1  0  0  0  0  0  0
  183.2400  178.3700  140.3890 C   0  0  0  0  0  1  0  0  0  0  0  0
  183.4670  179.1680  139.1170 C   0  0  0  0  0  0  0  0  0  0  0  0
  184.5960  179.9730  139.2680 O   0  0  0  0  0  1  0  0  0  0  0  0
  190.5940  176.9310  140.4080 C   0  0  0  0  0  2  0  0  0  0  0  0
  190.7280  177.7420  141.5680 O   0  0  0  0  0  0  0  0  0  0  0  0
  188.5530  177.6570  145.4880 C   0  0  0  0  0  3  0  0  0  0  0  0
  189.8150  177.9980  145.2340 C   0  0  0  0  0  3  0  0  0  0  0  0
  190.0570  177.4860  142.7670 C   0  0  0  0  0  0  0  0  0  0  0  0
  190.4040  178.1490  143.8890 C   0  0  0  0  0  3  0  0  0  0  0  0
  187.9260  176.3780  143.4760 C   0  0  0  0  0  3  0  0  0  0  0  0
  189.0300  176.4250  142.7300 C   0  0  0  0  0  3  0  0  0  0  0  0
  187.5310  177.4650  144.4180 C   0  0  0  0  0  2  0  0  0  0  0  0
  1 12  1  0  0  0  0
  1  8  1  0  0  0  0
  2 13  1  0  0  0  0
  2  8  2  0  0  0  0
  3 16  1  0  0  0  0
  4  9  1  0  0  0  0
  4 26  1  1  0  0  0
  5 10  1  0  0  0  0
  5  6  2  0  0  0  0
  6  2  1  0  0  0  0
  7 13  1  6  0  0  0
  7 14  1  0  0  0  0
  8  3  1  0  0  0  0
 10  1  2  0  0  0  0
 12 11  1  0  0  0  0
 14 18  1  6  0  0  0
 14  9  1  0  0  0  0
 15  3  1  1  0  0  0
 15  7  1  0  0  0  0
 15  4  1  0  0  0  0
 16 11  1  0  0  0  0
 17 18  2  0  0  0  0
 19 18  1  0  0  0  0
 19 20  1  0  0  0  0
 21 20  1  0  0  0  0
 21 24  1  0  0  0  0
 22 24  1  0  0  0  0
 24 25  1  0  0  0  0
 24 23  1  0  0  0  0
 26 27  1  0  0  0  0
 27 30  1  0  0  0  0
 29 28  2  0  0  0  0
 30 31  2  0  0  0  0
 31 29  1  0  0  0  0
 32 34  1  0  0  0  0
 33 30  1  0  0  0  0
 33 32  2  0  0  0  0
 34 28  1  0  0  0  0
M  END
>  <MODEL>
5

>  <REMARK>
 VINA RESULT:      -8.3      3.763      7.624
  Name = 
  8 active torsions:
  status: ('A' for Active; 'I' for Inactive)
    1  A    between atoms: C_5  and  C_26
    2  A    between atoms: C_12  and  O_28
    3  A    between atoms: O_13  and  C_17
    4  A    between atoms: O_13  and  C_33
    5  A    between atoms: C_17  and  C_29
    6  A    between atoms: C_20  and  C_34
    7  A    between atoms: C_26  and  O_28
    8  A    between atoms: C_33  and  C_34
                            x       y       z     vdW  Elec       q    Type
                         _______ _______ _______ _____ _____    ______ ____

>  <TORSDO>
F 8

$$$$
=
 OpenBabel10252415103D

 34 38  0  0  1  0  0  0  0  0999 V2000
  184.8180  178.6920  141.8050 C   0  0  0  0  0  0  0  0  0  0  0  0
  186.1480  178.5530  139.7920 C   0  0  0  0  0  0  0  0  0  0  0  0
  187.1440  177.8640  141.9680 N   0  0  0  0  0  0  0  0  0  0  0  0
  189.6670  177.4400  141.9840 C   0  0  2  0  0  3  0  0  0  0  0  0
  183.9200  179.3440  139.7130 C   0  0  0  0  0  3  0  0  0  0  0  0
  185.0880  179.0330  139.0920 N   0  0  0  0  0  0  0  0  0  0  0  0
  188.5850  178.2360  140.0280 C   0  0  2  0  0  3  0  0  0  0  0  0
  186.0320  178.3600  141.1860 C   0  0  0  0  0  0  0  0  0  0  0  0
  190.6920  177.4160  140.8440 C   0  0  0  0  0  2  0  0  0  0  0  0
  183.7890  179.1670  141.0550 N   0  0  0  0  0  0  0  0  0  0  0  0
  185.9280  178.3510  144.0320 C   0  0  0  0  0  2  0  0  0  0  0  0
  184.6060  178.4260  143.2680 C   0  0  0  0  0  2  0  0  0  0  0  0
  187.4080  178.1710  139.0610 C   0  0  0  0  0  2  0  0  0  0  0  0
  189.9600  177.8010  139.5500 C   0  0  1  0  0  3  0  0  0  0  0  0
  188.3310  177.3910  141.2470 C   0  0  2  0  0  3  0  0  0  0  0  0
  186.8850  177.3950  143.3280 C   0  0  0  0  0  2  0  0  0  0  0  0
  189.0660  176.6250  137.6800 O   0  0  0  0  0  0  0  0  0  0  0  0
  189.8980  176.6220  138.6260 C   0  0  0  0  0  0  0  0  0  0  0  0
  190.7290  175.5180  138.8400 O   0  0  0  0  0  0  0  0  0  0  0  0
  191.3380  174.8040  137.7710 C   0  0  0  0  0  2  0  0  0  0  0  0
  192.0460  175.7700  136.8200 C   0  0  0  0  0  2  0  0  0  0  0  0
  194.0870  174.6700  137.6740 C   0  0  0  0  0  1  0  0  0  0  0  0
  194.2990  176.3930  135.9260 C   0  0  0  0  0  1  0  0  0  0  0  0
  193.5220  175.9770  137.1610 C   0  0  0  0  0  0  0  0  0  0  0  0
  193.6660  176.9490  138.1510 O   0  0  0  0  0  1  0  0  0  0  0  0
  189.8550  178.7390  142.7620 C   0  0  0  0  0  2  0  0  0  0  0  0
  190.8880  178.5830  143.7270 O   0  0  0  0  0  0  0  0  0  0  0  0
  191.2460  176.0870  147.4340 C   0  0  0  0  0  3  0  0  0  0  0  0
  191.8640  175.9460  146.2630 C   0  0  0  0  0  3  0  0  0  0  0  0
  190.7860  177.7340  144.8330 C   0  0  0  0  0  0  0  0  0  0  0  0
  191.8050  176.9100  145.1470 C   0  0  0  0  0  3  0  0  0  0  0  0
  189.3320  177.5320  146.8620 C   0  0  0  0  0  3  0  0  0  0  0  0
  189.4990  177.7540  145.5580 C   0  0  0  0  0  3  0  0  0  0  0  0
  190.4680  177.3050  147.8020 C   0  0  0  0  0  2  0  0  0  0  0  0
  1 12  1  0  0  0  0
  2  8  2  0  0  0  0
  3 16  1  0  0  0  0
  4 26  1  6  0  0  0
  5 10  1  0  0  0  0
  6  5  2  0  0  0  0
  6  2  1  0  0  0  0
  7 13  1  6  0  0  0
  7 15  1  0  0  0  0
  8  1  1  0  0  0  0
  8  3  1  0  0  0  0
  9  4  1  0  0  0  0
 10  1  2  0  0  0  0
 12 11  1  0  0  0  0
 13  2  1  0  0  0  0
 14 18  1  6  0  0  0
 14  7  1  0  0  0  0
 14  9  1  0  0  0  0
 15  3  1  1  0  0  0
 15  4  1  0  0  0  0
 16 11  1  0  0  0  0
 17 18  2  0  0  0  0
 18 19  1  0  0  0  0
 20 19  1  0  0  0  0
 21 24  1  0  0  0  0
 21 20  1  0  0  0  0
 23 24  1  0  0  0  0
 24 22  1  0  0  0  0
 24 25  1  0  0  0  0
 26 27  1  0  0  0  0
 27 30  1  0  0  0  0
 28 34  1  0  0  0  0
 29 28  2  0  0  0  0
 30 31  2  0  0  0  0
 30 33  1  0  0  0  0
 31 29  1  0  0  0  0
 32 34  1  0  0  0  0
 33 32  2  0  0  0  0
M  END
>  <MODEL>
6

>  <REMARK>
 VINA RESULT:      -8.2      2.697      6.441
  Name = 
  8 active torsions:
  status: ('A' for Active; 'I' for Inactive)
    1  A    between atoms: C_5  and  C_26
    2  A    between atoms: C_12  and  O_28
    3  A    between atoms: O_13  and  C_17
    4  A    between atoms: O_13  and  C_33
    5  A    between atoms: C_17  and  C_29
    6  A    between atoms: C_20  and  C_34
    7  A    between atoms: C_26  and  O_28
    8  A    between atoms: C_33  and  C_34
                            x       y       z     vdW  Elec       q    Type
                         _______ _______ _______ _____ _____    ______ ____

>  <TORSDO>
F 8

$$$$
=
 OpenBabel10252415103D

 34 38  0  0  1  0  0  0  0  0999 V2000
  184.8650  178.6780  141.6190 C   0  0  0  0  0  0  0  0  0  0  0  0
  186.2820  178.6090  139.6630 C   0  0  0  0  0  0  0  0  0  0  0  0
  187.1930  177.8770  141.8620 N   0  0  0  0  0  0  0  0  0  0  0  0
  189.7190  177.4860  141.9770 C   0  0  2  0  0  3  0  0  0  0  0  0
  184.0490  179.3720  139.5070 C   0  0  0  0  0  3  0  0  0  0  0  0
  185.2470  179.0930  138.9300 N   0  0  0  0  0  0  0  0  0  0  0  0
  188.7110  178.3180  139.9970 C   0  0  2  0  0  3  0  0  0  0  0  0
  186.1100  178.3790  141.0450 C   0  0  0  0  0  0  0  0  0  0  0  0
  190.7930  177.5050  140.8820 C   0  0  0  0  0  2  0  0  0  0  0  0
  183.8630  179.1590  140.8370 N   0  0  0  0  0  0  0  0  0  0  0  0
  185.8830  178.2940  143.8820 C   0  0  0  0  0  2  0  0  0  0  0  0
  184.5940  178.3720  143.0640 C   0  0  0  0  0  2  0  0  0  0  0  0
  187.5790  178.2630  138.9780 C   0  0  0  0  0  2  0  0  0  0  0  0
  190.1130  177.9140  139.5680 C   0  0  1  0  0  3  0  0  0  0  0  0
  188.4170  177.4390  141.1820 C   0  0  2  0  0  3  0  0  0  0  0  0
  186.8830  177.3690  143.1960 C   0  0  0  0  0  2  0  0  0  0  0  0
  190.4000  175.6080  139.0350 O   0  0  0  0  0  0  0  0  0  0  0  0
  190.1070  176.7580  138.6120 C   0  0  0  0  0  0  0  0  0  0  0  0
  189.8190  176.9680  137.2600 O   0  0  0  0  0  0  0  0  0  0  0  0
  189.2640  175.9520  136.4330 C   0  0  0  0  0  2  0  0  0  0  0  0
  188.1210  176.5170  135.5900 C   0  0  0  0  0  2  0  0  0  0  0  0
  186.3830  174.9430  134.8110 C   0  0  0  0  0  1  0  0  0  0  0  0
  186.8360  175.1240  137.2260 C   0  0  0  0  0  1  0  0  0  0  0  0
  186.7630  175.8980  135.9220 C   0  0  0  0  0  0  0  0  0  0  0  0
  185.7840  176.8860  136.0210 O   0  0  0  0  0  1  0  0  0  0  0  0
  189.8550  178.7670  142.7950 C   0  0  0  0  0  2  0  0  0  0  0  0
  190.8490  178.5990  143.7990 O   0  0  0  0  0  0  0  0  0  0  0  0
  190.9000  176.3630  147.6850 C   0  0  0  0  0  3  0  0  0  0  0  0
  191.6740  176.2050  146.6140 C   0  0  0  0  0  3  0  0  0  0  0  0
  190.6650  177.8110  144.9390 C   0  0  0  0  0  0  0  0  0  0  0  0
  191.6920  177.0930  145.4350 C   0  0  0  0  0  3  0  0  0  0  0  0
  188.9770  177.6120  146.7790 C   0  0  0  0  0  3  0  0  0  0  0  0
  189.2960  177.7700  145.4940 C   0  0  0  0  0  3  0  0  0  0  0  0
  189.9930  177.5340  147.8680 C   0  0  0  0  0  2  0  0  0  0  0  0
  1 12  1  0  0  0  0
  2  8  2  0  0  0  0
  3 16  1  0  0  0  0
  4 26  1  6  0  0  0
  5 10  1  0  0  0  0
  6  5  2  0  0  0  0
  6  2  1  0  0  0  0
  7 13  1  6  0  0  0
  7 15  1  0  0  0  0
  8  1  1  0  0  0  0
  8  3  1  0  0  0  0
  9  4  1  0  0  0  0
 10  1  2  0  0  0  0
 12 11  1  0  0  0  0
 13  2  1  0  0  0  0
 14 18  1  6  0  0  0
 14  7  1  0  0  0  0
 14  9  1  0  0  0  0
 15  3  1  1  0  0  0
 15  4  1  0  0  0  0
 16 11  1  0  0  0  0
 18 17  2  0  0  0  0
 19 18  1  0  0  0  0
 20 19  1  0  0  0  0
 21 24  1  0  0  0  0
 21 20  1  0  0  0  0
 22 24  1  0  0  0  0
 24 25  1  0  0  0  0
 24 23  1  0  0  0  0
 26 27  1  0  0  0  0
 27 30  1  0  0  0  0
 28 34  1  0  0  0  0
 29 28  2  0  0  0  0
 30 31  2  0  0  0  0
 30 33  1  0  0  0  0
 31 29  1  0  0  0  0
 32 34  1  0  0  0  0
 33 32  2  0  0  0  0
M  END
>  <MODEL>
7

>  <REMARK>
 VINA RESULT:      -8.1      2.703      6.243
  Name = 
  8 active torsions:
  status: ('A' for Active; 'I' for Inactive)
    1  A    between atoms: C_5  and  C_26
    2  A    between atoms: C_12  and  O_28
    3  A    between atoms: O_13  and  C_17
    4  A    between atoms: O_13  and  C_33
    5  A    between atoms: C_17  and  C_29
    6  A    between atoms: C_20  and  C_34
    7  A    between atoms: C_26  and  O_28
    8  A    between atoms: C_33  and  C_34
                            x       y       z     vdW  Elec       q    Type
                         _______ _______ _______ _____ _____    ______ ____

>  <TORSDO>
F 8

$$$$
=
 OpenBabel10252415103D

 34 38  0  0  1  0  0  0  0  0999 V2000
  190.5320  176.7750  147.2140 C   0  0  0  0  0  0  0  0  0  0  0  0
  191.4920  176.0730  145.1110 C   0  0  0  0  0  0  0  0  0  0  0  0
  189.4570  177.5070  145.1090 N   0  0  0  0  0  0  0  0  0  0  0  0
  188.2710  177.8030  142.8620 C   0  0  2  0  0  3  0  0  0  0  0  0
  192.4610  175.4030  147.1620 C   0  0  0  0  0  3  0  0  0  0  0  0
  192.4490  175.4030  145.8030 N   0  0  0  0  0  0  0  0  0  0  0  0
  190.1430  176.3580  143.0630 C   0  0  2  0  0  3  0  0  0  0  0  0
  190.5010  176.7930  145.8110 C   0  0  0  0  0  0  0  0  0  0  0  0
  188.6580  177.3440  141.4500 C   0  0  0  0  0  2  0  0  0  0  0  0
  191.5140  176.0890  147.8550 N   0  0  0  0  0  0  0  0  0  0  0  0
  188.2880  177.9040  147.2190 C   0  0  0  0  0  2  0  0  0  0  0  0
  189.5580  177.5930  148.0120 C   0  0  0  0  0  2  0  0  0  0  0  0
  191.5420  176.0920  143.6050 C   0  0  0  0  0  2  0  0  0  0  0  0
  189.9480  176.5190  141.5640 C   0  0  1  0  0  3  0  0  0  0  0  0
  189.5650  177.6170  143.6500 C   0  0  2  0  0  3  0  0  0  0  0  0
  188.6530  178.4750  145.8530 C   0  0  0  0  0  2  0  0  0  0  0  0
  191.9550  177.8030  141.6400 O   0  0  0  0  0  0  0  0  0  0  0  0
  191.0840  177.2520  140.9150 C   0  0  0  0  0  0  0  0  0  0  0  0
  191.1490  177.3530  139.5220 O   0  0  0  0  0  0  0  0  0  0  0  0
  191.6230  176.2910  138.7030 C   0  0  0  0  0  2  0  0  0  0  0  0
  192.9800  176.6490  138.0980 C   0  0  0  0  0  2  0  0  0  0  0  0
  192.7440  174.2760  137.4500 C   0  0  0  0  0  1  0  0  0  0  0  0
  193.5710  175.8940  135.7850 C   0  0  0  0  0  1  0  0  0  0  0  0
  193.5810  175.5230  137.2570 C   0  0  0  0  0  0  0  0  0  0  0  0
  194.8890  175.2530  137.6600 O   0  0  0  0  0  1  0  0  0  0  0  0
  187.1490  176.8990  143.3620 C   0  0  0  0  0  2  0  0  0  0  0  0
  186.2700  177.6340  144.2050 O   0  0  0  0  0  0  0  0  0  0  0  0
  182.3630  178.9360  142.4310 C   0  0  0  0  0  3  0  0  0  0  0  0
  183.5100  178.6480  141.8190 C   0  0  0  0  0  3  0  0  0  0  0  0
  185.0990  178.2450  143.7470 C   0  0  0  0  0  0  0  0  0  0  0  0
  184.7040  178.0730  142.4700 C   0  0  0  0  0  3  0  0  0  0  0  0
  183.0800  179.3280  144.7570 C   0  0  0  0  0  3  0  0  0  0  0  0
  184.3950  179.1180  144.7090 C   0  0  0  0  0  3  0  0  0  0  0  0
  182.1090  178.6270  143.8680 C   0  0  0  0  0  2  0  0  0  0  0  0
  1 10  1  0  0  0  0
  1 12  1  0  0  0  0
  2  6  2  0  0  0  0
  2  8  1  0  0  0  0
  3  8  1  0  0  0  0
  3 16  1  0  0  0  0
  4 26  1  1  0  0  0
  4 15  1  0  0  0  0
  5 10  2  0  0  0  0
  6  5  1  0  0  0  0
  7 13  1  6  0  0  0
  7 15  1  0  0  0  0
  8  1  2  0  0  0  0
  9 14  1  0  0  0  0
  9  4  1  0  0  0  0
 11 12  1  0  0  0  0
 13  2  1  0  0  0  0
 14 18  1  1  0  0  0
 14  7  1  0  0  0  0
 15  3  1  1  0  0  0
 16 11  1  0  0  0  0
 18 17  2  0  0  0  0
 19 18  1  0  0  0  0
 20 19  1  0  0  0  0
 21 20  1  0  0  0  0
 23 24  1  0  0  0  0
 24 22  1  0  0  0  0
 24 25  1  0  0  0  0
 24 21  1  0  0  0  0
 26 27  1  0  0  0  0
 28 34  1  0  0  0  0
 29 28  2  0  0  0  0
 29 31  1  0  0  0  0
 30 27  1  0  0  0  0
 30 33  1  0  0  0  0
 31 30  2  0  0  0  0
 33 32  2  0  0  0  0
 34 32  1  0  0  0  0
M  END
>  <MODEL>
8

>  <REMARK>
 VINA RESULT:      -8.0      1.383      2.145
  Name = 
  8 active torsions:
  status: ('A' for Active; 'I' for Inactive)
    1  A    between atoms: C_5  and  C_26
    2  A    between atoms: C_12  and  O_28
    3  A    between atoms: O_13  and  C_17
    4  A    between atoms: O_13  and  C_33
    5  A    between atoms: C_17  and  C_29
    6  A    between atoms: C_20  and  C_34
    7  A    between atoms: C_26  and  O_28
    8  A    between atoms: C_33  and  C_34
                            x       y       z     vdW  Elec       q    Type
                         _______ _______ _______ _____ _____    ______ ____

>  <TORSDO>
F 8

$$$$
=
 OpenBabel10252415103D

 34 38  0  0  1  0  0  0  0  0999 V2000
  188.8950  177.1420  146.0050 C   0  0  0  0  0  0  0  0  0  0  0  0
  186.7330  178.1500  145.6200 C   0  0  0  0  0  0  0  0  0  0  0  0
  188.0710  177.3460  143.6800 N   0  0  0  0  0  0  0  0  0  0  0  0
  187.2360  178.0230  141.3590 C   0  0  2  0  0  3  0  0  0  0  0  0
  187.5880  177.9310  147.8140 C   0  0  0  0  0  3  0  0  0  0  0  0
  186.6070  178.3250  146.9610 N   0  0  0  0  0  0  0  0  0  0  0  0
  186.1560  178.8210  143.3150 C   0  0  2  0  0  3  0  0  0  0  0  0
  187.8950  177.5370  145.1030 C   0  0  0  0  0  0  0  0  0  0  0  0
  185.9610  178.7540  140.9200 C   0  0  0  0  0  2  0  0  0  0  0  0
  188.7150  177.3400  147.3360 N   0  0  0  0  0  0  0  0  0  0  0  0
  190.3920  176.6700  144.0430 C   0  0  0  0  0  2  0  0  0  0  0  0
  190.1120  176.4060  145.5230 C   0  0  0  0  0  2  0  0  0  0  0  0
  185.6020  178.5540  144.7100 C   0  0  0  0  0  2  0  0  0  0  0  0
  185.1920  179.1540  142.1880 C   0  0  1  0  0  3  0  0  0  0  0  0
  186.9310  177.6370  142.8040 C   0  0  2  0  0  3  0  0  0  0  0  0
  189.1260  176.4440  143.2240 C   0  0  0  0  0  2  0  0  0  0  0  0
  183.2270  178.4420  143.3330 O   0  0  0  0  0  0  0  0  0  0  0  0
  183.9140  178.3740  142.2790 C   0  0  0  0  0  0  0  0  0  0  0  0
  183.5150  177.5540  141.2200 O   0  0  0  0  0  0  0  0  0  0  0  0
  182.2450  177.6830  140.5930 C   0  0  0  0  0  2  0  0  0  0  0  0
  181.9760  179.1430  140.2320 C   0  0  0  0  0  2  0  0  0  0  0  0
  183.0770  178.3150  138.1810 C   0  0  0  0  0  1  0  0  0  0  0  0
  181.5660  180.2550  138.0260 C   0  0  0  0  0  1  0  0  0  0  0  0
  182.5950  179.5590  138.8980 C   0  0  0  0  0  0  0  0  0  0  0  0
  183.6820  180.4090  139.1040 O   0  0  0  0  0  1  0  0  0  0  0  0
  188.4030  178.9990  141.2510 C   0  0  0  0  0  2  0  0  0  0  0  0
  188.7340  179.2120  139.8840 O   0  0  0  0  0  0  0  0  0  0  0  0
  190.6600  175.6770  137.9100 C   0  0  0  0  0  3  0  0  0  0  0  0
  191.1220  176.4450  138.8940 C   0  0  0  0  0  3  0  0  0  0  0  0
  189.3570  178.2490  139.0850 C   0  0  0  0  0  0  0  0  0  0  0  0
  190.3520  177.4930  139.5920 C   0  0  0  0  0  3  0  0  0  0  0  0
  188.8870  177.0770  136.9220 C   0  0  0  0  0  3  0  0  0  0  0  0
  188.9100  178.1740  137.6790 C   0  0  0  0  0  3  0  0  0  0  0  0
  189.2460  175.7240  137.4370 C   0  0  0  0  0  2  0  0  0  0  0  0
  1 10  1  0  0  0  0
  2  6  2  0  0  0  0
  3  8  1  0  0  0  0
  4 26  1  1  0  0  0
  4 15  1  0  0  0  0
  6  5  1  0  0  0  0
  7 13  1  1  0  0  0
  8  2  1  0  0  0  0
  8  1  2  0  0  0  0
  9  4  1  0  0  0  0
  9 14  1  0  0  0  0
 10  5  2  0  0  0  0
 11 12  1  0  0  0  0
 12  1  1  0  0  0  0
 13  2  1  0  0  0  0
 14 18  1  1  0  0  0
 14  7  1  0  0  0  0
 15  7  1  0  0  0  0
 15  3  1  1  0  0  0
 16  3  1  0  0  0  0
 16 11  1  0  0  0  0
 18 17  2  0  0  0  0
 19 18  1  0  0  0  0
 20 19  1  0  0  0  0
 21 20  1  0  0  0  0
 22 24  1  0  0  0  0
 23 24  1  0  0  0  0
 24 25  1  0  0  0  0
 24 21  1  0  0  0  0
 27 26  1  0  0  0  0
 28 29  2  0  0  0  0
 29 31  1  0  0  0  0
 30 31  2  0  0  0  0
 30 27  1  0  0  0  0
 32 34  1  0  0  0  0
 32 33  2  0  0  0  0
 33 30  1  0  0  0  0
 34 28  1  0  0  0  0
M  END
>  <MODEL>
9

>  <REMARK>
 VINA RESULT:      -7.8      2.264      6.315
  Name = 
  8 active torsions:
  status: ('A' for Active; 'I' for Inactive)
    1  A    between atoms: C_5  and  C_26
    2  A    between atoms: C_12  and  O_28
    3  A    between atoms: O_13  and  C_17
    4  A    between atoms: O_13  and  C_33
    5  A    between atoms: C_17  and  C_29
    6  A    between atoms: C_20  and  C_34
    7  A    between atoms: C_26  and  O_28
    8  A    between atoms: C_33  and  C_34
                            x       y       z     vdW  Elec       q    Type
                         _______ _______ _______ _____ _____    ______ ____

>  <TORSDO>
F 8

$$$$
