=
 OpenBabel10262422573D

 37 40  0  0  1  0  0  0  0  0999 V2000
  180.2430  177.2580  139.4800 N   0  0  0  0  0  2  0  0  0  0  0  0
  182.5110  180.1630  138.7130 C   0  0  0  0  0  2  0  0  0  0  0  0
  181.5020  174.2330  137.5810 C   0  0  0  0  0  3  0  0  0  0  0  0
  181.5530  177.6750  139.9750 C   0  0  2  0  0  3  0  0  0  0  0  0
  181.4540  175.4750  138.2380 C   0  0  0  0  0  0  0  0  0  0  0  0
  181.4630  179.0160  140.7090 C   0  0  2  0  0  3  0  0  0  0  0  0
  178.9720  175.5270  138.3600 C   0  0  0  0  0  1  0  0  0  0  0  0
  182.5710  176.3400  138.1370 C   0  0  0  0  0  0  0  0  0  0  0  0
  183.7030  174.7370  136.7140 C   0  0  0  0  0  3  0  0  0  0  0  0
  180.2580  175.8280  139.1210 C   0  0  2  0  0  0  0  0  0  0  0  0
  183.6830  175.9680  137.3730 C   0  0  0  0  0  3  0  0  0  0  0  0
  181.3890  180.2100  139.7510 C   0  0  0  0  0  2  0  0  0  0  0  0
  182.5710  177.6750  138.8250 C   0  0  1  0  0  3  0  0  0  0  0  0
  182.6130  173.8710  136.8140 C   0  0  0  0  0  0  0  0  0  0  0  0
  182.4210  178.8850  137.8690 C   0  0  1  0  0  3  0  0  0  0  0  0
  182.6490  172.5490  136.1290 C   0  0  0  0  0  2  0  0  0  0  0  0
  183.4560  171.5590  136.9480 C   0  0  0  0  0  1  0  0  0  0  0  0
  178.9320  174.4510  140.8070 C   0  0  0  0  0  1  0  0  0  0  0  0
  180.3060  174.9630  140.3910 C   0  0  0  0  0  2  0  0  0  0  0  0
  181.1400  178.8640  136.9940 C   0  0  2  0  0  3  0  0  0  0  0  0
  181.4370  178.6820  135.5060 C   0  0  0  0  0  2  0  0  0  0  0  0
  179.7890  177.0680  135.1740 C   0  0  0  0  0  1  0  0  0  0  0  0
  181.2210  177.2970  135.1280 N   0  0  0  0  0  2  0  0  0  0  0  0
  180.2630  180.0220  137.2280 N   0  0  0  0  0  2  0  0  0  0  0  0
  180.2480  180.9270  136.0760 C   0  0  0  0  0  2  0  0  0  0  0  0
  179.5060  182.2160  136.4020 C   0  0  0  0  0  2  0  0  0  0  0  0
  181.1660  184.3070  136.2800 C   0  0  0  0  0  3  0  0  0  0  0  0
  180.4140  183.3650  136.3350 C   0  0  0  0  0  0  0  0  0  0  0  0
  182.6150  179.1560  141.6960 C   0  0  0  0  0  2  0  0  0  0  0  0
  182.0330  178.9340  143.4110 S   0  0  0  0  0  0  0  0  0  0  0  0
  184.7100  178.2410  143.2180 C   0  0  0  0  0  3  0  0  0  0  0  0
  183.6840  178.6810  144.0590 C   0  0  0  0  0  0  0  0  0  0  0  0
  183.9460  178.9250  145.4110 C   0  0  0  0  0  3  0  0  0  0  0  0
  185.4800  178.9520  147.2350 F   0  0  0  0  0  0  0  0  0  0  0  0
  186.2540  178.2740  145.0850 C   0  0  0  0  0  3  0  0  0  0  0  0
  185.2300  178.7210  145.9240 C   0  0  0  0  0  0  0  0  0  0  0  0
  185.9940  178.0360  143.7320 C   0  0  0  0  0  3  0  0  0  0  0  0
  2 12  1  0  0  0  0
  3  5  1  0  0  0  0
  4  1  1  6  0  0  0
  4  6  1  0  0  0  0
  5 10  1  0  0  0  0
  6 29  1  1  0  0  0
  8  5  2  0  0  0  0
  9 14  1  0  0  0  0
  9 11  2  0  0  0  0
 10  7  1  6  0  0  0
 10  1  1  0  0  0  0
 10 19  1  0  0  0  0
 11  8  1  0  0  0  0
 12  6  1  0  0  0  0
 13  8  1  6  0  0  0
 13  4  1  0  0  0  0
 14  3  2  0  0  0  0
 15 20  1  1  0  0  0
 15  2  1  0  0  0  0
 15 13  1  0  0  0  0
 16 14  1  0  0  0  0
 16 17  1  0  0  0  0
 19 18  1  0  0  0  0
 20 21  1  6  0  0  0
 20 24  1  0  0  0  0
 23 22  1  0  0  0  0
 23 21  1  0  0  0  0
 25 26  1  0  0  0  0
 25 24  1  0  0  0  0
 27 28  3  0  0  0  0
 28 26  1  0  0  0  0
 29 30  1  0  0  0  0
 30 32  1  0  0  0  0
 31 37  2  0  0  0  0
 31 32  1  0  0  0  0
 32 33  2  0  0  0  0
 33 36  1  0  0  0  0
 35 36  2  0  0  0  0
 36 34  1  0  0  0  0
 37 35  1  0  0  0  0
M  END
>  <MODEL>
1

>  <REMARK>
 VINA RESULT:      -5.6      0.000      0.000
  Name = 
  12 active torsions:
  status: ('A' for Active; 'I' for Inactive)
    1  A    between atoms: C_1  and  C_5
    2  A    between atoms: C_1  and  N_33
    3  A    between atoms: C_1  and  C_36
    4  A    between atoms: C_3  and  C_32
    5  A    between atoms: C_5  and  N_23
    6  A    between atoms: C_6  and  S_31
    7  A    between atoms: C_14  and  C_37
    8  A    between atoms: C_17  and  C_26
    9  A    between atoms: C_17  and  N_33
   10  A    between atoms: C_24  and  C_28
   11  A    between atoms: C_26  and  C_34
   12  A    between atoms: S_31  and  C_37
                            x       y       z     vdW  Elec       q    Type
                         _______ _______ _______ _____ _____    ______ ____

>  <TORSDO>
F 12

$$$$
=
 OpenBabel10262422573D

 37 40  0  0  1  0  0  0  0  0999 V2000
  189.7490  177.0520  136.6190 N   0  0  0  0  0  2  0  0  0  0  0  0
  192.5990  175.1540  138.1840 C   0  0  0  0  0  2  0  0  0  0  0  0
  187.1880  174.5500  135.3850 C   0  0  0  0  0  3  0  0  0  0  0  0
  189.9490  176.4250  137.9230 C   0  0  2  0  0  3  0  0  0  0  0  0
  188.2380  175.1430  136.1080 C   0  0  0  0  0  0  0  0  0  0  0  0
  191.0800  177.1100  138.6960 C   0  0  2  0  0  3  0  0  0  0  0  0
  188.4220  177.1060  134.5940 C   0  0  0  0  0  1  0  0  0  0  0  0
  189.0270  174.3270  136.9530 C   0  0  0  0  0  0  0  0  0  0  0  0
  187.7390  172.3790  136.2990 C   0  0  0  0  0  3  0  0  0  0  0  0
  188.4480  176.6550  136.0500 C   0  0  2  0  0  0  0  0  0  0  0  0
  188.7760  172.9520  137.0380 C   0  0  0  0  0  3  0  0  0  0  0  0
  192.4690  176.6770  138.2190 C   0  0  0  0  0  2  0  0  0  0  0  0
  190.1570  174.9130  137.7500 C   0  0  1  0  0  3  0  0  0  0  0  0
  186.9470  173.1760  135.4700 C   0  0  0  0  0  0  0  0  0  0  0  0
  191.5670  174.5400  137.2270 C   0  0  1  0  0  3  0  0  0  0  0  0
  185.8270  172.5650  134.7020 C   0  0  0  0  0  2  0  0  0  0  0  0
  185.8210  171.0610  134.8960 C   0  0  0  0  0  1  0  0  0  0  0  0
  187.1690  178.8220  136.4600 C   0  0  0  0  0  1  0  0  0  0  0  0
  187.3040  177.3450  136.8100 C   0  0  0  0  0  2  0  0  0  0  0  0
  191.8390  174.9440  135.7540 C   0  0  2  0  0  3  0  0  0  0  0  0
  191.9970  173.7400  134.8260 C   0  0  0  0  0  2  0  0  0  0  0  0
  193.2970  171.9030  135.4320 C   0  0  0  0  0  1  0  0  0  0  0  0
  191.9920  172.5150  135.6060 N   0  0  0  0  0  2  0  0  0  0  0  0
  192.9640  175.8820  135.6120 N   0  0  0  0  0  2  0  0  0  0  0  0
  193.9190  175.4260  134.5990 C   0  0  0  0  0  2  0  0  0  0  0  0
  195.3530  175.6500  135.0590 C   0  0  0  0  0  2  0  0  0  0  0  0
  195.9410  174.0620  137.1260 C   0  0  0  0  0  3  0  0  0  0  0  0
  195.6730  174.7810  136.1950 C   0  0  0  0  0  0  0  0  0  0  0  0
  190.9040  176.8900  140.1940 C   0  0  0  0  0  2  0  0  0  0  0  0
  189.1870  177.2310  140.7050 S   0  0  0  0  0  0  0  0  0  0  0  0
  190.7710  176.5850  142.8860 C   0  0  0  0  0  3  0  0  0  0  0  0
  189.5730  177.1610  142.4530 C   0  0  0  0  0  0  0  0  0  0  0  0
  188.6720  177.6840  143.3860 C   0  0  0  0  0  3  0  0  0  0  0  0
  188.0880  178.1250  145.6540 F   0  0  0  0  0  0  0  0  0  0  0  0
  190.1580  177.0420  145.1850 C   0  0  0  0  0  3  0  0  0  0  0  0
  188.9640  177.6240  144.7520 C   0  0  0  0  0  0  0  0  0  0  0  0
  191.0620  176.5240  144.2530 C   0  0  0  0  0  3  0  0  0  0  0  0
  2 12  1  0  0  0  0
  3 14  2  0  0  0  0
  3  5  1  0  0  0  0
  4  1  1  6  0  0  0
  4  6  1  0  0  0  0
  5  8  2  0  0  0  0
  6 29  1  1  0  0  0
  8 11  1  0  0  0  0
  9 11  2  0  0  0  0
 10  7  1  6  0  0  0
 10  5  1  0  0  0  0
 10  1  1  0  0  0  0
 10 19  1  0  0  0  0
 12  6  1  0  0  0  0
 13  8  1  6  0  0  0
 13  4  1  0  0  0  0
 14  9  1  0  0  0  0
 15 20  1  6  0  0  0
 15 13  1  0  0  0  0
 15  2  1  0  0  0  0
 16 17  1  0  0  0  0
 16 14  1  0  0  0  0
 18 19  1  0  0  0  0
 20 21  1  6  0  0  0
 21 23  1  0  0  0  0
 22 23  1  0  0  0  0
 24 20  1  0  0  0  0
 25 26  1  0  0  0  0
 25 24  1  0  0  0  0
 26 28  1  0  0  0  0
 28 27  3  0  0  0  0
 29 30  1  0  0  0  0
 30 32  1  0  0  0  0
 31 37  1  0  0  0  0
 32 31  2  0  0  0  0
 32 33  1  0  0  0  0
 33 36  2  0  0  0  0
 36 35  1  0  0  0  0
 36 34  1  0  0  0  0
 37 35  2  0  0  0  0
M  END
>  <MODEL>
2

>  <REMARK>
 VINA RESULT:      -5.5      7.238      9.809
  Name = 
  12 active torsions:
  status: ('A' for Active; 'I' for Inactive)
    1  A    between atoms: C_1  and  C_5
    2  A    between atoms: C_1  and  N_33
    3  A    between atoms: C_1  and  C_36
    4  A    between atoms: C_3  and  C_32
    5  A    between atoms: C_5  and  N_23
    6  A    between atoms: C_6  and  S_31
    7  A    between atoms: C_14  and  C_37
    8  A    between atoms: C_17  and  C_26
    9  A    between atoms: C_17  and  N_33
   10  A    between atoms: C_24  and  C_28
   11  A    between atoms: C_26  and  C_34
   12  A    between atoms: S_31  and  C_37
                            x       y       z     vdW  Elec       q    Type
                         _______ _______ _______ _____ _____    ______ ____

>  <TORSDO>
F 12

$$$$
=
 OpenBabel10262422573D

 37 40  0  0  1  0  0  0  0  0999 V2000
  187.7660  177.2490  136.6580 N   0  0  0  0  0  2  0  0  0  0  0  0
  190.8740  175.6340  138.0370 C   0  0  0  0  0  2  0  0  0  0  0  0
  185.3960  174.5130  135.5460 C   0  0  0  0  0  3  0  0  0  0  0  0
  188.1020  176.6380  137.9420 C   0  0  2  0  0  3  0  0  0  0  0  0
  186.4230  175.2030  136.2130 C   0  0  0  0  0  0  0  0  0  0  0  0
  189.2030  177.4270  138.6570 C   0  0  2  0  0  3  0  0  0  0  0  0
  186.3250  177.1820  134.7130 C   0  0  0  0  0  1  0  0  0  0  0  0
  187.3370  174.4640  137.0030 C   0  0  0  0  0  0  0  0  0  0  0  0
  186.2100  172.4020  136.4020 C   0  0  0  0  0  3  0  0  0  0  0  0
  186.4790  176.7290  136.1600 C   0  0  2  0  0  0  0  0  0  0  0  0
  187.2270  173.0710  137.0870 C   0  0  0  0  0  3  0  0  0  0  0  0
  190.5980  177.1360  138.0960 C   0  0  0  0  0  2  0  0  0  0  0  0
  188.4470  175.1550  137.7410 C   0  0  1  0  0  3  0  0  0  0  0  0
  185.2970  173.1210  135.6290 C   0  0  0  0  0  0  0  0  0  0  0  0
  189.8550  174.9260  137.1340 C   0  0  1  0  0  3  0  0  0  0  0  0
  184.2000  172.4070  134.9190 C   0  0  0  0  0  2  0  0  0  0  0  0
  183.0670  172.1030  135.8810 C   0  0  0  0  0  1  0  0  0  0  0  0
  183.9880  177.2600  136.2520 C   0  0  0  0  0  1  0  0  0  0  0  0
  185.3190  177.2990  136.9920 C   0  0  0  0  0  2  0  0  0  0  0  0
  189.9990  175.3620  135.6530 C   0  0  2  0  0  3  0  0  0  0  0  0
  190.0940  174.1790  134.6900 C   0  0  0  0  0  2  0  0  0  0  0  0
  189.8330  171.8690  134.8500 C   0  0  0  0  0  1  0  0  0  0  0  0
  190.5530  173.0010  135.4040 N   0  0  0  0  0  2  0  0  0  0  0  0
  191.0990  176.3170  135.4380 N   0  0  0  0  0  2  0  0  0  0  0  0
  192.1500  175.7450  134.5940 C   0  0  0  0  0  2  0  0  0  0  0  0
  193.5260  176.2250  135.0340 C   0  0  0  0  0  2  0  0  0  0  0  0
  194.4740  174.6810  136.9970 C   0  0  0  0  0  3  0  0  0  0  0  0
  194.0480  175.3810  136.1120 C   0  0  0  0  0  0  0  0  0  0  0  0
  189.1360  177.1830  140.1590 C   0  0  0  0  0  2  0  0  0  0  0  0
  187.9170  178.2890  140.9450 S   0  0  0  0  0  0  0  0  0  0  0  0
  187.6210  177.5630  143.6040 C   0  0  0  0  0  3  0  0  0  0  0  0
  188.5130  177.9560  142.6010 C   0  0  0  0  0  0  0  0  0  0  0  0
  189.8750  178.0890  142.8920 C   0  0  0  0  0  3  0  0  0  0  0  0
  191.6610  177.9750  144.4660 F   0  0  0  0  0  0  0  0  0  0  0  0
  189.4500  177.4540  145.1880 C   0  0  0  0  0  3  0  0  0  0  0  0
  190.3430  177.8390  144.1850 C   0  0  0  0  0  0  0  0  0  0  0  0
  188.0910  177.3140  144.8980 C   0  0  0  0  0  3  0  0  0  0  0  0
  2 12  1  0  0  0  0
  3 14  2  0  0  0  0
  3  5  1  0  0  0  0
  4  1  1  6  0  0  0
  4  6  1  0  0  0  0
  5  8  2  0  0  0  0
  6 29  1  1  0  0  0
  8 11  1  0  0  0  0
  9 11  2  0  0  0  0
 10  7  1  6  0  0  0
 10  5  1  0  0  0  0
 10  1  1  0  0  0  0
 10 19  1  0  0  0  0
 12  6  1  0  0  0  0
 13  8  1  6  0  0  0
 13  4  1  0  0  0  0
 14  9  1  0  0  0  0
 15 20  1  6  0  0  0
 15 13  1  0  0  0  0
 15  2  1  0  0  0  0
 16 14  1  0  0  0  0
 16 17  1  0  0  0  0
 18 19  1  0  0  0  0
 20 21  1  6  0  0  0
 21 23  1  0  0  0  0
 22 23  1  0  0  0  0
 24 20  1  0  0  0  0
 25 26  1  0  0  0  0
 25 24  1  0  0  0  0
 26 28  1  0  0  0  0
 28 27  3  0  0  0  0
 29 30  1  0  0  0  0
 30 32  1  0  0  0  0
 31 37  1  0  0  0  0
 32 33  1  0  0  0  0
 32 31  2  0  0  0  0
 33 36  2  0  0  0  0
 36 34  1  0  0  0  0
 36 35  1  0  0  0  0
 37 35  2  0  0  0  0
M  END
>  <MODEL>
3

>  <REMARK>
 VINA RESULT:      -5.2      5.847      8.320
  Name = 
  12 active torsions:
  status: ('A' for Active; 'I' for Inactive)
    1  A    between atoms: C_1  and  C_5
    2  A    between atoms: C_1  and  N_33
    3  A    between atoms: C_1  and  C_36
    4  A    between atoms: C_3  and  C_32
    5  A    between atoms: C_5  and  N_23
    6  A    between atoms: C_6  and  S_31
    7  A    between atoms: C_14  and  C_37
    8  A    between atoms: C_17  and  C_26
    9  A    between atoms: C_17  and  N_33
   10  A    between atoms: C_24  and  C_28
   11  A    between atoms: C_26  and  C_34
   12  A    between atoms: S_31  and  C_37
                            x       y       z     vdW  Elec       q    Type
                         _______ _______ _______ _____ _____    ______ ____

>  <TORSDO>
F 12

$$$$
=
 OpenBabel10262422573D

 37 40  0  0  1  0  0  0  0  0999 V2000
  182.4300  179.5820  139.3700 N   0  0  0  0  0  2  0  0  0  0  0  0
  185.5520  177.6820  140.2750 C   0  0  0  0  0  2  0  0  0  0  0  0
  180.0990  177.2330  137.5300 C   0  0  0  0  0  3  0  0  0  0  0  0
  182.7680  178.6450  140.4390 C   0  0  2  0  0  3  0  0  0  0  0  0
  181.1140  177.7240  138.3700 C   0  0  0  0  0  0  0  0  0  0  0  0
  183.8560  179.2180  141.3520 C   0  0  2  0  0  3  0  0  0  0  0  0
  181.0000  180.0380  137.4700 C   0  0  0  0  0  1  0  0  0  0  0  0
  182.0330  176.8050  138.9330 C   0  0  0  0  0  0  0  0  0  0  0  0
  180.9340  174.9770  137.7800 C   0  0  0  0  0  3  0  0  0  0  0  0
  181.1530  179.2060  138.7380 C   0  0  2  0  0  0  0  0  0  0  0  0
  181.9400  175.4410  138.6300 C   0  0  0  0  0  3  0  0  0  0  0  0
  185.2570  179.1080  140.7430 C   0  0  0  0  0  2  0  0  0  0  0  0
  183.1320  177.2780  139.8410 C   0  0  1  0  0  3  0  0  0  0  0  0
  180.0160  175.8720  137.2260 C   0  0  0  0  0  0  0  0  0  0  0  0
  184.5450  177.2390  139.2050 C   0  0  1  0  0  3  0  0  0  0  0  0
  178.9310  175.3680  136.3390 C   0  0  0  0  0  2  0  0  0  0  0  0
  179.5230  174.6000  135.1730 C   0  0  0  0  0  1  0  0  0  0  0  0
  179.7830  181.0060  139.9140 C   0  0  0  0  0  1  0  0  0  0  0  0
  179.9820  179.5130  139.6850 C   0  0  0  0  0  2  0  0  0  0  0  0
  184.6910  178.0670  137.9020 C   0  0  2  0  0  3  0  0  0  0  0  0
  184.5510  177.2200  136.6380 C   0  0  0  0  0  2  0  0  0  0  0  0
  182.9940  176.5350  135.0440 C   0  0  0  0  0  1  0  0  0  0  0  0
  183.3860  177.6510  135.8850 N   0  0  0  0  0  2  0  0  0  0  0  0
  185.9190  178.8780  137.8690 N   0  0  0  0  0  2  0  0  0  0  0  0
  186.8960  178.3360  136.9220 C   0  0  0  0  0  2  0  0  0  0  0  0
  188.2870  178.8940  137.1920 C   0  0  0  0  0  2  0  0  0  0  0  0
  189.2160  178.0270  139.5420 C   0  0  0  0  0  3  0  0  0  0  0  0
  188.7930  178.4180  138.4830 C   0  0  0  0  0  0  0  0  0  0  0  0
  183.7860  178.5700  142.7290 C   0  0  0  0  0  2  0  0  0  0  0  0
  183.9920  179.8150  144.0450 S   0  0  0  0  0  0  0  0  0  0  0  0
  185.4960  179.0610  146.2490 C   0  0  0  0  0  3  0  0  0  0  0  0
  185.2780  178.8870  144.8790 C   0  0  0  0  0  0  0  0  0  0  0  0
  186.0660  177.9850  144.1560 C   0  0  0  0  0  3  0  0  0  0  0  0
  187.8420  176.3980  144.0960 F   0  0  0  0  0  0  0  0  0  0  0  0
  187.2990  177.4450  146.1670 C   0  0  0  0  0  3  0  0  0  0  0  0
  187.0770  177.2650  144.7990 C   0  0  0  0  0  0  0  0  0  0  0  0
  186.5080  178.3410  146.8920 C   0  0  0  0  0  3  0  0  0  0  0  0
  2 12  1  0  0  0  0
  3  5  1  0  0  0  0
  4  1  1  6  0  0  0
  4  6  1  0  0  0  0
  5 10  1  0  0  0  0
  5  8  2  0  0  0  0
  6 29  1  1  0  0  0
  9 11  2  0  0  0  0
 10  7  1  6  0  0  0
 10  1  1  0  0  0  0
 10 19  1  0  0  0  0
 11  8  1  0  0  0  0
 12  6  1  0  0  0  0
 13  8  1  6  0  0  0
 13  4  1  0  0  0  0
 14  3  2  0  0  0  0
 14  9  1  0  0  0  0
 15 20  1  6  0  0  0
 15 13  1  0  0  0  0
 15  2  1  0  0  0  0
 16 14  1  0  0  0  0
 17 16  1  0  0  0  0
 19 18  1  0  0  0  0
 20 21  1  6  0  0  0
 22 23  1  0  0  0  0
 23 21  1  0  0  0  0
 24 20  1  0  0  0  0
 25 26  1  0  0  0  0
 25 24  1  0  0  0  0
 26 28  1  0  0  0  0
 28 27  3  0  0  0  0
 29 30  1  0  0  0  0
 30 32  1  0  0  0  0
 31 37  1  0  0  0  0
 32 31  2  0  0  0  0
 33 36  2  0  0  0  0
 33 32  1  0  0  0  0
 34 36  1  0  0  0  0
 35 37  2  0  0  0  0
 36 35  1  0  0  0  0
M  END
>  <MODEL>
4

>  <REMARK>
 VINA RESULT:      -5.1      2.665      4.537
  Name = 
  12 active torsions:
  status: ('A' for Active; 'I' for Inactive)
    1  A    between atoms: C_1  and  C_5
    2  A    between atoms: C_1  and  N_33
    3  A    between atoms: C_1  and  C_36
    4  A    between atoms: C_3  and  C_32
    5  A    between atoms: C_5  and  N_23
    6  A    between atoms: C_6  and  S_31
    7  A    between atoms: C_14  and  C_37
    8  A    between atoms: C_17  and  C_26
    9  A    between atoms: C_17  and  N_33
   10  A    between atoms: C_24  and  C_28
   11  A    between atoms: C_26  and  C_34
   12  A    between atoms: S_31  and  C_37
                            x       y       z     vdW  Elec       q    Type
                         _______ _______ _______ _____ _____    ______ ____

>  <TORSDO>
F 12

$$$$
=
 OpenBabel10262422573D

 37 40  0  0  1  0  0  0  0  0999 V2000
  182.7190  178.8160  137.2700 N   0  0  0  0  0  2  0  0  0  0  0  0
  179.4860  178.7000  135.3440 C   0  0  0  0  0  2  0  0  0  0  0  0
  181.9050  178.7120  140.9680 C   0  0  0  0  0  3  0  0  0  0  0  0
  181.8070  177.7380  136.8900 C   0  0  2  0  0  3  0  0  0  0  0  0
  181.8140  178.5560  139.5730 C   0  0  0  0  0  0  0  0  0  0  0  0
  181.7510  177.5760  135.3690 C   0  0  2  0  0  3  0  0  0  0  0  0
  183.7710  180.0130  139.0940 C   0  0  0  0  0  1  0  0  0  0  0  0
  180.5770  178.1540  139.0140 C   0  0  0  0  0  0  0  0  0  0  0  0
  179.5730  178.1230  141.2200 C   0  0  0  0  0  3  0  0  0  0  0  0
  183.0580  178.7230  138.7020 C   0  0  2  0  0  0  0  0  0  0  0  0
  179.4660  177.9460  139.8390 C   0  0  0  0  0  3  0  0  0  0  0  0
  180.8670  178.6300  134.6930 C   0  0  0  0  0  2  0  0  0  0  0  0
  180.4300  177.9680  137.5310 C   0  0  1  0  0  3  0  0  0  0  0  0
  180.7900  178.5090  141.7850 C   0  0  0  0  0  0  0  0  0  0  0  0
  179.6000  179.0720  136.8290 C   0  0  1  0  0  3  0  0  0  0  0  0
  180.9050  178.6730  143.2610 C   0  0  0  0  0  2  0  0  0  0  0  0
  182.3370  178.9990  143.6400 C   0  0  0  0  0  1  0  0  0  0  0  0
  185.1750  177.5020  137.9780 C   0  0  0  0  0  1  0  0  0  0  0  0
  184.0000  177.5340  138.9480 C   0  0  0  0  0  2  0  0  0  0  0  0
  180.1450  180.5120  137.0200 C   0  0  2  0  0  3  0  0  0  0  0  0
  179.2890  181.3530  137.9660 C   0  0  0  0  0  2  0  0  0  0  0  0
  179.2850  181.6390  140.2790 C   0  0  0  0  0  1  0  0  0  0  0  0
  180.0960  181.8030  139.0870 N   0  0  0  0  0  2  0  0  0  0  0  0
  180.3810  181.2120  135.7470 N   0  0  0  0  0  2  0  0  0  0  0  0
  179.7510  182.5340  135.7350 C   0  0  0  0  0  2  0  0  0  0  0  0
  180.7500  183.6130  135.3430 C   0  0  0  0  0  2  0  0  0  0  0  0
  181.5360  185.0030  137.4870 C   0  0  0  0  0  3  0  0  0  0  0  0
  181.1810  184.3720  136.5210 C   0  0  0  0  0  0  0  0  0  0  0  0
  181.3190  176.1610  135.0050 C   0  0  0  0  0  2  0  0  0  0  0  0
  182.5760  174.9440  135.5200 S   0  0  0  0  0  0  0  0  0  0  0  0
  180.9850  172.6840  135.7310 C   0  0  0  0  0  3  0  0  0  0  0  0
  181.3820  173.8830  136.3310 C   0  0  0  0  0  0  0  0  0  0  0  0
  180.8440  174.2570  137.5670 C   0  0  0  0  0  3  0  0  0  0  0  0
  179.3810  173.8040  139.3930 F   0  0  0  0  0  0  0  0  0  0  0  0
  179.5030  172.2430  137.5970 C   0  0  0  0  0  3  0  0  0  0  0  0
  179.9040  173.4370  138.1990 C   0  0  0  0  0  0  0  0  0  0  0  0
  180.0440  171.8650  136.3640 C   0  0  0  0  0  3  0  0  0  0  0  0
  1 10  1  0  0  0  0
  2 15  1  0  0  0  0
  3 14  1  0  0  0  0
  4  1  1  6  0  0  0
  4 13  1  0  0  0  0
  5  3  2  0  0  0  0
  6 29  1  1  0  0  0
  6  4  1  0  0  0  0
  8  5  1  0  0  0  0
  8 11  2  0  0  0  0
  9 14  2  0  0  0  0
 10 19  1  0  0  0  0
 10  7  1  1  0  0  0
 10  5  1  0  0  0  0
 11  9  1  0  0  0  0
 12  2  1  0  0  0  0
 12  6  1  0  0  0  0
 13  8  1  1  0  0  0
 14 16  1  0  0  0  0
 15 20  1  6  0  0  0
 15 13  1  0  0  0  0
 16 17  1  0  0  0  0
 18 19  1  0  0  0  0
 20 21  1  1  0  0  0
 21 23  1  0  0  0  0
 23 22  1  0  0  0  0
 24 20  1  0  0  0  0
 25 24  1  0  0  0  0
 26 25  1  0  0  0  0
 26 28  1  0  0  0  0
 28 27  3  0  0  0  0
 29 30  1  0  0  0  0
 30 32  1  0  0  0  0
 31 32  2  0  0  0  0
 31 37  1  0  0  0  0
 32 33  1  0  0  0  0
 33 36  2  0  0  0  0
 35 36  1  0  0  0  0
 36 34  1  0  0  0  0
 37 35  2  0  0  0  0
M  END
>  <MODEL>
5

>  <REMARK>
 VINA RESULT:      -4.8      3.146      6.723
  Name = 
  12 active torsions:
  status: ('A' for Active; 'I' for Inactive)
    1  A    between atoms: C_1  and  C_5
    2  A    between atoms: C_1  and  N_33
    3  A    between atoms: C_1  and  C_36
    4  A    between atoms: C_3  and  C_32
    5  A    between atoms: C_5  and  N_23
    6  A    between atoms: C_6  and  S_31
    7  A    between atoms: C_14  and  C_37
    8  A    between atoms: C_17  and  C_26
    9  A    between atoms: C_17  and  N_33
   10  A    between atoms: C_24  and  C_28
   11  A    between atoms: C_26  and  C_34
   12  A    between atoms: S_31  and  C_37
                            x       y       z     vdW  Elec       q    Type
                         _______ _______ _______ _____ _____    ______ ____

>  <TORSDO>
F 12

$$$$
=
 OpenBabel10262422573D

 37 40  0  0  1  0  0  0  0  0999 V2000
  182.5540  178.5300  137.5300 N   0  0  0  0  0  2  0  0  0  0  0  0
  179.1920  177.6700  136.0700 C   0  0  0  0  0  2  0  0  0  0  0  0
  182.1740  178.8530  141.2840 C   0  0  0  0  0  3  0  0  0  0  0  0
  181.7910  177.2890  137.4120 C   0  0  2  0  0  3  0  0  0  0  0  0
  181.9580  178.4830  139.9450 C   0  0  0  0  0  0  0  0  0  0  0  0
  181.5960  176.8990  135.9440 C   0  0  2  0  0  3  0  0  0  0  0  0
  183.5920  180.1200  139.0330 C   0  0  0  0  0  1  0  0  0  0  0  0
  180.7480  177.8300  139.6060 C   0  0  0  0  0  0  0  0  0  0  0  0
  180.0070  177.9780  141.9100 C   0  0  0  0  0  3  0  0  0  0  0  0
  183.0570  178.6980  138.9050 C   0  0  2  0  0  0  0  0  0  0  0  0
  179.7810  177.5870  140.5890 C   0  0  0  0  0  3  0  0  0  0  0  0
  180.4880  177.7050  135.2600 C   0  0  0  0  0  2  0  0  0  0  0  0
  180.4730  177.4090  138.1910 C   0  0  1  0  0  3  0  0  0  0  0  0
  181.2010  178.6140  142.2580 C   0  0  0  0  0  0  0  0  0  0  0  0
  179.4050  178.2680  137.4670 C   0  0  1  0  0  3  0  0  0  0  0  0
  181.4480  179.0070  143.6730 C   0  0  0  0  0  2  0  0  0  0  0  0
  182.9350  178.9900  143.9680 C   0  0  0  0  0  1  0  0  0  0  0  0
  185.3890  177.9050  138.2470 C   0  0  0  0  0  1  0  0  0  0  0  0
  184.1990  177.7050  139.1770 C   0  0  0  0  0  2  0  0  0  0  0  0
  179.7300  179.7830  137.4000 C   0  0  2  0  0  3  0  0  0  0  0  0
  178.9510  180.6060  138.4260 C   0  0  0  0  0  2  0  0  0  0  0  0
  179.2760  181.3820  140.5990 C   0  0  0  0  0  1  0  0  0  0  0  0
  179.8780  181.3300  139.2800 N   0  0  0  0  0  2  0  0  0  0  0  0
  179.5890  180.3430  136.0460 N   0  0  0  0  0  2  0  0  0  0  0  0
  180.6650  181.2890  135.7400 C   0  0  0  0  0  2  0  0  0  0  0  0
  180.1060  182.5990  135.2020 C   0  0  0  0  0  2  0  0  0  0  0  0
  181.1850  184.6840  136.4790 C   0  0  0  0  0  3  0  0  0  0  0  0
  180.6970  183.7410  135.9060 C   0  0  0  0  0  0  0  0  0  0  0  0
  181.3600  175.3990  135.8230 C   0  0  0  0  0  2  0  0  0  0  0  0
  181.6510  174.5640  137.4190 S   0  0  0  0  0  0  0  0  0  0  0  0
  183.0360  173.0730  135.5370 C   0  0  0  0  0  3  0  0  0  0  0  0
  183.0650  173.6470  136.8110 C   0  0  0  0  0  0  0  0  0  0  0  0
  184.2010  173.5050  137.6140 C   0  0  0  0  0  3  0  0  0  0  0  0
  186.3990  172.6410  137.9310 F   0  0  0  0  0  0  0  0  0  0  0  0
  185.2710  172.2030  135.8780 C   0  0  0  0  0  3  0  0  0  0  0  0
  185.3030  172.7830  137.1490 C   0  0  0  0  0  0  0  0  0  0  0  0
  184.1390  172.3500  135.0710 C   0  0  0  0  0  3  0  0  0  0  0  0
  1 10  1  0  0  0  0
  2 15  1  0  0  0  0
  3 14  1  0  0  0  0
  4  1  1  6  0  0  0
  4 13  1  0  0  0  0
  5  3  2  0  0  0  0
  6 29  1  1  0  0  0
  6  4  1  0  0  0  0
  8  5  1  0  0  0  0
  8 11  2  0  0  0  0
  9 14  2  0  0  0  0
 10  7  1  1  0  0  0
 10 19  1  0  0  0  0
 10  5  1  0  0  0  0
 11  9  1  0  0  0  0
 12  6  1  0  0  0  0
 12  2  1  0  0  0  0
 13  8  1  1  0  0  0
 14 16  1  0  0  0  0
 15 20  1  6  0  0  0
 15 13  1  0  0  0  0
 16 17  1  0  0  0  0
 18 19  1  0  0  0  0
 20 21  1  1  0  0  0
 21 23  1  0  0  0  0
 23 22  1  0  0  0  0
 24 20  1  0  0  0  0
 25 24  1  0  0  0  0
 26 25  1  0  0  0  0
 26 28  1  0  0  0  0
 28 27  3  0  0  0  0
 29 30  1  0  0  0  0
 31 32  1  0  0  0  0
 32 30  1  0  0  0  0
 32 33  2  0  0  0  0
 35 36  2  0  0  0  0
 36 33  1  0  0  0  0
 36 34  1  0  0  0  0
 37 31  2  0  0  0  0
 37 35  1  0  0  0  0
M  END
>  <MODEL>
6

>  <REMARK>
 VINA RESULT:      -4.8      2.903      6.561
  Name = 
  12 active torsions:
  status: ('A' for Active; 'I' for Inactive)
    1  A    between atoms: C_1  and  C_5
    2  A    between atoms: C_1  and  N_33
    3  A    between atoms: C_1  and  C_36
    4  A    between atoms: C_3  and  C_32
    5  A    between atoms: C_5  and  N_23
    6  A    between atoms: C_6  and  S_31
    7  A    between atoms: C_14  and  C_37
    8  A    between atoms: C_17  and  C_26
    9  A    between atoms: C_17  and  N_33
   10  A    between atoms: C_24  and  C_28
   11  A    between atoms: C_26  and  C_34
   12  A    between atoms: S_31  and  C_37
                            x       y       z     vdW  Elec       q    Type
                         _______ _______ _______ _____ _____    ______ ____

>  <TORSDO>
F 12

$$$$
=
 OpenBabel10262422573D

 37 40  0  0  1  0  0  0  0  0999 V2000
  182.5740  179.5150  141.3600 N   0  0  0  0  0  2  0  0  0  0  0  0
  186.0930  178.3330  140.7350 C   0  0  0  0  0  2  0  0  0  0  0  0
  180.1940  177.1550  139.5970 C   0  0  0  0  0  3  0  0  0  0  0  0
  183.4070  178.4690  141.9490 C   0  0  2  0  0  3  0  0  0  0  0  0
  181.3340  177.6760  140.2340 C   0  0  0  0  0  0  0  0  0  0  0  0
  184.6250  179.0690  142.6580 C   0  0  2  0  0  3  0  0  0  0  0  0
  180.5300  180.0270  140.1670 C   0  0  0  0  0  1  0  0  0  0  0  0
  182.5320  176.9200  140.2080 C   0  0  0  0  0  0  0  0  0  0  0  0
  181.4370  175.2020  138.8930 C   0  0  0  0  0  3  0  0  0  0  0  0
  181.2420  178.9830  141.0190 C   0  0  2  0  0  0  0  0  0  0  0  0
  182.5760  175.6940  139.5350 C   0  0  0  0  0  3  0  0  0  0  0  0
  185.7350  179.4770  141.6840 C   0  0  0  0  0  2  0  0  0  0  0  0
  183.7750  177.4300  140.8790 C   0  0  1  0  0  3  0  0  0  0  0  0
  180.2480  175.9330  138.9200 C   0  0  0  0  0  0  0  0  0  0  0  0
  184.8750  177.9150  139.9000 C   0  0  1  0  0  3  0  0  0  0  0  0
  179.0290  175.3940  138.2550 C   0  0  0  0  0  2  0  0  0  0  0  0
  179.4180  174.3840  137.1930 C   0  0  0  0  0  1  0  0  0  0  0  0
  180.0970  180.0240  143.0450 C   0  0  0  0  0  1  0  0  0  0  0  0
  180.4260  178.7370  142.2990 C   0  0  0  0  0  2  0  0  0  0  0  0
  184.4280  179.0410  138.9320 C   0  0  2  0  0  3  0  0  0  0  0  0
  183.1140  178.7260  138.2180 C   0  0  0  0  0  2  0  0  0  0  0  0
  182.1040  177.8140  136.3260 C   0  0  0  0  0  1  0  0  0  0  0  0
  183.3890  178.1210  136.9260 N   0  0  0  0  0  2  0  0  0  0  0  0
  185.4780  179.4270  137.9750 N   0  0  0  0  0  2  0  0  0  0  0  0
  186.0960  178.2550  137.3520 C   0  0  0  0  0  2  0  0  0  0  0  0
  187.4780  178.5900  136.8080 C   0  0  0  0  0  2  0  0  0  0  0  0
  189.2950  178.5780  138.7680 C   0  0  0  0  0  3  0  0  0  0  0  0
  188.4730  178.5870  137.8850 C   0  0  0  0  0  0  0  0  0  0  0  0
  185.1360  178.1130  143.7280 C   0  0  0  0  0  2  0  0  0  0  0  0
  184.7850  178.7580  145.3980 S   0  0  0  0  0  0  0  0  0  0  0  0
  187.2860  177.5740  145.2370 C   0  0  0  0  0  3  0  0  0  0  0  0
  186.3530  178.2050  146.0650 C   0  0  0  0  0  0  0  0  0  0  0  0
  186.6440  178.4050  147.4180 C   0  0  0  0  0  3  0  0  0  0  0  0
  188.1380  178.1560  149.2580 F   0  0  0  0  0  0  0  0  0  0  0  0
  188.7910  177.3300  147.1200 C   0  0  0  0  0  3  0  0  0  0  0  0
  187.8620  177.9670  147.9460 C   0  0  0  0  0  0  0  0  0  0  0  0
  188.5040  177.1350  145.7660 C   0  0  0  0  0  3  0  0  0  0  0  0
  2 12  1  0  0  0  0
  3  5  1  0  0  0  0
  4  1  1  6  0  0  0
  4  6  1  0  0  0  0
  5 10  1  0  0  0  0
  6 29  1  1  0  0  0
  8  5  2  0  0  0  0
  9 14  1  0  0  0  0
  9 11  2  0  0  0  0
 10  7  1  6  0  0  0
 10  1  1  0  0  0  0
 10 19  1  0  0  0  0
 11  8  1  0  0  0  0
 12  6  1  0  0  0  0
 13  8  1  6  0  0  0
 13  4  1  0  0  0  0
 14  3  2  0  0  0  0
 15 20  1  1  0  0  0
 15  2  1  0  0  0  0
 15 13  1  0  0  0  0
 16 14  1  0  0  0  0
 17 16  1  0  0  0  0
 19 18  1  0  0  0  0
 20 21  1  6  0  0  0
 22 23  1  0  0  0  0
 23 21  1  0  0  0  0
 24 20  1  0  0  0  0
 25 24  1  0  0  0  0
 26 25  1  0  0  0  0
 26 28  1  0  0  0  0
 28 27  3  0  0  0  0
 29 30  1  0  0  0  0
 30 32  1  0  0  0  0
 31 37  2  0  0  0  0
 31 32  1  0  0  0  0
 32 33  2  0  0  0  0
 33 36  1  0  0  0  0
 35 36  2  0  0  0  0
 36 34  1  0  0  0  0
 37 35  1  0  0  0  0
M  END
>  <MODEL>
7

>  <REMARK>
 VINA RESULT:      -4.6      2.681      4.613
  Name = 
  12 active torsions:
  status: ('A' for Active; 'I' for Inactive)
    1  A    between atoms: C_1  and  C_5
    2  A    between atoms: C_1  and  N_33
    3  A    between atoms: C_1  and  C_36
    4  A    between atoms: C_3  and  C_32
    5  A    between atoms: C_5  and  N_23
    6  A    between atoms: C_6  and  S_31
    7  A    between atoms: C_14  and  C_37
    8  A    between atoms: C_17  and  C_26
    9  A    between atoms: C_17  and  N_33
   10  A    between atoms: C_24  and  C_28
   11  A    between atoms: C_26  and  C_34
   12  A    between atoms: S_31  and  C_37
                            x       y       z     vdW  Elec       q    Type
                         _______ _______ _______ _____ _____    ______ ____

>  <TORSDO>
F 12

$$$$
=
 OpenBabel10262422573D

 37 40  0  0  1  0  0  0  0  0999 V2000
  188.5960  178.0650  138.0400 N   0  0  0  0  0  2  0  0  0  0  0  0
  191.4730  175.8180  138.9630 C   0  0  0  0  0  2  0  0  0  0  0  0
  186.0780  176.0270  136.0790 C   0  0  0  0  0  3  0  0  0  0  0  0
  188.8040  177.0690  139.0890 C   0  0  2  0  0  3  0  0  0  0  0  0
  187.1170  176.3840  136.9560 C   0  0  0  0  0  0  0  0  0  0  0  0
  189.9230  177.4990  140.0430 C   0  0  2  0  0  3  0  0  0  0  0  0
  187.2730  178.7200  136.1210 C   0  0  0  0  0  1  0  0  0  0  0  0
  187.9180  175.3580  137.5140 C   0  0  0  0  0  0  0  0  0  0  0  0
  186.6620  173.6890  136.2840 C   0  0  0  0  0  3  0  0  0  0  0  0
  187.3030  177.8440  137.3680 C   0  0  2  0  0  0  0  0  0  0  0  0
  187.6880  174.0210  137.1700 C   0  0  0  0  0  3  0  0  0  0  0  0
  191.3200  177.2550  139.4650 C   0  0  0  0  0  2  0  0  0  0  0  0
  189.0360  175.6870  138.4610 C   0  0  1  0  0  3  0  0  0  0  0  0
  185.8590  174.6910  135.7350 C   0  0  0  0  0  0  0  0  0  0  0  0
  190.4530  175.5140  137.8580 C   0  0  1  0  0  3  0  0  0  0  0  0
  184.7500  174.3290  134.8090 C   0  0  0  0  0  2  0  0  0  0  0  0
  184.4170  172.8560  134.9420 C   0  0  0  0  0  1  0  0  0  0  0  0
  184.7830  178.1230  137.6300 C   0  0  0  0  0  1  0  0  0  0  0  0
  186.1470  178.2490  138.2960 C   0  0  0  0  0  2  0  0  0  0  0  0
  190.7210  176.3550  136.5820 C   0  0  2  0  0  3  0  0  0  0  0  0
  189.9210  175.8740  135.3720 C   0  0  0  0  0  2  0  0  0  0  0  0
  190.0350  173.6570  134.6600 C   0  0  0  0  0  1  0  0  0  0  0  0
  190.7180  174.9370  134.5990 N   0  0  0  0  0  2  0  0  0  0  0  0
  192.1530  176.4790  136.2630 N   0  0  0  0  0  2  0  0  0  0  0  0
  192.8780  175.2400  136.5560 C   0  0  0  0  0  2  0  0  0  0  0  0
  194.3660  175.5070  136.7370 C   0  0  0  0  0  2  0  0  0  0  0  0
  195.3690  173.9510  138.6630 C   0  0  0  0  0  3  0  0  0  0  0  0
  194.9200  174.6540  137.7920 C   0  0  0  0  0  0  0  0  0  0  0  0
  189.7480  176.8260  141.3990 C   0  0  0  0  0  2  0  0  0  0  0  0
  190.9280  177.4980  142.6160 S   0  0  0  0  0  0  0  0  0  0  0  0
  190.1520  177.5160  145.2770 C   0  0  0  0  0  3  0  0  0  0  0  0
  189.7270  177.5080  143.9450 C   0  0  0  0  0  0  0  0  0  0  0  0
  188.3600  177.5050  143.6500 C   0  0  0  0  0  3  0  0  0  0  0  0
  186.0960  177.4940  144.3940 F   0  0  0  0  0  0  0  0  0  0  0  0
  187.8440  177.5050  146.0140 C   0  0  0  0  0  3  0  0  0  0  0  0
  187.4190  177.5030  144.6830 C   0  0  0  0  0  0  0  0  0  0  0  0
  189.2100  177.5130  146.3110 C   0  0  0  0  0  3  0  0  0  0  0  0
  2 12  1  0  0  0  0
  3  5  1  0  0  0  0
  4  1  1  6  0  0  0
  4  6  1  0  0  0  0
  5 10  1  0  0  0  0
  5  8  2  0  0  0  0
  6 29  1  1  0  0  0
  9 11  2  0  0  0  0
 10  7  1  6  0  0  0
 10  1  1  0  0  0  0
 10 19  1  0  0  0  0
 11  8  1  0  0  0  0
 12  6  1  0  0  0  0
 13  8  1  6  0  0  0
 13  4  1  0  0  0  0
 14  3  2  0  0  0  0
 14  9  1  0  0  0  0
 15 20  1  6  0  0  0
 15 13  1  0  0  0  0
 15  2  1  0  0  0  0
 16 17  1  0  0  0  0
 16 14  1  0  0  0  0
 18 19  1  0  0  0  0
 20 21  1  6  0  0  0
 23 22  1  0  0  0  0
 23 21  1  0  0  0  0
 24 25  1  0  0  0  0
 24 20  1  0  0  0  0
 25 26  1  0  0  0  0
 26 28  1  0  0  0  0
 28 27  3  0  0  0  0
 29 30  1  0  0  0  0
 30 32  1  0  0  0  0
 31 37  1  0  0  0  0
 32 31  2  0  0  0  0
 33 32  1  0  0  0  0
 33 36  2  0  0  0  0
 34 36  1  0  0  0  0
 35 37  2  0  0  0  0
 36 35  1  0  0  0  0
M  END
>  <MODEL>
8

>  <REMARK>
 VINA RESULT:      -4.2      6.188      8.711
  Name = 
  12 active torsions:
  status: ('A' for Active; 'I' for Inactive)
    1  A    between atoms: C_1  and  C_5
    2  A    between atoms: C_1  and  N_33
    3  A    between atoms: C_1  and  C_36
    4  A    between atoms: C_3  and  C_32
    5  A    between atoms: C_5  and  N_23
    6  A    between atoms: C_6  and  S_31
    7  A    between atoms: C_14  and  C_37
    8  A    between atoms: C_17  and  C_26
    9  A    between atoms: C_17  and  N_33
   10  A    between atoms: C_24  and  C_28
   11  A    between atoms: C_26  and  C_34
   12  A    between atoms: S_31  and  C_37
                            x       y       z     vdW  Elec       q    Type
                         _______ _______ _______ _____ _____    ______ ____

>  <TORSDO>
F 12

$$$$
=
 OpenBabel10262422573D

 37 40  0  0  1  0  0  0  0  0999 V2000
  182.1520  177.3860  137.9280 N   0  0  0  0  0  2  0  0  0  0  0  0
  181.9070  175.4160  134.7290 C   0  0  0  0  0  2  0  0  0  0  0  0
  185.8070  178.1100  138.6020 C   0  0  0  0  0  3  0  0  0  0  0  0
  182.1900  177.7490  136.5130 C   0  0  2  0  0  3  0  0  0  0  0  0
  184.6030  177.8120  137.9410 C   0  0  0  0  0  0  0  0  0  0  0  0
  180.8560  177.4370  135.8280 C   0  0  2  0  0  3  0  0  0  0  0  0
  183.3370  177.3900  140.0390 C   0  0  0  0  0  1  0  0  0  0  0  0
  184.6540  177.4060  136.5860 C   0  0  0  0  0  0  0  0  0  0  0  0
  187.0730  177.5660  136.6140 C   0  0  0  0  0  3  0  0  0  0  0  0
  183.2670  178.0210  138.6530 C   0  0  2  0  0  0  0  0  0  0  0  0
  185.8870  177.2810  135.9350 C   0  0  0  0  0  3  0  0  0  0  0  0
  180.6960  175.9500  135.4950 C   0  0  0  0  0  2  0  0  0  0  0  0
  183.3950  177.0810  135.8340 C   0  0  1  0  0  3  0  0  0  0  0  0
  187.0350  177.9770  137.9480 C   0  0  0  0  0  0  0  0  0  0  0  0
  183.1880  175.5700  135.5590 C   0  0  1  0  0  3  0  0  0  0  0  0
  188.3010  178.3030  138.6610 C   0  0  0  0  0  2  0  0  0  0  0  0
  189.4900  178.0540  137.7540 C   0  0  0  0  0  1  0  0  0  0  0  0
  182.2440  179.8790  140.0680 C   0  0  0  0  0  1  0  0  0  0  0  0
  183.0140  179.5300  138.8000 C   0  0  0  0  0  2  0  0  0  0  0  0
  183.1620  174.6790  136.8280 C   0  0  2  0  0  3  0  0  0  0  0  0
  184.5580  174.2810  137.3070 C   0  0  0  0  0  2  0  0  0  0  0  0
  186.6280  173.4430  136.6420 C   0  0  0  0  0  1  0  0  0  0  0  0
  185.2240  173.4980  136.2810 N   0  0  0  0  0  2  0  0  0  0  0  0
  182.2890  173.5020  136.6880 N   0  0  0  0  0  2  0  0  0  0  0  0
  181.2970  173.4370  137.7640 C   0  0  0  0  0  2  0  0  0  0  0  0
  180.3800  172.2340  137.5900 C   0  0  0  0  0  2  0  0  0  0  0  0
  180.2350  171.5210  135.0190 C   0  0  0  0  0  3  0  0  0  0  0  0
  180.3040  171.8410  136.1800 C   0  0  0  0  0  0  0  0  0  0  0  0
  180.6780  178.3140  134.5950 C   0  0  0  0  0  2  0  0  0  0  0  0
  179.0510  179.1380  134.6110 S   0  0  0  0  0  0  0  0  0  0  0  0
  180.3820  181.5190  135.1010 C   0  0  0  0  0  3  0  0  0  0  0  0
  179.6160  180.4850  135.6480 C   0  0  0  0  0  0  0  0  0  0  0  0
  179.2910  180.5010  137.0080 C   0  0  0  0  0  3  0  0  0  0  0  0
  179.4260  181.5550  139.1410 F   0  0  0  0  0  0  0  0  0  0  0  0
  180.5090  182.5740  137.2780 C   0  0  0  0  0  3  0  0  0  0  0  0
  179.7370  181.5450  137.8230 C   0  0  0  0  0  0  0  0  0  0  0  0
  180.8300  182.5620  135.9180 C   0  0  0  0  0  3  0  0  0  0  0  0
  1 10  1  0  0  0  0
  2 12  1  0  0  0  0
  2 15  1  0  0  0  0
  4  1  1  1  0  0  0
  5  3  2  0  0  0  0
  5 10  1  0  0  0  0
  6 29  1  6  0  0  0
  6  4  1  0  0  0  0
  8  5  1  0  0  0  0
  9 14  2  0  0  0  0
 10 19  1  0  0  0  0
 10  7  1  1  0  0  0
 11  8  2  0  0  0  0
 11  9  1  0  0  0  0
 12  6  1  0  0  0  0
 13  4  1  0  0  0  0
 13  8  1  1  0  0  0
 14  3  1  0  0  0  0
 14 16  1  0  0  0  0
 15 13  1  0  0  0  0
 15 20  1  1  0  0  0
 17 16  1  0  0  0  0
 19 18  1  0  0  0  0
 20 21  1  6  0  0  0
 23 22  1  0  0  0  0
 23 21  1  0  0  0  0
 24 20  1  0  0  0  0
 24 25  1  0  0  0  0
 26 25  1  0  0  0  0
 27 28  3  0  0  0  0
 28 26  1  0  0  0  0
 29 30  1  0  0  0  0
 30 32  1  0  0  0  0
 31 32  2  0  0  0  0
 31 37  1  0  0  0  0
 32 33  1  0  0  0  0
 33 36  2  0  0  0  0
 35 36  1  0  0  0  0
 36 34  1  0  0  0  0
 37 35  2  0  0  0  0
M  END
>  <MODEL>
9

>  <REMARK>
 VINA RESULT:      -3.9      3.584      7.432
  Name = 
  12 active torsions:
  status: ('A' for Active; 'I' for Inactive)
    1  A    between atoms: C_1  and  C_5
    2  A    between atoms: C_1  and  N_33
    3  A    between atoms: C_1  and  C_36
    4  A    between atoms: C_3  and  C_32
    5  A    between atoms: C_5  and  N_23
    6  A    between atoms: C_6  and  S_31
    7  A    between atoms: C_14  and  C_37
    8  A    between atoms: C_17  and  C_26
    9  A    between atoms: C_17  and  N_33
   10  A    between atoms: C_24  and  C_28
   11  A    between atoms: C_26  and  C_34
   12  A    between atoms: S_31  and  C_37
                            x       y       z     vdW  Elec       q    Type
                         _______ _______ _______ _____ _____    ______ ____

>  <TORSDO>
F 12

$$$$
