=
 OpenBabel10262421283D

 32 36  0  0  1  0  0  0  0  0999 V2000
  184.2280  179.2620  139.7550 C   0  0  1  0  0  3  0  0  0  0  0  0
  186.9020  177.3280  143.0150 C   0  0  0  0  0  2  0  0  0  0  0  0
  189.9560  177.1830  138.1870 C   0  0  0  0  0  2  0  0  0  0  0  0
  190.8760  176.4100  139.1450 C   0  0  0  0  0  2  0  0  0  0  0  0
  184.7770  178.0290  141.9010 C   0  0  2  0  0  3  0  0  0  0  0  0
  186.5840  179.4120  140.6070 C   0  0  0  0  0  2  0  0  0  0  0  0
  184.4560  180.4210  139.0100 O   0  0  0  0  0  1  0  0  0  0  0  0
  188.5830  177.4670  138.7930 C   0  0  0  0  0  2  0  0  0  0  0  0
  187.4590  178.1990  140.8960 C   0  0  1  0  0  3  0  0  0  0  0  0
  188.7350  178.2640  140.0910 C   0  0  1  0  0  3  0  0  0  0  0  0
  189.1560  177.6030  142.3810 C   0  0  2  0  0  3  0  0  0  0  0  0
  182.4360  177.9680  140.9710 C   0  0  1  0  0  3  0  0  0  0  0  0
  185.1040  179.2590  141.0160 C   0  0  1  0  0  3  0  0  0  0  0  0
  183.2880  177.9880  142.2360 C   0  0  0  0  0  2  0  0  0  0  0  0
  182.7450  179.1950  140.1150 C   0  0  0  0  0  2  0  0  0  0  0  0
  190.3580  176.3610  140.5860 C   0  0  0  0  0  2  0  0  0  0  0  0
  189.8210  177.7260  141.0230 C   0  0  1  0  0  3  0  0  0  0  0  0
  185.5620  178.0260  143.2060 C   0  0  0  0  0  2  0  0  0  0  0  0
  187.8270  178.2020  142.3060 N   0  0  2  0  0  0  0  0  0  0  0  0
  182.6650  176.7660  140.2430 O   0  0  0  0  0  0  0  0  0  0  0  0
  181.6500  176.1260  139.5310 C   0  0  0  0  0  0  0  0  0  0  0  0
  181.9490  175.2710  138.4770 O   0  0  0  0  0  0  0  0  0  0  0  0
  180.4480  176.3280  139.8440 O   0  0  0  0  0  1  0  0  0  0  0  0
  190.0080  178.2180  143.5050 C   0  0  0  0  0  2  0  0  0  0  0  0
  189.3300  177.9850  145.9450 C   0  0  0  0  0  2  0  0  0  0  0  0
  189.3330  177.0110  147.1230 C   0  0  1  0  0  3  0  0  0  0  0  0
  191.7380  176.5810  146.5890 C   0  0  0  0  0  3  0  0  0  0  0  0
  190.7230  176.5410  147.4670 C   0  0  0  0  0  3  0  0  0  0  0  0
  191.6090  177.1930  145.2180 C   0  0  0  0  0  2  0  0  0  0  0  0
  190.1520  177.4020  144.7990 C   0  0  2  0  0  3  0  0  0  0  0  0
  188.7010  177.6320  148.3240 C   0  0  0  0  0  3  0  0  0  0  0  0
  187.5660  178.3200  148.2210 C   0  0  0  0  0  2  0  0  0  0  0  0
  1  7  1  1  0  0  0
  1 15  1  0  0  0  0
  1 13  1  0  0  0  0
  2 18  1  0  0  0  0
  3  8  1  0  0  0  0
  3  4  1  0  0  0  0
  4 16  1  0  0  0  0
  5 14  1  1  0  0  0
  5 18  1  0  0  0  0
  9  6  1  1  0  0  0
  9 19  1  0  0  0  0
 10  8  1  6  0  0  0
 10  9  1  0  0  0  0
 10 17  1  0  0  0  0
 11 24  1  1  0  0  0
 12 20  1  6  0  0  0
 12 14  1  0  0  0  0
 13  6  1  6  0  0  0
 13  5  1  0  0  0  0
 15 12  1  0  0  0  0
 17 16  1  6  0  0  0
 17 11  1  0  0  0  0
 19 11  1  0  0  0  0
 19  2  1  1  0  0  0
 21 23  1  0  0  0  0
 21 20  1  0  0  0  0
 22 21  2  0  0  0  0
 25 26  1  0  0  0  0
 26 28  1  0  0  0  0
 26 31  1  1  0  0  0
 27 28  2  0  0  0  0
 29 27  1  0  0  0  0
 30 24  1  6  0  0  0
 30 29  1  0  0  0  0
 30 25  1  0  0  0  0
 32 31  2  0  0  0  0
M  END
>  <MODEL>
1

>  <REMARK>
 VINA RESULT:      -8.5      0.000      0.000
  Name = 
  5 active torsions:
  status: ('A' for Active; 'I' for Inactive)
    1  A    between atoms: C_1  and  O_17
    2  A    between atoms: C_7  and  C_22
    3  A    between atoms: C_16  and  C_27
    4  A    between atoms: O_17  and  C_19
    5  A    between atoms: C_27  and  C_32
                            x       y       z     vdW  Elec       q    Type
                         _______ _______ _______ _____ _____    ______ ____

>  <TORSDO>
F 5

$$$$
=
 OpenBabel10262421283D

 32 36  0  0  1  0  0  0  0  0999 V2000
  181.1710  178.5260  140.1200 C   0  0  1  0  0  3  0  0  0  0  0  0
  185.7860  178.8970  140.4190 C   0  0  0  0  0  2  0  0  0  0  0  0
  183.8470  179.0090  145.7940 C   0  0  0  0  0  2  0  0  0  0  0  0
  185.3460  179.2680  146.0120 C   0  0  0  0  0  2  0  0  0  0  0  0
  183.5240  179.1040  139.3740 C   0  0  2  0  0  3  0  0  0  0  0  0
  183.0750  177.5040  141.3960 C   0  0  0  0  0  2  0  0  0  0  0  0
  180.3410  177.5150  140.6080 O   0  0  0  0  0  1  0  0  0  0  0  0
  183.4530  179.0500  144.3190 C   0  0  0  0  0  2  0  0  0  0  0  0
  184.1870  178.3140  142.0510 C   0  0  1  0  0  3  0  0  0  0  0  0
  184.2580  178.0140  143.5290 C   0  0  1  0  0  3  0  0  0  0  0  0
  186.4580  178.0700  142.5220 C   0  0  2  0  0  3  0  0  0  0  0  0
  181.5390  180.0530  138.1450 C   0  0  1  0  0  3  0  0  0  0  0  0
  182.6180  178.0230  140.0170 C   0  0  1  0  0  3  0  0  0  0  0  0
  182.9690  179.5350  138.0180 C   0  0  0  0  0  2  0  0  0  0  0  0
  180.6470  178.9740  138.7570 C   0  0  0  0  0  2  0  0  0  0  0  0
  186.1730  179.2000  144.7250 C   0  0  0  0  0  2  0  0  0  0  0  0
  185.7510  178.0090  143.8630 C   0  0  1  0  0  3  0  0  0  0  0  0
  184.9540  178.6200  139.1730 C   0  0  0  0  0  2  0  0  0  0  0  0
  185.4640  177.9330  141.4620 N   0  0  2  0  0  0  0  0  0  0  0  0
  181.5150  181.2420  138.9280 O   0  0  0  0  0  0  0  0  0  0  0  0
  180.5950  182.2640  138.6950 C   0  0  0  0  0  0  0  0  0  0  0  0
  179.4130  182.3390  139.4220 O   0  0  0  0  0  1  0  0  0  0  0  0
  180.8360  183.1280  137.8120 O   0  0  0  0  0  0  0  0  0  0  0  0
  187.5800  177.0240  142.4060 C   0  0  0  0  0  2  0  0  0  0  0  0
  188.5400  177.0290  144.7610 C   0  0  0  0  0  2  0  0  0  0  0  0
  189.8540  177.0310  145.5420 C   0  0  1  0  0  3  0  0  0  0  0  0
  190.5940  178.8820  144.0320 C   0  0  0  0  0  3  0  0  0  0  0  0
  190.7230  178.2090  145.1870 C   0  0  0  0  0  3  0  0  0  0  0  0
  189.5050  178.5890  143.0340 C   0  0  0  0  0  2  0  0  0  0  0  0
  188.8280  177.2380  143.2780 C   0  0  2  0  0  3  0  0  0  0  0  0
  189.5950  177.0200  147.0120 C   0  0  0  0  0  3  0  0  0  0  0  0
  188.3960  177.3280  147.4980 C   0  0  0  0  0  2  0  0  0  0  0  0
  1  7  1  6  0  0  0
  3  4  1  0  0  0  0
  5 14  1  6  0  0  0
  5 13  1  0  0  0  0
  8  3  1  0  0  0  0
  9  6  1  6  0  0  0
  9 10  1  0  0  0  0
 10 17  1  0  0  0  0
 10  8  1  1  0  0  0
 11 24  1  1  0  0  0
 11 17  1  0  0  0  0
 12 15  1  0  0  0  0
 12 20  1  1  0  0  0
 13  1  1  0  0  0  0
 13  6  1  1  0  0  0
 14 12  1  0  0  0  0
 15  1  1  0  0  0  0
 16  4  1  0  0  0  0
 17 16  1  1  0  0  0
 18  5  1  0  0  0  0
 18  2  1  0  0  0  0
 19  2  1  6  0  0  0
 19  9  1  0  0  0  0
 19 11  1  0  0  0  0
 21 20  1  0  0  0  0
 21 22  1  0  0  0  0
 23 21  2  0  0  0  0
 25 26  1  0  0  0  0
 26 31  1  1  0  0  0
 27 28  2  0  0  0  0
 28 26  1  0  0  0  0
 29 30  1  0  0  0  0
 29 27  1  0  0  0  0
 30 24  1  6  0  0  0
 30 25  1  0  0  0  0
 31 32  2  0  0  0  0
M  END
>  <MODEL>
2

>  <REMARK>
 VINA RESULT:      -7.1      2.177      4.791
  Name = 
  5 active torsions:
  status: ('A' for Active; 'I' for Inactive)
    1  A    between atoms: C_1  and  O_17
    2  A    between atoms: C_7  and  C_22
    3  A    between atoms: C_16  and  C_27
    4  A    between atoms: O_17  and  C_19
    5  A    between atoms: C_27  and  C_32
                            x       y       z     vdW  Elec       q    Type
                         _______ _______ _______ _____ _____    ______ ____

>  <TORSDO>
F 5

$$$$
=
 OpenBabel10262421283D

 32 36  0  0  1  0  0  0  0  0999 V2000
  182.1160  179.2470  139.1350 C   0  0  1  0  0  3  0  0  0  0  0  0
  185.4820  177.8900  142.0250 C   0  0  0  0  0  2  0  0  0  0  0  0
  187.5550  177.1700  136.7480 C   0  0  0  0  0  2  0  0  0  0  0  0
  188.6880  176.5740  137.5980 C   0  0  0  0  0  2  0  0  0  0  0  0
  183.1430  178.3500  141.2730 C   0  0  2  0  0  3  0  0  0  0  0  0
  184.5780  179.5990  139.4740 C   0  0  0  0  0  2  0  0  0  0  0  0
  182.1240  180.2960  138.2140 O   0  0  0  0  0  1  0  0  0  0  0  0
  186.3090  177.4880  137.5720 C   0  0  0  0  0  2  0  0  0  0  0  0
  185.5660  178.4700  139.7410 C   0  0  1  0  0  3  0  0  0  0  0  0
  186.6570  178.4660  138.6970 C   0  0  1  0  0  3  0  0  0  0  0  0
  187.5500  178.1520  140.9240 C   0  0  2  0  0  3  0  0  0  0  0  0
  180.6750  178.0750  140.8430 C   0  0  1  0  0  3  0  0  0  0  0  0
  183.2160  179.4530  140.1860 C   0  0  1  0  0  3  0  0  0  0  0  0
  181.7520  178.3040  141.9000 C   0  0  0  0  0  2  0  0  0  0  0  0
  180.7380  179.1790  139.7890 C   0  0  0  0  0  2  0  0  0  0  0  0
  188.4610  176.7110  139.1060 C   0  0  0  0  0  2  0  0  0  0  0  0
  187.9340  178.1040  139.4570 C   0  0  1  0  0  3  0  0  0  0  0  0
  184.1630  178.5600  142.3840 C   0  0  0  0  0  2  0  0  0  0  0  0
  186.1970  178.6860  141.0370 N   0  0  2  0  0  0  0  0  0  0  0  0
  180.8350  176.7910  140.2490 O   0  0  0  0  0  0  0  0  0  0  0  0
  179.8370  175.8170  140.3100 C   0  0  0  0  0  0  0  0  0  0  0  0
  178.9720  175.7510  141.3960 O   0  0  0  0  0  1  0  0  0  0  0  0
  179.7220  174.9860  139.3730 O   0  0  0  0  0  0  0  0  0  0  0  0
  188.5630  178.9490  141.7650 C   0  0  0  0  0  2  0  0  0  0  0  0
  188.4840  178.0950  144.1600 C   0  0  0  0  0  2  0  0  0  0  0  0
  189.1700  177.1410  145.1360 C   0  0  1  0  0  3  0  0  0  0  0  0
  191.3370  178.1330  144.3770 C   0  0  0  0  0  3  0  0  0  0  0  0
  190.6370  177.4500  145.2970 C   0  0  0  0  0  3  0  0  0  0  0  0
  190.7020  178.7420  143.1540 C   0  0  0  0  0  2  0  0  0  0  0  0
  189.3030  178.1870  142.8750 C   0  0  2  0  0  3  0  0  0  0  0  0
  188.5000  177.1750  146.4700 C   0  0  0  0  0  3  0  0  0  0  0  0
  189.0680  177.7870  147.5060 C   0  0  0  0  0  2  0  0  0  0  0  0
  1  7  1  6  0  0  0
  1 15  1  0  0  0  0
  1 13  1  0  0  0  0
  2 18  1  0  0  0  0
  3  8  1  0  0  0  0
  3  4  1  0  0  0  0
  4 16  1  0  0  0  0
  5 14  1  1  0  0  0
  5 18  1  0  0  0  0
  9  6  1  6  0  0  0
  9 19  1  0  0  0  0
 10  8  1  6  0  0  0
 10 17  1  0  0  0  0
 10  9  1  0  0  0  0
 11 19  1  0  0  0  0
 11 24  1  1  0  0  0
 12 20  1  6  0  0  0
 12 14  1  0  0  0  0
 13  6  1  6  0  0  0
 13  5  1  0  0  0  0
 15 12  1  0  0  0  0
 17 16  1  6  0  0  0
 17 11  1  0  0  0  0
 19  2  1  1  0  0  0
 20 21  1  0  0  0  0
 21 22  1  0  0  0  0
 23 21  2  0  0  0  0
 25 26  1  0  0  0  0
 26 28  1  0  0  0  0
 26 31  1  1  0  0  0
 27 28  2  0  0  0  0
 29 27  1  0  0  0  0
 30 24  1  6  0  0  0
 30 29  1  0  0  0  0
 30 25  1  0  0  0  0
 31 32  2  0  0  0  0
M  END
>  <MODEL>
3

>  <REMARK>
 VINA RESULT:      -6.9      1.517      2.289
  Name = 
  5 active torsions:
  status: ('A' for Active; 'I' for Inactive)
    1  A    between atoms: C_1  and  O_17
    2  A    between atoms: C_7  and  C_22
    3  A    between atoms: C_16  and  C_27
    4  A    between atoms: O_17  and  C_19
    5  A    between atoms: C_27  and  C_32
                            x       y       z     vdW  Elec       q    Type
                         _______ _______ _______ _____ _____    ______ ____

>  <TORSDO>
F 5

$$$$
=
 OpenBabel10262421283D

 32 36  0  0  1  0  0  0  0  0999 V2000
  186.6890  177.6050  137.9190 C   0  0  1  0  0  3  0  0  0  0  0  0
  182.0760  177.4110  137.4670 C   0  0  0  0  0  2  0  0  0  0  0  0
  183.0650  178.8360  142.9120 C   0  0  0  0  0  2  0  0  0  0  0  0
  181.5360  178.6760  142.9180 C   0  0  0  0  0  2  0  0  0  0  0  0
  184.4620  176.8730  136.9520 C   0  0  2  0  0  3  0  0  0  0  0  0
  184.6700  178.9840  138.4860 C   0  0  0  0  0  2  0  0  0  0  0  0
  187.4910  178.7010  138.2440 O   0  0  0  0  0  1  0  0  0  0  0  0
  183.6980  178.3610  141.6070 C   0  0  0  0  0  2  0  0  0  0  0  0
  183.4110  178.4180  139.1290 C   0  0  1  0  0  3  0  0  0  0  0  0
  183.1110  179.1350  140.4240 C   0  0  1  0  0  3  0  0  0  0  0  0
  181.1150  178.8240  139.0910 C   0  0  2  0  0  3  0  0  0  0  0  0
  186.5570  175.5760  136.4250 C   0  0  1  0  0  3  0  0  0  0  0  0
  185.3180  178.0790  137.4160 C   0  0  1  0  0  3  0  0  0  0  0  0
  185.2090  176.0580  135.8990 C   0  0  0  0  0  2  0  0  0  0  0  0
  187.4050  176.7720  136.8570 C   0  0  0  0  0  2  0  0  0  0  0  0
  180.9450  178.3800  141.5370 C   0  0  0  0  0  2  0  0  0  0  0  0
  181.5880  179.2620  140.4650 C   0  0  1  0  0  3  0  0  0  0  0  0
  183.1240  177.3010  136.3670 C   0  0  0  0  0  2  0  0  0  0  0  0
  182.2810  178.6320  138.2340 N   0  0  2  0  0  0  0  0  0  0  0  0
  186.3680  174.6660  137.5030 O   0  0  0  0  0  0  0  0  0  0  0  0
  185.9300  173.3570  137.2990 C   0  0  0  0  0  0  0  0  0  0  0  0
  186.2080  172.6890  136.1120 O   0  0  0  0  0  0  0  0  0  0  0  0
  185.2730  172.7740  138.2000 O   0  0  0  0  0  1  0  0  0  0  0  0
  180.1020  179.8100  138.4810 C   0  0  0  0  0  2  0  0  0  0  0  0
  180.4020  182.2920  138.0150 C   0  0  0  0  0  2  0  0  0  0  0  0
  181.1660  183.2840  137.1390 C   0  0  1  0  0  3  0  0  0  0  0  0
  180.5260  181.8530  135.1910 C   0  0  0  0  0  3  0  0  0  0  0  0
  180.9370  183.0380  135.6700 C   0  0  0  0  0  3  0  0  0  0  0  0
  180.1560  180.6960  136.0810 C   0  0  0  0  0  2  0  0  0  0  0  0
  180.6540  180.8720  137.5180 C   0  0  2  0  0  3  0  0  0  0  0  0
  180.7900  184.6890  137.4790 C   0  0  0  0  0  3  0  0  0  0  0  0
  179.9460  185.3750  136.7130 C   0  0  0  0  0  2  0  0  0  0  0  0
  1  7  1  6  0  0  0
  3  4  1  0  0  0  0
  5 14  1  6  0  0  0
  5 13  1  0  0  0  0
  8  3  1  0  0  0  0
  9  6  1  6  0  0  0
  9 10  1  0  0  0  0
 10 17  1  0  0  0  0
 10  8  1  1  0  0  0
 11 24  1  6  0  0  0
 11 17  1  0  0  0  0
 12 15  1  0  0  0  0
 12 20  1  1  0  0  0
 13  1  1  0  0  0  0
 13  6  1  1  0  0  0
 14 12  1  0  0  0  0
 15  1  1  0  0  0  0
 16  4  1  0  0  0  0
 17 16  1  1  0  0  0
 18  5  1  0  0  0  0
 18  2  1  0  0  0  0
 19  2  1  6  0  0  0
 19 11  1  0  0  0  0
 19  9  1  0  0  0  0
 21 20  1  0  0  0  0
 21 23  1  0  0  0  0
 22 21  2  0  0  0  0
 26 31  1  1  0  0  0
 26 25  1  0  0  0  0
 27 28  2  0  0  0  0
 27 29  1  0  0  0  0
 28 26  1  0  0  0  0
 29 30  1  0  0  0  0
 30 25  1  0  0  0  0
 30 24  1  1  0  0  0
 32 31  2  0  0  0  0
M  END
>  <MODEL>
4

>  <REMARK>
 VINA RESULT:      -6.6      5.221      9.509
  Name = 
  5 active torsions:
  status: ('A' for Active; 'I' for Inactive)
    1  A    between atoms: C_1  and  O_17
    2  A    between atoms: C_7  and  C_22
    3  A    between atoms: C_16  and  C_27
    4  A    between atoms: O_17  and  C_19
    5  A    between atoms: C_27  and  C_32
                            x       y       z     vdW  Elec       q    Type
                         _______ _______ _______ _____ _____    ______ ____

>  <TORSDO>
F 5

$$$$
=
 OpenBabel10262421283D

 32 36  0  0  1  0  0  0  0  0999 V2000
  188.2130  178.1480  137.2220 C   0  0  1  0  0  3  0  0  0  0  0  0
  183.8730  176.6190  137.8120 C   0  0  0  0  0  2  0  0  0  0  0  0
  185.2850  179.2600  142.6790 C   0  0  0  0  0  2  0  0  0  0  0  0
  183.9020  178.6920  143.0370 C   0  0  0  0  0  2  0  0  0  0  0  0
  186.1860  176.6670  136.8660 C   0  0  2  0  0  3  0  0  0  0  0  0
  185.9960  179.0040  138.0290 C   0  0  0  0  0  2  0  0  0  0  0  0
  188.6850  179.4630  137.2190 O   0  0  0  0  0  1  0  0  0  0  0  0
  185.8030  178.7390  141.3400 C   0  0  0  0  0  2  0  0  0  0  0  0
  185.0970  178.2470  138.9990 C   0  0  1  0  0  3  0  0  0  0  0  0
  184.8160  179.0860  140.2230 C   0  0  1  0  0  3  0  0  0  0  0  0
  182.8150  177.9950  139.4070 C   0  0  2  0  0  3  0  0  0  0  0  0
  188.4570  175.9170  136.0700 C   0  0  1  0  0  3  0  0  0  0  0  0
  186.6980  178.1260  136.9720 C   0  0  1  0  0  3  0  0  0  0  0  0
  186.9570  175.9030  135.7910 C   0  0  0  0  0  2  0  0  0  0  0  0
  188.9590  177.3580  136.1490 C   0  0  0  0  0  2  0  0  0  0  0  0
  183.2050  177.9900  141.8680 C   0  0  0  0  0  2  0  0  0  0  0  0
  183.3570  178.7960  140.5760 C   0  0  1  0  0  3  0  0  0  0  0  0
  184.7020  176.5940  136.5340 C   0  0  0  0  0  2  0  0  0  0  0  0
  183.8220  177.9710  138.3500 N   0  0  2  0  0  0  0  0  0  0  0  0
  188.7390  175.2100  137.2730 O   0  0  0  0  0  0  0  0  0  0  0  0
  190.0270  174.7770  137.5930 C   0  0  0  0  0  0  0  0  0  0  0  0
  190.7990  175.4650  138.5210 O   0  0  0  0  0  1  0  0  0  0  0  0
  190.4950  173.7530  137.0330 O   0  0  0  0  0  0  0  0  0  0  0  0
  181.4620  178.5330  138.9090 C   0  0  0  0  0  2  0  0  0  0  0  0
  180.9100  180.9310  138.2640 C   0  0  0  0  0  2  0  0  0  0  0  0
  181.1820  182.0030  137.2100 C   0  0  1  0  0  3  0  0  0  0  0  0
  180.6990  180.2490  135.4940 C   0  0  0  0  0  3  0  0  0  0  0  0
  180.8020  181.5460  135.8250 C   0  0  0  0  0  3  0  0  0  0  0  0
  180.8500  179.1350  136.4980 C   0  0  0  0  0  2  0  0  0  0  0  0
  181.4990  179.6010  137.8040 C   0  0  2  0  0  3  0  0  0  0  0  0
  180.4570  183.2660  137.5400 C   0  0  0  0  0  3  0  0  0  0  0  0
  180.9710  184.4520  137.2240 C   0  0  0  0  0  2  0  0  0  0  0  0
  1  7  1  6  0  0  0
  3  4  1  0  0  0  0
  5 14  1  6  0  0  0
  5 13  1  0  0  0  0
  8  3  1  0  0  0  0
  9  6  1  6  0  0  0
  9 10  1  0  0  0  0
 10 17  1  0  0  0  0
 10  8  1  1  0  0  0
 11 24  1  6  0  0  0
 11 17  1  0  0  0  0
 12 15  1  0  0  0  0
 12 20  1  1  0  0  0
 13  1  1  0  0  0  0
 13  6  1  1  0  0  0
 14 12  1  0  0  0  0
 15  1  1  0  0  0  0
 16  4  1  0  0  0  0
 17 16  1  1  0  0  0
 18  5  1  0  0  0  0
 18  2  1  0  0  0  0
 19  2  1  1  0  0  0
 19  9  1  0  0  0  0
 19 11  1  0  0  0  0
 20 21  1  0  0  0  0
 21 22  1  0  0  0  0
 23 21  2  0  0  0  0
 26 31  1  1  0  0  0
 26 25  1  0  0  0  0
 27 28  2  0  0  0  0
 27 29  1  0  0  0  0
 28 26  1  0  0  0  0
 29 30  1  0  0  0  0
 30 25  1  0  0  0  0
 30 24  1  1  0  0  0
 32 31  2  0  0  0  0
M  END
>  <MODEL>
5

>  <REMARK>
 VINA RESULT:      -6.6      4.662      9.191
  Name = 
  5 active torsions:
  status: ('A' for Active; 'I' for Inactive)
    1  A    between atoms: C_1  and  O_17
    2  A    between atoms: C_7  and  C_22
    3  A    between atoms: C_16  and  C_27
    4  A    between atoms: O_17  and  C_19
    5  A    between atoms: C_27  and  C_32
                            x       y       z     vdW  Elec       q    Type
                         _______ _______ _______ _____ _____    ______ ____

>  <TORSDO>
F 5

$$$$
=
 OpenBabel10262421283D

 32 36  0  0  1  0  0  0  0  0999 V2000
  186.5610  178.2480  140.0400 C   0  0  1  0  0  3  0  0  0  0  0  0
  190.7380  176.5470  138.9530 C   0  0  0  0  0  2  0  0  0  0  0  0
  186.9500  173.3570  136.1010 C   0  0  0  0  0  2  0  0  0  0  0  0
  188.2620  172.6290  135.7710 C   0  0  0  0  0  2  0  0  0  0  0  0
  189.0230  177.7220  140.3410 C   0  0  2  0  0  3  0  0  0  0  0  0
  187.8590  177.5710  138.0020 C   0  0  0  0  0  2  0  0  0  0  0  0
  185.6100  178.8340  139.2030 O   0  0  0  0  0  1  0  0  0  0  0  0
  187.1300  174.4330  137.1700 C   0  0  0  0  0  2  0  0  0  0  0  0
  188.6500  176.2730  137.8930 C   0  0  1  0  0  3  0  0  0  0  0  0
  188.1700  175.4600  136.7150 C   0  0  1  0  0  3  0  0  0  0  0  0
  190.5860  175.5100  136.8410 C   0  0  2  0  0  3  0  0  0  0  0  0
  187.6330  178.4380  142.3170 C   0  0  1  0  0  3  0  0  0  0  0  0
  187.9440  178.2720  139.3740 C   0  0  1  0  0  3  0  0  0  0  0  0
  189.0080  178.4930  141.6590 C   0  0  0  0  0  2  0  0  0  0  0  0
  186.5780  179.0040  141.3670 C   0  0  0  0  0  2  0  0  0  0  0  0
  189.5070  173.3230  136.3320 C   0  0  0  0  0  2  0  0  0  0  0  0
  189.4340  174.8360  136.1210 C   0  0  1  0  0  3  0  0  0  0  0  0
  190.4260  177.8040  139.7550 C   0  0  0  0  0  2  0  0  0  0  0  0
  190.0550  176.5890  137.6680 N   0  0  2  0  0  0  0  0  0  0  0  0
  187.3200  177.1000  142.6900 O   0  0  0  0  0  0  0  0  0  0  0  0
  188.1030  176.3800  143.5930 C   0  0  0  0  0  0  0  0  0  0  0  0
  188.2470  176.8070  144.9080 O   0  0  0  0  0  1  0  0  0  0  0  0
  188.6880  175.3340  143.2120 O   0  0  0  0  0  0  0  0  0  0  0  0
  191.6730  176.0030  135.8690 C   0  0  0  0  0  2  0  0  0  0  0  0
  193.3800  174.6530  137.1850 C   0  0  0  0  0  2  0  0  0  0  0  0
  194.5500  173.6830  137.0270 C   0  0  1  0  0  3  0  0  0  0  0  0
  195.4590  175.2660  135.3170 C   0  0  0  0  0  3  0  0  0  0  0  0
  195.6590  174.2630  136.1870 C   0  0  0  0  0  3  0  0  0  0  0  0
  194.1360  175.9730  135.1750 C   0  0  0  0  0  2  0  0  0  0  0  0
  192.9810  175.1990  135.8170 C   0  0  2  0  0  3  0  0  0  0  0  0
  195.0870  173.2800  138.3610 C   0  0  0  0  0  3  0  0  0  0  0  0
  195.8050  174.1270  139.0940 C   0  0  0  0  0  2  0  0  0  0  0  0
  1  7  1  6  0  0  0
  1 15  1  0  0  0  0
  2 18  1  0  0  0  0
  3  8  1  0  0  0  0
  4  3  1  0  0  0  0
  4 16  1  0  0  0  0
  5 18  1  6  0  0  0
  5 14  1  0  0  0  0
  9  6  1  6  0  0  0
 10  8  1  1  0  0  0
 10  9  1  0  0  0  0
 11 24  1  6  0  0  0
 11 19  1  0  0  0  0
 12 20  1  6  0  0  0
 13  6  1  6  0  0  0
 13  1  1  0  0  0  0
 13  5  1  0  0  0  0
 14 12  1  0  0  0  0
 15 12  1  0  0  0  0
 17 16  1  1  0  0  0
 17 10  1  0  0  0  0
 17 11  1  0  0  0  0
 19  9  1  0  0  0  0
 19  2  1  1  0  0  0
 20 21  1  0  0  0  0
 21 22  1  0  0  0  0
 23 21  2  0  0  0  0
 26 25  1  0  0  0  0
 26 31  1  1  0  0  0
 27 28  2  0  0  0  0
 28 26  1  0  0  0  0
 29 27  1  0  0  0  0
 29 30  1  0  0  0  0
 30 24  1  1  0  0  0
 30 25  1  0  0  0  0
 31 32  2  0  0  0  0
M  END
>  <MODEL>
6

>  <REMARK>
 VINA RESULT:      -6.3      3.997      7.552
  Name = 
  5 active torsions:
  status: ('A' for Active; 'I' for Inactive)
    1  A    between atoms: C_1  and  O_17
    2  A    between atoms: C_7  and  C_22
    3  A    between atoms: C_16  and  C_27
    4  A    between atoms: O_17  and  C_19
    5  A    between atoms: C_27  and  C_32
                            x       y       z     vdW  Elec       q    Type
                         _______ _______ _______ _____ _____    ______ ____

>  <TORSDO>
F 5

$$$$
=
 OpenBabel10262421283D

 32 36  0  0  1  0  0  0  0  0999 V2000
  189.0500  178.3460  138.0270 C   0  0  1  0  0  3  0  0  0  0  0  0
  186.0440  174.8840  137.3140 C   0  0  0  0  0  2  0  0  0  0  0  0
  183.1380  178.9410  140.0980 C   0  0  0  0  0  2  0  0  0  0  0  0
  182.0950  177.8150  140.0370 C   0  0  0  0  0  2  0  0  0  0  0  0
  188.2760  175.9630  137.6360 C   0  0  2  0  0  3  0  0  0  0  0  0
  186.7130  178.0110  137.1740 C   0  0  0  0  0  2  0  0  0  0  0  0
  189.0030  179.6570  137.5480 O   0  0  0  0  0  1  0  0  0  0  0  0
  184.5190  178.4870  139.6300 C   0  0  0  0  0  2  0  0  0  0  0  0
  185.6720  177.1440  137.8720 C   0  0  1  0  0  3  0  0  0  0  0  0
  184.4410  177.9560  138.1960 C   0  0  1  0  0  3  0  0  0  0  0  0
  183.8690  175.7900  137.2800 C   0  0  2  0  0  3  0  0  0  0  0  0
  190.6130  176.4150  138.4650 C   0  0  1  0  0  3  0  0  0  0  0  0
  188.1460  177.4380  137.1790 C   0  0  1  0  0  3  0  0  0  0  0  0
  189.7360  175.5150  137.6000 C   0  0  0  0  0  2  0  0  0  0  0  0
  190.4980  177.8630  137.9940 C   0  0  0  0  0  2  0  0  0  0  0  0
  182.5590  176.5900  139.2430 C   0  0  0  0  0  2  0  0  0  0  0  0
  183.2650  177.0090  137.9520 C   0  0  1  0  0  3  0  0  0  0  0  0
  187.4620  175.0120  136.7700 C   0  0  0  0  0  2  0  0  0  0  0  0
  185.2680  176.0690  136.9760 N   0  0  2  0  0  0  0  0  0  0  0  0
  190.2420  176.2910  139.8350 O   0  0  0  0  0  0  0  0  0  0  0  0
  190.7820  177.1130  140.8250 C   0  0  0  0  0  0  0  0  0  0  0  0
  192.1200  177.4880  140.7880 O   0  0  0  0  0  0  0  0  0  0  0  0
  190.0500  177.5160  141.7650 O   0  0  0  0  0  1  0  0  0  0  0  0
  183.0770  175.3610  136.0320 C   0  0  0  0  0  2  0  0  0  0  0  0
  180.9720  174.2440  136.9230 C   0  0  0  0  0  2  0  0  0  0  0  0
  180.1110  172.9890  136.7940 C   0  0  1  0  0  3  0  0  0  0  0  0
  182.2310  171.6760  136.9760 C   0  0  0  0  0  3  0  0  0  0  0  0
  180.8940  171.7320  137.0740 C   0  0  0  0  0  3  0  0  0  0  0  0
  183.0800  172.8850  136.6810 C   0  0  0  0  0  2  0  0  0  0  0  0
  182.2650  174.0600  136.1340 C   0  0  2  0  0  3  0  0  0  0  0  0
  178.9310  173.0610  137.7060 C   0  0  0  0  0  3  0  0  0  0  0  0
  179.0050  173.6960  138.8720 C   0  0  0  0  0  2  0  0  0  0  0  0
  1  7  1  6  0  0  0
  4  3  1  0  0  0  0
  5 18  1  6  0  0  0
  8  3  1  0  0  0  0
  9  6  1  6  0  0  0
  9 10  1  0  0  0  0
 10  8  1  1  0  0  0
 11 24  1  6  0  0  0
 11 17  1  0  0  0  0
 12 20  1  1  0  0  0
 13  6  1  1  0  0  0
 13  5  1  0  0  0  0
 13  1  1  0  0  0  0
 14  5  1  0  0  0  0
 14 12  1  0  0  0  0
 15  1  1  0  0  0  0
 15 12  1  0  0  0  0
 16  4  1  0  0  0  0
 17 10  1  0  0  0  0
 17 16  1  1  0  0  0
 18  2  1  0  0  0  0
 19 11  1  0  0  0  0
 19  2  1  1  0  0  0
 19  9  1  0  0  0  0
 20 21  1  0  0  0  0
 21 23  1  0  0  0  0
 22 21  2  0  0  0  0
 26 25  1  0  0  0  0
 26 28  1  0  0  0  0
 26 31  1  1  0  0  0
 27 28  2  0  0  0  0
 29 27  1  0  0  0  0
 30 24  1  1  0  0  0
 30 29  1  0  0  0  0
 30 25  1  0  0  0  0
 31 32  2  0  0  0  0
M  END
>  <MODEL>
7

>  <REMARK>
 VINA RESULT:      -5.8      4.613      9.402
  Name = 
  5 active torsions:
  status: ('A' for Active; 'I' for Inactive)
    1  A    between atoms: C_1  and  O_17
    2  A    between atoms: C_7  and  C_22
    3  A    between atoms: C_16  and  C_27
    4  A    between atoms: O_17  and  C_19
    5  A    between atoms: C_27  and  C_32
                            x       y       z     vdW  Elec       q    Type
                         _______ _______ _______ _____ _____    ______ ____

>  <TORSDO>
F 5

$$$$
=
 OpenBabel10262421283D

 32 36  0  0  1  0  0  0  0  0999 V2000
  188.5550  178.2140  137.2270 C   0  0  1  0  0  3  0  0  0  0  0  0
  184.1760  176.6900  137.3700 C   0  0  0  0  0  2  0  0  0  0  0  0
  185.1140  179.2540  142.3900 C   0  0  0  0  0  2  0  0  0  0  0  0
  183.7020  178.6860  142.6040 C   0  0  0  0  0  2  0  0  0  0  0  0
  186.5700  176.7440  136.6540 C   0  0  2  0  0  3  0  0  0  0  0  0
  186.2720  179.0650  137.8270 C   0  0  0  0  0  2  0  0  0  0  0  0
  189.0270  179.5260  137.2890 O   0  0  0  0  0  1  0  0  0  0  0  0
  185.7580  178.7520  141.1000 C   0  0  0  0  0  2  0  0  0  0  0  0
  185.2820  178.2960  138.6940 C   0  0  1  0  0  3  0  0  0  0  0  0
  184.8850  179.1180  139.8970 C   0  0  1  0  0  3  0  0  0  0  0  0
  182.9710  178.0460  138.8750 C   0  0  2  0  0  3  0  0  0  0  0  0
  188.9060  175.9980  136.0710 C   0  0  1  0  0  3  0  0  0  0  0  0
  187.0720  178.2000  136.8310 C   0  0  1  0  0  3  0  0  0  0  0  0
  187.4400  175.9940  135.6480 C   0  0  0  0  0  2  0  0  0  0  0  0
  189.4000  177.4360  136.2190 C   0  0  0  0  0  2  0  0  0  0  0  0
  183.1200  178.0040  141.3620 C   0  0  0  0  0  2  0  0  0  0  0  0
  183.3980  178.8280  140.1040 C   0  0  1  0  0  3  0  0  0  0  0  0
  185.1250  176.6800  136.1790 C   0  0  0  0  0  2  0  0  0  0  0  0
  184.0750  178.0330  137.9210 N   0  0  2  0  0  0  0  0  0  0  0  0
  189.0690  175.2730  137.2850 O   0  0  0  0  0  0  0  0  0  0  0  0
  190.2600  174.6190  137.6030 C   0  0  0  0  0  0  0  0  0  0  0  0
  191.2260  175.2400  138.3860 O   0  0  0  0  0  1  0  0  0  0  0  0
  190.4640  173.4550  137.1730 O   0  0  0  0  0  0  0  0  0  0  0  0
  181.6730  178.5950  138.2560 C   0  0  0  0  0  2  0  0  0  0  0  0
  180.6940  176.2750  138.6120 C   0  0  0  0  0  2  0  0  0  0  0  0
  179.4940  175.3930  138.2710 C   0  0  1  0  0  3  0  0  0  0  0  0
  179.8010  176.1220  135.8990 C   0  0  0  0  0  3  0  0  0  0  0  0
  179.3040  175.2430  136.7840 C   0  0  0  0  0  3  0  0  0  0  0  0
  180.6800  177.2780  136.3010 C   0  0  0  0  0  2  0  0  0  0  0  0
  180.6260  177.5670  137.8030 C   0  0  2  0  0  3  0  0  0  0  0  0
  179.6310  174.0460  138.9000 C   0  0  0  0  0  3  0  0  0  0  0  0
  180.0660  173.0040  138.1960 C   0  0  0  0  0  2  0  0  0  0  0  0
  1  7  1  6  0  0  0
  3  4  1  0  0  0  0
  5 14  1  6  0  0  0
  5 13  1  0  0  0  0
  8  3  1  0  0  0  0
  9  6  1  6  0  0  0
  9 10  1  0  0  0  0
 10 17  1  0  0  0  0
 10  8  1  1  0  0  0
 11 24  1  6  0  0  0
 11 17  1  0  0  0  0
 12 15  1  0  0  0  0
 12 20  1  1  0  0  0
 13  1  1  0  0  0  0
 13  6  1  1  0  0  0
 14 12  1  0  0  0  0
 15  1  1  0  0  0  0
 16  4  1  0  0  0  0
 17 16  1  1  0  0  0
 18  5  1  0  0  0  0
 18  2  1  0  0  0  0
 19  2  1  1  0  0  0
 19  9  1  0  0  0  0
 19 11  1  0  0  0  0
 20 21  1  0  0  0  0
 21 22  1  0  0  0  0
 23 21  2  0  0  0  0
 26 25  1  0  0  0  0
 26 31  1  1  0  0  0
 27 29  1  0  0  0  0
 27 28  2  0  0  0  0
 28 26  1  0  0  0  0
 29 30  1  0  0  0  0
 30 24  1  1  0  0  0
 30 25  1  0  0  0  0
 32 31  2  0  0  0  0
M  END
>  <MODEL>
8

>  <REMARK>
 VINA RESULT:      -5.7      4.819      9.168
  Name = 
  5 active torsions:
  status: ('A' for Active; 'I' for Inactive)
    1  A    between atoms: C_1  and  O_17
    2  A    between atoms: C_7  and  C_22
    3  A    between atoms: C_16  and  C_27
    4  A    between atoms: O_17  and  C_19
    5  A    between atoms: C_27  and  C_32
                            x       y       z     vdW  Elec       q    Type
                         _______ _______ _______ _____ _____    ______ ____

>  <TORSDO>
F 5

$$$$
=
 OpenBabel10262421283D

 32 36  0  0  1  0  0  0  0  0999 V2000
  183.2480  178.6220  143.3150 C   0  0  1  0  0  3  0  0  0  0  0  0
  184.1340  178.3780  138.7680 C   0  0  0  0  0  2  0  0  0  0  0  0
  179.9730  174.5900  139.7640 C   0  0  0  0  0  2  0  0  0  0  0  0
  180.2670  174.3280  138.2780 C   0  0  0  0  0  2  0  0  0  0  0  0
  184.6070  178.8140  141.1830 C   0  0  2  0  0  3  0  0  0  0  0  0
  181.9980  178.6160  141.1380 C   0  0  0  0  0  2  0  0  0  0  0  0
  182.0670  179.0000  143.9570 O   0  0  0  0  0  1  0  0  0  0  0  0
  180.9920  175.5300  140.4050 C   0  0  0  0  0  2  0  0  0  0  0  0
  182.2720  177.6330  140.0070 C   0  0  1  0  0  3  0  0  0  0  0  0
  181.0190  176.8660  139.6580 C   0  0  1  0  0  3  0  0  0  0  0  0
  182.1910  177.6120  137.6760 C   0  0  2  0  0  3  0  0  0  0  0  0
  185.7590  178.8370  143.4240 C   0  0  1  0  0  3  0  0  0  0  0  0
  183.2550  179.1360  141.8680 C   0  0  1  0  0  3  0  0  0  0  0  0
  185.7700  179.3770  141.9980 C   0  0  0  0  0  2  0  0  0  0  0  0
  184.4330  179.1790  144.1010 C   0  0  0  0  0  2  0  0  0  0  0  0
  181.3030  175.2840  137.6790 C   0  0  0  0  0  2  0  0  0  0  0  0
  181.0510  176.7220  138.1360 C   0  0  1  0  0  3  0  0  0  0  0  0
  184.6940  179.3780  139.7720 C   0  0  0  0  0  2  0  0  0  0  0  0
  182.6790  178.3750  138.8200 N   0  0  2  0  0  0  0  0  0  0  0  0
  185.9840  177.4310  143.4190 O   0  0  0  0  0  0  0  0  0  0  0  0
  187.1340  176.8620  143.9670 C   0  0  0  0  0  0  0  0  0  0  0  0
  187.9290  176.0030  143.2190 O   0  0  0  0  0  0  0  0  0  0  0  0
  187.4540  177.1280  145.1540 O   0  0  0  0  0  1  0  0  0  0  0  0
  181.7830  178.5200  136.5020 C   0  0  0  0  0  2  0  0  0  0  0  0
  180.7960  180.6970  135.6350 C   0  0  0  0  0  2  0  0  0  0  0  0
  179.8070  181.8100  135.9800 C   0  0  1  0  0  3  0  0  0  0  0  0
  180.8980  181.8990  138.2280 C   0  0  0  0  0  3  0  0  0  0  0  0
  180.1460  182.4860  137.2840 C   0  0  0  0  0  3  0  0  0  0  0  0
  181.5570  180.5580  138.0320 C   0  0  0  0  0  2  0  0  0  0  0  0
  180.9810  179.7850  136.8440 C   0  0  2  0  0  3  0  0  0  0  0  0
  179.7490  182.8250  134.8870 C   0  0  0  0  0  3  0  0  0  0  0  0
  180.4290  183.9650  134.9750 C   0  0  0  0  0  2  0  0  0  0  0  0
  1  7  1  1  0  0  0
  1 15  1  0  0  0  0
  2 18  1  0  0  0  0
  3  8  1  0  0  0  0
  4  3  1  0  0  0  0
  5 18  1  6  0  0  0
  5 13  1  0  0  0  0
  5 14  1  0  0  0  0
  9  6  1  1  0  0  0
 10  9  1  0  0  0  0
 10  8  1  1  0  0  0
 11 24  1  6  0  0  0
 11 17  1  0  0  0  0
 11 19  1  0  0  0  0
 12 20  1  6  0  0  0
 12 15  1  0  0  0  0
 13  6  1  6  0  0  0
 13  1  1  0  0  0  0
 14 12  1  0  0  0  0
 16  4  1  0  0  0  0
 17 16  1  1  0  0  0
 17 10  1  0  0  0  0
 19  2  1  6  0  0  0
 19  9  1  0  0  0  0
 20 21  1  0  0  0  0
 21 23  1  0  0  0  0
 22 21  2  0  0  0  0
 25 26  1  0  0  0  0
 25 30  1  0  0  0  0
 26 31  1  6  0  0  0
 26 28  1  0  0  0  0
 28 27  2  0  0  0  0
 29 27  1  0  0  0  0
 30 24  1  6  0  0  0
 30 29  1  0  0  0  0
 31 32  2  0  0  0  0
M  END
>  <MODEL>
9

>  <REMARK>
 VINA RESULT:      -5.7      3.915      9.530
  Name = 
  5 active torsions:
  status: ('A' for Active; 'I' for Inactive)
    1  A    between atoms: C_1  and  O_17
    2  A    between atoms: C_7  and  C_22
    3  A    between atoms: C_16  and  C_27
    4  A    between atoms: O_17  and  C_19
    5  A    between atoms: C_27  and  C_32
                            x       y       z     vdW  Elec       q    Type
                         _______ _______ _______ _____ _____    ______ ____

>  <TORSDO>
F 5

$$$$
