=
 OpenBabel10262421393D

 32 36  0  0  1  0  0  0  0  0999 V2000
  187.6930  176.8220  136.2890 C   0  0  0  0  0  0  0  0  0  0  0  0
  189.1490  177.9270  140.9770 C   0  0  0  0  0  0  0  0  0  0  0  0
  188.2470  177.6480  143.3190 C   0  0  0  0  0  0  0  0  0  0  0  0
  188.4830  177.6260  144.7750 C   0  0  0  0  0  0  0  0  0  0  0  0
  187.9020  177.7860  138.9070 C   0  0  0  0  0  0  0  0  0  0  0  0
  190.0210  176.6870  139.1150 N   0  0  0  0  0  0  0  0  0  0  0  0
  188.9300  177.6760  147.5420 C   0  0  0  0  0  3  0  0  0  0  0  0
  188.8160  176.5020  137.0600 C   0  0  0  0  0  3  0  0  0  0  0  0
  190.1660  177.1330  140.3930 C   0  0  0  0  0  0  0  0  0  0  0  0
  191.4630  176.8450  141.1110 C   0  0  2  0  0  3  0  0  0  0  0  0
  190.6550  178.3540  142.9620 C   0  0  2  0  0  3  0  0  0  0  0  0
  187.7390  177.1500  147.0360 C   0  0  0  0  0  3  0  0  0  0  0  0
  186.6730  177.6140  136.8310 C   0  0  0  0  0  3  0  0  0  0  0  0
  188.9260  176.9820  138.3670 C   0  0  0  0  0  0  0  0  0  0  0  0
  187.5140  177.1270  145.6560 C   0  0  0  0  0  3  0  0  0  0  0  0
  186.7770  178.0980  138.1390 C   0  0  0  0  0  3  0  0  0  0  0  0
  191.3690  177.0360  142.6270 C   0  0  1  0  0  3  0  0  0  0  0  0
  190.6970  178.6220  144.3980 N   0  0  0  0  0  2  0  0  0  0  0  0
  188.0220  178.2520  140.2130 C   0  0  0  0  0  3  0  0  0  0  0  0
  187.2040  177.1170  142.8460 O   0  0  0  0  0  0  0  0  0  0  0  0
  189.9030  178.1710  146.6680 C   0  0  0  0  0  3  0  0  0  0  0  0
  189.2130  178.3880  142.4150 C   0  0  1  0  0  3  0  0  0  0  0  0
  189.6870  178.1390  145.2870 C   0  0  0  0  0  0  0  0  0  0  0  0
  193.4160  176.9510  139.7310 O   0  0  0  0  0  1  0  0  0  0  0  0
  192.5900  177.7090  140.5610 C   0  0  0  0  0  2  0  0  0  0  0  0
  191.7040  175.3040  143.9680 C   0  0  0  0  0  1  0  0  0  0  0  0
  190.7220  175.9390  143.2080 O   0  0  0  0  0  0  0  0  0  0  0  0
  187.5640  176.2890  134.9070 C   0  0  0  0  0  2  0  0  0  0  0  0
  187.4760  174.8720  134.9480 O   0  0  0  0  0  0  0  0  0  0  0  0
  186.3900  174.2090  135.5220 C   0  0  0  0  0  0  0  0  0  0  0  0
  185.2420  174.3670  135.0330 O   0  0  0  0  0  0  0  0  0  0  0  0
  186.5570  173.3130  136.7050 C   0  0  0  0  0  1  0  0  0  0  0  0
  1 13  2  0  0  0  0
  1  8  1  0  0  0  0
  3  4  1  0  0  0  0
  4 23  2  0  0  0  0
  4 15  1  0  0  0  0
  5 19  1  0  0  0  0
  6  9  2  0  0  0  0
  8 14  2  0  0  0  0
  9  2  1  0  0  0  0
  9 10  1  0  0  0  0
 10 25  1  6  0  0  0
 10 17  1  0  0  0  0
 11 18  1  1  0  0  0
 12  7  1  0  0  0  0
 13 16  1  0  0  0  0
 14  5  1  0  0  0  0
 14  6  1  0  0  0  0
 15 12  2  0  0  0  0
 16  5  2  0  0  0  0
 17 11  1  0  0  0  0
 17 27  1  1  0  0  0
 18 23  1  0  0  0  0
 19  2  2  0  0  0  0
 20  3  2  0  0  0  0
 21  7  2  0  0  0  0
 22  2  1  6  0  0  0
 22 11  1  0  0  0  0
 22  3  1  0  0  0  0
 23 21  1  0  0  0  0
 24 25  1  0  0  0  0
 27 26  1  0  0  0  0
 28 29  1  0  0  0  0
 28  1  1  0  0  0  0
 29 30  1  0  0  0  0
 30 32  1  0  0  0  0
 31 30  2  0  0  0  0
M  END
>  <MODEL>
1

>  <REMARK>
 VINA RESULT:      -7.7      0.000      0.000
  Name = 
  5 active torsions:
  status: ('A' for Active; 'I' for Inactive)
    1  A    between atoms: C_1  and  O_10
    2  A    between atoms: C_2  and  C_24
    3  A    between atoms: O_10  and  C_24
    4  A    between atoms: C_13  and  C_15
    5  A    between atoms: O_25  and  C_26
                            x       y       z     vdW  Elec       q    Type
                         _______ _______ _______ _____ _____    ______ ____

>  <TORSDO>
F 5

$$$$
=
 OpenBabel10262421393D

 32 36  0  0  1  0  0  0  0  0999 V2000
  188.4640  177.5760  143.8620 C   0  0  0  0  0  0  0  0  0  0  0  0
  184.6990  178.8050  140.7590 C   0  0  0  0  0  0  0  0  0  0  0  0
  183.9500  178.2170  138.4200 C   0  0  0  0  0  0  0  0  0  0  0  0
  182.8880  178.1930  137.3970 C   0  0  0  0  0  0  0  0  0  0  0  0
  186.8920  178.4520  141.7200 C   0  0  0  0  0  0  0  0  0  0  0  0
  184.9250  177.8920  142.9680 N   0  0  0  0  0  0  0  0  0  0  0  0
  180.8850  178.2350  135.4360 C   0  0  0  0  0  3  0  0  0  0  0  0
  187.0700  177.5060  143.9490 C   0  0  0  0  0  3  0  0  0  0  0  0
  184.1200  178.3070  141.9520 C   0  0  0  0  0  0  0  0  0  0  0  0
  182.6260  178.3130  142.1750 C   0  0  2  0  0  3  0  0  0  0  0  0
  182.4030  179.5020  139.9640 C   0  0  2  0  0  3  0  0  0  0  0  0
  182.0310  177.4570  135.2490 C   0  0  0  0  0  3  0  0  0  0  0  0
  189.0700  178.0730  142.7020 C   0  0  0  0  0  3  0  0  0  0  0  0
  186.2800  177.9440  142.8830 C   0  0  0  0  0  0  0  0  0  0  0  0
  183.0310  177.4370  136.2250 C   0  0  0  0  0  3  0  0  0  0  0  0
  188.2860  178.5140  141.6310 C   0  0  0  0  0  3  0  0  0  0  0  0
  181.8220  178.4110  140.8770 C   0  0  1  0  0  3  0  0  0  0  0  0
  181.5530  179.7120  138.7930 N   0  0  0  0  0  2  0  0  0  0  0  0
  186.0930  178.8780  140.6630 C   0  0  0  0  0  3  0  0  0  0  0  0
  184.9590  177.4700  138.2930 O   0  0  0  0  0  0  0  0  0  0  0  0
  180.7330  178.9870  136.6040 C   0  0  0  0  0  3  0  0  0  0  0  0
  183.8640  179.2080  139.5650 C   0  0  1  0  0  3  0  0  0  0  0  0
  181.7260  178.9610  137.5890 C   0  0  0  0  0  0  0  0  0  0  0  0
  180.8330  179.5480  143.1700 O   0  0  0  0  0  1  0  0  0  0  0  0
  182.2230  179.4460  143.1090 C   0  0  0  0  0  2  0  0  0  0  0  0
  180.4640  176.7510  140.3220 C   0  0  0  0  0  1  0  0  0  0  0  0
  181.7930  177.1670  140.2370 O   0  0  0  0  0  0  0  0  0  0  0  0
  189.3040  177.0860  144.9870 C   0  0  0  0  0  2  0  0  0  0  0  0
  188.5420  177.0840  146.1860 O   0  0  0  0  0  0  0  0  0  0  0  0
  189.1010  177.4040  147.4250 C   0  0  0  0  0  0  0  0  0  0  0  0
  190.2880  177.0680  147.6720 O   0  0  0  0  0  0  0  0  0  0  0  0
  188.3240  178.1370  148.4680 C   0  0  0  0  0  1  0  0  0  0  0  0
  1  8  1  0  0  0  0
  1 28  1  0  0  0  0
  2  9  1  0  0  0  0
  4 23  1  0  0  0  0
  4  3  1  0  0  0  0
  5 14  1  0  0  0  0
  7 21  1  0  0  0  0
  9 10  1  0  0  0  0
  9  6  2  0  0  0  0
 10 25  1  1  0  0  0
 11 18  1  6  0  0  0
 11 17  1  0  0  0  0
 12  7  2  0  0  0  0
 12 15  1  0  0  0  0
 13  1  2  0  0  0  0
 14  6  1  0  0  0  0
 14  8  2  0  0  0  0
 15  4  2  0  0  0  0
 16  5  2  0  0  0  0
 16 13  1  0  0  0  0
 17 27  1  6  0  0  0
 17 10  1  0  0  0  0
 19  2  2  0  0  0  0
 19  5  1  0  0  0  0
 20  3  2  0  0  0  0
 21 23  2  0  0  0  0
 22  3  1  6  0  0  0
 22 11  1  0  0  0  0
 22  2  1  0  0  0  0
 23 18  1  0  0  0  0
 25 24  1  0  0  0  0
 27 26  1  0  0  0  0
 28 29  1  0  0  0  0
 29 30  1  0  0  0  0
 30 31  2  0  0  0  0
 30 32  1  0  0  0  0
M  END
>  <MODEL>
2

>  <REMARK>
 VINA RESULT:      -7.4      4.508      9.611
  Name = 
  5 active torsions:
  status: ('A' for Active; 'I' for Inactive)
    1  A    between atoms: C_1  and  O_10
    2  A    between atoms: C_2  and  C_24
    3  A    between atoms: O_10  and  C_24
    4  A    between atoms: C_13  and  C_15
    5  A    between atoms: O_25  and  C_26
                            x       y       z     vdW  Elec       q    Type
                         _______ _______ _______ _____ _____    ______ ____

>  <TORSDO>
F 5

$$$$
=
 OpenBabel10262421393D

 32 36  0  0  1  0  0  0  0  0999 V2000
  181.7580  178.6520  142.3110 C   0  0  0  0  0  0  0  0  0  0  0  0
  186.5880  178.4890  143.7080 C   0  0  0  0  0  0  0  0  0  0  0  0
  187.9460  177.5020  145.5950 C   0  0  0  0  0  0  0  0  0  0  0  0
  189.2550  177.0880  146.1330 C   0  0  0  0  0  0  0  0  0  0  0  0
  184.1960  178.8520  143.6680 C   0  0  0  0  0  0  0  0  0  0  0  0
  185.3000  177.8840  141.7740 N   0  0  0  0  0  0  0  0  0  0  0  0
  191.7610  176.3880  147.1780 C   0  0  0  0  0  3  0  0  0  0  0  0
  182.9330  178.2040  141.6980 C   0  0  0  0  0  3  0  0  0  0  0  0
  186.5080  177.9620  142.3960 C   0  0  0  0  0  0  0  0  0  0  0  0
  187.7430  177.5710  141.6180 C   0  0  2  0  0  3  0  0  0  0  0  0
  189.1110  178.4410  143.5480 C   0  0  2  0  0  3  0  0  0  0  0  0
  190.5940  175.9460  147.8060 C   0  0  0  0  0  3  0  0  0  0  0  0
  181.8010  179.1880  143.6030 C   0  0  0  0  0  3  0  0  0  0  0  0
  184.1530  178.3030  142.3710 C   0  0  0  0  0  0  0  0  0  0  0  0
  189.3440  176.2970  147.2870 C   0  0  0  0  0  3  0  0  0  0  0  0
  183.0200  179.2910  144.2820 C   0  0  0  0  0  3  0  0  0  0  0  0
  188.9630  177.3210  142.5070 C   0  0  1  0  0  3  0  0  0  0  0  0
  190.3560  178.2970  144.3000 N   0  0  0  0  0  2  0  0  0  0  0  0
  185.4170  178.9390  144.3290 C   0  0  0  0  0  3  0  0  0  0  0  0
  186.8860  177.0570  146.1150 O   0  0  0  0  0  0  0  0  0  0  0  0
  191.6800  177.1730  146.0230 C   0  0  0  0  0  3  0  0  0  0  0  0
  187.8860  178.5300  144.4820 C   0  0  1  0  0  3  0  0  0  0  0  0
  190.4320  177.5150  145.4950 C   0  0  0  0  0  0  0  0  0  0  0  0
  187.4170  178.3580  139.3810 O   0  0  0  0  0  1  0  0  0  0  0  0
  188.0830  178.6280  140.5760 C   0  0  0  0  0  2  0  0  0  0  0  0
  190.0790  175.4370  142.8440 C   0  0  0  0  0  1  0  0  0  0  0  0
  188.8630  176.0640  143.1150 O   0  0  0  0  0  0  0  0  0  0  0  0
  180.4550  178.5210  141.6040 C   0  0  0  0  0  2  0  0  0  0  0  0
  180.4640  179.3290  140.4350 O   0  0  0  0  0  0  0  0  0  0  0  0
  180.0210  180.6540  140.4410 C   0  0  0  0  0  0  0  0  0  0  0  0
  179.6800  181.1840  141.5300 O   0  0  0  0  0  0  0  0  0  0  0  0
  179.9430  181.4580  139.1860 C   0  0  0  0  0  1  0  0  0  0  0  0
  1 13  1  0  0  0  0
  2 19  1  0  0  0  0
  3 20  2  0  0  0  0
  3  4  1  0  0  0  0
  4 15  1  0  0  0  0
  5 16  1  0  0  0  0
  5 19  2  0  0  0  0
  6 14  2  0  0  0  0
  6  9  1  0  0  0  0
  7 12  1  0  0  0  0
  8  1  2  0  0  0  0
  8 14  1  0  0  0  0
  9  2  2  0  0  0  0
 10 25  1  6  0  0  0
 10  9  1  0  0  0  0
 10 17  1  0  0  0  0
 11 18  1  1  0  0  0
 11 22  1  0  0  0  0
 13 16  2  0  0  0  0
 14  5  1  0  0  0  0
 15 12  2  0  0  0  0
 17 27  1  1  0  0  0
 17 11  1  0  0  0  0
 18 23  1  0  0  0  0
 21  7  2  0  0  0  0
 22  2  1  6  0  0  0
 22  3  1  0  0  0  0
 23 21  1  0  0  0  0
 23  4  2  0  0  0  0
 24 25  1  0  0  0  0
 26 27  1  0  0  0  0
 28  1  1  0  0  0  0
 29 30  1  0  0  0  0
 29 28  1  0  0  0  0
 30 31  2  0  0  0  0
 32 30  1  0  0  0  0
M  END
>  <MODEL>
3

>  <REMARK>
 VINA RESULT:      -7.2      4.269      5.899
  Name = 
  5 active torsions:
  status: ('A' for Active; 'I' for Inactive)
    1  A    between atoms: C_1  and  O_10
    2  A    between atoms: C_2  and  C_24
    3  A    between atoms: O_10  and  C_24
    4  A    between atoms: C_13  and  C_15
    5  A    between atoms: O_25  and  C_26
                            x       y       z     vdW  Elec       q    Type
                         _______ _______ _______ _____ _____    ______ ____

>  <TORSDO>
F 5

$$$$
=
 OpenBabel10262421393D

 32 36  0  0  1  0  0  0  0  0999 V2000
  185.2020  178.5810  144.8870 C   0  0  0  0  0  0  0  0  0  0  0  0
  182.7940  178.4820  140.4700 C   0  0  0  0  0  0  0  0  0  0  0  0
  182.5330  176.8870  138.5300 C   0  0  0  0  0  0  0  0  0  0  0  0
  181.7940  176.4660  137.3250 C   0  0  0  0  0  0  0  0  0  0  0  0
  184.5040  178.4290  142.1820 C   0  0  0  0  0  0  0  0  0  0  0  0
  182.2110  178.7780  142.7800 N   0  0  0  0  0  0  0  0  0  0  0  0
  180.4330  175.7320  134.9860 C   0  0  0  0  0  3  0  0  0  0  0  0
  183.8620  178.7110  144.5070 C   0  0  0  0  0  3  0  0  0  0  0  0
  181.8240  178.7100  141.4770 C   0  0  0  0  0  0  0  0  0  0  0  0
  180.3770  178.9840  141.1410 C   0  0  2  0  0  3  0  0  0  0  0  0
  181.0360  178.9240  138.7090 C   0  0  2  0  0  3  0  0  0  0  0  0
  181.3450  174.8500  135.5700 C   0  0  0  0  0  3  0  0  0  0  0  0
  186.1880  178.3650  143.9170 C   0  0  0  0  0  3  0  0  0  0  0  0
  183.5080  178.6370  143.1570 C   0  0  0  0  0  0  0  0  0  0  0  0
  182.0260  175.2160  136.7350 C   0  0  0  0  0  3  0  0  0  0  0  0
  185.8410  178.2910  142.5640 C   0  0  0  0  0  3  0  0  0  0  0  0
  179.9800  178.5040  139.7430 C   0  0  1  0  0  3  0  0  0  0  0  0
  180.5930  178.6090  137.3520 N   0  0  0  0  0  2  0  0  0  0  0  0
  184.1370  178.3510  140.8420 C   0  0  0  0  0  3  0  0  0  0  0  0
  183.3110  176.0750  139.1030 O   0  0  0  0  0  0  0  0  0  0  0  0
  180.1920  176.9790  135.5720 C   0  0  0  0  0  3  0  0  0  0  0  0
  182.4210  178.3200  139.0140 C   0  0  1  0  0  3  0  0  0  0  0  0
  180.8630  177.3440  136.7430 C   0  0  0  0  0  0  0  0  0  0  0  0
  179.9020  180.8040  142.6210 O   0  0  0  0  0  1  0  0  0  0  0  0
  180.0600  180.4670  141.2770 C   0  0  0  0  0  2  0  0  0  0  0  0
  178.9310  176.8780  140.8210 C   0  0  0  0  0  1  0  0  0  0  0  0
  179.7910  177.1170  139.7490 O   0  0  0  0  0  0  0  0  0  0  0  0
  185.5730  178.6340  146.3260 C   0  0  0  0  0  2  0  0  0  0  0  0
  186.3870  177.5160  146.6500 O   0  0  0  0  0  0  0  0  0  0  0  0
  187.7030  177.6550  147.0970 C   0  0  0  0  0  0  0  0  0  0  0  0
  188.6510  177.3530  146.3270 O   0  0  0  0  0  0  0  0  0  0  0  0
  188.0150  178.1570  148.4680 C   0  0  0  0  0  1  0  0  0  0  0  0
  1 28  1  0  0  0  0
  2 19  2  0  0  0  0
  2  9  1  0  0  0  0
  3 20  2  0  0  0  0
  4  3  1  0  0  0  0
  5 16  2  0  0  0  0
  5 14  1  0  0  0  0
  6 14  1  0  0  0  0
  7 12  2  0  0  0  0
  7 21  1  0  0  0  0
  8  1  1  0  0  0  0
  9  6  2  0  0  0  0
 10 25  1  6  0  0  0
 10  9  1  0  0  0  0
 11 18  1  6  0  0  0
 11 22  1  0  0  0  0
 11 17  1  0  0  0  0
 12 15  1  0  0  0  0
 13  1  2  0  0  0  0
 14  8  2  0  0  0  0
 15  4  2  0  0  0  0
 16 13  1  0  0  0  0
 17 27  1  1  0  0  0
 17 10  1  0  0  0  0
 19  5  1  0  0  0  0
 21 23  2  0  0  0  0
 22  3  1  1  0  0  0
 22  2  1  0  0  0  0
 23  4  1  0  0  0  0
 23 18  1  0  0  0  0
 25 24  1  0  0  0  0
 27 26  1  0  0  0  0
 28 29  1  0  0  0  0
 29 30  1  0  0  0  0
 30 32  1  0  0  0  0
 31 30  2  0  0  0  0
M  END
>  <MODEL>
4

>  <REMARK>
 VINA RESULT:      -7.0      5.588     10.637
  Name = 
  5 active torsions:
  status: ('A' for Active; 'I' for Inactive)
    1  A    between atoms: C_1  and  O_10
    2  A    between atoms: C_2  and  C_24
    3  A    between atoms: O_10  and  C_24
    4  A    between atoms: C_13  and  C_15
    5  A    between atoms: O_25  and  C_26
                            x       y       z     vdW  Elec       q    Type
                         _______ _______ _______ _____ _____    ______ ____

>  <TORSDO>
F 5

$$$$
=
 OpenBabel10262421393D

 32 36  0  0  1  0  0  0  0  0999 V2000
  188.2200  177.6730  145.3680 C   0  0  0  0  0  0  0  0  0  0  0  0
  189.0430  177.9220  140.4110 C   0  0  0  0  0  0  0  0  0  0  0  0
  190.4540  176.7170  138.6970 C   0  0  0  0  0  0  0  0  0  0  0  0
  190.7310  176.3910  137.2860 C   0  0  0  0  0  0  0  0  0  0  0  0
  189.3360  177.9050  142.8130 C   0  0  0  0  0  0  0  0  0  0  0  0
  187.1540  177.6270  141.8630 N   0  0  0  0  0  0  0  0  0  0  0  0
  191.2990  175.8510  134.5940 C   0  0  0  0  0  3  0  0  0  0  0  0
  187.3980  177.5820  144.2400 C   0  0  0  0  0  3  0  0  0  0  0  0
  187.6520  177.7340  140.6010 C   0  0  0  0  0  0  0  0  0  0  0  0
  186.6800  177.7490  139.4440 C   0  0  2  0  0  3  0  0  0  0  0  0
  188.6290  178.3090  137.9470 C   0  0  2  0  0  3  0  0  0  0  0  0
  191.8980  175.0900  135.6010 C   0  0  0  0  0  3  0  0  0  0  0  0
  189.5990  177.8680  145.2180 C   0  0  0  0  0  3  0  0  0  0  0  0
  187.9500  177.6990  142.9620 C   0  0  0  0  0  0  0  0  0  0  0  0
  191.6170  175.3590  136.9440 C   0  0  0  0  0  3  0  0  0  0  0  0
  190.1570  177.9870  143.9410 C   0  0  0  0  0  3  0  0  0  0  0  0
  187.3460  177.4770  138.0930 C   0  0  1  0  0  3  0  0  0  0  0  0
  189.1890  178.1770  136.6030 N   0  0  0  0  0  2  0  0  0  0  0  0
  189.8730  178.0120  141.5340 C   0  0  0  0  0  3  0  0  0  0  0  0
  190.9370  175.9960  139.6130 O   0  0  0  0  0  0  0  0  0  0  0  0
  190.4100  176.8780  134.9280 C   0  0  0  0  0  3  0  0  0  0  0  0
  189.6680  177.9690  139.0350 C   0  0  1  0  0  3  0  0  0  0  0  0
  190.1180  177.1430  136.2690 C   0  0  0  0  0  0  0  0  0  0  0  0
  184.8240  178.9620  138.5430 O   0  0  0  0  0  1  0  0  0  0  0  0
  185.9310  179.0730  139.3830 C   0  0  0  0  0  2  0  0  0  0  0  0
  186.7600  175.6900  136.9220 C   0  0  0  0  0  1  0  0  0  0  0  0
  187.6020  176.1090  137.9530 O   0  0  0  0  0  0  0  0  0  0  0  0
  187.6360  177.5230  146.7280 C   0  0  0  0  0  2  0  0  0  0  0  0
  186.2190  177.4680  146.6350 O   0  0  0  0  0  0  0  0  0  0  0  0
  185.4300  178.6200  146.5850 C   0  0  0  0  0  0  0  0  0  0  0  0
  185.7080  179.5890  147.3370 O   0  0  0  0  0  0  0  0  0  0  0  0
  184.2640  178.7300  145.6610 C   0  0  0  0  0  1  0  0  0  0  0  0
  1 28  1  0  0  0  0
  2  9  2  0  0  0  0
  2 19  1  0  0  0  0
  3 20  2  0  0  0  0
  4  3  1  0  0  0  0
  5 14  1  0  0  0  0
  5 16  1  0  0  0  0
  6 14  2  0  0  0  0
  7 21  2  0  0  0  0
  7 12  1  0  0  0  0
  8  1  2  0  0  0  0
  9  6  1  0  0  0  0
 10 25  1  6  0  0  0
 10  9  1  0  0  0  0
 11 18  1  6  0  0  0
 11 17  1  0  0  0  0
 11 22  1  0  0  0  0
 12 15  2  0  0  0  0
 13  1  1  0  0  0  0
 14  8  1  0  0  0  0
 15  4  1  0  0  0  0
 16 13  2  0  0  0  0
 17 27  1  1  0  0  0
 17 10  1  0  0  0  0
 19  5  2  0  0  0  0
 21 23  1  0  0  0  0
 22  3  1  6  0  0  0
 22  2  1  0  0  0  0
 23 18  1  0  0  0  0
 23  4  2  0  0  0  0
 24 25  1  0  0  0  0
 26 27  1  0  0  0  0
 29 28  1  0  0  0  0
 30 29  1  0  0  0  0
 30 31  2  0  0  0  0
 32 30  1  0  0  0  0
M  END
>  <MODEL>
5

>  <REMARK>
 VINA RESULT:      -6.7      2.532      8.334
  Name = 
  5 active torsions:
  status: ('A' for Active; 'I' for Inactive)
    1  A    between atoms: C_1  and  O_10
    2  A    between atoms: C_2  and  C_24
    3  A    between atoms: O_10  and  C_24
    4  A    between atoms: C_13  and  C_15
    5  A    between atoms: O_25  and  C_26
                            x       y       z     vdW  Elec       q    Type
                         _______ _______ _______ _____ _____    ______ ____

>  <TORSDO>
F 5

$$$$
=
 OpenBabel10262421393D

 32 36  0  0  1  0  0  0  0  0999 V2000
  189.8900  177.6620  143.5240 C   0  0  0  0  0  0  0  0  0  0  0  0
  192.0600  176.7910  139.0690 C   0  0  0  0  0  0  0  0  0  0  0  0
  194.1230  175.6200  138.2020 C   0  0  0  0  0  0  0  0  0  0  0  0
  194.8610  175.0180  137.0760 C   0  0  0  0  0  0  0  0  0  0  0  0
  191.6340  177.5030  141.3420 C   0  0  0  0  0  0  0  0  0  0  0  0
  189.9280  176.3780  140.0930 N   0  0  0  0  0  0  0  0  0  0  0  0
  196.2880  173.9590  134.9080 C   0  0  0  0  0  3  0  0  0  0  0  0
  189.4690  177.0440  142.3420 C   0  0  0  0  0  3  0  0  0  0  0  0
  190.7420  176.2780  139.0060 C   0  0  0  0  0  0  0  0  0  0  0  0
  190.1690  175.7070  137.7300 C   0  0  2  0  0  3  0  0  0  0  0  0
  192.3170  176.3700  136.5900 C   0  0  2  0  0  3  0  0  0  0  0  0
  196.7060  173.6960  136.2150 C   0  0  0  0  0  3  0  0  0  0  0  0
  191.1830  178.1900  143.6180 C   0  0  0  0  0  3  0  0  0  0  0  0
  190.3360  176.9630  141.2480 C   0  0  0  0  0  0  0  0  0  0  0  0
  195.9960  174.2260  137.2970 C   0  0  0  0  0  3  0  0  0  0  0  0
  192.0550  178.1140  142.5270 C   0  0  0  0  0  3  0  0  0  0  0  0
  191.2420  175.2820  136.7240 C   0  0  1  0  0  3  0  0  0  0  0  0
  193.2600  176.0460  135.5210 N   0  0  0  0  0  2  0  0  0  0  0  0
  192.4890  177.4110  140.2480 C   0  0  0  0  0  3  0  0  0  0  0  0
  194.4510  175.3380  139.3880 O   0  0  0  0  0  0  0  0  0  0  0  0
  195.1540  174.7430  134.6800 C   0  0  0  0  0  3  0  0  0  0  0  0
  193.0380  176.6420  137.9260 C   0  0  1  0  0  3  0  0  0  0  0  0
  194.4340  175.2650  135.7590 C   0  0  0  0  0  0  0  0  0  0  0  0
  188.2190  176.0200  136.3780 O   0  0  0  0  0  1  0  0  0  0  0  0
  189.2210  176.6990  137.0710 C   0  0  0  0  0  2  0  0  0  0  0  0
  191.3620  173.1480  136.1410 C   0  0  0  0  0  1  0  0  0  0  0  0
  191.7970  174.0550  137.1070 O   0  0  0  0  0  0  0  0  0  0  0  0
  188.9750  177.7230  144.6950 C   0  0  0  0  0  2  0  0  0  0  0  0
  189.3660  176.7530  145.6570 O   0  0  0  0  0  0  0  0  0  0  0  0
  189.8590  177.1060  146.9150 C   0  0  0  0  0  0  0  0  0  0  0  0
  191.0270  176.7670  147.2350 O   0  0  0  0  0  0  0  0  0  0  0  0
  189.0340  177.8770  147.8900 C   0  0  0  0  0  1  0  0  0  0  0  0
  1 13  1  0  0  0  0
  1 28  1  0  0  0  0
  2 19  1  0  0  0  0
  3 20  2  0  0  0  0
  4 15  1  0  0  0  0
  4  3  1  0  0  0  0
  5 16  1  0  0  0  0
  6 14  2  0  0  0  0
  7 12  1  0  0  0  0
  8  1  2  0  0  0  0
  9  2  2  0  0  0  0
  9  6  1  0  0  0  0
 10 25  1  6  0  0  0
 10  9  1  0  0  0  0
 11 18  1  6  0  0  0
 11 17  1  0  0  0  0
 11 22  1  0  0  0  0
 12 15  2  0  0  0  0
 14  5  1  0  0  0  0
 14  8  1  0  0  0  0
 16 13  2  0  0  0  0
 17 27  1  1  0  0  0
 17 10  1  0  0  0  0
 18 23  1  0  0  0  0
 19  5  2  0  0  0  0
 21  7  2  0  0  0  0
 21 23  1  0  0  0  0
 22  3  1  1  0  0  0
 22  2  1  0  0  0  0
 23  4  2  0  0  0  0
 24 25  1  0  0  0  0
 26 27  1  0  0  0  0
 28 29  1  0  0  0  0
 29 30  1  0  0  0  0
 30 31  2  0  0  0  0
 30 32  1  0  0  0  0
M  END
>  <MODEL>
6

>  <REMARK>
 VINA RESULT:      -6.4      3.559      8.862
  Name = 
  5 active torsions:
  status: ('A' for Active; 'I' for Inactive)
    1  A    between atoms: C_1  and  O_10
    2  A    between atoms: C_2  and  C_24
    3  A    between atoms: O_10  and  C_24
    4  A    between atoms: C_13  and  C_15
    5  A    between atoms: O_25  and  C_26
                            x       y       z     vdW  Elec       q    Type
                         _______ _______ _______ _____ _____    ______ ____

>  <TORSDO>
F 5

$$$$
=
 OpenBabel10262421393D

 32 36  0  0  1  0  0  0  0  0999 V2000
  189.5650  178.0530  144.3620 C   0  0  0  0  0  0  0  0  0  0  0  0
  185.1560  177.8610  141.9440 C   0  0  0  0  0  0  0  0  0  0  0  0
  182.8100  178.7330  142.2830 C   0  0  0  0  0  0  0  0  0  0  0  0
  181.4820  179.0480  141.7250 C   0  0  0  0  0  0  0  0  0  0  0  0
  186.8960  177.6690  143.6160 C   0  0  0  0  0  0  0  0  0  0  0  0
  187.3970  178.5730  141.4550 N   0  0  0  0  0  0  0  0  0  0  0  0
  178.9350  179.5600  140.6710 C   0  0  0  0  0  3  0  0  0  0  0  0
  189.1410  178.4220  143.0810 C   0  0  0  0  0  3  0  0  0  0  0  0
  186.1090  178.4050  141.0480 C   0  0  0  0  0  0  0  0  0  0  0  0
  185.7630  178.7140  139.6100 C   0  0  2  0  0  3  0  0  0  0  0  0
  183.4840  177.7320  140.0530 C   0  0  2  0  0  3  0  0  0  0  0  0
  179.2920  180.0770  141.9190 C   0  0  0  0  0  3  0  0  0  0  0  0
  188.6530  177.5030  145.2710 C   0  0  0  0  0  3  0  0  0  0  0  0
  187.8100  178.2310  142.7030 C   0  0  0  0  0  0  0  0  0  0  0  0
  180.5610  179.8210  142.4460 C   0  0  0  0  0  3  0  0  0  0  0  0
  187.3190  177.3080  144.8980 C   0  0  0  0  0  3  0  0  0  0  0  0
  184.2590  178.8690  139.3700 C   0  0  1  0  0  3  0  0  0  0  0  0
  182.0660  177.7820  139.7030 N   0  0  0  0  0  2  0  0  0  0  0  0
  185.5710  177.4900  143.2280 C   0  0  0  0  0  3  0  0  0  0  0  0
  183.1680  179.2470  143.3790 O   0  0  0  0  0  0  0  0  0  0  0  0
  179.8510  178.7930  139.9430 C   0  0  0  0  0  3  0  0  0  0  0  0
  183.6960  177.7210  141.5810 C   0  0  1  0  0  3  0  0  0  0  0  0
  181.1250  178.5440  140.4620 C   0  0  0  0  0  0  0  0  0  0  0  0
  187.4330  178.1310  137.9970 O   0  0  0  0  0  1  0  0  0  0  0  0
  186.3170  177.6450  138.6780 C   0  0  0  0  0  2  0  0  0  0  0  0
  183.2730  180.7340  138.6940 C   0  0  0  0  0  1  0  0  0  0  0  0
  183.8310  180.1240  139.8170 O   0  0  0  0  0  0  0  0  0  0  0  0
  190.9760  178.2820  144.7720 C   0  0  0  0  0  2  0  0  0  0  0  0
  191.7940  177.2330  144.2720 O   0  0  0  0  0  0  0  0  0  0  0  0
  191.9630  176.0280  144.9560 C   0  0  0  0  0  0  0  0  0  0  0  0
  192.1130  174.9640  144.3020 O   0  0  0  0  0  0  0  0  0  0  0  0
  191.9720  175.9700  146.4480 C   0  0  0  0  0  1  0  0  0  0  0  0
  1 28  1  0  0  0  0
  1 13  1  0  0  0  0
  2 19  1  0  0  0  0
  3 20  2  0  0  0  0
  4  3  1  0  0  0  0
  4 15  1  0  0  0  0
  5 16  1  0  0  0  0
  6 14  2  0  0  0  0
  7 12  1  0  0  0  0
  8  1  2  0  0  0  0
  9  6  1  0  0  0  0
  9  2  2  0  0  0  0
 10 25  1  6  0  0  0
 10  9  1  0  0  0  0
 11 18  1  1  0  0  0
 11 22  1  0  0  0  0
 12 15  2  0  0  0  0
 14  8  1  0  0  0  0
 14  5  1  0  0  0  0
 16 13  2  0  0  0  0
 17 10  1  0  0  0  0
 17 27  1  1  0  0  0
 17 11  1  0  0  0  0
 18 23  1  0  0  0  0
 19  5  2  0  0  0  0
 21 23  1  0  0  0  0
 21  7  2  0  0  0  0
 22  2  1  6  0  0  0
 22  3  1  0  0  0  0
 23  4  2  0  0  0  0
 24 25  1  0  0  0  0
 26 27  1  0  0  0  0
 29 28  1  0  0  0  0
 29 30  1  0  0  0  0
 30 32  1  0  0  0  0
 31 30  2  0  0  0  0
M  END
>  <MODEL>
7

>  <REMARK>
 VINA RESULT:      -6.3      4.446      8.320
  Name = 
  5 active torsions:
  status: ('A' for Active; 'I' for Inactive)
    1  A    between atoms: C_1  and  O_10
    2  A    between atoms: C_2  and  C_24
    3  A    between atoms: O_10  and  C_24
    4  A    between atoms: C_13  and  C_15
    5  A    between atoms: O_25  and  C_26
                            x       y       z     vdW  Elec       q    Type
                         _______ _______ _______ _____ _____    ______ ____

>  <TORSDO>
F 5

$$$$
=
 OpenBabel10262421393D

 32 36  0  0  1  0  0  0  0  0999 V2000
  184.9540  177.8870  137.4680 C   0  0  0  0  0  0  0  0  0  0  0  0
  188.0410  178.2530  141.4250 C   0  0  0  0  0  0  0  0  0  0  0  0
  187.9390  177.8140  143.9090 C   0  0  0  0  0  0  0  0  0  0  0  0
  188.6410  177.5940  145.1880 C   0  0  0  0  0  0  0  0  0  0  0  0
  186.1700  178.5060  139.9110 C   0  0  0  0  0  0  0  0  0  0  0  0
  188.0410  177.1420  139.2960 N   0  0  0  0  0  0  0  0  0  0  0  0
  189.9860  177.2670  147.6260 C   0  0  0  0  0  3  0  0  0  0  0  0
  186.2060  177.3450  137.7780 C   0  0  0  0  0  3  0  0  0  0  0  0
  188.6700  177.4150  140.4720 C   0  0  0  0  0  0  0  0  0  0  0  0
  190.0720  176.8900  140.6750 C   0  0  2  0  0  3  0  0  0  0  0  0
  190.1690  178.2600  142.7890 C   0  0  2  0  0  3  0  0  0  0  0  0
  188.6290  176.9520  147.5290 C   0  0  0  0  0  3  0  0  0  0  0  0
  184.3070  178.7270  138.3820 C   0  0  0  0  0  3  0  0  0  0  0  0
  186.8180  177.6520  138.9960 C   0  0  0  0  0  0  0  0  0  0  0  0
  187.9560  177.1170  146.3140 C   0  0  0  0  0  3  0  0  0  0  0  0
  184.9150  179.0400  139.6030 C   0  0  0  0  0  3  0  0  0  0  0  0
  190.5190  176.9130  142.1390 C   0  0  1  0  0  3  0  0  0  0  0  0
  190.7280  178.3520  144.1360 N   0  0  0  0  0  2  0  0  0  0  0  0
  186.7880  178.7990  141.1230 C   0  0  0  0  0  3  0  0  0  0  0  0
  186.7300  177.4720  143.7920 O   0  0  0  0  0  0  0  0  0  0  0  0
  190.6770  177.7390  146.5050 C   0  0  0  0  0  3  0  0  0  0  0  0
  188.6510  178.5320  142.7790 C   0  0  1  0  0  3  0  0  0  0  0  0
  190.0110  177.8940  145.2850 C   0  0  0  0  0  0  0  0  0  0  0  0
  191.8660  176.7910  139.0930 O   0  0  0  0  0  1  0  0  0  0  0  0
  191.0700  177.6690  139.8280 C   0  0  0  0  0  2  0  0  0  0  0  0
  191.0220  175.0970  143.3040 C   0  0  0  0  0  1  0  0  0  0  0  0
  189.9420  175.8430  142.8320 O   0  0  0  0  0  0  0  0  0  0  0  0
  184.2920  177.5380  136.1830 C   0  0  0  0  0  2  0  0  0  0  0  0
  183.1520  176.7300  136.4370 O   0  0  0  0  0  0  0  0  0  0  0  0
  181.8500  177.2300  136.3570 C   0  0  0  0  0  0  0  0  0  0  0  0
  180.9700  176.7850  137.1370 O   0  0  0  0  0  0  0  0  0  0  0  0
  181.4770  178.2830  135.3670 C   0  0  0  0  0  1  0  0  0  0  0  0
  1  8  2  0  0  0  0
  1 13  1  0  0  0  0
  3  4  1  0  0  0  0
  4 23  2  0  0  0  0
  4 15  1  0  0  0  0
  5 19  2  0  0  0  0
  6  9  1  0  0  0  0
  8 14  1  0  0  0  0
  9 10  1  0  0  0  0
  9  2  2  0  0  0  0
 10 25  1  6  0  0  0
 10 17  1  0  0  0  0
 11 18  1  1  0  0  0
 12  7  1  0  0  0  0
 13 16  2  0  0  0  0
 14  6  2  0  0  0  0
 14  5  1  0  0  0  0
 15 12  2  0  0  0  0
 16  5  1  0  0  0  0
 17 11  1  0  0  0  0
 17 27  1  1  0  0  0
 18 23  1  0  0  0  0
 19  2  1  0  0  0  0
 20  3  2  0  0  0  0
 21  7  2  0  0  0  0
 22  2  1  6  0  0  0
 22 11  1  0  0  0  0
 22  3  1  0  0  0  0
 23 21  1  0  0  0  0
 24 25  1  0  0  0  0
 27 26  1  0  0  0  0
 28 29  1  0  0  0  0
 28  1  1  0  0  0  0
 30 29  1  0  0  0  0
 30 31  2  0  0  0  0
 32 30  1  0  0  0  0
M  END
>  <MODEL>
8

>  <REMARK>
 VINA RESULT:      -6.0      2.123      2.628
  Name = 
  5 active torsions:
  status: ('A' for Active; 'I' for Inactive)
    1  A    between atoms: C_1  and  O_10
    2  A    between atoms: C_2  and  C_24
    3  A    between atoms: O_10  and  C_24
    4  A    between atoms: C_13  and  C_15
    5  A    between atoms: O_25  and  C_26
                            x       y       z     vdW  Elec       q    Type
                         _______ _______ _______ _____ _____    ______ ____

>  <TORSDO>
F 5

$$$$
=
 OpenBabel10262421393D

 32 36  0  0  1  0  0  0  0  0999 V2000
  182.0030  178.1140  139.6640 C   0  0  0  0  0  0  0  0  0  0  0  0
  186.4030  177.2790  137.3710 C   0  0  0  0  0  0  0  0  0  0  0  0
  188.8420  177.1560  138.0160 C   0  0  0  0  0  0  0  0  0  0  0  0
  190.2180  176.7340  137.6960 C   0  0  0  0  0  0  0  0  0  0  0  0
  184.6060  178.2750  138.6500 C   0  0  0  0  0  0  0  0  0  0  0  0
  184.3100  176.1310  137.6230 N   0  0  0  0  0  0  0  0  0  0  0  0
  192.8430  176.0060  137.0330 C   0  0  0  0  0  3  0  0  0  0  0  0
  182.5150  177.0650  138.8940 C   0  0  0  0  0  3  0  0  0  0  0  0
  185.5700  176.1650  137.1090 C   0  0  0  0  0  0  0  0  0  0  0  0
  186.0000  175.0480  136.1870 C   0  0  2  0  0  3  0  0  0  0  0  0
  188.0930  176.3740  135.7240 C   0  0  2  0  0  3  0  0  0  0  0  0
  192.5310  176.3780  138.3430 C   0  0  0  0  0  3  0  0  0  0  0  0
  182.7950  179.2370  139.9340 C   0  0  0  0  0  3  0  0  0  0  0  0
  183.8130  177.1400  138.3840 C   0  0  0  0  0  0  0  0  0  0  0  0
  191.2230  176.7430  138.6740 C   0  0  0  0  0  3  0  0  0  0  0  0
  184.0960  179.3190  139.4260 C   0  0  0  0  0  3  0  0  0  0  0  0
  187.5170  174.9760  135.9930 C   0  0  1  0  0  3  0  0  0  0  0  0
  189.5130  176.2980  135.3830 N   0  0  0  0  0  2  0  0  0  0  0  0
  185.9000  178.3340  138.1410 C   0  0  0  0  0  3  0  0  0  0  0  0
  188.5330  177.4310  139.2080 O   0  0  0  0  0  0  0  0  0  0  0  0
  191.8460  175.9890  136.0530 C   0  0  0  0  0  3  0  0  0  0  0  0
  187.8370  177.3430  136.8960 C   0  0  1  0  0  3  0  0  0  0  0  0
  190.5340  176.3420  136.3830 C   0  0  0  0  0  0  0  0  0  0  0  0
  184.4690  174.0900  134.6160 O   0  0  0  0  0  1  0  0  0  0  0  0
  185.3210  175.1740  134.8300 C   0  0  0  0  0  2  0  0  0  0  0  0
  188.3430  173.0570  136.7300 C   0  0  0  0  0  1  0  0  0  0  0  0
  188.1140  174.3800  137.1100 O   0  0  0  0  0  0  0  0  0  0  0  0
  180.6300  178.0210  140.2280 C   0  0  0  0  0  2  0  0  0  0  0  0
  180.4810  178.9630  141.2810 O   0  0  0  0  0  0  0  0  0  0  0  0
  180.4960  178.5860  142.6260 C   0  0  0  0  0  0  0  0  0  0  0  0
  179.5590  177.8780  143.0770 O   0  0  0  0  0  0  0  0  0  0  0  0
  181.5970  179.0030  143.5430 C   0  0  0  0  0  1  0  0  0  0  0  0
  1 13  1  0  0  0  0
  1 28  1  0  0  0  0
  2 19  1  0  0  0  0
  3 20  2  0  0  0  0
  4  3  1  0  0  0  0
  4 15  1  0  0  0  0
  5 16  1  0  0  0  0
  6 14  2  0  0  0  0
  7 12  1  0  0  0  0
  8  1  2  0  0  0  0
  9  2  2  0  0  0  0
  9  6  1  0  0  0  0
 10 25  1  6  0  0  0
 10  9  1  0  0  0  0
 11 18  1  1  0  0  0
 11 17  1  0  0  0  0
 11 22  1  0  0  0  0
 12 15  2  0  0  0  0
 14  5  1  0  0  0  0
 14  8  1  0  0  0  0
 16 13  2  0  0  0  0
 17 10  1  0  0  0  0
 17 27  1  1  0  0  0
 18 23  1  0  0  0  0
 19  5  2  0  0  0  0
 21 23  1  0  0  0  0
 21  7  2  0  0  0  0
 22  2  1  1  0  0  0
 22  3  1  0  0  0  0
 23  4  2  0  0  0  0
 24 25  1  0  0  0  0
 26 27  1  0  0  0  0
 28 29  1  0  0  0  0
 29 30  1  0  0  0  0
 30 31  2  0  0  0  0
 30 32  1  0  0  0  0
M  END
>  <MODEL>
9

>  <REMARK>
 VINA RESULT:      -5.8      4.544      7.872
  Name = 
  5 active torsions:
  status: ('A' for Active; 'I' for Inactive)
    1  A    between atoms: C_1  and  O_10
    2  A    between atoms: C_2  and  C_24
    3  A    between atoms: O_10  and  C_24
    4  A    between atoms: C_13  and  C_15
    5  A    between atoms: O_25  and  C_26
                            x       y       z     vdW  Elec       q    Type
                         _______ _______ _______ _____ _____    ______ ____

>  <TORSDO>
F 5

$$$$
