=
 OpenBabel10262420083D

 27 30  0  0  0  0  0  0  0  0999 V2000
  187.2690  177.9520  145.5310 C   0  0  0  0  0  3  0  0  0  0  0  0
  186.8570  177.8850  144.2490 C   0  0  0  0  0  0  0  0  0  0  0  0
  187.9370  178.2700  142.0150 C   0  0  0  0  0  3  0  0  0  0  0  0
  190.4120  176.2730  140.0620 N   0  0  0  0  0  2  0  0  0  0  0  0
  191.2520  176.6690  137.9250 O   0  0  0  0  0  0  0  0  0  0  0  0
  188.5020  176.2740  143.2640 C   0  0  0  0  0  3  0  0  0  0  0  0
  189.0360  178.7920  139.8230 C   0  0  0  0  0  2  0  0  0  0  0  0
  189.3780  178.0190  138.5460 C   0  0  0  0  0  2  0  0  0  0  0  0
  188.7980  177.8770  140.9890 C   0  0  0  0  0  0  0  0  0  0  0  0
  190.4180  176.9740  138.8160 C   0  0  0  0  0  0  0  0  0  0  0  0
  189.5280  176.6800  141.1100 C   0  0  0  0  0  0  0  0  0  0  0  0
  187.7780  177.4710  143.1580 C   0  0  0  0  0  0  0  0  0  0  0  0
  189.3760  175.8820  142.2460 C   0  0  0  0  0  3  0  0  0  0  0  0
  187.6260  176.8020  148.2210 N   0  0  0  0  0  1  0  0  0  0  0  0
  191.1200  176.7500  146.9560 C   0  0  0  0  0  0  0  0  0  0  0  0
  192.4670  176.3370  147.4290 C   0  0  0  0  0  1  0  0  0  0  0  0
  188.5770  177.5150  146.0540 C   0  0  0  0  0  0  0  0  0  0  0  0
  190.0050  176.5620  147.7760 C   0  0  0  0  0  3  0  0  0  0  0  0
  190.9730  177.3430  145.7000 C   0  0  0  0  0  3  0  0  0  0  0  0
  189.7060  177.7300  145.2550 C   0  0  0  0  0  3  0  0  0  0  0  0
  188.7340  176.9470  147.3370 C   0  0  0  0  0  0  0  0  0  0  0  0
  182.8220  179.0650  143.3320 C   0  0  0  0  0  3  0  0  0  0  0  0
  185.4640  178.3000  143.9290 C   0  0  0  0  0  0  0  0  0  0  0  0
  184.6120  178.7860  144.9360 C   0  0  0  0  0  3  0  0  0  0  0  0
  183.3000  179.1680  144.6390 C   0  0  0  0  0  3  0  0  0  0  0  0
  183.6540  178.5800  142.3200 C   0  0  0  0  0  3  0  0  0  0  0  0
  184.9650  178.1990  142.6170 C   0  0  0  0  0  3  0  0  0  0  0  0
  1 17  1  0  0  0  0
  2  1  2  0  0  0  0
  3 12  1  0  0  0  0
  4 11  1  0  0  0  0
  5 10  2  0  0  0  0
  7  9  1  0  0  0  0
  8 10  1  0  0  0  0
  8  7  1  0  0  0  0
  9 11  1  0  0  0  0
  9  3  2  0  0  0  0
 10  4  1  0  0  0  0
 11 13  2  0  0  0  0
 12  6  2  0  0  0  0
 12  2  1  0  0  0  0
 13  6  1  0  0  0  0
 15 16  1  0  0  0  0
 15 18  1  0  0  0  0
 17 21  1  0  0  0  0
 19 15  2  0  0  0  0
 20 19  1  0  0  0  0
 20 17  2  0  0  0  0
 21 18  2  0  0  0  0
 21 14  1  0  0  0  0
 22 25  1  0  0  0  0
 23  2  1  0  0  0  0
 23 24  1  0  0  0  0
 25 24  2  0  0  0  0
 26 27  1  0  0  0  0
 26 22  2  0  0  0  0
 27 23  2  0  0  0  0
M  END
>  <MODEL>
1

>  <REMARK>
 VINA RESULT:     -10.0      0.000      0.000
  Name = 
  3 active torsions:
  status: ('A' for Active; 'I' for Inactive)
    1  A    between atoms: C_1  and  C_18
    2  A    between atoms: C_9  and  C_15
    3  A    between atoms: C_15  and  C_19
                            x       y       z     vdW  Elec       q    Type
                         _______ _______ _______ _____ _____    ______ ____

>  <TORSDO>
F 3

$$$$
=
 OpenBabel10262420083D

 27 30  0  0  0  0  0  0  0  0999 V2000
  187.9140  177.7740  141.1230 C   0  0  0  0  0  3  0  0  0  0  0  0
  189.2090  177.4180  141.2400 C   0  0  0  0  0  0  0  0  0  0  0  0
  190.5390  176.1980  142.9860 C   0  0  0  0  0  3  0  0  0  0  0  0
  191.8020  177.2380  146.3390 N   0  0  0  0  0  2  0  0  0  0  0  0
  192.9250  175.9680  147.9380 O   0  0  0  0  0  0  0  0  0  0  0  0
  189.8730  178.4870  143.4050 C   0  0  0  0  0  3  0  0  0  0  0  0
  191.9520  174.9300  144.6230 C   0  0  0  0  0  2  0  0  0  0  0  0
  191.9660  174.7180  146.1390 C   0  0  0  0  0  2  0  0  0  0  0  0
  191.1670  176.1480  144.2310 C   0  0  0  0  0  0  0  0  0  0  0  0
  192.2870  175.9950  146.8550 C   0  0  0  0  0  0  0  0  0  0  0  0
  191.1600  177.2830  145.0620 C   0  0  0  0  0  0  0  0  0  0  0  0
  189.8830  177.3650  142.5630 C   0  0  0  0  0  0  0  0  0  0  0  0
  190.5110  178.4480  144.6470 C   0  0  0  0  0  3  0  0  0  0  0  0
  185.6260  179.6200  140.9150 N   0  0  0  0  0  1  0  0  0  0  0  0
  185.2550  178.4200  144.4130 C   0  0  0  0  0  0  0  0  0  0  0  0
  184.3430  178.6270  145.5670 C   0  0  0  0  0  1  0  0  0  0  0  0
  186.9690  178.0150  142.2300 C   0  0  0  0  0  0  0  0  0  0  0  0
  185.0110  179.0770  143.2040 C   0  0  0  0  0  3  0  0  0  0  0  0
  186.3670  177.5850  144.5420 C   0  0  0  0  0  3  0  0  0  0  0  0
  187.2240  177.3890  143.4550 C   0  0  0  0  0  3  0  0  0  0  0  0
  185.8640  178.8860  142.1120 C   0  0  0  0  0  0  0  0  0  0  0  0
  191.4420  176.5880  137.6570 C   0  0  0  0  0  3  0  0  0  0  0  0
  189.9830  177.1390  139.9990 C   0  0  0  0  0  0  0  0  0  0  0  0
  189.3220  176.8510  138.7920 C   0  0  0  0  0  3  0  0  0  0  0  0
  190.0460  176.5790  137.6280 C   0  0  0  0  0  3  0  0  0  0  0  0
  192.1140  176.8680  138.8480 C   0  0  0  0  0  3  0  0  0  0  0  0
  191.3900  177.1400  140.0120 C   0  0  0  0  0  3  0  0  0  0  0  0
  1  2  2  0  0  0  0
  1 17  1  0  0  0  0
  2 12  1  0  0  0  0
  3  9  1  0  0  0  0
  4 10  1  0  0  0  0
  6 13  2  0  0  0  0
  7  8  1  0  0  0  0
  8 10  1  0  0  0  0
  9  7  1  0  0  0  0
  9 11  2  0  0  0  0
 10  5  2  0  0  0  0
 11  4  1  0  0  0  0
 12  3  2  0  0  0  0
 12  6  1  0  0  0  0
 13 11  1  0  0  0  0
 14 21  1  0  0  0  0
 15 19  1  0  0  0  0
 15 16  1  0  0  0  0
 17 20  1  0  0  0  0
 18 15  2  0  0  0  0
 20 19  2  0  0  0  0
 21 17  2  0  0  0  0
 21 18  1  0  0  0  0
 22 26  1  0  0  0  0
 23 27  1  0  0  0  0
 23  2  1  0  0  0  0
 24 23  2  0  0  0  0
 25 22  2  0  0  0  0
 25 24  1  0  0  0  0
 26 27  2  0  0  0  0
M  END
>  <MODEL>
2

>  <REMARK>
 VINA RESULT:      -9.9      2.829      6.727
  Name = 
  3 active torsions:
  status: ('A' for Active; 'I' for Inactive)
    1  A    between atoms: C_1  and  C_18
    2  A    between atoms: C_9  and  C_15
    3  A    between atoms: C_15  and  C_19
                            x       y       z     vdW  Elec       q    Type
                         _______ _______ _______ _____ _____    ______ ____

>  <TORSDO>
F 3

$$$$
=
 OpenBabel10262420083D

 27 30  0  0  0  0  0  0  0  0999 V2000
  190.9840  176.8180  141.9830 C   0  0  0  0  0  3  0  0  0  0  0  0
  189.8000  177.1920  141.4590 C   0  0  0  0  0  0  0  0  0  0  0  0
  187.6040  178.2940  141.9790 C   0  0  0  0  0  3  0  0  0  0  0  0
  185.1490  177.7840  144.7430 N   0  0  0  0  0  2  0  0  0  0  0  0
  183.1910  178.9630  145.1970 O   0  0  0  0  0  0  0  0  0  0  0  0
  188.4220  176.5550  143.4510 C   0  0  0  0  0  3  0  0  0  0  0  0
  185.3770  179.3820  142.3580 C   0  0  0  0  0  2  0  0  0  0  0  0
  184.6180  179.9580  143.5560 C   0  0  0  0  0  2  0  0  0  0  0  0
  186.4710  178.4450  142.7810 C   0  0  0  0  0  0  0  0  0  0  0  0
  184.2510  178.8770  144.5270 C   0  0  0  0  0  0  0  0  0  0  0  0
  186.3070  177.6330  143.9180 C   0  0  0  0  0  0  0  0  0  0  0  0
  188.5910  177.3510  142.3080 C   0  0  0  0  0  0  0  0  0  0  0  0
  187.2840  176.6920  144.2500 C   0  0  0  0  0  3  0  0  0  0  0  0
  191.1830  179.0850  143.8560 N   0  0  0  0  0  1  0  0  0  0  0  0
  191.9260  176.2300  146.1150 C   0  0  0  0  0  0  0  0  0  0  0  0
  192.2510  176.0010  147.5470 C   0  0  0  0  0  1  0  0  0  0  0  0
  191.2950  176.6550  143.4160 C   0  0  0  0  0  0  0  0  0  0  0  0
  191.6760  177.5240  145.6540 C   0  0  0  0  0  3  0  0  0  0  0  0
  191.8880  175.1520  145.2270 C   0  0  0  0  0  3  0  0  0  0  0  0
  191.5800  175.3670  143.8820 C   0  0  0  0  0  3  0  0  0  0  0  0
  191.3670  177.7470  144.3080 C   0  0  0  0  0  0  0  0  0  0  0  0
  189.5440  177.7510  137.2010 C   0  0  0  0  0  3  0  0  0  0  0  0
  189.7040  177.3830  139.9860 C   0  0  0  0  0  0  0  0  0  0  0  0
  190.3050  176.4670  139.1040 C   0  0  0  0  0  3  0  0  0  0  0  0
  190.2240  176.6490  137.7210 C   0  0  0  0  0  3  0  0  0  0  0  0
  188.9450  178.6730  138.0620 C   0  0  0  0  0  3  0  0  0  0  0  0
  189.0260  178.4910  139.4450 C   0  0  0  0  0  3  0  0  0  0  0  0
  1 17  1  0  0  0  0
  2  1  2  0  0  0  0
  2 12  1  0  0  0  0
  3 12  2  0  0  0  0
  3  9  1  0  0  0  0
  6 13  2  0  0  0  0
  7  9  1  0  0  0  0
  7  8  1  0  0  0  0
  8 10  1  0  0  0  0
  9 11  2  0  0  0  0
 10  4  1  0  0  0  0
 10  5  2  0  0  0  0
 11 13  1  0  0  0  0
 11  4  1  0  0  0  0
 12  6  1  0  0  0  0
 14 21  1  0  0  0  0
 15 16  1  0  0  0  0
 17 20  2  0  0  0  0
 17 21  1  0  0  0  0
 18 15  1  0  0  0  0
 19 15  2  0  0  0  0
 20 19  1  0  0  0  0
 21 18  2  0  0  0  0
 22 25  2  0  0  0  0
 22 26  1  0  0  0  0
 23  2  1  0  0  0  0
 24 23  2  0  0  0  0
 25 24  1  0  0  0  0
 26 27  2  0  0  0  0
 27 23  1  0  0  0  0
M  END
>  <MODEL>
3

>  <REMARK>
 VINA RESULT:      -9.7      2.832      5.662
  Name = 
  3 active torsions:
  status: ('A' for Active; 'I' for Inactive)
    1  A    between atoms: C_1  and  C_18
    2  A    between atoms: C_9  and  C_15
    3  A    between atoms: C_15  and  C_19
                            x       y       z     vdW  Elec       q    Type
                         _______ _______ _______ _____ _____    ______ ____

>  <TORSDO>
F 3

$$$$
=
 OpenBabel10262420083D

 27 30  0  0  0  0  0  0  0  0999 V2000
  190.7910  177.0180  141.6180 C   0  0  0  0  0  3  0  0  0  0  0  0
  189.6440  177.4720  141.0750 C   0  0  0  0  0  0  0  0  0  0  0  0
  188.5010  177.6110  143.3070 C   0  0  0  0  0  3  0  0  0  0  0  0
  185.0570  178.6620  144.2840 N   0  0  0  0  0  2  0  0  0  0  0  0
  184.0580  178.6280  146.3890 O   0  0  0  0  0  0  0  0  0  0  0  0
  187.2740  178.2430  141.3180 C   0  0  0  0  0  3  0  0  0  0  0  0
  187.4790  177.8100  145.5880 C   0  0  0  0  0  2  0  0  0  0  0  0
  186.1360  177.4550  146.2320 C   0  0  0  0  0  2  0  0  0  0  0  0
  187.3820  177.8950  144.0920 C   0  0  0  0  0  0  0  0  0  0  0  0
  185.0330  178.2980  145.6670 C   0  0  0  0  0  0  0  0  0  0  0  0
  186.2060  178.3700  143.4850 C   0  0  0  0  0  0  0  0  0  0  0  0
  188.4560  177.7790  141.9140 C   0  0  0  0  0  0  0  0  0  0  0  0
  186.1550  178.5420  142.1000 C   0  0  0  0  0  3  0  0  0  0  0  0
  191.3060  179.3380  143.3610 N   0  0  0  0  0  1  0  0  0  0  0  0
  191.6800  176.5380  145.7760 C   0  0  0  0  0  0  0  0  0  0  0  0
  191.9840  176.3470  147.2180 C   0  0  0  0  0  1  0  0  0  0  0  0
  191.0890  176.8940  143.0570 C   0  0  0  0  0  0  0  0  0  0  0  0
  191.6020  177.8270  145.2440 C   0  0  0  0  0  3  0  0  0  0  0  0
  191.4920  175.4280  144.9490 C   0  0  0  0  0  3  0  0  0  0  0  0
  191.2050  175.6070  143.5940 C   0  0  0  0  0  3  0  0  0  0  0  0
  191.3140  178.0140  143.8880 C   0  0  0  0  0  0  0  0  0  0  0  0
  189.4310  177.8530  136.7950 C   0  0  0  0  0  3  0  0  0  0  0  0
  189.5630  177.6030  139.5950 C   0  0  0  0  0  0  0  0  0  0  0  0
  189.9950  176.5580  138.7580 C   0  0  0  0  0  3  0  0  0  0  0  0
  189.9270  176.6820  137.3680 C   0  0  0  0  0  3  0  0  0  0  0  0
  189.0010  178.9030  137.6100 C   0  0  0  0  0  3  0  0  0  0  0  0
  189.0690  178.7790  139.0010 C   0  0  0  0  0  3  0  0  0  0  0  0
  1 17  1  0  0  0  0
  2  1  2  0  0  0  0
  2 12  1  0  0  0  0
  3  9  1  0  0  0  0
  4 10  1  0  0  0  0
  6 12  1  0  0  0  0
  6 13  2  0  0  0  0
  7  8  1  0  0  0  0
  9  7  1  0  0  0  0
 10  8  1  0  0  0  0
 10  5  2  0  0  0  0
 11  9  2  0  0  0  0
 11  4  1  0  0  0  0
 12  3  2  0  0  0  0
 13 11  1  0  0  0  0
 14 21  1  0  0  0  0
 15 16  1  0  0  0  0
 17 20  2  0  0  0  0
 17 21  1  0  0  0  0
 18 15  1  0  0  0  0
 19 15  2  0  0  0  0
 20 19  1  0  0  0  0
 21 18  2  0  0  0  0
 22 25  2  0  0  0  0
 22 26  1  0  0  0  0
 23  2  1  0  0  0  0
 24 23  2  0  0  0  0
 25 24  1  0  0  0  0
 26 27  2  0  0  0  0
 27 23  1  0  0  0  0
M  END
>  <MODEL>
4

>  <REMARK>
 VINA RESULT:      -9.3      2.897      5.958
  Name = 
  3 active torsions:
  status: ('A' for Active; 'I' for Inactive)
    1  A    between atoms: C_1  and  C_18
    2  A    between atoms: C_9  and  C_15
    3  A    between atoms: C_15  and  C_19
                            x       y       z     vdW  Elec       q    Type
                         _______ _______ _______ _____ _____    ______ ____

>  <TORSDO>
F 3

$$$$
=
 OpenBabel10262420083D

 27 30  0  0  0  0  0  0  0  0999 V2000
  186.9800  177.5200  145.1000 C   0  0  0  0  0  3  0  0  0  0  0  0
  188.1670  177.5310  144.4620 C   0  0  0  0  0  0  0  0  0  0  0  0
  188.9790  177.0230  142.1410 C   0  0  0  0  0  3  0  0  0  0  0  0
  188.5440  178.8150  138.8970 N   0  0  0  0  0  2  0  0  0  0  0  0
  189.4580  178.3120  136.8130 O   0  0  0  0  0  0  0  0  0  0  0  0
  187.6510  179.0130  142.5110 C   0  0  0  0  0  3  0  0  0  0  0  0
  189.7520  176.3780  139.8450 C   0  0  0  0  0  2  0  0  0  0  0  0
  190.3870  177.0950  138.6500 C   0  0  0  0  0  2  0  0  0  0  0  0
  189.0780  177.3360  140.7840 C   0  0  0  0  0  0  0  0  0  0  0  0
  189.4330  178.0820  138.0490 C   0  0  0  0  0  0  0  0  0  0  0  0
  188.4460  178.4890  140.2860 C   0  0  0  0  0  0  0  0  0  0  0  0
  188.2690  177.8590  143.0170 C   0  0  0  0  0  0  0  0  0  0  0  0
  187.7350  179.3250  141.1510 C   0  0  0  0  0  3  0  0  0  0  0  0
  184.9300  178.9290  146.6820 N   0  0  0  0  0  1  0  0  0  0  0  0
  183.2360  178.6810  143.3830 C   0  0  0  0  0  0  0  0  0  0  0  0
  181.9440  179.0770  142.7650 C   0  0  0  0  0  1  0  0  0  0  0  0
  185.6830  177.9470  144.5420 C   0  0  0  0  0  0  0  0  0  0  0  0
  183.5020  179.0070  144.7150 C   0  0  0  0  0  3  0  0  0  0  0  0
  184.1770  177.9660  142.6380 C   0  0  0  0  0  3  0  0  0  0  0  0
  185.3920  177.5950  143.2190 C   0  0  0  0  0  3  0  0  0  0  0  0
  184.7160  178.6390  145.3030 C   0  0  0  0  0  0  0  0  0  0  0  0
  191.6830  176.3770  146.6590 C   0  0  0  0  0  3  0  0  0  0  0  0
  189.3850  177.1390  145.2240 C   0  0  0  0  0  0  0  0  0  0  0  0
  190.5580  176.7550  144.5510 C   0  0  0  0  0  3  0  0  0  0  0  0
  191.7000  176.3780  145.2630 C   0  0  0  0  0  3  0  0  0  0  0  0
  190.5250  176.7530  147.3440 C   0  0  0  0  0  3  0  0  0  0  0  0
  189.3830  177.1300  146.6310 C   0  0  0  0  0  3  0  0  0  0  0  0
  2  1  2  0  0  0  0
  2 23  1  0  0  0  0
  3 12  1  0  0  0  0
  4 11  1  0  0  0  0
  5 10  2  0  0  0  0
  6 12  2  0  0  0  0
  7  9  1  0  0  0  0
  8  7  1  0  0  0  0
  9  3  2  0  0  0  0
 10  8  1  0  0  0  0
 10  4  1  0  0  0  0
 11  9  1  0  0  0  0
 11 13  2  0  0  0  0
 12  2  1  0  0  0  0
 13  6  1  0  0  0  0
 15 18  1  0  0  0  0
 16 15  1  0  0  0  0
 17  1  1  0  0  0  0
 17 21  1  0  0  0  0
 18 21  2  0  0  0  0
 19 20  1  0  0  0  0
 19 15  2  0  0  0  0
 20 17  2  0  0  0  0
 21 14  1  0  0  0  0
 22 26  1  0  0  0  0
 23 27  1  0  0  0  0
 24 23  2  0  0  0  0
 24 25  1  0  0  0  0
 25 22  2  0  0  0  0
 27 26  2  0  0  0  0
M  END
>  <MODEL>
5

>  <REMARK>
 VINA RESULT:      -9.2      1.393      5.491
  Name = 
  3 active torsions:
  status: ('A' for Active; 'I' for Inactive)
    1  A    between atoms: C_1  and  C_18
    2  A    between atoms: C_9  and  C_15
    3  A    between atoms: C_15  and  C_19
                            x       y       z     vdW  Elec       q    Type
                         _______ _______ _______ _____ _____    ______ ____

>  <TORSDO>
F 3

$$$$
=
 OpenBabel10262420083D

 27 30  0  0  0  0  0  0  0  0999 V2000
  186.3090  178.6020  140.6020 C   0  0  0  0  0  3  0  0  0  0  0  0
  187.5380  178.0930  140.8200 C   0  0  0  0  0  0  0  0  0  0  0  0
  189.2840  178.1520  142.6230 C   0  0  0  0  0  3  0  0  0  0  0  0
  189.3290  176.7940  146.0980 N   0  0  0  0  0  2  0  0  0  0  0  0
  191.0680  176.7980  147.6490 O   0  0  0  0  0  0  0  0  0  0  0  0
  187.1770  177.0440  143.0650 C   0  0  0  0  0  3  0  0  0  0  0  0
  191.0500  178.3500  144.3920 C   0  0  0  0  0  2  0  0  0  0  0  0
  191.6900  177.4180  145.4250 C   0  0  0  0  0  2  0  0  0  0  0  0
  189.7260  177.8320  143.9080 C   0  0  0  0  0  0  0  0  0  0  0  0
  190.6930  177.0110  146.4680 C   0  0  0  0  0  0  0  0  0  0  0  0
  188.8810  177.1250  144.7820 C   0  0  0  0  0  0  0  0  0  0  0  0
  188.0090  177.7580  142.1890 C   0  0  0  0  0  0  0  0  0  0  0  0
  187.6090  176.7320  144.3570 C   0  0  0  0  0  3  0  0  0  0  0  0
  183.5870  177.5310  140.2430 N   0  0  0  0  0  1  0  0  0  0  0  0
  183.2750  179.1660  143.5660 C   0  0  0  0  0  0  0  0  0  0  0  0
  182.2380  179.3710  144.6100 C   0  0  0  0  0  1  0  0  0  0  0  0
  185.2400  178.7650  141.6060 C   0  0  0  0  0  0  0  0  0  0  0  0
  182.9730  178.4290  142.4180 C   0  0  0  0  0  3  0  0  0  0  0  0
  184.5450  179.7250  143.7240 C   0  0  0  0  0  3  0  0  0  0  0  0
  185.5200  179.5300  142.7430 C   0  0  0  0  0  3  0  0  0  0  0  0
  183.9440  178.2300  141.4320 C   0  0  0  0  0  0  0  0  0  0  0  0
  190.1710  177.6100  137.4510 C   0  0  0  0  0  3  0  0  0  0  0  0
  188.4540  177.9300  139.6580 C   0  0  0  0  0  0  0  0  0  0  0  0
  188.2060  178.6060  138.4500 C   0  0  0  0  0  3  0  0  0  0  0  0
  189.0600  178.4480  137.3550 C   0  0  0  0  0  3  0  0  0  0  0  0
  190.4300  176.9270  138.6420 C   0  0  0  0  0  3  0  0  0  0  0  0
  189.5760  177.0850  139.7370 C   0  0  0  0  0  3  0  0  0  0  0  0
  1  2  2  0  0  0  0
  1 17  1  0  0  0  0
  2 12  1  0  0  0  0
  3  9  1  0  0  0  0
  4 10  1  0  0  0  0
  6 13  2  0  0  0  0
  7  8  1  0  0  0  0
  8 10  1  0  0  0  0
  9  7  1  0  0  0  0
  9 11  2  0  0  0  0
 10  5  2  0  0  0  0
 11  4  1  0  0  0  0
 12  3  2  0  0  0  0
 12  6  1  0  0  0  0
 13 11  1  0  0  0  0
 14 21  1  0  0  0  0
 15 19  1  0  0  0  0
 15 16  1  0  0  0  0
 17 20  1  0  0  0  0
 18 15  2  0  0  0  0
 20 19  2  0  0  0  0
 21 17  2  0  0  0  0
 21 18  1  0  0  0  0
 22 26  1  0  0  0  0
 23 27  1  0  0  0  0
 23  2  1  0  0  0  0
 24 23  2  0  0  0  0
 25 22  2  0  0  0  0
 25 24  1  0  0  0  0
 26 27  2  0  0  0  0
M  END
>  <MODEL>
6

>  <REMARK>
 VINA RESULT:      -9.0      2.620      6.750
  Name = 
  3 active torsions:
  status: ('A' for Active; 'I' for Inactive)
    1  A    between atoms: C_1  and  C_18
    2  A    between atoms: C_9  and  C_15
    3  A    between atoms: C_15  and  C_19
                            x       y       z     vdW  Elec       q    Type
                         _______ _______ _______ _____ _____    ______ ____

>  <TORSDO>
F 3

$$$$
=
 OpenBabel10262420083D

 27 30  0  0  0  0  0  0  0  0999 V2000
  191.5800  176.9950  145.2850 C   0  0  0  0  0  3  0  0  0  0  0  0
  190.9860  177.0730  146.4920 C   0  0  0  0  0  0  0  0  0  0  0  0
  188.6930  177.4160  145.5270 C   0  0  0  0  0  3  0  0  0  0  0  0
  185.4920  178.5790  147.0520 N   0  0  0  0  0  2  0  0  0  0  0  0
  183.4410  178.9830  146.0210 O   0  0  0  0  0  0  0  0  0  0  0  0
  189.0600  177.8830  147.8740 C   0  0  0  0  0  3  0  0  0  0  0  0
  186.4180  177.6320  144.4950 C   0  0  0  0  0  2  0  0  0  0  0  0
  185.2810  178.6570  144.5290 C   0  0  0  0  0  2  0  0  0  0  0  0
  187.3540  177.7880  145.6590 C   0  0  0  0  0  0  0  0  0  0  0  0
  184.6660  178.7290  145.8940 C   0  0  0  0  0  0  0  0  0  0  0  0
  186.8620  178.1970  146.9120 C   0  0  0  0  0  0  0  0  0  0  0  0
  189.5580  177.4640  146.6310 C   0  0  0  0  0  0  0  0  0  0  0  0
  187.7180  178.2440  148.0150 C   0  0  0  0  0  3  0  0  0  0  0  0
  191.0970  179.5980  143.9920 N   0  0  0  0  0  1  0  0  0  0  0  0
  189.6220  177.2780  141.4910 C   0  0  0  0  0  0  0  0  0  0  0  0
  188.9430  177.3520  140.1720 C   0  0  0  0  0  1  0  0  0  0  0  0
  190.9200  177.1330  143.9740 C   0  0  0  0  0  0  0  0  0  0  0  0
  190.0700  178.4460  142.1120 C   0  0  0  0  0  3  0  0  0  0  0  0
  189.7960  176.0420  142.1190 C   0  0  0  0  0  3  0  0  0  0  0  0
  190.4370  175.9720  143.3580 C   0  0  0  0  0  3  0  0  0  0  0  0
  190.7120  178.3840  143.3530 C   0  0  0  0  0  0  0  0  0  0  0  0
  193.3830  176.3610  149.9940 C   0  0  0  0  0  3  0  0  0  0  0  0
  191.8090  176.8230  147.7070 C   0  0  0  0  0  0  0  0  0  0  0  0
  191.9530  177.8150  148.6920 C   0  0  0  0  0  3  0  0  0  0  0  0
  192.7330  177.5860  149.8290 C   0  0  0  0  0  3  0  0  0  0  0  0
  193.2530  175.3660  149.0230 C   0  0  0  0  0  3  0  0  0  0  0  0
  192.4730  175.5950  147.8860 C   0  0  0  0  0  3  0  0  0  0  0  0
  1  2  2  0  0  0  0
  2 12  1  0  0  0  0
  2 23  1  0  0  0  0
  3  9  2  0  0  0  0
  3 12  1  0  0  0  0
  6 13  1  0  0  0  0
  7  8  1  0  0  0  0
  7  9  1  0  0  0  0
  8 10  1  0  0  0  0
  9 11  1  0  0  0  0
 10  5  2  0  0  0  0
 10  4  1  0  0  0  0
 11  4  1  0  0  0  0
 11 13  2  0  0  0  0
 12  6  2  0  0  0  0
 15 18  2  0  0  0  0
 15 19  1  0  0  0  0
 16 15  1  0  0  0  0
 17  1  1  0  0  0  0
 18 21  1  0  0  0  0
 19 20  2  0  0  0  0
 20 17  1  0  0  0  0
 21 17  2  0  0  0  0
 21 14  1  0  0  0  0
 23 27  2  0  0  0  0
 23 24  1  0  0  0  0
 24 25  2  0  0  0  0
 25 22  1  0  0  0  0
 26 22  2  0  0  0  0
 27 26  1  0  0  0  0
M  END
>  <MODEL>
7

>  <REMARK>
 VINA RESULT:      -8.9      2.862      7.343
  Name = 
  3 active torsions:
  status: ('A' for Active; 'I' for Inactive)
    1  A    between atoms: C_1  and  C_18
    2  A    between atoms: C_9  and  C_15
    3  A    between atoms: C_15  and  C_19
                            x       y       z     vdW  Elec       q    Type
                         _______ _______ _______ _____ _____    ______ ____

>  <TORSDO>
F 3

$$$$
=
 OpenBabel10262420083D

 27 30  0  0  0  0  0  0  0  0999 V2000
  185.0480  178.4470  145.4290 C   0  0  0  0  0  3  0  0  0  0  0  0
  184.9090  178.4060  144.0890 C   0  0  0  0  0  0  0  0  0  0  0  0
  187.0470  177.2710  143.4200 C   0  0  0  0  0  3  0  0  0  0  0  0
  189.4260  177.8860  140.6120 N   0  0  0  0  0  2  0  0  0  0  0  0
  191.4600  176.8420  140.1620 O   0  0  0  0  0  0  0  0  0  0  0  0
  186.2420  179.1320  142.0970 C   0  0  0  0  0  3  0  0  0  0  0  0
  189.1160  176.0100  142.7760 C   0  0  0  0  0  2  0  0  0  0  0  0
  190.5310  176.3710  142.3150 C   0  0  0  0  0  2  0  0  0  0  0  0
  188.1530  177.1450  142.5780 C   0  0  0  0  0  0  0  0  0  0  0  0
  190.5050  177.0150  140.9620 C   0  0  0  0  0  0  0  0  0  0  0  0
  188.2950  178.0100  141.4780 C   0  0  0  0  0  0  0  0  0  0  0  0
  186.0850  178.2670  143.1910 C   0  0  0  0  0  0  0  0  0  0  0  0
  187.3400  179.0020  141.2420 C   0  0  0  0  0  3  0  0  0  0  0  0
  185.8790  180.1450  147.6900 N   0  0  0  0  0  1  0  0  0  0  0  0
  188.7050  177.7370  147.5350 C   0  0  0  0  0  0  0  0  0  0  0  0
  189.9770  177.4700  148.2530 C   0  0  0  0  0  1  0  0  0  0  0  0
  186.2940  178.2270  146.1870 C   0  0  0  0  0  0  0  0  0  0  0  0
  187.8730  178.7790  147.9520 C   0  0  0  0  0  3  0  0  0  0  0  0
  188.3490  176.9580  146.4310 C   0  0  0  0  0  3  0  0  0  0  0  0
  187.1510  177.2080  145.7570 C   0  0  0  0  0  3  0  0  0  0  0  0
  186.6720  179.0350  147.2820 C   0  0  0  0  0  0  0  0  0  0  0  0
  180.9680  178.8640  142.4260 C   0  0  0  0  0  3  0  0  0  0  0  0
  183.5470  178.5720  143.5110 C   0  0  0  0  0  0  0  0  0  0  0  0
  182.4400  178.8100  144.3440 C   0  0  0  0  0  3  0  0  0  0  0  0
  181.1590  178.9570  143.8050 C   0  0  0  0  0  3  0  0  0  0  0  0
  182.0560  178.6240  141.5840 C   0  0  0  0  0  3  0  0  0  0  0  0
  183.3370  178.4770  142.1230 C   0  0  0  0  0  3  0  0  0  0  0  0
  1 17  1  0  0  0  0
  2  1  2  0  0  0  0
  4 10  1  0  0  0  0
  4 11  1  0  0  0  0
  5 10  2  0  0  0  0
  6 12  2  0  0  0  0
  8  7  1  0  0  0  0
  9  7  1  0  0  0  0
  9  3  2  0  0  0  0
 10  8  1  0  0  0  0
 11  9  1  0  0  0  0
 12  3  1  0  0  0  0
 12  2  1  0  0  0  0
 13 11  2  0  0  0  0
 13  6  1  0  0  0  0
 15 18  1  0  0  0  0
 15 16  1  0  0  0  0
 17 21  1  0  0  0  0
 19 15  2  0  0  0  0
 20 17  2  0  0  0  0
 20 19  1  0  0  0  0
 21 14  1  0  0  0  0
 21 18  2  0  0  0  0
 22 25  1  0  0  0  0
 23  2  1  0  0  0  0
 23 24  1  0  0  0  0
 25 24  2  0  0  0  0
 26 27  1  0  0  0  0
 26 22  2  0  0  0  0
 27 23  2  0  0  0  0
M  END
>  <MODEL>
8

>  <REMARK>
 VINA RESULT:      -8.7      1.668      2.682
  Name = 
  3 active torsions:
  status: ('A' for Active; 'I' for Inactive)
    1  A    between atoms: C_1  and  C_18
    2  A    between atoms: C_9  and  C_15
    3  A    between atoms: C_15  and  C_19
                            x       y       z     vdW  Elec       q    Type
                         _______ _______ _______ _____ _____    ______ ____

>  <TORSDO>
F 3

$$$$
=
 OpenBabel10262420083D

 27 30  0  0  0  0  0  0  0  0999 V2000
  186.1080  178.1510  145.1790 C   0  0  0  0  0  3  0  0  0  0  0  0
  187.4260  177.8700  145.1440 C   0  0  0  0  0  0  0  0  0  0  0  0
  188.1210  178.3710  142.7830 C   0  0  0  0  0  3  0  0  0  0  0  0
  190.0580  176.3940  140.2810 N   0  0  0  0  0  2  0  0  0  0  0  0
  190.5360  176.9120  138.0590 O   0  0  0  0  0  0  0  0  0  0  0  0
  188.7480  176.2490  143.7670 C   0  0  0  0  0  3  0  0  0  0  0  0
  188.8520  179.0030  140.4700 C   0  0  0  0  0  2  0  0  0  0  0  0
  188.9060  178.3170  139.1010 C   0  0  0  0  0  2  0  0  0  0  0  0
  188.7570  178.0110  141.5940 C   0  0  0  0  0  0  0  0  0  0  0  0
  189.8970  177.1930  139.1050 C   0  0  0  0  0  0  0  0  0  0  0  0
  189.4060  176.7670  141.4970 C   0  0  0  0  0  0  0  0  0  0  0  0
  188.1070  177.4920  143.8780 C   0  0  0  0  0  0  0  0  0  0  0  0
  189.3970  175.8900  142.5830 C   0  0  0  0  0  3  0  0  0  0  0  0
  183.2960  179.0040  145.3980 N   0  0  0  0  0  1  0  0  0  0  0  0
  183.5750  178.4140  141.7400 C   0  0  0  0  0  0  0  0  0  0  0  0
  182.7150  178.5010  140.5310 C   0  0  0  0  0  1  0  0  0  0  0  0
  185.2070  178.2660  144.0160 C   0  0  0  0  0  0  0  0  0  0  0  0
  183.0620  178.7720  142.9880 C   0  0  0  0  0  3  0  0  0  0  0  0
  184.8900  177.9560  141.6290 C   0  0  0  0  0  3  0  0  0  0  0  0
  185.7000  177.8770  142.7650 C   0  0  0  0  0  3  0  0  0  0  0  0
  183.8670  178.6950  144.1300 C   0  0  0  0  0  0  0  0  0  0  0  0
  189.6240  177.8780  148.8430 C   0  0  0  0  0  3  0  0  0  0  0  0
  188.1870  177.8810  146.4230 C   0  0  0  0  0  0  0  0  0  0  0  0
  189.5410  177.5020  146.4540 C   0  0  0  0  0  3  0  0  0  0  0  0
  190.2550  177.5020  147.6560 C   0  0  0  0  0  3  0  0  0  0  0  0
  188.2790  178.2520  148.8310 C   0  0  0  0  0  3  0  0  0  0  0  0
  187.5650  178.2520  147.6290 C   0  0  0  0  0  3  0  0  0  0  0  0
  2  1  2  0  0  0  0
  2 23  1  0  0  0  0
  3 12  1  0  0  0  0
  4 11  1  0  0  0  0
  5 10  2  0  0  0  0
  6 12  2  0  0  0  0
  7  9  1  0  0  0  0
  8 10  1  0  0  0  0
  8  7  1  0  0  0  0
  9  3  2  0  0  0  0
 10  4  1  0  0  0  0
 11  9  1  0  0  0  0
 11 13  2  0  0  0  0
 12  2  1  0  0  0  0
 13  6  1  0  0  0  0
 15 18  1  0  0  0  0
 16 15  1  0  0  0  0
 17 21  1  0  0  0  0
 17  1  1  0  0  0  0
 18 21  2  0  0  0  0
 19 15  2  0  0  0  0
 19 20  1  0  0  0  0
 20 17  2  0  0  0  0
 21 14  1  0  0  0  0
 23 24  2  0  0  0  0
 23 27  1  0  0  0  0
 24 25  1  0  0  0  0
 25 22  2  0  0  0  0
 26 22  1  0  0  0  0
 27 26  2  0  0  0  0
M  END
>  <MODEL>
9

>  <REMARK>
 VINA RESULT:      -8.7      1.464      5.286
  Name = 
  3 active torsions:
  status: ('A' for Active; 'I' for Inactive)
    1  A    between atoms: C_1  and  C_18
    2  A    between atoms: C_9  and  C_15
    3  A    between atoms: C_15  and  C_19
                            x       y       z     vdW  Elec       q    Type
                         _______ _______ _______ _____ _____    ______ ____

>  <TORSDO>
F 3

$$$$
