=
 OpenBabel10262420223D

 55 59  0  0  1  0  0  0  0  0999 V2000
  182.3350  174.4120  138.3540 C   0  0  0  0  0  3  0  0  0  0  0  0
  183.8340  178.8630  138.0790 C   0  0  0  0  0  2  0  0  0  0  0  0
  184.9680  180.2040  140.7270 C   0  0  0  0  0  1  0  0  0  0  0  0
  185.2230  176.6740  136.4170 C   0  0  0  0  0  2  0  0  0  0  0  0
  185.3070  178.2570  134.5960 O   0  0  0  0  0  0  0  0  0  0  0  0
  181.8890  180.1650  141.4360 O   0  0  0  0  0  1  0  0  0  0  0  0
  188.9160  178.8430  137.0150 C   0  0  0  0  0  2  0  0  0  0  0  0
  188.3250  176.2430  138.6540 C   0  0  2  0  0  3  0  0  0  0  0  0
  180.8110  178.2480  140.4250 C   0  0  2  0  0  3  0  0  0  0  0  0
  183.1760  176.7850  141.1840 C   0  0  0  0  0  2  0  0  0  0  0  0
  187.4180  177.4830  135.5370 C   0  0  1  0  0  3  0  0  0  0  0  0
  186.6190  178.6450  134.9440 C   0  0  0  0  0  2  0  0  0  0  0  0
  183.5550  173.8950  135.3760 S   0  0  0  0  0  0  0  0  0  0  0  0
  188.8450  177.9510  135.7860 C   0  0  0  0  0  2  0  0  0  0  0  0
  182.1170  179.0690  140.5990 C   0  0  2  0  0  3  0  0  0  0  0  0
  181.5790  175.8720  135.5720 C   0  0  2  0  0  3  0  0  0  0  0  0
  182.6230  174.7960  139.7660 C   0  0  2  0  0  3  0  0  0  0  0  0
  189.8450  178.2510  138.0640 C   0  0  0  0  0  2  0  0  0  0  0  0
  180.4100  176.6060  134.9320 C   0  0  0  0  0  1  0  0  0  0  0  0
  179.9580  175.8380  140.2840 C   0  0  2  0  0  3  0  0  0  0  0  0
  181.6990  174.1080  140.7320 C   0  0  0  0  0  3  0  0  0  0  0  0
  184.4540  179.1230  136.7110 C   0  0  0  0  0  2  0  0  0  0  0  0
  181.0500  176.8340  139.8310 C   0  0  2  0  0  3  0  0  0  0  0  0
  184.8760  178.3140  139.0450 C   0  0  0  0  0  2  0  0  0  0  0  0
  184.6630  178.7290  140.5070 C   0  0  2  0  0  3  0  0  0  0  0  0
  182.4140  172.9340  136.4170 C   0  0  0  0  0  2  0  0  0  0  0  0
  186.6900  176.9310  136.7900 C   0  0  2  0  0  3  0  0  0  0  0  0
  184.5680  177.9060  135.7560 C   0  0  2  0  0  0  0  0  0  0  0  0
  182.6850  173.2280  137.8560 C   0  0  0  0  0  3  0  0  0  0  0  0
  183.3330  178.2990  141.1510 C   0  0  2  0  0  3  0  0  0  0  0  0
  182.5060  176.3150  139.9080 C   0  0  1  0  0  3  0  0  0  0  0  0
  189.7140  176.7320  138.2060 C   0  0  0  0  0  2  0  0  0  0  0  0
  183.1640  177.5220  135.2750 C   0  0  0  0  0  2  0  0  0  0  0  0
  180.4830  174.6040  140.9840 C   0  0  0  0  0  3  0  0  0  0  0  0
  187.3600  175.7190  137.5420 C   0  0  1  0  0  0  0  0  0  0  0  0
  182.4700  176.7530  136.2310 O   0  0  0  0  0  0  0  0  0  0  0  0
  182.2410  174.8920  134.5940 C   0  0  0  0  0  2  0  0  0  0  0  0
  188.0470  174.7820  136.5600 C   0  0  0  0  0  0  0  0  0  0  0  0
  187.7750  174.8560  135.1950 O   0  0  0  0  0  0  0  0  0  0  0  0
  188.9370  173.9830  136.9630 O   0  0  0  0  0  1  0  0  0  0  0  0
  180.4150  179.5720  138.2580 C   0  0  0  0  0  1  0  0  0  0  0  0
  179.7990  179.0010  139.5250 C   0  0  2  0  0  3  0  0  0  0  0  0
  179.2180  180.0610  140.2250 O   0  0  0  0  0  1  0  0  0  0  0  0
  186.2750  174.9000  138.2830 C   0  0  0  0  0  2  0  0  0  0  0  0
  186.0070  173.5230  137.6850 C   0  0  0  0  0  1  0  0  0  0  0  0
  187.6970  177.1580  139.5170 O   0  0  0  0  0  0  0  0  0  0  0  0
  189.3670  177.6180  141.0180 O   0  0  0  0  0  1  0  0  0  0  0  0
  188.1960  176.8910  140.7950 C   0  0  0  0  0  2  0  0  0  0  0  0
  179.1180  175.4340  139.0800 C   0  0  0  0  0  2  0  0  0  0  0  0
  178.9330  173.9270  139.0430 C   0  0  0  0  0  2  0  0  0  0  0  0
  178.9370  174.2980  136.6920 O   0  0  0  0  0  0  0  0  0  0  0  0
  178.9600  173.4570  137.6340 C   0  0  0  0  0  0  0  0  0  0  0  0
  179.0090  172.0600  137.3530 N   0  0  0  0  0  2  0  0  0  0  0  0
  179.0810  171.5510  135.9940 C   0  0  0  0  0  2  0  0  0  0  0  0
  179.0250  170.0370  136.0170 C   0  0  0  0  0  1  0  0  0  0  0  0
  2 24  1  0  0  0  0
  4 27  1  0  0  0  0
  5 12  1  0  0  0  0
  5 28  1  0  0  0  0
  7 18  1  0  0  0  0
  8 46  1  6  0  0  0
  9 42  1  6  0  0  0
  9 15  1  0  0  0  0
 11 12  1  1  0  0  0
 11 14  1  0  0  0  0
 11 27  1  0  0  0  0
 13 26  1  0  0  0  0
 14  7  1  0  0  0  0
 15 30  1  0  0  0  0
 15  6  1  1  0  0  0
 16 19  1  6  0  0  0
 16 36  1  0  0  0  0
 17  1  1  6  0  0  0
 17 31  1  0  0  0  0
 17 21  1  0  0  0  0
 18 32  1  0  0  0  0
 20 49  1  6  0  0  0
 20 34  1  0  0  0  0
 21 34  2  0  0  0  0
 22  2  1  0  0  0  0
 23 31  1  0  0  0  0
 23 20  1  0  0  0  0
 23  9  1  0  0  0  0
 24 25  1  0  0  0  0
 25  3  1  0  0  0  0
 25 30  1  0  0  0  0
 26 29  1  0  0  0  0
 27 35  1  0  0  0  0
 28  4  1  0  0  0  0
 28 22  1  0  0  0  0
 29  1  2  0  0  0  0
 30 10  1  0  0  0  0
 31 10  1  0  0  0  0
 32  8  1  0  0  0  0
 33 28  1  0  0  0  0
 33 36  1  0  0  0  0
 35 44  1  0  0  0  0
 35  8  1  0  0  0  0
 37 13  1  0  0  0  0
 37 16  1  0  0  0  0
 38 40  1  0  0  0  0
 38 35  1  0  0  0  0
 39 38  2  0  0  0  0
 41 42  1  0  0  0  0
 42 43  1  0  0  0  0
 45 44  1  0  0  0  0
 46 48  1  0  0  0  0
 48 47  1  0  0  0  0
 50 49  1  0  0  0  0
 51 52  2  0  0  0  0
 52 50  1  0  0  0  0
 53 52  1  0  0  0  0
 54 55  1  0  0  0  0
 54 53  1  0  0  0  0
M  END
>  <MODEL>
1

>  <REMARK>
 VINA RESULT:       8.0      0.000      0.000
  Name = 
  9 active torsions:
  status: ('A' for Active; 'I' for Inactive)
    1  A    between atoms: C_1  and  C_53
    2  A    between atoms: C_6  and  C_53
    3  A    between atoms: O_12  and  C_14
    4  A    between atoms: O_12  and  C_38
    5  A    between atoms: C_13  and  C_33
    6  A    between atoms: C_13  and  C_48
    7  A    between atoms: C_16  and  C_17
    8  A    between atoms: C_18  and  N_39
    9  A    between atoms: C_32  and  C_48
                            x       y       z     vdW  Elec       q    Type
                         _______ _______ _______ _____ _____    ______ ____

>  <TORSDO>
F 9

$$$$
