=
 OpenBabel10262421173D

 32 35  0  0  1  0  0  0  0  0999 V2000
  186.4410  177.4030  144.8630 C   0  0  0  0  0  2  0  0  0  0  0  0
  186.0780  178.1060  146.1400 C   0  0  0  0  0  0  0  0  0  0  0  0
  187.9430  177.4760  144.5460 C   0  0  1  0  0  3  0  0  0  0  0  0
  188.8040  177.3340  145.7840 C   0  0  0  0  0  0  0  0  0  0  0  0
  188.3460  177.7450  146.9720 C   0  0  0  0  0  3  0  0  0  0  0  0
  186.9600  178.2120  147.1360 C   0  0  0  0  0  3  0  0  0  0  0  0
  188.2770  176.4120  143.5080 C   0  0  0  0  0  2  0  0  0  0  0  0
  188.7430  177.0440  142.2420 C   0  0  0  0  0  0  0  0  0  0  0  0
  190.1990  177.1080  138.1170 C   0  0  0  0  0  3  0  0  0  0  0  0
  189.9400  176.6660  141.5710 N   0  0  0  0  0  2  0  0  0  0  0  0
  188.1040  178.0350  139.0390 C   0  0  0  0  0  3  0  0  0  0  0  0
  188.8080  178.2890  140.3480 C   0  0  1  0  0  3  0  0  0  0  0  0
  188.0150  177.9160  141.5540 C   0  0  0  0  0  3  0  0  0  0  0  0
  189.9760  177.3700  140.4920 C   0  0  2  0  0  3  0  0  0  0  0  0
  188.7800  177.5400  137.9890 C   0  0  0  0  0  3  0  0  0  0  0  0
  190.7790  177.0000  139.3220 C   0  0  0  0  0  3  0  0  0  0  0  0
  190.2520  176.9820  145.6590 C   0  0  0  0  0  2  0  0  0  0  0  0
  190.8630  176.7440  147.0270 C   0  0  0  0  0  2  0  0  0  0  0  0
  192.0820  175.8580  146.8860 C   0  0  0  0  0  2  0  0  0  0  0  0
  192.7540  175.7100  148.2350 C   0  0  0  0  0  1  0  0  0  0  0  0
  184.6720  178.5590  146.3410 C   0  0  0  0  0  2  0  0  0  0  0  0
  184.2650  179.3560  145.2660 O   0  0  0  0  0  0  0  0  0  0  0  0
  182.9680  179.1300  145.1560 O   0  0  0  0  0  0  0  0  0  0  0  0
  181.3060  178.9710  143.3080 C   0  0  2  0  0  0  0  0  0  0  0  0
  182.2520  178.9050  141.0110 N   0  0  0  0  0  2  0  0  0  0  0  0
  180.3920  178.2830  144.1090 O   0  0  0  0  0  1  0  0  0  0  0  0
  183.8570  178.9890  142.8590 C   0  0  0  0  0  2  0  0  0  0  0  0
  181.1720  178.4240  141.8770 C   0  0  0  0  0  2  0  0  0  0  0  0
  182.7270  178.6720  143.8430 C   0  0  1  0  0  3  0  0  0  0  0  0
  183.5230  178.3760  141.5020 C   0  0  0  0  0  2  0  0  0  0  0  0
  180.9760  180.3420  143.3550 O   0  0  0  0  0  0  0  0  0  0  0  0
  179.9150  180.5520  142.5830 F   0  0  0  0  0  0  0  0  0  0  0  0
  1  2  1  0  0  0  0
  2 21  1  0  0  0  0
  2  6  2  0  0  0  0
  3  7  1  6  0  0  0
  3  1  1  0  0  0  0
  3  4  1  0  0  0  0
  4  5  2  0  0  0  0
  5  6  1  0  0  0  0
  8  7  1  0  0  0  0
  9 16  2  0  0  0  0
 10  8  1  0  0  0  0
 12 11  1  6  0  0  0
 12 14  1  0  0  0  0
 12 13  1  0  0  0  0
 13  8  2  0  0  0  0
 14 16  1  6  0  0  0
 14 10  1  0  0  0  0
 15  9  1  0  0  0  0
 15 11  2  0  0  0  0
 17  4  1  0  0  0  0
 17 18  1  0  0  0  0
 19 18  1  0  0  0  0
 19 20  1  0  0  0  0
 22 21  1  0  0  0  0
 23 22  1  0  0  0  0
 24 31  1  0  0  0  0
 24 29  1  0  0  0  0
 24 26  1  1  0  0  0
 25 30  1  0  0  0  0
 25 28  1  0  0  0  0
 27 29  1  0  0  0  0
 28 24  1  0  0  0  0
 29 23  1  1  0  0  0
 30 27  1  0  0  0  0
 32 31  1  0  0  0  0
M  END
>  <MODEL>
1

>  <REMARK>
 VINA RESULT:      -9.2      0.000      0.000
  Name = 
  10 active torsions:
  status: ('A' for Active; 'I' for Inactive)
    1  A    between atoms: C_2  and  C_5
    2  A    between atoms: C_2  and  C_6
    3  A    between atoms: C_3  and  O_22
    4  A    between atoms: C_4  and  C_27
    5  A    between atoms: C_13  and  C_29
    6  A    between atoms: C_14  and  C_18
    7  A    between atoms: O_16  and  C_20
    8  A    between atoms: O_16  and  O_24
    9  A    between atoms: C_18  and  C_29
   10  A    between atoms: O_24  and  C_27
                            x       y       z     vdW  Elec       q    Type
                         _______ _______ _______ _____ _____    ______ ____

>  <TORSDO>
F 10

$$$$
=
 OpenBabel10262421173D

 32 35  0  0  1  0  0  0  0  0999 V2000
  186.1240  177.7610  143.3220 C   0  0  0  0  0  2  0  0  0  0  0  0
  185.3190  178.5780  144.2930 C   0  0  0  0  0  0  0  0  0  0  0  0
  187.6040  177.6440  143.7230 C   0  0  1  0  0  3  0  0  0  0  0  0
  187.7880  177.4810  145.2180 C   0  0  0  0  0  0  0  0  0  0  0  0
  186.9020  178.0140  146.0660 C   0  0  0  0  0  3  0  0  0  0  0  0
  185.6640  178.6450  145.5810 C   0  0  0  0  0  3  0  0  0  0  0  0
  188.2290  176.4870  142.9540 C   0  0  0  0  0  2  0  0  0  0  0  0
  189.0150  176.9930  141.7950 C   0  0  0  0  0  0  0  0  0  0  0  0
  191.0810  176.7120  137.9480 C   0  0  0  0  0  3  0  0  0  0  0  0
  190.1900  176.3560  141.3060 N   0  0  0  0  0  2  0  0  0  0  0  0
  189.1210  178.0850  138.5630 C   0  0  0  0  0  3  0  0  0  0  0  0
  189.6490  178.1830  139.9720 C   0  0  1  0  0  3  0  0  0  0  0  0
  188.6130  178.0010  141.0290 C   0  0  0  0  0  3  0  0  0  0  0  0
  190.5490  177.0300  140.2670 C   0  0  2  0  0  3  0  0  0  0  0  0
  189.8290  177.4460  137.6150 C   0  0  0  0  0  3  0  0  0  0  0  0
  191.4250  176.4850  139.2250 C   0  0  0  0  0  3  0  0  0  0  0  0
  189.0780  176.9590  145.7660 C   0  0  0  0  0  2  0  0  0  0  0  0
  190.1240  178.0590  145.8040 C   0  0  0  0  0  2  0  0  0  0  0  0
  191.1840  177.7810  144.7610 C   0  0  0  0  0  2  0  0  0  0  0  0
  191.3280  178.9860  143.8560 C   0  0  0  0  0  1  0  0  0  0  0  0
  184.0450  179.2000  143.8310 C   0  0  0  0  0  2  0  0  0  0  0  0
  183.5750  178.5420  142.6900 O   0  0  0  0  0  0  0  0  0  0  0  0
  183.9900  179.2880  141.6820 O   0  0  0  0  0  0  0  0  0  0  0  0
  184.2440  179.1100  139.2100 C   0  0  2  0  0  0  0  0  0  0  0  0
  183.4350  176.9910  138.1930 N   0  0  0  0  0  2  0  0  0  0  0  0
  184.1270  180.4910  139.0390 O   0  0  0  0  0  1  0  0  0  0  0  0
  183.1380  177.2330  140.6130 C   0  0  0  0  0  2  0  0  0  0  0  0
  183.5840  178.4360  137.9950 C   0  0  0  0  0  2  0  0  0  0  0  0
  183.4740  178.7240  140.4950 C   0  0  1  0  0  3  0  0  0  0  0  0
  182.5140  176.7580  139.3040 C   0  0  0  0  0  2  0  0  0  0  0  0
  185.6180  178.7960  139.2740 O   0  0  0  0  0  0  0  0  0  0  0  0
  186.0550  178.5400  138.0470 F   0  0  0  0  0  0  0  0  0  0  0  0
  1  3  1  0  0  0  0
  1  2  1  0  0  0  0
  2  6  2  0  0  0  0
  3  7  1  6  0  0  0
  3  4  1  0  0  0  0
  4 17  1  0  0  0  0
  4  5  2  0  0  0  0
  6  5  1  0  0  0  0
  8  7  1  0  0  0  0
  9 16  2  0  0  0  0
 10  8  1  0  0  0  0
 12 11  1  6  0  0  0
 12 14  1  0  0  0  0
 12 13  1  0  0  0  0
 13  8  2  0  0  0  0
 14 16  1  6  0  0  0
 14 10  1  0  0  0  0
 15  9  1  0  0  0  0
 15 11  2  0  0  0  0
 17 18  1  0  0  0  0
 19 18  1  0  0  0  0
 20 19  1  0  0  0  0
 21  2  1  0  0  0  0
 22 21  1  0  0  0  0
 23 22  1  0  0  0  0
 24 26  1  6  0  0  0
 24 31  1  0  0  0  0
 24 29  1  0  0  0  0
 25 30  1  0  0  0  0
 28 25  1  0  0  0  0
 28 24  1  0  0  0  0
 29 27  1  0  0  0  0
 29 23  1  1  0  0  0
 30 27  1  0  0  0  0
 32 31  1  0  0  0  0
M  END
>  <MODEL>
2

>  <REMARK>
 VINA RESULT:      -8.8      2.618      3.226
  Name = 
  10 active torsions:
  status: ('A' for Active; 'I' for Inactive)
    1  A    between atoms: C_2  and  C_5
    2  A    between atoms: C_2  and  C_6
    3  A    between atoms: C_3  and  O_22
    4  A    between atoms: C_4  and  C_27
    5  A    between atoms: C_13  and  C_29
    6  A    between atoms: C_14  and  C_18
    7  A    between atoms: O_16  and  C_20
    8  A    between atoms: O_16  and  O_24
    9  A    between atoms: C_18  and  C_29
   10  A    between atoms: O_24  and  C_27
                            x       y       z     vdW  Elec       q    Type
                         _______ _______ _______ _____ _____    ______ ____

>  <TORSDO>
F 10

$$$$
=
 OpenBabel10262421173D

 32 35  0  0  1  0  0  0  0  0999 V2000
  185.9910  177.7530  144.1950 C   0  0  0  0  0  2  0  0  0  0  0  0
  185.4360  178.5100  145.3680 C   0  0  0  0  0  0  0  0  0  0  0  0
  187.5220  177.6230  144.2380 C   0  0  1  0  0  3  0  0  0  0  0  0
  188.0440  177.3780  145.6390 C   0  0  0  0  0  0  0  0  0  0  0  0
  187.3790  177.8580  146.6960 C   0  0  0  0  0  3  0  0  0  0  0  0
  186.0670  178.5070  146.5440 C   0  0  0  0  0  3  0  0  0  0  0  0
  187.9460  176.5140  143.2830 C   0  0  0  0  0  2  0  0  0  0  0  0
  188.6350  177.0840  142.0920 C   0  0  0  0  0  0  0  0  0  0  0  0
  190.6100  176.9660  138.1900 C   0  0  0  0  0  3  0  0  0  0  0  0
  189.8620  176.5760  141.5780 N   0  0  0  0  0  2  0  0  0  0  0  0
  188.5230  178.1160  138.8410 C   0  0  0  0  0  3  0  0  0  0  0  0
  189.0760  178.3020  140.2310 C   0  0  1  0  0  3  0  0  0  0  0  0
  188.0980  178.0230  141.3220 C   0  0  0  0  0  3  0  0  0  0  0  0
  190.1110  177.2660  140.5190 C   0  0  2  0  0  3  0  0  0  0  0  0
  189.2730  177.5450  137.8830 C   0  0  0  0  0  3  0  0  0  0  0  0
  191.0140  176.8050  139.4590 C   0  0  0  0  0  3  0  0  0  0  0  0
  189.4210  176.8350  145.8460 C   0  0  0  0  0  2  0  0  0  0  0  0
  190.4380  177.9620  145.8830 C   0  0  0  0  0  2  0  0  0  0  0  0
  191.2910  177.9090  144.6340 C   0  0  0  0  0  2  0  0  0  0  0  0
  191.1180  179.1940  143.8520 C   0  0  0  0  0  1  0  0  0  0  0  0
  184.0940  179.1480  145.2470 C   0  0  0  0  0  2  0  0  0  0  0  0
  183.8380  179.4790  143.9110 O   0  0  0  0  0  0  0  0  0  0  0  0
  182.5240  179.4020  143.7960 O   0  0  0  0  0  0  0  0  0  0  0  0
  180.8280  178.8670  142.0520 C   0  0  2  0  0  0  0  0  0  0  0  0
  181.7350  178.1930  139.8390 N   0  0  0  0  0  2  0  0  0  0  0  0
  179.8980  178.4400  143.0020 O   0  0  0  0  0  1  0  0  0  0  0  0
  183.3710  178.6590  141.6010 C   0  0  0  0  0  2  0  0  0  0  0  0
  180.6490  177.9910  140.8010 C   0  0  0  0  0  2  0  0  0  0  0  0
  182.2430  178.6460  142.6380 C   0  0  1  0  0  3  0  0  0  0  0  0
  182.9900  177.7460  140.4390 C   0  0  0  0  0  2  0  0  0  0  0  0
  180.5570  180.2210  141.7600 O   0  0  0  0  0  0  0  0  0  0  0  0
  179.8640  180.7450  142.7640 F   0  0  0  0  0  0  0  0  0  0  0  0
  1  3  1  0  0  0  0
  1  2  1  0  0  0  0
  2  6  2  0  0  0  0
  3  7  1  6  0  0  0
  3  4  1  0  0  0  0
  4 17  1  0  0  0  0
  4  5  2  0  0  0  0
  6  5  1  0  0  0  0
  8  7  1  0  0  0  0
  9 16  2  0  0  0  0
 10  8  1  0  0  0  0
 12 11  1  6  0  0  0
 12 14  1  0  0  0  0
 12 13  1  0  0  0  0
 13  8  2  0  0  0  0
 14 16  1  6  0  0  0
 14 10  1  0  0  0  0
 15  9  1  0  0  0  0
 15 11  2  0  0  0  0
 17 18  1  0  0  0  0
 19 18  1  0  0  0  0
 20 19  1  0  0  0  0
 21  2  1  0  0  0  0
 22 21  1  0  0  0  0
 23 22  1  0  0  0  0
 24 29  1  0  0  0  0
 24 26  1  1  0  0  0
 25 30  1  0  0  0  0
 25 28  1  0  0  0  0
 27 29  1  0  0  0  0
 28 24  1  0  0  0  0
 29 23  1  1  0  0  0
 30 27  1  0  0  0  0
 31 24  1  0  0  0  0
 31 32  1  0  0  0  0
M  END
>  <MODEL>
3

>  <REMARK>
 VINA RESULT:      -8.7      1.252      1.534
  Name = 
  10 active torsions:
  status: ('A' for Active; 'I' for Inactive)
    1  A    between atoms: C_2  and  C_5
    2  A    between atoms: C_2  and  C_6
    3  A    between atoms: C_3  and  O_22
    4  A    between atoms: C_4  and  C_27
    5  A    between atoms: C_13  and  C_29
    6  A    between atoms: C_14  and  C_18
    7  A    between atoms: O_16  and  C_20
    8  A    between atoms: O_16  and  O_24
    9  A    between atoms: C_18  and  C_29
   10  A    between atoms: O_24  and  C_27
                            x       y       z     vdW  Elec       q    Type
                         _______ _______ _______ _____ _____    ______ ____

>  <TORSDO>
F 10

$$$$
=
 OpenBabel10262421173D

 32 35  0  0  1  0  0  0  0  0999 V2000
  185.7590  177.8090  143.9400 C   0  0  0  0  0  2  0  0  0  0  0  0
  185.0750  178.5870  145.0280 C   0  0  0  0  0  0  0  0  0  0  0  0
  187.2810  177.7190  144.1350 C   0  0  1  0  0  3  0  0  0  0  0  0
  187.6690  177.5320  145.5870 C   0  0  0  0  0  0  0  0  0  0  0  0
  186.8940  178.0280  146.5590 C   0  0  0  0  0  3  0  0  0  0  0  0
  185.5890  178.6380  146.2580 C   0  0  0  0  0  3  0  0  0  0  0  0
  187.8210  176.5920  143.2640 C   0  0  0  0  0  2  0  0  0  0  0  0
  188.5550  177.1440  142.0910 C   0  0  0  0  0  0  0  0  0  0  0  0
  190.5970  176.9770  138.2250 C   0  0  0  0  0  3  0  0  0  0  0  0
  189.7690  176.5910  141.5950 N   0  0  0  0  0  2  0  0  0  0  0  0
  188.5460  178.2060  138.8470 C   0  0  0  0  0  3  0  0  0  0  0  0
  189.0790  178.3580  140.2490 C   0  0  1  0  0  3  0  0  0  0  0  0
  188.0710  178.1100  141.3190 C   0  0  0  0  0  3  0  0  0  0  0  0
  190.0660  177.2780  140.5460 C   0  0  2  0  0  3  0  0  0  0  0  0
  189.2900  177.6120  137.8980 C   0  0  0  0  0  3  0  0  0  0  0  0
  190.9700  176.7900  139.4990 C   0  0  0  0  0  3  0  0  0  0  0  0
  189.0320  177.0320  145.9440 C   0  0  0  0  0  2  0  0  0  0  0  0
  190.0490  178.1560  145.8670 C   0  0  0  0  0  2  0  0  0  0  0  0
  191.0430  177.8590  144.7650 C   0  0  0  0  0  2  0  0  0  0  0  0
  191.1820  179.0740  143.8730 C   0  0  0  0  0  1  0  0  0  0  0  0
  183.7370  179.1860  144.7560 C   0  0  0  0  0  2  0  0  0  0  0  0
  183.5150  179.2620  143.3770 O   0  0  0  0  0  0  0  0  0  0  0  0
  182.4220  178.5460  143.1770 O   0  0  0  0  0  0  0  0  0  0  0  0
  181.3480  178.9070  140.9590 C   0  0  2  0  0  0  0  0  0  0  0  0
  179.0960  179.9580  141.0100 N   0  0  0  0  0  2  0  0  0  0  0  0
  182.5800  179.0490  140.3180 O   0  0  0  0  0  1  0  0  0  0  0  0
  180.2150  179.6520  143.1670 C   0  0  0  0  0  2  0  0  0  0  0  0
  180.3520  179.8490  140.2620 C   0  0  0  0  0  2  0  0  0  0  0  0
  181.5250  179.3420  142.4330 C   0  0  1  0  0  3  0  0  0  0  0  0
  179.3680  180.5820  142.3040 C   0  0  0  0  0  2  0  0  0  0  0  0
  180.9430  177.5610  140.8260 O   0  0  0  0  0  0  0  0  0  0  0  0
  181.9270  176.8740  140.2570 F   0  0  0  0  0  0  0  0  0  0  0  0
  1  3  1  0  0  0  0
  1  2  1  0  0  0  0
  2  6  2  0  0  0  0
  3  7  1  6  0  0  0
  3  4  1  0  0  0  0
  4 17  1  0  0  0  0
  4  5  2  0  0  0  0
  6  5  1  0  0  0  0
  8  7  1  0  0  0  0
  9 16  2  0  0  0  0
 10  8  1  0  0  0  0
 12 11  1  6  0  0  0
 12 14  1  0  0  0  0
 12 13  1  0  0  0  0
 13  8  2  0  0  0  0
 14 16  1  6  0  0  0
 14 10  1  0  0  0  0
 15  9  1  0  0  0  0
 15 11  2  0  0  0  0
 18 17  1  0  0  0  0
 19 18  1  0  0  0  0
 20 19  1  0  0  0  0
 21  2  1  0  0  0  0
 22 21  1  0  0  0  0
 23 22  1  0  0  0  0
 24 26  1  6  0  0  0
 24 29  1  0  0  0  0
 25 30  1  0  0  0  0
 28 24  1  0  0  0  0
 28 25  1  0  0  0  0
 29 27  1  0  0  0  0
 29 23  1  1  0  0  0
 30 27  1  0  0  0  0
 31 24  1  0  0  0  0
 32 31  1  0  0  0  0
M  END
>  <MODEL>
4

>  <REMARK>
 VINA RESULT:      -8.4      1.825      2.451
  Name = 
  10 active torsions:
  status: ('A' for Active; 'I' for Inactive)
    1  A    between atoms: C_2  and  C_5
    2  A    between atoms: C_2  and  C_6
    3  A    between atoms: C_3  and  O_22
    4  A    between atoms: C_4  and  C_27
    5  A    between atoms: C_13  and  C_29
    6  A    between atoms: C_14  and  C_18
    7  A    between atoms: O_16  and  C_20
    8  A    between atoms: O_16  and  O_24
    9  A    between atoms: C_18  and  C_29
   10  A    between atoms: O_24  and  C_27
                            x       y       z     vdW  Elec       q    Type
                         _______ _______ _______ _____ _____    ______ ____

>  <TORSDO>
F 10

$$$$
=
 OpenBabel10262421173D

 32 35  0  0  1  0  0  0  0  0999 V2000
  188.5370  178.2390  141.5880 C   0  0  0  0  0  2  0  0  0  0  0  0
  189.6300  177.2350  141.8260 C   0  0  0  0  0  0  0  0  0  0  0  0
  187.2390  177.8990  142.3380 C   0  0  1  0  0  3  0  0  0  0  0  0
  187.4990  177.3460  143.7240 C   0  0  0  0  0  0  0  0  0  0  0  0
  188.6200  176.6600  143.9750 C   0  0  0  0  0  3  0  0  0  0  0  0
  189.6860  176.5440  142.9660 C   0  0  0  0  0  3  0  0  0  0  0  0
  186.3630  179.1440  142.3900 C   0  0  0  0  0  2  0  0  0  0  0  0
  185.1410  178.9580  141.5590 C   0  0  0  0  0  0  0  0  0  0  0  0
  182.8920  177.9960  137.9310 C   0  0  0  0  0  3  0  0  0  0  0  0
  184.9710  179.5430  140.2720 N   0  0  0  0  0  0  0  0  0  0  0  0
  182.8390  176.8790  140.1330 C   0  0  0  0  0  3  0  0  0  0  0  0
  183.1460  178.1990  140.7950 C   0  0  1  0  0  3  0  0  0  0  0  0
  184.1630  178.1190  141.8810 C   0  0  0  0  0  2  0  0  0  0  0  0
  183.8380  179.1090  139.8360 C   0  0  2  0  0  3  0  0  0  0  0  0
  182.6650  176.8110  138.8020 C   0  0  0  0  0  3  0  0  0  0  0  0
  183.4790  179.1020  138.4130 C   0  0  0  0  0  3  0  0  0  0  0  0
  186.4080  177.3290  144.7460 C   0  0  0  0  0  2  0  0  0  0  0  0
  186.8700  177.9910  146.0310 C   0  0  0  0  0  2  0  0  0  0  0  0
  185.7710  178.8880  146.5580 C   0  0  0  0  0  2  0  0  0  0  0  0
  184.5810  178.8270  145.6240 C   0  0  0  0  0  1  0  0  0  0  0  0
  190.7360  177.1230  140.8330 C   0  0  0  0  0  2  0  0  0  0  0  0
  190.3690  176.2550  139.7990 O   0  0  0  0  0  0  0  0  0  0  0  0
  190.1690  177.0440  138.7580 O   0  0  0  0  0  0  0  0  0  0  0  0
  188.1660  177.7590  137.4620 C   0  0  2  0  0  0  0  0  0  0  0  0
  187.2140  176.0550  135.9240 N   0  0  0  0  0  2  0  0  0  0  0  0
  187.7590  178.6420  138.4640 O   0  0  0  0  0  1  0  0  0  0  0  0
  189.1420  175.3660  137.2680 C   0  0  0  0  0  2  0  0  0  0  0  0
  186.8980  177.1720  136.8180 C   0  0  0  0  0  2  0  0  0  0  0  0
  188.9780  176.6230  138.1290 C   0  0  1  0  0  3  0  0  0  0  0  0
  187.7800  174.9620  136.7130 C   0  0  0  0  0  2  0  0  0  0  0  0
  188.9160  178.4920  136.5180 O   0  0  0  0  0  0  0  0  0  0  0  0
  189.3210  179.6240  137.0810 F   0  0  0  0  0  0  0  0  0  0  0  0
  1  2  1  0  0  0  0
  1  3  1  0  0  0  0
  2  6  2  0  0  0  0
  3  7  1  1  0  0  0
  3  4  1  0  0  0  0
  4  5  2  0  0  0  0
  4 17  1  0  0  0  0
  6  5  1  0  0  0  0
  8 13  1  0  0  0  0
  8  7  1  0  0  0  0
  9 16  2  0  0  0  0
  9 15  1  0  0  0  0
 10  8  2  0  0  0  0
 12 11  1  6  0  0  0
 12 13  1  0  0  0  0
 14 16  1  6  0  0  0
 14 10  1  0  0  0  0
 14 12  1  0  0  0  0
 15 11  2  0  0  0  0
 17 18  1  0  0  0  0
 18 19  1  0  0  0  0
 20 19  1  0  0  0  0
 21  2  1  0  0  0  0
 22 21  1  0  0  0  0
 23 22  1  0  0  0  0
 24 29  1  0  0  0  0
 24 26  1  1  0  0  0
 25 30  1  0  0  0  0
 25 28  1  0  0  0  0
 27 29  1  0  0  0  0
 28 24  1  0  0  0  0
 29 23  1  6  0  0  0
 30 27  1  0  0  0  0
 31 32  1  0  0  0  0
 31 24  1  0  0  0  0
M  END
>  <MODEL>
5

>  <REMARK>
 VINA RESULT:      -8.4      4.227      6.987
  Name = 
  10 active torsions:
  status: ('A' for Active; 'I' for Inactive)
    1  A    between atoms: C_2  and  C_5
    2  A    between atoms: C_2  and  C_6
    3  A    between atoms: C_3  and  O_22
    4  A    between atoms: C_4  and  C_27
    5  A    between atoms: C_13  and  C_29
    6  A    between atoms: C_14  and  C_18
    7  A    between atoms: O_16  and  C_20
    8  A    between atoms: O_16  and  O_24
    9  A    between atoms: C_18  and  C_29
   10  A    between atoms: O_24  and  C_27
                            x       y       z     vdW  Elec       q    Type
                         _______ _______ _______ _____ _____    ______ ____

>  <TORSDO>
F 10

$$$$
=
 OpenBabel10262421173D

 32 35  0  0  1  0  0  0  0  0999 V2000
  185.1740  177.8800  143.3040 C   0  0  0  0  0  2  0  0  0  0  0  0
  184.1580  178.6890  144.0600 C   0  0  0  0  0  0  0  0  0  0  0  0
  186.6010  178.0530  143.8500 C   0  0  1  0  0  3  0  0  0  0  0  0
  186.6370  178.1330  145.3620 C   0  0  0  0  0  0  0  0  0  0  0  0
  185.5950  178.6340  146.0340 C   0  0  0  0  0  3  0  0  0  0  0  0
  184.3430  178.9890  145.3470 C   0  0  0  0  0  3  0  0  0  0  0  0
  187.4650  176.9120  143.3300 C   0  0  0  0  0  2  0  0  0  0  0  0
  188.3070  177.3700  142.1900 C   0  0  0  0  0  0  0  0  0  0  0  0
  190.6190  176.9170  138.5030 C   0  0  0  0  0  3  0  0  0  0  0  0
  189.5300  176.7450  141.8170 N   0  0  0  0  0  2  0  0  0  0  0  0
  188.5820  178.2550  138.9050 C   0  0  0  0  0  3  0  0  0  0  0  0
  189.0160  178.4620  140.3340 C   0  0  1  0  0  3  0  0  0  0  0  0
  187.9230  178.3120  141.3350 C   0  0  0  0  0  3  0  0  0  0  0  0
  189.9320  177.3630  140.7590 C   0  0  2  0  0  3  0  0  0  0  0  0
  189.3680  177.5830  138.0460 C   0  0  0  0  0  3  0  0  0  0  0  0
  190.8890  176.7840  139.8100 C   0  0  0  0  0  3  0  0  0  0  0  0
  187.9180  177.9020  146.0980 C   0  0  0  0  0  2  0  0  0  0  0  0
  187.7090  178.0580  147.5940 C   0  0  0  0  0  2  0  0  0  0  0  0
  188.7740  177.2770  148.3340 C   0  0  0  0  0  2  0  0  0  0  0  0
  189.7950  176.7570  147.3450 C   0  0  0  0  0  1  0  0  0  0  0  0
  182.8690  179.0320  143.3940 C   0  0  0  0  0  2  0  0  0  0  0  0
  182.7110  178.2730  142.2300 O   0  0  0  0  0  0  0  0  0  0  0  0
  182.3420  179.1470  141.3100 O   0  0  0  0  0  0  0  0  0  0  0  0
  183.0070  179.4070  138.9240 C   0  0  2  0  0  0  0  0  0  0  0  0
  183.7890  177.3370  137.7920 N   0  0  0  0  0  2  0  0  0  0  0  0
  182.1130  180.4610  138.7270 O   0  0  0  0  0  1  0  0  0  0  0  0
  183.0590  177.1080  140.1190 C   0  0  0  0  0  2  0  0  0  0  0  0
  183.0690  178.6010  137.6150 C   0  0  0  0  0  2  0  0  0  0  0  0
  182.4460  178.5110  140.0540 C   0  0  1  0  0  3  0  0  0  0  0  0
  183.0420  176.4920  138.7230 C   0  0  0  0  0  2  0  0  0  0  0  0
  184.2680  179.9600  139.2330 O   0  0  0  0  0  0  0  0  0  0  0  0
  184.9410  179.0960  139.9840 F   0  0  0  0  0  0  0  0  0  0  0  0
  1  3  1  0  0  0  0
  1  2  1  0  0  0  0
  2  6  2  0  0  0  0
  3  7  1  1  0  0  0
  3  4  1  0  0  0  0
  4  5  2  0  0  0  0
  4 17  1  0  0  0  0
  6  5  1  0  0  0  0
  8  7  1  0  0  0  0
  9 16  2  0  0  0  0
 10  8  1  0  0  0  0
 12 11  1  6  0  0  0
 12 14  1  0  0  0  0
 12 13  1  0  0  0  0
 13  8  2  0  0  0  0
 14 16  1  6  0  0  0
 14 10  1  0  0  0  0
 15  9  1  0  0  0  0
 15 11  2  0  0  0  0
 17 18  1  0  0  0  0
 18 19  1  0  0  0  0
 20 19  1  0  0  0  0
 21  2  1  0  0  0  0
 22 21  1  0  0  0  0
 23 22  1  0  0  0  0
 24 26  1  6  0  0  0
 24 31  1  0  0  0  0
 24 29  1  0  0  0  0
 25 30  1  0  0  0  0
 28 25  1  0  0  0  0
 28 24  1  0  0  0  0
 29 27  1  0  0  0  0
 29 23  1  1  0  0  0
 30 27  1  0  0  0  0
 31 32  1  0  0  0  0
M  END
>  <MODEL>
6

>  <REMARK>
 VINA RESULT:      -8.1      2.342      3.181
  Name = 
  10 active torsions:
  status: ('A' for Active; 'I' for Inactive)
    1  A    between atoms: C_2  and  C_5
    2  A    between atoms: C_2  and  C_6
    3  A    between atoms: C_3  and  O_22
    4  A    between atoms: C_4  and  C_27
    5  A    between atoms: C_13  and  C_29
    6  A    between atoms: C_14  and  C_18
    7  A    between atoms: O_16  and  C_20
    8  A    between atoms: O_16  and  O_24
    9  A    between atoms: C_18  and  C_29
   10  A    between atoms: O_24  and  C_27
                            x       y       z     vdW  Elec       q    Type
                         _______ _______ _______ _____ _____    ______ ____

>  <TORSDO>
F 10

$$$$
=
 OpenBabel10262421173D

 32 35  0  0  1  0  0  0  0  0999 V2000
  185.6610  177.8490  142.7890 C   0  0  0  0  0  2  0  0  0  0  0  0
  184.6390  178.8660  142.3640 C   0  0  0  0  0  0  0  0  0  0  0  0
  186.1230  178.0380  144.2430 C   0  0  1  0  0  3  0  0  0  0  0  0
  184.9870  178.4330  145.1650 C   0  0  0  0  0  0  0  0  0  0  0  0
  183.9510  179.1350  144.6920 C   0  0  0  0  0  3  0  0  0  0  0  0
  183.8140  179.4190  143.2540 C   0  0  0  0  0  3  0  0  0  0  0  0
  186.8010  176.7570  144.7110 C   0  0  0  0  0  2  0  0  0  0  0  0
  188.2550  176.7880  144.3910 C   0  0  0  0  0  0  0  0  0  0  0  0
  191.7760  177.5070  141.8950 C   0  0  0  0  0  3  0  0  0  0  0  0
  188.8110  176.2150  143.2120 N   0  0  0  0  0  0  0  0  0  0  0  0
  191.1550  178.5540  144.0450 C   0  0  0  0  0  3  0  0  0  0  0  0
  190.4690  177.2750  144.4530 C   0  0  1  0  0  3  0  0  0  0  0  0
  189.1420  177.4720  145.1040 C   0  0  0  0  0  2  0  0  0  0  0  0
  190.0690  176.4950  143.2450 C   0  0  2  0  0  3  0  0  0  0  0  0
  191.8120  178.6280  142.8740 C   0  0  0  0  0  3  0  0  0  0  0  0
  190.9220  176.4850  142.0520 C   0  0  0  0  0  3  0  0  0  0  0  0
  185.1300  178.2780  146.6450 C   0  0  0  0  0  2  0  0  0  0  0  0
  186.3750  178.9930  147.1380 C   0  0  0  0  0  2  0  0  0  0  0  0
  186.9620  178.2320  148.3070 C   0  0  0  0  0  2  0  0  0  0  0  0
  188.4720  178.2570  148.2170 C   0  0  0  0  0  1  0  0  0  0  0  0
  184.4610  179.1460  140.9100 C   0  0  0  0  0  2  0  0  0  0  0  0
  185.2330  178.2610  140.1510 O   0  0  0  0  0  0  0  0  0  0  0  0
  185.8960  179.0350  139.3100 O   0  0  0  0  0  0  0  0  0  0  0  0
  187.8990  177.8800  138.3820 C   0  0  2  0  0  0  0  0  0  0  0  0
  187.4430  175.8070  137.0880 N   0  0  0  0  0  2  0  0  0  0  0  0
  188.6110  179.0750  138.2710 O   0  0  0  0  0  1  0  0  0  0  0  0
  185.4950  177.0100  137.9570 C   0  0  0  0  0  2  0  0  0  0  0  0
  188.3100  176.9830  137.2030 C   0  0  0  0  0  2  0  0  0  0  0  0
  186.3910  178.2120  138.2760 C   0  0  1  0  0  3  0  0  0  0  0  0
  186.0850  176.2480  136.7750 C   0  0  0  0  0  2  0  0  0  0  0  0
  188.2460  177.2810  139.6120 O   0  0  0  0  0  0  0  0  0  0  0  0
  188.9210  178.1640  140.3410 F   0  0  0  0  0  0  0  0  0  0  0  0
  1  3  1  0  0  0  0
  2  1  1  0  0  0  0
  2  6  2  0  0  0  0
  3  7  1  1  0  0  0
  3  4  1  0  0  0  0
  4 17  1  0  0  0  0
  5  4  2  0  0  0  0
  6  5  1  0  0  0  0
  8  7  1  0  0  0  0
  8 13  1  0  0  0  0
  9 16  2  0  0  0  0
  9 15  1  0  0  0  0
 10 14  1  0  0  0  0
 10  8  2  0  0  0  0
 12 11  1  6  0  0  0
 12 13  1  0  0  0  0
 14 16  1  6  0  0  0
 14 12  1  0  0  0  0
 15 11  2  0  0  0  0
 17 18  1  0  0  0  0
 18 19  1  0  0  0  0
 20 19  1  0  0  0  0
 21  2  1  0  0  0  0
 22 21  1  0  0  0  0
 23 22  1  0  0  0  0
 24 26  1  6  0  0  0
 24 31  1  0  0  0  0
 25 28  1  0  0  0  0
 27 29  1  0  0  0  0
 28 24  1  0  0  0  0
 29 24  1  0  0  0  0
 29 23  1  1  0  0  0
 30 25  1  0  0  0  0
 30 27  1  0  0  0  0
 31 32  1  0  0  0  0
M  END
>  <MODEL>
7

>  <REMARK>
 VINA RESULT:      -8.1      3.462      5.681
  Name = 
  10 active torsions:
  status: ('A' for Active; 'I' for Inactive)
    1  A    between atoms: C_2  and  C_5
    2  A    between atoms: C_2  and  C_6
    3  A    between atoms: C_3  and  O_22
    4  A    between atoms: C_4  and  C_27
    5  A    between atoms: C_13  and  C_29
    6  A    between atoms: C_14  and  C_18
    7  A    between atoms: O_16  and  C_20
    8  A    between atoms: O_16  and  O_24
    9  A    between atoms: C_18  and  C_29
   10  A    between atoms: O_24  and  C_27
                            x       y       z     vdW  Elec       q    Type
                         _______ _______ _______ _____ _____    ______ ____

>  <TORSDO>
F 10

$$$$
=
 OpenBabel10262421173D

 32 35  0  0  1  0  0  0  0  0999 V2000
  186.1850  178.4050  143.8790 C   0  0  0  0  0  2  0  0  0  0  0  0
  186.1120  177.9750  145.3160 C   0  0  0  0  0  0  0  0  0  0  0  0
  184.8050  178.4640  143.2020 C   0  0  1  0  0  3  0  0  0  0  0  0
  183.7310  179.0040  144.1230 C   0  0  0  0  0  0  0  0  0  0  0  0
  183.8240  178.8210  145.4450 C   0  0  0  0  0  3  0  0  0  0  0  0
  185.0250  178.2220  146.0500 C   0  0  0  0  0  3  0  0  0  0  0  0
  184.9190  179.2940  141.9300 C   0  0  0  0  0  2  0  0  0  0  0  0
  184.2290  178.6140  140.7990 C   0  0  0  0  0  0  0  0  0  0  0  0
  180.8970  176.6320  138.7710 C   0  0  0  0  0  3  0  0  0  0  0  0
  183.5370  177.3770  140.9320 N   0  0  0  0  0  2  0  0  0  0  0  0
  182.0400  178.7410  138.1830 C   0  0  0  0  0  3  0  0  0  0  0  0
  183.3190  178.1940  138.7650 C   0  0  1  0  0  3  0  0  0  0  0  0
  184.0770  179.1680  139.6010 C   0  0  0  0  0  3  0  0  0  0  0  0
  183.0160  177.1400  139.7770 C   0  0  2  0  0  3  0  0  0  0  0  0
  180.9330  177.9790  138.1390 C   0  0  0  0  0  3  0  0  0  0  0  0
  181.8850  176.2260  139.5820 C   0  0  0  0  0  3  0  0  0  0  0  0
  182.4410  179.5090  143.5610 C   0  0  0  0  0  2  0  0  0  0  0  0
  181.3010  178.5730  143.9170 C   0  0  0  0  0  2  0  0  0  0  0  0
  180.1250  178.8400  143.0020 C   0  0  0  0  0  2  0  0  0  0  0  0
  180.6340  179.3030  141.6530 C   0  0  0  0  0  1  0  0  0  0  0  0
  187.3270  177.3960  145.9590 C   0  0  0  0  0  2  0  0  0  0  0  0
  188.4810  177.9460  145.3900 O   0  0  0  0  0  0  0  0  0  0  0  0
  189.1600  176.9040  144.9440 O   0  0  0  0  0  0  0  0  0  0  0  0
  191.1870  177.0900  143.5070 C   0  0  2  0  0  0  0  0  0  0  0  0
  190.8160  176.7530  141.0730 N   0  0  0  0  0  2  0  0  0  0  0  0
  191.7970  177.9910  144.3810 O   0  0  0  0  0  1  0  0  0  0  0  0
  188.8360  176.6480  142.5100 C   0  0  0  0  0  2  0  0  0  0  0  0
  191.5950  177.4820  142.0770 C   0  0  0  0  0  2  0  0  0  0  0  0
  189.6540  177.2380  143.6640 C   0  0  1  0  0  3  0  0  0  0  0  0
  189.4120  177.1430  141.1870 C   0  0  0  0  0  2  0  0  0  0  0  0
  191.6520  175.7960  143.8250 O   0  0  0  0  0  0  0  0  0  0  0  0
  191.9630  175.7600  145.1160 F   0  0  0  0  0  0  0  0  0  0  0  0
  1  2  1  0  0  0  0
  2 21  1  0  0  0  0
  2  6  2  0  0  0  0
  3  7  1  6  0  0  0
  3  1  1  0  0  0  0
  3  4  1  0  0  0  0
  4  5  2  0  0  0  0
  5  6  1  0  0  0  0
  8 10  1  0  0  0  0
  8  7  1  0  0  0  0
  9 16  2  0  0  0  0
 12 11  1  1  0  0  0
 12 13  1  0  0  0  0
 12 14  1  0  0  0  0
 13  8  2  0  0  0  0
 14 16  1  1  0  0  0
 14 10  1  0  0  0  0
 15 11  2  0  0  0  0
 15  9  1  0  0  0  0
 17 18  1  0  0  0  0
 17  4  1  0  0  0  0
 19 18  1  0  0  0  0
 20 19  1  0  0  0  0
 22 21  1  0  0  0  0
 23 22  1  0  0  0  0
 24 29  1  0  0  0  0
 24 31  1  0  0  0  0
 24 26  1  1  0  0  0
 25 30  1  0  0  0  0
 25 28  1  0  0  0  0
 27 29  1  0  0  0  0
 28 24  1  0  0  0  0
 29 23  1  1  0  0  0
 30 27  1  0  0  0  0
 31 32  1  0  0  0  0
M  END
>  <MODEL>
8

>  <REMARK>
 VINA RESULT:      -8.1      3.866      7.900
  Name = 
  10 active torsions:
  status: ('A' for Active; 'I' for Inactive)
    1  A    between atoms: C_2  and  C_5
    2  A    between atoms: C_2  and  C_6
    3  A    between atoms: C_3  and  O_22
    4  A    between atoms: C_4  and  C_27
    5  A    between atoms: C_13  and  C_29
    6  A    between atoms: C_14  and  C_18
    7  A    between atoms: O_16  and  C_20
    8  A    between atoms: O_16  and  O_24
    9  A    between atoms: C_18  and  C_29
   10  A    between atoms: O_24  and  C_27
                            x       y       z     vdW  Elec       q    Type
                         _______ _______ _______ _____ _____    ______ ____

>  <TORSDO>
F 10

$$$$
=
 OpenBabel10262421173D

 32 35  0  0  1  0  0  0  0  0999 V2000
  185.1090  177.9110  143.5980 C   0  0  0  0  0  2  0  0  0  0  0  0
  184.0850  178.6770  144.3870 C   0  0  0  0  0  0  0  0  0  0  0  0
  186.5090  177.9580  144.2310 C   0  0  1  0  0  3  0  0  0  0  0  0
  186.4640  177.8700  145.7430 C   0  0  0  0  0  0  0  0  0  0  0  0
  185.4070  178.3410  146.4130 C   0  0  0  0  0  3  0  0  0  0  0  0
  184.2100  178.8250  145.7070 C   0  0  0  0  0  3  0  0  0  0  0  0
  187.3560  176.8430  143.6320 C   0  0  0  0  0  2  0  0  0  0  0  0
  188.1970  177.3660  142.5190 C   0  0  0  0  0  0  0  0  0  0  0  0
  190.6940  177.0890  138.9370 C   0  0  0  0  0  3  0  0  0  0  0  0
  189.4890  176.8560  142.2060 N   0  0  0  0  0  2  0  0  0  0  0  0
  188.5240  178.2300  139.2330 C   0  0  0  0  0  3  0  0  0  0  0  0
  188.8760  178.4960  140.6750 C   0  0  1  0  0  3  0  0  0  0  0  0
  187.7610  178.2540  141.6330 C   0  0  0  0  0  3  0  0  0  0  0  0
  189.8740  177.4960  141.1560 C   0  0  2  0  0  3  0  0  0  0  0  0
  189.4060  177.6250  138.4190 C   0  0  0  0  0  3  0  0  0  0  0  0
  190.9210  177.0000  140.2560 C   0  0  0  0  0  3  0  0  0  0  0  0
  187.6920  177.5020  146.5130 C   0  0  0  0  0  2  0  0  0  0  0  0
  187.7330  178.2420  147.8370 C   0  0  0  0  0  2  0  0  0  0  0  0
  189.1000  178.0760  148.4650 C   0  0  0  0  0  2  0  0  0  0  0  0
  189.9510  177.1850  147.5860 C   0  0  0  0  0  1  0  0  0  0  0  0
  182.8490  179.1490  143.6990 C   0  0  0  0  0  2  0  0  0  0  0  0
  182.9510  178.9280  142.3210 O   0  0  0  0  0  0  0  0  0  0  0  0
  181.7220  178.6260  141.9410 O   0  0  0  0  0  0  0  0  0  0  0  0
  181.6870  177.4130  139.7660 C   0  0  2  0  0  0  0  0  0  0  0  0
  180.5010  178.5640  137.9090 N   0  0  0  0  0  2  0  0  0  0  0  0
  182.9050  176.7830  140.0290 O   0  0  0  0  0  1  0  0  0  0  0  0
  180.6190  179.7570  140.0450 C   0  0  0  0  0  2  0  0  0  0  0  0
  181.6260  177.6900  138.2540 C   0  0  0  0  0  2  0  0  0  0  0  0
  181.6690  178.7550  140.5360 C   0  0  1  0  0  3  0  0  0  0  0  0
  180.7120  179.8730  138.5270 C   0  0  0  0  0  2  0  0  0  0  0  0
  180.6530  176.5370  140.1580 O   0  0  0  0  0  0  0  0  0  0  0  0
  181.0720  175.2860  140.0030 F   0  0  0  0  0  0  0  0  0  0  0  0
  1  3  1  0  0  0  0
  1  2  1  0  0  0  0
  2  6  2  0  0  0  0
  3  7  1  6  0  0  0
  3  4  1  0  0  0  0
  4  5  2  0  0  0  0
  4 17  1  0  0  0  0
  6  5  1  0  0  0  0
  8  7  1  0  0  0  0
  9 16  2  0  0  0  0
 10  8  1  0  0  0  0
 12 11  1  6  0  0  0
 12 14  1  0  0  0  0
 12 13  1  0  0  0  0
 13  8  2  0  0  0  0
 14 16  1  6  0  0  0
 14 10  1  0  0  0  0
 15  9  1  0  0  0  0
 15 11  2  0  0  0  0
 17 18  1  0  0  0  0
 18 19  1  0  0  0  0
 20 19  1  0  0  0  0
 21  2  1  0  0  0  0
 22 21  1  0  0  0  0
 23 22  1  0  0  0  0
 24 26  1  1  0  0  0
 24 31  1  0  0  0  0
 24 29  1  0  0  0  0
 25 28  1  0  0  0  0
 25 30  1  0  0  0  0
 27 29  1  0  0  0  0
 28 24  1  0  0  0  0
 29 23  1  1  0  0  0
 30 27  1  0  0  0  0
 32 31  1  0  0  0  0
M  END
>  <MODEL>
9

>  <REMARK>
 VINA RESULT:      -8.0      2.268      3.072
  Name = 
  10 active torsions:
  status: ('A' for Active; 'I' for Inactive)
    1  A    between atoms: C_2  and  C_5
    2  A    between atoms: C_2  and  C_6
    3  A    between atoms: C_3  and  O_22
    4  A    between atoms: C_4  and  C_27
    5  A    between atoms: C_13  and  C_29
    6  A    between atoms: C_14  and  C_18
    7  A    between atoms: O_16  and  C_20
    8  A    between atoms: O_16  and  O_24
    9  A    between atoms: C_18  and  C_29
   10  A    between atoms: O_24  and  C_27
                            x       y       z     vdW  Elec       q    Type
                         _______ _______ _______ _____ _____    ______ ____

>  <TORSDO>
F 10

$$$$
