=
 OpenBabel10262419453D

 25 29  0  0  1  0  0  0  0  0999 V2000
  188.7810  177.6660  145.0600 C   0  0  0  0  0  0  0  0  0  0  0  0
  188.2090  177.9460  143.8200 C   0  0  0  0  0  0  0  0  0  0  0  0
  186.6150  177.5030  146.0840 C   0  0  0  0  0  3  0  0  0  0  0  0
  190.2030  177.6280  145.4890 C   0  0  1  0  0  3  0  0  0  0  0  0
  192.0560  176.0030  146.9810 C   0  0  0  0  0  3  0  0  0  0  0  0
  186.0470  177.7670  144.8710 N   0  0  0  0  0  0  0  0  0  0  0  0
  190.0120  177.2590  146.9380 C   0  0  0  0  0  0  0  0  0  0  0  0
  191.1160  176.6470  147.6850 C   0  0  0  0  0  3  0  0  0  0  0  0
  186.1640  178.2600  142.4840 N   0  0  0  0  0  0  0  0  0  0  0  0
  184.7240  178.1370  142.3320 C   0  0  0  0  0  1  0  0  0  0  0  0
  189.0530  178.2490  142.6150 C   0  0  0  0  0  2  0  0  0  0  0  0
  191.9490  175.8750  145.5020 C   0  0  0  0  0  3  0  0  0  0  0  0
  188.0020  177.4710  146.1700 C   0  0  0  0  0  0  0  0  0  0  0  0
  188.7750  177.1790  147.3230 N   0  0  0  0  0  0  0  0  0  0  0  0
  186.9570  178.6640  141.3250 C   0  0  0  0  0  2  0  0  0  0  0  0
  191.0440  176.5810  144.8050 C   0  0  0  0  0  3  0  0  0  0  0  0
  188.2970  177.9340  141.3240 C   0  0  1  0  0  3  0  0  0  0  0  0
  186.7980  178.0000  143.7470 C   0  0  0  0  0  0  0  0  0  0  0  0
  189.0850  178.3590  140.1760 N   0  0  0  0  0  2  0  0  0  0  0  0
  190.1800  176.2350  140.3170 O   0  0  0  0  0  0  0  0  0  0  0  0
  191.0120  176.9270  139.4080 C   0  0  2  0  0  0  0  0  0  0  0  0
  191.8590  177.8030  140.0610 F   0  0  0  0  0  0  0  0  0  0  0  0
  189.5600  177.1730  139.4710 C   0  0  2  0  0  0  0  0  0  0  0  0
  191.5690  176.0000  138.3430 C   0  0  0  0  0  1  0  0  0  0  0  0
  188.7200  176.5830  138.5240 O   0  0  0  0  0  1  0  0  0  0  0  0
  1  4  1  0  0  0  0
  1 13  1  0  0  0  0
  2  1  2  0  0  0  0
  3 13  2  0  0  0  0
  4 16  1  6  0  0  0
  4  7  1  0  0  0  0
  5  8  2  0  0  0  0
  6  3  1  0  0  0  0
  7 14  2  0  0  0  0
  7  8  1  0  0  0  0
  9 18  1  0  0  0  0
 10  9  1  0  0  0  0
 11  2  1  0  0  0  0
 12  5  1  0  0  0  0
 13 14  1  0  0  0  0
 15  9  1  0  0  0  0
 16 12  2  0  0  0  0
 17 19  1  6  0  0  0
 17 15  1  0  0  0  0
 17 11  1  0  0  0  0
 18  2  1  0  0  0  0
 18  6  2  0  0  0  0
 21 24  1  6  0  0  0
 21 23  1  0  0  0  0
 21 22  1  0  0  0  0
 21 20  1  0  0  0  0
 23 25  1  6  0  0  0
 23 19  1  0  0  0  0
 23 20  1  0  0  0  0
M  END
>  <MODEL>
1

>  <REMARK>
 VINA RESULT:      -9.4      0.000      0.000
  Name = 
  2 active torsions:
  status: ('A' for Active; 'I' for Inactive)
    1  A    between atoms: N_6  and  C_15
    2  A    between atoms: N_6  and  C_23
                            x       y       z     vdW  Elec       q    Type
                         _______ _______ _______ _____ _____    ______ ____

>  <TORSDO>
F 2

$$$$
=
 OpenBabel10262419453D

 25 29  0  0  1  0  0  0  0  0999 V2000
  187.0860  177.5800  145.0510 C   0  0  0  0  0  0  0  0  0  0  0  0
  188.3140  177.1220  144.5760 C   0  0  0  0  0  0  0  0  0  0  0  0
  188.0110  177.9610  147.2340 C   0  0  0  0  0  3  0  0  0  0  0  0
  185.7540  177.6470  144.3980 C   0  0  1  0  0  3  0  0  0  0  0  0
  183.5310  179.4370  144.0100 C   0  0  0  0  0  3  0  0  0  0  0  0
  189.2190  177.5230  146.7740 N   0  0  0  0  0  0  0  0  0  0  0  0
  184.9550  178.2460  145.5270 C   0  0  0  0  0  0  0  0  0  0  0  0
  183.6960  178.9380  145.2420 C   0  0  0  0  0  3  0  0  0  0  0  0
  190.6890  176.6550  145.0310 N   0  0  0  0  0  0  0  0  0  0  0  0
  191.8630  176.7910  145.8760 C   0  0  0  0  0  1  0  0  0  0  0  0
  188.4720  176.6090  143.1730 C   0  0  0  0  0  2  0  0  0  0  0  0
  184.6110  179.3320  142.9920 C   0  0  0  0  0  3  0  0  0  0  0  0
  186.9330  177.9680  146.3560 C   0  0  0  0  0  0  0  0  0  0  0  0
  185.6170  178.4180  146.6310 N   0  0  0  0  0  0  0  0  0  0  0  0
  190.8460  176.0520  143.7090 C   0  0  0  0  0  2  0  0  0  0  0  0
  185.6840  178.5490  143.1920 C   0  0  0  0  0  3  0  0  0  0  0  0
  189.9220  176.7360  142.7050 C   0  0  1  0  0  3  0  0  0  0  0  0
  189.3980  177.0950  145.4830 C   0  0  0  0  0  0  0  0  0  0  0  0
  190.0740  176.1140  141.3980 N   0  0  0  0  0  2  0  0  0  0  0  0
  189.4920  178.2330  140.4470 O   0  0  0  0  0  0  0  0  0  0  0  0
  189.4460  177.3890  139.3150 C   0  0  2  0  0  0  0  0  0  0  0  0
  188.2750  176.6540  139.2780 F   0  0  0  0  0  0  0  0  0  0  0  0
  190.3920  177.1510  140.4210 C   0  0  2  0  0  0  0  0  0  0  0  0
  189.9220  178.1040  138.0650 C   0  0  0  0  0  1  0  0  0  0  0  0
  191.7240  177.5500  140.2860 O   0  0  0  0  0  1  0  0  0  0  0  0
  1 13  1  0  0  0  0
  2  1  2  0  0  0  0
  2 18  1  0  0  0  0
  4 16  1  6  0  0  0
  4  1  1  0  0  0  0
  4  7  1  0  0  0  0
  5  8  2  0  0  0  0
  6  3  1  0  0  0  0
  7 14  2  0  0  0  0
  8  7  1  0  0  0  0
  9 18  1  0  0  0  0
  9 10  1  0  0  0  0
 11  2  1  0  0  0  0
 12 16  2  0  0  0  0
 12  5  1  0  0  0  0
 13 14  1  0  0  0  0
 13  3  2  0  0  0  0
 15  9  1  0  0  0  0
 17 19  1  6  0  0  0
 17 11  1  0  0  0  0
 17 15  1  0  0  0  0
 18  6  2  0  0  0  0
 21 24  1  6  0  0  0
 21 23  1  0  0  0  0
 21 20  1  0  0  0  0
 22 21  1  0  0  0  0
 23 25  1  6  0  0  0
 23 20  1  0  0  0  0
 23 19  1  0  0  0  0
M  END
>  <MODEL>
2

>  <REMARK>
 VINA RESULT:      -9.4      1.961      4.669
  Name = 
  2 active torsions:
  status: ('A' for Active; 'I' for Inactive)
    1  A    between atoms: N_6  and  C_15
    2  A    between atoms: N_6  and  C_23
                            x       y       z     vdW  Elec       q    Type
                         _______ _______ _______ _____ _____    ______ ____

>  <TORSDO>
F 2

$$$$
=
 OpenBabel10262419453D

 25 29  0  0  1  0  0  0  0  0999 V2000
  185.8440  178.0060  144.5560 C   0  0  0  0  0  0  0  0  0  0  0  0
  187.0270  177.7350  145.2430 C   0  0  0  0  0  0  0  0  0  0  0  0
  184.7870  178.7780  146.5690 C   0  0  0  0  0  3  0  0  0  0  0  0
  185.4620  177.7580  143.1420 C   0  0  1  0  0  3  0  0  0  0  0  0
  184.2220  179.0570  140.8900 C   0  0  0  0  0  3  0  0  0  0  0  0
  185.9450  178.5250  147.2470 N   0  0  0  0  0  0  0  0  0  0  0  0
  184.0610  178.3140  143.1650 C   0  0  0  0  0  0  0  0  0  0  0  0
  183.4220  178.7280  141.9130 C   0  0  0  0  0  3  0  0  0  0  0  0
  188.2600  177.7640  147.3740 N   0  0  0  0  0  0  0  0  0  0  0  0
  188.3860  178.2030  148.7540 C   0  0  0  0  0  1  0  0  0  0  0  0
  188.2110  177.1160  144.5560 C   0  0  0  0  0  2  0  0  0  0  0  0
  185.7010  179.0460  141.0440 C   0  0  0  0  0  3  0  0  0  0  0  0
  184.7430  178.4950  145.2090 C   0  0  0  0  0  0  0  0  0  0  0  0
  183.6540  178.7200  144.3290 N   0  0  0  0  0  0  0  0  0  0  0  0
  189.3850  177.0650  146.7580 C   0  0  0  0  0  2  0  0  0  0  0  0
  186.2870  178.5000  142.1220 C   0  0  0  0  0  3  0  0  0  0  0  0
  189.5080  177.4580  145.2880 C   0  0  1  0  0  3  0  0  0  0  0  0
  187.0540  178.0040  146.6300 C   0  0  0  0  0  0  0  0  0  0  0  0
  190.6200  176.7410  144.6820 N   0  0  0  0  0  2  0  0  0  0  0  0
  190.1460  177.9530  142.6720 O   0  0  0  0  0  0  0  0  0  0  0  0
  191.0660  176.9830  142.2120 C   0  0  2  0  0  0  0  0  0  0  0  0
  190.4580  175.7540  142.0320 F   0  0  0  0  0  0  0  0  0  0  0  0
  191.1420  177.5380  143.5760 C   0  0  2  0  0  0  0  0  0  0  0  0
  191.9680  177.5390  141.1260 C   0  0  0  0  0  1  0  0  0  0  0  0
  192.0740  178.5390  143.8600 O   0  0  0  0  0  1  0  0  0  0  0  0
  1 13  2  0  0  0  0
  1  2  1  0  0  0  0
  2 18  2  0  0  0  0
  3  6  2  0  0  0  0
  4 16  1  6  0  0  0
  4  7  1  0  0  0  0
  4  1  1  0  0  0  0
  5 12  1  0  0  0  0
  5  8  2  0  0  0  0
  7 14  2  0  0  0  0
  8  7  1  0  0  0  0
  9 10  1  0  0  0  0
 11  2  1  0  0  0  0
 11 17  1  0  0  0  0
 12 16  2  0  0  0  0
 13  3  1  0  0  0  0
 14 13  1  0  0  0  0
 15  9  1  0  0  0  0
 17 19  1  6  0  0  0
 17 15  1  0  0  0  0
 18  6  1  0  0  0  0
 18  9  1  0  0  0  0
 20 23  1  0  0  0  0
 21 24  1  6  0  0  0
 21 20  1  0  0  0  0
 21 23  1  0  0  0  0
 22 21  1  0  0  0  0
 23 25  1  1  0  0  0
 23 19  1  0  0  0  0
M  END
>  <MODEL>
3

>  <REMARK>
 VINA RESULT:      -9.3      2.420      5.432
  Name = 
  2 active torsions:
  status: ('A' for Active; 'I' for Inactive)
    1  A    between atoms: N_6  and  C_15
    2  A    between atoms: N_6  and  C_23
                            x       y       z     vdW  Elec       q    Type
                         _______ _______ _______ _____ _____    ______ ____

>  <TORSDO>
F 2

$$$$
=
 OpenBabel10262419453D

 25 29  0  0  1  0  0  0  0  0999 V2000
  187.9010  177.5650  144.4140 C   0  0  0  0  0  0  0  0  0  0  0  0
  188.7090  177.3850  143.2920 C   0  0  0  0  0  0  0  0  0  0  0  0
  189.8230  177.9170  145.8090 C   0  0  0  0  0  3  0  0  0  0  0  0
  186.4300  177.4430  144.5830 C   0  0  1  0  0  3  0  0  0  0  0  0
  184.1810  178.8190  145.7420 C   0  0  0  0  0  3  0  0  0  0  0  0
  190.6210  177.7530  144.7140 N   0  0  0  0  0  0  0  0  0  0  0  0
  186.3220  177.7820  146.0470 C   0  0  0  0  0  0  0  0  0  0  0  0
  185.0460  178.2530  146.5930 C   0  0  0  0  0  3  0  0  0  0  0  0
  190.9790  177.3270  142.3380 N   0  0  0  0  0  0  0  0  0  0  0  0
  192.4020  177.6030  142.4470 C   0  0  0  0  0  1  0  0  0  0  0  0
  188.1280  177.0360  141.9520 C   0  0  0  0  0  2  0  0  0  0  0  0
  184.5320  179.0050  144.3080 C   0  0  0  0  0  3  0  0  0  0  0  0
  188.4470  177.8030  145.6470 C   0  0  0  0  0  0  0  0  0  0  0  0
  187.4570  177.9770  146.6480 N   0  0  0  0  0  0  0  0  0  0  0  0
  190.4500  176.8810  141.0510 C   0  0  0  0  0  2  0  0  0  0  0  0
  185.6150  178.4180  143.7730 C   0  0  0  0  0  3  0  0  0  0  0  0
  189.0610  177.4680  140.8210 C   0  0  1  0  0  3  0  0  0  0  0  0
  190.1080  177.4800  143.4710 C   0  0  0  0  0  0  0  0  0  0  0  0
  188.5380  177.0020  139.5450 N   0  0  0  0  0  2  0  0  0  0  0  0
  186.8330  178.5360  138.8570 O   0  0  0  0  0  0  0  0  0  0  0  0
  187.2340  177.9780  137.6210 C   0  0  2  0  0  0  0  0  0  0  0  0
  186.6790  176.7270  137.4270 F   0  0  0  0  0  0  0  0  0  0  0  0
  188.1850  178.1620  138.7330 C   0  0  2  0  0  0  0  0  0  0  0  0
  187.1820  179.0030  136.5030 C   0  0  0  0  0  1  0  0  0  0  0  0
  189.0560  179.2540  138.7200 O   0  0  0  0  0  1  0  0  0  0  0  0
  1  4  1  0  0  0  0
  1 13  1  0  0  0  0
  2 18  1  0  0  0  0
  2  1  2  0  0  0  0
  4 16  1  6  0  0  0
  4  7  1  0  0  0  0
  5  8  2  0  0  0  0
  6  3  1  0  0  0  0
  7  8  1  0  0  0  0
  7 14  2  0  0  0  0
  9 10  1  0  0  0  0
  9 18  1  0  0  0  0
 11  2  1  0  0  0  0
 12  5  1  0  0  0  0
 13  3  2  0  0  0  0
 13 14  1  0  0  0  0
 15  9  1  0  0  0  0
 16 12  2  0  0  0  0
 17 19  1  6  0  0  0
 17 15  1  0  0  0  0
 17 11  1  0  0  0  0
 18  6  2  0  0  0  0
 21 24  1  6  0  0  0
 21 23  1  0  0  0  0
 21 20  1  0  0  0  0
 22 21  1  0  0  0  0
 23 25  1  6  0  0  0
 23 20  1  0  0  0  0
 23 19  1  0  0  0  0
M  END
>  <MODEL>
4

>  <REMARK>
 VINA RESULT:      -9.1      2.389      4.516
  Name = 
  2 active torsions:
  status: ('A' for Active; 'I' for Inactive)
    1  A    between atoms: N_6  and  C_15
    2  A    between atoms: N_6  and  C_23
                            x       y       z     vdW  Elec       q    Type
                         _______ _______ _______ _____ _____    ______ ____

>  <TORSDO>
F 2

$$$$
=
 OpenBabel10262419453D

 25 29  0  0  1  0  0  0  0  0999 V2000
  188.7820  177.6610  144.8210 C   0  0  0  0  0  0  0  0  0  0  0  0
  188.2120  177.9390  143.5790 C   0  0  0  0  0  0  0  0  0  0  0  0
  186.6150  177.5000  145.8420 C   0  0  0  0  0  3  0  0  0  0  0  0
  190.2040  177.6240  145.2520 C   0  0  1  0  0  3  0  0  0  0  0  0
  192.0550  176.0020  146.7490 C   0  0  0  0  0  3  0  0  0  0  0  0
  186.0490  177.7610  144.6280 N   0  0  0  0  0  0  0  0  0  0  0  0
  190.0120  177.2580  146.7010 C   0  0  0  0  0  0  0  0  0  0  0  0
  191.1140  176.6480  147.4510 C   0  0  0  0  0  3  0  0  0  0  0  0
  186.1680  178.2500  142.2410 N   0  0  0  0  0  0  0  0  0  0  0  0
  184.7290  178.1260  142.0870 C   0  0  0  0  0  1  0  0  0  0  0  0
  189.0570  178.2390  142.3750 C   0  0  0  0  0  2  0  0  0  0  0  0
  191.9500  175.8710  145.2710 C   0  0  0  0  0  3  0  0  0  0  0  0
  188.0020  177.4680  145.9310 C   0  0  0  0  0  0  0  0  0  0  0  0
  188.7740  177.1790  147.0850 N   0  0  0  0  0  0  0  0  0  0  0  0
  186.9630  178.6510  141.0820 C   0  0  0  0  0  2  0  0  0  0  0  0
  191.0460  176.5760  144.5710 C   0  0  0  0  0  3  0  0  0  0  0  0
  188.3030  177.9210  141.0840 C   0  0  1  0  0  3  0  0  0  0  0  0
  186.8010  177.9920  143.5050 C   0  0  0  0  0  0  0  0  0  0  0  0
  189.0920  178.3440  139.9360 N   0  0  0  0  0  2  0  0  0  0  0  0
  190.0630  177.4620  137.9330 O   0  0  0  0  0  0  0  0  0  0  0  0
  188.7900  176.8470  137.9300 C   0  0  2  0  0  0  0  0  0  0  0  0
  187.8080  177.7160  137.4910 F   0  0  0  0  0  0  0  0  0  0  0  0
  189.4970  177.1590  139.1860 C   0  0  2  0  0  0  0  0  0  0  0  0
  188.8510  175.4390  137.3670 C   0  0  0  0  0  1  0  0  0  0  0  0
  190.1780  176.1450  139.8630 O   0  0  0  0  0  1  0  0  0  0  0  0
  1  4  1  0  0  0  0
  1 13  1  0  0  0  0
  2  1  2  0  0  0  0
  3 13  2  0  0  0  0
  4 16  1  6  0  0  0
  4  7  1  0  0  0  0
  5  8  2  0  0  0  0
  6  3  1  0  0  0  0
  7 14  2  0  0  0  0
  7  8  1  0  0  0  0
  9 18  1  0  0  0  0
 10  9  1  0  0  0  0
 11  2  1  0  0  0  0
 12  5  1  0  0  0  0
 13 14  1  0  0  0  0
 15 17  1  0  0  0  0
 15  9  1  0  0  0  0
 16 12  2  0  0  0  0
 17 19  1  6  0  0  0
 17 11  1  0  0  0  0
 18  2  1  0  0  0  0
 18  6  2  0  0  0  0
 20 23  1  0  0  0  0
 21 24  1  6  0  0  0
 21 20  1  0  0  0  0
 21 23  1  0  0  0  0
 22 21  1  0  0  0  0
 23 25  1  1  0  0  0
 23 19  1  0  0  0  0
M  END
>  <MODEL>
5

>  <REMARK>
 VINA RESULT:      -9.0      1.238      1.432
  Name = 
  2 active torsions:
  status: ('A' for Active; 'I' for Inactive)
    1  A    between atoms: N_6  and  C_15
    2  A    between atoms: N_6  and  C_23
                            x       y       z     vdW  Elec       q    Type
                         _______ _______ _______ _____ _____    ______ ____

>  <TORSDO>
F 2

$$$$
=
 OpenBabel10262419453D

 25 29  0  0  1  0  0  0  0  0999 V2000
  188.9820  177.3890  144.4850 C   0  0  0  0  0  0  0  0  0  0  0  0
  189.3030  177.3550  143.1290 C   0  0  0  0  0  0  0  0  0  0  0  0
  191.3050  177.3920  145.0930 C   0  0  0  0  0  3  0  0  0  0  0  0
  187.6670  177.3230  145.1750 C   0  0  1  0  0  3  0  0  0  0  0  0
  186.1620  178.6090  147.2670 C   0  0  0  0  0  3  0  0  0  0  0  0
  191.6280  177.3700  143.7670 N   0  0  0  0  0  0  0  0  0  0  0  0
  188.1350  177.4170  146.6050 C   0  0  0  0  0  0  0  0  0  0  0  0
  187.2050  177.8600  147.6470 C   0  0  0  0  0  3  0  0  0  0  0  0
  191.0530  177.3300  141.3960 N   0  0  0  0  0  0  0  0  0  0  0  0
  192.4400  177.5030  141.0000 C   0  0  0  0  0  1  0  0  0  0  0  0
  188.2410  177.2700  142.0710 C   0  0  0  0  0  2  0  0  0  0  0  0
  185.9900  179.0130  145.8450 C   0  0  0  0  0  3  0  0  0  0  0  0
  189.9600  177.3850  145.4450 C   0  0  0  0  0  0  0  0  0  0  0  0
  189.4240  177.4430  146.7570 N   0  0  0  0  0  0  0  0  0  0  0  0
  190.0480  177.1380  140.3530 C   0  0  0  0  0  2  0  0  0  0  0  0
  186.7330  178.4650  144.8700 C   0  0  0  0  0  3  0  0  0  0  0  0
  188.7460  177.8330  140.7420 C   0  0  1  0  0  3  0  0  0  0  0  0
  190.6740  177.3390  142.7820 C   0  0  0  0  0  0  0  0  0  0  0  0
  187.7480  177.6180  139.7050 N   0  0  0  0  0  2  0  0  0  0  0  0
  187.1880  178.4230  137.5200 O   0  0  0  0  0  0  0  0  0  0  0  0
  188.1850  177.4660  137.2270 C   0  0  2  0  0  0  0  0  0  0  0  0
  187.6810  176.1790  137.2670 F   0  0  0  0  0  0  0  0  0  0  0  0
  188.2100  178.2520  138.4740 C   0  0  2  0  0  0  0  0  0  0  0  0
  189.0450  177.8970  136.0540 C   0  0  0  0  0  1  0  0  0  0  0  0
  189.0550  179.3590  138.5740 O   0  0  0  0  0  1  0  0  0  0  0  0
  1  4  1  0  0  0  0
  1 13  1  0  0  0  0
  2  1  2  0  0  0  0
  3 13  2  0  0  0  0
  4 16  1  6  0  0  0
  4  7  1  0  0  0  0
  5  8  2  0  0  0  0
  6  3  1  0  0  0  0
  7 14  2  0  0  0  0
  7  8  1  0  0  0  0
  9 18  1  0  0  0  0
 10  9  1  0  0  0  0
 11  2  1  0  0  0  0
 12  5  1  0  0  0  0
 13 14  1  0  0  0  0
 15 17  1  0  0  0  0
 15  9  1  0  0  0  0
 16 12  2  0  0  0  0
 17 19  1  6  0  0  0
 17 11  1  0  0  0  0
 18  2  1  0  0  0  0
 18  6  2  0  0  0  0
 20 23  1  0  0  0  0
 21 24  1  6  0  0  0
 21 22  1  0  0  0  0
 21 20  1  0  0  0  0
 21 23  1  0  0  0  0
 23 25  1  1  0  0  0
 23 19  1  0  0  0  0
M  END
>  <MODEL>
6

>  <REMARK>
 VINA RESULT:      -8.7      2.273      4.054
  Name = 
  2 active torsions:
  status: ('A' for Active; 'I' for Inactive)
    1  A    between atoms: N_6  and  C_15
    2  A    between atoms: N_6  and  C_23
                            x       y       z     vdW  Elec       q    Type
                         _______ _______ _______ _____ _____    ______ ____

>  <TORSDO>
F 2

$$$$
=
 OpenBabel10262419453D

 25 29  0  0  1  0  0  0  0  0999 V2000
  184.1490  178.9190  143.2960 C   0  0  0  0  0  0  0  0  0  0  0  0
  183.9730  178.9560  141.9130 C   0  0  0  0  0  0  0  0  0  0  0  0
  181.7750  178.8980  143.6530 C   0  0  0  0  0  3  0  0  0  0  0  0
  185.3820  178.9900  144.1210 C   0  0  1  0  0  3  0  0  0  0  0  0
  186.6660  177.7040  146.3560 C   0  0  0  0  0  3  0  0  0  0  0  0
  181.5940  178.9240  142.3010 N   0  0  0  0  0  0  0  0  0  0  0  0
  184.7660  178.8870  145.4930 C   0  0  0  0  0  0  0  0  0  0  0  0
  185.5830  178.4450  146.6270 C   0  0  0  0  0  3  0  0  0  0  0  0
  182.4160  178.9780  140.0050 N   0  0  0  0  0  0  0  0  0  0  0  0
  181.0800  178.7970  139.4630 C   0  0  0  0  0  1  0  0  0  0  0  0
  185.1400  179.0530  140.9740 C   0  0  0  0  0  2  0  0  0  0  0  0
  186.9900  177.3070  144.9600 C   0  0  0  0  0  3  0  0  0  0  0  0
  183.0750  178.9120  144.1460 C   0  0  0  0  0  0  0  0  0  0  0  0
  183.4690  178.8520  145.5070 N   0  0  0  0  0  0  0  0  0  0  0  0
  183.5260  179.1800  139.0750 C   0  0  0  0  0  2  0  0  0  0  0  0
  186.3520  177.8550  143.9130 C   0  0  0  0  0  3  0  0  0  0  0  0
  184.7840  178.4920  139.5970 C   0  0  1  0  0  3  0  0  0  0  0  0
  182.6470  178.9650  141.4230 C   0  0  0  0  0  0  0  0  0  0  0  0
  185.8850  178.7180  138.6730 N   0  0  0  0  0  2  0  0  0  0  0  0
  187.1670  177.0990  137.4620 O   0  0  0  0  0  0  0  0  0  0  0  0
  186.6090  177.8650  136.4140 C   0  0  2  0  0  0  0  0  0  0  0  0
  187.2910  179.0560  136.2380 F   0  0  0  0  0  0  0  0  0  0  0  0
  185.8890  177.6470  137.6810 C   0  0  2  0  0  0  0  0  0  0  0  0
  186.2800  177.0060  135.2070 C   0  0  0  0  0  1  0  0  0  0  0  0
  184.8830  176.6800  137.7440 O   0  0  0  0  0  1  0  0  0  0  0  0
  1  4  1  0  0  0  0
  1 13  1  0  0  0  0
  2  1  2  0  0  0  0
  3 13  2  0  0  0  0
  4 16  1  6  0  0  0
  4  7  1  0  0  0  0
  5  8  2  0  0  0  0
  6  3  1  0  0  0  0
  7 14  2  0  0  0  0
  7  8  1  0  0  0  0
  9 18  1  0  0  0  0
 10  9  1  0  0  0  0
 11  2  1  0  0  0  0
 12  5  1  0  0  0  0
 13 14  1  0  0  0  0
 15 17  1  0  0  0  0
 15  9  1  0  0  0  0
 16 12  2  0  0  0  0
 17 19  1  6  0  0  0
 17 11  1  0  0  0  0
 18  2  1  0  0  0  0
 18  6  2  0  0  0  0
 20 23  1  0  0  0  0
 21 24  1  6  0  0  0
 21 20  1  0  0  0  0
 21 23  1  0  0  0  0
 22 21  1  0  0  0  0
 23 25  1  6  0  0  0
 23 19  1  0  0  0  0
M  END
>  <MODEL>
7

>  <REMARK>
 VINA RESULT:      -8.5      3.798      5.044
  Name = 
  2 active torsions:
  status: ('A' for Active; 'I' for Inactive)
    1  A    between atoms: N_6  and  C_15
    2  A    between atoms: N_6  and  C_23
                            x       y       z     vdW  Elec       q    Type
                         _______ _______ _______ _____ _____    ______ ____

>  <TORSDO>
F 2

$$$$
=
 OpenBabel10262419453D

 25 29  0  0  1  0  0  0  0  0999 V2000
  188.1480  177.5580  144.2340 C   0  0  0  0  0  0  0  0  0  0  0  0
  187.5560  177.8510  143.0060 C   0  0  0  0  0  0  0  0  0  0  0  0
  190.3290  177.5020  143.2310 C   0  0  0  0  0  3  0  0  0  0  0  0
  187.5450  177.2870  145.5650 C   0  0  1  0  0  3  0  0  0  0  0  0
  187.8230  177.9970  148.3420 C   0  0  0  0  0  3  0  0  0  0  0  0
  189.7580  177.8000  142.0270 N   0  0  0  0  0  0  0  0  0  0  0  0
  188.8040  177.0620  146.3630 C   0  0  0  0  0  0  0  0  0  0  0  0
  188.7790  177.2170  147.8200 C   0  0  0  0  0  3  0  0  0  0  0  0
  187.8410  178.2920  140.6000 N   0  0  0  0  0  0  0  0  0  0  0  0
  188.6950  178.6020  139.4660 C   0  0  0  0  0  1  0  0  0  0  0  0
  186.0660  177.9760  142.8620 C   0  0  0  0  0  2  0  0  0  0  0  0
  186.8590  178.7140  147.4650 C   0  0  0  0  0  3  0  0  0  0  0  0
  189.5000  177.3660  144.3390 C   0  0  0  0  0  0  0  0  0  0  0  0
  189.9020  177.0980  145.6720 N   0  0  0  0  0  0  0  0  0  0  0  0
  186.3920  178.3120  140.4100 C   0  0  0  0  0  2  0  0  0  0  0  0
  186.7670  178.4340  146.1540 C   0  0  0  0  0  3  0  0  0  0  0  0
  185.7040  178.8510  141.6620 C   0  0  1  0  0  3  0  0  0  0  0  0
  188.4040  177.9650  141.8810 C   0  0  0  0  0  0  0  0  0  0  0  0
  184.2620  178.8480  141.4670 N   0  0  0  0  0  2  0  0  0  0  0  0
  182.6130  178.9390  139.7330 O   0  0  0  0  0  0  0  0  0  0  0  0
  183.4490  177.8940  139.2790 C   0  0  2  0  0  0  0  0  0  0  0  0
  183.1900  176.7110  139.9480 F   0  0  0  0  0  0  0  0  0  0  0  0
  183.9820  179.0340  140.0460 C   0  0  2  0  0  0  0  0  0  0  0  0
  183.5660  177.8890  137.7660 C   0  0  0  0  0  1  0  0  0  0  0  0
  184.6260  180.0760  139.3740 O   0  0  0  0  0  1  0  0  0  0  0  0
  1 13  1  0  0  0  0
  1  4  1  0  0  0  0
  2  1  2  0  0  0  0
  3 13  2  0  0  0  0
  4 16  1  1  0  0  0
  4  7  1  0  0  0  0
  6  3  1  0  0  0  0
  7  8  1  0  0  0  0
  8  5  2  0  0  0  0
  9 18  1  0  0  0  0
 10  9  1  0  0  0  0
 11  2  1  0  0  0  0
 12  5  1  0  0  0  0
 13 14  1  0  0  0  0
 14  7  2  0  0  0  0
 15  9  1  0  0  0  0
 15 17  1  0  0  0  0
 16 12  2  0  0  0  0
 17 19  1  6  0  0  0
 17 11  1  0  0  0  0
 18  6  2  0  0  0  0
 18  2  1  0  0  0  0
 20 23  1  0  0  0  0
 21 24  1  6  0  0  0
 21 20  1  0  0  0  0
 21 22  1  0  0  0  0
 21 23  1  0  0  0  0
 23 25  1  6  0  0  0
 23 19  1  0  0  0  0
M  END
>  <MODEL>
8

>  <REMARK>
 VINA RESULT:      -8.4      3.159      4.764
  Name = 
  2 active torsions:
  status: ('A' for Active; 'I' for Inactive)
    1  A    between atoms: N_6  and  C_15
    2  A    between atoms: N_6  and  C_23
                            x       y       z     vdW  Elec       q    Type
                         _______ _______ _______ _____ _____    ______ ____

>  <TORSDO>
F 2

$$$$
=
 OpenBabel10262419453D

 25 29  0  0  1  0  0  0  0  0999 V2000
  184.4640  178.2950  143.1840 C   0  0  0  0  0  0  0  0  0  0  0  0
  185.5490  178.0040  144.0100 C   0  0  0  0  0  0  0  0  0  0  0  0
  183.2350  179.2140  145.0320 C   0  0  0  0  0  3  0  0  0  0  0  0
  184.2250  177.9960  141.7490 C   0  0  1  0  0  3  0  0  0  0  0  0
  183.3060  179.2380  139.3180 C   0  0  0  0  0  3  0  0  0  0  0  0
  184.2980  178.9410  145.8440 N   0  0  0  0  0  0  0  0  0  0  0  0
  182.8610  178.6170  141.5920 C   0  0  0  0  0  0  0  0  0  0  0  0
  182.3840  178.9980  140.2590 C   0  0  0  0  0  3  0  0  0  0  0  0
  186.5420  178.0810  146.2620 N   0  0  0  0  0  0  0  0  0  0  0  0
  186.5400  178.5800  147.6260 C   0  0  0  0  0  1  0  0  0  0  0  0
  186.7670  177.2980  143.4870 C   0  0  0  0  0  2  0  0  0  0  0  0
  184.7580  179.1670  139.6360 C   0  0  0  0  0  3  0  0  0  0  0  0
  183.3250  178.8660  143.6890 C   0  0  0  0  0  0  0  0  0  0  0  0
  182.3510  179.0990  142.6840 N   0  0  0  0  0  0  0  0  0  0  0  0
  187.6910  177.3010  145.8050 C   0  0  0  0  0  2  0  0  0  0  0  0
  185.1930  178.6470  140.7950 C   0  0  0  0  0  3  0  0  0  0  0  0
  187.9930  177.6150  144.3430 C   0  0  1  0  0  3  0  0  0  0  0  0
  185.4390  178.3400  145.3780 C   0  0  0  0  0  0  0  0  0  0  0  0
  189.1260  176.8170  143.8950 N   0  0  0  0  0  2  0  0  0  0  0  0
  191.4560  177.1040  143.4240 O   0  0  0  0  0  0  0  0  0  0  0  0
  191.2450  178.0740  144.4300 C   0  0  2  0  0  0  0  0  0  0  0  0
  191.2090  177.5000  145.6880 F   0  0  0  0  0  0  0  0  0  0  0  0
  190.1900  177.7190  143.4640 C   0  0  2  0  0  0  0  0  0  0  0  0
  192.0880  179.3130  144.1960 C   0  0  0  0  0  1  0  0  0  0  0  0
  189.9510  178.5510  142.3680 O   0  0  0  0  0  1  0  0  0  0  0  0
  1 13  2  0  0  0  0
  1  2  1  0  0  0  0
  2 18  2  0  0  0  0
  3  6  2  0  0  0  0
  4 16  1  6  0  0  0
  4  1  1  0  0  0  0
  5 12  1  0  0  0  0
  5  8  2  0  0  0  0
  7  4  1  0  0  0  0
  7 14  2  0  0  0  0
  8  7  1  0  0  0  0
  9 10  1  0  0  0  0
 11  2  1  0  0  0  0
 11 17  1  0  0  0  0
 12 16  2  0  0  0  0
 13  3  1  0  0  0  0
 14 13  1  0  0  0  0
 15  9  1  0  0  0  0
 17 19  1  6  0  0  0
 17 15  1  0  0  0  0
 18  6  1  0  0  0  0
 18  9  1  0  0  0  0
 20 23  1  0  0  0  0
 20 21  1  0  0  0  0
 21 24  1  6  0  0  0
 21 22  1  0  0  0  0
 23 25  1  6  0  0  0
 23 19  1  0  0  0  0
 23 21  1  0  0  0  0
M  END
>  <MODEL>
9

>  <REMARK>
 VINA RESULT:      -8.3      3.001      6.233
  Name = 
  2 active torsions:
  status: ('A' for Active; 'I' for Inactive)
    1  A    between atoms: N_6  and  C_15
    2  A    between atoms: N_6  and  C_23
                            x       y       z     vdW  Elec       q    Type
                         _______ _______ _______ _____ _____    ______ ____

>  <TORSDO>
F 2

$$$$
