=
 OpenBabel10262422073D

 43 47  0  0  1  0  0  0  0  0999 V2000
  186.0870  178.0310  146.3630 C   0  0  0  0  0  0  0  0  0  0  0  0
  185.0620  178.8340  142.0510 C   0  0  0  0  0  0  0  0  0  0  0  0
  187.4260  178.3160  140.6410 C   0  0  0  0  0  0  0  0  0  0  0  0
  184.5970  178.7060  144.1100 C   0  0  0  0  0  0  0  0  0  0  0  0
  188.0200  177.7000  144.9670 F   0  0  0  0  0  0  0  0  0  0  0  0
  186.7960  177.7070  147.4720 F   0  0  0  0  0  0  0  0  0  0  0  0
  185.9340  178.3700  143.9980 C   0  0  0  0  0  0  0  0  0  0  0  0
  184.7230  178.3740  146.4830 C   0  0  0  0  0  3  0  0  0  0  0  0
  186.7110  178.0260  145.1010 C   0  0  0  0  0  0  0  0  0  0  0  0
  187.4220  178.1910  141.9450 N   0  0  0  0  0  0  0  0  0  0  0  0
  186.2170  178.4600  142.6650 C   0  0  0  0  0  0  0  0  0  0  0  0
  184.0300  178.9950  142.9130 N   0  0  0  0  0  2  0  0  0  0  0  0
  185.0300  178.9800  140.6340 N   0  0  0  0  0  0  0  0  0  0  0  0
  186.2240  178.7070  139.9340 N   0  0  0  0  0  2  0  0  0  0  0  0
  183.9610  178.7150  145.3500 C   0  0  0  0  0  3  0  0  0  0  0  0
  188.6630  178.0160  139.8640 C   0  0  1  0  0  3  0  0  0  0  0  0
  189.4440  177.0860  140.5550 O   0  0  0  0  0  1  0  0  0  0  0  0
  188.2930  177.4840  138.4870 C   0  0  0  0  0  2  0  0  0  0  0  0
  190.1570  177.5890  136.7550 N   0  0  0  0  0  2  0  0  0  0  0  0
  189.0390  178.1990  137.4050 C   0  0  0  0  0  0  0  0  0  0  0  0
  188.6670  179.3480  137.0460 O   0  0  0  0  0  0  0  0  0  0  0  0
  190.6480  176.2620  137.1060 C   0  0  1  0  0  3  0  0  0  0  0  0
  191.3250  174.6650  135.4330 O   0  0  0  0  0  1  0  0  0  0  0  0
  190.2120  175.2480  136.0450 C   0  0  1  0  0  3  0  0  0  0  0  0
  187.9420  174.1390  136.3970 N   0  0  0  0  0  0  0  0  0  0  0  0
  189.3540  174.1750  136.6500 C   0  0  0  0  0  0  0  0  0  0  0  0
  185.7630  173.6220  137.3650 C   0  0  0  0  0  2  0  0  0  0  0  0
  185.9620  175.4750  135.9000 C   0  0  0  0  0  2  0  0  0  0  0  0
  185.1470  174.3070  136.2300 N   0  0  0  0  0  2  0  0  0  0  0  0
  187.3370  175.0290  135.4080 C   0  0  0  0  0  2  0  0  0  0  0  0
  187.1250  173.0650  136.9570 C   0  0  0  0  0  2  0  0  0  0  0  0
  189.8810  173.3230  137.4160 O   0  0  0  0  0  0  0  0  0  0  0  0
  192.1650  176.3060  137.2230 C   0  0  0  0  0  2  0  0  0  0  0  0
  192.5700  176.6650  138.6380 C   0  0  0  0  0  1  0  0  0  0  0  0
  183.8030  179.2880  139.9160 C   0  0  0  0  0  2  0  0  0  0  0  0
  182.7410  176.8700  137.2000 C   0  0  0  0  0  3  0  0  0  0  0  0
  182.2580  175.7930  137.9510 C   0  0  0  0  0  0  0  0  0  0  0  0
  182.8010  176.9960  139.9930 C   0  0  0  0  0  3  0  0  0  0  0  0
  183.2520  178.0050  137.8390 C   0  0  0  0  0  3  0  0  0  0  0  0
  183.2890  178.0650  139.2350 C   0  0  0  0  0  0  0  0  0  0  0  0
  182.2900  175.8620  139.3540 C   0  0  0  0  0  3  0  0  0  0  0  0
  180.6960  173.8810  137.8050 C   0  0  0  0  0  1  0  0  0  0  0  0
  181.7550  174.6740  137.2830 O   0  0  0  0  0  0  0  0  0  0  0  0
  1  8  1  0  0  0  0
  1  6  1  0  0  0  0
  2 11  2  0  0  0  0
  2 12  1  0  0  0  0
  3 10  2  0  0  0  0
  4 15  1  0  0  0  0
  5  9  1  0  0  0  0
  7  4  2  0  0  0  0
  7  9  1  0  0  0  0
  9  1  2  0  0  0  0
 10 11  1  0  0  0  0
 11  7  1  0  0  0  0
 12  4  1  0  0  0  0
 13  2  1  0  0  0  0
 14 13  1  0  0  0  0
 14  3  1  0  0  0  0
 15  8  2  0  0  0  0
 16 17  1  1  0  0  0
 16  3  1  0  0  0  0
 18 16  1  0  0  0  0
 19 22  1  0  0  0  0
 19 20  1  0  0  0  0
 20 18  1  0  0  0  0
 21 20  2  0  0  0  0
 22 33  1  6  0  0  0
 24 23  1  1  0  0  0
 24 26  1  0  0  0  0
 24 22  1  0  0  0  0
 25 26  1  0  0  0  0
 25 31  1  0  0  0  0
 26 32  2  0  0  0  0
 28 29  1  0  0  0  0
 29 27  1  0  0  0  0
 30 28  1  0  0  0  0
 30 25  1  0  0  0  0
 31 27  1  0  0  0  0
 33 34  1  0  0  0  0
 35 13  1  0  0  0  0
 36 39  2  0  0  0  0
 36 37  1  0  0  0  0
 37 41  2  0  0  0  0
 39 40  1  0  0  0  0
 40 35  1  0  0  0  0
 40 38  2  0  0  0  0
 41 38  1  0  0  0  0
 43 42  1  0  0  0  0
 43 37  1  0  0  0  0
M  END
>  <MODEL>
1

>  <REMARK>
 VINA RESULT:      -8.4      0.000      0.000
  Name = 
  10 active torsions:
  status: ('A' for Active; 'I' for Inactive)
    1  A    between atoms: C_1  and  N_34
    2  A    between atoms: C_1  and  C_35
    3  A    between atoms: C_2  and  C_6
    4  A    between atoms: C_2  and  C_13
    5  A    between atoms: N_3  and  C_4
    6  A    between atoms: C_4  and  C_15
    7  A    between atoms: C_4  and  C_22
    8  A    between atoms: C_6  and  C_12
    9  A    between atoms: C_14  and  C_22
   10  A    between atoms: C_19  and  O_37
                            x       y       z     vdW  Elec       q    Type
                         _______ _______ _______ _____ _____    ______ ____

>  <TORSDO>
F 10

$$$$
=
 OpenBabel10262422073D

 43 47  0  0  1  0  0  0  0  0999 V2000
  189.8300  177.0950  146.2260 C   0  0  0  0  0  0  0  0  0  0  0  0
  189.2140  177.7470  141.8120 C   0  0  0  0  0  0  0  0  0  0  0  0
  186.5790  178.6700  141.5830 C   0  0  0  0  0  0  0  0  0  0  0  0
  190.3710  177.2040  143.4970 C   0  0  0  0  0  0  0  0  0  0  0  0
  187.5830  177.8410  145.7950 F   0  0  0  0  0  0  0  0  0  0  0  0
  189.5870  177.0330  147.5570 F   0  0  0  0  0  0  0  0  0  0  0  0
  189.1220  177.5440  143.9840 C   0  0  0  0  0  0  0  0  0  0  0  0
  191.1080  176.7450  145.7340 C   0  0  0  0  0  3  0  0  0  0  0  0
  188.8150  177.5030  145.3410 C   0  0  0  0  0  0  0  0  0  0  0  0
  187.0460  178.3640  142.7680 N   0  0  0  0  0  0  0  0  0  0  0  0
  188.3890  177.8890  142.8850 C   0  0  1  0  0  3  0  0  0  0  0  0
  190.4560  177.3250  142.1490 N   0  0  0  0  0  0  0  0  0  0  0  0
  188.7400  178.0700  140.5080 N   0  0  0  0  0  0  0  0  0  0  0  0
  187.4140  178.5420  140.4060 N   0  0  0  0  0  2  0  0  0  0  0  0
  191.3900  176.8000  144.3560 C   0  0  0  0  0  3  0  0  0  0  0  0
  185.1900  179.1920  141.4370 C   0  0  1  0  0  3  0  0  0  0  0  0
  184.9450  179.5240  140.1010 O   0  0  0  0  0  1  0  0  0  0  0  0
  184.1920  178.1490  141.9190 C   0  0  0  0  0  2  0  0  0  0  0  0
  181.7980  178.9430  142.2720 N   0  0  0  0  0  2  0  0  0  0  0  0
  183.1270  178.7630  142.7700 C   0  0  0  0  0  0  0  0  0  0  0  0
  183.3960  179.1090  143.9510 O   0  0  0  0  0  0  0  0  0  0  0  0
  181.4030  178.5630  140.9210 C   0  0  1  0  0  3  0  0  0  0  0  0
  179.3160  177.6510  141.7070 O   0  0  0  0  0  1  0  0  0  0  0  0
  180.4670  177.3530  140.9730 C   0  0  1  0  0  3  0  0  0  0  0  0
  181.0110  176.2160  138.7550 N   0  0  0  0  0  0  0  0  0  0  0  0
  180.0780  176.9170  139.5900 C   0  0  0  0  0  0  0  0  0  0  0  0
  181.7810  175.9050  136.4610 C   0  0  0  0  0  2  0  0  0  0  0  0
  183.3700  175.8960  138.2190 C   0  0  0  0  0  2  0  0  0  0  0  0
  182.9530  175.2140  136.9950 N   0  0  0  0  0  2  0  0  0  0  0  0
  182.2910  175.7540  139.2890 C   0  0  0  0  0  2  0  0  0  0  0  0
  180.6080  175.7600  137.4270 C   0  0  0  0  0  2  0  0  0  0  0  0
  178.9310  177.2060  139.1510 O   0  0  0  0  0  0  0  0  0  0  0  0
  180.7210  179.7470  140.2500 C   0  0  0  0  0  2  0  0  0  0  0  0
  181.5370  180.2150  139.0610 C   0  0  0  0  0  1  0  0  0  0  0  0
  189.6040  178.0250  139.3380 C   0  0  0  0  0  2  0  0  0  0  0  0
  187.7220  178.3980  136.0720 C   0  0  0  0  0  3  0  0  0  0  0  0
  187.2370  177.1000  135.8740 C   0  0  0  0  0  0  0  0  0  0  0  0
  188.3150  176.4010  137.9370 C   0  0  0  0  0  3  0  0  0  0  0  0
  188.5000  178.6970  137.1940 C   0  0  0  0  0  3  0  0  0  0  0  0
  188.8030  177.6980  138.1240 C   0  0  0  0  0  0  0  0  0  0  0  0
  187.5360  176.1010  136.8150 C   0  0  0  0  0  3  0  0  0  0  0  0
  185.0670  177.0980  134.6870 C   0  0  0  0  0  1  0  0  0  0  0  0
  186.4620  176.8330  134.7420 O   0  0  0  0  0  0  0  0  0  0  0  0
  1  6  1  0  0  0  0
  2 12  2  0  0  0  0
  3 10  2  0  0  0  0
  4  7  2  0  0  0  0
  4 15  1  0  0  0  0
  7  9  1  0  0  0  0
  8  1  1  0  0  0  0
  9  5  1  0  0  0  0
  9  1  2  0  0  0  0
 10 11  1  0  0  0  0
 11  2  1  1  0  0  0
 11  7  1  0  0  0  0
 12  4  1  0  0  0  0
 13  2  1  0  0  0  0
 14 13  1  0  0  0  0
 14  3  1  0  0  0  0
 15  8  2  0  0  0  0
 16 17  1  6  0  0  0
 16  3  1  0  0  0  0
 16 18  1  0  0  0  0
 18 20  1  0  0  0  0
 19 20  1  0  0  0  0
 20 21  2  0  0  0  0
 22 33  1  1  0  0  0
 22 24  1  0  0  0  0
 22 19  1  0  0  0  0
 24 23  1  1  0  0  0
 25 30  1  0  0  0  0
 25 26  1  0  0  0  0
 26 24  1  0  0  0  0
 27 29  1  0  0  0  0
 27 31  1  0  0  0  0
 28 30  1  0  0  0  0
 29 28  1  0  0  0  0
 31 25  1  0  0  0  0
 32 26  2  0  0  0  0
 34 33  1  0  0  0  0
 35 13  1  0  0  0  0
 36 39  1  0  0  0  0
 37 36  2  0  0  0  0
 37 41  1  0  0  0  0
 38 40  1  0  0  0  0
 39 40  2  0  0  0  0
 40 35  1  0  0  0  0
 41 38  2  0  0  0  0
 42 43  1  0  0  0  0
 43 37  1  0  0  0  0
M  END
>  <MODEL>
2

>  <REMARK>
 VINA RESULT:      -8.2      2.939      6.843
  Name = 
  10 active torsions:
  status: ('A' for Active; 'I' for Inactive)
    1  A    between atoms: C_1  and  N_34
    2  A    between atoms: C_1  and  C_35
    3  A    between atoms: C_2  and  C_6
    4  A    between atoms: C_2  and  C_13
    5  A    between atoms: N_3  and  C_4
    6  A    between atoms: C_4  and  C_15
    7  A    between atoms: C_4  and  C_22
    8  A    between atoms: C_6  and  C_12
    9  A    between atoms: C_14  and  C_22
   10  A    between atoms: C_19  and  O_37
                            x       y       z     vdW  Elec       q    Type
                         _______ _______ _______ _____ _____    ______ ____

>  <TORSDO>
F 10

$$$$
=
 OpenBabel10262422073D

 43 47  0  0  1  0  0  0  0  0999 V2000
  183.4750  178.9180  144.5860 C   0  0  0  0  0  0  0  0  0  0  0  0
  184.2050  178.5610  140.1560 C   0  0  0  0  0  0  0  0  0  0  0  0
  186.9780  178.2510  139.9070 C   0  0  0  0  0  0  0  0  0  0  0  0
  182.9630  178.7800  141.8530 C   0  0  0  0  0  0  0  0  0  0  0  0
  185.8300  178.7020  144.1400 F   0  0  0  0  0  0  0  0  0  0  0  0
  183.7040  178.9900  145.9200 F   0  0  0  0  0  0  0  0  0  0  0  0
  184.2570  178.7090  142.3330 C   0  0  0  0  0  0  0  0  0  0  0  0
  182.1510  178.9920  144.1010 C   0  0  0  0  0  3  0  0  0  0  0  0
  184.5530  178.7740  143.6930 C   0  0  0  0  0  0  0  0  0  0  0  0
  186.4590  178.4080  141.0990 N   0  0  0  0  0  0  0  0  0  0  0  0
  185.0450  178.5700  141.2260 C   0  0  1  0  0  3  0  0  0  0  0  0
  182.9020  178.6860  140.5020 N   0  0  0  0  0  0  0  0  0  0  0  0
  184.7350  178.3930  138.8440 N   0  0  0  0  0  0  0  0  0  0  0  0
  186.1310  178.2290  138.7320 N   0  0  0  0  0  2  0  0  0  0  0  0
  181.8820  178.9210  142.7210 C   0  0  0  0  0  3  0  0  0  0  0  0
  188.4480  178.0540  139.7490 C   0  0  1  0  0  3  0  0  0  0  0  0
  189.0080  179.1570  139.0990 O   0  0  0  0  0  1  0  0  0  0  0  0
  189.0920  177.8560  141.1150 C   0  0  0  0  0  2  0  0  0  0  0  0
  191.2130  176.9050  142.1560 N   0  0  0  0  0  2  0  0  0  0  0  0
  190.3980  177.1350  141.0030 C   0  0  0  0  0  0  0  0  0  0  0  0
  190.7790  176.7050  139.8820 O   0  0  0  0  0  0  0  0  0  0  0  0
  190.8420  177.3640  143.4900 C   0  0  1  0  0  3  0  0  0  0  0  0
  192.0430  175.4130  144.2370 O   0  0  0  0  0  1  0  0  0  0  0  0
  190.9120  176.1980  144.4790 C   0  0  1  0  0  3  0  0  0  0  0  0
  189.7290  177.0420  146.5760 N   0  0  0  0  0  0  0  0  0  0  0  0
  190.9440  176.6970  145.8950 C   0  0  0  0  0  0  0  0  0  0  0  0
  188.7180  178.5740  148.1830 C   0  0  0  0  0  2  0  0  0  0  0  0
  187.4500  177.8730  146.3080 C   0  0  0  0  0  2  0  0  0  0  0  0
  187.4080  178.0900  147.7520 N   0  0  0  0  0  2  0  0  0  0  0  0
  188.4280  176.7480  145.9780 C   0  0  0  0  0  2  0  0  0  0  0  0
  189.7690  177.4880  147.9660 C   0  0  0  0  0  2  0  0  0  0  0  0
  192.0560  176.8480  146.4710 O   0  0  0  0  0  0  0  0  0  0  0  0
  191.7790  178.4870  143.9090 C   0  0  0  0  0  2  0  0  0  0  0  0
  191.0250  179.8010  143.9700 C   0  0  0  0  0  1  0  0  0  0  0  0
  183.8780  178.2830  137.6720 C   0  0  0  0  0  2  0  0  0  0  0  0
  183.2790  174.5460  137.5330 C   0  0  0  0  0  3  0  0  0  0  0  0
  183.8690  174.2090  136.3090 C   0  0  0  0  0  0  0  0  0  0  0  0
  184.4530  176.5440  135.9680 C   0  0  0  0  0  3  0  0  0  0  0  0
  183.2730  175.8730  137.9730 C   0  0  0  0  0  3  0  0  0  0  0  0
  183.8540  176.8730  137.1880 C   0  0  0  0  0  0  0  0  0  0  0  0
  184.4590  175.2160  135.5280 C   0  0  0  0  0  3  0  0  0  0  0  0
  184.0990  171.7940  136.7900 C   0  0  0  0  0  1  0  0  0  0  0  0
  183.8580  172.8740  135.8980 O   0  0  0  0  0  0  0  0  0  0  0  0
  1  6  1  0  0  0  0
  2 12  2  0  0  0  0
  3 10  2  0  0  0  0
  4  7  2  0  0  0  0
  4 15  1  0  0  0  0
  7  9  1  0  0  0  0
  8  1  1  0  0  0  0
  9  5  1  0  0  0  0
  9  1  2  0  0  0  0
 10 11  1  0  0  0  0
 11  2  1  1  0  0  0
 11  7  1  0  0  0  0
 12  4  1  0  0  0  0
 13  2  1  0  0  0  0
 14 13  1  0  0  0  0
 14  3  1  0  0  0  0
 15  8  2  0  0  0  0
 16 17  1  1  0  0  0
 16  3  1  0  0  0  0
 16 18  1  0  0  0  0
 19 22  1  0  0  0  0
 20 18  1  0  0  0  0
 20 19  1  0  0  0  0
 21 20  2  0  0  0  0
 22 33  1  1  0  0  0
 22 24  1  0  0  0  0
 24 23  1  6  0  0  0
 24 26  1  0  0  0  0
 25 31  1  0  0  0  0
 26 32  2  0  0  0  0
 26 25  1  0  0  0  0
 28 29  1  0  0  0  0
 29 27  1  0  0  0  0
 30 28  1  0  0  0  0
 30 25  1  0  0  0  0
 31 27  1  0  0  0  0
 33 34  1  0  0  0  0
 35 13  1  0  0  0  0
 36 39  1  0  0  0  0
 37 36  2  0  0  0  0
 38 40  1  0  0  0  0
 40 35  1  0  0  0  0
 40 39  2  0  0  0  0
 41 38  2  0  0  0  0
 41 37  1  0  0  0  0
 43 37  1  0  0  0  0
 43 42  1  0  0  0  0
M  END
>  <MODEL>
3

>  <REMARK>
 VINA RESULT:      -8.1      2.999      6.002
  Name = 
  10 active torsions:
  status: ('A' for Active; 'I' for Inactive)
    1  A    between atoms: C_1  and  N_34
    2  A    between atoms: C_1  and  C_35
    3  A    between atoms: C_2  and  C_6
    4  A    between atoms: C_2  and  C_13
    5  A    between atoms: N_3  and  C_4
    6  A    between atoms: C_4  and  C_15
    7  A    between atoms: C_4  and  C_22
    8  A    between atoms: C_6  and  C_12
    9  A    between atoms: C_14  and  C_22
   10  A    between atoms: C_19  and  O_37
                            x       y       z     vdW  Elec       q    Type
                         _______ _______ _______ _____ _____    ______ ____

>  <TORSDO>
F 10

$$$$
=
 OpenBabel10262422073D

 43 47  0  0  1  0  0  0  0  0999 V2000
  189.4900  176.8500  147.0280 C   0  0  0  0  0  0  0  0  0  0  0  0
  186.9020  178.2570  143.6210 C   0  0  0  0  0  0  0  0  0  0  0  0
  188.4970  177.9640  141.3380 C   0  0  0  0  0  0  0  0  0  0  0  0
  187.2740  177.8320  145.6590 C   0  0  0  0  0  0  0  0  0  0  0  0
  190.7030  176.7370  144.9520 F   0  0  0  0  0  0  0  0  0  0  0  0
  190.5590  176.3760  147.7130 F   0  0  0  0  0  0  0  0  0  0  0  0
  188.4410  177.5250  144.9850 C   0  0  0  0  0  0  0  0  0  0  0  0
  188.3000  177.1630  147.7220 C   0  0  0  0  0  3  0  0  0  0  0  0
  189.5690  177.0310  145.6350 C   0  0  0  0  0  0  0  0  0  0  0  0
  188.9970  177.6530  142.5080 N   0  0  0  0  0  0  0  0  0  0  0  0
  188.1850  177.8070  143.6740 C   0  0  0  0  0  0  0  0  0  0  0  0
  186.2990  178.2860  144.8330 N   0  0  0  0  0  2  0  0  0  0  0  0
  186.3260  178.6050  142.3650 N   0  0  0  0  0  0  0  0  0  0  0  0
  187.1350  178.4440  141.2210 N   0  0  0  0  0  2  0  0  0  0  0  0
  187.1740  177.6580  147.0380 C   0  0  0  0  0  3  0  0  0  0  0  0
  189.3150  177.7880  140.1030 C   0  0  1  0  0  3  0  0  0  0  0  0
  190.2450  176.7620  140.2920 O   0  0  0  0  0  1  0  0  0  0  0  0
  188.4070  177.4740  138.9220 C   0  0  0  0  0  2  0  0  0  0  0  0
  189.6620  177.5840  136.7080 N   0  0  0  0  0  2  0  0  0  0  0  0
  188.8350  178.2110  137.6920 C   0  0  0  0  0  0  0  0  0  0  0  0
  188.4450  179.3940  137.5090 O   0  0  0  0  0  0  0  0  0  0  0  0
  190.1500  176.2170  136.8410 C   0  0  1  0  0  3  0  0  0  0  0  0
  190.2330  174.8300  134.8730 O   0  0  0  0  0  1  0  0  0  0  0  0
  189.3890  175.2970  135.8840 C   0  0  1  0  0  3  0  0  0  0  0  0
  187.3990  173.8250  136.5040 N   0  0  0  0  0  0  0  0  0  0  0  0
  188.7970  174.1290  136.6200 C   0  0  0  0  0  0  0  0  0  0  0  0
  185.4420  172.9920  137.6990 C   0  0  0  0  0  2  0  0  0  0  0  0
  185.1730  174.7500  136.1320 C   0  0  0  0  0  2  0  0  0  0  0  0
  184.6170  173.4800  136.5950 N   0  0  0  0  0  2  0  0  0  0  0  0
  186.5590  174.5250  135.5350 C   0  0  0  0  0  2  0  0  0  0  0  0
  186.8440  172.6620  137.1920 C   0  0  0  0  0  2  0  0  0  0  0  0
  189.5340  173.4370  137.3740 O   0  0  0  0  0  0  0  0  0  0  0  0
  191.6430  176.1900  136.5460 C   0  0  0  0  0  2  0  0  0  0  0  0
  192.4160  175.8050  137.7920 C   0  0  0  0  0  1  0  0  0  0  0  0
  184.9320  179.0040  142.2380 C   0  0  0  0  0  2  0  0  0  0  0  0
  182.9250  177.0110  139.7190 C   0  0  0  0  0  3  0  0  0  0  0  0
  183.3810  177.5430  138.5070 C   0  0  0  0  0  0  0  0  0  0  0  0
  184.8430  179.0450  139.7380 C   0  0  0  0  0  3  0  0  0  0  0  0
  183.4230  177.4920  140.9340 C   0  0  0  0  0  3  0  0  0  0  0  0
  184.3770  178.5140  140.9440 C   0  0  0  0  0  0  0  0  0  0  0  0
  184.3460  178.5640  138.5220 C   0  0  0  0  0  3  0  0  0  0  0  0
  182.0820  177.8280  136.4220 C   0  0  0  0  0  1  0  0  0  0  0  0
  182.8640  177.0400  137.3110 O   0  0  0  0  0  0  0  0  0  0  0  0
  1  6  1  0  0  0  0
  1  8  1  0  0  0  0
  2 11  2  0  0  0  0
  2 12  1  0  0  0  0
  3 10  2  0  0  0  0
  4 15  1  0  0  0  0
  5  9  1  0  0  0  0
  7  9  1  0  0  0  0
  7  4  2  0  0  0  0
  9  1  2  0  0  0  0
 10 11  1  0  0  0  0
 11  7  1  0  0  0  0
 12  4  1  0  0  0  0
 13  2  1  0  0  0  0
 14  3  1  0  0  0  0
 14 13  1  0  0  0  0
 15  8  2  0  0  0  0
 16 17  1  1  0  0  0
 16  3  1  0  0  0  0
 18 16  1  0  0  0  0
 19 22  1  0  0  0  0
 19 20  1  0  0  0  0
 20 18  1  0  0  0  0
 21 20  2  0  0  0  0
 22 33  1  6  0  0  0
 24 23  1  6  0  0  0
 24 26  1  0  0  0  0
 24 22  1  0  0  0  0
 25 26  1  0  0  0  0
 25 31  1  0  0  0  0
 26 32  2  0  0  0  0
 28 29  1  0  0  0  0
 29 27  1  0  0  0  0
 30 28  1  0  0  0  0
 30 25  1  0  0  0  0
 31 27  1  0  0  0  0
 33 34  1  0  0  0  0
 35 13  1  0  0  0  0
 36 39  1  0  0  0  0
 37 41  1  0  0  0  0
 37 36  2  0  0  0  0
 38 40  1  0  0  0  0
 39 40  2  0  0  0  0
 40 35  1  0  0  0  0
 41 38  2  0  0  0  0
 42 43  1  0  0  0  0
 43 37  1  0  0  0  0
M  END
>  <MODEL>
4

>  <REMARK>
 VINA RESULT:      -8.1      1.629      2.258
  Name = 
  10 active torsions:
  status: ('A' for Active; 'I' for Inactive)
    1  A    between atoms: C_1  and  N_34
    2  A    between atoms: C_1  and  C_35
    3  A    between atoms: C_2  and  C_6
    4  A    between atoms: C_2  and  C_13
    5  A    between atoms: N_3  and  C_4
    6  A    between atoms: C_4  and  C_15
    7  A    between atoms: C_4  and  C_22
    8  A    between atoms: C_6  and  C_12
    9  A    between atoms: C_14  and  C_22
   10  A    between atoms: C_19  and  O_37
                            x       y       z     vdW  Elec       q    Type
                         _______ _______ _______ _____ _____    ______ ____

>  <TORSDO>
F 10

$$$$
=
 OpenBabel10262422073D

 43 47  0  0  1  0  0  0  0  0999 V2000
  184.7080  178.9740  144.8500 C   0  0  0  0  0  0  0  0  0  0  0  0
  183.6350  178.5180  140.4990 C   0  0  0  0  0  0  0  0  0  0  0  0
  186.0910  178.2590  139.1770 C   0  0  0  0  0  0  0  0  0  0  0  0
  183.1600  178.7550  142.5460 C   0  0  0  0  0  0  0  0  0  0  0  0
  186.7000  178.7950  143.5100 F   0  0  0  0  0  0  0  0  0  0  0  0
  185.4440  179.0840  145.9830 F   0  0  0  0  0  0  0  0  0  0  0  0
  184.5410  178.7230  142.4750 C   0  0  0  0  0  0  0  0  0  0  0  0
  183.2980  179.0080  144.9290 C   0  0  0  0  0  3  0  0  0  0  0  0
  185.3480  178.8290  143.6050 C   0  0  0  0  0  0  0  0  0  0  0  0
  186.0820  178.4360  140.4740 N   0  0  0  0  0  0  0  0  0  0  0  0
  184.8300  178.5720  141.1490 C   0  0  0  0  0  0  0  0  0  0  0  0
  182.5720  178.6250  141.3320 N   0  0  0  0  0  2  0  0  0  0  0  0
  183.6070  178.3270  139.0880 N   0  0  0  0  0  0  0  0  0  0  0  0
  184.8490  178.1890  138.4340 N   0  0  0  0  0  2  0  0  0  0  0  0
  182.5080  178.8960  143.7690 C   0  0  0  0  0  3  0  0  0  0  0  0
  187.3830  178.0880  138.4530 C   0  0  1  0  0  3  0  0  0  0  0  0
  187.5360  179.1060  137.5070 O   0  0  0  0  0  1  0  0  0  0  0  0
  188.5380  178.1050  139.4450 C   0  0  0  0  0  2  0  0  0  0  0  0
  190.3150  176.4730  140.2610 N   0  0  0  0  0  2  0  0  0  0  0  0
  189.4750  176.9620  139.2120 C   0  0  0  0  0  0  0  0  0  0  0  0
  189.5130  176.4080  138.0810 O   0  0  0  0  0  0  0  0  0  0  0  0
  190.3270  177.0530  141.5990 C   0  0  1  0  0  3  0  0  0  0  0  0
  191.2170  175.6050  143.3060 O   0  0  0  0  0  1  0  0  0  0  0  0
  190.0440  175.9670  142.6400 C   0  0  1  0  0  3  0  0  0  0  0  0
  189.4350  176.9210  144.9260 N   0  0  0  0  0  0  0  0  0  0  0  0
  189.0260  176.4360  143.6390 C   0  0  0  0  0  0  0  0  0  0  0  0
  188.8470  177.0190  147.2920 C   0  0  0  0  0  2  0  0  0  0  0  0
  191.1220  176.7650  146.6820 C   0  0  0  0  0  2  0  0  0  0  0  0
  190.2050  177.4830  147.5650 N   0  0  0  0  0  2  0  0  0  0  0  0
  190.8480  177.1410  145.2280 C   0  0  0  0  0  2  0  0  0  0  0  0
  188.4380  177.4120  145.8750 C   0  0  0  0  0  2  0  0  0  0  0  0
  187.8000  176.3630  143.3520 O   0  0  0  0  0  0  0  0  0  0  0  0
  191.6810  177.7030  141.8480 C   0  0  0  0  0  2  0  0  0  0  0  0
  192.5810  177.5140  140.6430 C   0  0  0  0  0  1  0  0  0  0  0  0
  182.3600  178.1700  138.3540 C   0  0  0  0  0  2  0  0  0  0  0  0
  180.6830  180.9010  136.3340 C   0  0  0  0  0  3  0  0  0  0  0  0
  180.9150  182.0270  137.1320 C   0  0  0  0  0  0  0  0  0  0  0  0
  182.0800  180.6260  138.7410 C   0  0  0  0  0  3  0  0  0  0  0  0
  181.1450  179.6430  136.7360 C   0  0  0  0  0  3  0  0  0  0  0  0
  181.8380  179.5040  137.9420 C   0  0  0  0  0  0  0  0  0  0  0  0
  181.6190  181.8840  138.3400 C   0  0  0  0  0  3  0  0  0  0  0  0
  180.8000  184.4890  137.3380 C   0  0  0  0  0  1  0  0  0  0  0  0
  180.4400  183.2690  136.7030 O   0  0  0  0  0  0  0  0  0  0  0  0
  1  8  1  0  0  0  0
  1  6  1  0  0  0  0
  2 11  2  0  0  0  0
  2 12  1  0  0  0  0
  3 10  2  0  0  0  0
  4 15  1  0  0  0  0
  5  9  1  0  0  0  0
  7  4  2  0  0  0  0
  7  9  1  0  0  0  0
  9  1  2  0  0  0  0
 10 11  1  0  0  0  0
 11  7  1  0  0  0  0
 12  4  1  0  0  0  0
 13  2  1  0  0  0  0
 14 13  1  0  0  0  0
 14  3  1  0  0  0  0
 15  8  2  0  0  0  0
 16 17  1  6  0  0  0
 16  3  1  0  0  0  0
 16 18  1  0  0  0  0
 19 22  1  0  0  0  0
 20 18  1  0  0  0  0
 20 19  1  0  0  0  0
 21 20  2  0  0  0  0
 22 33  1  1  0  0  0
 22 24  1  0  0  0  0
 24 23  1  1  0  0  0
 24 26  1  0  0  0  0
 25 30  1  0  0  0  0
 25 31  1  0  0  0  0
 26 25  1  0  0  0  0
 27 29  1  0  0  0  0
 28 29  1  0  0  0  0
 30 28  1  0  0  0  0
 31 27  1  0  0  0  0
 32 26  2  0  0  0  0
 34 33  1  0  0  0  0
 35 13  1  0  0  0  0
 36 39  2  0  0  0  0
 36 37  1  0  0  0  0
 37 41  2  0  0  0  0
 39 40  1  0  0  0  0
 40 35  1  0  0  0  0
 40 38  2  0  0  0  0
 41 38  1  0  0  0  0
 43 37  1  0  0  0  0
 43 42  1  0  0  0  0
M  END
>  <MODEL>
5

>  <REMARK>
 VINA RESULT:      -8.0      3.199      5.764
  Name = 
  10 active torsions:
  status: ('A' for Active; 'I' for Inactive)
    1  A    between atoms: C_1  and  N_34
    2  A    between atoms: C_1  and  C_35
    3  A    between atoms: C_2  and  C_6
    4  A    between atoms: C_2  and  C_13
    5  A    between atoms: N_3  and  C_4
    6  A    between atoms: C_4  and  C_15
    7  A    between atoms: C_4  and  C_22
    8  A    between atoms: C_6  and  C_12
    9  A    between atoms: C_14  and  C_22
   10  A    between atoms: C_19  and  O_37
                            x       y       z     vdW  Elec       q    Type
                         _______ _______ _______ _____ _____    ______ ____

>  <TORSDO>
F 10

$$$$
=
 OpenBabel10262422073D

 43 47  0  0  1  0  0  0  0  0999 V2000
  182.3370  179.2980  139.7620 C   0  0  0  0  0  0  0  0  0  0  0  0
  185.3460  178.1970  142.9280 C   0  0  0  0  0  0  0  0  0  0  0  0
  187.8140  178.1870  141.6020 C   0  0  0  0  0  0  0  0  0  0  0  0
  183.3890  178.6190  142.2490 C   0  0  0  0  0  0  0  0  0  0  0  0
  184.5450  179.1720  138.8120 F   0  0  0  0  0  0  0  0  0  0  0  0
  181.8060  179.6270  138.5590 F   0  0  0  0  0  0  0  0  0  0  0  0
  184.2090  178.7300  141.1420 C   0  0  0  0  0  0  0  0  0  0  0  0
  181.4940  179.1840  140.8890 C   0  0  0  0  0  3  0  0  0  0  0  0
  183.7200  179.0690  139.8830 C   0  0  0  0  0  0  0  0  0  0  0  0
  186.7260  178.4520  140.9220 N   0  0  0  0  0  0  0  0  0  0  0  0
  185.4660  178.4530  141.5970 C   0  0  0  0  0  0  0  0  0  0  0  0
  184.0710  178.2920  143.3740 N   0  0  0  0  0  2  0  0  0  0  0  0
  186.5080  177.9040  143.6990 N   0  0  0  0  0  0  0  0  0  0  0  0
  187.7460  177.9110  143.0220 N   0  0  0  0  0  2  0  0  0  0  0  0
  182.0170  178.8440  142.1510 C   0  0  0  0  0  3  0  0  0  0  0  0
  189.1430  178.2050  140.9270 C   0  0  1  0  0  3  0  0  0  0  0  0
  190.1240  177.7190  141.7950 O   0  0  0  0  0  1  0  0  0  0  0  0
  189.0900  177.3660  139.6570 C   0  0  0  0  0  2  0  0  0  0  0  0
  189.8820  177.6390  137.2530 N   0  0  0  0  0  2  0  0  0  0  0  0
  189.3150  178.2020  138.4380 C   0  0  0  0  0  0  0  0  0  0  0  0
  188.9810  179.4170  138.4460 O   0  0  0  0  0  0  0  0  0  0  0  0
  190.2890  176.2410  137.1590 C   0  0  1  0  0  3  0  0  0  0  0  0
  190.2070  175.2010  134.9870 O   0  0  0  0  0  1  0  0  0  0  0  0
  189.4380  175.5210  136.1090 C   0  0  1  0  0  3  0  0  0  0  0  0
  187.4310  174.0040  136.5320 N   0  0  0  0  0  0  0  0  0  0  0  0
  188.8340  174.2690  136.6760 C   0  0  0  0  0  0  0  0  0  0  0  0
  185.4700  173.0370  137.6150 C   0  0  0  0  0  2  0  0  0  0  0  0
  185.2160  175.0050  136.3200 C   0  0  0  0  0  2  0  0  0  0  0  0
  184.6440  173.6900  136.6010 N   0  0  0  0  0  2  0  0  0  0  0  0
  186.5940  174.8490  135.6820 C   0  0  0  0  0  2  0  0  0  0  0  0
  186.8630  172.7630  137.0520 C   0  0  0  0  0  2  0  0  0  0  0  0
  189.5670  173.4660  137.3160 O   0  0  0  0  0  0  0  0  0  0  0  0
  191.7660  176.1750  136.7970 C   0  0  0  0  0  2  0  0  0  0  0  0
  192.5870  175.8120  138.0190 C   0  0  0  0  0  1  0  0  0  0  0  0
  186.4510  177.7130  145.1410 C   0  0  0  0  0  2  0  0  0  0  0  0
  190.1410  176.8970  145.3860 C   0  0  0  0  0  3  0  0  0  0  0  0
  190.4030  177.1670  146.7340 C   0  0  0  0  0  0  0  0  0  0  0  0
  188.0790  177.8110  147.0380 C   0  0  0  0  0  3  0  0  0  0  0  0
  188.8570  177.0830  144.8650 C   0  0  0  0  0  3  0  0  0  0  0  0
  187.8270  177.5470  145.6880 C   0  0  0  0  0  0  0  0  0  0  0  0
  189.3630  177.6250  147.5600 C   0  0  0  0  0  3  0  0  0  0  0  0
  192.2510  175.6790  147.4330 C   0  0  0  0  0  1  0  0  0  0  0  0
  191.6960  176.9710  147.2250 O   0  0  0  0  0  0  0  0  0  0  0  0
  1  9  2  0  0  0  0
  1  8  1  0  0  0  0
  2 12  1  0  0  0  0
  2 13  1  0  0  0  0
  3 14  1  0  0  0  0
  4 12  1  0  0  0  0
  5  9  1  0  0  0  0
  6  1  1  0  0  0  0
  7 11  1  0  0  0  0
  7  4  2  0  0  0  0
  8 15  2  0  0  0  0
  9  7  1  0  0  0  0
 10 11  1  0  0  0  0
 10  3  2  0  0  0  0
 11  2  2  0  0  0  0
 13 35  1  0  0  0  0
 14 13  1  0  0  0  0
 15  4  1  0  0  0  0
 16  3  1  0  0  0  0
 16 17  1  1  0  0  0
 18 16  1  0  0  0  0
 19 20  1  0  0  0  0
 20 21  2  0  0  0  0
 20 18  1  0  0  0  0
 22 33  1  6  0  0  0
 22 19  1  0  0  0  0
 24 23  1  6  0  0  0
 24 26  1  0  0  0  0
 24 22  1  0  0  0  0
 25 26  1  0  0  0  0
 25 31  1  0  0  0  0
 26 32  2  0  0  0  0
 28 29  1  0  0  0  0
 29 27  1  0  0  0  0
 30 28  1  0  0  0  0
 30 25  1  0  0  0  0
 31 27  1  0  0  0  0
 33 34  1  0  0  0  0
 35 40  1  0  0  0  0
 36 37  1  0  0  0  0
 37 43  1  0  0  0  0
 37 41  2  0  0  0  0
 38 41  1  0  0  0  0
 39 36  2  0  0  0  0
 39 40  1  0  0  0  0
 40 38  2  0  0  0  0
 43 42  1  0  0  0  0
M  END
>  <MODEL>
6

>  <REMARK>
 VINA RESULT:      -8.0      2.762      5.821
  Name = 
  10 active torsions:
  status: ('A' for Active; 'I' for Inactive)
    1  A    between atoms: C_1  and  N_34
    2  A    between atoms: C_1  and  C_35
    3  A    between atoms: C_2  and  C_6
    4  A    between atoms: C_2  and  C_13
    5  A    between atoms: N_3  and  C_4
    6  A    between atoms: C_4  and  C_15
    7  A    between atoms: C_4  and  C_22
    8  A    between atoms: C_6  and  C_12
    9  A    between atoms: C_14  and  C_22
   10  A    between atoms: C_19  and  O_37
                            x       y       z     vdW  Elec       q    Type
                         _______ _______ _______ _____ _____    ______ ____

>  <TORSDO>
F 10

$$$$
=
 OpenBabel10262422073D

 43 47  0  0  1  0  0  0  0  0999 V2000
  189.7750  177.1130  145.6320 C   0  0  0  0  0  0  0  0  0  0  0  0
  188.9610  177.8120  141.2570 C   0  0  0  0  0  0  0  0  0  0  0  0
  186.3240  178.7510  141.1580 C   0  0  0  0  0  0  0  0  0  0  0  0
  190.1900  177.2460  142.8820 C   0  0  0  0  0  0  0  0  0  0  0  0
  187.5140  177.8750  145.3120 F   0  0  0  0  0  0  0  0  0  0  0  0
  189.5910  177.0400  146.9730 F   0  0  0  0  0  0  0  0  0  0  0  0
  188.9670  177.5880  143.4290 C   0  0  0  0  0  0  0  0  0  0  0  0
  191.0260  176.7620  145.0790 C   0  0  0  0  0  3  0  0  0  0  0  0
  188.7220  177.5350  144.7990 C   0  0  0  0  0  0  0  0  0  0  0  0
  186.8420  178.4310  142.3170 N   0  0  0  0  0  0  0  0  0  0  0  0
  188.1860  177.9470  142.3680 C   0  0  1  0  0  3  0  0  0  0  0  0
  190.2140  177.3800  141.5330 N   0  0  0  0  0  0  0  0  0  0  0  0
  188.4290  178.1500  139.9790 N   0  0  0  0  0  0  0  0  0  0  0  0
  187.1030  178.6300  139.9430 N   0  0  0  0  0  2  0  0  0  0  0  0
  191.2460  176.8280  143.6900 C   0  0  0  0  0  3  0  0  0  0  0  0
  184.9330  179.2820  141.0800 C   0  0  1  0  0  3  0  0  0  0  0  0
  184.6660  179.7290  139.7830 O   0  0  0  0  0  1  0  0  0  0  0  0
  183.9420  178.1980  141.4850 C   0  0  0  0  0  2  0  0  0  0  0  0
  181.7300  178.9440  142.5030 N   0  0  0  0  0  2  0  0  0  0  0  0
  183.1150  178.6230  142.6570 C   0  0  0  0  0  0  0  0  0  0  0  0
  183.6390  178.6810  143.8010 O   0  0  0  0  0  0  0  0  0  0  0  0
  181.0460  178.8970  141.2160 C   0  0  1  0  0  3  0  0  0  0  0  0
  179.2740  177.3590  141.7640 O   0  0  0  0  0  1  0  0  0  0  0  0
  180.4350  177.5100  141.0020 C   0  0  1  0  0  3  0  0  0  0  0  0
  180.9700  176.4740  138.7320 N   0  0  0  0  0  0  0  0  0  0  0  0
  180.1150  177.2830  139.5520 C   0  0  0  0  0  0  0  0  0  0  0  0
  181.9000  176.2020  136.4920 C   0  0  0  0  0  2  0  0  0  0  0  0
  183.2590  175.7090  138.3700 C   0  0  0  0  0  2  0  0  0  0  0  0
  182.8440  175.2370  137.0510 N   0  0  0  0  0  2  0  0  0  0  0  0
  182.0660  175.7080  139.3230 C   0  0  0  0  0  2  0  0  0  0  0  0
  180.6260  176.2270  137.3340 C   0  0  0  0  0  2  0  0  0  0  0  0
  179.1030  177.8440  139.0490 O   0  0  0  0  0  0  0  0  0  0  0  0
  179.9710  179.9730  141.1830 C   0  0  0  0  0  2  0  0  0  0  0  0
  179.6980  180.4840  142.5840 C   0  0  0  0  0  1  0  0  0  0  0  0
  189.2390  178.1120  138.7710 C   0  0  0  0  0  2  0  0  0  0  0  0
  190.0750  174.6610  137.4510 C   0  0  0  0  0  3  0  0  0  0  0  0
  188.8840  174.3070  136.8060 C   0  0  0  0  0  0  0  0  0  0  0  0
  187.9160  176.4390  137.4610 C   0  0  0  0  0  3  0  0  0  0  0  0
  190.1880  175.8950  138.0980 C   0  0  0  0  0  3  0  0  0  0  0  0
  189.1070  176.7820  138.1100 C   0  0  0  0  0  0  0  0  0  0  0  0
  187.8030  175.2050  136.8130 C   0  0  0  0  0  3  0  0  0  0  0  0
  187.9290  172.0340  136.6080 C   0  0  0  0  0  1  0  0  0  0  0  0
  188.8030  173.0670  136.1690 O   0  0  0  0  0  0  0  0  0  0  0  0
  1  6  1  0  0  0  0
  2 12  2  0  0  0  0
  3 10  2  0  0  0  0
  4  7  2  0  0  0  0
  4 15  1  0  0  0  0
  7  9  1  0  0  0  0
  8  1  1  0  0  0  0
  9  5  1  0  0  0  0
  9  1  2  0  0  0  0
 10 11  1  0  0  0  0
 11  2  1  1  0  0  0
 11  7  1  0  0  0  0
 12  4  1  0  0  0  0
 13  2  1  0  0  0  0
 14 13  1  0  0  0  0
 14  3  1  0  0  0  0
 15  8  2  0  0  0  0
 16 17  1  6  0  0  0
 16  3  1  0  0  0  0
 16 18  1  0  0  0  0
 18 20  1  0  0  0  0
 19 20  1  0  0  0  0
 20 21  2  0  0  0  0
 22 33  1  1  0  0  0
 22 19  1  0  0  0  0
 24 22  1  0  0  0  0
 24 23  1  1  0  0  0
 25 30  1  0  0  0  0
 25 26  1  0  0  0  0
 26 24  1  0  0  0  0
 27 29  1  0  0  0  0
 27 31  1  0  0  0  0
 28 30  1  0  0  0  0
 29 28  1  0  0  0  0
 31 25  1  0  0  0  0
 32 26  2  0  0  0  0
 33 34  1  0  0  0  0
 35 13  1  0  0  0  0
 36 39  1  0  0  0  0
 37 41  1  0  0  0  0
 37 36  2  0  0  0  0
 38 40  1  0  0  0  0
 39 40  2  0  0  0  0
 40 35  1  0  0  0  0
 41 38  2  0  0  0  0
 43 42  1  0  0  0  0
 43 37  1  0  0  0  0
M  END
>  <MODEL>
7

>  <REMARK>
 VINA RESULT:      -8.0      2.904      7.200
  Name = 
  10 active torsions:
  status: ('A' for Active; 'I' for Inactive)
    1  A    between atoms: C_1  and  N_34
    2  A    between atoms: C_1  and  C_35
    3  A    between atoms: C_2  and  C_6
    4  A    between atoms: C_2  and  C_13
    5  A    between atoms: N_3  and  C_4
    6  A    between atoms: C_4  and  C_15
    7  A    between atoms: C_4  and  C_22
    8  A    between atoms: C_6  and  C_12
    9  A    between atoms: C_14  and  C_22
   10  A    between atoms: C_19  and  O_37
                            x       y       z     vdW  Elec       q    Type
                         _______ _______ _______ _____ _____    ______ ____

>  <TORSDO>
F 10

$$$$
=
 OpenBabel10262422073D

 43 47  0  0  1  0  0  0  0  0999 V2000
  186.3370  177.9310  146.4130 C   0  0  0  0  0  0  0  0  0  0  0  0
  185.2230  178.7780  142.1320 C   0  0  0  0  0  0  0  0  0  0  0  0
  187.5490  178.2470  140.6650 C   0  0  0  0  0  0  0  0  0  0  0  0
  184.8040  178.6380  144.2000 C   0  0  0  0  0  0  0  0  0  0  0  0
  188.2340  177.5910  144.9710 F   0  0  0  0  0  0  0  0  0  0  0  0
  187.0670  177.5920  147.5030 F   0  0  0  0  0  0  0  0  0  0  0  0
  186.1340  178.2900  144.0550 C   0  0  0  0  0  0  0  0  0  0  0  0
  184.9790  178.2870  146.5670 C   0  0  0  0  0  3  0  0  0  0  0  0
  186.9320  177.9300  145.1380 C   0  0  0  0  0  0  0  0  0  0  0  0
  187.5730  178.1120  141.9680 N   0  0  0  0  0  0  0  0  0  0  0  0
  186.3880  178.3870  142.7170 C   0  0  0  0  0  0  0  0  0  0  0  0
  184.2120  178.9430  143.0180 N   0  0  0  0  0  2  0  0  0  0  0  0
  185.1600  178.9350  140.7170 N   0  0  0  0  0  0  0  0  0  0  0  0
  186.3360  178.6560  139.9880 N   0  0  0  0  0  2  0  0  0  0  0  0
  184.1950  178.6440  145.4540 C   0  0  0  0  0  3  0  0  0  0  0  0
  188.7650  177.9410  139.8580 C   0  0  1  0  0  3  0  0  0  0  0  0
  189.5980  177.0700  140.5660 O   0  0  0  0  0  1  0  0  0  0  0  0
  188.3610  177.3270  138.5250 C   0  0  0  0  0  2  0  0  0  0  0  0
  188.6330  177.7560  136.0300 N   0  0  0  0  0  2  0  0  0  0  0  0
  188.7240  178.2180  137.3800 C   0  0  0  0  0  0  0  0  0  0  0  0
  189.0980  179.4000  137.6040 O   0  0  0  0  0  0  0  0  0  0  0  0
  188.2040  176.4060  135.6830 C   0  0  1  0  0  3  0  0  0  0  0  0
  188.3720  174.1540  136.5220 O   0  0  0  0  0  1  0  0  0  0  0  0
  189.0360  175.3810  136.4570 C   0  0  1  0  0  3  0  0  0  0  0  0
  191.5850  175.3930  136.5660 N   0  0  0  0  0  0  0  0  0  0  0  0
  190.3800  175.1880  135.8150 C   0  0  0  0  0  0  0  0  0  0  0  0
  193.8860  176.1980  136.4510 C   0  0  0  0  0  2  0  0  0  0  0  0
  192.6140  176.6250  138.4050 C   0  0  0  0  0  2  0  0  0  0  0  0
  193.9170  176.1820  137.9130 N   0  0  0  0  0  2  0  0  0  0  0  0
  191.5380  175.6170  138.0100 C   0  0  0  0  0  2  0  0  0  0  0  0
  192.8860  175.1620  135.9420 C   0  0  0  0  0  2  0  0  0  0  0  0
  190.4420  174.8790  134.5940 O   0  0  0  0  0  0  0  0  0  0  0  0
  186.7230  176.2560  136.0050 C   0  0  0  0  0  2  0  0  0  0  0  0
  185.8950  177.1080  135.0650 C   0  0  0  0  0  1  0  0  0  0  0  0
  183.9200  179.2600  140.0290 C   0  0  0  0  0  2  0  0  0  0  0  0
  182.0990  175.9700  139.5800 C   0  0  0  0  0  3  0  0  0  0  0  0
  182.3340  175.6970  138.2280 C   0  0  0  0  0  0  0  0  0  0  0  0
  183.5960  177.7670  138.0480 C   0  0  0  0  0  3  0  0  0  0  0  0
  182.6070  177.1340  140.1650 C   0  0  0  0  0  3  0  0  0  0  0  0
  183.3500  178.0360  139.3980 C   0  0  0  0  0  0  0  0  0  0  0  0
  183.0880  176.6020  137.4630 C   0  0  0  0  0  3  0  0  0  0  0  0
  181.8400  174.2580  136.2780 C   0  0  0  0  0  1  0  0  0  0  0  0
  181.8120  174.5260  137.6740 O   0  0  0  0  0  0  0  0  0  0  0  0
  1  8  1  0  0  0  0
  1  6  1  0  0  0  0
  2 11  2  0  0  0  0
  2 12  1  0  0  0  0
  3 10  2  0  0  0  0
  4 15  1  0  0  0  0
  5  9  1  0  0  0  0
  7  4  2  0  0  0  0
  7  9  1  0  0  0  0
  9  1  2  0  0  0  0
 10 11  1  0  0  0  0
 11  7  1  0  0  0  0
 12  4  1  0  0  0  0
 13  2  1  0  0  0  0
 14  3  1  0  0  0  0
 14 13  1  0  0  0  0
 15  8  2  0  0  0  0
 16 17  1  1  0  0  0
 16  3  1  0  0  0  0
 18 16  1  0  0  0  0
 19 20  1  0  0  0  0
 20 21  2  0  0  0  0
 20 18  1  0  0  0  0
 22 33  1  1  0  0  0
 22 19  1  0  0  0  0
 22 24  1  0  0  0  0
 24 23  1  6  0  0  0
 25 30  1  0  0  0  0
 26 24  1  0  0  0  0
 26 25  1  0  0  0  0
 27 29  1  0  0  0  0
 29 28  1  0  0  0  0
 30 28  1  0  0  0  0
 31 27  1  0  0  0  0
 31 25  1  0  0  0  0
 32 26  2  0  0  0  0
 34 33  1  0  0  0  0
 35 13  1  0  0  0  0
 36 39  1  0  0  0  0
 37 36  2  0  0  0  0
 38 40  1  0  0  0  0
 40 35  1  0  0  0  0
 40 39  2  0  0  0  0
 41 38  2  0  0  0  0
 41 37  1  0  0  0  0
 42 43  1  0  0  0  0
 43 37  1  0  0  0  0
M  END
>  <MODEL>
8

>  <REMARK>
 VINA RESULT:      -8.0      1.362      3.200
  Name = 
  10 active torsions:
  status: ('A' for Active; 'I' for Inactive)
    1  A    between atoms: C_1  and  N_34
    2  A    between atoms: C_1  and  C_35
    3  A    between atoms: C_2  and  C_6
    4  A    between atoms: C_2  and  C_13
    5  A    between atoms: N_3  and  C_4
    6  A    between atoms: C_4  and  C_15
    7  A    between atoms: C_4  and  C_22
    8  A    between atoms: C_6  and  C_12
    9  A    between atoms: C_14  and  C_22
   10  A    between atoms: C_19  and  O_37
                            x       y       z     vdW  Elec       q    Type
                         _______ _______ _______ _____ _____    ______ ____

>  <TORSDO>
F 10

$$$$
=
 OpenBabel10262422073D

 43 47  0  0  1  0  0  0  0  0999 V2000
  180.2410  178.7450  143.5260 C   0  0  0  0  0  0  0  0  0  0  0  0
  183.5330  178.9270  140.4580 C   0  0  0  0  0  0  0  0  0  0  0  0
  185.8880  178.4690  141.9030 C   0  0  0  0  0  0  0  0  0  0  0  0
  181.5070  179.0030  141.0610 C   0  0  0  0  0  0  0  0  0  0  0  0
  182.3830  178.4320  144.5770 F   0  0  0  0  0  0  0  0  0  0  0  0
  179.6050  178.6240  144.7180 F   0  0  0  0  0  0  0  0  0  0  0  0
  182.2410  178.7830  142.2120 C   0  0  0  0  0  0  0  0  0  0  0  0
  179.4860  178.9700  142.3540 C   0  0  0  0  0  3  0  0  0  0  0  0
  181.6430  178.6480  143.4620 C   0  0  2  0  0  3  0  0  0  0  0  0
  184.7450  178.5010  142.5420 N   0  0  0  0  0  0  0  0  0  0  0  0
  183.5440  178.7390  141.8060 C   0  0  0  0  0  0  0  0  0  0  0  0
  182.2860  179.0920  139.9550 N   0  0  0  0  0  0  0  0  0  0  0  0
  184.7570  178.8990  139.7300 N   0  0  0  0  0  0  0  0  0  0  0  0
  185.9360  178.6580  140.4670 N   0  0  0  0  0  2  0  0  0  0  0  0
  180.1180  179.1000  141.1020 C   0  0  0  0  0  3  0  0  0  0  0  0
  187.1530  178.1970  142.6440 C   0  0  1  0  0  3  0  0  0  0  0  0
  187.2580  176.8300  142.9180 O   0  0  0  0  0  1  0  0  0  0  0  0
  188.3450  178.6690  141.8230 C   0  0  0  0  0  2  0  0  0  0  0  0
  190.1860  176.9460  142.1760 N   0  0  0  0  0  2  0  0  0  0  0  0
  189.1720  177.5180  141.3460 C   0  0  0  0  0  0  0  0  0  0  0  0
  188.9610  177.0300  140.2040 O   0  0  0  0  0  0  0  0  0  0  0  0
  190.4900  177.4460  143.5120 C   0  0  1  0  0  3  0  0  0  0  0  0
  191.9720  175.6330  144.0770 O   0  0  0  0  0  1  0  0  0  0  0  0
  190.7890  176.2760  144.4510 C   0  0  1  0  0  3  0  0  0  0  0  0
  189.7310  177.0720  146.6320 N   0  0  0  0  0  0  0  0  0  0  0  0
  190.9040  176.7450  145.8730 C   0  0  0  0  0  0  0  0  0  0  0  0
  188.8140  178.5660  148.3290 C   0  0  0  0  0  2  0  0  0  0  0  0
  187.4390  177.9020  146.5170 C   0  0  0  0  0  2  0  0  0  0  0  0
  187.4820  178.0870  147.9660 N   0  0  0  0  0  2  0  0  0  0  0  0
  188.3970  176.7870  146.1060 C   0  0  0  0  0  2  0  0  0  0  0  0
  189.8530  177.4880  148.0270 C   0  0  0  0  0  2  0  0  0  0  0  0
  192.0480  176.8870  146.3860 O   0  0  0  0  0  0  0  0  0  0  0  0
  191.6780  178.3940  143.4310 C   0  0  0  0  0  2  0  0  0  0  0  0
  191.3000  179.7550  143.9810 C   0  0  0  0  0  1  0  0  0  0  0  0
  184.7970  179.0020  138.2790 C   0  0  0  0  0  2  0  0  0  0  0  0
  187.4310  176.7310  136.7790 C   0  0  0  0  0  3  0  0  0  0  0  0
  186.6980  175.5610  136.5460 C   0  0  0  0  0  0  0  0  0  0  0  0
  184.7210  176.6380  137.4620 C   0  0  0  0  0  3  0  0  0  0  0  0
  186.8150  177.8480  137.3520 C   0  0  0  0  0  3  0  0  0  0  0  0
  185.4620  177.8000  137.7000 C   0  0  0  0  0  0  0  0  0  0  0  0
  185.3370  175.5210  136.8890 C   0  0  0  0  0  3  0  0  0  0  0  0
  188.7050  174.1500  136.2340 C   0  0  0  0  0  1  0  0  0  0  0  0
  187.3430  174.4630  135.9720 O   0  0  0  0  0  0  0  0  0  0  0  0
  1  6  1  0  0  0  0
  2 11  1  0  0  0  0
  3 10  2  0  0  0  0
  3 16  1  0  0  0  0
  4 15  2  0  0  0  0
  4  7  1  0  0  0  0
  7  9  1  0  0  0  0
  8  1  2  0  0  0  0
  9  1  1  0  0  0  0
  9  5  1  1  0  0  0
 11  7  2  0  0  0  0
 11 10  1  0  0  0  0
 12  2  2  0  0  0  0
 12  4  1  0  0  0  0
 13  2  1  0  0  0  0
 13 14  1  0  0  0  0
 14  3  1  0  0  0  0
 15  8  1  0  0  0  0
 16 17  1  6  0  0  0
 18 16  1  0  0  0  0
 19 22  1  0  0  0  0
 20 18  1  0  0  0  0
 20 19  1  0  0  0  0
 21 20  2  0  0  0  0
 22 33  1  6  0  0  0
 22 24  1  0  0  0  0
 24 23  1  6  0  0  0
 24 26  1  0  0  0  0
 25 31  1  0  0  0  0
 26 32  2  0  0  0  0
 26 25  1  0  0  0  0
 28 29  1  0  0  0  0
 29 27  1  0  0  0  0
 30 28  1  0  0  0  0
 30 25  1  0  0  0  0
 31 27  1  0  0  0  0
 33 34  1  0  0  0  0
 35 13  1  0  0  0  0
 36 39  1  0  0  0  0
 37 36  2  0  0  0  0
 37 41  1  0  0  0  0
 38 40  1  0  0  0  0
 39 40  2  0  0  0  0
 40 35  1  0  0  0  0
 41 38  2  0  0  0  0
 43 42  1  0  0  0  0
 43 37  1  0  0  0  0
M  END
>  <MODEL>
9

>  <REMARK>
 VINA RESULT:      -7.6      3.418      6.621
  Name = 
  10 active torsions:
  status: ('A' for Active; 'I' for Inactive)
    1  A    between atoms: C_1  and  N_34
    2  A    between atoms: C_1  and  C_35
    3  A    between atoms: C_2  and  C_6
    4  A    between atoms: C_2  and  C_13
    5  A    between atoms: N_3  and  C_4
    6  A    between atoms: C_4  and  C_15
    7  A    between atoms: C_4  and  C_22
    8  A    between atoms: C_6  and  C_12
    9  A    between atoms: C_14  and  C_22
   10  A    between atoms: C_19  and  O_37
                            x       y       z     vdW  Elec       q    Type
                         _______ _______ _______ _____ _____    ______ ____

>  <TORSDO>
F 10

$$$$
