=
 OpenBabel10262420013D

 27 31  0  0  1  0  0  0  0  0999 V2000
  189.5120  176.3420  143.3770 N   0  0  2  0  0  0  0  0  0  0  0  0
  188.2660  177.5830  144.8610 C   0  0  0  0  0  0  0  0  0  0  0  0
  188.3210  176.8890  142.6440 C   0  0  1  0  0  3  0  0  0  0  0  0
  184.3240  178.9570  144.9370 C   0  0  0  0  0  3  0  0  0  0  0  0
  182.2230  179.3280  143.8110 O   0  0  0  0  0  1  0  0  0  0  0  0
  187.7660  178.1160  146.0540 C   0  0  0  0  0  3  0  0  0  0  0  0
  185.3710  177.8430  142.5810 C   0  0  0  0  0  3  0  0  0  0  0  0
  188.7870  178.7580  139.4220 O   0  0  0  0  0  1  0  0  0  0  0  0
  184.0540  178.3110  142.6130 C   0  0  0  0  0  3  0  0  0  0  0  0
  190.2320  176.9630  140.0450 C   0  0  0  0  0  2  0  0  0  0  0  0
  187.4950  177.4790  143.7400 C   0  0  0  0  0  0  0  0  0  0  0  0
  189.5330  176.9840  144.6380 N   0  0  0  0  0  0  0  0  0  0  0  0
  183.5320  178.8660  143.7870 C   0  0  0  0  0  0  0  0  0  0  0  0
  185.6420  178.4940  144.9160 C   0  0  0  0  0  0  0  0  0  0  0  0
  190.8380  176.3240  142.7320 C   0  0  0  0  0  2  0  0  0  0  0  0
  186.1700  177.9310  143.7260 C   0  0  0  0  0  0  0  0  0  0  0  0
  188.8750  177.6380  140.2460 C   0  0  1  0  0  3  0  0  0  0  0  0
  186.4410  178.5810  146.0720 C   0  0  0  0  0  3  0  0  0  0  0  0
  191.4050  177.6990  140.7120 C   0  0  0  0  0  2  0  0  0  0  0  0
  191.3260  177.6820  142.2420 C   0  0  0  0  0  2  0  0  0  0  0  0
  188.6140  178.0560  141.6890 C   0  0  0  0  0  2  0  0  0  0  0  0
  192.2410  175.9490  147.7440 C   0  0  0  0  0  3  0  0  0  0  0  0
  190.4470  176.6280  145.6930 C   0  0  0  0  0  0  0  0  0  0  0  0
  190.3220  177.2020  146.9670 C   0  0  0  0  0  3  0  0  0  0  0  0
  191.2150  176.8630  147.9880 C   0  0  0  0  0  3  0  0  0  0  0  0
  192.3770  175.3740  146.4770 C   0  0  0  0  0  3  0  0  0  0  0  0
  191.4850  175.7130  145.4570 C   0  0  0  0  0  3  0  0  0  0  0  0
  1 15  1  6  0  0  0
  1 12  1  0  0  0  0
  2  6  1  0  0  0  0
  3 21  1  6  0  0  0
  3  1  1  0  0  0  0
  3 11  1  0  0  0  0
  6 18  2  0  0  0  0
  7  9  2  0  0  0  0
  7 16  1  0  0  0  0
  9 13  1  0  0  0  0
 10 17  1  0  0  0  0
 10 19  1  0  0  0  0
 11  2  2  0  0  0  0
 12  2  1  0  0  0  0
 12 23  1  0  0  0  0
 13  5  1  0  0  0  0
 13  4  2  0  0  0  0
 14  4  1  0  0  0  0
 14 18  1  0  0  0  0
 16 11  1  0  0  0  0
 16 14  2  0  0  0  0
 17  8  1  6  0  0  0
 17 21  1  0  0  0  0
 19 20  1  0  0  0  0
 20 15  1  0  0  0  0
 22 25  1  0  0  0  0
 23 24  1  0  0  0  0
 24 25  2  0  0  0  0
 26 22  2  0  0  0  0
 27 23  2  0  0  0  0
 27 26  1  0  0  0  0
M  END
>  <MODEL>
1

>  <REMARK>
 VINA RESULT:     -11.3      0.000      0.000
  Name = 
  1 active torsions:
  status: ('A' for Active; 'I' for Inactive)
    1  A    between atoms: C_9  and  N_15
                            x       y       z     vdW  Elec       q    Type
                         _______ _______ _______ _____ _____    ______ ____

>  <TORSDO>
F 1

$$$$
=
 OpenBabel10262420013D

 27 31  0  0  1  0  0  0  0  0999 V2000
  186.3830  177.4740  143.0690 N   0  0  2  0  0  0  0  0  0  0  0  0
  188.6540  177.8470  143.0660 C   0  0  0  0  0  0  0  0  0  0  0  0
  186.8710  177.3960  144.4860 C   0  0  1  0  0  3  0  0  0  0  0  0
  191.7470  177.0700  145.7600 C   0  0  0  0  0  3  0  0  0  0  0  0
  192.4770  176.4090  147.9620 O   0  0  0  0  0  1  0  0  0  0  0  0
  189.9740  177.9930  142.6280 C   0  0  0  0  0  3  0  0  0  0  0  0
  189.0760  176.7580  146.5710 C   0  0  0  0  0  3  0  0  0  0  0  0
  185.2010  179.4250  147.1680 O   0  0  0  0  0  1  0  0  0  0  0  0
  190.1180  176.5060  147.4680 C   0  0  0  0  0  3  0  0  0  0  0  0
  183.9750  178.5550  145.3130 C   0  0  0  0  0  2  0  0  0  0  0  0
  188.3560  177.4350  144.3320 C   0  0  0  0  0  0  0  0  0  0  0  0
  187.4640  177.9710  142.3020 N   0  0  0  0  0  0  0  0  0  0  0  0
  191.4490  176.6610  147.0650 C   0  0  0  0  0  0  0  0  0  0  0  0
  190.7140  177.3270  144.8550 C   0  0  0  0  0  0  0  0  0  0  0  0
  185.1110  178.1540  142.7550 C   0  0  0  0  0  2  0  0  0  0  0  0
  189.3650  177.1690  145.2650 C   0  0  0  0  0  0  0  0  0  0  0  0
  185.2380  178.4530  146.1700 C   0  0  1  0  0  3  0  0  0  0  0  0
  191.0110  177.7350  143.5410 C   0  0  0  0  0  3  0  0  0  0  0  0
  183.9740  179.7390  144.3330 C   0  0  0  0  0  2  0  0  0  0  0  0
  185.0300  179.6000  143.2310 C   0  0  0  0  0  2  0  0  0  0  0  0
  186.5260  178.6050  145.3690 C   0  0  0  0  0  2  0  0  0  0  0  0
  187.3890  178.2100  138.0610 C   0  0  0  0  0  3  0  0  0  0  0  0
  187.4410  178.0590  140.8650 C   0  0  0  0  0  0  0  0  0  0  0  0
  186.2660  178.4280  140.1930 C   0  0  0  0  0  3  0  0  0  0  0  0
  186.2400  178.5050  138.7980 C   0  0  0  0  0  3  0  0  0  0  0  0
  188.5640  177.8370  138.7190 C   0  0  0  0  0  3  0  0  0  0  0  0
  188.5890  177.7610  140.1140 C   0  0  0  0  0  3  0  0  0  0  0  0
  1 15  1  1  0  0  0
  1  3  1  0  0  0  0
  2 11  1  0  0  0  0
  3 21  1  1  0  0  0
  4 13  2  0  0  0  0
  6  2  2  0  0  0  0
  6 18  1  0  0  0  0
  7  9  2  0  0  0  0
 10 17  1  0  0  0  0
 11  3  1  0  0  0  0
 11 16  2  0  0  0  0
 12  2  1  0  0  0  0
 12  1  1  0  0  0  0
 13  9  1  0  0  0  0
 13  5  1  0  0  0  0
 14 16  1  0  0  0  0
 14  4  1  0  0  0  0
 15 20  1  0  0  0  0
 16  7  1  0  0  0  0
 17  8  1  1  0  0  0
 18 14  2  0  0  0  0
 19 10  1  0  0  0  0
 20 19  1  0  0  0  0
 21 17  1  0  0  0  0
 22 26  2  0  0  0  0
 22 25  1  0  0  0  0
 23 12  1  0  0  0  0
 24 23  1  0  0  0  0
 25 24  2  0  0  0  0
 26 27  1  0  0  0  0
 27 23  2  0  0  0  0
M  END
>  <MODEL>
2

>  <REMARK>
 VINA RESULT:     -10.4      2.591      6.932
  Name = 
  1 active torsions:
  status: ('A' for Active; 'I' for Inactive)
    1  A    between atoms: C_9  and  N_15
                            x       y       z     vdW  Elec       q    Type
                         _______ _______ _______ _____ _____    ______ ____

>  <TORSDO>
F 1

$$$$
=
 OpenBabel10262420013D

 27 31  0  0  1  0  0  0  0  0999 V2000
  187.9130  177.0450  143.8150 N   0  0  2  0  0  0  0  0  0  0  0  0
  186.1560  178.3340  144.5540 C   0  0  0  0  0  0  0  0  0  0  0  0
  187.0080  177.3130  142.6480 C   0  0  1  0  0  3  0  0  0  0  0  0
  182.3380  179.1850  143.0940 C   0  0  0  0  0  3  0  0  0  0  0  0
  180.7240  179.1020  141.3030 O   0  0  0  0  0  1  0  0  0  0  0  0
  185.2450  178.9780  145.3980 C   0  0  0  0  0  3  0  0  0  0  0  0
  184.1970  177.8580  141.4580 C   0  0  0  0  0  3  0  0  0  0  0  0
  188.4110  178.6980  139.4530 O   0  0  0  0  0  1  0  0  0  0  0  0
  182.9190  178.1530  140.9760 C   0  0  0  0  0  3  0  0  0  0  0  0
  189.6780  177.2230  140.8390 C   0  0  0  0  0  2  0  0  0  0  0  0
  185.8200  177.9560  143.2860 C   0  0  0  0  0  0  0  0  0  0  0  0
  187.4610  177.8740  144.8690 N   0  0  0  0  0  0  0  0  0  0  0  0
  181.9920  178.8130  141.7900 C   0  0  0  0  0  0  0  0  0  0  0  0
  183.6130  178.8970  143.5870 C   0  0  0  0  0  0  0  0  0  0  0  0
  189.3780  177.0960  143.6480 C   0  0  0  0  0  2  0  0  0  0  0  0
  184.5520  178.2280  142.7610 C   0  0  0  0  0  0  0  0  0  0  0  0
  188.2900  177.7410  140.4600 C   0  0  1  0  0  3  0  0  0  0  0  0
  183.9640  179.2670  144.8990 C   0  0  0  0  0  3  0  0  0  0  0  0
  190.5010  178.1990  141.6940 C   0  0  0  0  0  2  0  0  0  0  0  0
  189.9090  178.4120  143.0910 C   0  0  0  0  0  2  0  0  0  0  0  0
  187.5270  178.3440  141.6350 C   0  0  0  0  0  2  0  0  0  0  0  0
  189.0130  177.6990  148.8210 C   0  0  0  0  0  3  0  0  0  0  0  0
  187.9850  177.8080  146.2090 C   0  0  0  0  0  0  0  0  0  0  0  0
  187.2010  178.2130  147.3010 C   0  0  0  0  0  3  0  0  0  0  0  0
  187.7120  178.1570  148.6010 C   0  0  0  0  0  3  0  0  0  0  0  0
  189.8030  177.2960  147.7410 C   0  0  0  0  0  3  0  0  0  0  0  0
  189.2920  177.3520  146.4420 C   0  0  0  0  0  3  0  0  0  0  0  0
  1 15  1  6  0  0  0
  1 12  1  0  0  0  0
  2 12  1  0  0  0  0
  2  6  1  0  0  0  0
  3 21  1  6  0  0  0
  3 11  1  0  0  0  0
  3  1  1  0  0  0  0
  4 14  1  0  0  0  0
  5 13  1  0  0  0  0
  7 16  1  0  0  0  0
  9  7  2  0  0  0  0
  9 13  1  0  0  0  0
 10 19  1  0  0  0  0
 11  2  2  0  0  0  0
 12 23  1  0  0  0  0
 13  4  2  0  0  0  0
 14 18  1  0  0  0  0
 16 11  1  0  0  0  0
 16 14  2  0  0  0  0
 17  8  1  6  0  0  0
 17 10  1  0  0  0  0
 17 21  1  0  0  0  0
 18  6  2  0  0  0  0
 19 20  1  0  0  0  0
 20 15  1  0  0  0  0
 23 27  2  0  0  0  0
 23 24  1  0  0  0  0
 24 25  2  0  0  0  0
 25 22  1  0  0  0  0
 26 22  2  0  0  0  0
 27 26  1  0  0  0  0
M  END
>  <MODEL>
3

>  <REMARK>
 VINA RESULT:     -10.4      1.587      2.376
  Name = 
  1 active torsions:
  status: ('A' for Active; 'I' for Inactive)
    1  A    between atoms: C_9  and  N_15
                            x       y       z     vdW  Elec       q    Type
                         _______ _______ _______ _____ _____    ______ ____

>  <TORSDO>
F 1

$$$$
=
 OpenBabel10262420013D

 27 31  0  0  1  0  0  0  0  0999 V2000
  187.2550  176.8960  144.5080 N   0  0  2  0  0  0  0  0  0  0  0  0
  187.3400  178.0180  142.5010 C   0  0  0  0  0  0  0  0  0  0  0  0
  188.6220  176.6970  143.9200 C   0  0  1  0  0  3  0  0  0  0  0  0
  189.8050  177.8100  139.1380 C   0  0  0  0  0  3  0  0  0  0  0  0
  191.8090  176.9970  138.0680 O   0  0  0  0  0  1  0  0  0  0  0  0
  186.9490  178.6970  141.3420 C   0  0  0  0  0  3  0  0  0  0  0  0
  190.5200  176.4370  141.4820 C   0  0  0  0  0  3  0  0  0  0  0  0
  191.6810  177.4230  145.9720 O   0  0  0  0  0  1  0  0  0  0  0  0
  191.3420  176.3780  140.3530 C   0  0  0  0  0  3  0  0  0  0  0  0
  189.6770  176.5910  146.9680 C   0  0  0  0  0  2  0  0  0  0  0  0
  188.4840  177.2750  142.5500 C   0  0  0  0  0  0  0  0  0  0  0  0
  186.6200  177.8820  143.7160 N   0  0  0  0  0  0  0  0  0  0  0  0
  190.9870  177.0610  139.1850 C   0  0  0  0  0  0  0  0  0  0  0  0
  188.9760  177.8780  140.2600 C   0  0  0  0  0  0  0  0  0  0  0  0
  187.0960  177.1470  145.9540 C   0  0  0  0  0  2  0  0  0  0  0  0
  189.3370  177.1840  141.4440 C   0  0  0  0  0  0  0  0  0  0  0  0
  190.4920  176.7530  145.6850 C   0  0  1  0  0  3  0  0  0  0  0  0
  187.7860  178.6280  140.2160 C   0  0  0  0  0  3  0  0  0  0  0  0
  188.9820  177.8790  147.4380 C   0  0  0  0  0  2  0  0  0  0  0  0
  187.8790  178.3440  146.4810 C   0  0  0  0  0  2  0  0  0  0  0  0
  189.7480  177.5030  144.5850 C   0  0  0  0  0  2  0  0  0  0  0  0
  182.5460  178.9980  144.1740 C   0  0  0  0  0  3  0  0  0  0  0  0
  185.2370  178.2540  143.8730 C   0  0  0  0  0  0  0  0  0  0  0  0
  184.3710  178.2560  142.7690 C   0  0  0  0  0  3  0  0  0  0  0  0
  183.0310  178.6250  142.9180 C   0  0  0  0  0  3  0  0  0  0  0  0
  183.4000  179.0030  145.2790 C   0  0  0  0  0  3  0  0  0  0  0  0
  184.7390  178.6340  145.1290 C   0  0  0  0  0  3  0  0  0  0  0  0
  1 15  1  1  0  0  0
  2 11  1  0  0  0  0
  2 12  1  0  0  0  0
  3  1  1  0  0  0  0
  3 21  1  1  0  0  0
  4 13  2  0  0  0  0
  4 14  1  0  0  0  0
  5 13  1  0  0  0  0
  6  2  2  0  0  0  0
  9  7  2  0  0  0  0
 10 19  1  0  0  0  0
 11  3  1  0  0  0  0
 12 23  1  0  0  0  0
 12  1  1  0  0  0  0
 13  9  1  0  0  0  0
 14 16  1  0  0  0  0
 15 20  1  0  0  0  0
 16  7  1  0  0  0  0
 16 11  2  0  0  0  0
 17  8  1  1  0  0  0
 17 10  1  0  0  0  0
 18 14  2  0  0  0  0
 18  6  1  0  0  0  0
 20 19  1  0  0  0  0
 21 17  1  0  0  0  0
 22 26  1  0  0  0  0
 23 27  1  0  0  0  0
 24 25  1  0  0  0  0
 24 23  2  0  0  0  0
 25 22  2  0  0  0  0
 27 26  2  0  0  0  0
M  END
>  <MODEL>
4

>  <REMARK>
 VINA RESULT:     -10.1      2.463      6.673
  Name = 
  1 active torsions:
  status: ('A' for Active; 'I' for Inactive)
    1  A    between atoms: C_9  and  N_15
                            x       y       z     vdW  Elec       q    Type
                         _______ _______ _______ _____ _____    ______ ____

>  <TORSDO>
F 1

$$$$
=
 OpenBabel10262420013D

 27 31  0  0  1  0  0  0  0  0999 V2000
  186.6730  179.0060  140.9690 N   0  0  2  0  0  0  0  0  0  0  0  0
  186.7380  177.8780  142.9740 C   0  0  0  0  0  0  0  0  0  0  0  0
  188.1050  178.6700  141.2700 C   0  0  1  0  0  3  0  0  0  0  0  0
  189.7240  177.0710  145.7780 C   0  0  0  0  0  3  0  0  0  0  0  0
  192.0550  177.0580  146.3960 O   0  0  0  0  0  1  0  0  0  0  0  0
  186.3640  177.3600  144.2180 C   0  0  0  0  0  3  0  0  0  0  0  0
  190.4100  178.1460  143.2760 C   0  0  0  0  0  3  0  0  0  0  0  0
  190.2100  176.9230  138.6990 O   0  0  0  0  0  1  0  0  0  0  0  0
  191.4040  177.8670  144.2180 C   0  0  0  0  0  3  0  0  0  0  0  0
  188.4960  178.4620  138.0730 C   0  0  0  0  0  2  0  0  0  0  0  0
  188.0400  178.1480  142.6670 C   0  0  0  0  0  0  0  0  0  0  0  0
  185.8920  178.3030  141.9170 N   0  0  0  0  0  0  0  0  0  0  0  0
  191.0630  177.3310  145.4660 C   0  0  0  0  0  0  0  0  0  0  0  0
  188.7220  177.3440  144.8430 C   0  0  0  0  0  0  0  0  0  0  0  0
  186.1480  178.8710  139.5970 C   0  0  0  0  0  2  0  0  0  0  0  0
  189.0690  177.8870  143.5800 C   0  0  0  0  0  0  0  0  0  0  0  0
  189.4330  177.9760  139.1790 C   0  0  1  0  0  3  0  0  0  0  0  0
  187.3740  177.0860  145.1560 C   0  0  0  0  0  3  0  0  0  0  0  0
  187.2980  177.5350  137.8110 C   0  0  0  0  0  2  0  0  0  0  0  0
  186.3160  177.4840  138.9860 C   0  0  0  0  0  2  0  0  0  0  0  0
  188.7010  177.5250  140.4380 C   0  0  0  0  0  2  0  0  0  0  0  0
  181.6890  178.7850  142.3210 C   0  0  0  0  0  3  0  0  0  0  0  0
  184.4670  178.4730  142.0510 C   0  0  0  0  0  0  0  0  0  0  0  0
  183.9210  179.0020  143.2310 C   0  0  0  0  0  3  0  0  0  0  0  0
  182.5390  179.1590  143.3650 C   0  0  0  0  0  3  0  0  0  0  0  0
  182.2220  178.2520  141.1440 C   0  0  0  0  0  3  0  0  0  0  0  0
  183.6040  178.0970  141.0110 C   0  0  0  0  0  3  0  0  0  0  0  0
  1 15  1  6  0  0  0
  1  3  1  0  0  0  0
  1 12  1  0  0  0  0
  2  6  1  0  0  0  0
  3 21  1  6  0  0  0
  3 11  1  0  0  0  0
  6 18  2  0  0  0  0
  7 16  2  0  0  0  0
  7  9  1  0  0  0  0
  9 13  2  0  0  0  0
 10 17  1  0  0  0  0
 11  2  2  0  0  0  0
 11 16  1  0  0  0  0
 12 23  1  0  0  0  0
 12  2  1  0  0  0  0
 13  4  1  0  0  0  0
 13  5  1  0  0  0  0
 14 18  1  0  0  0  0
 14  4  2  0  0  0  0
 16 14  1  0  0  0  0
 17  8  1  6  0  0  0
 17 21  1  0  0  0  0
 19 10  1  0  0  0  0
 19 20  1  0  0  0  0
 20 15  1  0  0  0  0
 22 25  1  0  0  0  0
 23 24  1  0  0  0  0
 24 25  2  0  0  0  0
 26 22  2  0  0  0  0
 27 26  1  0  0  0  0
 27 23  2  0  0  0  0
M  END
>  <MODEL>
5

>  <REMARK>
 VINA RESULT:      -9.6      2.744      6.320
  Name = 
  1 active torsions:
  status: ('A' for Active; 'I' for Inactive)
    1  A    between atoms: C_9  and  N_15
                            x       y       z     vdW  Elec       q    Type
                         _______ _______ _______ _____ _____    ______ ____

>  <TORSDO>
F 1

$$$$
=
 OpenBabel10262420013D

 27 31  0  0  1  0  0  0  0  0999 V2000
  187.7140  178.6170  139.8200 N   0  0  2  0  0  0  0  0  0  0  0  0
  187.2640  177.9230  141.9670 C   0  0  0  0  0  0  0  0  0  0  0  0
  189.0060  178.1870  140.4520 C   0  0  1  0  0  3  0  0  0  0  0  0
  189.5690  177.3680  145.4040 C   0  0  0  0  0  3  0  0  0  0  0  0
  191.7310  177.2130  146.4610 O   0  0  0  0  0  1  0  0  0  0  0  0
  186.6090  177.7180  143.1860 C   0  0  0  0  0  3  0  0  0  0  0  0
  190.8280  177.8220  142.9340 C   0  0  0  0  0  3  0  0  0  0  0  0
  191.2290  175.7180  138.7030 O   0  0  0  0  0  1  0  0  0  0  0  0
  191.5920  177.6290  144.0890 C   0  0  0  0  0  3  0  0  0  0  0  0
  189.9010  177.2850  137.4860 C   0  0  0  0  0  2  0  0  0  0  0  0
  188.6250  177.9720  141.8800 C   0  0  0  0  0  0  0  0  0  0  0  0
  186.6850  178.2180  140.7060 N   0  0  0  0  0  0  0  0  0  0  0  0
  190.9650  177.4030  145.3200 C   0  0  0  0  0  0  0  0  0  0  0  0
  188.7940  177.5580  144.2560 C   0  0  0  0  0  0  0  0  0  0  0  0
  187.4180  178.2650  138.4180 C   0  0  0  0  0  2  0  0  0  0  0  0
  189.4310  177.7870  143.0090 C   0  0  0  0  0  0  0  0  0  0  0  0
  190.5510  176.9300  138.8240 C   0  0  1  0  0  3  0  0  0  0  0  0
  187.3900  177.5260  144.3380 C   0  0  0  0  0  3  0  0  0  0  0  0
  188.6400  176.4680  137.1640 C   0  0  0  0  0  2  0  0  0  0  0  0
  187.4750  176.7720  138.1110 C   0  0  0  0  0  2  0  0  0  0  0  0
  189.5540  176.8340  139.9740 C   0  0  0  0  0  2  0  0  0  0  0  0
  182.6000  179.2520  140.1590 C   0  0  0  0  0  3  0  0  0  0  0  0
  185.3010  178.5750  140.5240 C   0  0  0  0  0  0  0  0  0  0  0  0
  184.3360  178.1870  141.4660 C   0  0  0  0  0  3  0  0  0  0  0  0
  182.9920  178.5260  141.2850 C   0  0  0  0  0  3  0  0  0  0  0  0
  183.5520  179.6390  139.2120 C   0  0  0  0  0  3  0  0  0  0  0  0
  184.8950  179.3010  139.3930 C   0  0  0  0  0  3  0  0  0  0  0  0
  1 15  1  6  0  0  0
  1  3  1  0  0  0  0
  1 12  1  0  0  0  0
  2  6  1  0  0  0  0
  3 21  1  6  0  0  0
  3 11  1  0  0  0  0
  6 18  2  0  0  0  0
  7 16  2  0  0  0  0
  7  9  1  0  0  0  0
  9 13  2  0  0  0  0
 10 17  1  0  0  0  0
 11  2  2  0  0  0  0
 11 16  1  0  0  0  0
 12  2  1  0  0  0  0
 13  4  1  0  0  0  0
 13  5  1  0  0  0  0
 14 18  1  0  0  0  0
 14  4  2  0  0  0  0
 16 14  1  0  0  0  0
 17  8  1  6  0  0  0
 17 21  1  0  0  0  0
 19 10  1  0  0  0  0
 19 20  1  0  0  0  0
 20 15  1  0  0  0  0
 22 25  1  0  0  0  0
 23 12  1  0  0  0  0
 23 24  1  0  0  0  0
 25 24  2  0  0  0  0
 26 27  1  0  0  0  0
 26 22  2  0  0  0  0
 27 23  2  0  0  0  0
M  END
>  <MODEL>
6

>  <REMARK>
 VINA RESULT:      -9.3      2.966      6.527
  Name = 
  1 active torsions:
  status: ('A' for Active; 'I' for Inactive)
    1  A    between atoms: C_9  and  N_15
                            x       y       z     vdW  Elec       q    Type
                         _______ _______ _______ _____ _____    ______ ____

>  <TORSDO>
F 1

$$$$
=
 OpenBabel10262420013D

 27 31  0  0  1  0  0  0  0  0999 V2000
  185.8490  179.2410  142.2640 N   0  0  2  0  0  0  0  0  0  0  0  0
  187.5700  177.7210  142.4240 C   0  0  0  0  0  0  0  0  0  0  0  0
  186.3910  179.0030  140.8840 C   0  0  1  0  0  3  0  0  0  0  0  0
  190.7640  176.6510  139.9570 C   0  0  0  0  0  3  0  0  0  0  0  0
  191.8700  176.7530  137.8160 O   0  0  0  0  0  1  0  0  0  0  0  0
  188.5810  176.9110  142.9520 C   0  0  0  0  0  3  0  0  0  0  0  0
  188.7240  178.3070  138.9630 C   0  0  0  0  0  3  0  0  0  0  0  0
  184.0700  178.0830  138.0810 O   0  0  0  0  0  1  0  0  0  0  0  0
  189.7940  177.9380  138.1430 C   0  0  0  0  0  3  0  0  0  0  0  0
  183.3810  179.5310  139.8500 C   0  0  0  0  0  2  0  0  0  0  0  0
  187.6160  178.1880  141.1420 C   0  0  0  0  0  0  0  0  0  0  0  0
  186.4510  178.2720  143.1010 N   0  0  0  0  0  0  0  0  0  0  0  0
  190.8110  177.1140  138.6370 C   0  0  0  0  0  0  0  0  0  0  0  0
  189.6980  177.0110  140.7860 C   0  0  0  0  0  0  0  0  0  0  0  0
  184.3940  179.3500  142.4840 C   0  0  0  0  0  2  0  0  0  0  0  0
  188.6690  177.8470  140.2840 C   0  0  0  0  0  0  0  0  0  0  0  0
  184.5550  178.9200  139.0850 C   0  0  1  0  0  3  0  0  0  0  0  0
  189.6500  176.5500  142.1150 C   0  0  0  0  0  3  0  0  0  0  0  0
  182.6900  178.5600  140.8210 C   0  0  0  0  0  2  0  0  0  0  0  0
  183.5870  178.1530  141.9950 C   0  0  0  0  0  2  0  0  0  0  0  0
  185.5130  178.1330  139.9730 C   0  0  0  0  0  2  0  0  0  0  0  0
  185.9970  178.2460  147.3260 C   0  0  0  0  0  3  0  0  0  0  0  0
  186.2950  178.2560  144.5330 C   0  0  0  0  0  0  0  0  0  0  0  0
  185.0780  178.6340  145.1210 C   0  0  0  0  0  3  0  0  0  0  0  0
  184.9290  178.6280  146.5110 C   0  0  0  0  0  3  0  0  0  0  0  0
  187.2150  177.8720  146.7520 C   0  0  0  0  0  3  0  0  0  0  0  0
  187.3630  177.8780  145.3620 C   0  0  0  0  0  3  0  0  0  0  0  0
  1 15  1  6  0  0  0
  1 12  1  0  0  0  0
  2  6  1  0  0  0  0
  2 12  1  0  0  0  0
  3 21  1  6  0  0  0
  3 11  1  0  0  0  0
  3  1  1  0  0  0  0
  4 14  1  0  0  0  0
  5 13  1  0  0  0  0
  7 16  1  0  0  0  0
  9 13  1  0  0  0  0
  9  7  2  0  0  0  0
 10 19  1  0  0  0  0
 11  2  2  0  0  0  0
 12 23  1  0  0  0  0
 13  4  2  0  0  0  0
 14 18  1  0  0  0  0
 16 14  2  0  0  0  0
 16 11  1  0  0  0  0
 17  8  1  6  0  0  0
 17 10  1  0  0  0  0
 17 21  1  0  0  0  0
 18  6  2  0  0  0  0
 19 20  1  0  0  0  0
 20 15  1  0  0  0  0
 23 24  2  0  0  0  0
 23 27  1  0  0  0  0
 24 25  1  0  0  0  0
 25 22  2  0  0  0  0
 26 22  1  0  0  0  0
 27 26  2  0  0  0  0
M  END
>  <MODEL>
7

>  <REMARK>
 VINA RESULT:      -8.8      2.835      6.154
  Name = 
  1 active torsions:
  status: ('A' for Active; 'I' for Inactive)
    1  A    between atoms: C_9  and  N_15
                            x       y       z     vdW  Elec       q    Type
                         _______ _______ _______ _____ _____    ______ ____

>  <TORSDO>
F 1

$$$$
=
 OpenBabel10262420013D

 27 31  0  0  1  0  0  0  0  0999 V2000
  188.1830  176.8950  143.4000 N   0  0  2  0  0  0  0  0  0  0  0  0
  186.9920  178.1550  141.8860 C   0  0  0  0  0  0  0  0  0  0  0  0
  188.9030  176.8480  142.0830 C   0  0  1  0  0  3  0  0  0  0  0  0
  186.8740  178.3770  137.7190 C   0  0  0  0  0  3  0  0  0  0  0  0
  187.8140  177.8030  135.5730 O   0  0  0  0  0  1  0  0  0  0  0  0
  185.9570  178.8770  141.2840 C   0  0  0  0  0  3  0  0  0  0  0  0
  188.9070  176.9090  138.9830 C   0  0  0  0  0  3  0  0  0  0  0  0
  192.5610  177.6760  141.9070 O   0  0  0  0  0  1  0  0  0  0  0  0
  188.8630  176.9940  137.5890 C   0  0  0  0  0  3  0  0  0  0  0  0
  191.6110  176.6180  143.8250 C   0  0  0  0  0  2  0  0  0  0  0  0
  187.9400  177.5050  141.1500 C   0  0  0  0  0  0  0  0  0  0  0  0
  187.1740  177.8780  143.2660 N   0  0  0  0  0  0  0  0  0  0  0  0
  187.8500  177.7250  136.9580 C   0  0  0  0  0  0  0  0  0  0  0  0
  186.9080  178.3010  139.1130 C   0  0  0  0  0  0  0  0  0  0  0  0
  188.9400  177.0320  144.6580 C   0  0  0  0  0  2  0  0  0  0  0  0
  187.9350  177.5590  139.7510 C   0  0  0  0  0  0  0  0  0  0  0  0
  191.4620  176.9340  142.3360 C   0  0  1  0  0  3  0  0  0  0  0  0
  185.9260  178.9530  139.8820 C   0  0  0  0  0  3  0  0  0  0  0  0
  191.3230  177.8110  144.7510 C   0  0  0  0  0  2  0  0  0  0  0  0
  189.8560  178.2500  144.7200 C   0  0  0  0  0  2  0  0  0  0  0  0
  190.1830  177.6940  142.0020 C   0  0  0  0  0  2  0  0  0  0  0  0
  184.2210  178.6270  146.2280 C   0  0  0  0  0  3  0  0  0  0  0  0
  186.1710  178.1250  144.2710 C   0  0  0  0  0  0  0  0  0  0  0  0
  184.8440  178.3900  143.9020 C   0  0  0  0  0  3  0  0  0  0  0  0
  183.8730  178.6390  144.8760 C   0  0  0  0  0  3  0  0  0  0  0  0
  185.5410  178.3680  146.6070 C   0  0  0  0  0  3  0  0  0  0  0  0
  186.5110  178.1190  145.6330 C   0  0  0  0  0  3  0  0  0  0  0  0
  1 15  1  1  0  0  0
  2 12  1  0  0  0  0
  3 21  1  1  0  0  0
  3  1  1  0  0  0  0
  4 14  1  0  0  0  0
  5 13  1  0  0  0  0
  6  2  1  0  0  0  0
  7 16  1  0  0  0  0
  9  7  2  0  0  0  0
 10 19  1  0  0  0  0
 11  2  2  0  0  0  0
 11  3  1  0  0  0  0
 12  1  1  0  0  0  0
 12 23  1  0  0  0  0
 13  9  1  0  0  0  0
 13  4  2  0  0  0  0
 14 16  2  0  0  0  0
 14 18  1  0  0  0  0
 15 20  1  0  0  0  0
 16 11  1  0  0  0  0
 17  8  1  1  0  0  0
 17 10  1  0  0  0  0
 18  6  2  0  0  0  0
 20 19  1  0  0  0  0
 21 17  1  0  0  0  0
 22 26  1  0  0  0  0
 23 27  1  0  0  0  0
 24 23  2  0  0  0  0
 24 25  1  0  0  0  0
 25 22  2  0  0  0  0
 27 26  2  0  0  0  0
M  END
>  <MODEL>
8

>  <REMARK>
 VINA RESULT:      -8.7      2.677      5.534
  Name = 
  1 active torsions:
  status: ('A' for Active; 'I' for Inactive)
    1  A    between atoms: C_9  and  N_15
                            x       y       z     vdW  Elec       q    Type
                         _______ _______ _______ _____ _____    ______ ____

>  <TORSDO>
F 1

$$$$
=
 OpenBabel10262420013D

 27 31  0  0  1  0  0  0  0  0999 V2000
  190.5660  177.8750  143.9490 N   0  0  2  0  0  0  0  0  0  0  0  0
  188.5450  177.5950  142.8850 C   0  0  0  0  0  0  0  0  0  0  0  0
  189.4780  177.9750  144.9790 C   0  0  1  0  0  3  0  0  0  0  0  0
  184.5840  178.5010  143.8470 C   0  0  0  0  0  3  0  0  0  0  0  0
  182.9390  179.1960  145.4680 O   0  0  0  0  0  1  0  0  0  0  0  0
  187.5750  177.5020  141.8820 C   0  0  0  0  0  3  0  0  0  0  0  0
  186.5820  178.7070  145.8110 C   0  0  0  0  0  3  0  0  0  0  0  0
  189.6340  175.8850  148.0940 O   0  0  0  0  0  1  0  0  0  0  0  0
  185.2530  179.0020  146.1250 C   0  0  0  0  0  3  0  0  0  0  0  0
  191.6130  176.7020  147.0360 C   0  0  0  0  0  2  0  0  0  0  0  0
  188.2350  177.9970  144.1520 C   0  0  0  0  0  0  0  0  0  0  0  0
  189.9470  177.4220  142.7590 N   0  0  0  0  0  0  0  0  0  0  0  0
  184.2570  178.9000  145.1480 C   0  0  0  0  0  0  0  0  0  0  0  0
  185.9090  178.2010  143.5210 C   0  0  0  0  0  0  0  0  0  0  0  0
  191.8110  177.1440  144.2500 C   0  0  0  0  0  2  0  0  0  0  0  0
  186.9180  178.3060  144.5130 C   0  0  0  0  0  0  0  0  0  0  0  0
  190.1010  176.8570  147.2090 C   0  0  1  0  0  3  0  0  0  0  0  0
  186.2430  177.8030  142.2130 C   0  0  0  0  0  3  0  0  0  0  0  0
  192.0250  175.5170  146.1480 C   0  0  0  0  0  2  0  0  0  0  0  0
  191.6090  175.6960  144.6840 C   0  0  0  0  0  2  0  0  0  0  0  0
  189.3280  176.7550  145.8990 C   0  0  0  0  0  2  0  0  0  0  0  0
  191.9730  177.1320  139.0350 C   0  0  0  0  0  3  0  0  0  0  0  0
  190.6330  177.3300  141.4960 C   0  0  0  0  0  0  0  0  0  0  0  0
  189.9390  176.9560  140.3350 C   0  0  0  0  0  3  0  0  0  0  0  0
  190.6060  176.8590  139.1100 C   0  0  0  0  0  3  0  0  0  0  0  0
  192.6750  177.5020  140.1860 C   0  0  0  0  0  3  0  0  0  0  0  0
  192.0080  177.5990  141.4100 C   0  0  0  0  0  3  0  0  0  0  0  0
  1 15  1  1  0  0  0
  1  3  1  0  0  0  0
  2 11  1  0  0  0  0
  3 21  1  1  0  0  0
  4 13  2  0  0  0  0
  6 18  1  0  0  0  0
  6  2  2  0  0  0  0
  7  9  2  0  0  0  0
 10 17  1  0  0  0  0
 11 16  2  0  0  0  0
 11  3  1  0  0  0  0
 12  2  1  0  0  0  0
 12  1  1  0  0  0  0
 13  5  1  0  0  0  0
 13  9  1  0  0  0  0
 14  4  1  0  0  0  0
 14 16  1  0  0  0  0
 15 20  1  0  0  0  0
 16  7  1  0  0  0  0
 17  8  1  1  0  0  0
 18 14  2  0  0  0  0
 19 10  1  0  0  0  0
 20 19  1  0  0  0  0
 21 17  1  0  0  0  0
 22 25  2  0  0  0  0
 22 26  1  0  0  0  0
 23 12  1  0  0  0  0
 24 23  2  0  0  0  0
 25 24  1  0  0  0  0
 26 27  2  0  0  0  0
 27 23  1  0  0  0  0
M  END
>  <MODEL>
9

>  <REMARK>
 VINA RESULT:      -8.6      2.081      4.826
  Name = 
  1 active torsions:
  status: ('A' for Active; 'I' for Inactive)
    1  A    between atoms: C_9  and  N_15
                            x       y       z     vdW  Elec       q    Type
                         _______ _______ _______ _____ _____    ______ ____

>  <TORSDO>
F 1

$$$$
