=
 OpenBabel10262419463D

 25 28  0  0  1  0  0  0  0  0999 V2000
  187.1250  177.9660  145.6770 C   0  0  0  0  0  0  0  0  0  0  0  0
  188.3840  177.5000  145.3030 C   0  0  2  0  0  3  0  0  0  0  0  0
  187.8180  178.1980  147.9690 C   0  0  0  0  0  3  0  0  0  0  0  0
  185.9630  178.1900  144.9790 C   0  0  0  0  0  0  0  0  0  0  0  0
  183.3940  178.8290  144.1770 C   0  0  0  0  0  3  0  0  0  0  0  0
  189.0550  177.7400  147.6130 N   0  0  0  0  0  0  0  0  0  0  0  0
  185.0490  178.6550  145.9030 C   0  0  0  0  0  0  0  0  0  0  0  0
  183.7490  178.9850  145.5300 C   0  0  0  0  0  3  0  0  0  0  0  0
  190.6380  176.9220  145.9850 C   0  0  0  0  0  0  0  0  0  0  0  0
  191.6500  176.7920  146.9800 N   0  0  0  0  0  1  0  0  0  0  0  0
  188.7010  177.1430  143.9910 C   0  0  0  0  0  3  0  0  0  0  0  0
  184.3330  178.3520  143.2370 C   0  0  0  0  0  3  0  0  0  0  0  0
  186.8430  178.3090  146.9820 C   0  0  0  0  0  0  0  0  0  0  0  0
  185.5710  178.7380  147.1490 N   0  0  0  0  0  0  0  0  0  0  0  0
  190.9150  176.5800  144.6960 N   0  0  0  0  0  0  0  0  0  0  0  0
  185.6410  178.0240  143.6340 C   0  0  0  0  0  3  0  0  0  0  0  0
  189.9890  176.6880  143.7040 C   0  0  0  0  0  0  0  0  0  0  0  0
  189.3620  177.3920  146.3220 C   0  0  0  0  0  0  0  0  0  0  0  0
  190.3350  176.2730  142.3170 C   0  0  0  0  0  2  0  0  0  0  0  0
  190.0650  177.3700  141.3880 N   0  0  0  0  0  0  0  0  0  0  0  0
  188.6210  177.4060  141.1790 C   0  0  0  0  0  1  0  0  0  0  0  0
  190.1160  178.0180  139.0170 C   0  0  0  0  0  1  0  0  0  0  0  0
  190.7700  177.1740  140.1020 C   0  0  0  0  0  0  0  0  0  0  0  0
  190.6710  175.8370  139.7120 O   0  0  0  0  0  1  0  0  0  0  0  0
  192.2500  177.5490  140.1810 C   0  0  0  0  0  1  0  0  0  0  0  0
  1 13  1  0  0  0  0
  2 11  1  1  0  0  0
  2  1  1  0  0  0  0
  2 18  1  0  0  0  0
  4  1  2  0  0  0  0
  4  7  1  0  0  0  0
  5  8  2  0  0  0  0
  6  3  1  0  0  0  0
  7 14  2  0  0  0  0
  8  7  1  0  0  0  0
  9 18  1  0  0  0  0
  9 10  1  0  0  0  0
 12 16  2  0  0  0  0
 12  5  1  0  0  0  0
 13 14  1  0  0  0  0
 13  3  2  0  0  0  0
 15  9  2  0  0  0  0
 16  4  1  0  0  0  0
 17 11  2  0  0  0  0
 17 15  1  0  0  0  0
 18  6  2  0  0  0  0
 19 17  1  0  0  0  0
 20 19  1  0  0  0  0
 21 20  1  0  0  0  0
 22 23  1  0  0  0  0
 23 25  1  0  0  0  0
 23 20  1  0  0  0  0
 24 23  1  0  0  0  0
M  END
>  <MODEL>
1

>  <REMARK>
 VINA RESULT:     -10.4      0.000      0.000
  Name = 
  3 active torsions:
  status: ('A' for Active; 'I' for Inactive)
    1  A    between atoms: C_6  and  N_15
    2  A    between atoms: C_6  and  C_23
    3  A    between atoms: C_7  and  N_15
                            x       y       z     vdW  Elec       q    Type
                         _______ _______ _______ _____ _____    ______ ____

>  <TORSDO>
F 3

$$$$
=
 OpenBabel10262419463D

 25 28  0  0  1  0  0  0  0  0999 V2000
  185.3650  178.2200  144.7210 C   0  0  0  0  0  0  0  0  0  0  0  0
  186.6660  177.7310  144.8360 C   0  0  2  0  0  3  0  0  0  0  0  0
  185.2790  178.7360  147.0690 C   0  0  0  0  0  3  0  0  0  0  0  0
  184.5000  178.3410  143.6610 C   0  0  0  0  0  0  0  0  0  0  0  0
  182.3490  178.8400  141.9950 C   0  0  0  0  0  3  0  0  0  0  0  0
  186.5530  178.2570  147.1930 N   0  0  0  0  0  0  0  0  0  0  0  0
  183.3470  178.9000  144.1740 C   0  0  0  0  0  0  0  0  0  0  0  0
  182.2480  179.1630  143.3600 C   0  0  0  0  0  3  0  0  0  0  0  0
  188.5590  177.2730  146.2800 C   0  0  0  0  0  0  0  0  0  0  0  0
  189.1880  177.2790  147.5590 N   0  0  0  0  0  1  0  0  0  0  0  0
  187.3830  177.2250  143.7520 C   0  0  0  0  0  3  0  0  0  0  0  0
  183.5310  178.2680  141.4760 C   0  0  0  0  0  3  0  0  0  0  0  0
  184.6820  178.7130  145.8120 C   0  0  0  0  0  0  0  0  0  0  0  0
  183.4360  179.1400  145.5030 N   0  0  0  0  0  0  0  0  0  0  0  0
  189.2320  176.7840  145.2020 N   0  0  0  0  0  0  0  0  0  0  0  0
  184.6300  178.0090  142.3140 C   0  0  0  0  0  3  0  0  0  0  0  0
  188.6830  176.7570  143.9570 C   0  0  0  0  0  0  0  0  0  0  0  0
  187.2550  177.7610  146.1240 C   0  0  0  0  0  0  0  0  0  0  0  0
  189.4510  176.1840  142.8180 C   0  0  0  0  0  2  0  0  0  0  0  0
  190.1000  177.2570  142.0660 N   0  0  0  0  0  0  0  0  0  0  0  0
  190.0250  176.8950  140.6530 C   0  0  0  0  0  1  0  0  0  0  0  0
  192.3940  177.6080  141.2560 C   0  0  0  0  0  1  0  0  0  0  0  0
  191.5090  177.4330  142.4820 C   0  0  0  0  0  0  0  0  0  0  0  0
  191.9450  176.2890  143.1550 O   0  0  0  0  0  1  0  0  0  0  0  0
  191.7050  178.6410  143.3980 C   0  0  0  0  0  1  0  0  0  0  0  0
  1  2  1  0  0  0  0
  1 13  1  0  0  0  0
  2 11  1  1  0  0  0
  2 18  1  0  0  0  0
  3  6  1  0  0  0  0
  4  7  1  0  0  0  0
  4  1  2  0  0  0  0
  5  8  2  0  0  0  0
  7 14  2  0  0  0  0
  8  7  1  0  0  0  0
  9 10  1  0  0  0  0
 11 17  2  0  0  0  0
 12  5  1  0  0  0  0
 12 16  2  0  0  0  0
 13  3  2  0  0  0  0
 14 13  1  0  0  0  0
 15  9  2  0  0  0  0
 16  4  1  0  0  0  0
 17 15  1  0  0  0  0
 18  9  1  0  0  0  0
 18  6  2  0  0  0  0
 19 17  1  0  0  0  0
 20 23  1  0  0  0  0
 20 19  1  0  0  0  0
 21 20  1  0  0  0  0
 22 23  1  0  0  0  0
 23 24  1  0  0  0  0
 23 25  1  0  0  0  0
M  END
>  <MODEL>
2

>  <REMARK>
 VINA RESULT:     -10.2      1.514      2.307
  Name = 
  3 active torsions:
  status: ('A' for Active; 'I' for Inactive)
    1  A    between atoms: C_6  and  N_15
    2  A    between atoms: C_6  and  C_23
    3  A    between atoms: C_7  and  N_15
                            x       y       z     vdW  Elec       q    Type
                         _______ _______ _______ _____ _____    ______ ____

>  <TORSDO>
F 3

$$$$
=
 OpenBabel10262419463D

 25 28  0  0  0  0  0  0  0  0999 V2000
  186.7350  178.0770  144.2320 C   0  0  0  0  0  0  0  0  0  0  0  0
  186.6800  178.2950  142.8560 C   0  0  0  0  0  0  0  0  0  0  0  0
  184.4060  178.6260  144.4810 C   0  0  0  0  0  3  0  0  0  0  0  0
  187.7460  177.6970  145.0800 C   0  0  0  0  0  0  0  0  0  0  0  0
  189.3010  176.9880  147.2550 C   0  0  0  0  0  3  0  0  0  0  0  0
  184.3420  178.8450  143.1330 N   0  0  0  0  0  0  0  0  0  0  0  0
  187.1860  177.6510  146.3410 C   0  0  0  0  0  0  0  0  0  0  0  0
  187.9440  177.2980  147.4550 C   0  0  0  0  0  3  0  0  0  0  0  0
  185.3390  178.9270  140.9370 C   0  0  0  0  0  0  0  0  0  0  0  0
  184.1050  179.3340  140.3520 N   0  0  0  0  0  1  0  0  0  0  0  0
  187.7860  178.1420  142.0190 C   0  0  0  0  0  2  0  0  0  0  0  0
  189.8690  177.0380  145.9640 C   0  0  0  0  0  3  0  0  0  0  0  0
  185.6240  178.2370  145.0310 C   0  0  0  0  0  0  0  0  0  0  0  0
  185.8740  177.9810  146.3360 N   0  0  0  0  0  0  0  0  0  0  0  0
  186.4380  178.7710  140.1480 N   0  0  0  0  0  0  0  0  0  0  0  0
  189.0880  177.3980  144.8510 C   0  0  0  0  0  3  0  0  0  0  0  0
  187.6410  178.3810  140.6510 C   0  0  0  0  0  0  0  0  0  0  0  0
  185.4320  178.6920  142.3150 C   0  0  0  0  0  0  0  0  0  0  0  0
  188.8190  178.2530  139.7490 C   0  0  0  0  0  2  0  0  0  0  0  0
  188.4570  177.4740  138.5670 N   0  0  0  0  0  0  0  0  0  0  0  0
  189.4150  176.3760  138.4680 C   0  0  0  0  0  1  0  0  0  0  0  0
  189.4290  177.6770  136.3180 C   0  0  0  0  0  1  0  0  0  0  0  0
  188.4920  178.3030  137.3410 C   0  0  0  0  0  0  0  0  0  0  0  0
  188.9910  179.5710  137.6480 O   0  0  0  0  0  1  0  0  0  0  0  0
  187.1130  178.4640  136.7020 C   0  0  0  0  0  1  0  0  0  0  0  0
  1 13  1  0  0  0  0
  1  4  1  0  0  0  0
  2  1  2  0  0  0  0
  3 13  1  0  0  0  0
  4  7  1  0  0  0  0
  5  8  1  0  0  0  0
  6  3  2  0  0  0  0
  7  8  2  0  0  0  0
  9 18  2  0  0  0  0
 10  9  1  0  0  0  0
 11  2  1  0  0  0  0
 12  5  2  0  0  0  0
 13 14  2  0  0  0  0
 14  7  1  0  0  0  0
 15 17  2  0  0  0  0
 15  9  1  0  0  0  0
 16  4  2  0  0  0  0
 16 12  1  0  0  0  0
 17 11  1  0  0  0  0
 18  2  1  0  0  0  0
 18  6  1  0  0  0  0
 19 17  1  0  0  0  0
 20 19  1  0  0  0  0
 21 20  1  0  0  0  0
 22 23  1  0  0  0  0
 23 24  1  0  0  0  0
 23 20  1  0  0  0  0
 25 23  1  0  0  0  0
M  END
>  <MODEL>
3

>  <REMARK>
 VINA RESULT:     -10.1      2.553      4.909
  Name = 
  3 active torsions:
  status: ('A' for Active; 'I' for Inactive)
    1  A    between atoms: C_6  and  N_15
    2  A    between atoms: C_6  and  C_23
    3  A    between atoms: C_7  and  N_15
                            x       y       z     vdW  Elec       q    Type
                         _______ _______ _______ _____ _____    ______ ____

>  <TORSDO>
F 3

$$$$
=
 OpenBabel10262419463D

 25 28  0  0  0  0  0  0  0  0999 V2000
  187.9860  177.7290  144.4410 C   0  0  0  0  0  0  0  0  0  0  0  0
  187.6530  178.0170  143.1190 C   0  0  0  0  0  0  0  0  0  0  0  0
  185.7290  178.1320  145.1690 C   0  0  0  0  0  3  0  0  0  0  0  0
  189.1600  177.3630  145.0530 C   0  0  0  0  0  0  0  0  0  0  0  0
  191.1420  176.6270  146.8380 C   0  0  0  0  0  3  0  0  0  0  0  0
  185.3930  178.4180  143.8760 N   0  0  0  0  0  0  0  0  0  0  0  0
  188.8610  177.2180  146.3930 C   0  0  0  0  0  0  0  0  0  0  0  0
  189.8370  176.8490  147.3150 C   0  0  0  0  0  3  0  0  0  0  0  0
  185.9350  178.6730  141.5380 C   0  0  0  0  0  0  0  0  0  0  0  0
  184.5940  179.0400  141.2280 N   0  0  0  0  0  1  0  0  0  0  0  0
  188.5800  177.9710  142.0760 C   0  0  0  0  0  2  0  0  0  0  0  0
  191.4420  176.7780  145.4670 C   0  0  0  0  0  3  0  0  0  0  0  0
  187.0470  177.7840  145.4480 C   0  0  0  0  0  0  0  0  0  0  0  0
  187.5590  177.4730  146.6620 N   0  0  0  0  0  0  0  0  0  0  0  0
  186.8640  178.6210  140.5430 N   0  0  0  0  0  0  0  0  0  0  0  0
  190.4430  177.1510  144.5510 C   0  0  0  0  0  3  0  0  0  0  0  0
  188.1590  178.2730  140.7800 C   0  0  0  0  0  0  0  0  0  0  0  0
  186.3070  178.3710  142.8550 C   0  0  0  0  0  0  0  0  0  0  0  0
  189.1410  178.2600  139.6610 C   0  0  0  0  0  2  0  0  0  0  0  0
  188.6100  177.4840  138.5420 N   0  0  0  0  0  0  0  0  0  0  0  0
  189.5410  176.3840  138.3040 C   0  0  0  0  0  1  0  0  0  0  0  0
  189.3030  177.7280  136.1950 C   0  0  0  0  0  1  0  0  0  0  0  0
  188.4710  178.3170  137.3260 C   0  0  0  0  0  0  0  0  0  0  0  0
  188.9570  179.6020  137.5800 O   0  0  0  0  0  1  0  0  0  0  0  0
  187.0220  178.4280  136.8540 C   0  0  0  0  0  1  0  0  0  0  0  0
  1  4  1  0  0  0  0
  1 13  1  0  0  0  0
  2  1  2  0  0  0  0
  3 13  1  0  0  0  0
  4  7  1  0  0  0  0
  5  8  1  0  0  0  0
  6  3  2  0  0  0  0
  7 14  1  0  0  0  0
  7  8  2  0  0  0  0
  9 18  2  0  0  0  0
 10  9  1  0  0  0  0
 11  2  1  0  0  0  0
 12  5  2  0  0  0  0
 13 14  2  0  0  0  0
 15 17  2  0  0  0  0
 15  9  1  0  0  0  0
 16  4  2  0  0  0  0
 16 12  1  0  0  0  0
 17 11  1  0  0  0  0
 18  2  1  0  0  0  0
 18  6  1  0  0  0  0
 19 17  1  0  0  0  0
 20 19  1  0  0  0  0
 21 20  1  0  0  0  0
 22 23  1  0  0  0  0
 23 24  1  0  0  0  0
 23 20  1  0  0  0  0
 25 23  1  0  0  0  0
M  END
>  <MODEL>
4

>  <REMARK>
 VINA RESULT:     -10.1      2.389      4.948
  Name = 
  3 active torsions:
  status: ('A' for Active; 'I' for Inactive)
    1  A    between atoms: C_6  and  N_15
    2  A    between atoms: C_6  and  C_23
    3  A    between atoms: C_7  and  N_15
                            x       y       z     vdW  Elec       q    Type
                         _______ _______ _______ _____ _____    ______ ____

>  <TORSDO>
F 3

$$$$
=
 OpenBabel10262419463D

 25 28  0  0  1  0  0  0  0  0999 V2000
  185.9740  178.5120  142.3640 C   0  0  0  0  0  0  0  0  0  0  0  0
  187.2040  178.3000  141.7410 C   0  0  0  0  0  0  0  0  0  0  0  0
  184.8920  178.8930  140.2500 C   0  0  0  0  0  3  0  0  0  0  0  0
  185.5770  178.5010  143.6790 C   0  0  0  0  0  0  0  0  0  0  0  0
  184.1740  178.6260  146.0600 C   0  0  0  0  0  3  0  0  0  0  0  0
  186.0930  178.6890  139.6300 N   0  0  0  0  0  0  0  0  0  0  0  0
  184.2260  178.7850  143.6680 C   0  0  1  0  0  3  0  0  0  0  0  0
  183.4930  178.8550  144.8510 C   0  0  0  0  0  3  0  0  0  0  0  0
  188.4550  178.1970  139.6670 C   0  0  0  0  0  0  0  0  0  0  0  0
  188.5350  178.2930  138.2480 N   0  0  0  0  0  1  0  0  0  0  0  0
  188.3700  178.0040  142.4480 C   0  0  0  0  0  3  0  0  0  0  0  0
  185.5560  178.3360  146.0650 C   0  0  0  0  0  3  0  0  0  0  0  0
  184.8400  178.8020  141.6380 C   0  0  0  0  0  0  0  0  0  0  0  0
  183.7480  178.9750  142.4170 N   0  0  0  0  0  0  0  0  0  0  0  0
  189.5770  177.9120  140.3860 N   0  0  0  0  0  0  0  0  0  0  0  0
  186.2790  178.2710  144.8600 C   0  0  0  0  0  3  0  0  0  0  0  0
  189.5590  177.8050  141.7430 C   0  0  0  0  0  0  0  0  0  0  0  0
  187.2370  178.3980  140.3290 C   0  0  0  0  0  0  0  0  0  0  0  0
  190.8190  177.5200  142.4820 C   0  0  0  0  0  2  0  0  0  0  0  0
  190.7350  178.0650  143.8360 N   0  0  0  0  0  0  0  0  0  0  0  0
  191.7470  179.1130  143.9390 C   0  0  0  0  0  1  0  0  0  0  0  0
  189.6760  176.7170  145.5990 C   0  0  0  0  0  1  0  0  0  0  0  0
  190.9700  177.0180  144.8550 C   0  0  0  0  0  0  0  0  0  0  0  0
  191.8970  177.4770  145.7940 O   0  0  0  0  0  1  0  0  0  0  0  0
  191.4940  175.7160  144.2490 C   0  0  0  0  0  1  0  0  0  0  0  0
  1  4  2  0  0  0  0
  2  1  1  0  0  0  0
  2 11  1  0  0  0  0
  3 13  1  0  0  0  0
  4 16  1  0  0  0  0
  5 12  1  0  0  0  0
  6  3  2  0  0  0  0
  6 18  1  0  0  0  0
  7  4  1  0  0  0  0
  7  8  1  1  0  0  0
  8  5  2  0  0  0  0
  9 18  1  0  0  0  0
  9 15  2  0  0  0  0
 10  9  1  0  0  0  0
 13  1  1  0  0  0  0
 13 14  2  0  0  0  0
 14  7  1  0  0  0  0
 15 17  1  0  0  0  0
 16 12  2  0  0  0  0
 17 11  2  0  0  0  0
 17 19  1  0  0  0  0
 18  2  2  0  0  0  0
 19 20  1  0  0  0  0
 20 21  1  0  0  0  0
 20 23  1  0  0  0  0
 23 22  1  0  0  0  0
 23 24  1  0  0  0  0
 25 23  1  0  0  0  0
M  END
>  <MODEL>
5

>  <REMARK>
 VINA RESULT:     -10.0      2.464      4.968
  Name = 
  3 active torsions:
  status: ('A' for Active; 'I' for Inactive)
    1  A    between atoms: C_6  and  N_15
    2  A    between atoms: C_6  and  C_23
    3  A    between atoms: C_7  and  N_15
                            x       y       z     vdW  Elec       q    Type
                         _______ _______ _______ _____ _____    ______ ____

>  <TORSDO>
F 3

$$$$
=
 OpenBabel10262419463D

 25 28  0  0  1  0  0  0  0  0999 V2000
  189.4630  177.4380  143.9480 C   0  0  0  0  0  0  0  0  0  0  0  0
  188.7790  177.7890  142.7850 C   0  0  0  0  0  0  0  0  0  0  0  0
  191.3970  176.7600  142.6890 C   0  0  0  0  0  3  0  0  0  0  0  0
  189.1260  177.4760  145.2800 C   0  0  0  0  0  0  0  0  0  0  0  0
  189.0680  177.3010  148.0400 C   0  0  0  0  0  3  0  0  0  0  0  0
  190.7350  177.0990  141.5430 N   0  0  0  0  0  0  0  0  0  0  0  0
  190.2250  176.9930  145.9620 C   0  0  0  0  0  0  0  0  0  0  0  0
  190.2250  176.8930  147.3520 C   0  0  0  0  0  3  0  0  0  0  0  0
  188.8030  177.9390  140.3650 C   0  0  0  0  0  0  0  0  0  0  0  0
  189.4470  177.7630  139.1070 N   0  0  0  0  0  1  0  0  0  0  0  0
  187.4810  178.3010  142.7940 C   0  0  0  0  0  3  0  0  0  0  0  0
  187.9470  177.7930  147.3370 C   0  0  0  0  0  3  0  0  0  0  0  0
  190.7440  176.9330  143.9060 C   0  0  0  0  0  0  0  0  0  0  0  0
  191.2380  176.6510  145.1340 N   0  0  0  0  0  0  0  0  0  0  0  0
  187.5360  178.4350  140.4070 N   0  0  0  0  0  0  0  0  0  0  0  0
  187.9660  177.8860  145.9340 C   0  0  0  0  0  3  0  0  0  0  0  0
  186.8730  178.6280  141.5800 C   0  0  0  0  0  0  0  0  0  0  0  0
  189.4590  177.6030  141.5560 C   0  0  1  0  0  3  0  0  0  0  0  0
  185.4770  179.1460  141.5690 C   0  0  0  0  0  2  0  0  0  0  0  0
  184.6140  178.2680  142.3560 N   0  0  0  0  0  0  0  0  0  0  0  0
  183.5020  177.8770  141.4950 C   0  0  0  0  0  1  0  0  0  0  0  0
  182.5920  179.0020  143.5470 C   0  0  0  0  0  1  0  0  0  0  0  0
  184.1130  178.9490  143.5710 C   0  0  0  0  0  0  0  0  0  0  0  0
  184.5800  180.2660  143.5950 O   0  0  0  0  0  1  0  0  0  0  0  0
  184.5530  178.2530  144.8580 C   0  0  0  0  0  1  0  0  0  0  0  0
  1  4  1  0  0  0  0
  2 11  1  0  0  0  0
  2  1  2  0  0  0  0
  3 13  1  0  0  0  0
  4 16  2  0  0  0  0
  4  7  1  0  0  0  0
  6 18  1  0  0  0  0
  6  3  2  0  0  0  0
  7  8  2  0  0  0  0
  8  5  1  0  0  0  0
  9 15  2  0  0  0  0
 10  9  1  0  0  0  0
 12  5  2  0  0  0  0
 13  1  1  0  0  0  0
 13 14  2  0  0  0  0
 14  7  1  0  0  0  0
 15 17  1  0  0  0  0
 16 12  1  0  0  0  0
 17 11  2  0  0  0  0
 18  9  1  6  0  0  0
 18  2  1  0  0  0  0
 19 17  1  0  0  0  0
 19 20  1  0  0  0  0
 20 23  1  0  0  0  0
 21 20  1  0  0  0  0
 22 23  1  0  0  0  0
 23 24  1  0  0  0  0
 23 25  1  0  0  0  0
M  END
>  <MODEL>
6

>  <REMARK>
 VINA RESULT:      -9.9      2.412      6.030
  Name = 
  3 active torsions:
  status: ('A' for Active; 'I' for Inactive)
    1  A    between atoms: C_6  and  N_15
    2  A    between atoms: C_6  and  C_23
    3  A    between atoms: C_7  and  N_15
                            x       y       z     vdW  Elec       q    Type
                         _______ _______ _______ _____ _____    ______ ____

>  <TORSDO>
F 3

$$$$
=
 OpenBabel10262419463D

 25 28  0  0  0  0  0  0  0  0999 V2000
  187.2720  177.9020  144.0470 C   0  0  0  0  0  0  0  0  0  0  0  0
  188.2360  177.7990  143.0460 C   0  0  0  0  0  0  0  0  0  0  0  0
  188.8190  177.1130  145.7120 C   0  0  0  0  0  3  0  0  0  0  0  0
  185.9580  178.3010  144.0450 C   0  0  0  0  0  0  0  0  0  0  0  0
  183.3520  178.9640  144.6970 C   0  0  0  0  0  3  0  0  0  0  0  0
  189.7710  177.0070  144.7370 N   0  0  0  0  0  0  0  0  0  0  0  0
  185.5230  178.1840  145.3500 C   0  0  0  0  0  0  0  0  0  0  0  0
  184.2170  178.5100  145.7080 C   0  0  0  0  0  3  0  0  0  0  0  0
  190.5110  177.2100  142.4490 C   0  0  0  0  0  0  0  0  0  0  0  0
  191.8120  176.7400  142.7890 N   0  0  0  0  0  1  0  0  0  0  0  0
  187.9830  178.1280  141.7130 C   0  0  0  0  0  2  0  0  0  0  0  0
  183.8020  179.0810  143.3630 C   0  0  0  0  0  3  0  0  0  0  0  0
  187.5530  177.5670  145.3540 C   0  0  0  0  0  0  0  0  0  0  0  0
  186.4930  177.7320  146.1790 N   0  0  0  0  0  0  0  0  0  0  0  0
  190.2320  177.5390  141.1570 N   0  0  0  0  0  0  0  0  0  0  0  0
  185.1240  178.7460  143.0210 C   0  0  0  0  0  3  0  0  0  0  0  0
  189.0090  177.9960  140.7750 C   0  0  0  0  0  0  0  0  0  0  0  0
  189.5180  177.3330  143.4290 C   0  0  0  0  0  0  0  0  0  0  0  0
  188.7470  178.3140  139.3440 C   0  0  0  0  0  2  0  0  0  0  0  0
  187.9160  177.2700  138.7470 N   0  0  0  0  0  0  0  0  0  0  0  0
  188.8050  176.4070  137.9740 C   0  0  0  0  0  1  0  0  0  0  0  0
  187.5060  178.7000  136.7900 C   0  0  0  0  0  1  0  0  0  0  0  0
  186.8680  177.8460  137.8760 C   0  0  0  0  0  0  0  0  0  0  0  0
  186.0360  178.6760  138.6310 O   0  0  0  0  0  1  0  0  0  0  0  0
  186.0070  176.7740  137.2060 C   0  0  0  0  0  1  0  0  0  0  0  0
  1 13  1  0  0  0  0
  2 18  1  0  0  0  0
  2  1  2  0  0  0  0
  4  1  1  0  0  0  0
  4  7  1  0  0  0  0
  5  8  1  0  0  0  0
  6  3  2  0  0  0  0
  7  8  2  0  0  0  0
  7 14  1  0  0  0  0
  9 10  1  0  0  0  0
  9 18  2  0  0  0  0
 11  2  1  0  0  0  0
 12  5  2  0  0  0  0
 13  3  1  0  0  0  0
 13 14  2  0  0  0  0
 15  9  1  0  0  0  0
 16 12  1  0  0  0  0
 16  4  2  0  0  0  0
 17 15  2  0  0  0  0
 17 11  1  0  0  0  0
 18  6  1  0  0  0  0
 19 17  1  0  0  0  0
 20 19  1  0  0  0  0
 21 20  1  0  0  0  0
 22 23  1  0  0  0  0
 23 24  1  0  0  0  0
 23 20  1  0  0  0  0
 25 23  1  0  0  0  0
M  END
>  <MODEL>
7

>  <REMARK>
 VINA RESULT:      -9.6      2.156      3.202
  Name = 
  3 active torsions:
  status: ('A' for Active; 'I' for Inactive)
    1  A    between atoms: C_6  and  N_15
    2  A    between atoms: C_6  and  C_23
    3  A    between atoms: C_7  and  N_15
                            x       y       z     vdW  Elec       q    Type
                         _______ _______ _______ _____ _____    ______ ____

>  <TORSDO>
F 3

$$$$
=
 OpenBabel10262419463D

 25 28  0  0  1  0  0  0  0  0999 V2000
  187.6610  177.7220  144.7890 C   0  0  0  0  0  0  0  0  0  0  0  0
  186.4670  178.0760  144.1620 C   0  0  2  0  0  3  0  0  0  0  0  0
  186.7080  178.0960  146.9660 C   0  0  0  0  0  3  0  0  0  0  0  0
  188.8850  177.3210  144.3130 C   0  0  0  0  0  0  0  0  0  0  0  0
  191.5060  176.4910  144.0080 C   0  0  0  0  0  3  0  0  0  0  0  0
  185.5340  178.4480  146.3620 N   0  0  0  0  0  0  0  0  0  0  0  0
  189.6750  177.1120  145.4250 C   0  0  0  0  0  0  0  0  0  0  0  0
  190.9980  176.6940  145.3040 C   0  0  0  0  0  3  0  0  0  0  0  0
  184.1700  178.8160  144.4050 C   0  0  0  0  0  0  0  0  0  0  0  0
  183.0590  179.2030  145.2070 N   0  0  0  0  0  1  0  0  0  0  0  0
  186.3100  178.0790  142.7760 C   0  0  0  0  0  3  0  0  0  0  0  0
  190.6950  176.7080  142.8730 C   0  0  0  0  0  3  0  0  0  0  0  0
  187.7840  177.7300  146.1610 C   0  0  0  0  0  0  0  0  0  0  0  0
  189.0150  177.3570  146.5810 N   0  0  0  0  0  0  0  0  0  0  0  0
  184.0500  178.8100  143.0480 N   0  0  0  0  0  0  0  0  0  0  0  0
  189.3610  177.1310  143.0170 C   0  0  0  0  0  3  0  0  0  0  0  0
  185.0770  178.4470  142.2320 C   0  0  0  0  0  0  0  0  0  0  0  0
  185.3850  178.4480  144.9980 C   0  0  0  0  0  0  0  0  0  0  0  0
  184.9020  178.4850  140.7540 C   0  0  0  0  0  2  0  0  0  0  0  0
  183.4790  178.5200  140.4230 N   0  0  0  0  0  0  0  0  0  0  0  0
  183.0550  177.1390  140.2150 C   0  0  0  0  0  1  0  0  0  0  0  0
  183.2340  178.4320  137.9780 C   0  0  0  0  0  1  0  0  0  0  0  0
  183.2270  179.3280  139.2080 C   0  0  0  0  0  0  0  0  0  0  0  0
  184.2490  180.2670  139.0500 O   0  0  0  0  0  1  0  0  0  0  0  0
  181.8900  180.0670  139.2620 C   0  0  0  0  0  1  0  0  0  0  0  0
  1 13  1  0  0  0  0
  2 11  1  6  0  0  0
  2  1  1  0  0  0  0
  2 18  1  0  0  0  0
  4  1  2  0  0  0  0
  4  7  1  0  0  0  0
  5  8  2  0  0  0  0
  6  3  1  0  0  0  0
  7 14  2  0  0  0  0
  8  7  1  0  0  0  0
  9 18  1  0  0  0  0
  9 10  1  0  0  0  0
 12 16  2  0  0  0  0
 12  5  1  0  0  0  0
 13 14  1  0  0  0  0
 13  3  2  0  0  0  0
 15  9  2  0  0  0  0
 16  4  1  0  0  0  0
 17 11  2  0  0  0  0
 17 15  1  0  0  0  0
 18  6  2  0  0  0  0
 19 17  1  0  0  0  0
 20 19  1  0  0  0  0
 21 20  1  0  0  0  0
 22 23  1  0  0  0  0
 23 25  1  0  0  0  0
 23 20  1  0  0  0  0
 24 23  1  0  0  0  0
M  END
>  <MODEL>
8

>  <REMARK>
 VINA RESULT:      -9.5      3.107      6.011
  Name = 
  3 active torsions:
  status: ('A' for Active; 'I' for Inactive)
    1  A    between atoms: C_6  and  N_15
    2  A    between atoms: C_6  and  C_23
    3  A    between atoms: C_7  and  N_15
                            x       y       z     vdW  Elec       q    Type
                         _______ _______ _______ _____ _____    ______ ____

>  <TORSDO>
F 3

$$$$
=
 OpenBabel10262419463D

 25 28  0  0  1  0  0  0  0  0999 V2000
  185.8650  178.5350  141.6610 C   0  0  0  0  0  0  0  0  0  0  0  0
  187.1400  178.3310  141.1360 C   0  0  0  0  0  0  0  0  0  0  0  0
  184.9230  178.7710  139.4600 C   0  0  0  0  0  3  0  0  0  0  0  0
  185.3760  178.5790  142.9440 C   0  0  0  0  0  0  0  0  0  0  0  0
  183.8080  178.7820  145.2130 C   0  0  0  0  0  3  0  0  0  0  0  0
  186.1700  178.5750  138.9350 N   0  0  0  0  0  0  0  0  0  0  0  0
  184.0220  178.8190  142.8260 C   0  0  1  0  0  3  0  0  0  0  0  0
  183.2070  178.9260  143.9500 C   0  0  0  0  0  3  0  0  0  0  0  0
  188.5370  178.1620  139.1610 C   0  0  0  0  0  0  0  0  0  0  0  0
  188.7130  178.1870  137.7470 N   0  0  0  0  0  1  0  0  0  0  0  0
  188.2630  178.1110  141.9360 C   0  0  0  0  0  3  0  0  0  0  0  0
  185.1940  178.5380  145.3280 C   0  0  0  0  0  3  0  0  0  0  0  0
  184.7770  178.7510  140.8440 C   0  0  0  0  0  0  0  0  0  0  0  0
  183.6270  178.9290  141.5360 N   0  0  0  0  0  0  0  0  0  0  0  0
  189.6130  177.9510  139.9690 N   0  0  0  0  0  0  0  0  0  0  0  0
  186.0000  178.4340  144.1810 C   0  0  0  0  0  3  0  0  0  0  0  0
  189.5030  177.9130  141.3250 C   0  0  0  0  0  0  0  0  0  0  0  0
  187.2690  178.3570  139.7260 C   0  0  0  0  0  0  0  0  0  0  0  0
  190.7160  177.7080  142.1640 C   0  0  0  0  0  2  0  0  0  0  0  0
  190.4270  178.0650  143.5520 N   0  0  0  0  0  0  0  0  0  0  0  0
  191.4150  179.0640  143.9510 C   0  0  0  0  0  1  0  0  0  0  0  0
  190.9130  175.6560  143.6390 C   0  0  0  0  0  1  0  0  0  0  0  0
  190.4990  176.8830  144.4390 C   0  0  0  0  0  0  0  0  0  0  0  0
  189.2370  176.6260  144.9800 O   0  0  0  0  0  1  0  0  0  0  0  0
  191.4910  177.0710  145.5870 C   0  0  0  0  0  1  0  0  0  0  0  0
  1  4  2  0  0  0  0
  2  1  1  0  0  0  0
  2 11  1  0  0  0  0
  3 13  1  0  0  0  0
  4 16  1  0  0  0  0
  5 12  1  0  0  0  0
  6  3  2  0  0  0  0
  6 18  1  0  0  0  0
  7  4  1  0  0  0  0
  7  8  1  1  0  0  0
  8  5  2  0  0  0  0
  9 18  1  0  0  0  0
  9 15  2  0  0  0  0
 10  9  1  0  0  0  0
 13 14  2  0  0  0  0
 13  1  1  0  0  0  0
 14  7  1  0  0  0  0
 15 17  1  0  0  0  0
 16 12  2  0  0  0  0
 17 11  2  0  0  0  0
 17 19  1  0  0  0  0
 18  2  2  0  0  0  0
 19 20  1  0  0  0  0
 20 21  1  0  0  0  0
 20 23  1  0  0  0  0
 22 23  1  0  0  0  0
 23 24  1  0  0  0  0
 23 25  1  0  0  0  0
M  END
>  <MODEL>
9

>  <REMARK>
 VINA RESULT:      -9.4      2.564      5.193
  Name = 
  3 active torsions:
  status: ('A' for Active; 'I' for Inactive)
    1  A    between atoms: C_6  and  N_15
    2  A    between atoms: C_6  and  C_23
    3  A    between atoms: C_7  and  N_15
                            x       y       z     vdW  Elec       q    Type
                         _______ _______ _______ _____ _____    ______ ____

>  <TORSDO>
F 3

$$$$
