=
 OpenBabel10262421503D

 30 35  0  0  1  0  0  0  0  0999 V2000
  182.6010  178.5480  142.3990 C   0  0  2  0  0  3  0  0  0  0  0  0
  184.4560  178.4750  144.0940 C   0  0  0  0  0  0  0  0  0  0  0  0
  185.5490  178.9960  139.1900 C   0  0  0  0  0  2  0  0  0  0  0  0
  182.4540  177.9260  140.9840 C   0  0  1  0  0  3  0  0  0  0  0  0
  181.5580  179.6270  142.6450 C   0  0  0  0  0  2  0  0  0  0  0  0
  178.9310  177.3160  141.5980 O   0  0  0  0  0  0  0  0  0  0  0  0
  181.4480  176.6820  138.3280 N   0  0  0  0  0  0  0  0  0  0  0  0
  179.9570  177.9820  141.6070 C   0  0  0  0  0  0  0  0  0  0  0  0
  182.4110  177.6940  137.8970 C   0  0  2  0  0  3  0  0  0  0  0  0
  184.7510  178.2450  138.1460 C   0  0  1  0  0  3  0  0  0  0  0  0
  180.1720  178.9930  142.7120 C   0  0  2  0  0  3  0  0  0  0  0  0
  180.9870  177.8150  140.5070 C   0  0  2  0  0  3  0  0  0  0  0  0
  185.7510  177.8780  144.2250 N   0  0  0  0  0  0  0  0  0  0  0  0
  182.7630  177.2570  136.5870 O   0  0  0  0  0  0  0  0  0  0  0  0
  181.2700  175.7660  137.2560 C   0  0  0  0  0  3  0  0  0  0  0  0
  183.7100  178.5630  145.1050 O   0  0  0  0  0  0  0  0  0  0  0  0
  184.5660  179.2990  140.3020 C   0  0  1  0  0  3  0  0  0  0  0  0
  186.5650  177.7710  143.2200 C   0  0  0  0  0  3  0  0  0  0  0  0
  184.0050  179.0480  142.7740 C   0  0  1  0  0  3  0  0  0  0  0  0
  183.2610  178.6290  139.8760 C   0  0  1  0  0  3  0  0  0  0  0  0
  185.6100  177.1240  137.5870 C   0  0  0  0  0  1  0  0  0  0  0  0
  183.5670  177.6900  138.8010 N   0  0  1  0  0  0  0  0  0  0  0  0
  182.0480  176.1150  136.2490 C   0  0  0  0  0  3  0  0  0  0  0  0
  181.1050  175.2910  140.3210 C   0  0  0  0  0  1  0  0  0  0  0  0
  186.1880  178.2530  141.8830 C   0  0  0  0  0  3  0  0  0  0  0  0
  185.0010  178.8340  141.6630 C   0  0  0  0  0  0  0  0  0  0  0  0
  180.7440  176.5900  139.6090 C   0  0  2  0  0  3  0  0  0  0  0  0
  179.1240  180.0930  142.6610 C   0  0  0  0  0  2  0  0  0  0  0  0
  178.9310  181.4640  140.9440 C   0  0  0  0  0  1  0  0  0  0  0  0
  179.6690  181.2520  142.1070 O   0  0  0  0  0  0  0  0  0  0  0  0
  1  5  1  6  0  0  0
  1 19  1  0  0  0  0
  2 13  1  0  0  0  0
  2 16  2  0  0  0  0
  3 17  1  0  0  0  0
  4  1  1  0  0  0  0
  5 11  1  0  0  0  0
  6  8  2  0  0  0  0
  7 27  1  0  0  0  0
  8 11  1  0  0  0  0
  9  7  1  0  0  0  0
  9 22  1  0  0  0  0
 10 22  1  0  0  0  0
 10  3  1  0  0  0  0
 12  4  1  0  0  0  0
 12  8  1  0  0  0  0
 14  9  1  0  0  0  0
 15  7  1  0  0  0  0
 17 26  1  0  0  0  0
 18 13  2  0  0  0  0
 19  2  1  0  0  0  0
 20 17  1  0  0  0  0
 20  4  1  0  0  0  0
 21 10  1  0  0  0  0
 22 20  1  0  0  0  0
 23 14  1  0  0  0  0
 23 15  2  0  0  0  0
 25 18  1  0  0  0  0
 26 25  2  0  0  0  0
 26 19  1  0  0  0  0
 27 24  1  0  0  0  0
 27 12  1  0  0  0  0
 28 11  1  0  0  0  0
 29 30  1  0  0  0  0
 30 28  1  0  0  0  0
M  END
>  <MODEL>
1

>  <REMARK>
 VINA RESULT:      -6.2      0.000      0.000
  Name = 
  2 active torsions:
  status: ('A' for Active; 'I' for Inactive)
    1  A    between atoms: C_9  and  C_12
    2  A    between atoms: C_9  and  O_21
                            x       y       z     vdW  Elec       q    Type
                         _______ _______ _______ _____ _____    ______ ____

>  <TORSDO>
F 2

$$$$
=
 OpenBabel10262421503D

 30 35  0  0  1  0  0  0  0  0999 V2000
  190.2050  176.9670  138.3480 C   0  0  2  0  0  3  0  0  0  0  0  0
  188.2060  178.1280  137.3620 C   0  0  0  0  0  0  0  0  0  0  0  0
  189.0780  173.2720  136.2840 C   0  0  0  0  0  2  0  0  0  0  0  0
  191.2200  175.9520  137.7570 C   0  0  1  0  0  3  0  0  0  0  0  0
  190.2800  177.0100  139.8660 C   0  0  0  0  0  2  0  0  0  0  0  0
  193.8950  177.4850  139.6680 O   0  0  0  0  0  0  0  0  0  0  0  0
  193.7030  174.2300  137.0610 N   0  0  0  0  0  0  0  0  0  0  0  0
  192.7730  177.0260  139.5070 C   0  0  0  0  0  0  0  0  0  0  0  0
  192.6130  173.2580  137.1310 C   0  0  2  0  0  3  0  0  0  0  0  0
  190.4930  172.7780  136.0730 C   0  0  1  0  0  3  0  0  0  0  0  0
  191.6190  177.6030  140.2960 C   0  0  2  0  0  3  0  0  0  0  0  0
  192.5480  175.8750  138.5460 C   0  0  2  0  0  3  0  0  0  0  0  0
  187.5310  178.1920  136.1000 N   0  0  0  0  0  0  0  0  0  0  0  0
  193.1180  172.1620  136.3730 O   0  0  0  0  0  0  0  0  0  0  0  0
  194.7650  173.6400  136.3240 C   0  0  0  0  0  3  0  0  0  0  0  0
  188.3010  179.1680  138.0650 O   0  0  0  0  0  0  0  0  0  0  0  0
  189.1880  174.3730  137.3170 C   0  0  1  0  0  3  0  0  0  0  0  0
  187.3940  177.1500  135.3380 C   0  0  0  0  0  3  0  0  0  0  0  0
  188.7500  176.8190  137.8750 C   0  0  1  0  0  3  0  0  0  0  0  0
  190.6850  174.5160  137.5900 C   0  0  1  0  0  3  0  0  0  0  0  0
  190.7020  172.5070  134.5940 C   0  0  0  0  0  1  0  0  0  0  0  0
  191.4050  173.8290  136.5230 N   0  0  1  0  0  0  0  0  0  0  0  0
  194.4050  172.4340  135.9260 C   0  0  0  0  0  3  0  0  0  0  0  0
  193.9220  176.6210  136.5520 C   0  0  0  0  0  1  0  0  0  0  0  0
  187.9410  175.8440  135.7340 C   0  0  0  0  0  3  0  0  0  0  0  0
  188.5800  175.6830  136.9000 C   0  0  0  0  0  0  0  0  0  0  0  0
  193.7580  175.5710  137.6450 C   0  0  2  0  0  3  0  0  0  0  0  0
  191.8040  177.3710  141.7870 C   0  0  0  0  0  2  0  0  0  0  0  0
  191.0480  176.0380  143.3740 C   0  0  0  0  0  1  0  0  0  0  0  0
  190.6240  176.8820  142.3490 O   0  0  0  0  0  0  0  0  0  0  0  0
  1  5  1  1  0  0  0
  2 19  1  0  0  0  0
  2 16  2  0  0  0  0
  3 17  1  0  0  0  0
  4  1  1  0  0  0  0
  4 12  1  0  0  0  0
  5 11  1  0  0  0  0
  7  9  1  0  0  0  0
  7 27  1  0  0  0  0
  8  6  2  0  0  0  0
  8 11  1  0  0  0  0
 10  3  1  0  0  0  0
 10 22  1  0  0  0  0
 11 28  1  0  0  0  0
 12  8  1  0  0  0  0
 13  2  1  0  0  0  0
 14  9  1  0  0  0  0
 15  7  1  0  0  0  0
 17 20  1  0  0  0  0
 18 25  1  0  0  0  0
 18 13  2  0  0  0  0
 19  1  1  0  0  0  0
 20  4  1  0  0  0  0
 21 10  1  0  0  0  0
 22  9  1  0  0  0  0
 22 20  1  0  0  0  0
 23 15  2  0  0  0  0
 23 14  1  0  0  0  0
 24 27  1  0  0  0  0
 25 26  2  0  0  0  0
 26 17  1  0  0  0  0
 26 19  1  0  0  0  0
 27 12  1  0  0  0  0
 28 30  1  0  0  0  0
 30 29  1  0  0  0  0
M  END
>  <MODEL>
2

>  <REMARK>
 VINA RESULT:      -5.8      7.229     10.562
  Name = 
  2 active torsions:
  status: ('A' for Active; 'I' for Inactive)
    1  A    between atoms: C_9  and  C_12
    2  A    between atoms: C_9  and  O_21
                            x       y       z     vdW  Elec       q    Type
                         _______ _______ _______ _____ _____    ______ ____

>  <TORSDO>
F 2

$$$$
=
 OpenBabel10262421503D

 30 35  0  0  1  0  0  0  0  0999 V2000
  184.6330  178.5230  139.8310 C   0  0  2  0  0  3  0  0  0  0  0  0
  185.3690  178.7280  142.2250 C   0  0  0  0  0  0  0  0  0  0  0  0
  188.8020  178.0070  138.5920 C   0  0  0  0  0  2  0  0  0  0  0  0
  185.0920  177.5960  138.6730 C   0  0  1  0  0  3  0  0  0  0  0  0
  183.8140  179.6950  139.3150 C   0  0  0  0  0  2  0  0  0  0  0  0
  181.6790  177.3830  137.4650 O   0  0  0  0  0  0  0  0  0  0  0  0
  185.3190  175.8320  136.1330 N   0  0  0  0  0  0  0  0  0  0  0  0
  182.6670  177.9630  137.8910 C   0  0  0  0  0  0  0  0  0  0  0  0
  186.5310  176.6480  136.1000 C   0  0  2  0  0  3  0  0  0  0  0  0
  188.5020  177.0860  137.4290 C   0  0  1  0  0  3  0  0  0  0  0  0
  182.4870  179.1880  138.7600 C   0  0  2  0  0  3  0  0  0  0  0  0
  184.0560  177.4740  137.5320 C   0  0  2  0  0  3  0  0  0  0  0  0
  186.3030  178.0950  143.1070 N   0  0  0  0  0  0  0  0  0  0  0  0
  187.3980  175.8930  135.2580 O   0  0  0  0  0  0  0  0  0  0  0  0
  185.5310  174.7030  135.2950 C   0  0  0  0  0  3  0  0  0  0  0  0
  184.2520  179.1000  142.6720 O   0  0  0  0  0  0  0  0  0  0  0  0
  187.4720  178.6280  138.9640 C   0  0  1  0  0  3  0  0  0  0  0  0
  187.4730  177.7000  142.7040 C   0  0  0  0  0  3  0  0  0  0  0  0
  185.7350  179.0030  140.7880 C   0  0  1  0  0  3  0  0  0  0  0  0
  186.4500  177.9640  138.0430 C   0  0  1  0  0  3  0  0  0  0  0  0
  189.3100  175.8110  137.5940 C   0  0  0  0  0  1  0  0  0  0  0  0
  187.0720  176.7800  137.4580 N   0  0  1  0  0  0  0  0  0  0  0  0
  186.7520  174.7530  134.7950 C   0  0  0  0  0  3  0  0  0  0  0  0
  183.8000  174.9750  137.8610 C   0  0  0  0  0  1  0  0  0  0  0  0
  187.8930  177.8780  141.3060 C   0  0  0  0  0  3  0  0  0  0  0  0
  187.0920  178.4680  140.4090 C   0  0  0  0  0  0  0  0  0  0  0  0
  184.0730  176.0900  136.8580 C   0  0  2  0  0  3  0  0  0  0  0  0
  181.8130  180.3120  137.9890 C   0  0  0  0  0  2  0  0  0  0  0  0
  181.1770  182.4240  137.9680 C   0  0  0  0  0  1  0  0  0  0  0  0
  181.9990  181.5280  138.6490 O   0  0  0  0  0  0  0  0  0  0  0  0
  1  5  1  6  0  0  0
  1 19  1  0  0  0  0
  2 16  2  0  0  0  0
  2 13  1  0  0  0  0
  3 17  1  0  0  0  0
  4  1  1  0  0  0  0
  6  8  2  0  0  0  0
  7 27  1  0  0  0  0
  8 11  1  0  0  0  0
  9  7  1  0  0  0  0
  9 22  1  0  0  0  0
 10 22  1  0  0  0  0
 10 21  1  0  0  0  0
 10  3  1  0  0  0  0
 11  5  1  0  0  0  0
 12  8  1  0  0  0  0
 12  4  1  0  0  0  0
 14  9  1  0  0  0  0
 15  7  1  0  0  0  0
 17 26  1  0  0  0  0
 18 13  2  0  0  0  0
 19  2  1  0  0  0  0
 20  4  1  0  0  0  0
 20 17  1  0  0  0  0
 22 20  1  0  0  0  0
 23 14  1  0  0  0  0
 23 15  2  0  0  0  0
 25 18  1  0  0  0  0
 26 19  1  0  0  0  0
 26 25  2  0  0  0  0
 27 12  1  0  0  0  0
 27 24  1  0  0  0  0
 28 30  1  0  0  0  0
 28 11  1  0  0  0  0
 29 30  1  0  0  0  0
M  END
>  <MODEL>
3

>  <REMARK>
 VINA RESULT:      -5.7      2.897      3.861
  Name = 
  2 active torsions:
  status: ('A' for Active; 'I' for Inactive)
    1  A    between atoms: C_9  and  C_12
    2  A    between atoms: C_9  and  O_21
                            x       y       z     vdW  Elec       q    Type
                         _______ _______ _______ _____ _____    ______ ____

>  <TORSDO>
F 2

$$$$
=
 OpenBabel10262421503D

 30 35  0  0  1  0  0  0  0  0999 V2000
  188.8200  177.6120  146.5130 C   0  0  2  0  0  3  0  0  0  0  0  0
  187.1690  178.8130  147.9800 C   0  0  0  0  0  0  0  0  0  0  0  0
  185.8110  177.3450  143.3420 C   0  0  0  0  0  2  0  0  0  0  0  0
  189.1370  177.7140  144.9970 C   0  0  1  0  0  3  0  0  0  0  0  0
  189.4120  176.3520  147.1230 C   0  0  0  0  0  2  0  0  0  0  0  0
  192.6600  177.1860  145.6800 O   0  0  0  0  0  0  0  0  0  0  0  0
  190.4410  177.7150  142.1840 N   0  0  0  0  0  0  0  0  0  0  0  0
  191.4650  176.9570  145.7950 C   0  0  0  0  0  0  0  0  0  0  0  0
  189.1660  177.0310  141.9770 C   0  0  2  0  0  3  0  0  0  0  0  0
  186.7930  177.4370  142.1930 C   0  0  1  0  0  3  0  0  0  0  0  0
  190.9350  176.4460  147.1170 C   0  0  2  0  0  3  0  0  0  0  0  0
  190.5300  177.1590  144.6190 C   0  0  2  0  0  3  0  0  0  0  0  0
  186.1800  179.8400  147.8450 N   0  0  0  0  0  0  0  0  0  0  0  0
  188.9540  177.1740  140.5750 O   0  0  0  0  0  0  0  0  0  0  0  0
  190.9040  178.1640  140.9170 C   0  0  0  0  0  3  0  0  0  0  0  0
  187.8640  178.7580  149.0280 O   0  0  0  0  0  0  0  0  0  0  0  0
  186.6530  177.0430  144.5640 C   0  0  1  0  0  3  0  0  0  0  0  0
  185.4280  179.9390  146.7910 C   0  0  0  0  0  3  0  0  0  0  0  0
  187.3420  177.7690  146.9050 C   0  0  1  0  0  3  0  0  0  0  0  0
  188.0970  177.0580  144.0680 C   0  0  1  0  0  3  0  0  0  0  0  0
  186.3780  178.5820  141.2850 C   0  0  0  0  0  1  0  0  0  0  0  0
  188.1170  177.6990  142.7570 N   0  0  1  0  0  0  0  0  0  0  0  0
  190.0210  177.8430  139.9900 C   0  0  0  0  0  3  0  0  0  0  0  0
  191.3230  179.3980  143.7370 C   0  0  0  0  0  1  0  0  0  0  0  0
  185.5650  178.9970  145.6700 C   0  0  0  0  0  3  0  0  0  0  0  0
  186.4560  177.9970  145.7080 C   0  0  0  0  0  0  0  0  0  0  0  0
  191.1700  177.9110  143.4390 C   0  0  2  0  0  3  0  0  0  0  0  0
  191.5140  175.0800  147.4480 C   0  0  0  0  0  2  0  0  0  0  0  0
  192.9840  175.9070  148.8700 C   0  0  0  0  0  1  0  0  0  0  0  0
  192.8860  175.1830  147.6830 O   0  0  0  0  0  0  0  0  0  0  0  0
  1 19  1  0  0  0  0
  1  5  1  6  0  0  0
  2 16  2  0  0  0  0
  3 17  1  0  0  0  0
  4  1  1  0  0  0  0
  6  8  2  0  0  0  0
  7 27  1  0  0  0  0
  8 11  1  0  0  0  0
  9  7  1  0  0  0  0
  9 22  1  0  0  0  0
 10 22  1  0  0  0  0
 10  3  1  0  0  0  0
 11  5  1  0  0  0  0
 11 28  1  0  0  0  0
 12  4  1  0  0  0  0
 12  8  1  0  0  0  0
 13  2  1  0  0  0  0
 14  9  1  0  0  0  0
 15  7  1  0  0  0  0
 17 26  1  0  0  0  0
 18 13  2  0  0  0  0
 19  2  1  0  0  0  0
 20 17  1  0  0  0  0
 20  4  1  0  0  0  0
 21 10  1  0  0  0  0
 22 20  1  0  0  0  0
 23 14  1  0  0  0  0
 23 15  2  0  0  0  0
 25 26  2  0  0  0  0
 25 18  1  0  0  0  0
 26 19  1  0  0  0  0
 27 24  1  0  0  0  0
 27 12  1  0  0  0  0
 28 30  1  0  0  0  0
 30 29  1  0  0  0  0
M  END
>  <MODEL>
4

>  <REMARK>
 VINA RESULT:      -5.7      5.599      9.195
  Name = 
  2 active torsions:
  status: ('A' for Active; 'I' for Inactive)
    1  A    between atoms: C_9  and  C_12
    2  A    between atoms: C_9  and  O_21
                            x       y       z     vdW  Elec       q    Type
                         _______ _______ _______ _____ _____    ______ ____

>  <TORSDO>
F 2

$$$$
=
 OpenBabel10262421503D

 30 35  0  0  1  0  0  0  0  0999 V2000
  183.7740  178.3690  138.2490 C   0  0  2  0  0  3  0  0  0  0  0  0
  182.4230  180.3670  138.9540 C   0  0  0  0  0  0  0  0  0  0  0  0
  180.5930  175.7150  139.6700 C   0  0  0  0  0  2  0  0  0  0  0  0
  183.3820  177.0310  137.5660 C   0  0  1  0  0  3  0  0  0  0  0  0
  185.1670  178.2970  138.8560 C   0  0  0  0  0  2  0  0  0  0  0  0
  186.4810  177.0640  135.6800 O   0  0  0  0  0  0  0  0  0  0  0  0
  183.2800  174.3960  135.9350 N   0  0  0  0  0  0  0  0  0  0  0  0
  185.7970  177.1820  136.6880 C   0  0  0  0  0  0  0  0  0  0  0  0
  182.6870  174.0330  137.2210 C   0  0  2  0  0  3  0  0  0  0  0  0
  180.8200  174.6360  138.6330 C   0  0  1  0  0  3  0  0  0  0  0  0
  186.2050  178.1850  137.7440 C   0  0  2  0  0  3  0  0  0  0  0  0
  184.5710  176.3130  136.8860 C   0  0  2  0  0  3  0  0  0  0  0  0
  181.0580  180.7980  138.9020 N   0  0  0  0  0  0  0  0  0  0  0  0
  181.9320  172.8670  136.9040 O   0  0  0  0  0  0  0  0  0  0  0  0
  182.8800  173.4200  134.9810 C   0  0  0  0  0  3  0  0  0  0  0  0
  183.3440  181.2100  138.7870 O   0  0  0  0  0  0  0  0  0  0  0  0
  181.8280  176.5890  139.6160 C   0  0  1  0  0  3  0  0  0  0  0  0
  180.0690  179.9750  139.0770 C   0  0  0  0  0  3  0  0  0  0  0  0
  182.7640  178.9310  139.2610 C   0  0  1  0  0  3  0  0  0  0  0  0
  182.6750  176.0130  138.4830 C   0  0  1  0  0  3  0  0  0  0  0  0
  179.5140  174.3730  137.9060 C   0  0  0  0  0  1  0  0  0  0  0  0
  181.8280  175.1260  137.6930 N   0  0  1  0  0  0  0  0  0  0  0  0
  182.0910  172.5370  135.5640 C   0  0  0  0  0  3  0  0  0  0  0  0
  183.5000  176.4400  134.5940 C   0  0  0  0  0  1  0  0  0  0  0  0
  180.3070  178.5460  139.3280 C   0  0  0  0  0  3  0  0  0  0  0  0
  181.5500  178.0510  139.4030 C   0  0  0  0  0  0  0  0  0  0  0  0
  184.1530  175.5310  135.6280 C   0  0  2  0  0  3  0  0  0  0  0  0
  187.5480  177.8200  138.3580 C   0  0  0  0  0  2  0  0  0  0  0  0
  189.0260  179.0080  137.2310 C   0  0  0  0  0  1  0  0  0  0  0  0
  188.3570  178.9530  138.4530 O   0  0  0  0  0  0  0  0  0  0  0  0
  1  5  1  1  0  0  0
  1 19  1  0  0  0  0
  2 19  1  0  0  0  0
  4  1  1  0  0  0  0
  4 20  1  0  0  0  0
  6  8  2  0  0  0  0
  7  9  1  0  0  0  0
  8 12  1  0  0  0  0
  8 11  1  0  0  0  0
  9 22  1  0  0  0  0
 10  3  1  0  0  0  0
 11 28  1  0  0  0  0
 11  5  1  0  0  0  0
 12  4  1  0  0  0  0
 13  2  1  0  0  0  0
 13 18  2  0  0  0  0
 14  9  1  0  0  0  0
 15 23  2  0  0  0  0
 15  7  1  0  0  0  0
 16  2  2  0  0  0  0
 17  3  1  0  0  0  0
 18 25  1  0  0  0  0
 19 26  1  0  0  0  0
 20 17  1  0  0  0  0
 21 10  1  0  0  0  0
 22 20  1  0  0  0  0
 22 10  1  0  0  0  0
 23 14  1  0  0  0  0
 24 27  1  0  0  0  0
 25 26  2  0  0  0  0
 26 17  1  0  0  0  0
 27  7  1  0  0  0  0
 27 12  1  0  0  0  0
 28 30  1  0  0  0  0
 29 30  1  0  0  0  0
M  END
>  <MODEL>
5

>  <REMARK>
 VINA RESULT:      -5.5      3.487      6.264
  Name = 
  2 active torsions:
  status: ('A' for Active; 'I' for Inactive)
    1  A    between atoms: C_9  and  C_12
    2  A    between atoms: C_9  and  O_21
                            x       y       z     vdW  Elec       q    Type
                         _______ _______ _______ _____ _____    ______ ____

>  <TORSDO>
F 2

$$$$
=
 OpenBabel10262421503D

 30 35  0  0  1  0  0  0  0  0999 V2000
  187.0320  176.8930  137.5640 C   0  0  2  0  0  3  0  0  0  0  0  0
  187.5790  178.2040  139.6370 C   0  0  0  0  0  0  0  0  0  0  0  0
  191.3060  176.3240  136.7940 C   0  0  0  0  0  2  0  0  0  0  0  0
  187.6450  175.6050  136.9500 C   0  0  1  0  0  3  0  0  0  0  0  0
  186.1580  177.6270  136.5590 C   0  0  0  0  0  2  0  0  0  0  0  0
  184.3540  174.5280  135.8710 O   0  0  0  0  0  0  0  0  0  0  0  0
  188.1930  172.9400  135.4640 N   0  0  0  0  0  0  0  0  0  0  0  0
  185.2590  175.3360  136.0220 C   0  0  0  0  0  0  0  0  0  0  0  0
  189.3340  173.7790  135.1050 C   0  0  2  0  0  3  0  0  0  0  0  0
  191.1650  174.9600  136.1530 C   0  0  1  0  0  3  0  0  0  0  0  0
  184.9190  176.7920  136.2510 C   0  0  2  0  0  3  0  0  0  0  0  0
  186.7050  174.8870  135.9540 C   0  0  2  0  0  3  0  0  0  0  0  0
  188.4970  178.1230  140.7330 N   0  0  0  0  0  0  0  0  0  0  0  0
  190.3160  172.8270  134.7090 O   0  0  0  0  0  0  0  0  0  0  0  0
  188.5550  171.5870  135.2200 C   0  0  0  0  0  3  0  0  0  0  0  0
  186.4060  178.6160  139.8420 O   0  0  0  0  0  0  0  0  0  0  0  0
  189.9060  176.9020  136.8160 C   0  0  1  0  0  3  0  0  0  0  0  0
  189.7200  177.7160  140.5780 C   0  0  0  0  0  3  0  0  0  0  0  0
  188.0210  177.8560  138.2380 C   0  0  1  0  0  3  0  0  0  0  0  0
  189.0090  175.7990  136.2590 C   0  0  1  0  0  3  0  0  0  0  0  0
  192.0600  173.9790  136.8890 C   0  0  0  0  0  1  0  0  0  0  0  0
  189.7660  174.5510  136.2770 N   0  0  1  0  0  0  0  0  0  0  0  0
  189.8000  171.5390  134.7830 C   0  0  0  0  0  3  0  0  0  0  0  0
  186.6320  172.7750  137.3510 C   0  0  0  0  0  1  0  0  0  0  0  0
  190.2220  177.3050  139.2590 C   0  0  0  0  0  3  0  0  0  0  0  0
  189.4400  177.3550  138.1720 C   0  0  0  0  0  0  0  0  0  0  0  0
  186.8820  173.3580  135.9660 C   0  0  2  0  0  3  0  0  0  0  0  0
  184.2110  177.3870  135.0440 C   0  0  0  0  0  2  0  0  0  0  0  0
  182.5460  177.7250  136.4490 C   0  0  0  0  0  1  0  0  0  0  0  0
  182.8300  177.2400  135.1740 O   0  0  0  0  0  0  0  0  0  0  0  0
  1  5  1  6  0  0  0
  1 19  1  0  0  0  0
  2 16  2  0  0  0  0
  2 13  1  0  0  0  0
  3 17  1  0  0  0  0
  4  1  1  0  0  0  0
  6  8  2  0  0  0  0
  7 27  1  0  0  0  0
  8 11  1  0  0  0  0
  9  7  1  0  0  0  0
  9 22  1  0  0  0  0
 10 22  1  0  0  0  0
 10  3  1  0  0  0  0
 10 21  1  0  0  0  0
 11  5  1  0  0  0  0
 12 27  1  0  0  0  0
 12  8  1  0  0  0  0
 12  4  1  0  0  0  0
 14 23  1  0  0  0  0
 14  9  1  0  0  0  0
 15  7  1  0  0  0  0
 17 26  1  0  0  0  0
 18 13  2  0  0  0  0
 19  2  1  0  0  0  0
 20 22  1  0  0  0  0
 20 17  1  0  0  0  0
 20  4  1  0  0  0  0
 23 15  2  0  0  0  0
 25 18  1  0  0  0  0
 26 19  1  0  0  0  0
 26 25  2  0  0  0  0
 27 24  1  0  0  0  0
 28 30  1  0  0  0  0
 28 11  1  0  0  0  0
 30 29  1  0  0  0  0
M  END
>  <MODEL>
6

>  <REMARK>
 VINA RESULT:      -5.4      4.911      7.365
  Name = 
  2 active torsions:
  status: ('A' for Active; 'I' for Inactive)
    1  A    between atoms: C_9  and  C_12
    2  A    between atoms: C_9  and  O_21
                            x       y       z     vdW  Elec       q    Type
                         _______ _______ _______ _____ _____    ______ ____

>  <TORSDO>
F 2

$$$$
=
 OpenBabel10262421503D

 30 35  0  0  1  0  0  0  0  0999 V2000
  188.8640  177.0140  139.7970 C   0  0  2  0  0  3  0  0  0  0  0  0
  188.9310  176.8920  142.3060 C   0  0  0  0  0  0  0  0  0  0  0  0
  193.2400  177.1580  139.6860 C   0  0  0  0  0  2  0  0  0  0  0  0
  189.7320  176.3490  138.6950 C   0  0  1  0  0  3  0  0  0  0  0  0
  188.0400  178.1640  139.2380 C   0  0  0  0  0  2  0  0  0  0  0  0
  186.8060  175.9810  136.5840 O   0  0  0  0  0  0  0  0  0  0  0  0
  190.8510  175.0690  136.1020 N   0  0  0  0  0  0  0  0  0  0  0  0
  187.5570  176.5830  137.3380 C   0  0  0  0  0  0  0  0  0  0  0  0
  191.8990  176.0030  136.5100 C   0  0  2  0  0  3  0  0  0  0  0  0
  193.3830  176.4180  138.3730 C   0  0  1  0  0  3  0  0  0  0  0  0
  186.9860  177.6190  138.2790 C   0  0  2  0  0  3  0  0  0  0  0  0
  189.0490  176.3100  137.3090 C   0  0  2  0  0  3  0  0  0  0  0  0
  189.6930  176.2220  143.3160 N   0  0  0  0  0  0  0  0  0  0  0  0
  193.0520  175.4960  135.8440 O   0  0  0  0  0  0  0  0  0  0  0  0
  191.4320  174.1260  135.2110 C   0  0  0  0  0  3  0  0  0  0  0  0
  187.6950  177.0640  142.4770 O   0  0  0  0  0  0  0  0  0  0  0  0
  191.7830  177.5630  139.7600 C   0  0  1  0  0  3  0  0  0  0  0  0
  190.9720  176.0270  143.1990 C   0  0  0  0  0  3  0  0  0  0  0  0
  189.6040  177.4410  141.0740 C   0  0  1  0  0  3  0  0  0  0  0  0
  191.1360  176.9580  138.5150 C   0  0  1  0  0  3  0  0  0  0  0  0
  194.3000  175.2260  138.5800 C   0  0  0  0  0  1  0  0  0  0  0  0
  192.0530  175.9620  137.9700 N   0  0  1  0  0  0  0  0  0  0  0  0
  192.7180  174.3870  135.0750 C   0  0  0  0  0  3  0  0  0  0  0  0
  189.0870  173.7790  137.2190 C   0  0  0  0  0  1  0  0  0  0  0  0
  191.7020  176.4800  142.0060 C   0  0  0  0  0  3  0  0  0  0  0  0
  191.0760  177.1240  141.0120 C   0  0  0  0  0  0  0  0  0  0  0  0
  189.4380  175.0690  136.4870 C   0  0  2  0  0  3  0  0  0  0  0  0
  186.3720  178.7790  137.5110 C   0  0  0  0  0  2  0  0  0  0  0  0
  184.4030  178.2680  138.3630 C   0  0  0  0  0  1  0  0  0  0  0  0
  185.3060  179.3220  138.2290 O   0  0  0  0  0  0  0  0  0  0  0  0
  1  5  1  6  0  0  0
  1 19  1  0  0  0  0
  2 16  2  0  0  0  0
  2 13  1  0  0  0  0
  3 17  1  0  0  0  0
  4  1  1  0  0  0  0
  6  8  2  0  0  0  0
  7 27  1  0  0  0  0
  7  9  1  0  0  0  0
  8 11  1  0  0  0  0
  9 22  1  0  0  0  0
 10 21  1  0  0  0  0
 10  3  1  0  0  0  0
 11  5  1  0  0  0  0
 12  8  1  0  0  0  0
 12  4  1  0  0  0  0
 14  9  1  0  0  0  0
 15  7  1  0  0  0  0
 17 26  1  0  0  0  0
 18 13  2  0  0  0  0
 19  2  1  0  0  0  0
 20  4  1  0  0  0  0
 20 17  1  0  0  0  0
 22 10  1  0  0  0  0
 22 20  1  0  0  0  0
 23 15  2  0  0  0  0
 23 14  1  0  0  0  0
 25 18  1  0  0  0  0
 26 19  1  0  0  0  0
 26 25  2  0  0  0  0
 27 24  1  0  0  0  0
 27 12  1  0  0  0  0
 28 30  1  0  0  0  0
 28 11  1  0  0  0  0
 30 29  1  0  0  0  0
M  END
>  <MODEL>
7

>  <REMARK>
 VINA RESULT:      -5.4      5.630      8.101
  Name = 
  2 active torsions:
  status: ('A' for Active; 'I' for Inactive)
    1  A    between atoms: C_9  and  C_12
    2  A    between atoms: C_9  and  O_21
                            x       y       z     vdW  Elec       q    Type
                         _______ _______ _______ _____ _____    ______ ____

>  <TORSDO>
F 2

$$$$
=
 OpenBabel10262421503D

 30 35  0  0  1  0  0  0  0  0999 V2000
  184.9130  175.8970  137.3280 C   0  0  2  0  0  3  0  0  0  0  0  0
  185.1880  173.4210  137.0010 C   0  0  0  0  0  0  0  0  0  0  0  0
  180.8030  175.6400  135.8370 C   0  0  0  0  0  2  0  0  0  0  0  0
  183.7350  176.7560  137.8610 C   0  0  1  0  0  3  0  0  0  0  0  0
  185.9440  176.7520  136.6060 C   0  0  0  0  0  2  0  0  0  0  0  0
  186.0800  179.0030  139.4770 O   0  0  0  0  0  0  0  0  0  0  0  0
  181.9200  178.9210  139.1390 N   0  0  0  0  0  0  0  0  0  0  0  0
  185.6570  178.3240  138.5530 C   0  0  0  0  0  0  0  0  0  0  0  0
  181.2620  178.6190  137.8690 C   0  0  2  0  0  3  0  0  0  0  0  0
  180.2570  176.7550  136.7030 C   0  0  1  0  0  3  0  0  0  0  0  0
  186.6390  177.6700  137.6060 C   0  0  2  0  0  3  0  0  0  0  0  0
  184.1640  178.1610  138.3430 C   0  0  2  0  0  3  0  0  0  0  0  0
  184.4230  172.2300  137.2180 N   0  0  0  0  0  0  0  0  0  0  0  0
  179.9260  179.0610  138.0920 O   0  0  0  0  0  0  0  0  0  0  0  0
  180.9640  179.5430  139.9870 C   0  0  0  0  0  3  0  0  0  0  0  0
  186.4310  173.4010  137.2000 O   0  0  0  0  0  0  0  0  0  0  0  0
  182.3090  175.7820  135.9040 C   0  0  1  0  0  3  0  0  0  0  0  0
  183.1400  172.1890  137.0190 C   0  0  0  0  0  3  0  0  0  0  0  0
  184.5280  174.6730  136.4830 C   0  0  1  0  0  3  0  0  0  0  0  0
  182.5590  176.9300  136.8800 C   0  0  1  0  0  3  0  0  0  0  0  0
  179.0740  176.2260  137.4940 C   0  0  0  0  0  1  0  0  0  0  0  0
  181.3210  177.1740  137.6150 N   0  0  1  0  0  0  0  0  0  0  0  0
  179.8040  179.6140  139.3610 C   0  0  0  0  0  3  0  0  0  0  0  0
  183.3770  177.7270  140.7120 C   0  0  0  0  0  1  0  0  0  0  0  0
  182.4050  173.3780  136.5660 C   0  0  0  0  0  3  0  0  0  0  0  0
  183.0350  174.5360  136.3270 C   0  0  0  0  0  0  0  0  0  0  0  0
  183.3120  178.6730  139.5190 C   0  0  2  0  0  3  0  0  0  0  0  0
  187.4420  178.7120  136.8440 C   0  0  0  0  0  2  0  0  0  0  0  0
  189.3990  177.9980  137.5670 C   0  0  0  0  0  1  0  0  0  0  0  0
  188.5530  179.1050  137.5900 O   0  0  0  0  0  0  0  0  0  0  0  0
  1  5  1  6  0  0  0
  1  4  1  0  0  0  0
  2 16  2  0  0  0  0
  2 13  1  0  0  0  0
  3 17  1  0  0  0  0
  3 10  1  0  0  0  0
  4 12  1  0  0  0  0
  5 11  1  0  0  0  0
  7 27  1  0  0  0  0
  7 15  1  0  0  0  0
  8  6  2  0  0  0  0
  9 14  1  0  0  0  0
  9  7  1  0  0  0  0
 10 21  1  0  0  0  0
 10 22  1  0  0  0  0
 11  8  1  0  0  0  0
 12  8  1  0  0  0  0
 12 27  1  0  0  0  0
 14 23  1  0  0  0  0
 17 26  1  0  0  0  0
 17 20  1  0  0  0  0
 18 13  2  0  0  0  0
 19  2  1  0  0  0  0
 19  1  1  0  0  0  0
 20 22  1  0  0  0  0
 20  4  1  0  0  0  0
 22  9  1  0  0  0  0
 23 15  2  0  0  0  0
 25 18  1  0  0  0  0
 26 19  1  0  0  0  0
 26 25  2  0  0  0  0
 27 24  1  0  0  0  0
 28 30  1  0  0  0  0
 28 11  1  0  0  0  0
 29 30  1  0  0  0  0
M  END
>  <MODEL>
8

>  <REMARK>
 VINA RESULT:      -5.3      2.950      6.871
  Name = 
  2 active torsions:
  status: ('A' for Active; 'I' for Inactive)
    1  A    between atoms: C_9  and  C_12
    2  A    between atoms: C_9  and  O_21
                            x       y       z     vdW  Elec       q    Type
                         _______ _______ _______ _____ _____    ______ ____

>  <TORSDO>
F 2

$$$$
=
 OpenBabel10262421503D

 30 35  0  0  1  0  0  0  0  0999 V2000
  189.7720  176.3260  139.1500 C   0  0  2  0  0  3  0  0  0  0  0  0
  189.5400  174.6440  137.2970 C   0  0  0  0  0  0  0  0  0  0  0  0
  186.0530  178.2530  137.8680 C   0  0  0  0  0  2  0  0  0  0  0  0
  188.7380  176.9620  140.1190 C   0  0  1  0  0  3  0  0  0  0  0  0
  191.0820  177.0980  139.1480 C   0  0  0  0  0  2  0  0  0  0  0  0
  191.1880  176.9170  142.7930 O   0  0  0  0  0  0  0  0  0  0  0  0
  187.2500  178.2710  142.5030 N   0  0  0  0  0  0  0  0  0  0  0  0
  190.8010  177.1190  141.6510 C   0  0  0  0  0  0  0  0  0  0  0  0
  186.7860  179.0300  141.3430 C   0  0  2  0  0  3  0  0  0  0  0  0
  185.6210  178.6860  139.2530 C   0  0  1  0  0  3  0  0  0  0  0  0
  191.7690  176.9450  140.5010 C   0  0  2  0  0  3  0  0  0  0  0  0
  189.3740  177.5620  141.3940 C   0  0  2  0  0  3  0  0  0  0  0  0
  188.5020  173.8630  136.6960 N   0  0  0  0  0  0  0  0  0  0  0  0
  185.5640  179.6000  141.8060 O   0  0  0  0  0  0  0  0  0  0  0  0
  186.3180  178.4750  143.5570 C   0  0  0  0  0  3  0  0  0  0  0  0
  190.6890  174.1470  137.4300 O   0  0  0  0  0  0  0  0  0  0  0  0
  187.5140  177.8790  138.0040 C   0  0  1  0  0  3  0  0  0  0  0  0
  187.3020  174.3280  136.5240 C   0  0  0  0  0  3  0  0  0  0  0  0
  189.2840  176.0700  137.7160 C   0  0  1  0  0  3  0  0  0  0  0  0
  187.8310  178.0370  139.4900 C   0  0  1  0  0  3  0  0  0  0  0  0
  184.2250  178.1510  139.5190 C   0  0  0  0  0  1  0  0  0  0  0  0
  186.5660  178.1180  140.2140 N   0  0  1  0  0  0  0  0  0  0  0  0
  185.3390  179.2500  143.1320 C   0  0  0  0  0  3  0  0  0  0  0  0
  188.0890  176.0030  142.9220 C   0  0  0  0  0  1  0  0  0  0  0  0
  186.9470  175.6880  136.9520 C   0  0  0  0  0  3  0  0  0  0  0  0
  187.8530  176.4980  137.5160 C   0  0  0  0  0  0  0  0  0  0  0  0
  188.4570  177.4520  142.6250 C   0  0  2  0  0  3  0  0  0  0  0  0
  192.9100  177.9460  140.5900 C   0  0  0  0  0  2  0  0  0  0  0  0
  194.4390  176.4000  140.2190 C   0  0  0  0  0  1  0  0  0  0  0  0
  193.9300  177.5920  139.7060 O   0  0  0  0  0  0  0  0  0  0  0  0
  1  5  1  6  0  0  0
  1  4  1  0  0  0  0
  2 16  2  0  0  0  0
  2 19  1  0  0  0  0
  3 17  1  0  0  0  0
  3 10  1  0  0  0  0
  4 12  1  0  0  0  0
  5 11  1  0  0  0  0
  7 27  1  0  0  0  0
  7 15  1  0  0  0  0
  8  6  2  0  0  0  0
  9 14  1  0  0  0  0
  9  7  1  0  0  0  0
 10 21  1  0  0  0  0
 10 22  1  0  0  0  0
 11 28  1  0  0  0  0
 11  8  1  0  0  0  0
 12  8  1  0  0  0  0
 12 27  1  0  0  0  0
 13  2  1  0  0  0  0
 14 23  1  0  0  0  0
 17 20  1  0  0  0  0
 18 13  2  0  0  0  0
 18 25  1  0  0  0  0
 19  1  1  0  0  0  0
 20  4  1  0  0  0  0
 20 22  1  0  0  0  0
 22  9  1  0  0  0  0
 23 15  2  0  0  0  0
 25 26  2  0  0  0  0
 26 19  1  0  0  0  0
 26 17  1  0  0  0  0
 27 24  1  0  0  0  0
 30 29  1  0  0  0  0
 30 28  1  0  0  0  0
M  END
>  <MODEL>
9

>  <REMARK>
 VINA RESULT:      -5.2      4.769      8.793
  Name = 
  2 active torsions:
  status: ('A' for Active; 'I' for Inactive)
    1  A    between atoms: C_9  and  C_12
    2  A    between atoms: C_9  and  O_21
                            x       y       z     vdW  Elec       q    Type
                         _______ _______ _______ _____ _____    ______ ____

>  <TORSDO>
F 2

$$$$
