=
 OpenBabel10262422553D

 37 40  0  0  1  0  0  0  0  0999 V2000
  188.7970  177.0570  138.2560 C   0  0  2  0  0  3  0  0  0  0  0  0
  187.1220  178.6370  140.9630 C   0  0  0  0  0  2  0  0  0  0  0  0
  190.2670  176.7330  138.1630 C   0  0  1  0  0  3  0  0  0  0  0  0
  188.3360  177.1750  139.5550 O   0  0  0  0  0  0  0  0  0  0  0  0
  191.1210  177.1510  139.2970 N   0  0  0  0  0  0  0  0  0  0  0  0
  187.3140  178.1290  139.5300 C   0  0  1  0  0  3  0  0  0  0  0  0
  190.2650  175.2480  137.8700 C   0  0  0  0  0  2  0  0  0  0  0  0
  192.5530  177.0280  139.1570 C   0  0  0  0  0  0  0  0  0  0  0  0
  186.9020  176.1020  136.9120 C   0  0  0  0  0  2  0  0  0  0  0  0
  189.0980  174.9950  137.1240 O   0  0  0  0  0  0  0  0  0  0  0  0
  193.3190  177.7100  139.8890 O   0  0  0  0  0  0  0  0  0  0  0  0
  188.4510  178.9430  141.6760 C   0  0  0  0  0  2  0  0  0  0  0  0
  188.1400  175.8020  137.7510 C   0  0  1  0  0  3  0  0  0  0  0  0
  190.6450  178.0450  140.2170 O   0  0  0  0  0  0  0  0  0  0  0  0
  186.0090  177.5140  138.9340 C   0  0  2  0  0  3  0  0  0  0  0  0
  189.2140  177.6940  142.1900 C   0  0  2  0  0  3  0  0  0  0  0  0
  190.5280  177.3580  141.4420 C   0  0  2  0  0  3  0  0  0  0  0  0
  186.1050  177.3330  137.4010 C   0  0  0  0  0  2  0  0  0  0  0  0
  184.5220  179.4780  138.5020 C   0  0  0  0  0  3  0  0  0  0  0  0
  184.7890  178.3280  139.2520 C   0  0  0  0  0  0  0  0  0  0  0  0
  183.9140  177.9550  140.2850 C   0  0  0  0  0  3  0  0  0  0  0  0
  181.9400  178.3680  141.5570 F   0  0  0  0  0  0  0  0  0  0  0  0
  182.5210  179.8780  139.8060 C   0  0  0  0  0  3  0  0  0  0  0  0
  182.7830  178.7300  140.5600 C   0  0  0  0  0  0  0  0  0  0  0  0
  183.3910  180.2530  138.7770 C   0  0  0  0  0  3  0  0  0  0  0  0
  189.1100  175.3770  142.8880 O   0  0  0  0  0  1  0  0  0  0  0  0
  188.3350  176.4630  142.4730 C   0  0  1  0  0  3  0  0  0  0  0  0
  187.3080  176.7860  143.5470 C   0  0  0  0  0  2  0  0  0  0  0  0
  188.0070  177.1860  144.8310 C   0  0  0  0  0  1  0  0  0  0  0  0
  191.7080  177.7280  142.3330 C   0  0  0  0  0  2  0  0  0  0  0  0
  191.2490  178.2280  143.6920 C   0  0  2  0  0  3  0  0  0  0  0  0
  191.8570  179.4360  143.9800 F   0  0  0  0  0  0  0  0  0  0  0  0
  191.6350  177.2160  144.7500 C   0  0  0  0  0  1  0  0  0  0  0  0
  193.1700  176.1500  138.1170 C   0  0  0  0  0  2  0  0  0  0  0  0
  193.8910  176.9290  137.2130 O   0  0  0  0  0  0  0  0  0  0  0  0
  195.6310  176.0770  136.0140 O   0  0  0  0  0  1  0  0  0  0  0  0
  194.2490  176.0440  136.1960 C   0  0  0  0  0  2  0  0  0  0  0  0
  1  4  1  1  0  0  0
  2 12  1  0  0  0  0
  3  7  1  1  0  0  0
  3  1  1  0  0  0  0
  3  5  1  0  0  0  0
  5 14  1  0  0  0  0
  6  4  1  0  0  0  0
  6  2  1  1  0  0  0
  8  5  1  0  0  0  0
  8 11  2  0  0  0  0
  9 18  1  0  0  0  0
 10 13  1  0  0  0  0
 10  7  1  0  0  0  0
 12 16  1  0  0  0  0
 13  9  1  6  0  0  0
 13  1  1  0  0  0  0
 14 17  1  0  0  0  0
 15 20  1  6  0  0  0
 15  6  1  0  0  0  0
 16 27  1  6  0  0  0
 17 16  1  0  0  0  0
 17 30  1  1  0  0  0
 18 15  1  0  0  0  0
 19 25  2  0  0  0  0
 19 20  1  0  0  0  0
 20 21  2  0  0  0  0
 21 24  1  0  0  0  0
 23 24  2  0  0  0  0
 24 22  1  0  0  0  0
 25 23  1  0  0  0  0
 27 26  1  1  0  0  0
 27 28  1  0  0  0  0
 28 29  1  0  0  0  0
 30 31  1  0  0  0  0
 31 32  1  0  0  0  0
 31 33  1  1  0  0  0
 34  8  1  0  0  0  0
 35 34  1  0  0  0  0
 36 37  1  0  0  0  0
 37 35  1  0  0  0  0
M  END
>  <MODEL>
1

>  <REMARK>
 VINA RESULT:      -6.4      0.000      0.000
  Name = 
  8 active torsions:
  status: ('A' for Active; 'I' for Inactive)
    1  A    between atoms: C_1  and  C_5
    2  A    between atoms: C_1  and  C_36
    3  A    between atoms: O_3  and  C_30
    4  A    between atoms: O_3  and  C_32
    5  A    between atoms: C_6  and  C_31
    6  A    between atoms: C_11  and  C_26
    7  A    between atoms: C_20  and  C_30
    8  A    between atoms: C_26  and  C_33
                            x       y       z     vdW  Elec       q    Type
                         _______ _______ _______ _____ _____    ______ ____

>  <TORSDO>
F 8

$$$$
=
 OpenBabel10262422553D

 37 40  0  0  1  0  0  0  0  0999 V2000
  186.8500  177.6700  139.3660 C   0  0  2  0  0  3  0  0  0  0  0  0
  183.9000  178.0700  141.3080 C   0  0  0  0  0  2  0  0  0  0  0  0
  186.9320  177.3340  137.8980 C   0  0  1  0  0  3  0  0  0  0  0  0
  185.6550  178.2630  139.7340 O   0  0  0  0  0  0  0  0  0  0  0  0
  185.6540  177.1030  137.1890 N   0  0  0  0  0  0  0  0  0  0  0  0
  185.3950  177.8530  141.0460 C   0  0  1  0  0  3  0  0  0  0  0  0
  187.7840  178.4570  137.3450 C   0  0  0  0  0  2  0  0  0  0  0  0
  185.7030  176.5960  135.8370 C   0  0  0  0  0  0  0  0  0  0  0  0
  188.6240  178.6680  140.8390 C   0  0  0  0  0  2  0  0  0  0  0  0
  188.6690  178.8250  138.3760 O   0  0  0  0  0  0  0  0  0  0  0  0
  184.6970  176.0210  135.3430 O   0  0  0  0  0  0  0  0  0  0  0  0
  183.0100  177.5830  140.1520 C   0  0  0  0  0  2  0  0  0  0  0  0
  187.8630  178.7700  139.5200 C   0  0  1  0  0  3  0  0  0  0  0  0
  184.5030  176.9050  137.9030 O   0  0  0  0  0  0  0  0  0  0  0  0
  186.2980  178.6360  142.0500 C   0  0  2  0  0  3  0  0  0  0  0  0
  182.9610  178.5310  138.9260 C   0  0  2  0  0  3  0  0  0  0  0  0
  183.6620  178.0070  137.6470 C   0  0  2  0  0  3  0  0  0  0  0  0
  187.7640  178.1440  142.0110 C   0  0  0  0  0  2  0  0  0  0  0  0
  184.5840  179.1750  143.7910 C   0  0  0  0  0  3  0  0  0  0  0  0
  185.7950  178.5550  143.4620 C   0  0  0  0  0  0  0  0  0  0  0  0
  186.5160  177.8710  144.4540 C   0  0  0  0  0  3  0  0  0  0  0  0
  186.7230  177.1480  146.7160 F   0  0  0  0  0  0  0  0  0  0  0  0
  184.8140  178.4290  146.0840 C   0  0  0  0  0  3  0  0  0  0  0  0
  186.0250  177.8090  145.7620 C   0  0  0  0  0  0  0  0  0  0  0  0
  184.0940  179.1130  145.0990 C   0  0  0  0  0  3  0  0  0  0  0  0
  184.5150  180.3780  138.7320 O   0  0  0  0  0  1  0  0  0  0  0  0
  183.2640  180.0090  139.2310 C   0  0  1  0  0  3  0  0  0  0  0  0
  182.1970  180.9010  138.6180 C   0  0  0  0  0  2  0  0  0  0  0  0
  180.8390  180.2350  138.7210 C   0  0  0  0  0  1  0  0  0  0  0  0
  182.5950  177.5940  136.6390 C   0  0  0  0  0  2  0  0  0  0  0  0
  181.5630  176.6710  137.2610 C   0  0  2  0  0  3  0  0  0  0  0  0
  181.8920  175.3530  137.0030 F   0  0  0  0  0  0  0  0  0  0  0  0
  180.2050  176.9680  136.6620 C   0  0  0  0  0  1  0  0  0  0  0  0
  186.9450  176.6790  135.0110 C   0  0  0  0  0  2  0  0  0  0  0  0
  187.3930  175.3930  134.7070 O   0  0  0  0  0  0  0  0  0  0  0  0
  188.7030  174.6850  136.4310 O   0  0  0  0  0  1  0  0  0  0  0  0
  188.6950  175.3490  135.2050 C   0  0  0  0  0  2  0  0  0  0  0  0
  1 13  1  0  0  0  0
  1  4  1  6  0  0  0
  3  7  1  6  0  0  0
  3  1  1  0  0  0  0
  4  6  1  0  0  0  0
  5  3  1  0  0  0  0
  5 14  1  0  0  0  0
  6  2  1  1  0  0  0
  6 15  1  0  0  0  0
  7 10  1  0  0  0  0
  8  5  1  0  0  0  0
  9 18  1  0  0  0  0
 10 13  1  0  0  0  0
 11  8  2  0  0  0  0
 12  2  1  0  0  0  0
 13  9  1  1  0  0  0
 15 20  1  1  0  0  0
 16 27  1  1  0  0  0
 16 12  1  0  0  0  0
 17 30  1  6  0  0  0
 17 14  1  0  0  0  0
 17 16  1  0  0  0  0
 18 15  1  0  0  0  0
 19 25  1  0  0  0  0
 20 19  2  0  0  0  0
 20 21  1  0  0  0  0
 21 24  2  0  0  0  0
 24 23  1  0  0  0  0
 24 22  1  0  0  0  0
 25 23  2  0  0  0  0
 27 26  1  6  0  0  0
 28 29  1  0  0  0  0
 28 27  1  0  0  0  0
 30 31  1  0  0  0  0
 31 33  1  6  0  0  0
 32 31  1  0  0  0  0
 34  8  1  0  0  0  0
 35 34  1  0  0  0  0
 35 37  1  0  0  0  0
 37 36  1  0  0  0  0
M  END
>  <MODEL>
2

>  <REMARK>
 VINA RESULT:      -5.8      3.479      7.074
  Name = 
  8 active torsions:
  status: ('A' for Active; 'I' for Inactive)
    1  A    between atoms: C_1  and  C_5
    2  A    between atoms: C_1  and  C_36
    3  A    between atoms: O_3  and  C_30
    4  A    between atoms: O_3  and  C_32
    5  A    between atoms: C_6  and  C_31
    6  A    between atoms: C_11  and  C_26
    7  A    between atoms: C_20  and  C_30
    8  A    between atoms: C_26  and  C_33
                            x       y       z     vdW  Elec       q    Type
                         _______ _______ _______ _____ _____    ______ ____

>  <TORSDO>
F 8

$$$$
=
 OpenBabel10262422553D

 37 40  0  0  1  0  0  0  0  0999 V2000
  190.3610  177.0900  138.0280 C   0  0  2  0  0  3  0  0  0  0  0  0
  191.3490  175.1300  135.2330 C   0  0  0  0  0  2  0  0  0  0  0  0
  188.9690  177.5700  138.3540 C   0  0  1  0  0  3  0  0  0  0  0  0
  190.3870  175.9630  137.2260 O   0  0  0  0  0  0  0  0  0  0  0  0
  187.8980  177.2290  137.3920 N   0  0  0  0  0  0  0  0  0  0  0  0
  191.5350  176.0630  136.4340 C   0  0  1  0  0  3  0  0  0  0  0  0
  188.7600  177.0560  139.7630 C   0  0  0  0  0  2  0  0  0  0  0  0
  186.5970  177.8300  137.5740 C   0  0  0  0  0  0  0  0  0  0  0  0
  192.3510  176.9240  139.5530 C   0  0  0  0  0  2  0  0  0  0  0  0
  190.0270  177.0570  140.3750 O   0  0  0  0  0  0  0  0  0  0  0  0
  185.7930  177.8980  136.6070 O   0  0  0  0  0  0  0  0  0  0  0  0
  189.9530  175.2440  134.5940 C   0  0  0  0  0  2  0  0  0  0  0  0
  190.8730  176.6020  139.3550 C   0  0  1  0  0  3  0  0  0  0  0  0
  188.2210  176.7770  136.1420 O   0  0  0  0  0  0  0  0  0  0  0  0
  192.8050  175.7140  137.2710 C   0  0  2  0  0  3  0  0  0  0  0  0
  188.8230  174.5180  135.3690 C   0  0  2  0  0  3  0  0  0  0  0  0
  187.7860  175.4390  136.0590 C   0  0  2  0  0  3  0  0  0  0  0  0
  193.1800  176.8500  138.2510 C   0  0  0  0  0  2  0  0  0  0  0  0
  194.5630  176.4190  135.6370 C   0  0  0  0  0  3  0  0  0  0  0  0
  193.9950  175.4010  136.4110 C   0  0  0  0  0  0  0  0  0  0  0  0
  194.5450  174.1090  136.3710 C   0  0  0  0  0  3  0  0  0  0  0  0
  196.1840  172.5980  135.5270 F   0  0  0  0  0  0  0  0  0  0  0  0
  196.2190  174.8660  134.7930 C   0  0  0  0  0  3  0  0  0  0  0  0
  195.6550  173.8450  135.5630 C   0  0  0  0  0  0  0  0  0  0  0  0
  195.6730  176.1530  134.8290 C   0  0  0  0  0  3  0  0  0  0  0  0
  188.3550  173.0730  137.2550 O   0  0  0  0  0  1  0  0  0  0  0  0
  189.2870  173.3440  136.2510 C   0  0  1  0  0  3  0  0  0  0  0  0
  189.4880  172.0980  135.4030 C   0  0  0  0  0  2  0  0  0  0  0  0
  188.2490  171.2270  135.4550 C   0  0  0  0  0  1  0  0  0  0  0  0
  186.4840  175.3880  135.2680 C   0  0  0  0  0  2  0  0  0  0  0  0
  185.3940  174.6530  136.0290 C   0  0  2  0  0  3  0  0  0  0  0  0
  185.7250  174.5750  137.3690 F   0  0  0  0  0  0  0  0  0  0  0  0
  185.2570  173.2520  135.4710 C   0  0  0  0  0  1  0  0  0  0  0  0
  186.1870  178.4380  138.8770 C   0  0  0  0  0  2  0  0  0  0  0  0
  185.0070  179.1620  138.7060 O   0  0  0  0  0  0  0  0  0  0  0  0
  185.4010  179.5640  140.9130 O   0  0  0  0  0  1  0  0  0  0  0  0
  184.4340  179.2020  139.9760 C   0  0  0  0  0  2  0  0  0  0  0  0
  1  4  1  6  0  0  0
  1  3  1  0  0  0  0
  1 13  1  0  0  0  0
  3  7  1  1  0  0  0
  5  8  1  0  0  0  0
  5  3  1  0  0  0  0
  6  2  1  6  0  0  0
  6  4  1  0  0  0  0
  6 15  1  0  0  0  0
  7 10  1  0  0  0  0
  8 34  1  0  0  0  0
 11  8  2  0  0  0  0
 12  2  1  0  0  0  0
 12 16  1  0  0  0  0
 13  9  1  1  0  0  0
 13 10  1  0  0  0  0
 14  5  1  0  0  0  0
 15 20  1  6  0  0  0
 15 18  1  0  0  0  0
 16 17  1  0  0  0  0
 16 27  1  1  0  0  0
 17 30  1  6  0  0  0
 17 14  1  0  0  0  0
 18  9  1  0  0  0  0
 19 20  1  0  0  0  0
 21 20  2  0  0  0  0
 22 24  1  0  0  0  0
 23 25  1  0  0  0  0
 23 24  2  0  0  0  0
 24 21  1  0  0  0  0
 25 19  2  0  0  0  0
 27 26  1  1  0  0  0
 28 29  1  0  0  0  0
 28 27  1  0  0  0  0
 30 31  1  0  0  0  0
 31 33  1  6  0  0  0
 31 32  1  0  0  0  0
 35 34  1  0  0  0  0
 35 37  1  0  0  0  0
 37 36  1  0  0  0  0
M  END
>  <MODEL>
3

>  <REMARK>
 VINA RESULT:      -5.5      3.278      9.014
  Name = 
  8 active torsions:
  status: ('A' for Active; 'I' for Inactive)
    1  A    between atoms: C_1  and  C_5
    2  A    between atoms: C_1  and  C_36
    3  A    between atoms: O_3  and  C_30
    4  A    between atoms: O_3  and  C_32
    5  A    between atoms: C_6  and  C_31
    6  A    between atoms: C_11  and  C_26
    7  A    between atoms: C_20  and  C_30
    8  A    between atoms: C_26  and  C_33
                            x       y       z     vdW  Elec       q    Type
                         _______ _______ _______ _____ _____    ______ ____

>  <TORSDO>
F 8

$$$$
=
 OpenBabel10262422553D

 37 40  0  0  1  0  0  0  0  0999 V2000
  189.9940  177.4790  139.1540 C   0  0  2  0  0  3  0  0  0  0  0  0
  190.4500  176.0750  135.9200 C   0  0  0  0  0  2  0  0  0  0  0  0
  188.7070  177.9970  139.7450 C   0  0  1  0  0  3  0  0  0  0  0  0
  189.8070  176.5480  138.1470 O   0  0  0  0  0  0  0  0  0  0  0  0
  187.5060  177.9600  138.8790 N   0  0  0  0  0  0  0  0  0  0  0  0
  190.8680  176.7140  137.2500 C   0  0  1  0  0  3  0  0  0  0  0  0
  188.5950  177.2170  141.0380 C   0  0  0  0  0  2  0  0  0  0  0  0
  186.3070  178.6190  139.3430 C   0  0  0  0  0  0  0  0  0  0  0  0
  192.1050  176.8240  140.3470 C   0  0  0  0  0  2  0  0  0  0  0  0
  189.9130  176.9800  141.4700 O   0  0  0  0  0  0  0  0  0  0  0  0
  185.4160  178.9590  138.5210 O   0  0  0  0  0  0  0  0  0  0  0  0
  189.0150  176.4400  135.5020 C   0  0  0  0  0  2  0  0  0  0  0  0
  190.5880  176.6800  140.2800 C   0  0  1  0  0  3  0  0  0  0  0  0
  187.6410  177.7560  137.5330 O   0  0  0  0  0  0  0  0  0  0  0  0
  192.1740  176.0880  137.8300 C   0  0  2  0  0  3  0  0  0  0  0  0
  187.9020  175.6670  136.2550 C   0  0  2  0  0  3  0  0  0  0  0  0
  187.0540  176.5080  137.2420 C   0  0  2  0  0  3  0  0  0  0  0  0
  192.7760  176.9560  138.9600 C   0  0  0  0  0  2  0  0  0  0  0  0
  193.4900  174.5560  136.3540 C   0  0  0  0  0  3  0  0  0  0  0  0
  193.2220  175.8620  136.7790 C   0  0  0  0  0  0  0  0  0  0  0  0
  193.9330  176.9350  136.2180 C   0  0  0  0  0  3  0  0  0  0  0  0
  195.5880  177.7340  134.6990 F   0  0  0  0  0  0  0  0  0  0  0  0
  195.1660  175.3900  134.8180 C   0  0  0  0  0  3  0  0  0  0  0  0
  194.9030  176.6970  135.2390 C   0  0  0  0  0  0  0  0  0  0  0  0
  194.4610  174.3200  135.3760 C   0  0  0  0  0  3  0  0  0  0  0  0
  187.3980  173.8330  137.7540 O   0  0  0  0  0  1  0  0  0  0  0  0
  188.3250  174.2990  136.8190 C   0  0  1  0  0  3  0  0  0  0  0  0
  188.4560  173.2850  135.6940 C   0  0  0  0  0  2  0  0  0  0  0  0
  187.1840  173.2540  134.8700 C   0  0  0  0  0  1  0  0  0  0  0  0
  185.6760  176.7370  136.6310 C   0  0  0  0  0  2  0  0  0  0  0  0
  184.6530  175.7520  137.1680 C   0  0  2  0  0  3  0  0  0  0  0  0
  184.5390  174.6760  136.3080 F   0  0  0  0  0  0  0  0  0  0  0  0
  183.3100  176.4410  137.2790 C   0  0  0  0  0  1  0  0  0  0  0  0
  186.1100  178.9720  140.7830 C   0  0  0  0  0  2  0  0  0  0  0  0
  184.7920  179.3770  140.9900 O   0  0  0  0  0  0  0  0  0  0  0  0
  185.0500  178.1930  142.9190 O   0  0  0  0  0  1  0  0  0  0  0  0
  184.2430  178.3810  141.7970 C   0  0  0  0  0  2  0  0  0  0  0  0
  1  4  1  6  0  0  0
  1  3  1  0  0  0  0
  1 13  1  0  0  0  0
  3  7  1  1  0  0  0
  5  8  1  0  0  0  0
  5  3  1  0  0  0  0
  6  2  1  6  0  0  0
  6 15  1  0  0  0  0
  6  4  1  0  0  0  0
  7 10  1  0  0  0  0
  8 34  1  0  0  0  0
 11  8  2  0  0  0  0
 12  2  1  0  0  0  0
 12 16  1  0  0  0  0
 13  9  1  1  0  0  0
 13 10  1  0  0  0  0
 14  5  1  0  0  0  0
 15 20  1  6  0  0  0
 15 18  1  0  0  0  0
 16 27  1  1  0  0  0
 16 17  1  0  0  0  0
 17 30  1  6  0  0  0
 17 14  1  0  0  0  0
 18  9  1  0  0  0  0
 19 20  1  0  0  0  0
 21 20  2  0  0  0  0
 22 24  1  0  0  0  0
 23 24  2  0  0  0  0
 23 25  1  0  0  0  0
 24 21  1  0  0  0  0
 25 19  2  0  0  0  0
 27 26  1  1  0  0  0
 28 27  1  0  0  0  0
 29 28  1  0  0  0  0
 30 31  1  0  0  0  0
 31 33  1  6  0  0  0
 32 31  1  0  0  0  0
 34 35  1  0  0  0  0
 35 37  1  0  0  0  0
 37 36  1  0  0  0  0
M  END
>  <MODEL>
4

>  <REMARK>
 VINA RESULT:      -5.5      3.179      8.637
  Name = 
  8 active torsions:
  status: ('A' for Active; 'I' for Inactive)
    1  A    between atoms: C_1  and  C_5
    2  A    between atoms: C_1  and  C_36
    3  A    between atoms: O_3  and  C_30
    4  A    between atoms: O_3  and  C_32
    5  A    between atoms: C_6  and  C_31
    6  A    between atoms: C_11  and  C_26
    7  A    between atoms: C_20  and  C_30
    8  A    between atoms: C_26  and  C_33
                            x       y       z     vdW  Elec       q    Type
                         _______ _______ _______ _____ _____    ______ ____

>  <TORSDO>
F 8

$$$$
=
 OpenBabel10262422553D

 37 40  0  0  1  0  0  0  0  0999 V2000
  184.1730  178.9880  140.5490 C   0  0  2  0  0  3  0  0  0  0  0  0
  184.9780  177.5170  137.4150 C   0  0  0  0  0  2  0  0  0  0  0  0
  182.8030  179.3770  141.0430 C   0  0  1  0  0  3  0  0  0  0  0  0
  184.1530  178.0020  139.5780 O   0  0  0  0  0  0  0  0  0  0  0  0
  181.6680  179.1680  140.1160 N   0  0  0  0  0  0  0  0  0  0  0  0
  185.2400  178.2530  138.7340 C   0  0  1  0  0  3  0  0  0  0  0  0
  182.7010  178.6420  142.3630 C   0  0  0  0  0  2  0  0  0  0  0  0
  180.3770  179.7030  140.4820 C   0  0  0  0  0  0  0  0  0  0  0  0
  186.2690  178.6280  141.8860 C   0  0  0  0  0  2  0  0  0  0  0  0
  184.0090  178.5760  142.8780 O   0  0  0  0  0  0  0  0  0  0  0  0
  179.5040  179.9040  139.5960 O   0  0  0  0  0  0  0  0  0  0  0  0
  183.5390  177.6980  136.9010 C   0  0  0  0  0  2  0  0  0  0  0  0
  184.7850  178.3080  141.7420 C   0  0  1  0  0  3  0  0  0  0  0  0
  181.9060  178.9270  138.7900 O   0  0  0  0  0  0  0  0  0  0  0  0
  186.5710  177.8050  139.4140 C   0  0  2  0  0  3  0  0  0  0  0  0
  182.4770  176.8330  137.6270 C   0  0  2  0  0  3  0  0  0  0  0  0
  181.4820  177.6090  138.5260 C   0  0  2  0  0  3  0  0  0  0  0  0
  187.0030  178.7810  140.5330 C   0  0  0  0  0  2  0  0  0  0  0  0
  188.1540  178.7890  137.7460 C   0  0  0  0  0  3  0  0  0  0  0  0
  187.7000  177.6590  138.4340 C   0  0  0  0  0  0  0  0  0  0  0  0
  188.3040  176.4140  138.1990 C   0  0  0  0  0  3  0  0  0  0  0  0
  189.9350  175.1020  137.0590 F   0  0  0  0  0  0  0  0  0  0  0  0
  189.8050  177.4380  136.5990 C   0  0  0  0  0  3  0  0  0  0  0  0
  189.3550  176.3050  137.2830 C   0  0  0  0  0  0  0  0  0  0  0  0
  189.2050  178.6800  136.8290 C   0  0  0  0  0  3  0  0  0  0  0  0
  182.3300  175.2530  139.4570 O   0  0  0  0  0  1  0  0  0  0  0  0
  183.0160  175.5460  138.2760 C   0  0  1  0  0  3  0  0  0  0  0  0
  182.8810  174.3760  137.3150 C   0  0  0  0  0  2  0  0  0  0  0  0
  184.1410  173.5340  137.3380 C   0  0  0  0  0  1  0  0  0  0  0  0
  180.1260  177.6540  137.8300 C   0  0  0  0  0  2  0  0  0  0  0  0
  179.1280  176.7160  138.4850 C   0  0  2  0  0  3  0  0  0  0  0  0
  179.4730  176.5100  139.8080 F   0  0  0  0  0  0  0  0  0  0  0  0
  179.1420  175.3880  137.7570 C   0  0  0  0  0  1  0  0  0  0  0  0
  180.0550  180.0870  141.8900 C   0  0  0  0  0  2  0  0  0  0  0  0
  178.9970  179.3090  142.3580 O   0  0  0  0  0  0  0  0  0  0  0  0
  179.3040  178.2340  144.3430 O   0  0  0  0  0  1  0  0  0  0  0  0
  179.0350  179.4640  143.7430 C   0  0  0  0  0  2  0  0  0  0  0  0
  1  4  1  6  0  0  0
  1  3  1  0  0  0  0
  1 13  1  0  0  0  0
  3  7  1  1  0  0  0
  5  8  1  0  0  0  0
  5  3  1  0  0  0  0
  6  2  1  6  0  0  0
  6 15  1  0  0  0  0
  6  4  1  0  0  0  0
  7 10  1  0  0  0  0
  8 34  1  0  0  0  0
 11  8  2  0  0  0  0
 12  2  1  0  0  0  0
 12 16  1  0  0  0  0
 13  9  1  1  0  0  0
 13 10  1  0  0  0  0
 14  5  1  0  0  0  0
 15 20  1  6  0  0  0
 15 18  1  0  0  0  0
 16 27  1  1  0  0  0
 16 17  1  0  0  0  0
 17 30  1  6  0  0  0
 17 14  1  0  0  0  0
 18  9  1  0  0  0  0
 19 20  1  0  0  0  0
 21 20  2  0  0  0  0
 22 24  1  0  0  0  0
 23 25  1  0  0  0  0
 23 24  2  0  0  0  0
 24 21  1  0  0  0  0
 25 19  2  0  0  0  0
 27 26  1  1  0  0  0
 28 29  1  0  0  0  0
 28 27  1  0  0  0  0
 30 31  1  0  0  0  0
 31 33  1  6  0  0  0
 31 32  1  0  0  0  0
 34 35  1  0  0  0  0
 35 37  1  0  0  0  0
 37 36  1  0  0  0  0
M  END
>  <MODEL>
5

>  <REMARK>
 VINA RESULT:      -5.1      4.860      9.720
  Name = 
  8 active torsions:
  status: ('A' for Active; 'I' for Inactive)
    1  A    between atoms: C_1  and  C_5
    2  A    between atoms: C_1  and  C_36
    3  A    between atoms: O_3  and  C_30
    4  A    between atoms: O_3  and  C_32
    5  A    between atoms: C_6  and  C_31
    6  A    between atoms: C_11  and  C_26
    7  A    between atoms: C_20  and  C_30
    8  A    between atoms: C_26  and  C_33
                            x       y       z     vdW  Elec       q    Type
                         _______ _______ _______ _____ _____    ______ ____

>  <TORSDO>
F 8

$$$$
=
 OpenBabel10262422553D

 37 40  0  0  1  0  0  0  0  0999 V2000
  185.2010  178.6270  138.6190 C   0  0  2  0  0  3  0  0  0  0  0  0
  185.6880  176.2880  135.9870 C   0  0  0  0  0  2  0  0  0  0  0  0
  183.8960  179.2440  139.0550 C   0  0  1  0  0  3  0  0  0  0  0  0
  185.0520  177.4160  137.9670 O   0  0  0  0  0  0  0  0  0  0  0  0
  182.6870  178.8750  138.2850 N   0  0  0  0  0  0  0  0  0  0  0  0
  186.0880  177.3380  137.0300 C   0  0  1  0  0  3  0  0  0  0  0  0
  183.8470  178.9140  140.5320 C   0  0  0  0  0  2  0  0  0  0  0  0
  181.4600  179.5890  138.5530 C   0  0  0  0  0  0  0  0  0  0  0  0
  187.3640  178.4900  139.8900 C   0  0  0  0  0  2  0  0  0  0  0  0
  185.1830  178.8910  140.9750 O   0  0  0  0  0  0  0  0  0  0  0  0
  180.5390  179.6050  137.6940 O   0  0  0  0  0  0  0  0  0  0  0  0
  184.2290  176.4310  135.5200 C   0  0  0  0  0  2  0  0  0  0  0  0
  185.8560  178.2600  139.9210 C   0  0  1  0  0  3  0  0  0  0  0  0
  182.8130  178.2590  137.0700 O   0  0  0  0  0  0  0  0  0  0  0  0
  187.4360  176.9940  137.7370 C   0  0  2  0  0  3  0  0  0  0  0  0
  183.1720  175.8860  136.5150 C   0  0  2  0  0  3  0  0  0  0  0  0
  182.2930  176.9560  137.2100 C   0  0  2  0  0  3  0  0  0  0  0  0
  188.0060  178.2050  138.5130 C   0  0  0  0  0  2  0  0  0  0  0  0
  188.9710  177.3600  135.7970 C   0  0  0  0  0  3  0  0  0  0  0  0
  188.4800  176.4950  136.7800 C   0  0  0  0  0  0  0  0  0  0  0  0
  188.9690  175.1810  136.8560 C   0  0  0  0  0  3  0  0  0  0  0  0
  190.4120  173.4730  136.0290 F   0  0  0  0  0  0  0  0  0  0  0  0
  190.4300  175.6110  134.9740 C   0  0  0  0  0  3  0  0  0  0  0  0
  189.9420  174.7420  135.9530 C   0  0  0  0  0  0  0  0  0  0  0  0
  189.9450  176.9200  134.8940 C   0  0  0  0  0  3  0  0  0  0  0  0
  183.0570  174.8870  138.7180 O   0  0  0  0  0  1  0  0  0  0  0  0
  183.6790  174.7920  137.4710 C   0  0  1  0  0  3  0  0  0  0  0  0
  183.4130  173.4160  136.8820 C   0  0  0  0  0  2  0  0  0  0  0  0
  184.5580  172.4780  137.2090 C   0  0  0  0  0  1  0  0  0  0  0  0
  180.8950  176.9120  136.6020 C   0  0  0  0  0  2  0  0  0  0  0  0
  179.8970  176.2560  137.5390 C   0  0  2  0  0  3  0  0  0  0  0  0
  180.3240  176.3840  138.8480 F   0  0  0  0  0  0  0  0  0  0  0  0
  179.7850  174.7850  137.1960 C   0  0  0  0  0  1  0  0  0  0  0  0
  181.2650  180.3730  139.8110 C   0  0  0  0  0  2  0  0  0  0  0  0
  179.9610  180.1980  140.2750 O   0  0  0  0  0  0  0  0  0  0  0  0
  180.0550  180.8230  142.4640 O   0  0  0  0  0  1  0  0  0  0  0  0
  180.1150  179.7430  141.5840 C   0  0  0  0  0  2  0  0  0  0  0  0
  1  4  1  6  0  0  0
  1  3  1  0  0  0  0
  1 13  1  0  0  0  0
  3  7  1  1  0  0  0
  5  8  1  0  0  0  0
  5  3  1  0  0  0  0
  6  2  1  6  0  0  0
  6 15  1  0  0  0  0
  6  4  1  0  0  0  0
  7 10  1  0  0  0  0
  8 34  1  0  0  0  0
 11  8  2  0  0  0  0
 12  2  1  0  0  0  0
 12 16  1  0  0  0  0
 13  9  1  6  0  0  0
 13 10  1  0  0  0  0
 14 17  1  0  0  0  0
 14  5  1  0  0  0  0
 15 20  1  6  0  0  0
 15 18  1  0  0  0  0
 16 17  1  0  0  0  0
 16 27  1  1  0  0  0
 17 30  1  6  0  0  0
 18  9  1  0  0  0  0
 19 20  1  0  0  0  0
 20 21  2  0  0  0  0
 23 24  2  0  0  0  0
 24 22  1  0  0  0  0
 24 21  1  0  0  0  0
 25 23  1  0  0  0  0
 25 19  2  0  0  0  0
 27 26  1  1  0  0  0
 28 29  1  0  0  0  0
 28 27  1  0  0  0  0
 30 31  1  0  0  0  0
 31 33  1  6  0  0  0
 31 32  1  0  0  0  0
 34 35  1  0  0  0  0
 35 37  1  0  0  0  0
 37 36  1  0  0  0  0
M  END
>  <MODEL>
6

>  <REMARK>
 VINA RESULT:      -5.1      4.686      9.452
  Name = 
  8 active torsions:
  status: ('A' for Active; 'I' for Inactive)
    1  A    between atoms: C_1  and  C_5
    2  A    between atoms: C_1  and  C_36
    3  A    between atoms: O_3  and  C_30
    4  A    between atoms: O_3  and  C_32
    5  A    between atoms: C_6  and  C_31
    6  A    between atoms: C_11  and  C_26
    7  A    between atoms: C_20  and  C_30
    8  A    between atoms: C_26  and  C_33
                            x       y       z     vdW  Elec       q    Type
                         _______ _______ _______ _____ _____    ______ ____

>  <TORSDO>
F 8

$$$$
=
 OpenBabel10262422553D

 37 40  0  0  1  0  0  0  0  0999 V2000
  183.9920  179.0180  140.1370 C   0  0  2  0  0  3  0  0  0  0  0  0
  185.8970  177.4370  137.5870 C   0  0  0  0  0  2  0  0  0  0  0  0
  182.5210  179.3460  140.1000 C   0  0  1  0  0  3  0  0  0  0  0  0
  184.3520  177.9820  139.2930 O   0  0  0  0  0  0  0  0  0  0  0  0
  181.7900  179.0160  138.8550 N   0  0  0  0  0  0  0  0  0  0  0  0
  185.6540  178.2560  138.8590 C   0  0  1  0  0  3  0  0  0  0  0  0
  181.9960  178.6770  141.3530 C   0  0  0  0  0  2  0  0  0  0  0  0
  180.4310  179.4870  138.7140 C   0  0  0  0  0  0  0  0  0  0  0  0
  185.5050  178.8630  142.1370 C   0  0  0  0  0  2  0  0  0  0  0  0
  183.0450  178.7210  142.2900 O   0  0  0  0  0  0  0  0  0  0  0  0
  179.9140  179.5850  137.5700 O   0  0  0  0  0  0  0  0  0  0  0  0
  184.7210  177.4980  136.5970 C   0  0  0  0  0  2  0  0  0  0  0  0
  184.1770  178.4430  141.5140 C   0  0  1  0  0  3  0  0  0  0  0  0
  182.4830  178.7210  137.7140 O   0  0  0  0  0  0  0  0  0  0  0  0
  186.6820  177.9310  139.9870 C   0  0  2  0  0  3  0  0  0  0  0  0
  183.5090  176.6080  136.9730 C   0  0  2  0  0  3  0  0  0  0  0  0
  182.2320  177.3660  137.4150 C   0  0  2  0  0  3  0  0  0  0  0  0
  186.6570  178.9900  141.1140 C   0  0  0  0  0  2  0  0  0  0  0  0
  188.3270  177.9880  138.1040 C   0  0  0  0  0  3  0  0  0  0  0  0
  188.0860  177.8050  139.4690 C   0  0  0  0  0  0  0  0  0  0  0  0
  189.1550  177.5080  140.3300 C   0  0  0  0  0  3  0  0  0  0  0  0
  191.4830  177.1120  140.6550 F   0  0  0  0  0  0  0  0  0  0  0  0
  190.6890  177.5830  138.4570 C   0  0  0  0  0  3  0  0  0  0  0  0
  190.4530  177.3980  139.8230 C   0  0  0  0  0  0  0  0  0  0  0  0
  189.6260  177.8780  137.5970 C   0  0  0  0  0  3  0  0  0  0  0  0
  182.8540  175.1950  138.8280 O   0  0  0  0  0  1  0  0  0  0  0  0
  183.8410  175.3940  137.8590 C   0  0  1  0  0  3  0  0  0  0  0  0
  183.9670  174.1410  137.0070 C   0  0  0  0  0  2  0  0  0  0  0  0
  184.9710  173.1890  137.6260 C   0  0  0  0  0  1  0  0  0  0  0  0
  181.2030  177.2880  136.2930 C   0  0  0  0  0  2  0  0  0  0  0  0
  180.0860  176.3150  136.6230 C   0  0  2  0  0  3  0  0  0  0  0  0
  180.0420  176.0930  137.9870 F   0  0  0  0  0  0  0  0  0  0  0  0
  180.3450  175.0010  135.9170 C   0  0  0  0  0  1  0  0  0  0  0  0
  179.6240  179.9250  139.8940 C   0  0  0  0  0  2  0  0  0  0  0  0
  179.5290  181.3160  139.9060 O   0  0  0  0  0  0  0  0  0  0  0  0
  179.6810  181.0550  142.1640 O   0  0  0  0  0  1  0  0  0  0  0  0
  178.9310  181.6140  141.1300 C   0  0  0  0  0  2  0  0  0  0  0  0
  1  4  1  6  0  0  0
  1 13  1  0  0  0  0
  3  1  1  0  0  0  0
  3  7  1  1  0  0  0
  5  3  1  0  0  0  0
  6  2  1  6  0  0  0
  6  4  1  0  0  0  0
  6 15  1  0  0  0  0
  7 10  1  0  0  0  0
  8  5  1  0  0  0  0
  8 34  1  0  0  0  0
 11  8  2  0  0  0  0
 12 16  1  0  0  0  0
 12  2  1  0  0  0  0
 13  9  1  1  0  0  0
 13 10  1  0  0  0  0
 14  5  1  0  0  0  0
 15 20  1  6  0  0  0
 15 18  1  0  0  0  0
 16 17  1  0  0  0  0
 16 27  1  1  0  0  0
 17 30  1  6  0  0  0
 17 14  1  0  0  0  0
 18  9  1  0  0  0  0
 19 20  1  0  0  0  0
 20 21  2  0  0  0  0
 23 24  2  0  0  0  0
 24 21  1  0  0  0  0
 24 22  1  0  0  0  0
 25 19  2  0  0  0  0
 25 23  1  0  0  0  0
 27 26  1  1  0  0  0
 28 29  1  0  0  0  0
 28 27  1  0  0  0  0
 30 31  1  0  0  0  0
 31 33  1  6  0  0  0
 31 32  1  0  0  0  0
 34 35  1  0  0  0  0
 35 37  1  0  0  0  0
 37 36  1  0  0  0  0
M  END
>  <MODEL>
7

>  <REMARK>
 VINA RESULT:      -5.1      4.458      9.614
  Name = 
  8 active torsions:
  status: ('A' for Active; 'I' for Inactive)
    1  A    between atoms: C_1  and  C_5
    2  A    between atoms: C_1  and  C_36
    3  A    between atoms: O_3  and  C_30
    4  A    between atoms: O_3  and  C_32
    5  A    between atoms: C_6  and  C_31
    6  A    between atoms: C_11  and  C_26
    7  A    between atoms: C_20  and  C_30
    8  A    between atoms: C_26  and  C_33
                            x       y       z     vdW  Elec       q    Type
                         _______ _______ _______ _____ _____    ______ ____

>  <TORSDO>
F 8

$$$$
=
 OpenBabel10262422553D

 37 40  0  0  1  0  0  0  0  0999 V2000
  191.4780  175.9940  139.0800 C   0  0  2  0  0  3  0  0  0  0  0  0
  187.9500  176.3980  138.9130 C   0  0  0  0  0  2  0  0  0  0  0  0
  192.3560  175.2660  138.0930 C   0  0  1  0  0  3  0  0  0  0  0  0
  190.2850  176.4410  138.5380 O   0  0  0  0  0  0  0  0  0  0  0  0
  191.6820  174.6100  136.9500 N   0  0  0  0  0  0  0  0  0  0  0  0
  189.3370  176.3900  139.5650 C   0  0  1  0  0  3  0  0  0  0  0  0
  193.3830  176.3150  137.7220 C   0  0  0  0  0  2  0  0  0  0  0  0
  192.4670  173.7490  136.0960 C   0  0  0  0  0  0  0  0  0  0  0  0
  192.1480  177.6840  140.8140 C   0  0  0  0  0  2  0  0  0  0  0  0
  193.5520  177.1210  138.8630 O   0  0  0  0  0  0  0  0  0  0  0  0
  191.8980  172.8810  135.3820 O   0  0  0  0  0  0  0  0  0  0  0  0
  187.8450  175.4410  137.7120 C   0  0  0  0  0  2  0  0  0  0  0  0
  192.2470  177.2570  139.3530 C   0  0  1  0  0  3  0  0  0  0  0  0
  190.3270  174.4220  136.9730 O   0  0  0  0  0  0  0  0  0  0  0  0
  189.5400  177.5820  140.5520 C   0  0  2  0  0  3  0  0  0  0  0  0
  188.4940  175.9650  136.4050 C   0  0  2  0  0  3  0  0  0  0  0  0
  189.7800  175.2290  135.9540 C   0  0  2  0  0  3  0  0  0  0  0  0
  190.7770  177.3760  141.4580 C   0  0  0  0  0  2  0  0  0  0  0  0
  187.3070  178.6400  140.9370 C   0  0  0  0  0  3  0  0  0  0  0  0
  188.3390  177.8260  141.4180 C   0  0  0  0  0  0  0  0  0  0  0  0
  188.2330  177.2530  142.6950 C   0  0  0  0  0  3  0  0  0  0  0  0
  187.0020  176.9400  144.7130 F   0  0  0  0  0  0  0  0  0  0  0  0
  186.0740  178.3080  142.9950 C   0  0  0  0  0  3  0  0  0  0  0  0
  187.1010  177.4940  143.4810 C   0  0  0  0  0  0  0  0  0  0  0  0
  186.1760  178.8810  141.7240 C   0  0  0  0  0  3  0  0  0  0  0  0
  189.5800  177.8730  135.3810 O   0  0  0  0  0  1  0  0  0  0  0  0
  188.5920  177.4980  136.2940 C   0  0  1  0  0  3  0  0  0  0  0  0
  187.2570  178.0780  135.8550 C   0  0  0  0  0  2  0  0  0  0  0  0
  186.6870  177.2660  134.7100 C   0  0  0  0  0  1  0  0  0  0  0  0
  189.4470  174.3530  134.7520 C   0  0  0  0  0  2  0  0  0  0  0  0
  188.6510  173.1250  135.1560 C   0  0  2  0  0  3  0  0  0  0  0  0
  189.2220  171.9910  134.6080 F   0  0  0  0  0  0  0  0  0  0  0  0
  187.2330  173.2610  134.6440 C   0  0  0  0  0  1  0  0  0  0  0  0
  193.9600  173.8120  136.0740 C   0  0  0  0  0  2  0  0  0  0  0  0
  194.4880  172.6110  136.5480 O   0  0  0  0  0  0  0  0  0  0  0  0
  195.5690  171.7920  138.3780 O   0  0  0  0  0  1  0  0  0  0  0  0
  195.0750  172.9450  137.7680 C   0  0  0  0  0  2  0  0  0  0  0  0
  1  4  1  6  0  0  0
  1 13  1  0  0  0  0
  3  7  1  6  0  0  0
  3  1  1  0  0  0  0
  4  6  1  0  0  0  0
  5 14  1  0  0  0  0
  5  3  1  0  0  0  0
  6  2  1  6  0  0  0
  6 15  1  0  0  0  0
  7 10  1  0  0  0  0
  8  5  1  0  0  0  0
  9 18  1  0  0  0  0
 10 13  1  0  0  0  0
 11  8  2  0  0  0  0
 12  2  1  0  0  0  0
 13  9  1  1  0  0  0
 15 20  1  1  0  0  0
 15 18  1  0  0  0  0
 16 27  1  1  0  0  0
 16 12  1  0  0  0  0
 17 30  1  6  0  0  0
 17 16  1  0  0  0  0
 17 14  1  0  0  0  0
 19 20  2  0  0  0  0
 19 25  1  0  0  0  0
 20 21  1  0  0  0  0
 21 24  2  0  0  0  0
 23 24  1  0  0  0  0
 24 22  1  0  0  0  0
 25 23  2  0  0  0  0
 27 26  1  6  0  0  0
 28 27  1  0  0  0  0
 29 28  1  0  0  0  0
 30 31  1  0  0  0  0
 31 33  1  6  0  0  0
 32 31  1  0  0  0  0
 34  8  1  0  0  0  0
 34 35  1  0  0  0  0
 35 37  1  0  0  0  0
 37 36  1  0  0  0  0
M  END
>  <MODEL>
8

>  <REMARK>
 VINA RESULT:      -5.0      3.137      6.076
  Name = 
  8 active torsions:
  status: ('A' for Active; 'I' for Inactive)
    1  A    between atoms: C_1  and  C_5
    2  A    between atoms: C_1  and  C_36
    3  A    between atoms: O_3  and  C_30
    4  A    between atoms: O_3  and  C_32
    5  A    between atoms: C_6  and  C_31
    6  A    between atoms: C_11  and  C_26
    7  A    between atoms: C_20  and  C_30
    8  A    between atoms: C_26  and  C_33
                            x       y       z     vdW  Elec       q    Type
                         _______ _______ _______ _____ _____    ______ ____

>  <TORSDO>
F 8

$$$$
=
 OpenBabel10262422553D

 37 40  0  0  1  0  0  0  0  0999 V2000
  187.1230  177.7000  141.4060 C   0  0  2  0  0  3  0  0  0  0  0  0
  190.2770  176.0750  141.6260 C   0  0  0  0  0  2  0  0  0  0  0  0
  186.2020  178.0510  142.5470 C   0  0  1  0  0  3  0  0  0  0  0  0
  188.4480  177.5670  141.7830 O   0  0  0  0  0  0  0  0  0  0  0  0
  186.6270  177.6430  143.9050 N   0  0  0  0  0  0  0  0  0  0  0  0
  189.0040  176.5940  140.9460 C   0  0  1  0  0  3  0  0  0  0  0  0
  185.9860  179.5380  142.3570 C   0  0  0  0  0  2  0  0  0  0  0  0
  185.6860  177.7930  144.9910 C   0  0  0  0  0  0  0  0  0  0  0  0
  187.1380  178.6260  139.0710 C   0  0  0  0  0  2  0  0  0  0  0  0
  186.0570  179.7730  140.9720 O   0  0  0  0  0  0  0  0  0  0  0  0
  185.8290  177.1230  146.0470 O   0  0  0  0  0  0  0  0  0  0  0  0
  190.0840  175.7910  143.1260 C   0  0  0  0  0  2  0  0  0  0  0  0
  187.1100  178.9450  140.5630 C   0  0  1  0  0  3  0  0  0  0  0  0
  187.6380  176.7360  144.0590 O   0  0  0  0  0  0  0  0  0  0  0  0
  189.2820  177.1880  139.5310 C   0  0  2  0  0  3  0  0  0  0  0  0
  190.0810  177.0500  144.0300 C   0  0  2  0  0  3  0  0  0  0  0  0
  188.7150  177.4150  144.6650 C   0  0  2  0  0  3  0  0  0  0  0  0
  187.9790  177.3780  138.7190 C   0  0  0  0  0  2  0  0  0  0  0  0
  189.7340  175.2910  137.9640 C   0  0  0  0  0  3  0  0  0  0  0  0
  190.2360  176.3490  138.7290 C   0  0  0  0  0  0  0  0  0  0  0  0
  191.6150  176.6100  138.7350 C   0  0  0  0  0  3  0  0  0  0  0  0
  193.8130  176.0690  137.9850 F   0  0  0  0  0  0  0  0  0  0  0  0
  191.9750  174.7590  137.2150 C   0  0  0  0  0  3  0  0  0  0  0  0
  192.4820  175.8150  137.9780 C   0  0  0  0  0  0  0  0  0  0  0  0
  190.6020  174.4970  137.2080 C   0  0  0  0  0  3  0  0  0  0  0  0
  190.0130  179.3890  143.4060 O   0  0  0  0  0  1  0  0  0  0  0  0
  190.8380  178.2640  143.4620 C   0  0  1  0  0  3  0  0  0  0  0  0
  192.0520  178.5750  144.3230 C   0  0  0  0  0  2  0  0  0  0  0  0
  192.0490  180.0380  144.7190 C   0  0  0  0  0  1  0  0  0  0  0  0
  188.7550  177.0610  146.1480 C   0  0  0  0  0  2  0  0  0  0  0  0
  189.7960  177.8780  146.8910 C   0  0  2  0  0  3  0  0  0  0  0  0
  190.9490  177.1320  147.0580 F   0  0  0  0  0  0  0  0  0  0  0  0
  189.2520  178.2570  148.2530 C   0  0  0  0  0  1  0  0  0  0  0  0
  184.4930  178.6880  144.8800 C   0  0  0  0  0  2  0  0  0  0  0  0
  183.4480  178.0030  144.2620 O   0  0  0  0  0  0  0  0  0  0  0  0
  182.1780  178.7720  142.5340 O   0  0  0  0  0  1  0  0  0  0  0  0
  182.5670  179.0030  143.8530 C   0  0  0  0  0  2  0  0  0  0  0  0
  1  4  1  1  0  0  0
  1  3  1  0  0  0  0
  2 12  1  0  0  0  0
  3  7  1  1  0  0  0
  3  5  1  0  0  0  0
  5 14  1  0  0  0  0
  5  8  1  0  0  0  0
  6  2  1  1  0  0  0
  6  4  1  0  0  0  0
  8 11  2  0  0  0  0
 10  7  1  0  0  0  0
 12 16  1  0  0  0  0
 13  9  1  6  0  0  0
 13 10  1  0  0  0  0
 13  1  1  0  0  0  0
 14 17  1  0  0  0  0
 15 20  1  6  0  0  0
 15  6  1  0  0  0  0
 16 27  1  6  0  0  0
 16 17  1  0  0  0  0
 17 30  1  1  0  0  0
 18  9  1  0  0  0  0
 18 15  1  0  0  0  0
 19 20  1  0  0  0  0
 20 21  2  0  0  0  0
 23 24  2  0  0  0  0
 24 22  1  0  0  0  0
 24 21  1  0  0  0  0
 25 23  1  0  0  0  0
 25 19  2  0  0  0  0
 27 26  1  1  0  0  0
 27 28  1  0  0  0  0
 28 29  1  0  0  0  0
 30 31  1  0  0  0  0
 31 32  1  0  0  0  0
 31 33  1  1  0  0  0
 34  8  1  0  0  0  0
 35 34  1  0  0  0  0
 36 37  1  0  0  0  0
 37 35  1  0  0  0  0
M  END
>  <MODEL>
9

>  <REMARK>
 VINA RESULT:      -5.0      3.663      7.349
  Name = 
  8 active torsions:
  status: ('A' for Active; 'I' for Inactive)
    1  A    between atoms: C_1  and  C_5
    2  A    between atoms: C_1  and  C_36
    3  A    between atoms: O_3  and  C_30
    4  A    between atoms: O_3  and  C_32
    5  A    between atoms: C_6  and  C_31
    6  A    between atoms: C_11  and  C_26
    7  A    between atoms: C_20  and  C_30
    8  A    between atoms: C_26  and  C_33
                            x       y       z     vdW  Elec       q    Type
                         _______ _______ _______ _____ _____    ______ ____

>  <TORSDO>
F 8

$$$$
