=
 OpenBabel10262420103D

 27 31  0  0  1  0  0  0  0  0999 V2000
  188.4080  177.8200  144.4000 C   0  0  2  0  0  3  0  0  0  0  0  0
  188.8640  177.8310  142.9600 C   0  0  0  0  0  0  0  0  0  0  0  0
  190.8630  176.4440  143.5640 C   0  0  0  0  0  0  0  0  0  0  0  0
  190.0270  177.5720  139.0350 N   0  0  0  0  0  0  0  0  0  0  0  0
  192.0110  176.3340  138.1640 C   0  0  0  0  0  1  0  0  0  0  0  0
  188.0760  178.5060  142.0010 C   0  0  0  0  0  3  0  0  0  0  0  0
  191.3230  176.4660  140.5590 N   0  0  0  0  0  2  0  0  0  0  0  0
  191.3670  176.6720  147.2890 C   0  0  0  0  0  3  0  0  0  0  0  0
  191.7980  175.6730  143.2160 O   0  0  0  0  0  0  0  0  0  0  0  0
  190.2690  177.3820  147.6570 N   0  0  0  0  0  0  0  0  0  0  0  0
  190.3000  177.0760  141.1810 C   0  0  0  0  0  0  0  0  0  0  0  0
  191.1140  176.7920  139.2580 C   0  0  0  0  0  0  0  0  0  0  0  0
  189.5310  177.7360  140.2700 C   0  0  0  0  0  0  0  0  0  0  0  0
  189.4970  177.4660  145.3900 C   0  0  0  0  0  0  0  0  0  0  0  0
  190.0090  177.0990  142.5520 C   0  0  0  0  0  0  0  0  0  0  0  0
  191.5710  176.3390  145.9520 C   0  0  0  0  0  3  0  0  0  0  0  0
  188.4090  178.4700  140.6370 C   0  0  0  0  0  3  0  0  0  0  0  0
  188.2530  178.4770  147.1710 F   0  0  0  0  0  0  0  0  0  0  0  0
  189.3390  177.7840  146.7490 C   0  0  0  0  0  0  0  0  0  0  0  0
  190.6360  176.7380  144.9900 C   0  0  0  0  0  0  0  0  0  0  0  0
  187.1600  176.9410  144.5900 C   0  0  0  0  0  2  0  0  0  0  0  0
  183.4800  179.1480  144.8040 C   0  0  0  0  0  3  0  0  0  0  0  0
  185.8870  177.7290  144.6630 C   0  0  0  0  0  0  0  0  0  0  0  0
  185.1810  178.0290  143.4920 C   0  0  0  0  0  3  0  0  0  0  0  0
  183.9780  178.7390  143.5630 C   0  0  0  0  0  3  0  0  0  0  0  0
  184.1850  178.8510  145.9730 C   0  0  0  0  0  3  0  0  0  0  0  0
  185.3880  178.1420  145.9040 C   0  0  0  0  0  3  0  0  0  0  0  0
  1 21  1  6  0  0  0
  1 14  1  0  0  0  0
  2  1  1  0  0  0  0
  3 20  1  0  0  0  0
  4 12  2  0  0  0  0
  4 13  1  0  0  0  0
  5 12  1  0  0  0  0
  6  2  2  0  0  0  0
  7 11  1  0  0  0  0
  8 10  1  0  0  0  0
  9  3  2  0  0  0  0
 11 15  2  0  0  0  0
 12  7  1  0  0  0  0
 13 17  2  0  0  0  0
 13 11  1  0  0  0  0
 14 19  1  0  0  0  0
 15  2  1  0  0  0  0
 15  3  1  0  0  0  0
 16  8  2  0  0  0  0
 17  6  1  0  0  0  0
 19 18  1  0  0  0  0
 19 10  2  0  0  0  0
 20 14  2  0  0  0  0
 20 16  1  0  0  0  0
 21 23  1  0  0  0  0
 22 26  1  0  0  0  0
 23 27  1  0  0  0  0
 24 25  1  0  0  0  0
 24 23  2  0  0  0  0
 25 22  2  0  0  0  0
 27 26  2  0  0  0  0
M  END
>  <MODEL>
1

>  <REMARK>
 VINA RESULT:     -10.7      0.000      0.000
  Name = 
  2 active torsions:
  status: ('A' for Active; 'I' for Inactive)
    1  A    between atoms: C_1  and  C_15
    2  A    between atoms: C_9  and  C_15
                            x       y       z     vdW  Elec       q    Type
                         _______ _______ _______ _____ _____    ______ ____

>  <TORSDO>
F 2

$$$$
=
 OpenBabel10262420103D

 27 31  0  0  1  0  0  0  0  0999 V2000
  188.2080  177.4910  143.7360 C   0  0  2  0  0  3  0  0  0  0  0  0
  188.5680  177.3860  142.2730 C   0  0  0  0  0  0  0  0  0  0  0  0
  186.5690  178.7690  141.6630 C   0  0  0  0  0  0  0  0  0  0  0  0
  189.6240  177.3880  138.3090 N   0  0  0  0  0  0  0  0  0  0  0  0
  188.4020  178.5350  136.4590 C   0  0  0  0  0  1  0  0  0  0  0  0
  189.7310  176.6690  141.9070 C   0  0  0  0  0  3  0  0  0  0  0  0
  187.7410  178.5590  138.8650 N   0  0  0  0  0  2  0  0  0  0  0  0
  184.1950  178.7540  144.5860 C   0  0  0  0  0  3  0  0  0  0  0  0
  185.9630  179.5000  140.8330 O   0  0  0  0  0  0  0  0  0  0  0  0
  184.9310  178.0870  145.5140 N   0  0  0  0  0  0  0  0  0  0  0  0
  188.2800  178.0060  139.9640 C   0  0  0  0  0  0  0  0  0  0  0  0
  188.5910  178.1590  137.8860 C   0  0  0  0  0  0  0  0  0  0  0  0
  189.4020  177.3080  139.6280 C   0  0  0  0  0  0  0  0  0  0  0  0
  186.7690  177.8830  143.9900 C   0  0  0  0  0  0  0  0  0  0  0  0
  187.8160  178.0710  141.2850 C   0  0  0  0  0  0  0  0  0  0  0  0
  184.7230  179.0030  143.3210 C   0  0  0  0  0  3  0  0  0  0  0  0
  190.1570  176.6180  140.5700 C   0  0  0  0  0  3  0  0  0  0  0  0
  186.8880  177.0030  146.2160 F   0  0  0  0  0  0  0  0  0  0  0  0
  186.1910  177.6500  145.2490 C   0  0  0  0  0  0  0  0  0  0  0  0
  186.0160  178.5650  143.0130 C   0  0  0  0  0  0  0  0  0  0  0  0
  189.1880  178.4020  144.4940 C   0  0  0  0  0  2  0  0  0  0  0  0
  191.5650  176.2410  147.3470 C   0  0  0  0  0  3  0  0  0  0  0  0
  190.0300  177.6650  145.4920 C   0  0  0  0  0  0  0  0  0  0  0  0
  189.6970  177.7000  146.8510 C   0  0  0  0  0  3  0  0  0  0  0  0
  190.4640  176.9880  147.7780 C   0  0  0  0  0  3  0  0  0  0  0  0
  191.9000  176.2070  145.9910 C   0  0  0  0  0  3  0  0  0  0  0  0
  191.1330  176.9180  145.0630 C   0  0  0  0  0  3  0  0  0  0  0  0
  1 14  1  0  0  0  0
  1 21  1  6  0  0  0
  2  1  1  0  0  0  0
  3 20  1  0  0  0  0
  4 13  1  0  0  0  0
  5 12  1  0  0  0  0
  6  2  1  0  0  0  0
  7 11  1  0  0  0  0
  8 10  1  0  0  0  0
  9  3  2  0  0  0  0
 11 15  1  0  0  0  0
 12  4  2  0  0  0  0
 12  7  1  0  0  0  0
 13 11  2  0  0  0  0
 13 17  1  0  0  0  0
 14 19  1  0  0  0  0
 15  3  1  0  0  0  0
 15  2  2  0  0  0  0
 16  8  2  0  0  0  0
 17  6  2  0  0  0  0
 19 10  2  0  0  0  0
 19 18  1  0  0  0  0
 20 16  1  0  0  0  0
 20 14  2  0  0  0  0
 21 23  1  0  0  0  0
 22 25  1  0  0  0  0
 23 24  1  0  0  0  0
 24 25  2  0  0  0  0
 26 22  2  0  0  0  0
 27 23  2  0  0  0  0
 27 26  1  0  0  0  0
M  END
>  <MODEL>
2

>  <REMARK>
 VINA RESULT:     -10.6      2.258      5.002
  Name = 
  2 active torsions:
  status: ('A' for Active; 'I' for Inactive)
    1  A    between atoms: C_1  and  C_15
    2  A    between atoms: C_9  and  C_15
                            x       y       z     vdW  Elec       q    Type
                         _______ _______ _______ _____ _____    ______ ____

>  <TORSDO>
F 2

$$$$
=
 OpenBabel10262420103D

 27 31  0  0  1  0  0  0  0  0999 V2000
  187.6460  177.5570  144.2450 C   0  0  2  0  0  3  0  0  0  0  0  0
  188.0960  177.4000  142.8120 C   0  0  0  0  0  0  0  0  0  0  0  0
  186.2730  178.9440  142.0500 C   0  0  0  0  0  0  0  0  0  0  0  0
  189.4210  177.2540  138.9320 N   0  0  0  0  0  0  0  0  0  0  0  0
  188.4370  178.4760  136.9920 C   0  0  0  0  0  1  0  0  0  0  0  0
  189.2140  176.5800  142.5350 C   0  0  0  0  0  3  0  0  0  0  0  0
  187.6140  178.5920  139.3450 N   0  0  0  0  0  2  0  0  0  0  0  0
  183.7090  179.1770  144.7990 C   0  0  0  0  0  3  0  0  0  0  0  0
  185.7940  179.7130  141.1740 O   0  0  0  0  0  0  0  0  0  0  0  0
  184.3170  178.4620  145.7820 N   0  0  0  0  0  0  0  0  0  0  0  0
  188.0250  178.0100  140.4830 C   0  0  0  0  0  0  0  0  0  0  0  0
  188.4920  178.1060  138.4310 C   0  0  0  0  0  0  0  0  0  0  0  0
  189.1010  177.2120  140.2330 C   0  0  0  0  0  0  0  0  0  0  0  0
  186.2320  178.0770  144.3940 C   0  0  0  0  0  0  0  0  0  0  0  0
  187.4770  178.1340  141.7670 C   0  0  0  0  0  0  0  0  0  0  0  0
  184.3440  179.3610  143.5720 C   0  0  0  0  0  3  0  0  0  0  0  0
  189.7260  176.4730  141.2310 C   0  0  0  0  0  3  0  0  0  0  0  0
  186.1180  177.2210  146.6290 F   0  0  0  0  0  0  0  0  0  0  0  0
  185.5500  177.9130  145.6100 C   0  0  0  0  0  0  0  0  0  0  0  0
  185.6120  178.8080  143.3600 C   0  0  0  0  0  0  0  0  0  0  0  0
  188.6470  178.3900  145.0630 C   0  0  0  0  0  2  0  0  0  0  0  0
  191.4890  176.0420  147.2690 C   0  0  0  0  0  3  0  0  0  0  0  0
  189.6320  177.5540  145.8220 C   0  0  0  0  0  0  0  0  0  0  0  0
  190.9370  177.3980  145.3400 C   0  0  0  0  0  3  0  0  0  0  0  0
  191.8640  176.6420  146.0640 C   0  0  0  0  0  3  0  0  0  0  0  0
  190.1850  176.1950  147.7510 C   0  0  0  0  0  3  0  0  0  0  0  0
  189.2570  176.9510  147.0280 C   0  0  0  0  0  3  0  0  0  0  0  0
  1 14  1  0  0  0  0
  1 21  1  1  0  0  0
  2  1  1  0  0  0  0
  3 20  1  0  0  0  0
  4 13  1  0  0  0  0
  5 12  1  0  0  0  0
  6  2  1  0  0  0  0
  7 11  1  0  0  0  0
  8 10  1  0  0  0  0
  9  3  2  0  0  0  0
 11 15  1  0  0  0  0
 12  4  2  0  0  0  0
 12  7  1  0  0  0  0
 13 11  2  0  0  0  0
 13 17  1  0  0  0  0
 14 19  1  0  0  0  0
 15  3  1  0  0  0  0
 15  2  2  0  0  0  0
 16  8  2  0  0  0  0
 17  6  2  0  0  0  0
 19 10  2  0  0  0  0
 19 18  1  0  0  0  0
 20 16  1  0  0  0  0
 20 14  2  0  0  0  0
 21 23  1  0  0  0  0
 22 26  1  0  0  0  0
 23 27  1  0  0  0  0
 24 23  2  0  0  0  0
 24 25  1  0  0  0  0
 25 22  2  0  0  0  0
 27 26  2  0  0  0  0
M  END
>  <MODEL>
3

>  <REMARK>
 VINA RESULT:     -10.3      2.309      5.020
  Name = 
  2 active torsions:
  status: ('A' for Active; 'I' for Inactive)
    1  A    between atoms: C_1  and  C_15
    2  A    between atoms: C_9  and  C_15
                            x       y       z     vdW  Elec       q    Type
                         _______ _______ _______ _____ _____    ______ ____

>  <TORSDO>
F 2

$$$$
=
 OpenBabel10262420103D

 27 31  0  0  1  0  0  0  0  0999 V2000
  186.3580  178.4340  142.8530 C   0  0  2  0  0  3  0  0  0  0  0  0
  184.8860  178.7060  143.0600 C   0  0  0  0  0  0  0  0  0  0  0  0
  184.4410  178.2400  140.6380 C   0  0  0  0  0  0  0  0  0  0  0  0
  180.8430  179.1530  143.5890 N   0  0  0  0  0  0  0  0  0  0  0  0
  179.0900  178.8920  141.8320 C   0  0  0  0  0  1  0  0  0  0  0  0
  184.4320  179.0440  144.3550 C   0  0  0  0  0  3  0  0  0  0  0  0
  181.5430  178.6050  141.4830 N   0  0  0  0  0  2  0  0  0  0  0  0
  187.7090  178.4650  138.7790 C   0  0  0  0  0  3  0  0  0  0  0  0
  183.6320  177.9440  139.7170 O   0  0  0  0  0  0  0  0  0  0  0  0
  188.5800  178.6380  139.8070 N   0  0  0  0  0  0  0  0  0  0  0  0
  182.5990  178.7050  142.3070 C   0  0  0  0  0  0  0  0  0  0  0  0
  180.4990  178.8820  142.3050 C   0  0  0  0  0  0  0  0  0  0  0  0
  182.1780  179.0340  143.5610 C   0  0  0  0  0  0  0  0  0  0  0  0
  186.8020  178.5120  141.4090 C   0  0  0  0  0  0  0  0  0  0  0  0
  183.9570  178.5350  142.0030 C   0  0  0  0  0  0  0  0  0  0  0  0
  186.3470  178.3150  139.0330 C   0  0  0  0  0  3  0  0  0  0  0  0
  183.0620  179.2190  144.6180 C   0  0  0  0  0  3  0  0  0  0  0  0
  189.0780  178.8260  142.0910 F   0  0  0  0  0  0  0  0  0  0  0  0
  188.1640  178.6660  141.1020 C   0  0  0  0  0  0  0  0  0  0  0  0
  185.8830  178.3400  140.3540 C   0  0  0  0  0  0  0  0  0  0  0  0
  186.7840  177.1100  143.5090 C   0  0  0  0  0  2  0  0  0  0  0  0
  189.1400  177.5990  147.0690 C   0  0  0  0  0  3  0  0  0  0  0  0
  187.6080  177.3010  144.7460 C   0  0  0  0  0  0  0  0  0  0  0  0
  186.9870  177.6210  145.9590 C   0  0  0  0  0  3  0  0  0  0  0  0
  187.7530  177.7700  147.1200 C   0  0  0  0  0  3  0  0  0  0  0  0
  189.7620  177.2810  145.8580 C   0  0  0  0  0  3  0  0  0  0  0  0
  188.9970  177.1320  144.6970 C   0  0  0  0  0  3  0  0  0  0  0  0
  1  2  1  0  0  0  0
  1 21  1  6  0  0  0
  2  6  1  0  0  0  0
  3 15  1  0  0  0  0
  5 12  1  0  0  0  0
  6 17  2  0  0  0  0
  7 12  1  0  0  0  0
  7 11  1  0  0  0  0
  8 16  2  0  0  0  0
  8 10  1  0  0  0  0
  9  3  2  0  0  0  0
 10 19  2  0  0  0  0
 11 13  2  0  0  0  0
 12  4  2  0  0  0  0
 13  4  1  0  0  0  0
 13 17  1  0  0  0  0
 14  1  1  0  0  0  0
 15 11  1  0  0  0  0
 15  2  2  0  0  0  0
 16 20  1  0  0  0  0
 19 14  1  0  0  0  0
 19 18  1  0  0  0  0
 20  3  1  0  0  0  0
 20 14  2  0  0  0  0
 21 23  1  0  0  0  0
 22 25  1  0  0  0  0
 23 24  1  0  0  0  0
 24 25  2  0  0  0  0
 26 22  2  0  0  0  0
 27 23  2  0  0  0  0
 27 26  1  0  0  0  0
M  END
>  <MODEL>
4

>  <REMARK>
 VINA RESULT:      -9.7      3.806      7.231
  Name = 
  2 active torsions:
  status: ('A' for Active; 'I' for Inactive)
    1  A    between atoms: C_1  and  C_15
    2  A    between atoms: C_9  and  C_15
                            x       y       z     vdW  Elec       q    Type
                         _______ _______ _______ _____ _____    ______ ____

>  <TORSDO>
F 2

$$$$
=
 OpenBabel10262420103D

 27 31  0  0  1  0  0  0  0  0999 V2000
  188.0090  178.1880  142.5540 C   0  0  2  0  0  3  0  0  0  0  0  0
  187.2870  178.3180  141.2340 C   0  0  0  0  0  0  0  0  0  0  0  0
  189.2460  177.3060  140.0420 C   0  0  0  0  0  0  0  0  0  0  0  0
  185.2940  178.3750  137.6480 N   0  0  0  0  0  0  0  0  0  0  0  0
  186.1680  177.5430  135.4640 C   0  0  0  0  0  1  0  0  0  0  0  0
  185.9820  178.8610  141.2220 C   0  0  0  0  0  3  0  0  0  0  0  0
  187.4000  177.4870  137.6320 N   0  0  0  0  0  2  0  0  0  0  0  0
  192.2430  177.5300  142.3110 C   0  0  0  0  0  3  0  0  0  0  0  0
  189.7230  176.7280  139.0280 O   0  0  0  0  0  0  0  0  0  0  0  0
  191.6750  178.0170  143.4440 N   0  0  0  0  0  0  0  0  0  0  0  0
  187.0780  177.8840  138.8750 C   0  0  0  0  0  0  0  0  0  0  0  0
  186.2870  177.8020  136.9230 C   0  0  0  0  0  0  0  0  0  0  0  0
  185.8220  178.4140  138.8800 C   0  0  0  0  0  0  0  0  0  0  0  0
  189.5070  178.0150  142.4240 C   0  0  0  0  0  0  0  0  0  0  0  0
  187.8600  177.8180  140.0360 C   0  0  0  0  0  0  0  0  0  0  0  0
  191.4590  177.2730  141.1880 C   0  0  0  0  0  3  0  0  0  0  0  0
  185.2350  178.9200  140.0330 C   0  0  0  0  0  3  0  0  0  0  0  0
  189.8210  178.7370  144.6870 F   0  0  0  0  0  0  0  0  0  0  0  0
  190.3400  178.2650  143.5270 C   0  0  0  0  0  0  0  0  0  0  0  0
  190.0820  177.5170  141.2370 C   0  0  0  0  0  0  0  0  0  0  0  0
  187.3840  177.0910  143.4330 C   0  0  0  0  0  2  0  0  0  0  0  0
  185.5660  178.6760  146.9890 C   0  0  0  0  0  3  0  0  0  0  0  0
  186.7400  177.6250  144.6770 C   0  0  0  0  0  0  0  0  0  0  0  0
  187.4000  177.5230  145.9070 C   0  0  0  0  0  3  0  0  0  0  0  0
  186.8130  178.0490  147.0620 C   0  0  0  0  0  3  0  0  0  0  0  0
  184.9050  178.7780  145.7610 C   0  0  0  0  0  3  0  0  0  0  0  0
  185.4910  178.2530  144.6050 C   0  0  0  0  0  3  0  0  0  0  0  0
  1 21  1  6  0  0  0
  2  1  1  0  0  0  0
  3 20  1  0  0  0  0
  4 13  1  0  0  0  0
  5 12  1  0  0  0  0
  6  2  1  0  0  0  0
  7 11  1  0  0  0  0
  8 10  1  0  0  0  0
  9  3  2  0  0  0  0
 10 19  2  0  0  0  0
 11 13  2  0  0  0  0
 11 15  1  0  0  0  0
 12  7  1  0  0  0  0
 12  4  2  0  0  0  0
 13 17  1  0  0  0  0
 14  1  1  0  0  0  0
 14 19  1  0  0  0  0
 15  3  1  0  0  0  0
 15  2  2  0  0  0  0
 16 20  1  0  0  0  0
 16  8  2  0  0  0  0
 17  6  2  0  0  0  0
 19 18  1  0  0  0  0
 20 14  2  0  0  0  0
 21 23  1  0  0  0  0
 22 25  1  0  0  0  0
 23 24  1  0  0  0  0
 24 25  2  0  0  0  0
 26 22  2  0  0  0  0
 27 23  2  0  0  0  0
 27 26  1  0  0  0  0
M  END
>  <MODEL>
5

>  <REMARK>
 VINA RESULT:      -9.5      2.590      3.803
  Name = 
  2 active torsions:
  status: ('A' for Active; 'I' for Inactive)
    1  A    between atoms: C_1  and  C_15
    2  A    between atoms: C_9  and  C_15
                            x       y       z     vdW  Elec       q    Type
                         _______ _______ _______ _____ _____    ______ ____

>  <TORSDO>
F 2

$$$$
=
 OpenBabel10262420103D

 27 31  0  0  1  0  0  0  0  0999 V2000
  186.1360  177.8700  142.4910 C   0  0  2  0  0  3  0  0  0  0  0  0
  184.6580  178.0930  142.2720 C   0  0  0  0  0  0  0  0  0  0  0  0
  184.3910  178.7960  144.6630 C   0  0  0  0  0  0  0  0  0  0  0  0
  180.6970  178.9920  141.6960 N   0  0  0  0  0  0  0  0  0  0  0  0
  179.1290  179.9050  143.4100 C   0  0  0  0  0  1  0  0  0  0  0  0
  184.1180  177.8650  140.9860 C   0  0  0  0  0  3  0  0  0  0  0  0
  181.5380  179.3760  143.7870 N   0  0  0  0  0  2  0  0  0  0  0  0
  187.3960  177.5850  146.5840 C   0  0  0  0  0  3  0  0  0  0  0  0
  183.7260  179.3880  145.5560 O   0  0  0  0  0  0  0  0  0  0  0  0
  188.1610  177.0830  145.5800 N   0  0  0  0  0  0  0  0  0  0  0  0
  182.5010  178.8910  142.9860 C   0  0  0  0  0  0  0  0  0  0  0  0
  180.4620  179.4230  142.9610 C   0  0  0  0  0  0  0  0  0  0  0  0
  181.9960  178.6620  141.7410 C   0  0  0  0  0  0  0  0  0  0  0  0
  186.5280  177.7180  143.9450 C   0  0  0  0  0  0  0  0  0  0  0  0
  183.8380  178.6150  143.3050 C   0  0  0  0  0  0  0  0  0  0  0  0
  186.1620  178.1680  146.3010 C   0  0  0  0  0  3  0  0  0  0  0  0
  182.7690  178.1430  140.7090 C   0  0  0  0  0  3  0  0  0  0  0  0
  188.5690  176.6320  143.3150 F   0  0  0  0  0  0  0  0  0  0  0  0
  187.7610  177.1340  144.2810 C   0  0  0  0  0  0  0  0  0  0  0  0
  185.7180  178.2350  144.9760 C   0  0  0  0  0  0  0  0  0  0  0  0
  186.9800  178.9440  141.7840 C   0  0  0  0  0  2  0  0  0  0  0  0
  189.2900  177.3380  138.5370 C   0  0  0  0  0  3  0  0  0  0  0  0
  187.7910  178.4040  140.6460 C   0  0  0  0  0  0  0  0  0  0  0  0
  189.1230  178.0250  140.8530 C   0  0  0  0  0  3  0  0  0  0  0  0
  189.8720  177.4930  139.7980 C   0  0  0  0  0  3  0  0  0  0  0  0
  187.9600  177.7170  138.3280 C   0  0  0  0  0  3  0  0  0  0  0  0
  187.2110  178.2490  139.3820 C   0  0  0  0  0  3  0  0  0  0  0  0
  1 21  1  1  0  0  0
  1 14  1  0  0  0  0
  2  1  1  0  0  0  0
  2 15  1  0  0  0  0
  3 20  1  0  0  0  0
  3  9  2  0  0  0  0
  4 13  1  0  0  0  0
  4 12  2  0  0  0  0
  6  2  2  0  0  0  0
 10  8  2  0  0  0  0
 11 15  2  0  0  0  0
 11  7  1  0  0  0  0
 12  5  1  0  0  0  0
 12  7  1  0  0  0  0
 13 11  1  0  0  0  0
 14 19  2  0  0  0  0
 14 20  1  0  0  0  0
 15  3  1  0  0  0  0
 16  8  1  0  0  0  0
 17  6  1  0  0  0  0
 17 13  2  0  0  0  0
 18 19  1  0  0  0  0
 19 10  1  0  0  0  0
 20 16  2  0  0  0  0
 22 25  1  0  0  0  0
 23 24  1  0  0  0  0
 23 21  1  0  0  0  0
 25 24  2  0  0  0  0
 26 22  2  0  0  0  0
 26 27  1  0  0  0  0
 27 23  2  0  0  0  0
M  END
>  <MODEL>
6

>  <REMARK>
 VINA RESULT:      -9.3      3.803      7.079
  Name = 
  2 active torsions:
  status: ('A' for Active; 'I' for Inactive)
    1  A    between atoms: C_1  and  C_15
    2  A    between atoms: C_9  and  C_15
                            x       y       z     vdW  Elec       q    Type
                         _______ _______ _______ _____ _____    ______ ____

>  <TORSDO>
F 2

$$$$
=
 OpenBabel10262420103D

 27 31  0  0  1  0  0  0  0  0999 V2000
  187.9440  177.6710  144.2200 C   0  0  2  0  0  3  0  0  0  0  0  0
  186.5340  177.8740  143.7170 C   0  0  0  0  0  0  0  0  0  0  0  0
  185.8140  178.6460  145.9910 C   0  0  0  0  0  0  0  0  0  0  0  0
  182.7530  178.7210  142.3710 N   0  0  0  0  0  0  0  0  0  0  0  0
  180.8850  179.6710  143.7260 C   0  0  0  0  0  1  0  0  0  0  0  0
  186.2490  177.6030  142.3600 C   0  0  0  0  0  3  0  0  0  0  0  0
  183.1790  179.1750  144.5700 N   0  0  0  0  0  2  0  0  0  0  0  0
  188.4020  177.5190  148.4850 C   0  0  0  0  0  3  0  0  0  0  0  0
  184.9900  179.2590  146.7230 O   0  0  0  0  0  0  0  0  0  0  0  0
  189.3460  176.9940  147.6610 N   0  0  0  0  0  0  0  0  0  0  0  0
  184.2780  178.6740  143.9830 C   0  0  0  0  0  0  0  0  0  0  0  0
  182.2800  179.1880  143.5540 C   0  0  0  0  0  0  0  0  0  0  0  0
  184.0200  178.4040  142.6720 C   0  0  0  0  0  0  0  0  0  0  0  0
  188.0520  177.5660  145.7260 C   0  0  0  0  0  0  0  0  0  0  0  0
  185.5300  178.4190  144.5590 C   0  0  0  0  0  0  0  0  0  0  0  0
  187.2430  178.0820  147.9550 C   0  0  0  0  0  3  0  0  0  0  0  0
  184.9770  177.8620  141.8220 C   0  0  0  0  0  3  0  0  0  0  0  0
  190.1790  176.4800  145.5300 F   0  0  0  0  0  0  0  0  0  0  0  0
  189.2000  177.0030  146.3090 C   0  0  0  0  0  0  0  0  0  0  0  0
  187.0590  178.1060  146.5680 C   0  0  0  0  0  0  0  0  0  0  0  0
  188.9040  178.7300  143.6540 C   0  0  0  0  0  2  0  0  0  0  0  0
  191.5500  177.2460  140.6130 C   0  0  0  0  0  3  0  0  0  0  0  0
  189.8220  178.1930  142.5990 C   0  0  0  0  0  0  0  0  0  0  0  0
  189.3320  177.9140  141.3180 C   0  0  0  0  0  3  0  0  0  0  0  0
  190.1960  177.4410  140.3250 C   0  0  0  0  0  3  0  0  0  0  0  0
  192.0410  177.5220  141.8920 C   0  0  0  0  0  3  0  0  0  0  0  0
  191.1780  177.9950  142.8850 C   0  0  0  0  0  3  0  0  0  0  0  0
  1 21  1  1  0  0  0
  1 14  1  0  0  0  0
  2  1  1  0  0  0  0
  2 15  1  0  0  0  0
  3 20  1  0  0  0  0
  3  9  2  0  0  0  0
  4 13  1  0  0  0  0
  4 12  2  0  0  0  0
  6  2  2  0  0  0  0
 10  8  2  0  0  0  0
 11 15  2  0  0  0  0
 11  7  1  0  0  0  0
 12  5  1  0  0  0  0
 12  7  1  0  0  0  0
 13 11  1  0  0  0  0
 14 19  2  0  0  0  0
 14 20  1  0  0  0  0
 15  3  1  0  0  0  0
 16  8  1  0  0  0  0
 17  6  1  0  0  0  0
 17 13  2  0  0  0  0
 18 19  1  0  0  0  0
 19 10  1  0  0  0  0
 20 16  2  0  0  0  0
 22 26  1  0  0  0  0
 23 27  1  0  0  0  0
 23 21  1  0  0  0  0
 24 23  2  0  0  0  0
 25 22  2  0  0  0  0
 25 24  1  0  0  0  0
 26 27  2  0  0  0  0
M  END
>  <MODEL>
7

>  <REMARK>
 VINA RESULT:      -9.2      3.102      6.211
  Name = 
  2 active torsions:
  status: ('A' for Active; 'I' for Inactive)
    1  A    between atoms: C_1  and  C_15
    2  A    between atoms: C_9  and  C_15
                            x       y       z     vdW  Elec       q    Type
                         _______ _______ _______ _____ _____    ______ ____

>  <TORSDO>
F 2

$$$$
=
 OpenBabel10262420103D

 27 31  0  0  1  0  0  0  0  0999 V2000
  187.2490  178.0880  142.5270 C   0  0  2  0  0  3  0  0  0  0  0  0
  185.8940  178.4300  143.1000 C   0  0  0  0  0  0  0  0  0  0  0  0
  184.8690  178.2730  140.8170 C   0  0  0  0  0  0  0  0  0  0  0  0
  182.1330  179.0760  144.6070 N   0  0  0  0  0  0  0  0  0  0  0  0
  180.0100  179.1310  143.2970 C   0  0  0  0  0  1  0  0  0  0  0  0
  185.7770  178.6470  144.4920 C   0  0  0  0  0  3  0  0  0  0  0  0
  182.2840  178.7270  142.3530 N   0  0  0  0  0  2  0  0  0  0  0  0
  187.6350  178.4960  138.2720 C   0  0  0  0  0  3  0  0  0  0  0  0
  183.8480  178.1370  140.0890 O   0  0  0  0  0  0  0  0  0  0  0  0
  188.7300  178.4940  139.0770 N   0  0  0  0  0  0  0  0  0  0  0  0
  183.5050  178.6630  142.9110 C   0  0  0  0  0  0  0  0  0  0  0  0
  181.4840  178.9760  143.4200 C   0  0  0  0  0  0  0  0  0  0  0  0
  183.4110  178.8740  144.2540 C   0  0  0  0  0  0  0  0  0  0  0  0
  187.3580  178.3010  141.0330 C   0  0  0  0  0  0  0  0  0  0  0  0
  184.7360  178.4410  142.2800 C   0  0  0  0  0  0  0  0  0  0  0  0
  186.3590  178.4070  138.8240 C   0  0  0  0  0  3  0  0  0  0  0  0
  184.5250  178.8790  145.0850 C   0  0  0  0  0  3  0  0  0  0  0  0
  189.7480  178.3870  141.1860 F   0  0  0  0  0  0  0  0  0  0  0  0
  188.6230  178.4010  140.4300 C   0  0  0  0  0  0  0  0  0  0  0  0
  186.2120  178.3120  140.2120 C   0  0  0  0  0  0  0  0  0  0  0  0
  187.6930  176.6730  142.9340 C   0  0  0  0  0  2  0  0  0  0  0  0
  191.4450  176.6630  145.0270 C   0  0  0  0  0  3  0  0  0  0  0  0
  188.9950  176.6520  143.6740 C   0  0  0  0  0  0  0  0  0  0  0  0
  190.1000  175.9850  143.1310 C   0  0  0  0  0  3  0  0  0  0  0  0
  191.3230  175.9910  143.8070 C   0  0  0  0  0  3  0  0  0  0  0  0
  190.3430  177.3280  145.5720 C   0  0  0  0  0  3  0  0  0  0  0  0
  189.1180  177.3240  144.8960 C   0  0  0  0  0  3  0  0  0  0  0  0
  1 21  1  6  0  0  0
  1  2  1  0  0  0  0
  2  6  1  0  0  0  0
  3 15  1  0  0  0  0
  5 12  1  0  0  0  0
  6 17  2  0  0  0  0
  7 11  1  0  0  0  0
  7 12  1  0  0  0  0
  8 16  2  0  0  0  0
  8 10  1  0  0  0  0
  9  3  2  0  0  0  0
 10 19  2  0  0  0  0
 11 13  2  0  0  0  0
 12  4  2  0  0  0  0
 13  4  1  0  0  0  0
 13 17  1  0  0  0  0
 14  1  1  0  0  0  0
 15 11  1  0  0  0  0
 15  2  2  0  0  0  0
 16 20  1  0  0  0  0
 19 14  1  0  0  0  0
 19 18  1  0  0  0  0
 20  3  1  0  0  0  0
 20 14  2  0  0  0  0
 21 23  1  0  0  0  0
 22 26  1  0  0  0  0
 23 27  1  0  0  0  0
 24 23  2  0  0  0  0
 24 25  1  0  0  0  0
 25 22  2  0  0  0  0
 27 26  2  0  0  0  0
M  END
>  <MODEL>
8

>  <REMARK>
 VINA RESULT:      -9.1      3.509      7.298
  Name = 
  2 active torsions:
  status: ('A' for Active; 'I' for Inactive)
    1  A    between atoms: C_1  and  C_15
    2  A    between atoms: C_9  and  C_15
                            x       y       z     vdW  Elec       q    Type
                         _______ _______ _______ _____ _____    ______ ____

>  <TORSDO>
F 2

$$$$
=
 OpenBabel10262420103D

 27 31  0  0  1  0  0  0  0  0999 V2000
  188.0260  177.5450  141.8240 C   0  0  2  0  0  3  0  0  0  0  0  0
  188.4050  177.2680  143.2590 C   0  0  0  0  0  0  0  0  0  0  0  0
  190.8340  177.4730  142.6770 C   0  0  0  0  0  0  0  0  0  0  0  0
  189.5130  176.8020  147.1810 N   0  0  0  0  0  0  0  0  0  0  0  0
  191.8450  176.8470  148.0690 C   0  0  0  0  0  1  0  0  0  0  0  0
  187.3770  177.0570  144.2070 C   0  0  0  0  0  3  0  0  0  0  0  0
  191.2000  177.1430  145.6770 N   0  0  0  0  0  2  0  0  0  0  0  0
  191.1790  177.1200  138.9430 C   0  0  0  0  0  3  0  0  0  0  0  0
  192.0280  177.6580  143.0370 O   0  0  0  0  0  0  0  0  0  0  0  0
  189.8750  177.0700  138.5660 N   0  0  0  0  0  0  0  0  0  0  0  0
  190.0140  177.1480  145.0470 C   0  0  0  0  0  0  0  0  0  0  0  0
  190.8470  176.9330  146.9700 C   0  0  0  0  0  0  0  0  0  0  0  0
  189.0110  176.9430  145.9460 C   0  0  0  0  0  0  0  0  0  0  0  0
  189.1510  177.3270  140.8350 C   0  0  0  0  0  0  0  0  0  0  0  0
  189.7590  177.3120  143.6780 C   0  0  0  0  0  0  0  0  0  0  0  0
  191.5140  177.2690  140.2870 C   0  0  0  0  0  3  0  0  0  0  0  0
  187.6740  176.8850  145.5690 C   0  0  0  0  0  3  0  0  0  0  0  0
  187.5790  177.1280  139.0380 F   0  0  0  0  0  0  0  0  0  0  0  0
  188.8640  177.1680  139.4700 C   0  0  0  0  0  0  0  0  0  0  0  0
  190.4990  177.3720  141.2450 C   0  0  0  0  0  0  0  0  0  0  0  0
  187.3920  178.9370  141.6660 C   0  0  0  0  0  2  0  0  0  0  0  0
  183.1120  178.7630  141.3380 C   0  0  0  0  0  3  0  0  0  0  0  0
  185.8980  178.8980  141.5520 C   0  0  0  0  0  0  0  0  0  0  0  0
  185.2920  178.8810  140.2910 C   0  0  0  0  0  3  0  0  0  0  0  0
  183.8990  178.8140  140.1840 C   0  0  0  0  0  3  0  0  0  0  0  0
  183.7150  178.7810  142.5980 C   0  0  0  0  0  3  0  0  0  0  0  0
  185.1080  178.8480  142.7060 C   0  0  0  0  0  3  0  0  0  0  0  0
  1 21  1  1  0  0  0
  1  2  1  0  0  0  0
  2 15  2  0  0  0  0
  2  6  1  0  0  0  0
  3  9  2  0  0  0  0
  3 15  1  0  0  0  0
  6 17  2  0  0  0  0
  7 12  1  0  0  0  0
  8 16  1  0  0  0  0
 10  8  2  0  0  0  0
 10 19  1  0  0  0  0
 11  7  1  0  0  0  0
 11 13  2  0  0  0  0
 12  4  2  0  0  0  0
 12  5  1  0  0  0  0
 13  4  1  0  0  0  0
 14 20  1  0  0  0  0
 14  1  1  0  0  0  0
 15 11  1  0  0  0  0
 16 20  2  0  0  0  0
 17 13  1  0  0  0  0
 18 19  1  0  0  0  0
 19 14  2  0  0  0  0
 20  3  1  0  0  0  0
 22 26  1  0  0  0  0
 23 21  1  0  0  0  0
 23 27  1  0  0  0  0
 24 23  2  0  0  0  0
 25 24  1  0  0  0  0
 25 22  2  0  0  0  0
 26 27  2  0  0  0  0
M  END
>  <MODEL>
9

>  <REMARK>
 VINA RESULT:      -9.0      2.159      5.352
  Name = 
  2 active torsions:
  status: ('A' for Active; 'I' for Inactive)
    1  A    between atoms: C_1  and  C_15
    2  A    between atoms: C_9  and  C_15
                            x       y       z     vdW  Elec       q    Type
                         _______ _______ _______ _____ _____    ______ ____

>  <TORSDO>
F 2

$$$$
