=
 OpenBabel10262422443D

 43 47  0  0  1  0  0  0  0  0999 V2000
  181.0950  178.7970  139.7560 C   0  0  1  0  0  3  0  0  0  0  0  0
  185.2520  177.0170  136.9970 C   0  0  1  0  0  3  0  0  0  0  0  0
  183.0350  176.4810  137.9430 C   0  0  1  0  0  3  0  0  0  0  0  0
  185.4050  178.2470  137.9190 C   0  0  0  0  0  2  0  0  0  0  0  0
  186.5140  176.5180  136.6840 O   0  0  0  0  0  1  0  0  0  0  0  0
  183.1440  177.6730  138.8130 C   0  0  0  0  0  0  0  0  0  0  0  0
  184.4130  175.9100  137.6430 C   0  0  0  0  0  2  0  0  0  0  0  0
  184.2160  178.4810  138.8250 C   0  0  0  0  0  3  0  0  0  0  0  0
  182.1060  177.6430  139.8730 C   0  0  2  0  0  3  0  0  0  0  0  0
  181.4170  176.3610  139.7270 N   0  0  0  0  0  2  0  0  0  0  0  0
  182.1970  175.5470  138.7880 C   0  0  0  0  0  2  0  0  0  0  0  0
  180.5760  179.0500  138.3230 C   0  0  1  0  0  3  0  0  0  0  0  0
  179.7450  177.9950  137.9370 O   0  0  0  0  0  1  0  0  0  0  0  0
  179.8200  180.2940  138.2720 N   0  0  0  0  0  2  0  0  0  0  0  0
  181.1460  183.5860  137.0710 C   0  0  0  0  0  0  0  0  0  0  0  0
  180.8150  183.5220  135.7090 C   0  0  0  0  0  0  0  0  0  0  0  0
  181.0760  184.5650  134.8880 F   0  0  0  0  0  0  0  0  0  0  0  0
  179.8670  181.3140  136.0530 C   0  0  0  0  0  3  0  0  0  0  0  0
  180.8260  182.5200  137.9170 C   0  0  0  0  0  3  0  0  0  0  0  0
  180.1740  181.3820  137.4160 C   0  0  0  0  0  0  0  0  0  0  0  0
  181.9350  185.0030  137.7350 Cl  0  0  0  0  0  0  0  0  0  0  0  0
  180.1850  182.3800  135.2030 C   0  0  0  0  0  3  0  0  0  0  0  0
  180.1500  178.7950  140.8150 O   0  0  0  0  0  0  0  0  0  0  0  0
  180.5950  179.5250  141.9390 C   0  0  1  0  0  3  0  0  0  0  0  0
  179.7020  180.5640  142.2290 O   0  0  0  0  0  1  0  0  0  0  0  0
  180.7560  178.6210  143.1750 C   0  0  2  0  0  3  0  0  0  0  0  0
  179.7010  178.9990  144.2030 C   0  0  0  0  0  1  0  0  0  0  0  0
  182.1210  178.7320  143.7930 C   0  0  0  0  0  3  0  0  0  0  0  0
  183.2260  179.0160  143.0950 C   0  0  0  0  0  3  0  0  0  0  0  0
  184.5630  179.0070  143.7820 C   0  0  0  0  0  2  0  0  0  0  0  0
  185.5790  178.2380  142.9270 C   0  0  1  0  0  3  0  0  0  0  0  0
  187.9610  178.1110  143.4700 O   0  0  0  0  0  0  0  0  0  0  0  0
  186.1540  179.1160  141.8160 C   0  0  0  0  0  2  0  0  0  0  0  0
  187.3370  178.4260  141.1280 C   0  0  0  0  0  2  0  0  0  0  0  0
  186.7110  177.5120  143.7080 C   0  0  1  0  0  3  0  0  0  0  0  0
  188.2970  177.7740  142.1440 C   0  0  0  0  0  2  0  0  0  0  0  0
  186.4590  177.3360  145.2090 C   0  0  0  0  0  2  0  0  0  0  0  0
  187.6300  177.8090  146.0790 C   0  0  1  0  0  3  0  0  0  0  0  0
  189.6460  177.9080  148.1170 C   0  0  0  0  0  3  0  0  0  0  0  0
  188.3940  178.2470  148.4660 C   0  0  0  0  0  3  0  0  0  0  0  0
  189.9970  177.4360  146.7240 C   0  0  0  0  0  2  0  0  0  0  0  0
  187.2130  178.0850  147.5340 C   0  0  0  0  0  2  0  0  0  0  0  0
  188.7880  176.8160  146.0230 C   0  0  0  0  0  2  0  0  0  0  0  0
  1 23  1  1  0  0  0
  2  5  1  1  0  0  0
  2  7  1  0  0  0  0
  2  4  1  0  0  0  0
  3  7  1  1  0  0  0
  3 11  1  0  0  0  0
  3  6  1  0  0  0  0
  4  8  1  0  0  0  0
  6  8  2  0  0  0  0
  6  9  1  0  0  0  0
  9  1  1  6  0  0  0
 10  9  1  0  0  0  0
 11 10  1  0  0  0  0
 12 13  1  1  0  0  0
 12  1  1  0  0  0  0
 14 12  1  0  0  0  0
 15 21  1  0  0  0  0
 15 19  1  0  0  0  0
 16 15  2  0  0  0  0
 17 16  1  0  0  0  0
 18 20  1  0  0  0  0
 20 19  2  0  0  0  0
 20 14  1  0  0  0  0
 22 16  1  0  0  0  0
 22 18  2  0  0  0  0
 23 24  1  0  0  0  0
 24 25  1  1  0  0  0
 24 26  1  0  0  0  0
 26 28  1  0  0  0  0
 26 27  1  1  0  0  0
 29 30  1  0  0  0  0
 29 28  2  0  0  0  0
 31 35  1  0  0  0  0
 31 30  1  1  0  0  0
 32 35  1  0  0  0  0
 33 31  1  0  0  0  0
 34 33  1  0  0  0  0
 34 36  1  0  0  0  0
 35 37  1  1  0  0  0
 36 32  1  0  0  0  0
 38 37  1  6  0  0  0
 38 42  1  0  0  0  0
 39 40  2  0  0  0  0
 41 39  1  0  0  0  0
 42 40  1  0  0  0  0
 43 38  1  0  0  0  0
 43 41  1  0  0  0  0
M  END
>  <MODEL>
1

>  <REMARK>
 VINA RESULT:      -8.8      0.000      0.000
  Name = 
  12 active torsions:
  status: ('A' for Active; 'I' for Inactive)
    1  A    between atoms: N_1  and  C_34
    2  A    between atoms: N_1  and  C_35
    3  A    between atoms: C_2  and  C_6
    4  A    between atoms: C_2  and  C_13
    5  A    between atoms: C_3  and  C_4
    6  A    between atoms: C_3  and  C_12
    7  A    between atoms: C_8  and  O_27
    8  A    between atoms: C_8  and  C_30
    9  A    between atoms: C_8  and  C_34
   10  A    between atoms: C_11  and  C_14
   11  A    between atoms: C_13  and  O_27
   12  A    between atoms: C_14  and  C_41
                            x       y       z     vdW  Elec       q    Type
                         _______ _______ _______ _____ _____    ______ ____

>  <TORSDO>
F 12

$$$$
=
 OpenBabel10262422443D

 43 47  0  0  1  0  0  0  0  0999 V2000
  187.4290  177.6180  138.2210 C   0  0  1  0  0  3  0  0  0  0  0  0
  187.9320  172.5010  136.9450 C   0  0  1  0  0  3  0  0  0  0  0  0
  189.0500  174.6980  137.0980 C   0  0  1  0  0  3  0  0  0  0  0  0
  186.5320  173.1530  136.9910 C   0  0  0  0  0  2  0  0  0  0  0  0
  187.8580  171.3020  136.2420 O   0  0  0  0  0  1  0  0  0  0  0  0
  187.7210  175.3420  137.1770 C   0  0  0  0  0  0  0  0  0  0  0  0
  188.9740  173.4130  136.2880 C   0  0  0  0  0  2  0  0  0  0  0  0
  186.5660  174.6600  137.1190 C   0  0  0  0  0  3  0  0  0  0  0  0
  187.8380  176.8080  136.9770 C   0  0  2  0  0  3  0  0  0  0  0  0
  189.2430  177.0610  136.6600 N   0  0  0  0  0  2  0  0  0  0  0  0
  189.8790  175.7620  136.4120 C   0  0  0  0  0  2  0  0  0  0  0  0
  188.6130  178.1020  139.0870 C   0  0  1  0  0  3  0  0  0  0  0  0
  188.9930  179.3830  138.6810 O   0  0  0  0  0  1  0  0  0  0  0  0
  188.2290  178.1420  140.4910 N   0  0  0  0  0  2  0  0  0  0  0  0
  189.5580  177.3790  143.9100 C   0  0  0  0  0  0  0  0  0  0  0  0
  190.8730  177.0010  143.6030 C   0  0  0  0  0  0  0  0  0  0  0  0
  191.7460  176.6870  144.5870 F   0  0  0  0  0  0  0  0  0  0  0  0
  190.4120  177.3460  141.2450 C   0  0  0  0  0  3  0  0  0  0  0  0
  188.6810  177.7490  142.8850 C   0  0  0  0  0  3  0  0  0  0  0  0
  189.1060  177.7460  141.5470 C   0  0  0  0  0  0  0  0  0  0  0  0
  189.0020  177.4210  145.5710 Cl  0  0  0  0  0  0  0  0  0  0  0  0
  191.2930  176.9770  142.2680 C   0  0  0  0  0  3  0  0  0  0  0  0
  186.3870  178.5410  137.9430 O   0  0  0  0  0  0  0  0  0  0  0  0
  185.3200  178.4460  138.8630 C   0  0  1  0  0  3  0  0  0  0  0  0
  184.7770  179.7130  139.1120 O   0  0  0  0  0  1  0  0  0  0  0  0
  184.2160  177.5000  138.3560 C   0  0  2  0  0  3  0  0  0  0  0  0
  184.1220  177.6180  136.8430 C   0  0  0  0  0  1  0  0  0  0  0  0
  182.8770  177.8000  138.9680 C   0  0  0  0  0  3  0  0  0  0  0  0
  182.2530  176.9760  139.8160 C   0  0  0  0  0  3  0  0  0  0  0  0
  180.8690  177.3140  140.2990 C   0  0  0  0  0  2  0  0  0  0  0  0
  180.6890  178.8380  140.3250 C   0  0  1  0  0  3  0  0  0  0  0  0
  179.4560  180.0090  142.0860 O   0  0  0  0  0  0  0  0  0  0  0  0
  179.4480  179.2680  139.5440 C   0  0  0  0  0  2  0  0  0  0  0  0
  179.1380  180.7500  139.7790 C   0  0  0  0  0  2  0  0  0  0  0  0
  180.7200  179.5000  141.7330 C   0  0  1  0  0  3  0  0  0  0  0  0
  179.2610  181.1380  141.2670 C   0  0  0  0  0  2  0  0  0  0  0  0
  181.2970  178.6270  142.8520 C   0  0  0  0  0  2  0  0  0  0  0  0
  182.6910  179.0740  143.3090 C   0  0  1  0  0  3  0  0  0  0  0  0
  185.3890  179.0170  144.2830 C   0  0  0  0  0  3  0  0  0  0  0  0
  184.4000  178.9300  145.1880 C   0  0  0  0  0  3  0  0  0  0  0  0
  185.1190  179.0890  142.7970 C   0  0  0  0  0  2  0  0  0  0  0  0
  182.9450  178.7870  144.8000 C   0  0  0  0  0  2  0  0  0  0  0  0
  183.7780  178.4460  142.4410 C   0  0  0  0  0  2  0  0  0  0  0  0
  1 23  1  6  0  0  0
  1 12  1  0  0  0  0
  2  5  1  6  0  0  0
  2  4  1  0  0  0  0
  3  7  1  6  0  0  0
  3  6  1  0  0  0  0
  4  8  1  0  0  0  0
  7  2  1  0  0  0  0
  8  6  2  0  0  0  0
  9  6  1  0  0  0  0
  9  1  1  1  0  0  0
 10  9  1  0  0  0  0
 11 10  1  0  0  0  0
 11  3  1  0  0  0  0
 12 13  1  6  0  0  0
 12 14  1  0  0  0  0
 14 20  1  0  0  0  0
 15 21  1  0  0  0  0
 16 15  1  0  0  0  0
 16 17  1  0  0  0  0
 18 20  2  0  0  0  0
 18 22  1  0  0  0  0
 19 15  2  0  0  0  0
 20 19  1  0  0  0  0
 22 16  2  0  0  0  0
 23 24  1  0  0  0  0
 24 25  1  6  0  0  0
 26 27  1  6  0  0  0
 26 24  1  0  0  0  0
 26 28  1  0  0  0  0
 28 29  2  0  0  0  0
 29 30  1  0  0  0  0
 31 30  1  1  0  0  0
 31 35  1  0  0  0  0
 33 34  1  0  0  0  0
 33 31  1  0  0  0  0
 34 36  1  0  0  0  0
 35 32  1  0  0  0  0
 35 37  1  1  0  0  0
 36 32  1  0  0  0  0
 38 37  1  6  0  0  0
 38 42  1  0  0  0  0
 39 40  2  0  0  0  0
 41 39  1  0  0  0  0
 42 40  1  0  0  0  0
 43 41  1  0  0  0  0
 43 38  1  0  0  0  0
M  END
>  <MODEL>
2

>  <REMARK>
 VINA RESULT:      -8.8      4.434      8.275
  Name = 
  12 active torsions:
  status: ('A' for Active; 'I' for Inactive)
    1  A    between atoms: N_1  and  C_34
    2  A    between atoms: N_1  and  C_35
    3  A    between atoms: C_2  and  C_6
    4  A    between atoms: C_2  and  C_13
    5  A    between atoms: C_3  and  C_4
    6  A    between atoms: C_3  and  C_12
    7  A    between atoms: C_8  and  O_27
    8  A    between atoms: C_8  and  C_30
    9  A    between atoms: C_8  and  C_34
   10  A    between atoms: C_11  and  C_14
   11  A    between atoms: C_13  and  O_27
   12  A    between atoms: C_14  and  C_41
                            x       y       z     vdW  Elec       q    Type
                         _______ _______ _______ _____ _____    ______ ____

>  <TORSDO>
F 12

$$$$
=
 OpenBabel10262422443D

 43 47  0  0  1  0  0  0  0  0999 V2000
  182.1790  178.2460  140.0620 C   0  0  1  0  0  3  0  0  0  0  0  0
  185.7500  177.3090  136.2620 C   0  0  1  0  0  3  0  0  0  0  0  0
  183.7400  176.4870  137.4380 C   0  0  1  0  0  3  0  0  0  0  0  0
  186.0760  178.2970  137.4040 C   0  0  0  0  0  2  0  0  0  0  0  0
  186.9290  176.9440  135.6190 O   0  0  0  0  0  1  0  0  0  0  0  0
  184.0140  177.4480  138.5290 C   0  0  0  0  0  0  0  0  0  0  0  0
  185.0360  176.0520  136.7700 C   0  0  0  0  0  2  0  0  0  0  0  0
  185.0750  178.2700  138.5380 C   0  0  0  0  0  3  0  0  0  0  0  0
  183.1880  177.1340  139.7210 C   0  0  2  0  0  3  0  0  0  0  0  0
  182.4750  175.8970  139.4050 N   0  0  0  0  0  2  0  0  0  0  0  0
  183.0660  175.3520  138.1760 C   0  0  0  0  0  2  0  0  0  0  0  0
  181.2000  178.5930  138.9190 C   0  0  1  0  0  3  0  0  0  0  0  0
  180.0940  177.7410  138.9790 O   0  0  0  0  0  1  0  0  0  0  0  0
  180.7460  179.9710  139.0440 N   0  0  0  0  0  2  0  0  0  0  0  0
  181.1290  183.1430  137.0860 C   0  0  0  0  0  0  0  0  0  0  0  0
  180.7740  182.7040  135.8020 C   0  0  0  0  0  0  0  0  0  0  0  0
  180.7240  183.5740  134.7680 F   0  0  0  0  0  0  0  0  0  0  0  0
  180.4420  180.4610  136.6700 C   0  0  0  0  0  3  0  0  0  0  0  0
  181.1280  182.2420  138.1560 C   0  0  0  0  0  3  0  0  0  0  0  0
  180.7730  180.8990  137.9570 C   0  0  0  0  0  0  0  0  0  0  0  0
  181.5510  184.8190  137.3760 Cl  0  0  0  0  0  0  0  0  0  0  0  0
  180.4400  181.3610  135.5970 C   0  0  0  0  0  3  0  0  0  0  0  0
  181.6520  178.1110  141.3720 O   0  0  0  0  0  0  0  0  0  0  0  0
  182.1810  179.0630  142.2710 C   0  0  1  0  0  3  0  0  0  0  0  0
  181.2000  179.4690  143.1840 O   0  0  0  0  0  1  0  0  0  0  0  0
  183.4000  178.5080  143.0320 C   0  0  2  0  0  3  0  0  0  0  0  0
  183.2980  178.9210  144.4920 C   0  0  0  0  0  1  0  0  0  0  0  0
  184.7020  178.9940  142.4620 C   0  0  0  0  0  3  0  0  0  0  0  0
  185.8070  178.2440  142.4040 C   0  0  0  0  0  3  0  0  0  0  0  0
  187.0920  178.8480  141.9090 C   0  0  0  0  0  2  0  0  0  0  0  0
  188.0620  177.7330  141.4950 C   0  0  1  0  0  3  0  0  0  0  0  0
  190.4810  177.8710  141.8330 O   0  0  0  0  0  0  0  0  0  0  0  0
  188.5260  177.9030  140.0490 C   0  0  0  0  0  2  0  0  0  0  0  0
  189.6720  176.9390  139.7230 C   0  0  0  0  0  2  0  0  0  0  0  0
  189.2710  177.4990  142.4460 C   0  0  1  0  0  3  0  0  0  0  0  0
  190.7250  176.8930  140.8510 C   0  0  0  0  0  2  0  0  0  0  0  0
  189.1380  178.1280  143.8370 C   0  0  0  0  0  2  0  0  0  0  0  0
  189.6790  177.2340  144.9590 C   0  0  1  0  0  3  0  0  0  0  0  0
  191.0760  176.3430  147.3010 C   0  0  0  0  0  3  0  0  0  0  0  0
  191.7840  176.4680  146.1650 C   0  0  0  0  0  3  0  0  0  0  0  0
  189.6090  176.7030  147.3820 C   0  0  0  0  0  2  0  0  0  0  0  0
  191.2090  177.0780  144.9060 C   0  0  0  0  0  2  0  0  0  0  0  0
  189.2310  177.7420  146.3260 C   0  0  0  0  0  2  0  0  0  0  0  0
  1 23  1  1  0  0  0
  2  5  1  1  0  0  0
  2  7  1  0  0  0  0
  2  4  1  0  0  0  0
  3  7  1  1  0  0  0
  3 11  1  0  0  0  0
  3  6  1  0  0  0  0
  4  8  1  0  0  0  0
  6  8  2  0  0  0  0
  6  9  1  0  0  0  0
  9  1  1  6  0  0  0
 10  9  1  0  0  0  0
 11 10  1  0  0  0  0
 12 13  1  1  0  0  0
 12 14  1  0  0  0  0
 12  1  1  0  0  0  0
 15 21  1  0  0  0  0
 15 19  1  0  0  0  0
 16 15  2  0  0  0  0
 17 16  1  0  0  0  0
 18 20  1  0  0  0  0
 20 19  2  0  0  0  0
 20 14  1  0  0  0  0
 22 16  1  0  0  0  0
 22 18  2  0  0  0  0
 23 24  1  0  0  0  0
 24 26  1  0  0  0  0
 24 25  1  1  0  0  0
 26 27  1  1  0  0  0
 28 26  1  0  0  0  0
 29 28  2  0  0  0  0
 30 29  1  0  0  0  0
 31 30  1  1  0  0  0
 31 35  1  0  0  0  0
 32 35  1  0  0  0  0
 33 31  1  0  0  0  0
 34 33  1  0  0  0  0
 34 36  1  0  0  0  0
 35 37  1  1  0  0  0
 36 32  1  0  0  0  0
 38 37  1  6  0  0  0
 38 43  1  0  0  0  0
 39 41  1  0  0  0  0
 40 39  2  0  0  0  0
 42 38  1  0  0  0  0
 42 40  1  0  0  0  0
 43 41  1  0  0  0  0
M  END
>  <MODEL>
3

>  <REMARK>
 VINA RESULT:      -8.7      1.420      2.153
  Name = 
  12 active torsions:
  status: ('A' for Active; 'I' for Inactive)
    1  A    between atoms: N_1  and  C_34
    2  A    between atoms: N_1  and  C_35
    3  A    between atoms: C_2  and  C_6
    4  A    between atoms: C_2  and  C_13
    5  A    between atoms: C_3  and  C_4
    6  A    between atoms: C_3  and  C_12
    7  A    between atoms: C_8  and  O_27
    8  A    between atoms: C_8  and  C_30
    9  A    between atoms: C_8  and  C_34
   10  A    between atoms: C_11  and  C_14
   11  A    between atoms: C_13  and  O_27
   12  A    between atoms: C_14  and  C_41
                            x       y       z     vdW  Elec       q    Type
                         _______ _______ _______ _____ _____    ______ ____

>  <TORSDO>
F 12

$$$$
=
 OpenBabel10262422443D

 43 47  0  0  1  0  0  0  0  0999 V2000
  188.5680  177.4210  138.9970 C   0  0  1  0  0  3  0  0  0  0  0  0
  193.3890  176.3300  137.0900 C   0  0  1  0  0  3  0  0  0  0  0  0
  190.9540  176.0270  136.8100 C   0  0  1  0  0  3  0  0  0  0  0  0
  193.2180  176.7530  138.5660 C   0  0  0  0  0  2  0  0  0  0  0  0
  194.6410  175.7460  136.9210 O   0  0  0  0  0  1  0  0  0  0  0  0
  190.7630  176.4610  138.2120 C   0  0  0  0  0  0  0  0  0  0  0  0
  192.3030  175.3460  136.6410 C   0  0  0  0  0  2  0  0  0  0  0  0
  191.7780  176.7850  139.0290 C   0  0  0  0  0  3  0  0  0  0  0  0
  189.3840  176.1570  138.6700 C   0  0  2  0  0  3  0  0  0  0  0  0
  188.7480  175.4250  137.5760 N   0  0  0  0  0  2  0  0  0  0  0  0
  189.7980  175.0710  136.6140 C   0  0  0  0  0  2  0  0  0  0  0  0
  188.7030  177.9090  140.4560 C   0  0  1  0  0  3  0  0  0  0  0  0
  187.5690  178.6460  140.8070 O   0  0  0  0  0  1  0  0  0  0  0  0
  188.8310  176.7740  141.3590 N   0  0  0  0  0  2  0  0  0  0  0  0
  189.4750  177.1800  145.0280 C   0  0  0  0  0  0  0  0  0  0  0  0
  190.8710  177.0490  145.0660 C   0  0  0  0  0  0  0  0  0  0  0  0
  191.5430  177.1890  146.2320 F   0  0  0  0  0  0  0  0  0  0  0  0
  190.8950  176.7020  142.6640 C   0  0  0  0  0  3  0  0  0  0  0  0
  188.7990  177.0820  143.8080 C   0  0  0  0  0  3  0  0  0  0  0  0
  189.5050  176.8540  142.6170 C   0  0  0  0  0  0  0  0  0  0  0  0
  188.5650  177.4930  146.4920 Cl  0  0  0  0  0  0  0  0  0  0  0  0
  191.5760  176.8010  143.8830 C   0  0  0  0  0  3  0  0  0  0  0  0
  188.6380  178.3900  137.9620 O   0  0  0  0  0  0  0  0  0  0  0  0
  187.3630  178.7730  137.4920 C   0  0  1  0  0  3  0  0  0  0  0  0
  187.4820  179.7920  136.5380 O   0  0  0  0  0  1  0  0  0  0  0  0
  186.6000  177.5810  136.8850 C   0  0  2  0  0  3  0  0  0  0  0  0
  186.6400  177.6910  135.3690 C   0  0  0  0  0  1  0  0  0  0  0  0
  185.1720  177.5190  137.3470 C   0  0  0  0  0  3  0  0  0  0  0  0
  184.7050  178.2040  138.3960 C   0  0  0  0  0  3  0  0  0  0  0  0
  183.2840  178.0010  138.8450 C   0  0  0  0  0  2  0  0  0  0  0  0
  182.6210  179.3620  139.0910 C   0  0  1  0  0  3  0  0  0  0  0  0
  180.4450  179.6130  140.1820 O   0  0  0  0  0  0  0  0  0  0  0  0
  181.7690  179.7930  137.8970 C   0  0  0  0  0  2  0  0  0  0  0  0
  180.9200  181.0220  138.2430 C   0  0  0  0  0  2  0  0  0  0  0  0
  181.8270  179.5000  140.4220 C   0  0  1  0  0  3  0  0  0  0  0  0
  180.2590  180.8950  139.6320 C   0  0  0  0  0  2  0  0  0  0  0  0
  182.1210  178.4220  141.4700 C   0  0  0  0  0  2  0  0  0  0  0  0
  183.1050  178.8830  142.5530 C   0  0  1  0  0  3  0  0  0  0  0  0
  184.8840  178.8730  144.8020 C   0  0  0  0  0  3  0  0  0  0  0  0
  183.5650  178.9200  145.0540 C   0  0  0  0  0  3  0  0  0  0  0  0
  185.4350  178.7730  143.3980 C   0  0  0  0  0  2  0  0  0  0  0  0
  182.5200  178.7700  143.9710 C   0  0  0  0  0  2  0  0  0  0  0  0
  184.4270  178.1280  142.4470 C   0  0  0  0  0  2  0  0  0  0  0  0
  1 23  1  6  0  0  0
  1 12  1  0  0  0  0
  2  5  1  1  0  0  0
  2  4  1  0  0  0  0
  3 11  1  1  0  0  0
  3  6  1  0  0  0  0
  4  8  1  0  0  0  0
  6  9  1  0  0  0  0
  6  8  2  0  0  0  0
  7  3  1  0  0  0  0
  7  2  1  0  0  0  0
  9  1  1  6  0  0  0
 10  9  1  0  0  0  0
 11 10  1  0  0  0  0
 12 13  1  1  0  0  0
 12 14  1  0  0  0  0
 14 20  1  0  0  0  0
 15 16  1  0  0  0  0
 15 21  1  0  0  0  0
 16 17  1  0  0  0  0
 18 22  1  0  0  0  0
 19 15  2  0  0  0  0
 20 18  2  0  0  0  0
 20 19  1  0  0  0  0
 22 16  2  0  0  0  0
 24 25  1  6  0  0  0
 24 23  1  0  0  0  0
 26 27  1  6  0  0  0
 26 28  1  0  0  0  0
 26 24  1  0  0  0  0
 28 29  2  0  0  0  0
 29 30  1  0  0  0  0
 31 30  1  6  0  0  0
 31 35  1  0  0  0  0
 32 35  1  0  0  0  0
 33 34  1  0  0  0  0
 33 31  1  0  0  0  0
 34 36  1  0  0  0  0
 35 37  1  1  0  0  0
 36 32  1  0  0  0  0
 38 37  1  6  0  0  0
 38 42  1  0  0  0  0
 39 40  2  0  0  0  0
 41 39  1  0  0  0  0
 42 40  1  0  0  0  0
 43 38  1  0  0  0  0
 43 41  1  0  0  0  0
M  END
>  <MODEL>
4

>  <REMARK>
 VINA RESULT:      -8.7      4.876      9.122
  Name = 
  12 active torsions:
  status: ('A' for Active; 'I' for Inactive)
    1  A    between atoms: N_1  and  C_34
    2  A    between atoms: N_1  and  C_35
    3  A    between atoms: C_2  and  C_6
    4  A    between atoms: C_2  and  C_13
    5  A    between atoms: C_3  and  C_4
    6  A    between atoms: C_3  and  C_12
    7  A    between atoms: C_8  and  O_27
    8  A    between atoms: C_8  and  C_30
    9  A    between atoms: C_8  and  C_34
   10  A    between atoms: C_11  and  C_14
   11  A    between atoms: C_13  and  O_27
   12  A    between atoms: C_14  and  C_41
                            x       y       z     vdW  Elec       q    Type
                         _______ _______ _______ _____ _____    ______ ____

>  <TORSDO>
F 12

$$$$
=
 OpenBabel10262422443D

 43 47  0  0  1  0  0  0  0  0999 V2000
  189.8730  177.6350  141.6760 C   0  0  1  0  0  3  0  0  0  0  0  0
  187.9720  176.6660  136.8270 C   0  0  1  0  0  3  0  0  0  0  0  0
  189.8510  176.3450  138.3970 C   0  0  1  0  0  3  0  0  0  0  0  0
  187.4130  177.8440  137.6560 C   0  0  0  0  0  2  0  0  0  0  0  0
  187.6110  176.8310  135.4920 O   0  0  0  0  0  1  0  0  0  0  0  0
  189.3170  177.4500  139.2240 C   0  0  0  0  0  0  0  0  0  0  0  0
  189.4960  176.5550  136.9320 C   0  0  0  0  0  2  0  0  0  0  0  0
  188.2180  178.1500  138.9000 C   0  0  0  0  0  3  0  0  0  0  0  0
  190.3220  177.8860  140.2250 C   0  0  2  0  0  3  0  0  0  0  0  0
  191.5340  177.1190  139.9410 N   0  0  0  0  0  2  0  0  0  0  0  0
  191.3390  176.4510  138.6480 C   0  0  0  0  0  2  0  0  0  0  0  0
  191.0300  177.4310  142.6780 C   0  0  1  0  0  3  0  0  0  0  0  0
  191.3110  178.6410  143.3170 O   0  0  0  0  0  1  0  0  0  0  0  0
  190.6630  176.4380  143.6780 N   0  0  0  0  0  2  0  0  0  0  0  0
  188.5660  177.5520  146.5770 C   0  0  0  0  0  0  0  0  0  0  0  0
  189.5070  177.5030  147.6160 C   0  0  0  0  0  0  0  0  0  0  0  0
  189.1700  177.8910  148.8680 F   0  0  0  0  0  0  0  0  0  0  0  0
  191.1850  176.7170  146.0480 C   0  0  0  0  0  3  0  0  0  0  0  0
  188.9420  177.1950  145.2790 C   0  0  0  0  0  3  0  0  0  0  0  0
  190.2570  176.7860  145.0040 C   0  0  0  0  0  0  0  0  0  0  0  0
  186.9240  178.0840  146.8800 Cl  0  0  0  0  0  0  0  0  0  0  0  0
  190.8120  177.0760  147.3490 C   0  0  0  0  0  3  0  0  0  0  0  0
  188.8010  178.4820  142.0610 O   0  0  0  0  0  0  0  0  0  0  0  0
  187.5480  177.8340  141.9970 C   0  0  1  0  0  3  0  0  0  0  0  0
  187.5880  176.6250  142.7030 O   0  0  0  0  0  1  0  0  0  0  0  0
  186.4200  178.7220  142.5530 C   0  0  2  0  0  3  0  0  0  0  0  0
  185.5190  177.8760  143.4390 C   0  0  0  0  0  1  0  0  0  0  0  0
  185.6010  179.3590  141.4660 C   0  0  0  0  0  3  0  0  0  0  0  0
  184.8840  178.6620  140.5790 C   0  0  0  0  0  3  0  0  0  0  0  0
  184.1760  179.3810  139.4640 C   0  0  0  0  0  2  0  0  0  0  0  0
  183.2850  178.3960  138.6960 C   0  0  1  0  0  3  0  0  0  0  0  0
  181.5900  177.0030  139.7780 O   0  0  0  0  0  0  0  0  0  0  0  0
  183.9460  177.0230  138.5720 C   0  0  0  0  0  2  0  0  0  0  0  0
  182.9590  175.9850  138.0280 C   0  0  0  0  0  2  0  0  0  0  0  0
  181.8210  178.2670  139.2060 C   0  0  1  0  0  3  0  0  0  0  0  0
  181.5750  176.0960  138.7020 C   0  0  0  0  0  2  0  0  0  0  0  0
  181.3530  179.3900  140.1360 C   0  0  0  0  0  2  0  0  0  0  0  0
  180.8400  178.8810  141.4890 C   0  0  1  0  0  3  0  0  0  0  0  0
  180.0640  178.7840  144.2490 C   0  0  0  0  0  3  0  0  0  0  0  0
  181.3740  178.6860  143.9680 C   0  0  0  0  0  3  0  0  0  0  0  0
  179.0210  178.9920  143.1730 C   0  0  0  0  0  2  0  0  0  0  0  0
  181.9290  178.8840  142.5750 C   0  0  0  0  0  2  0  0  0  0  0  0
  179.6170  179.6750  141.9430 C   0  0  0  0  0  2  0  0  0  0  0  0
  1 23  1  1  0  0  0
  1 12  1  0  0  0  0
  2  5  1  6  0  0  0
  2  7  1  0  0  0  0
  2  4  1  0  0  0  0
  3  7  1  6  0  0  0
  3 11  1  0  0  0  0
  3  6  1  0  0  0  0
  4  8  1  0  0  0  0
  6  9  1  0  0  0  0
  8  6  2  0  0  0  0
  9  1  1  1  0  0  0
 10  9  1  0  0  0  0
 11 10  1  0  0  0  0
 12 13  1  1  0  0  0
 12 14  1  0  0  0  0
 14 20  1  0  0  0  0
 15 21  1  0  0  0  0
 15 16  1  0  0  0  0
 16 17  1  0  0  0  0
 18 22  1  0  0  0  0
 19 15  2  0  0  0  0
 20 19  1  0  0  0  0
 20 18  2  0  0  0  0
 22 16  2  0  0  0  0
 24 23  1  0  0  0  0
 24 26  1  0  0  0  0
 24 25  1  1  0  0  0
 26 27  1  1  0  0  0
 28 26  1  0  0  0  0
 29 28  2  0  0  0  0
 30 29  1  0  0  0  0
 31 35  1  0  0  0  0
 31 30  1  1  0  0  0
 33 31  1  0  0  0  0
 34 33  1  0  0  0  0
 34 36  1  0  0  0  0
 35 32  1  0  0  0  0
 35 37  1  1  0  0  0
 36 32  1  0  0  0  0
 38 37  1  6  0  0  0
 38 43  1  0  0  0  0
 38 42  1  0  0  0  0
 40 39  2  0  0  0  0
 41 39  1  0  0  0  0
 42 40  1  0  0  0  0
 43 41  1  0  0  0  0
M  END
>  <MODEL>
5

>  <REMARK>
 VINA RESULT:      -8.6      4.689      9.469
  Name = 
  12 active torsions:
  status: ('A' for Active; 'I' for Inactive)
    1  A    between atoms: N_1  and  C_34
    2  A    between atoms: N_1  and  C_35
    3  A    between atoms: C_2  and  C_6
    4  A    between atoms: C_2  and  C_13
    5  A    between atoms: C_3  and  C_4
    6  A    between atoms: C_3  and  C_12
    7  A    between atoms: C_8  and  O_27
    8  A    between atoms: C_8  and  C_30
    9  A    between atoms: C_8  and  C_34
   10  A    between atoms: C_11  and  C_14
   11  A    between atoms: C_13  and  O_27
   12  A    between atoms: C_14  and  C_41
                            x       y       z     vdW  Elec       q    Type
                         _______ _______ _______ _____ _____    ______ ____

>  <TORSDO>
F 12

$$$$
=
 OpenBabel10262422443D

 43 47  0  0  1  0  0  0  0  0999 V2000
  187.5030  177.5230  138.3160 C   0  0  1  0  0  3  0  0  0  0  0  0
  192.1180  175.7210  136.4400 C   0  0  1  0  0  3  0  0  0  0  0  0
  190.0400  176.9580  135.9370 C   0  0  1  0  0  3  0  0  0  0  0  0
  191.4940  175.0850  137.7020 C   0  0  0  0  0  2  0  0  0  0  0  0
  193.0940  174.8690  135.9310 O   0  0  0  0  0  1  0  0  0  0  0  0
  189.4330  176.3860  137.1590 C   0  0  0  0  0  0  0  0  0  0  0  0
  191.0720  176.0020  135.3570 C   0  0  0  0  0  2  0  0  0  0  0  0
  190.0720  175.5260  137.9680 C   0  0  0  0  0  3  0  0  0  0  0  0
  187.9660  176.6100  137.1660 C   0  0  2  0  0  3  0  0  0  0  0  0
  187.6450  177.2280  135.8800 N   0  0  0  0  0  2  0  0  0  0  0  0
  188.8390  177.1250  135.0330 C   0  0  0  0  0  2  0  0  0  0  0  0
  188.6500  178.1230  139.1570 C   0  0  1  0  0  3  0  0  0  0  0  0
  188.9870  179.3820  138.6540 O   0  0  0  0  0  1  0  0  0  0  0  0
  188.2390  178.2610  140.5470 N   0  0  0  0  0  2  0  0  0  0  0  0
  189.2890  177.3110  144.0160 C   0  0  0  0  0  0  0  0  0  0  0  0
  190.5230  176.6980  143.7590 C   0  0  0  0  0  0  0  0  0  0  0  0
  191.2900  176.2420  144.7760 F   0  0  0  0  0  0  0  0  0  0  0  0
  190.2140  177.0920  141.3840 C   0  0  0  0  0  3  0  0  0  0  0  0
  188.5290  177.8210  142.9590 C   0  0  0  0  0  3  0  0  0  0  0  0
  188.9920  177.7250  141.6370 C   0  0  0  0  0  0  0  0  0  0  0  0
  188.6940  177.4720  145.6570 Cl  0  0  0  0  0  0  0  0  0  0  0  0
  190.9770  176.5820  142.4410 C   0  0  0  0  0  3  0  0  0  0  0  0
  186.4430  178.3840  137.9260 O   0  0  0  0  0  0  0  0  0  0  0  0
  185.3840  178.3970  138.8600 C   0  0  1  0  0  3  0  0  0  0  0  0
  184.9170  179.7050  139.0470 O   0  0  0  0  0  1  0  0  0  0  0  0
  184.2230  177.4900  138.4150 C   0  0  2  0  0  3  0  0  0  0  0  0
  184.0090  177.6630  136.9190 C   0  0  0  0  0  1  0  0  0  0  0  0
  182.9450  177.7940  139.1440 C   0  0  0  0  0  3  0  0  0  0  0  0
  182.1050  176.8510  139.5830 C   0  0  0  0  0  3  0  0  0  0  0  0
  180.8000  177.2520  140.2140 C   0  0  0  0  0  2  0  0  0  0  0  0
  180.6680  178.7810  140.2000 C   0  0  1  0  0  3  0  0  0  0  0  0
  179.4610  180.0350  141.9210 O   0  0  0  0  0  0  0  0  0  0  0  0
  179.4470  179.2300  139.3990 C   0  0  0  0  0  2  0  0  0  0  0  0
  179.1820  180.7270  139.5940 C   0  0  0  0  0  2  0  0  0  0  0  0
  180.7100  179.4780  141.5910 C   0  0  1  0  0  3  0  0  0  0  0  0
  179.3070  181.1480  141.0730 C   0  0  0  0  0  2  0  0  0  0  0  0
  181.2520  178.6160  142.7360 C   0  0  0  0  0  2  0  0  0  0  0  0
  182.6280  179.0700  143.2370 C   0  0  1  0  0  3  0  0  0  0  0  0
  185.2980  179.0280  144.2830 C   0  0  0  0  0  3  0  0  0  0  0  0
  184.2860  178.9200  145.1600 C   0  0  0  0  0  3  0  0  0  0  0  0
  185.0680  179.1160  142.7910 C   0  0  0  0  0  2  0  0  0  0  0  0
  182.8440  178.7680  144.7300 C   0  0  0  0  0  2  0  0  0  0  0  0
  183.7450  178.4640  142.3910 C   0  0  0  0  0  2  0  0  0  0  0  0
  1 23  1  6  0  0  0
  1 12  1  0  0  0  0
  2  5  1  6  0  0  0
  2  4  1  0  0  0  0
  3 11  1  6  0  0  0
  3  6  1  0  0  0  0
  4  8  1  0  0  0  0
  6  9  1  0  0  0  0
  6  8  2  0  0  0  0
  7  3  1  0  0  0  0
  7  2  1  0  0  0  0
  9  1  1  1  0  0  0
 10  9  1  0  0  0  0
 11 10  1  0  0  0  0
 12 13  1  6  0  0  0
 12 14  1  0  0  0  0
 14 20  1  0  0  0  0
 15 21  1  0  0  0  0
 16 15  1  0  0  0  0
 16 17  1  0  0  0  0
 18 20  2  0  0  0  0
 18 22  1  0  0  0  0
 19 15  2  0  0  0  0
 20 19  1  0  0  0  0
 22 16  2  0  0  0  0
 23 24  1  0  0  0  0
 24 25  1  6  0  0  0
 26 27  1  6  0  0  0
 26 24  1  0  0  0  0
 26 28  1  0  0  0  0
 28 29  2  0  0  0  0
 29 30  1  0  0  0  0
 31 30  1  1  0  0  0
 31 35  1  0  0  0  0
 33 34  1  0  0  0  0
 33 31  1  0  0  0  0
 34 36  1  0  0  0  0
 35 32  1  0  0  0  0
 35 37  1  1  0  0  0
 36 32  1  0  0  0  0
 38 37  1  6  0  0  0
 38 42  1  0  0  0  0
 39 40  2  0  0  0  0
 41 39  1  0  0  0  0
 42 40  1  0  0  0  0
 43 41  1  0  0  0  0
 43 38  1  0  0  0  0
M  END
>  <MODEL>
6

>  <REMARK>
 VINA RESULT:      -8.6      4.607      8.430
  Name = 
  12 active torsions:
  status: ('A' for Active; 'I' for Inactive)
    1  A    between atoms: N_1  and  C_34
    2  A    between atoms: N_1  and  C_35
    3  A    between atoms: C_2  and  C_6
    4  A    between atoms: C_2  and  C_13
    5  A    between atoms: C_3  and  C_4
    6  A    between atoms: C_3  and  C_12
    7  A    between atoms: C_8  and  O_27
    8  A    between atoms: C_8  and  C_30
    9  A    between atoms: C_8  and  C_34
   10  A    between atoms: C_11  and  C_14
   11  A    between atoms: C_13  and  O_27
   12  A    between atoms: C_14  and  C_41
                            x       y       z     vdW  Elec       q    Type
                         _______ _______ _______ _____ _____    ______ ____

>  <TORSDO>
F 12

$$$$
=
 OpenBabel10262422443D

 43 47  0  0  1  0  0  0  0  0999 V2000
  187.4700  177.7480  142.0340 C   0  0  1  0  0  3  0  0  0  0  0  0
  187.9510  178.1030  147.2970 C   0  0  1  0  0  3  0  0  0  0  0  0
  189.1030  177.6760  145.1550 C   0  0  1  0  0  3  0  0  0  0  0  0
  186.5660  177.8460  146.6620 C   0  0  0  0  0  2  0  0  0  0  0  0
  187.9010  177.7880  148.6520 O   0  0  0  0  0  1  0  0  0  0  0  0
  187.7860  177.4580  144.5180 C   0  0  0  0  0  0  0  0  0  0  0  0
  189.0570  177.2840  146.6240 C   0  0  0  0  0  2  0  0  0  0  0  0
  186.6230  177.5190  145.1860 C   0  0  0  0  0  3  0  0  0  0  0  0
  187.9500  176.8380  143.1790 C   0  0  2  0  0  3  0  0  0  0  0  0
  189.3790  176.5660  143.0320 N   0  0  0  0  0  2  0  0  0  0  0  0
  190.0020  176.7680  144.3450 C   0  0  0  0  0  2  0  0  0  0  0  0
  186.2250  178.5980  142.3700 C   0  0  1  0  0  3  0  0  0  0  0  0
  186.2210  179.7490  141.5800 O   0  0  0  0  0  1  0  0  0  0  0  0
  185.0100  177.8390  142.1120 N   0  0  0  0  0  2  0  0  0  0  0  0
  181.4530  178.9770  141.8090 C   0  0  0  0  0  0  0  0  0  0  0  0
  181.1700  179.3140  143.1410 C   0  0  0  0  0  0  0  0  0  0  0  0
  179.9690  179.8370  143.4780 F   0  0  0  0  0  0  0  0  0  0  0  0
  183.4120  178.6360  143.7790 C   0  0  0  0  0  3  0  0  0  0  0  0
  182.7160  178.4840  141.4680 C   0  0  0  0  0  3  0  0  0  0  0  0
  183.7070  178.3210  142.4480 C   0  0  0  0  0  0  0  0  0  0  0  0
  180.2480  179.1940  140.5550 Cl  0  0  0  0  0  0  0  0  0  0  0  0
  182.1490  179.1330  144.1240 C   0  0  0  0  0  3  0  0  0  0  0  0
  188.5470  178.3820  141.3630 O   0  0  0  0  0  0  0  0  0  0  0  0
  188.4750  178.2360  139.9600 C   0  0  1  0  0  3  0  0  0  0  0  0
  189.0110  179.3640  139.3250 O   0  0  0  0  0  1  0  0  0  0  0  0
  189.2120  176.9720  139.4820 C   0  0  2  0  0  3  0  0  0  0  0  0
  190.7100  177.2280  139.5310 C   0  0  0  0  0  1  0  0  0  0  0  0
  188.8160  176.5690  138.0900 C   0  0  0  0  0  3  0  0  0  0  0  0
  189.6230  175.9020  137.2580 C   0  0  0  0  0  3  0  0  0  0  0  0
  189.1760  175.6290  135.8480 C   0  0  0  0  0  2  0  0  0  0  0  0
  188.3120  174.3620  135.8160 C   0  0  1  0  0  3  0  0  0  0  0  0
  186.2710  174.1000  137.1400 O   0  0  0  0  0  0  0  0  0  0  0  0
  188.7880  173.3340  136.8420 C   0  0  0  0  0  2  0  0  0  0  0  0
  187.7810  172.1860  136.9760 C   0  0  0  0  0  2  0  0  0  0  0  0
  186.7760  174.5860  135.9200 C   0  0  1  0  0  3  0  0  0  0  0  0
  186.3270  172.6970  137.0420 C   0  0  0  0  0  2  0  0  0  0  0  0
  186.3070  176.0210  135.6580 C   0  0  0  0  0  2  0  0  0  0  0  0
  185.1900  176.4740  136.6060 C   0  0  1  0  0  3  0  0  0  0  0  0
  183.1860  178.0770  137.8880 C   0  0  0  0  0  3  0  0  0  0  0  0
  184.4660  178.2860  138.2380 C   0  0  0  0  0  3  0  0  0  0  0  0
  182.7930  177.0790  136.8220 C   0  0  0  0  0  2  0  0  0  0  0  0
  185.6270  177.6270  137.5280 C   0  0  0  0  0  2  0  0  0  0  0  0
  183.9310  176.8470  135.8280 C   0  0  0  0  0  2  0  0  0  0  0  0
  1 23  1  1  0  0  0
  1 12  1  0  0  0  0
  2  5  1  1  0  0  0
  3 11  1  6  0  0  0
  3  7  1  0  0  0  0
  4  2  1  0  0  0  0
  6  3  1  0  0  0  0
  6  8  2  0  0  0  0
  7  2  1  0  0  0  0
  8  4  1  0  0  0  0
  9  1  1  6  0  0  0
  9  6  1  0  0  0  0
 10  9  1  0  0  0  0
 10 11  1  0  0  0  0
 12 13  1  6  0  0  0
 14 12  1  0  0  0  0
 14 20  1  0  0  0  0
 15 16  1  0  0  0  0
 16 17  1  0  0  0  0
 16 22  2  0  0  0  0
 18 22  1  0  0  0  0
 19 15  2  0  0  0  0
 19 20  1  0  0  0  0
 20 18  2  0  0  0  0
 21 15  1  0  0  0  0
 24 25  1  6  0  0  0
 24 23  1  0  0  0  0
 26 27  1  6  0  0  0
 26 24  1  0  0  0  0
 28 26  1  0  0  0  0
 29 28  2  0  0  0  0
 30 29  1  0  0  0  0
 31 30  1  1  0  0  0
 31 35  1  0  0  0  0
 31 33  1  0  0  0  0
 33 34  1  0  0  0  0
 34 36  1  0  0  0  0
 35 37  1  1  0  0  0
 35 32  1  0  0  0  0
 36 32  1  0  0  0  0
 38 37  1  6  0  0  0
 38 42  1  0  0  0  0
 39 40  2  0  0  0  0
 41 39  1  0  0  0  0
 42 40  1  0  0  0  0
 43 38  1  0  0  0  0
 43 41  1  0  0  0  0
M  END
>  <MODEL>
7

>  <REMARK>
 VINA RESULT:      -8.5      3.709      9.034
  Name = 
  12 active torsions:
  status: ('A' for Active; 'I' for Inactive)
    1  A    between atoms: N_1  and  C_34
    2  A    between atoms: N_1  and  C_35
    3  A    between atoms: C_2  and  C_6
    4  A    between atoms: C_2  and  C_13
    5  A    between atoms: C_3  and  C_4
    6  A    between atoms: C_3  and  C_12
    7  A    between atoms: C_8  and  O_27
    8  A    between atoms: C_8  and  C_30
    9  A    between atoms: C_8  and  C_34
   10  A    between atoms: C_11  and  C_14
   11  A    between atoms: C_13  and  O_27
   12  A    between atoms: C_14  and  C_41
                            x       y       z     vdW  Elec       q    Type
                         _______ _______ _______ _____ _____    ______ ____

>  <TORSDO>
F 12

$$$$
=
 OpenBabel10262422443D

 43 47  0  0  1  0  0  0  0  0999 V2000
  185.4940  177.8300  137.6470 C   0  0  1  0  0  3  0  0  0  0  0  0
  190.2010  175.3990  137.6170 C   0  0  1  0  0  3  0  0  0  0  0  0
  189.0080  177.5610  137.6590 C   0  0  1  0  0  3  0  0  0  0  0  0
  188.9430  174.6570  137.1140 C   0  0  0  0  0  2  0  0  0  0  0  0
  191.3390  174.7290  137.1750 O   0  0  0  0  0  1  0  0  0  0  0  0
  187.7820  176.8660  137.2090 C   0  0  0  0  0  0  0  0  0  0  0  0
  190.2470  176.8530  137.1340 C   0  0  0  0  0  2  0  0  0  0  0  0
  187.7340  175.5500  136.9460 C   0  0  0  0  0  3  0  0  0  0  0  0
  186.7580  177.8450  136.7680 C   0  0  2  0  0  3  0  0  0  0  0  0
  187.3980  179.1580  136.8400 N   0  0  0  0  0  2  0  0  0  0  0  0
  188.8320  178.9370  137.0560 C   0  0  0  0  0  2  0  0  0  0  0  0
  184.2990  177.0660  137.0370 C   0  0  1  0  0  3  0  0  0  0  0  0
  184.6830  176.4980  135.8200 O   0  0  0  0  0  1  0  0  0  0  0  0
  183.8620  176.0090  137.9380 N   0  0  0  0  0  2  0  0  0  0  0  0
  182.3500  172.8740  136.5500 C   0  0  0  0  0  0  0  0  0  0  0  0
  183.3970  171.9640  136.7550 C   0  0  0  0  0  0  0  0  0  0  0  0
  183.2460  170.6590  136.4330 F   0  0  0  0  0  0  0  0  0  0  0  0
  184.7480  173.7440  137.7030 C   0  0  0  0  0  3  0  0  0  0  0  0
  182.5030  174.2110  136.9320 C   0  0  0  0  0  3  0  0  0  0  0  0
  183.6980  174.6510  137.5220 C   0  0  0  0  0  0  0  0  0  0  0  0
  180.8340  172.3520  135.8430 Cl  0  0  0  0  0  0  0  0  0  0  0  0
  184.5970  172.4050  137.3230 C   0  0  0  0  0  3  0  0  0  0  0  0
  185.7950  177.6110  139.0170 O   0  0  0  0  0  0  0  0  0  0  0  0
  185.2650  178.6170  139.8560 C   0  0  1  0  0  3  0  0  0  0  0  0
  184.0380  178.2060  140.3920 O   0  0  0  0  0  1  0  0  0  0  0  0
  186.2360  178.9750  140.9960 C   0  0  2  0  0  3  0  0  0  0  0  0
  187.6480  178.5920  140.5780 C   0  0  0  0  0  1  0  0  0  0  0  0
  185.8880  178.2850  142.2840 C   0  0  0  0  0  3  0  0  0  0  0  0
  185.5680  178.9370  143.4060 C   0  0  0  0  0  3  0  0  0  0  0  0
  185.3320  178.1640  144.6750 C   0  0  0  0  0  2  0  0  0  0  0  0
  186.3660  178.5760  145.7310 C   0  0  1  0  0  3  0  0  0  0  0  0
  187.6630  176.9620  147.0340 O   0  0  0  0  0  0  0  0  0  0  0  0
  185.7210  178.7600  147.1040 C   0  0  0  0  0  2  0  0  0  0  0  0
  186.7860  178.9270  148.1930 C   0  0  0  0  0  2  0  0  0  0  0  0
  187.6340  177.6800  145.8250 C   0  0  1  0  0  3  0  0  0  0  0  0
  187.9400  177.9150  148.0340 C   0  0  0  0  0  2  0  0  0  0  0  0
  187.8680  176.7540  144.6260 C   0  0  0  0  0  2  0  0  0  0  0  0
  189.2790  176.8740  144.0360 C   0  0  1  0  0  3  0  0  0  0  0  0
  191.4730  177.6240  142.3480 C   0  0  0  0  0  3  0  0  0  0  0  0
  190.6640  176.6420  141.9150 C   0  0  0  0  0  3  0  0  0  0  0  0
  191.2280  178.3590  143.6460 C   0  0  0  0  0  2  0  0  0  0  0  0
  189.3860  176.2620  142.6280 C   0  0  0  0  0  2  0  0  0  0  0  0
  189.7500  178.3250  144.0370 C   0  0  0  0  0  2  0  0  0  0  0  0
  1 23  1  1  0  0  0
  2  5  1  6  0  0  0
  3 11  1  6  0  0  0
  4  2  1  0  0  0  0
  6  3  1  0  0  0  0
  7  2  1  0  0  0  0
  7  3  1  0  0  0  0
  8  4  1  0  0  0  0
  8  6  2  0  0  0  0
  9 10  1  0  0  0  0
  9  6  1  0  0  0  0
  9  1  1  1  0  0  0
 10 11  1  0  0  0  0
 12 13  1  6  0  0  0
 12  1  1  0  0  0  0
 12 14  1  0  0  0  0
 15 16  2  0  0  0  0
 15 19  1  0  0  0  0
 16 22  1  0  0  0  0
 17 16  1  0  0  0  0
 19 20  2  0  0  0  0
 20 18  1  0  0  0  0
 20 14  1  0  0  0  0
 21 15  1  0  0  0  0
 22 18  2  0  0  0  0
 23 24  1  0  0  0  0
 24 25  1  1  0  0  0
 24 26  1  0  0  0  0
 26 27  1  6  0  0  0
 26 28  1  0  0  0  0
 28 29  2  0  0  0  0
 29 30  1  0  0  0  0
 31 30  1  6  0  0  0
 31 35  1  0  0  0  0
 31 33  1  0  0  0  0
 32 36  1  0  0  0  0
 33 34  1  0  0  0  0
 35 37  1  6  0  0  0
 35 32  1  0  0  0  0
 36 34  1  0  0  0  0
 38 43  1  0  0  0  0
 38 37  1  6  0  0  0
 39 41  1  0  0  0  0
 40 39  2  0  0  0  0
 40 42  1  0  0  0  0
 41 43  1  0  0  0  0
 42 38  1  0  0  0  0
M  END
>  <MODEL>
8

>  <REMARK>
 VINA RESULT:      -8.5      4.702      6.703
  Name = 
  12 active torsions:
  status: ('A' for Active; 'I' for Inactive)
    1  A    between atoms: N_1  and  C_34
    2  A    between atoms: N_1  and  C_35
    3  A    between atoms: C_2  and  C_6
    4  A    between atoms: C_2  and  C_13
    5  A    between atoms: C_3  and  C_4
    6  A    between atoms: C_3  and  C_12
    7  A    between atoms: C_8  and  O_27
    8  A    between atoms: C_8  and  C_30
    9  A    between atoms: C_8  and  C_34
   10  A    between atoms: C_11  and  C_14
   11  A    between atoms: C_13  and  O_27
   12  A    between atoms: C_14  and  C_41
                            x       y       z     vdW  Elec       q    Type
                         _______ _______ _______ _____ _____    ______ ____

>  <TORSDO>
F 12

$$$$
=
 OpenBabel10262422443D

 43 47  0  0  1  0  0  0  0  0999 V2000
  187.8230  178.2610  141.4210 C   0  0  1  0  0  3  0  0  0  0  0  0
  183.0400  178.4070  143.6930 C   0  0  1  0  0  3  0  0  0  0  0  0
  184.3060  178.1350  141.5900 C   0  0  1  0  0  3  0  0  0  0  0  0
  184.2520  179.0550  144.3980 C   0  0  0  0  0  2  0  0  0  0  0  0
  181.8650  178.8840  144.2670 O   0  0  0  0  0  1  0  0  0  0  0  0
  185.4900  178.7230  142.2550 C   0  0  0  0  0  0  0  0  0  0  0  0
  183.0250  178.6950  142.1880 C   0  0  0  0  0  2  0  0  0  0  0  0
  185.4830  179.1570  143.5250 C   0  0  0  0  0  3  0  0  0  0  0  0
  186.5280  179.0760  141.2550 C   0  0  2  0  0  3  0  0  0  0  0  0
  185.9360  178.8070  139.9450 N   0  0  0  0  0  2  0  0  0  0  0  0
  184.5040  178.5610  140.1520 C   0  0  0  0  0  2  0  0  0  0  0  0
  188.0610  177.7210  142.8480 C   0  0  1  0  0  3  0  0  0  0  0  0
  187.9860  176.3260  142.8360 O   0  0  0  0  0  1  0  0  0  0  0  0
  189.3760  178.1220  143.3270 N   0  0  0  0  0  2  0  0  0  0  0  0
  189.8810  177.4850  146.9850 C   0  0  0  0  0  0  0  0  0  0  0  0
  191.0750  176.7490  146.9620 C   0  0  0  0  0  0  0  0  0  0  0  0
  191.6590  176.3500  148.1150 F   0  0  0  0  0  0  0  0  0  0  0  0
  191.1090  176.8990  144.5390 C   0  0  0  0  0  3  0  0  0  0  0  0
  189.3140  177.9330  145.7880 C   0  0  0  0  0  3  0  0  0  0  0  0
  189.9310  177.6530  144.5580 C   0  0  0  0  0  0  0  0  0  0  0  0
  189.0990  177.8750  148.5040 Cl  0  0  0  0  0  0  0  0  0  0  0  0
  191.6800  176.4510  145.7360 C   0  0  0  0  0  3  0  0  0  0  0  0
  188.0480  177.3800  140.3300 O   0  0  0  0  0  0  0  0  0  0  0  0
  189.3370  177.5270  139.7710 C   0  0  1  0  0  3  0  0  0  0  0  0
  190.1320  176.4170  140.0840 O   0  0  0  0  0  1  0  0  0  0  0  0
  189.2760  177.7080  138.2440 C   0  0  2  0  0  3  0  0  0  0  0  0
  189.0560  179.1800  137.9310 C   0  0  0  0  0  1  0  0  0  0  0  0
  188.1850  176.8910  137.6120 C   0  0  0  0  0  3  0  0  0  0  0  0
  187.5710  177.2340  136.4750 C   0  0  0  0  0  3  0  0  0  0  0  0
  186.4210  176.4060  135.9710 C   0  0  0  0  0  2  0  0  0  0  0  0
  186.4190  175.0420  136.6740 C   0  0  1  0  0  3  0  0  0  0  0  0
  186.1720  172.9220  135.4780 O   0  0  0  0  0  0  0  0  0  0  0  0
  185.0110  174.6450  137.1190 C   0  0  0  0  0  2  0  0  0  0  0  0
  184.9770  173.1880  137.5930 C   0  0  0  0  0  2  0  0  0  0  0  0
  187.1090  173.8810  135.9030 C   0  0  1  0  0  3  0  0  0  0  0  0
  185.7580  172.2530  136.6460 C   0  0  0  0  0  2  0  0  0  0  0  0
  188.0190  174.3150  134.7490 C   0  0  0  0  0  2  0  0  0  0  0  0
  189.5070  174.3280  135.1240 C   0  0  1  0  0  3  0  0  0  0  0  0
  191.9870  174.9710  136.4130 C   0  0  0  0  0  3  0  0  0  0  0  0
  191.5440  175.8120  135.4640 C   0  0  0  0  0  3  0  0  0  0  0  0
  191.2010  173.7530  136.8430 C   0  0  0  0  0  2  0  0  0  0  0  0
  190.1810  175.6780  134.8230 C   0  0  0  0  0  2  0  0  0  0  0  0
  189.7050  173.9350  136.5850 C   0  0  0  0  0  2  0  0  0  0  0  0
  1 23  1  6  0  0  0
  1 12  1  0  0  0  0
  2  5  1  1  0  0  0
  2  4  1  0  0  0  0
  3 11  1  6  0  0  0
  3  7  1  0  0  0  0
  3  6  1  0  0  0  0
  6  8  2  0  0  0  0
  7  2  1  0  0  0  0
  8  4  1  0  0  0  0
  9  1  1  1  0  0  0
  9  6  1  0  0  0  0
 10 11  1  0  0  0  0
 10  9  1  0  0  0  0
 12 13  1  6  0  0  0
 12 14  1  0  0  0  0
 14 20  1  0  0  0  0
 15 21  1  0  0  0  0
 16 15  1  0  0  0  0
 16 17  1  0  0  0  0
 18 20  2  0  0  0  0
 18 22  1  0  0  0  0
 19 15  2  0  0  0  0
 20 19  1  0  0  0  0
 22 16  2  0  0  0  0
 24 25  1  6  0  0  0
 24 23  1  0  0  0  0
 26 27  1  1  0  0  0
 26 24  1  0  0  0  0
 28 26  1  0  0  0  0
 29 28  2  0  0  0  0
 30 29  1  0  0  0  0
 31 30  1  6  0  0  0
 31 33  1  0  0  0  0
 32 35  1  0  0  0  0
 32 36  1  0  0  0  0
 33 34  1  0  0  0  0
 35 37  1  6  0  0  0
 35 31  1  0  0  0  0
 36 34  1  0  0  0  0
 38 37  1  1  0  0  0
 38 43  1  0  0  0  0
 39 41  1  0  0  0  0
 40 39  2  0  0  0  0
 42 38  1  0  0  0  0
 42 40  1  0  0  0  0
 43 41  1  0  0  0  0
M  END
>  <MODEL>
9

>  <REMARK>
 VINA RESULT:      -8.5      5.140     10.374
  Name = 
  12 active torsions:
  status: ('A' for Active; 'I' for Inactive)
    1  A    between atoms: N_1  and  C_34
    2  A    between atoms: N_1  and  C_35
    3  A    between atoms: C_2  and  C_6
    4  A    between atoms: C_2  and  C_13
    5  A    between atoms: C_3  and  C_4
    6  A    between atoms: C_3  and  C_12
    7  A    between atoms: C_8  and  O_27
    8  A    between atoms: C_8  and  C_30
    9  A    between atoms: C_8  and  C_34
   10  A    between atoms: C_11  and  C_14
   11  A    between atoms: C_13  and  O_27
   12  A    between atoms: C_14  and  C_41
                            x       y       z     vdW  Elec       q    Type
                         _______ _______ _______ _____ _____    ______ ____

>  <TORSDO>
F 12

$$$$
