=
 OpenBabel10252415083D

 34 38  0  0  1  0  0  0  0  0999 V2000
  188.5280  177.6020  137.2930 C   0  0  0  0  0  0  0  0  0  0  0  0
  186.1160  177.7440  137.0410 C   0  0  0  0  0  3  0  0  0  0  0  0
  187.2280  178.4890  139.2260 C   0  0  2  0  0  3  0  0  0  0  0  0
  186.0260  178.5670  141.4220 N   0  0  0  0  0  0  0  0  0  0  0  0
  187.4920  176.9920  135.1930 C   0  0  0  0  0  3  0  0  0  0  0  0
  185.0160  177.1140  134.8900 C   0  0  0  0  0  1  0  0  0  0  0  0
  184.8320  178.7330  139.4080 O   0  0  0  0  0  0  0  0  0  0  0  0
  187.2580  177.8920  137.8370 C   0  0  0  0  0  0  0  0  0  0  0  0
  188.6420  177.1560  135.9730 C   0  0  0  0  0  3  0  0  0  0  0  0
  188.3080  177.8070  140.0670 C   0  0  2  0  0  3  0  0  0  0  0  0
  189.7340  177.7940  138.1330 C   0  0  0  0  0  3  0  0  0  0  0  0
  186.2320  177.2810  135.7270 C   0  0  0  0  0  0  0  0  0  0  0  0
  187.0190  177.8830  142.0650 O   0  0  0  0  0  0  0  0  0  0  0  0
  188.2480  178.3140  141.5150 C   0  0  1  0  0  3  0  0  0  0  0  0
  185.9330  178.5310  139.9870 C   0  0  0  0  0  0  0  0  0  0  0  0
  189.6170  177.9470  139.4230 N   0  0  0  0  0  0  0  0  0  0  0  0
  191.3250  178.1070  143.7860 C   0  0  0  0  0  0  0  0  0  0  0  0
  191.5280  176.6270  143.9640 C   0  0  0  0  0  2  0  0  0  0  0  0
  189.3870  177.7900  142.3370 C   0  0  0  0  0  0  0  0  0  0  0  0
  190.5280  175.7960  143.2030 C   0  0  0  0  0  3  0  0  0  0  0  0
  190.2220  178.6250  142.9660 C   0  0  0  0  0  3  0  0  0  0  0  0
  189.5530  176.3320  142.4640 C   0  0  0  0  0  3  0  0  0  0  0  0
  192.1090  178.9130  144.3510 O   0  0  0  0  0  0  0  0  0  0  0  0
  185.0750  179.3490  142.2020 C   0  0  0  0  0  2  0  0  0  0  0  0
  184.6210  178.5690  143.4290 C   0  0  0  0  0  2  0  0  0  0  0  0
  185.3430  179.0410  144.6800 C   0  0  0  0  0  2  0  0  0  0  0  0
  184.9480  178.2330  145.8220 N   0  0  0  0  0  2  0  0  0  0  0  0
  186.0880  179.8890  147.6620 O   0  0  0  0  0  1  0  0  0  0  0  0
  186.1720  177.7850  146.4680 C   0  0  2  0  0  3  0  0  0  0  0  0
  186.4130  178.5370  147.7910 C   0  0  1  0  0  3  0  0  0  0  0  0
  188.5950  177.2340  147.6700 C   0  0  0  0  0  2  0  0  0  0  0  0
  188.6510  177.3660  146.1420 C   0  0  0  0  0  2  0  0  0  0  0  0
  187.3630  177.9340  145.5240 C   0  0  0  0  0  2  0  0  0  0  0  0
  187.8610  178.4210  148.2930 C   0  0  0  0  0  2  0  0  0  0  0  0
  1  8  1  0  0  0  0
  1 11  1  0  0  0  0
  2  8  2  0  0  0  0
  3  8  1  6  0  0  0
  3 15  1  0  0  0  0
  3 10  1  0  0  0  0
  4 13  1  0  0  0  0
  4 24  1  0  0  0  0
  5 12  2  0  0  0  0
  5  9  1  0  0  0  0
  6 12  1  0  0  0  0
  7 15  2  0  0  0  0
  9  1  2  0  0  0  0
 10 16  1  6  0  0  0
 10 14  1  0  0  0  0
 11 16  2  0  0  0  0
 12  2  1  0  0  0  0
 14 13  1  0  0  0  0
 14 19  1  1  0  0  0
 15  4  1  0  0  0  0
 17 18  1  0  0  0  0
 17 23  2  0  0  0  0
 19 22  1  0  0  0  0
 19 21  2  0  0  0  0
 20 18  1  0  0  0  0
 21 17  1  0  0  0  0
 22 20  2  0  0  0  0
 24 25  1  0  0  0  0
 25 26  1  0  0  0  0
 26 27  1  0  0  0  0
 29 27  1  6  0  0  0
 29 30  1  0  0  0  0
 30 28  1  6  0  0  0
 30 34  1  0  0  0  0
 31 34  1  0  0  0  0
 32 31  1  0  0  0  0
 33 32  1  0  0  0  0
 33 29  1  0  0  0  0
M  END
>  <MODEL>
1

>  <REMARK>
 VINA RESULT:      -9.1      0.000      0.000
  Name = 
  6 active torsions:
  status: ('A' for Active; 'I' for Inactive)
    1  A    between atoms: N_3  and  C_13
    2  A    between atoms: N_3  and  C_17
    3  A    between atoms: N_5  and  C_18
    4  A    between atoms: C_12  and  C_28
    5  A    between atoms: C_17  and  C_29
    6  A    between atoms: C_18  and  C_29
                            x       y       z     vdW  Elec       q    Type
                         _______ _______ _______ _____ _____    ______ ____

>  <TORSDO>
F 6

$$$$
=
 OpenBabel10252415083D

 34 38  0  0  1  0  0  0  0  0999 V2000
  191.1710  177.2160  139.9570 C   0  0  0  0  0  0  0  0  0  0  0  0
  189.3150  177.3730  138.3960 C   0  0  0  0  0  3  0  0  0  0  0  0
  189.0550  178.2320  140.7960 C   0  0  2  0  0  3  0  0  0  0  0  0
  186.8390  178.4560  141.9430 N   0  0  0  0  0  0  0  0  0  0  0  0
  191.4520  176.4960  137.6640 C   0  0  0  0  0  3  0  0  0  0  0  0
  189.5710  176.6310  136.0260 C   0  0  0  0  0  1  0  0  0  0  0  0
  186.9760  178.5170  139.6010 O   0  0  0  0  0  0  0  0  0  0  0  0
  189.8260  177.5530  139.6880 C   0  0  0  0  0  0  0  0  0  0  0  0
  191.9800  176.6910  138.9450 C   0  0  0  0  0  3  0  0  0  0  0  0
  189.4530  177.5880  142.1250 C   0  0  2  0  0  3  0  0  0  0  0  0
  191.7120  177.4410  141.3180 C   0  0  0  0  0  3  0  0  0  0  0  0
  190.1220  176.8320  137.3910 C   0  0  0  0  0  0  0  0  0  0  0  0
  187.2760  177.7980  143.0590 O   0  0  0  0  0  0  0  0  0  0  0  0
  188.6200  178.1800  143.2700 C   0  0  1  0  0  3  0  0  0  0  0  0
  187.5580  178.3360  140.7030 C   0  0  0  0  0  0  0  0  0  0  0  0
  190.9040  177.6720  142.3160 N   0  0  0  0  0  0  0  0  0  0  0  0
  190.8310  176.9580  146.1490 C   0  0  0  0  0  0  0  0  0  0  0  0
  189.8640  176.8090  147.2920 C   0  0  0  0  0  2  0  0  0  0  0  0
  189.0850  177.6910  144.6080 C   0  0  0  0  0  0  0  0  0  0  0  0
  188.4440  177.1410  146.9140 C   0  0  0  0  0  3  0  0  0  0  0  0
  190.3770  177.4180  144.8300 C   0  0  0  0  0  3  0  0  0  0  0  0
  188.0950  177.5440  145.6900 C   0  0  0  0  0  3  0  0  0  0  0  0
  192.0480  176.6890  146.3260 O   0  0  0  0  0  0  0  0  0  0  0  0
  185.6510  179.2940  142.0260 C   0  0  0  0  0  2  0  0  0  0  0  0
  184.5630  178.6010  142.8380 C   0  0  0  0  0  2  0  0  0  0  0  0
  183.2770  178.4720  142.0390 C   0  0  0  0  0  2  0  0  0  0  0  0
  183.5720  178.0510  140.6800 N   0  0  0  0  0  2  0  0  0  0  0  0
  184.0140  180.2600  139.1460 O   0  0  0  0  0  1  0  0  0  0  0  0
  182.4790  178.5230  139.8430 C   0  0  2  0  0  3  0  0  0  0  0  0
  182.9960  179.4150  138.6970 C   0  0  1  0  0  3  0  0  0  0  0  0
  180.4960  179.7120  138.3350 C   0  0  0  0  0  2  0  0  0  0  0  0
  180.2180  179.6700  139.8430 C   0  0  0  0  0  2  0  0  0  0  0  0
  181.4360  179.2560  140.6840 C   0  0  0  0  0  2  0  0  0  0  0  0
  181.8910  180.2670  138.0530 C   0  0  0  0  0  2  0  0  0  0  0  0
  1 11  1  0  0  0  0
  2  8  2  0  0  0  0
  3  8  1  6  0  0  0
  3 10  1  0  0  0  0
  4 24  1  0  0  0  0
  4 13  1  0  0  0  0
  5  9  1  0  0  0  0
  6 12  1  0  0  0  0
  7 15  2  0  0  0  0
  8  1  1  0  0  0  0
  9  1  2  0  0  0  0
 10 16  1  1  0  0  0
 10 14  1  0  0  0  0
 11 16  2  0  0  0  0
 12  5  2  0  0  0  0
 12  2  1  0  0  0  0
 13 14  1  0  0  0  0
 14 19  1  1  0  0  0
 15  3  1  0  0  0  0
 15  4  1  0  0  0  0
 17 23  2  0  0  0  0
 17 18  1  0  0  0  0
 19 21  2  0  0  0  0
 19 22  1  0  0  0  0
 20 18  1  0  0  0  0
 21 17  1  0  0  0  0
 22 20  2  0  0  0  0
 24 25  1  0  0  0  0
 26 25  1  0  0  0  0
 27 26  1  0  0  0  0
 29 27  1  1  0  0  0
 29 33  1  0  0  0  0
 30 28  1  1  0  0  0
 30 29  1  0  0  0  0
 31 32  1  0  0  0  0
 32 33  1  0  0  0  0
 34 31  1  0  0  0  0
 34 30  1  0  0  0  0
M  END
>  <MODEL>
2

>  <REMARK>
 VINA RESULT:      -8.6      2.493      5.402
  Name = 
  6 active torsions:
  status: ('A' for Active; 'I' for Inactive)
    1  A    between atoms: N_3  and  C_13
    2  A    between atoms: N_3  and  C_17
    3  A    between atoms: N_5  and  C_18
    4  A    between atoms: C_12  and  C_28
    5  A    between atoms: C_17  and  C_29
    6  A    between atoms: C_18  and  C_29
                            x       y       z     vdW  Elec       q    Type
                         _______ _______ _______ _____ _____    ______ ____

>  <TORSDO>
F 6

$$$$
=
 OpenBabel10252415083D

 34 38  0  0  1  0  0  0  0  0999 V2000
  186.9000  178.1890  138.2600 C   0  0  0  0  0  0  0  0  0  0  0  0
  186.2950  178.4630  140.5970 C   0  0  0  0  0  3  0  0  0  0  0  0
  188.7510  178.1700  139.9290 C   0  0  2  0  0  3  0  0  0  0  0  0
  190.5070  177.3070  141.4940 N   0  0  0  0  0  0  0  0  0  0  0  0
  184.5910  178.5660  138.8770 C   0  0  0  0  0  3  0  0  0  0  0  0
  183.9200  178.8450  141.2660 C   0  0  0  0  0  1  0  0  0  0  0  0
  188.5770  178.3490  142.3310 O   0  0  0  0  0  0  0  0  0  0  0  0
  187.2730  178.2330  139.6210 C   0  0  0  0  0  0  0  0  0  0  0  0
  185.5620  178.3580  137.8920 C   0  0  0  0  0  3  0  0  0  0  0  0
  189.4020  177.1740  138.9680 C   0  0  2  0  0  3  0  0  0  0  0  0
  187.9470  177.9780  137.2320 C   0  0  0  0  0  3  0  0  0  0  0  0
  184.9550  178.6140  140.2260 C   0  0  0  0  0  0  0  0  0  0  0  0
  190.9640  176.3960  140.5830 O   0  0  0  0  0  0  0  0  0  0  0  0
  190.8880  177.0040  139.3100 C   0  0  1  0  0  3  0  0  0  0  0  0
  189.2050  177.8980  141.3360 C   0  0  0  0  0  0  0  0  0  0  0  0
  189.1320  177.5580  137.5790 N   0  0  0  0  0  0  0  0  0  0  0  0
  193.5120  175.6590  136.8650 C   0  0  0  0  0  0  0  0  0  0  0  0
  192.9040  174.3750  136.3720 C   0  0  0  0  0  2  0  0  0  0  0  0
  191.6000  176.1580  138.2970 C   0  0  0  0  0  0  0  0  0  0  0  0
  191.5410  174.1040  136.9530 C   0  0  0  0  0  3  0  0  0  0  0  0
  192.8100  176.5020  137.8430 C   0  0  0  0  0  3  0  0  0  0  0  0
  190.9520  174.9190  137.8320 C   0  0  0  0  0  3  0  0  0  0  0  0
  194.6420  176.0150  136.4380 O   0  0  0  0  0  0  0  0  0  0  0  0
  191.3570  177.6880  142.6140 C   0  0  0  0  0  2  0  0  0  0  0  0
  191.0280  176.8510  143.8440 C   0  0  0  0  0  2  0  0  0  0  0  0
  190.6120  177.7290  145.0130 C   0  0  0  0  0  2  0  0  0  0  0  0
  189.6810  177.0150  145.8700 N   0  0  0  0  0  2  0  0  0  0  0  0
  188.0670  176.8740  148.0620 O   0  0  0  0  0  1  0  0  0  0  0  0
  188.4240  177.7470  145.8320 C   0  0  2  0  0  3  0  0  0  0  0  0
  187.8800  177.9970  147.2520 C   0  0  1  0  0  3  0  0  0  0  0  0
  185.9110  178.8870  145.9090 C   0  0  0  0  0  2  0  0  0  0  0  0
  186.0990  177.8170  144.8250 C   0  0  0  0  0  2  0  0  0  0  0  0
  187.3990  177.0120  144.9710 C   0  0  0  0  0  2  0  0  0  0  0  0
  186.3900  178.3760  147.2670 C   0  0  0  0  0  2  0  0  0  0  0  0
  1  8  1  0  0  0  0
  3  8  1  1  0  0  0
  3 15  1  0  0  0  0
  4 24  1  0  0  0  0
  5 12  2  0  0  0  0
  8  2  2  0  0  0  0
  9  1  2  0  0  0  0
  9  5  1  0  0  0  0
 10 16  1  6  0  0  0
 10 14  1  0  0  0  0
 10  3  1  0  0  0  0
 11 16  2  0  0  0  0
 11  1  1  0  0  0  0
 12  2  1  0  0  0  0
 12  6  1  0  0  0  0
 13  4  1  0  0  0  0
 14 19  1  6  0  0  0
 14 13  1  0  0  0  0
 15  4  1  0  0  0  0
 15  7  2  0  0  0  0
 17 21  1  0  0  0  0
 18 17  1  0  0  0  0
 18 20  1  0  0  0  0
 20 22  2  0  0  0  0
 21 19  2  0  0  0  0
 22 19  1  0  0  0  0
 23 17  2  0  0  0  0
 24 25  1  0  0  0  0
 25 26  1  0  0  0  0
 26 27  1  0  0  0  0
 29 27  1  1  0  0  0
 29 30  1  0  0  0  0
 30 34  1  0  0  0  0
 30 28  1  1  0  0  0
 31 34  1  0  0  0  0
 32 33  1  0  0  0  0
 32 31  1  0  0  0  0
 33 29  1  0  0  0  0
M  END
>  <MODEL>
3

>  <REMARK>
 VINA RESULT:      -8.5      2.783      4.697
  Name = 
  6 active torsions:
  status: ('A' for Active; 'I' for Inactive)
    1  A    between atoms: N_3  and  C_13
    2  A    between atoms: N_3  and  C_17
    3  A    between atoms: N_5  and  C_18
    4  A    between atoms: C_12  and  C_28
    5  A    between atoms: C_17  and  C_29
    6  A    between atoms: C_18  and  C_29
                            x       y       z     vdW  Elec       q    Type
                         _______ _______ _______ _____ _____    ______ ____

>  <TORSDO>
F 6

$$$$
=
 OpenBabel10252415083D

 34 38  0  0  1  0  0  0  0  0999 V2000
  190.9240  177.3280  140.0430 C   0  0  0  0  0  0  0  0  0  0  0  0
  188.9600  177.4610  138.6190 C   0  0  0  0  0  3  0  0  0  0  0  0
  188.8420  178.2550  141.0520 C   0  0  2  0  0  3  0  0  0  0  0  0
  186.7050  178.3780  142.3540 N   0  0  0  0  0  0  0  0  0  0  0  0
  191.0680  176.6720  137.7180 C   0  0  0  0  0  3  0  0  0  0  0  0
  189.0740  176.7840  136.2180 C   0  0  0  0  0  1  0  0  0  0  0  0
  186.6770  178.4990  140.0100 O   0  0  0  0  0  0  0  0  0  0  0  0
  189.5550  177.6280  139.8760 C   0  0  0  0  0  0  0  0  0  0  0  0
  191.6770  176.8550  138.9650 C   0  0  0  0  0  3  0  0  0  0  0  0
  189.3520  177.5920  142.3330 C   0  0  2  0  0  3  0  0  0  0  0  0
  191.5520  177.5390  141.3690 C   0  0  0  0  0  3  0  0  0  0  0  0
  189.7120  176.9710  137.5470 C   0  0  0  0  0  0  0  0  0  0  0  0
  187.2390  177.7090  143.4200 O   0  0  0  0  0  0  0  0  0  0  0  0
  188.5820  178.1300  143.5480 C   0  0  1  0  0  3  0  0  0  0  0  0
  187.3400  178.3110  141.0650 C   0  0  0  0  0  0  0  0  0  0  0  0
  190.8090  177.7200  142.4260 N   0  0  0  0  0  0  0  0  0  0  0  0
  188.9490  176.9910  147.1860 C   0  0  0  0  0  0  0  0  0  0  0  0
  190.3880  176.5600  147.2730 C   0  0  0  0  0  2  0  0  0  0  0  0
  189.1540  177.6250  144.8380 C   0  0  0  0  0  0  0  0  0  0  0  0
  191.1420  176.7490  145.9830 C   0  0  0  0  0  3  0  0  0  0  0  0
  188.3890  177.5050  145.9290 C   0  0  0  0  0  3  0  0  0  0  0  0
  190.5740  177.2330  144.8750 C   0  0  0  0  0  3  0  0  0  0  0  0
  188.2130  176.9070  148.2040 O   0  0  0  0  0  0  0  0  0  0  0  0
  185.5000  179.1750  142.5400 C   0  0  0  0  0  2  0  0  0  0  0  0
  184.8020  178.7930  143.8400 C   0  0  0  0  0  2  0  0  0  0  0  0
  183.5330  179.6040  144.0420 C   0  0  0  0  0  2  0  0  0  0  0  0
  182.3750  178.7250  144.0670 N   0  0  0  0  0  2  0  0  0  0  0  0
  179.8110  177.8080  144.1840 O   0  0  0  0  0  1  0  0  0  0  0  0
  181.4250  179.2490  143.0980 C   0  0  2  0  0  3  0  0  0  0  0  0
  179.9730  179.0560  143.5780 C   0  0  1  0  0  3  0  0  0  0  0  0
  179.5040  179.9500  141.2430 C   0  0  0  0  0  2  0  0  0  0  0  0
  180.7250  179.2230  140.6620 C   0  0  0  0  0  2  0  0  0  0  0  0
  181.6430  178.6080  141.7290 C   0  0  0  0  0  2  0  0  0  0  0  0
  178.9430  179.1950  142.4460 C   0  0  0  0  0  2  0  0  0  0  0  0
  1 11  1  0  0  0  0
  2  8  2  0  0  0  0
  3  8  1  6  0  0  0
  3 15  1  0  0  0  0
  3 10  1  0  0  0  0
  4 24  1  0  0  0  0
  4 13  1  0  0  0  0
  5  9  1  0  0  0  0
  6 12  1  0  0  0  0
  7 15  2  0  0  0  0
  8  1  1  0  0  0  0
  9  1  2  0  0  0  0
 10 16  1  1  0  0  0
 10 14  1  0  0  0  0
 11 16  2  0  0  0  0
 12  5  2  0  0  0  0
 12  2  1  0  0  0  0
 13 14  1  0  0  0  0
 14 19  1  1  0  0  0
 15  4  1  0  0  0  0
 17 18  1  0  0  0  0
 17 23  2  0  0  0  0
 19 22  1  0  0  0  0
 19 21  2  0  0  0  0
 20 18  1  0  0  0  0
 21 17  1  0  0  0  0
 22 20  2  0  0  0  0
 24 25  1  0  0  0  0
 25 26  1  0  0  0  0
 26 27  1  0  0  0  0
 29 30  1  0  0  0  0
 29 27  1  1  0  0  0
 30 28  1  6  0  0  0
 31 34  1  0  0  0  0
 32 31  1  0  0  0  0
 32 33  1  0  0  0  0
 33 29  1  0  0  0  0
 34 30  1  0  0  0  0
M  END
>  <MODEL>
4

>  <REMARK>
 VINA RESULT:      -8.4      2.791      4.889
  Name = 
  6 active torsions:
  status: ('A' for Active; 'I' for Inactive)
    1  A    between atoms: N_3  and  C_13
    2  A    between atoms: N_3  and  C_17
    3  A    between atoms: N_5  and  C_18
    4  A    between atoms: C_12  and  C_28
    5  A    between atoms: C_17  and  C_29
    6  A    between atoms: C_18  and  C_29
                            x       y       z     vdW  Elec       q    Type
                         _______ _______ _______ _____ _____    ______ ____

>  <TORSDO>
F 6

$$$$
=
 OpenBabel10252415083D

 34 38  0  0  1  0  0  0  0  0999 V2000
  190.2880  176.7940  145.2380 C   0  0  0  0  0  0  0  0  0  0  0  0
  188.5370  177.7460  146.6270 C   0  0  0  0  0  3  0  0  0  0  0  0
  188.0580  177.1450  144.1830 C   0  0  2  0  0  3  0  0  0  0  0  0
  186.2220  178.2000  142.8430 N   0  0  0  0  0  0  0  0  0  0  0  0
  190.7170  177.2660  147.5730 C   0  0  0  0  0  3  0  0  0  0  0  0
  188.9500  178.2520  149.0380 C   0  0  0  0  0  1  0  0  0  0  0  0
  186.0840  178.1120  145.1850 O   0  0  0  0  0  0  0  0  0  0  0  0
  188.9720  177.2850  145.3790 C   0  0  0  0  0  0  0  0  0  0  0  0
  191.1550  176.7830  146.3350 C   0  0  0  0  0  3  0  0  0  0  0  0
  188.8710  177.4260  142.9190 C   0  0  2  0  0  3  0  0  0  0  0  0
  190.7290  176.2770  143.9210 C   0  0  0  0  0  3  0  0  0  0  0  0
  189.4120  177.7500  147.7180 C   0  0  0  0  0  0  0  0  0  0  0  0
  187.0560  178.4730  141.7950 O   0  0  0  0  0  0  0  0  0  0  0  0
  187.9580  177.3920  141.6850 C   0  0  1  0  0  3  0  0  0  0  0  0
  186.7650  177.9110  144.1440 C   0  0  0  0  0  0  0  0  0  0  0  0
  190.0290  176.5290  142.8500 N   0  0  0  0  0  0  0  0  0  0  0  0
  189.2980  178.6320  138.3180 C   0  0  0  0  0  0  0  0  0  0  0  0
  190.3860  177.6470  137.9920 C   0  0  0  0  0  2  0  0  0  0  0  0
  188.7390  177.5070  140.4110 C   0  0  0  0  0  0  0  0  0  0  0  0
  190.5350  176.5620  139.0270 C   0  0  0  0  0  3  0  0  0  0  0  0
  188.5170  178.5120  139.5560 C   0  0  0  0  0  3  0  0  0  0  0  0
  189.7820  176.5050  140.1290 C   0  0  0  0  0  3  0  0  0  0  0  0
  189.0560  179.5760  137.5210 O   0  0  0  0  0  0  0  0  0  0  0  0
  184.7820  178.1830  142.6280 C   0  0  0  0  0  2  0  0  0  0  0  0
  184.4360  178.8060  141.2810 C   0  0  0  0  0  2  0  0  0  0  0  0
  183.4790  177.9240  140.4960 C   0  0  0  0  0  2  0  0  0  0  0  0
  183.2910  178.4560  139.1570 N   0  0  0  0  0  2  0  0  0  0  0  0
  185.6810  179.0030  137.9660 O   0  0  0  0  0  1  0  0  0  0  0  0
  183.8260  177.4700  138.2300 C   0  0  2  0  0  3  0  0  0  0  0  0
  185.3450  177.6490  138.0390 C   0  0  1  0  0  3  0  0  0  0  0  0
  184.9330  175.8440  136.2940 C   0  0  0  0  0  2  0  0  0  0  0  0
  183.5610  176.4300  135.9340 C   0  0  0  0  0  2  0  0  0  0  0  0
  183.0910  177.5340  136.8930 C   0  0  0  0  0  2  0  0  0  0  0  0
  185.8800  176.9370  136.7860 C   0  0  0  0  0  2  0  0  0  0  0  0
  1  8  2  0  0  0  0
  1  9  1  0  0  0  0
  2 12  2  0  0  0  0
  3 15  1  1  0  0  0
  3  8  1  0  0  0  0
  4 15  1  0  0  0  0
  5 12  1  0  0  0  0
  8  2  1  0  0  0  0
  9  5  2  0  0  0  0
 10 16  1  6  0  0  0
 10  3  1  0  0  0  0
 11  1  1  0  0  0  0
 12  6  1  0  0  0  0
 13  4  1  0  0  0  0
 14 19  1  6  0  0  0
 14 13  1  0  0  0  0
 14 10  1  0  0  0  0
 15  7  2  0  0  0  0
 16 11  2  0  0  0  0
 17 21  1  0  0  0  0
 18 17  1  0  0  0  0
 18 20  1  0  0  0  0
 20 22  2  0  0  0  0
 21 19  2  0  0  0  0
 22 19  1  0  0  0  0
 23 17  2  0  0  0  0
 24  4  1  0  0  0  0
 25 24  1  0  0  0  0
 26 25  1  0  0  0  0
 27 26  1  0  0  0  0
 29 27  1  1  0  0  0
 30 28  1  6  0  0  0
 30 29  1  0  0  0  0
 31 34  1  0  0  0  0
 32 31  1  0  0  0  0
 32 33  1  0  0  0  0
 33 29  1  0  0  0  0
 34 30  1  0  0  0  0
M  END
>  <MODEL>
5

>  <REMARK>
 VINA RESULT:      -8.4      2.017      7.739
  Name = 
  6 active torsions:
  status: ('A' for Active; 'I' for Inactive)
    1  A    between atoms: N_3  and  C_13
    2  A    between atoms: N_3  and  C_17
    3  A    between atoms: N_5  and  C_18
    4  A    between atoms: C_12  and  C_28
    5  A    between atoms: C_17  and  C_29
    6  A    between atoms: C_18  and  C_29
                            x       y       z     vdW  Elec       q    Type
                         _______ _______ _______ _____ _____    ______ ____

>  <TORSDO>
F 6

$$$$
=
 OpenBabel10252415083D

 34 38  0  0  1  0  0  0  0  0999 V2000
  183.1070  179.0100  139.8980 C   0  0  0  0  0  0  0  0  0  0  0  0
  181.8300  178.5870  141.9220 C   0  0  0  0  0  3  0  0  0  0  0  0
  184.3560  178.9930  142.0550 C   0  0  2  0  0  3  0  0  0  0  0  0
  185.7790  178.1800  143.9500 N   0  0  0  0  0  0  0  0  0  0  0  0
  180.7070  178.7270  139.7780 C   0  0  0  0  0  3  0  0  0  0  0  0
  179.3530  178.2830  141.8290 C   0  0  0  0  0  1  0  0  0  0  0  0
  183.4830  178.5560  144.2650 O   0  0  0  0  0  0  0  0  0  0  0  0
  183.0620  178.8090  141.2950 C   0  0  0  0  0  0  0  0  0  0  0  0
  181.9310  178.9710  139.1450 C   0  0  0  0  0  3  0  0  0  0  0  0
  185.4960  178.4160  141.2140 C   0  0  2  0  0  3  0  0  0  0  0  0
  184.4130  179.2780  139.2500 C   0  0  0  0  0  3  0  0  0  0  0  0
  180.6570  178.5320  141.1620 C   0  0  0  0  0  0  0  0  0  0  0  0
  186.7030  177.6310  143.1070 O   0  0  0  0  0  0  0  0  0  0  0  0
  186.8170  178.4920  141.9920 C   0  0  1  0  0  3  0  0  0  0  0  0
  184.4610  178.4990  143.4720 C   0  0  0  0  0  0  0  0  0  0  0  0
  185.5240  179.0510  139.8940 N   0  0  0  0  0  0  0  0  0  0  0  0
  189.3080  178.1890  139.0990 C   0  0  0  0  0  0  0  0  0  0  0  0
  190.3500  177.2460  139.6330 C   0  0  0  0  0  2  0  0  0  0  0  0
  187.9850  178.0820  141.1470 C   0  0  0  0  0  0  0  0  0  0  0  0
  190.0470  176.7540  141.0240 C   0  0  0  0  0  3  0  0  0  0  0  0
  188.1510  178.5790  139.9160 C   0  0  0  0  0  3  0  0  0  0  0  0
  188.9680  177.1400  141.7110 C   0  0  0  0  0  3  0  0  0  0  0  0
  189.4310  178.6560  137.9360 O   0  0  0  0  0  0  0  0  0  0  0  0
  186.1470  178.4580  145.3320 C   0  0  0  0  0  2  0  0  0  0  0  0
  186.6130  177.1850  146.0280 C   0  0  0  0  0  2  0  0  0  0  0  0
  187.5980  177.4950  147.1430 C   0  0  0  0  0  2  0  0  0  0  0  0
  188.6610  178.3540  146.6480 N   0  0  0  0  0  2  0  0  0  0  0  0
  190.8090  177.5020  148.0930 O   0  0  0  0  0  1  0  0  0  0  0  0
  189.6260  177.4920  145.9820 C   0  0  2  0  0  3  0  0  0  0  0  0
  190.4670  176.7000  147.0020 C   0  0  1  0  0  3  0  0  0  0  0  0
  191.6800  176.0190  144.8720 C   0  0  0  0  0  2  0  0  0  0  0  0
  191.4720  177.4050  144.2470 C   0  0  0  0  0  2  0  0  0  0  0  0
  190.5170  178.3050  145.0460 C   0  0  0  0  0  2  0  0  0  0  0  0
  191.7510  176.1130  146.3950 C   0  0  0  0  0  2  0  0  0  0  0  0
  1  8  1  0  0  0  0
  3  8  1  6  0  0  0
  3 15  1  0  0  0  0
  4 24  1  0  0  0  0
  5 12  2  0  0  0  0
  8  2  2  0  0  0  0
  9  5  1  0  0  0  0
  9  1  2  0  0  0  0
 10 16  1  6  0  0  0
 10 14  1  0  0  0  0
 10  3  1  0  0  0  0
 11 16  2  0  0  0  0
 11  1  1  0  0  0  0
 12  6  1  0  0  0  0
 12  2  1  0  0  0  0
 13  4  1  0  0  0  0
 14 19  1  6  0  0  0
 14 13  1  0  0  0  0
 15  4  1  0  0  0  0
 15  7  2  0  0  0  0
 17 18  1  0  0  0  0
 17 21  1  0  0  0  0
 18 20  1  0  0  0  0
 19 22  1  0  0  0  0
 20 22  2  0  0  0  0
 21 19  2  0  0  0  0
 23 17  2  0  0  0  0
 24 25  1  0  0  0  0
 25 26  1  0  0  0  0
 27 26  1  0  0  0  0
 29 27  1  1  0  0  0
 29 30  1  0  0  0  0
 30 28  1  1  0  0  0
 31 34  1  0  0  0  0
 32 31  1  0  0  0  0
 32 33  1  0  0  0  0
 33 29  1  0  0  0  0
 34 30  1  0  0  0  0
M  END
>  <MODEL>
6

>  <REMARK>
 VINA RESULT:      -8.4      2.625      4.872
  Name = 
  6 active torsions:
  status: ('A' for Active; 'I' for Inactive)
    1  A    between atoms: N_3  and  C_13
    2  A    between atoms: N_3  and  C_17
    3  A    between atoms: N_5  and  C_18
    4  A    between atoms: C_12  and  C_28
    5  A    between atoms: C_17  and  C_29
    6  A    between atoms: C_18  and  C_29
                            x       y       z     vdW  Elec       q    Type
                         _______ _______ _______ _____ _____    ______ ____

>  <TORSDO>
F 6

$$$$
=
 OpenBabel10252415083D

 34 38  0  0  1  0  0  0  0  0999 V2000
  188.7030  176.9950  144.9990 C   0  0  0  0  0  0  0  0  0  0  0  0
  187.6470  178.0440  146.9190 C   0  0  0  0  0  3  0  0  0  0  0  0
  186.3440  177.7520  144.7320 C   0  0  2  0  0  3  0  0  0  0  0  0
  184.3800  179.1760  144.1020 N   0  0  0  0  0  0  0  0  0  0  0  0
  189.9040  177.1770  147.0920 C   0  0  0  0  0  3  0  0  0  0  0  0
  188.8620  178.2540  149.0910 C   0  0  0  0  0  1  0  0  0  0  0  0
  184.9620  178.8840  146.3580 O   0  0  0  0  0  0  0  0  0  0  0  0
  187.5930  177.6480  145.5770 C   0  0  0  0  0  0  0  0  0  0  0  0
  189.8530  176.7590  145.7580 C   0  0  0  0  0  3  0  0  0  0  0  0
  186.7600  178.0370  143.2880 C   0  0  2  0  0  3  0  0  0  0  0  0
  188.6240  176.5500  143.5870 C   0  0  0  0  0  3  0  0  0  0  0  0
  188.8050  177.8210  147.6700 C   0  0  0  0  0  0  0  0  0  0  0  0
  184.8810  179.4290  142.8570 O   0  0  0  0  0  0  0  0  0  0  0  0
  185.5180  178.2480  142.4120 C   0  0  1  0  0  3  0  0  0  0  0  0
  185.2450  178.6910  145.1450 C   0  0  0  0  0  0  0  0  0  0  0  0
  187.6780  176.9990  142.8100 N   0  0  0  0  0  0  0  0  0  0  0  0
  187.4930  178.4380  139.1360 C   0  0  0  0  0  0  0  0  0  0  0  0
  186.4200  178.5660  138.0900 C   0  0  0  0  0  2  0  0  0  0  0  0
  185.8730  178.3750  140.9620 C   0  0  0  0  0  0  0  0  0  0  0  0
  185.0290  178.6060  138.6670 C   0  0  0  0  0  3  0  0  0  0  0  0
  187.1500  178.3340  140.5610 C   0  0  0  0  0  3  0  0  0  0  0  0
  184.7860  178.5170  139.9780 C   0  0  0  0  0  3  0  0  0  0  0  0
  188.7020  178.4170  138.7870 O   0  0  0  0  0  0  0  0  0  0  0  0
  182.9610  179.3800  144.3590 C   0  0  0  0  0  2  0  0  0  0  0  0
  182.1360  178.9950  143.1380 C   0  0  0  0  0  2  0  0  0  0  0  0
  180.7300  179.5650  143.2210 C   0  0  0  0  0  2  0  0  0  0  0  0
  180.3400  180.1280  141.9390 N   0  0  0  0  0  2  0  0  0  0  0  0
  180.4160  181.0120  139.3620 O   0  0  0  0  0  1  0  0  0  0  0  0
  180.7760  179.1910  140.9150 C   0  0  2  0  0  3  0  0  0  0  0  0
  181.2490  179.9280  139.6470 C   0  0  1  0  0  3  0  0  0  0  0  0
  181.3770  177.5370  138.7880 C   0  0  0  0  0  2  0  0  0  0  0  0
  180.1360  177.1250  139.5930 C   0  0  0  0  0  2  0  0  0  0  0  0
  179.6660  178.1940  140.5910 C   0  0  0  0  0  2  0  0  0  0  0  0
  181.3160  179.0160  138.4120 C   0  0  0  0  0  2  0  0  0  0  0  0
  1  8  2  0  0  0  0
  1  9  1  0  0  0  0
  2 12  2  0  0  0  0
  3 15  1  1  0  0  0
  3  8  1  0  0  0  0
  4 24  1  0  0  0  0
  4 15  1  0  0  0  0
  5 12  1  0  0  0  0
  8  2  1  0  0  0  0
  9  5  2  0  0  0  0
 10 16  1  6  0  0  0
 10  3  1  0  0  0  0
 11  1  1  0  0  0  0
 12  6  1  0  0  0  0
 13  4  1  0  0  0  0
 14 19  1  6  0  0  0
 14 13  1  0  0  0  0
 14 10  1  0  0  0  0
 15  7  2  0  0  0  0
 16 11  2  0  0  0  0
 17 21  1  0  0  0  0
 18 20  1  0  0  0  0
 18 17  1  0  0  0  0
 20 22  2  0  0  0  0
 21 19  2  0  0  0  0
 22 19  1  0  0  0  0
 23 17  2  0  0  0  0
 25 26  1  0  0  0  0
 25 24  1  0  0  0  0
 27 26  1  0  0  0  0
 29 27  1  1  0  0  0
 30 28  1  6  0  0  0
 30 29  1  0  0  0  0
 31 32  1  0  0  0  0
 32 33  1  0  0  0  0
 33 29  1  0  0  0  0
 34 31  1  0  0  0  0
 34 30  1  0  0  0  0
M  END
>  <MODEL>
7

>  <REMARK>
 VINA RESULT:      -8.4      3.014      7.863
  Name = 
  6 active torsions:
  status: ('A' for Active; 'I' for Inactive)
    1  A    between atoms: N_3  and  C_13
    2  A    between atoms: N_3  and  C_17
    3  A    between atoms: N_5  and  C_18
    4  A    between atoms: C_12  and  C_28
    5  A    between atoms: C_17  and  C_29
    6  A    between atoms: C_18  and  C_29
                            x       y       z     vdW  Elec       q    Type
                         _______ _______ _______ _____ _____    ______ ____

>  <TORSDO>
F 6

$$$$
=
 OpenBabel10252415083D

 34 38  0  0  1  0  0  0  0  0999 V2000
  181.9170  179.1350  141.4380 C   0  0  0  0  0  0  0  0  0  0  0  0
  182.5760  179.8530  139.2120 C   0  0  0  0  0  3  0  0  0  0  0  0
  184.2110  178.5290  140.6740 C   0  0  2  0  0  3  0  0  0  0  0  0
  186.6980  178.6140  140.3780 N   0  0  0  0  0  0  0  0  0  0  0  0
  180.3350  180.2970  140.0230 C   0  0  0  0  0  3  0  0  0  0  0  0
  180.9690  181.0610  137.7310 C   0  0  0  0  0  1  0  0  0  0  0  0
  185.2690  179.0960  138.5780 O   0  0  0  0  0  0  0  0  0  0  0  0
  182.8980  179.2350  140.4270 C   0  0  0  0  0  0  0  0  0  0  0  0
  180.6390  179.6630  141.2320 C   0  0  0  0  0  3  0  0  0  0  0  0
  184.5810  178.7010  142.1480 C   0  0  2  0  0  3  0  0  0  0  0  0
  182.2570  178.4500  142.7070 C   0  0  0  0  0  3  0  0  0  0  0  0
  181.3020  180.3950  139.0160 C   0  0  0  0  0  0  0  0  0  0  0  0
  186.9140  178.8410  141.7080 O   0  0  0  0  0  0  0  0  0  0  0  0
  185.9590  178.0840  142.4230 C   0  0  1  0  0  3  0  0  0  0  0  0
  185.3980  178.8430  139.8060 C   0  0  0  0  0  0  0  0  0  0  0  0
  183.5020  178.1990  143.0050 N   0  0  0  0  0  0  0  0  0  0  0  0
  185.7890  178.6460  146.2080 C   0  0  0  0  0  0  0  0  0  0  0  0
  187.0340  177.9720  146.7160 C   0  0  0  0  0  2  0  0  0  0  0  0
  186.2920  178.0910  143.8840 C   0  0  0  0  0  0  0  0  0  0  0  0
  187.8770  177.3780  145.6190 C   0  0  0  0  0  3  0  0  0  0  0  0
  185.4680  178.6580  144.7740 C   0  0  0  0  0  3  0  0  0  0  0  0
  187.5330  177.4330  144.3290 C   0  0  0  0  0  3  0  0  0  0  0  0
  185.0080  179.2040  147.0220 O   0  0  0  0  0  0  0  0  0  0  0  0
  187.7880  178.1190  139.5490 C   0  0  0  0  0  2  0  0  0  0  0  0
  188.7050  177.2100  140.3590 C   0  0  0  0  0  2  0  0  0  0  0  0
  190.1420  177.7020  140.3210 C   0  0  0  0  0  2  0  0  0  0  0  0
  191.0300  176.7010  140.8880 N   0  0  0  0  0  2  0  0  0  0  0  0
  190.0450  175.2500  142.9740 O   0  0  0  0  0  1  0  0  0  0  0  0
  191.3620  177.1420  142.2340 C   0  0  2  0  0  3  0  0  0  0  0  0
  191.1900  176.0000  143.2550 C   0  0  1  0  0  3  0  0  0  0  0  0
  191.6940  177.9020  144.8670 C   0  0  0  0  0  2  0  0  0  0  0  0
  190.9330  178.9120  143.9970 C   0  0  0  0  0  2  0  0  0  0  0  0
  190.5260  178.3590  142.6230 C   0  0  0  0  0  2  0  0  0  0  0  0
  191.1130  176.4980  144.7070 C   0  0  0  0  0  2  0  0  0  0  0  0
  1 11  1  0  0  0  0
  2  8  1  0  0  0  0
  3 15  1  6  0  0  0
  3 10  1  0  0  0  0
  4 13  1  0  0  0  0
  5  9  2  0  0  0  0
  6 12  1  0  0  0  0
  7 15  2  0  0  0  0
  8  3  1  0  0  0  0
  8  1  2  0  0  0  0
  9  1  1  0  0  0  0
 10 14  1  0  0  0  0
 10 16  1  1  0  0  0
 11 16  2  0  0  0  0
 12  2  2  0  0  0  0
 12  5  1  0  0  0  0
 13 14  1  0  0  0  0
 14 19  1  1  0  0  0
 15  4  1  0  0  0  0
 17 18  1  0  0  0  0
 17 23  2  0  0  0  0
 19 22  1  0  0  0  0
 19 21  2  0  0  0  0
 20 18  1  0  0  0  0
 21 17  1  0  0  0  0
 22 20  2  0  0  0  0
 24 25  1  0  0  0  0
 24  4  1  0  0  0  0
 26 25  1  0  0  0  0
 26 27  1  0  0  0  0
 29 27  1  6  0  0  0
 29 33  1  0  0  0  0
 29 30  1  0  0  0  0
 30 28  1  6  0  0  0
 30 34  1  0  0  0  0
 32 31  1  0  0  0  0
 33 32  1  0  0  0  0
 34 31  1  0  0  0  0
M  END
>  <MODEL>
8

>  <REMARK>
 VINA RESULT:      -8.3      2.492      5.730
  Name = 
  6 active torsions:
  status: ('A' for Active; 'I' for Inactive)
    1  A    between atoms: N_3  and  C_13
    2  A    between atoms: N_3  and  C_17
    3  A    between atoms: N_5  and  C_18
    4  A    between atoms: C_12  and  C_28
    5  A    between atoms: C_17  and  C_29
    6  A    between atoms: C_18  and  C_29
                            x       y       z     vdW  Elec       q    Type
                         _______ _______ _______ _____ _____    ______ ____

>  <TORSDO>
F 6

$$$$
=
 OpenBabel10252415083D

 34 38  0  0  1  0  0  0  0  0999 V2000
  190.0990  176.8030  145.0150 C   0  0  0  0  0  0  0  0  0  0  0  0
  188.3360  177.7120  146.4180 C   0  0  0  0  0  3  0  0  0  0  0  0
  187.8750  177.1780  143.9540 C   0  0  2  0  0  3  0  0  0  0  0  0
  186.0470  178.2670  142.6320 N   0  0  0  0  0  0  0  0  0  0  0  0
  190.5100  177.2110  147.3650 C   0  0  0  0  0  3  0  0  0  0  0  0
  188.7310  178.1510  148.8440 C   0  0  0  0  0  1  0  0  0  0  0  0
  185.8930  178.1130  144.9690 O   0  0  0  0  0  0  0  0  0  0  0  0
  188.7810  177.2870  145.1600 C   0  0  0  0  0  0  0  0  0  0  0  0
  190.9580  176.7640  146.1170 C   0  0  0  0  0  3  0  0  0  0  0  0
  188.6970  177.4960  142.7040 C   0  0  2  0  0  3  0  0  0  0  0  0
  190.5500  176.3240  143.6870 C   0  0  0  0  0  3  0  0  0  0  0  0
  189.2030  177.6870  147.5140 C   0  0  0  0  0  0  0  0  0  0  0  0
  186.8870  178.5710  141.5970 O   0  0  0  0  0  0  0  0  0  0  0  0
  187.7930  177.4950  141.4640 C   0  0  1  0  0  3  0  0  0  0  0  0
  186.5810  177.9430  143.9270 C   0  0  0  0  0  0  0  0  0  0  0  0
  189.8570  176.6040  142.6180 N   0  0  0  0  0  0  0  0  0  0  0  0
  189.0600  178.7500  138.0740 C   0  0  0  0  0  0  0  0  0  0  0  0
  190.2530  177.8750  137.8020 C   0  0  0  0  0  2  0  0  0  0  0  0
  188.5830  177.6470  140.1990 C   0  0  0  0  0  0  0  0  0  0  0  0
  190.4950  176.8510  138.8800 C   0  0  0  0  0  3  0  0  0  0  0  0
  188.2710  178.5920  139.3040 C   0  0  0  0  0  3  0  0  0  0  0  0
  189.7310  176.7520  139.9710 C   0  0  0  0  0  3  0  0  0  0  0  0
  188.7350  179.6340  137.2390 O   0  0  0  0  0  0  0  0  0  0  0  0
  184.6080  178.2530  142.4050 C   0  0  0  0  0  2  0  0  0  0  0  0
  184.2900  178.6390  140.9660 C   0  0  0  0  0  2  0  0  0  0  0  0
  183.3540  177.6310  140.3190 C   0  0  0  0  0  2  0  0  0  0  0  0
  181.9720  177.9810  140.5940 N   0  0  0  0  0  2  0  0  0  0  0  0
  179.4400  178.9860  140.6960 O   0  0  0  0  0  1  0  0  0  0  0  0
  181.7340  179.2800  139.9820 C   0  0  2  0  0  3  0  0  0  0  0  0
  180.4540  179.9340  140.5360 C   0  0  1  0  0  3  0  0  0  0  0  0
  181.0090  181.6250  138.7180 C   0  0  0  0  0  2  0  0  0  0  0  0
  181.5350  180.5270  137.7840 C   0  0  0  0  0  2  0  0  0  0  0  0
  181.6750  179.1540  138.4610 C   0  0  0  0  0  2  0  0  0  0  0  0
  179.9300  181.0760  139.6500 C   0  0  0  0  0  2  0  0  0  0  0  0
  1  8  2  0  0  0  0
  1  9  1  0  0  0  0
  2 12  2  0  0  0  0
  3 15  1  1  0  0  0
  3  8  1  0  0  0  0
  4 15  1  0  0  0  0
  5 12  1  0  0  0  0
  8  2  1  0  0  0  0
  9  5  2  0  0  0  0
 10 16  1  6  0  0  0
 10  3  1  0  0  0  0
 11  1  1  0  0  0  0
 12  6  1  0  0  0  0
 13  4  1  0  0  0  0
 14 19  1  6  0  0  0
 14 13  1  0  0  0  0
 14 10  1  0  0  0  0
 15  7  2  0  0  0  0
 16 11  2  0  0  0  0
 17 21  1  0  0  0  0
 18 17  1  0  0  0  0
 18 20  1  0  0  0  0
 20 22  2  0  0  0  0
 21 19  2  0  0  0  0
 22 19  1  0  0  0  0
 23 17  2  0  0  0  0
 24  4  1  0  0  0  0
 25 24  1  0  0  0  0
 26 27  1  0  0  0  0
 26 25  1  0  0  0  0
 29 30  1  0  0  0  0
 29 27  1  1  0  0  0
 30 28  1  6  0  0  0
 31 34  1  0  0  0  0
 32 33  1  0  0  0  0
 32 31  1  0  0  0  0
 33 29  1  0  0  0  0
 34 30  1  0  0  0  0
M  END
>  <MODEL>
9

>  <REMARK>
 VINA RESULT:      -8.2      2.948      7.645
  Name = 
  6 active torsions:
  status: ('A' for Active; 'I' for Inactive)
    1  A    between atoms: N_3  and  C_13
    2  A    between atoms: N_3  and  C_17
    3  A    between atoms: N_5  and  C_18
    4  A    between atoms: C_12  and  C_28
    5  A    between atoms: C_17  and  C_29
    6  A    between atoms: C_18  and  C_29
                            x       y       z     vdW  Elec       q    Type
                         _______ _______ _______ _____ _____    ______ ____

>  <TORSDO>
F 6

$$$$
