=
 OpenBabel10262420233D

 55 60  0  0  1  0  0  0  0  0999 V2000
  188.3090  178.5830  141.0300 C   0  0  0  0  0  2  0  0  0  0  0  0
  188.3260  177.4630  138.3180 C   0  0  2  0  0  3  0  0  0  0  0  0
  187.1200  178.2290  138.8630 C   0  0  0  0  0  2  0  0  0  0  0  0
  189.5260  177.8370  140.4890 C   0  0  0  0  0  2  0  0  0  0  0  0
  187.0410  178.0500  140.3730 C   0  0  2  0  0  3  0  0  0  0  0  0
  189.6070  177.9800  138.9700 C   0  0  0  0  0  2  0  0  0  0  0  0
  184.8410  179.8670  140.1200 O   0  0  0  0  0  0  0  0  0  0  0  0
  185.5860  178.9110  141.0220 P   0  0  1  0  0  4  0  0  0  0  0  0
  184.9050  178.5420  142.6670 C   0  0  1  0  0  3  0  0  0  0  0  0
  183.4920  178.2020  142.5510 N   0  0  0  0  0  2  0  0  0  0  0  0
  183.4290  180.1940  143.8140 O   0  0  0  0  0  1  0  0  0  0  0  0
  182.6600  179.2860  143.0820 C   0  0  2  0  0  3  0  0  0  0  0  0
  181.5070  178.7590  143.9310 C   0  0  0  0  0  2  0  0  0  0  0  0
  180.1520  179.0990  143.3090 C   0  0  0  0  0  2  0  0  0  0  0  0
  180.1760  179.1680  141.7780 C   0  0  2  0  0  3  0  0  0  0  0  0
  179.6560  180.4930  141.2430 C   0  0  0  0  0  1  0  0  0  0  0  0
  179.4820  178.0060  141.1410 C   0  0  0  0  0  0  0  0  0  0  0  0
  179.0340  178.1150  139.9700 O   0  0  0  0  0  0  0  0  0  0  0  0
  179.3500  176.7980  141.8190 O   0  0  0  0  0  1  0  0  0  0  0  0
  185.6530  177.3950  143.3410 C   0  0  0  0  0  2  0  0  0  0  0  0
  187.8860  177.8270  146.4190 C   0  0  0  0  0  3  0  0  0  0  0  0
  187.0110  178.5000  147.2740 C   0  0  0  0  0  3  0  0  0  0  0  0
  186.1650  177.7590  144.7050 C   0  0  0  0  0  0  0  0  0  0  0  0
  185.2980  178.4410  145.5680 C   0  0  0  0  0  3  0  0  0  0  0  0
  185.7200  178.8100  146.8470 C   0  0  0  0  0  3  0  0  0  0  0  0
  187.4760  177.4600  145.1310 C   0  0  0  0  0  0  0  0  0  0  0  0
  188.4420  176.7160  144.2660 C   0  0  0  0  0  2  0  0  0  0  0  0
  189.6570  177.4040  144.2090 O   0  0  0  0  0  0  0  0  0  0  0  0
  190.6060  176.4390  143.8650 C   0  0  0  0  0  2  0  0  0  0  0  0
  191.7500  176.4590  144.8670 C   0  0  0  0  0  2  0  0  0  0  0  0
  191.3330  177.1280  146.1670 C   0  0  0  0  0  2  0  0  0  0  0  0
  192.5340  175.6900  147.7850 C   0  0  0  0  0  1  0  0  0  0  0  0
  191.1720  176.0960  147.2670 C   0  0  0  0  0  2  0  0  0  0  0  0
  188.4290  177.6090  136.8090 C   0  0  0  0  0  2  0  0  0  0  0  0
  188.0270  176.3150  136.1210 C   0  0  0  0  0  2  0  0  0  0  0  0
  186.8560  176.5470  135.1830 C   0  0  0  0  0  2  0  0  0  0  0  0
  186.0330  175.2770  135.0290 C   0  0  0  0  0  2  0  0  0  0  0  0
  184.6140  175.5960  135.0650 N   0  0  0  0  0  2  0  0  0  0  0  0
  181.4900  178.4080  135.6100 N   0  0  2  0  0  0  0  0  0  0  0  0
  183.6520  176.9480  138.9560 O   0  0  0  0  0  1  0  0  0  0  0  0
  182.8050  177.1130  137.8530 C   0  0  2  0  0  0  0  0  0  0  0  0
  184.2580  175.8980  136.4460 C   0  0  1  0  0  3  0  0  0  0  0  0
  179.8010  176.4040  137.1170 O   0  0  0  0  0  1  0  0  0  0  0  0
  182.0840  175.7920  137.5570 C   0  0  1  0  0  3  0  0  0  0  0  0
  183.6180  177.2840  136.6020 C   0  0  1  0  0  3  0  0  0  0  0  0
  180.7080  180.2110  137.0670 C   0  0  0  0  0  1  0  0  0  0  0  0
  181.3700  176.9450  135.3090 C   0  0  2  0  0  3  0  0  0  0  0  0
  183.7760  174.1510  137.9880 F   0  0  0  0  0  0  0  0  0  0  0  0
  180.9690  175.9650  136.4820 C   0  0  2  0  0  0  0  0  0  0  0  0
  182.7110  177.5930  135.3750 C   0  0  1  0  0  3  0  0  0  0  0  0
  181.9730  178.3530  138.1150 C   0  0  0  0  0  2  0  0  0  0  0  0
  183.2160  174.9190  136.9830 C   0  0  2  0  0  3  0  0  0  0  0  0
  181.0470  178.7370  136.9780 C   0  0  2  0  0  3  0  0  0  0  0  0
  180.6390  174.5970  135.8640 C   0  0  0  0  0  2  0  0  0  0  0  0
  179.8410  173.7010  136.8030 C   0  0  0  0  0  1  0  0  0  0  0  0
  2 34  1  6  0  0  0
  2  3  1  0  0  0  0
  2  6  1  0  0  0  0
  3  5  1  0  0  0  0
  4  1  1  0  0  0  0
  5  8  1  1  0  0  0
  5  1  1  0  0  0  0
  6  4  1  0  0  0  0
  8  7  2  6  0  0  0
  8  9  1  0  0  0  0
  9 20  1  6  0  0  0
 10  9  1  0  0  0  0
 10 12  1  0  0  0  0
 12 11  1  1  0  0  0
 12 13  1  0  0  0  0
 14 13  1  0  0  0  0
 15 16  1  1  0  0  0
 15 14  1  0  0  0  0
 17 15  1  0  0  0  0
 17 19  1  0  0  0  0
 18 17  2  0  0  0  0
 20 23  1  0  0  0  0
 21 22  1  0  0  0  0
 23 26  1  0  0  0  0
 23 24  2  0  0  0  0
 24 25  1  0  0  0  0
 25 22  2  0  0  0  0
 26 21  2  0  0  0  0
 27 26  1  0  0  0  0
 28 27  1  0  0  0  0
 29 28  1  0  0  0  0
 29 30  1  0  0  0  0
 30 31  1  0  0  0  0
 31 33  1  0  0  0  0
 33 32  1  0  0  0  0
 35 34  1  0  0  0  0
 36 35  1  0  0  0  0
 37 38  1  0  0  0  0
 37 36  1  0  0  0  0
 38 42  1  0  0  0  0
 39 53  1  0  0  0  0
 41 51  1  0  0  0  0
 41 40  1  0  0  0  0
 42 45  1  0  0  0  0
 42 52  1  0  0  0  0
 44 41  1  0  0  0  0
 45 41  1  0  0  0  0
 47 50  1  0  0  0  0
 47 39  1  0  0  0  0
 47 49  1  0  0  0  0
 49 43  1  0  0  0  0
 49 44  1  0  0  0  0
 50 39  1  0  0  0  0
 50 45  1  0  0  0  0
 52 44  1  0  0  0  0
 52 48  1  0  0  0  0
 53 46  1  0  0  0  0
 53 51  1  0  0  0  0
 54 49  1  0  0  0  0
 54 55  1  0  0  0  0
M  END
>  <MODEL>
1

>  <REMARK>
 VINA RESULT:      -6.8      0.000      0.000
  Name = 
  23 active torsions:
  status: ('A' for Active; 'I' for Inactive)
    1  A    between atoms: C_4  and  C_37
    2  A    between atoms: C_4  and  C_40
    3  A    between atoms: C_5  and  O_19
    4  A    between atoms: C_5  and  C_40
    5  A    between atoms: C_7  and  N_22
    6  A    between atoms: C_8  and  N_22
    7  A    between atoms: C_8  and  C_43
    8  A    between atoms: C_10  and  C_32
    9  A    between atoms: C_11  and  C_38
   10  A    between atoms: C_13  and  C_48
   11  A    between atoms: C_13  and  C_52
   12  A    between atoms: C_16  and  C_36
   13  A    between atoms: O_19  and  C_45
   14  A    between atoms: C_26  and  C_45
   15  A    between atoms: C_27  and  C_54
   16  A    between atoms: P_28  and  C_44
   17  A    between atoms: P_28  and  C_49
   18  A    between atoms: C_32  and  C_48
   19  A    between atoms: N_33  and  C_49
   20  A    between atoms: N_33  and  C_52
   21  A    between atoms: C_36  and  C_49
   22  A    between atoms: C_43  and  C_51
   23  A    between atoms: C_51  and  C_54
                            x       y       z     vdW  Elec       q    Type
                         _______ _______ _______ _____ _____    ______ ____

>  <TORSDO>
F 23

$$$$
=
 OpenBabel10262420233D

 55 60  0  0  1  0  0  0  0  0999 V2000
  187.8730  178.2080  136.6020 C   0  0  0  0  0  2  0  0  0  0  0  0
  186.4850  175.6750  136.0850 C   0  0  2  0  0  3  0  0  0  0  0  0
  186.4340  176.3540  137.4550 C   0  0  0  0  0  2  0  0  0  0  0  0
  187.9130  177.5500  135.2250 C   0  0  0  0  0  2  0  0  0  0  0  0
  187.7170  177.1430  137.6810 C   0  0  2  0  0  3  0  0  0  0  0  0
  186.6470  176.7280  134.9900 C   0  0  0  0  0  2  0  0  0  0  0  0
  186.4490  178.6500  139.7610 O   0  0  0  0  0  0  0  0  0  0  0  0
  187.6900  177.9080  139.3220 P   0  0  1  0  0  4  0  0  0  0  0  0
  189.0440  177.6770  140.5130 C   0  0  1  0  0  3  0  0  0  0  0  0
  190.3140  178.0340  139.8910 N   0  0  0  0  0  2  0  0  0  0  0  0
  192.4980  177.1410  139.8570 O   0  0  0  0  0  1  0  0  0  0  0  0
  191.1430  176.8400  139.6970 C   0  0  2  0  0  3  0  0  0  0  0  0
  190.8990  176.1880  138.3390 C   0  0  0  0  0  2  0  0  0  0  0  0
  192.0160  175.2090  137.9790 C   0  0  0  0  0  2  0  0  0  0  0  0
  192.2360  175.0510  136.4700 C   0  0  2  0  0  3  0  0  0  0  0  0
  192.3360  173.5950  136.0420 C   0  0  0  0  0  1  0  0  0  0  0  0
  193.3960  175.8530  135.9730 C   0  0  0  0  0  0  0  0  0  0  0  0
  193.7760  175.7220  134.7810 O   0  0  0  0  0  0  0  0  0  0  0  0
  194.0410  176.7610  136.8060 O   0  0  0  0  0  1  0  0  0  0  0  0
  188.8360  178.5150  141.7700 C   0  0  0  0  0  2  0  0  0  0  0  0
  189.7150  177.0200  145.1820 C   0  0  0  0  0  3  0  0  0  0  0  0
  191.1080  176.9990  145.0980 C   0  0  0  0  0  3  0  0  0  0  0  0
  189.5910  177.9820  142.9540 C   0  0  0  0  0  0  0  0  0  0  0  0
  190.9890  177.9480  142.8770 C   0  0  0  0  0  3  0  0  0  0  0  0
  191.7440  177.4580  143.9440 C   0  0  0  0  0  3  0  0  0  0  0  0
  188.9480  177.5010  144.1140 C   0  0  0  0  0  0  0  0  0  0  0  0
  187.4610  177.5300  144.2670 C   0  0  0  0  0  2  0  0  0  0  0  0
  187.1180  178.1620  145.4650 O   0  0  0  0  0  0  0  0  0  0  0  0
  185.7420  178.3840  145.3780 C   0  0  0  0  0  2  0  0  0  0  0  0
  185.2900  178.2700  143.9300 C   0  0  0  0  0  2  0  0  0  0  0  0
  184.1260  179.2040  143.6410 C   0  0  0  0  0  2  0  0  0  0  0  0
  181.6590  178.9940  143.6470 C   0  0  0  0  0  1  0  0  0  0  0  0
  182.9160  178.8170  144.4710 C   0  0  0  0  0  2  0  0  0  0  0  0
  185.2240  174.8660  135.8290 C   0  0  0  0  0  2  0  0  0  0  0  0
  184.4700  174.6330  137.1270 C   0  0  0  0  0  2  0  0  0  0  0  0
  182.9800  174.8450  136.9290 C   0  0  0  0  0  2  0  0  0  0  0  0
  182.7080  176.2200  136.3400 C   0  0  0  0  0  2  0  0  0  0  0  0
  181.7400  176.9310  137.1630 N   0  0  0  0  0  2  0  0  0  0  0  0
  179.5560  180.4890  137.8940 N   0  0  2  0  0  0  0  0  0  0  0  0
  183.6770  180.2760  138.8790 O   0  0  0  0  0  1  0  0  0  0  0  0
  182.2840  180.1380  138.8250 C   0  0  2  0  0  0  0  0  0  0  0  0
  182.4500  177.9800  137.8840 C   0  0  1  0  0  3  0  0  0  0  0  0
  179.8730  180.1980  140.8870 O   0  0  0  0  0  1  0  0  0  0  0  0
  181.8220  179.1720  139.9240 C   0  0  1  0  0  3  0  0  0  0  0  0
  181.8910  179.3790  137.5900 C   0  0  1  0  0  3  0  0  0  0  0  0
  179.7720  182.9190  138.0750 C   0  0  0  0  0  1  0  0  0  0  0  0
  179.5150  179.2070  138.6700 C   0  0  2  0  0  3  0  0  0  0  0  0
  183.5510  177.5130  139.9400 F   0  0  0  0  0  0  0  0  0  0  0  0
  180.2700  179.1430  140.0570 C   0  0  2  0  0  0  0  0  0  0  0  0
  180.3430  179.3140  137.4350 C   0  0  1  0  0  3  0  0  0  0  0  0
  181.7020  181.5370  138.7940 C   0  0  0  0  0  2  0  0  0  0  0  0
  182.3150  177.8110  139.3960 C   0  0  2  0  0  3  0  0  0  0  0  0
  180.1930  181.5820  138.6510 C   0  0  2  0  0  3  0  0  0  0  0  0
  179.8430  177.8480  140.7680 C   0  0  0  0  0  2  0  0  0  0  0  0
  178.9430  176.9700  139.9080 C   0  0  0  0  0  1  0  0  0  0  0  0
  1  5  1  0  0  0  0
  2 34  1  6  0  0  0
  2  3  1  0  0  0  0
  3  5  1  0  0  0  0
  4  1  1  0  0  0  0
  5  8  1  1  0  0  0
  6  4  1  0  0  0  0
  6  2  1  0  0  0  0
  8  7  2  1  0  0  0
  8  9  1  0  0  0  0
  9 20  1  1  0  0  0
 10  9  1  0  0  0  0
 12 11  1  6  0  0  0
 12 10  1  0  0  0  0
 13 12  1  0  0  0  0
 14 13  1  0  0  0  0
 15 16  1  1  0  0  0
 15 14  1  0  0  0  0
 17 15  1  0  0  0  0
 17 19  1  0  0  0  0
 18 17  2  0  0  0  0
 20 23  1  0  0  0  0
 22 21  1  0  0  0  0
 23 26  1  0  0  0  0
 24 23  2  0  0  0  0
 24 25  1  0  0  0  0
 25 22  2  0  0  0  0
 26 27  1  0  0  0  0
 26 21  2  0  0  0  0
 27 28  1  0  0  0  0
 29 28  1  0  0  0  0
 30 29  1  0  0  0  0
 31 30  1  0  0  0  0
 31 33  1  0  0  0  0
 32 33  1  0  0  0  0
 34 35  1  0  0  0  0
 36 35  1  0  0  0  0
 37 36  1  0  0  0  0
 37 38  1  0  0  0  0
 38 42  1  0  0  0  0
 39 53  1  0  0  0  0
 39 47  1  0  0  0  0
 41 40  1  0  0  0  0
 41 44  1  0  0  0  0
 42 52  1  0  0  0  0
 44 49  1  0  0  0  0
 45 42  1  0  0  0  0
 45 41  1  0  0  0  0
 46 53  1  0  0  0  0
 47 49  1  0  0  0  0
 49 54  1  0  0  0  0
 49 43  1  0  0  0  0
 50 45  1  0  0  0  0
 50 39  1  0  0  0  0
 50 47  1  0  0  0  0
 51 41  1  0  0  0  0
 52 44  1  0  0  0  0
 52 48  1  0  0  0  0
 53 51  1  0  0  0  0
 55 54  1  0  0  0  0
M  END
>  <MODEL>
2

>  <REMARK>
 VINA RESULT:      -6.2      3.026      7.036
  Name = 
  23 active torsions:
  status: ('A' for Active; 'I' for Inactive)
    1  A    between atoms: C_4  and  C_37
    2  A    between atoms: C_4  and  C_40
    3  A    between atoms: C_5  and  O_19
    4  A    between atoms: C_5  and  C_40
    5  A    between atoms: C_7  and  N_22
    6  A    between atoms: C_8  and  N_22
    7  A    between atoms: C_8  and  C_43
    8  A    between atoms: C_10  and  C_32
    9  A    between atoms: C_11  and  C_38
   10  A    between atoms: C_13  and  C_48
   11  A    between atoms: C_13  and  C_52
   12  A    between atoms: C_16  and  C_36
   13  A    between atoms: O_19  and  C_45
   14  A    between atoms: C_26  and  C_45
   15  A    between atoms: C_27  and  C_54
   16  A    between atoms: P_28  and  C_44
   17  A    between atoms: P_28  and  C_49
   18  A    between atoms: C_32  and  C_48
   19  A    between atoms: N_33  and  C_49
   20  A    between atoms: N_33  and  C_52
   21  A    between atoms: C_36  and  C_49
   22  A    between atoms: C_43  and  C_51
   23  A    between atoms: C_51  and  C_54
                            x       y       z     vdW  Elec       q    Type
                         _______ _______ _______ _____ _____    ______ ____

>  <TORSDO>
F 23

$$$$
=
 OpenBabel10262420233D

 55 60  0  0  1  0  0  0  0  0999 V2000
  187.4190  175.0140  135.4490 C   0  0  0  0  0  2  0  0  0  0  0  0
  184.5870  174.8130  136.1930 C   0  0  2  0  0  3  0  0  0  0  0  0
  185.4260  176.0410  136.5500 C   0  0  0  0  0  2  0  0  0  0  0  0
  186.5840  173.7920  135.0690 C   0  0  0  0  0  2  0  0  0  0  0  0
  186.8810  175.6280  136.7350 C   0  0  2  0  0  3  0  0  0  0  0  0
  185.1150  174.1790  134.9070 C   0  0  0  0  0  2  0  0  0  0  0  0
  187.5230  178.4180  136.6340 O   0  0  0  0  0  0  0  0  0  0  0  0
  187.8740  177.0660  137.2090 P   0  0  1  0  0  4  0  0  0  0  0  0
  189.1770  176.9590  138.4730 C   0  0  1  0  0  3  0  0  0  0  0  0
  190.4870  177.0720  137.8420 N   0  0  0  0  0  2  0  0  0  0  0  0
  190.5410  174.7230  138.0590 O   0  0  0  0  0  1  0  0  0  0  0  0
  190.8700  175.7960  137.2280 C   0  0  2  0  0  3  0  0  0  0  0  0
  192.3520  175.7560  136.8690 C   0  0  0  0  0  2  0  0  0  0  0  0
  193.1820  175.1210  137.9840 C   0  0  0  0  0  2  0  0  0  0  0  0
  194.6260  174.8060  137.5770 C   0  0  2  0  0  3  0  0  0  0  0  0
  194.7080  173.9280  136.3390 C   0  0  0  0  0  1  0  0  0  0  0  0
  195.4300  174.2440  138.7060 C   0  0  0  0  0  0  0  0  0  0  0  0
  195.4630  172.9990  138.8860 O   0  0  0  0  0  0  0  0  0  0  0  0
  196.1610  175.0810  139.5430 O   0  0  0  0  0  1  0  0  0  0  0  0
  189.0240  178.0480  139.5310 C   0  0  0  0  0  2  0  0  0  0  0  0
  188.7960  176.9710  143.1960 C   0  0  0  0  0  3  0  0  0  0  0  0
  190.1300  176.6490  143.4500 C   0  0  0  0  0  3  0  0  0  0  0  0
  189.3680  177.5670  140.9120 C   0  0  0  0  0  0  0  0  0  0  0  0
  190.7020  177.2340  141.1740 C   0  0  0  0  0  3  0  0  0  0  0  0
  191.0820  176.7750  142.4380 C   0  0  0  0  0  3  0  0  0  0  0  0
  188.4030  177.4230  141.9310 C   0  0  0  0  0  0  0  0  0  0  0  0
  186.9670  177.7820  141.7210 C   0  0  0  0  0  2  0  0  0  0  0  0
  186.8290  179.1710  141.6560 O   0  0  0  0  0  0  0  0  0  0  0  0
  185.5800  179.4400  142.2180 C   0  0  0  0  0  2  0  0  0  0  0  0
  185.2900  178.4470  143.3340 C   0  0  0  0  0  2  0  0  0  0  0  0
  184.6980  179.1410  144.5500 C   0  0  0  0  0  2  0  0  0  0  0  0
  186.6270  178.2990  145.8540 C   0  0  0  0  0  1  0  0  0  0  0  0
  185.1200  178.4320  145.8230 C   0  0  0  0  0  2  0  0  0  0  0  0
  183.1240  175.1850  136.0120 C   0  0  0  0  0  2  0  0  0  0  0  0
  182.2310  174.1880  136.7290 C   0  0  0  0  0  2  0  0  0  0  0  0
  181.1590  174.9050  137.5300 C   0  0  0  0  0  2  0  0  0  0  0  0
  180.7770  176.2170  136.8610 C   0  0  0  0  0  2  0  0  0  0  0  0
  179.5090  176.6950  137.3920 N   0  0  0  0  0  2  0  0  0  0  0  0
  179.5760  177.5070  141.5510 N   0  0  2  0  0  0  0  0  0  0  0  0
  179.5960  180.6980  138.7560 O   0  0  0  0  0  1  0  0  0  0  0  0
  179.9120  179.6020  139.5680 C   0  0  2  0  0  0  0  0  0  0  0  0
  179.6810  178.0930  137.7680 C   0  0  1  0  0  3  0  0  0  0  0  0
  182.3510  178.6970  141.3860 O   0  0  0  0  0  1  0  0  0  0  0  0
  181.3330  179.1200  139.2490 C   0  0  1  0  0  3  0  0  0  0  0  0
  179.1020  178.4060  139.1550 C   0  0  1  0  0  3  0  0  0  0  0  0
  178.9330  179.1600  143.2360 C   0  0  0  0  0  1  0  0  0  0  0  0
  180.7010  177.0180  140.6900 C   0  0  2  0  0  3  0  0  0  0  0  0
  181.4660  179.3840  136.8710 F   0  0  0  0  0  0  0  0  0  0  0  0
  181.8240  178.0450  140.2650 C   0  0  2  0  0  0  0  0  0  0  0  0
  179.3380  177.2040  140.1150 C   0  0  1  0  0  3  0  0  0  0  0  0
  179.5810  179.9970  140.9940 C   0  0  0  0  0  2  0  0  0  0  0  0
  181.1580  178.4700  137.8630 C   0  0  2  0  0  3  0  0  0  0  0  0
  179.7840  178.8930  142.0120 C   0  0  2  0  0  3  0  0  0  0  0  0
  182.9830  177.2480  139.6430 C   0  0  0  0  0  2  0  0  0  0  0  0
  184.1470  178.1320  139.2150 C   0  0  0  0  0  1  0  0  0  0  0  0
  1  5  1  0  0  0  0
  2 34  1  6  0  0  0
  2  3  1  0  0  0  0
  3  5  1  0  0  0  0
  4  1  1  0  0  0  0
  5  8  1  6  0  0  0
  6  4  1  0  0  0  0
  6  2  1  0  0  0  0
  8  7  2  1  0  0  0
  8  9  1  0  0  0  0
  9 20  1  1  0  0  0
 10  9  1  0  0  0  0
 12 10  1  0  0  0  0
 12 11  1  1  0  0  0
 13 12  1  0  0  0  0
 13 14  1  0  0  0  0
 15 16  1  6  0  0  0
 15 14  1  0  0  0  0
 15 17  1  0  0  0  0
 17 18  2  0  0  0  0
 17 19  1  0  0  0  0
 20 23  1  0  0  0  0
 21 22  1  0  0  0  0
 23 24  2  0  0  0  0
 23 26  1  0  0  0  0
 24 25  1  0  0  0  0
 25 22  2  0  0  0  0
 26 21  2  0  0  0  0
 27 26  1  0  0  0  0
 28 27  1  0  0  0  0
 28 29  1  0  0  0  0
 29 30  1  0  0  0  0
 30 31  1  0  0  0  0
 31 33  1  0  0  0  0
 33 32  1  0  0  0  0
 34 35  1  0  0  0  0
 35 36  1  0  0  0  0
 37 38  1  0  0  0  0
 37 36  1  0  0  0  0
 38 42  1  0  0  0  0
 39 53  1  0  0  0  0
 40 41  1  0  0  0  0
 41 51  1  0  0  0  0
 42 52  1  0  0  0  0
 42 45  1  0  0  0  0
 44 41  1  0  0  0  0
 44 49  1  0  0  0  0
 45 41  1  0  0  0  0
 45 50  1  0  0  0  0
 47 39  1  0  0  0  0
 48 52  1  0  0  0  0
 49 47  1  0  0  0  0
 49 43  1  0  0  0  0
 50 47  1  0  0  0  0
 50 39  1  0  0  0  0
 51 53  1  0  0  0  0
 52 44  1  0  0  0  0
 53 46  1  0  0  0  0
 54 49  1  0  0  0  0
 55 54  1  0  0  0  0
M  END
>  <MODEL>
3

>  <REMARK>
 VINA RESULT:      -6.0      3.360      7.974
  Name = 
  23 active torsions:
  status: ('A' for Active; 'I' for Inactive)
    1  A    between atoms: C_4  and  C_37
    2  A    between atoms: C_4  and  C_40
    3  A    between atoms: C_5  and  O_19
    4  A    between atoms: C_5  and  C_40
    5  A    between atoms: C_7  and  N_22
    6  A    between atoms: C_8  and  N_22
    7  A    between atoms: C_8  and  C_43
    8  A    between atoms: C_10  and  C_32
    9  A    between atoms: C_11  and  C_38
   10  A    between atoms: C_13  and  C_48
   11  A    between atoms: C_13  and  C_52
   12  A    between atoms: C_16  and  C_36
   13  A    between atoms: O_19  and  C_45
   14  A    between atoms: C_26  and  C_45
   15  A    between atoms: C_27  and  C_54
   16  A    between atoms: P_28  and  C_44
   17  A    between atoms: P_28  and  C_49
   18  A    between atoms: C_32  and  C_48
   19  A    between atoms: N_33  and  C_49
   20  A    between atoms: N_33  and  C_52
   21  A    between atoms: C_36  and  C_49
   22  A    between atoms: C_43  and  C_51
   23  A    between atoms: C_51  and  C_54
                            x       y       z     vdW  Elec       q    Type
                         _______ _______ _______ _____ _____    ______ ____

>  <TORSDO>
F 23

$$$$
=
 OpenBabel10262420233D

 55 60  0  0  1  0  0  0  0  0999 V2000
  191.4060  176.6540  140.4380 C   0  0  0  0  0  2  0  0  0  0  0  0
  188.9130  178.1780  140.7150 C   0  0  2  0  0  3  0  0  0  0  0  0
  189.1170  177.1710  139.5820 C   0  0  0  0  0  2  0  0  0  0  0  0
  191.2050  177.6430  141.5840 C   0  0  0  0  0  2  0  0  0  0  0  0
  190.5960  177.0970  139.2250 C   0  0  2  0  0  3  0  0  0  0  0  0
  189.7230  177.7540  141.9390 C   0  0  0  0  0  2  0  0  0  0  0  0
  190.5080  174.4860  138.0510 O   0  0  0  0  0  0  0  0  0  0  0  0
  190.8410  175.9450  137.8500 P   0  0  1  0  0  4  0  0  0  0  0  0
  191.3250  176.5170  136.1930 C   0  0  1  0  0  3  0  0  0  0  0  0
  192.5570  175.8550  135.7830 N   0  0  0  0  0  2  0  0  0  0  0  0
  194.2790  177.2310  136.6250 O   0  0  0  0  0  1  0  0  0  0  0  0
  193.5950  176.0260  136.8050 C   0  0  2  0  0  3  0  0  0  0  0  0
  194.5730  174.8560  136.8300 C   0  0  0  0  0  2  0  0  0  0  0  0
  194.0960  173.7460  137.7650 C   0  0  0  0  0  2  0  0  0  0  0  0
  195.2340  172.9920  138.4610 C   0  0  2  0  0  3  0  0  0  0  0  0
  196.4420  173.8750  138.7340 C   0  0  0  0  0  1  0  0  0  0  0  0
  195.6190  171.7400  137.7390 C   0  0  0  0  0  0  0  0  0  0  0  0
  196.8270  171.3920  137.6980 O   0  0  0  0  0  1  0  0  0  0  0  0
  194.6520  170.9420  137.1360 O   0  0  0  0  0  0  0  0  0  0  0  0
  190.2320  176.2460  135.1630 C   0  0  0  0  0  2  0  0  0  0  0  0
  186.5170  176.5090  136.0450 C   0  0  0  0  0  3  0  0  0  0  0  0
  186.4390  177.8520  136.4180 C   0  0  0  0  0  3  0  0  0  0  0  0
  188.8900  176.7680  135.5910 C   0  0  0  0  0  0  0  0  0  0  0  0
  188.8030  178.1110  135.9750 C   0  0  0  0  0  3  0  0  0  0  0  0
  187.5830  178.6510  136.3880 C   0  0  0  0  0  3  0  0  0  0  0  0
  187.7370  175.9560  135.6380 C   0  0  0  0  0  0  0  0  0  0  0  0
  187.7590  174.5200  135.2210 C   0  0  0  0  0  2  0  0  0  0  0  0
  187.7520  173.6960  136.3490 O   0  0  0  0  0  0  0  0  0  0  0  0
  187.0200  172.5690  135.9720 C   0  0  0  0  0  2  0  0  0  0  0  0
  186.0380  172.1980  137.0730 C   0  0  0  0  0  2  0  0  0  0  0  0
  185.1980  173.3950  137.4900 C   0  0  0  0  0  2  0  0  0  0  0  0
  183.6720  174.1330  135.6850 C   0  0  0  0  0  1  0  0  0  0  0  0
  183.7930  173.2780  136.9280 C   0  0  0  0  0  2  0  0  0  0  0  0
  187.4450  178.2880  141.0910 C   0  0  0  0  0  2  0  0  0  0  0  0
  187.2340  177.8780  142.5380 C   0  0  0  0  0  2  0  0  0  0  0  0
  185.7870  178.0820  142.9490 C   0  0  0  0  0  2  0  0  0  0  0  0
  185.1680  179.2380  142.1780 C   0  0  0  0  0  2  0  0  0  0  0  0
  183.8100  178.8980  141.7780 N   0  0  0  0  0  2  0  0  0  0  0  0
  180.0990  177.9120  139.9860 N   0  0  2  0  0  0  0  0  0  0  0  0
  183.7260  176.5340  138.2710 O   0  0  0  0  0  1  0  0  0  0  0  0
  182.6340  177.2920  138.7140 C   0  0  2  0  0  0  0  0  0  0  0  0
  183.8820  178.2020  140.4990 C   0  0  1  0  0  3  0  0  0  0  0  0
  180.7360  179.5340  137.5150 O   0  0  0  0  0  1  0  0  0  0  0  0
  182.8550  178.7670  138.3540 C   0  0  1  0  0  3  0  0  0  0  0  0
  182.6320  177.3590  140.2150 C   0  0  1  0  0  3  0  0  0  0  0  0
  178.9660  176.2240  138.6250 C   0  0  0  0  0  1  0  0  0  0  0  0
  180.8190  179.2260  139.9490 C   0  0  2  0  0  3  0  0  0  0  0  0
  185.2040  179.0620  138.7180 F   0  0  0  0  0  0  0  0  0  0  0  0
  181.5840  179.6270  138.6250 C   0  0  2  0  0  0  0  0  0  0  0  0
  181.3640  178.0900  140.7460 C   0  0  1  0  0  3  0  0  0  0  0  0
  181.3820  176.5990  138.2140 C   0  0  0  0  0  2  0  0  0  0  0  0
  183.9710  179.1830  139.3310 C   0  0  2  0  0  3  0  0  0  0  0  0
  180.0880  177.2410  138.6730 C   0  0  2  0  0  3  0  0  0  0  0  0
  181.9850  181.1070  138.7410 C   0  0  0  0  0  2  0  0  0  0  0  0
  181.0430  182.0360  137.9850 C   0  0  0  0  0  1  0  0  0  0  0  0
  1  4  1  0  0  0  0
  2 34  1  1  0  0  0
  2  6  1  0  0  0  0
  3  2  1  0  0  0  0
  4  6  1  0  0  0  0
  5  8  1  6  0  0  0
  5  3  1  0  0  0  0
  5  1  1  0  0  0  0
  8  7  2  6  0  0  0
  9 20  1  6  0  0  0
  9  8  1  0  0  0  0
 10  9  1  0  0  0  0
 10 12  1  0  0  0  0
 12 11  1  6  0  0  0
 12 13  1  0  0  0  0
 13 14  1  0  0  0  0
 14 15  1  0  0  0  0
 15 16  1  6  0  0  0
 17 15  1  0  0  0  0
 18 17  1  0  0  0  0
 19 17  2  0  0  0  0
 20 23  1  0  0  0  0
 21 22  1  0  0  0  0
 23 26  1  0  0  0  0
 23 24  2  0  0  0  0
 24 25  1  0  0  0  0
 25 22  2  0  0  0  0
 26 21  2  0  0  0  0
 27 26  1  0  0  0  0
 27 28  1  0  0  0  0
 29 28  1  0  0  0  0
 29 30  1  0  0  0  0
 30 31  1  0  0  0  0
 32 33  1  0  0  0  0
 33 31  1  0  0  0  0
 34 35  1  0  0  0  0
 35 36  1  0  0  0  0
 37 36  1  0  0  0  0
 38 37  1  0  0  0  0
 39 50  1  0  0  0  0
 40 41  1  0  0  0  0
 41 45  1  0  0  0  0
 42 38  1  0  0  0  0
 43 49  1  0  0  0  0
 44 49  1  0  0  0  0
 44 41  1  0  0  0  0
 44 52  1  0  0  0  0
 45 42  1  0  0  0  0
 45 50  1  0  0  0  0
 46 53  1  0  0  0  0
 47 39  1  0  0  0  0
 47 50  1  0  0  0  0
 48 52  1  0  0  0  0
 49 54  1  0  0  0  0
 49 47  1  0  0  0  0
 51 53  1  0  0  0  0
 51 41  1  0  0  0  0
 52 42  1  0  0  0  0
 53 39  1  0  0  0  0
 55 54  1  0  0  0  0
M  END
>  <MODEL>
4

>  <REMARK>
 VINA RESULT:      -5.8      4.289      9.560
  Name = 
  23 active torsions:
  status: ('A' for Active; 'I' for Inactive)
    1  A    between atoms: C_4  and  C_37
    2  A    between atoms: C_4  and  C_40
    3  A    between atoms: C_5  and  O_19
    4  A    between atoms: C_5  and  C_40
    5  A    between atoms: C_7  and  N_22
    6  A    between atoms: C_8  and  N_22
    7  A    between atoms: C_8  and  C_43
    8  A    between atoms: C_10  and  C_32
    9  A    between atoms: C_11  and  C_38
   10  A    between atoms: C_13  and  C_48
   11  A    between atoms: C_13  and  C_52
   12  A    between atoms: C_16  and  C_36
   13  A    between atoms: O_19  and  C_45
   14  A    between atoms: C_26  and  C_45
   15  A    between atoms: C_27  and  C_54
   16  A    between atoms: P_28  and  C_44
   17  A    between atoms: P_28  and  C_49
   18  A    between atoms: C_32  and  C_48
   19  A    between atoms: N_33  and  C_49
   20  A    between atoms: N_33  and  C_52
   21  A    between atoms: C_36  and  C_49
   22  A    between atoms: C_43  and  C_51
   23  A    between atoms: C_51  and  C_54
                            x       y       z     vdW  Elec       q    Type
                         _______ _______ _______ _____ _____    ______ ____

>  <TORSDO>
F 23

$$$$
=
 OpenBabel10262420233D

 55 60  0  0  1  0  0  0  0  0999 V2000
  188.3770  178.0840  136.6520 C   0  0  0  0  0  2  0  0  0  0  0  0
  187.5690  175.3000  136.1970 C   0  0  2  0  0  3  0  0  0  0  0  0
  187.3640  175.9850  137.5490 C   0  0  0  0  0  2  0  0  0  0  0  0
  188.5680  177.4160  135.2920 C   0  0  0  0  0  2  0  0  0  0  0  0
  188.4460  177.0370  137.7570 C   0  0  2  0  0  3  0  0  0  0  0  0
  187.5090  176.3350  135.0750 C   0  0  0  0  0  2  0  0  0  0  0  0
  186.9570  178.5510  139.6790 O   0  0  0  0  0  0  0  0  0  0  0  0
  188.2430  177.8180  139.3780 P   0  0  1  0  0  4  0  0  0  0  0  0
  189.4700  177.6130  140.7040 C   0  0  1  0  0  3  0  0  0  0  0  0
  190.7790  178.0540  140.2370 N   0  0  0  0  0  2  0  0  0  0  0  0
  192.7800  176.8480  140.5650 O   0  0  0  0  0  1  0  0  0  0  0  0
  191.5920  176.9040  139.8310 C   0  0  2  0  0  3  0  0  0  0  0  0
  191.8910  176.9120  138.3350 C   0  0  0  0  0  2  0  0  0  0  0  0
  191.6250  175.5460  137.7030 C   0  0  0  0  0  2  0  0  0  0  0  0
  192.7470  175.0660  136.7750 C   0  0  2  0  0  3  0  0  0  0  0  0
  192.9390  173.5590  136.8190 C   0  0  0  0  0  1  0  0  0  0  0  0
  194.0330  175.7930  137.0070 C   0  0  0  0  0  0  0  0  0  0  0  0
  194.4090  176.6690  136.1870 O   0  0  0  0  0  0  0  0  0  0  0  0
  194.8050  175.5300  138.1350 O   0  0  0  0  0  1  0  0  0  0  0  0
  189.0820  178.3960  141.9540 C   0  0  0  0  0  2  0  0  0  0  0  0
  189.9560  176.9980  145.4080 C   0  0  0  0  0  3  0  0  0  0  0  0
  191.3450  177.1370  145.3940 C   0  0  0  0  0  3  0  0  0  0  0  0
  189.8340  177.9480  143.1750 C   0  0  0  0  0  0  0  0  0  0  0  0
  191.2280  178.0750  143.1680 C   0  0  0  0  0  3  0  0  0  0  0  0
  191.9810  177.6710  144.2730 C   0  0  0  0  0  3  0  0  0  0  0  0
  189.1930  177.3920  144.3030 C   0  0  0  0  0  0  0  0  0  0  0  0
  187.7070  177.2500  144.3810 C   0  0  0  0  0  2  0  0  0  0  0  0
  187.1920  178.1430  145.3250 O   0  0  0  0  0  0  0  0  0  0  0  0
  185.8360  178.2580  145.0150 C   0  0  0  0  0  2  0  0  0  0  0  0
  185.5980  177.8450  143.5710 C   0  0  0  0  0  2  0  0  0  0  0  0
  184.7860  178.8930  142.8240 C   0  0  0  0  0  2  0  0  0  0  0  0
  182.9280  179.0480  144.4530 C   0  0  0  0  0  1  0  0  0  0  0  0
  184.0670  179.8030  143.8030 C   0  0  0  0  0  2  0  0  0  0  0  0
  186.5130  174.2320  135.9600 C   0  0  0  0  0  2  0  0  0  0  0  0
  185.8130  173.8800  137.2610 C   0  0  0  0  0  2  0  0  0  0  0  0
  184.3060  173.9670  137.1000 C   0  0  0  0  0  2  0  0  0  0  0  0
  183.8700  175.4100  136.8960 C   0  0  0  0  0  2  0  0  0  0  0  0
  183.5070  176.0050  138.1740 N   0  0  0  0  0  2  0  0  0  0  0  0
  181.5730  178.3580  141.1210 N   0  0  2  0  0  0  0  0  0  0  0  0
  179.5880  175.0160  139.4210 O   0  0  0  0  0  1  0  0  0  0  0  0
  180.1850  176.2580  139.6730 C   0  0  2  0  0  0  0  0  0  0  0  0
  182.1120  175.6780  138.4400 C   0  0  1  0  0  3  0  0  0  0  0  0
  179.4870  179.3080  139.1490 O   0  0  0  0  0  1  0  0  0  0  0  0
  180.1370  177.1170  138.4030 C   0  0  1  0  0  3  0  0  0  0  0  0
  181.6670  176.0880  139.8500 C   0  0  1  0  0  3  0  0  0  0  0  0
  179.8990  178.2800  142.9030 C   0  0  0  0  0  1  0  0  0  0  0  0
  181.8040  178.6950  139.6790 C   0  0  2  0  0  3  0  0  0  0  0  0
  180.5390  175.5220  136.6610 F   0  0  0  0  0  0  0  0  0  0  0  0
  180.5870  178.5840  138.6760 C   0  0  2  0  0  0  0  0  0  0  0  0
  182.3460  177.4300  140.2530 C   0  0  1  0  0  3  0  0  0  0  0  0
  179.5600  176.7990  140.9430 C   0  0  0  0  0  2  0  0  0  0  0  0
  181.1720  176.4260  137.4960 C   0  0  2  0  0  3  0  0  0  0  0  0
  180.1490  178.1130  141.4190 C   0  0  2  0  0  3  0  0  0  0  0  0
  181.0050  179.2450  137.3520 C   0  0  0  0  0  2  0  0  0  0  0  0
  180.4590  180.6590  137.1990 C   0  0  0  0  0  1  0  0  0  0  0  0
  1  5  1  0  0  0  0
  2 34  1  6  0  0  0
  2  3  1  0  0  0  0
  3  5  1  0  0  0  0
  4  1  1  0  0  0  0
  5  8  1  1  0  0  0
  6  4  1  0  0  0  0
  6  2  1  0  0  0  0
  8  7  2  1  0  0  0
  8  9  1  0  0  0  0
  9 20  1  1  0  0  0
 10  9  1  0  0  0  0
 12 10  1  0  0  0  0
 12 11  1  1  0  0  0
 13 12  1  0  0  0  0
 14 13  1  0  0  0  0
 15 16  1  1  0  0  0
 15 17  1  0  0  0  0
 15 14  1  0  0  0  0
 17 19  1  0  0  0  0
 18 17  2  0  0  0  0
 20 23  1  0  0  0  0
 22 21  1  0  0  0  0
 23 26  1  0  0  0  0
 24 23  2  0  0  0  0
 24 25  1  0  0  0  0
 25 22  2  0  0  0  0
 26 27  1  0  0  0  0
 26 21  2  0  0  0  0
 27 28  1  0  0  0  0
 29 28  1  0  0  0  0
 30 29  1  0  0  0  0
 31 30  1  0  0  0  0
 31 33  1  0  0  0  0
 33 32  1  0  0  0  0
 34 35  1  0  0  0  0
 36 35  1  0  0  0  0
 37 36  1  0  0  0  0
 37 38  1  0  0  0  0
 38 42  1  0  0  0  0
 39 53  1  0  0  0  0
 40 41  1  0  0  0  0
 41 45  1  0  0  0  0
 41 51  1  0  0  0  0
 42 45  1  0  0  0  0
 44 49  1  0  0  0  0
 44 41  1  0  0  0  0
 45 50  1  0  0  0  0
 47 50  1  0  0  0  0
 47 39  1  0  0  0  0
 48 52  1  0  0  0  0
 49 43  1  0  0  0  0
 49 47  1  0  0  0  0
 50 39  1  0  0  0  0
 51 53  1  0  0  0  0
 52 44  1  0  0  0  0
 52 42  1  0  0  0  0
 53 46  1  0  0  0  0
 54 49  1  0  0  0  0
 55 54  1  0  0  0  0
M  END
>  <MODEL>
5

>  <REMARK>
 VINA RESULT:      -5.7      2.959      7.110
  Name = 
  23 active torsions:
  status: ('A' for Active; 'I' for Inactive)
    1  A    between atoms: C_4  and  C_37
    2  A    between atoms: C_4  and  C_40
    3  A    between atoms: C_5  and  O_19
    4  A    between atoms: C_5  and  C_40
    5  A    between atoms: C_7  and  N_22
    6  A    between atoms: C_8  and  N_22
    7  A    between atoms: C_8  and  C_43
    8  A    between atoms: C_10  and  C_32
    9  A    between atoms: C_11  and  C_38
   10  A    between atoms: C_13  and  C_48
   11  A    between atoms: C_13  and  C_52
   12  A    between atoms: C_16  and  C_36
   13  A    between atoms: O_19  and  C_45
   14  A    between atoms: C_26  and  C_45
   15  A    between atoms: C_27  and  C_54
   16  A    between atoms: P_28  and  C_44
   17  A    between atoms: P_28  and  C_49
   18  A    between atoms: C_32  and  C_48
   19  A    between atoms: N_33  and  C_49
   20  A    between atoms: N_33  and  C_52
   21  A    between atoms: C_36  and  C_49
   22  A    between atoms: C_43  and  C_51
   23  A    between atoms: C_51  and  C_54
                            x       y       z     vdW  Elec       q    Type
                         _______ _______ _______ _____ _____    ______ ____

>  <TORSDO>
F 23

$$$$
=
 OpenBabel10262420233D

 55 60  0  0  1  0  0  0  0  0999 V2000
  191.5370  177.7540  143.1940 C   0  0  0  0  0  2  0  0  0  0  0  0
  188.6260  178.0730  143.3850 C   0  0  2  0  0  3  0  0  0  0  0  0
  189.2840  177.4180  142.1700 C   0  0  0  0  0  2  0  0  0  0  0  0
  190.8880  178.3910  144.4220 C   0  0  0  0  0  2  0  0  0  0  0  0
  190.6740  178.0070  141.9640 C   0  0  2  0  0  3  0  0  0  0  0  0
  189.4800  177.8350  144.6290 C   0  0  0  0  0  2  0  0  0  0  0  0
  192.9480  177.1690  140.4360 O   0  0  0  0  0  0  0  0  0  0  0  0
  191.4420  177.2760  140.4960 P   0  0  1  0  0  4  0  0  0  0  0  0
  190.4540  176.5250  139.1670 C   0  0  1  0  0  3  0  0  0  0  0  0
  189.1450  177.1660  139.1040 N   0  0  0  0  0  2  0  0  0  0  0  0
  189.0750  179.4470  138.5050 O   0  0  0  0  0  1  0  0  0  0  0  0
  189.1050  178.1400  138.0100 C   0  0  2  0  0  3  0  0  0  0  0  0
  187.9260  177.9000  137.0720 C   0  0  0  0  0  2  0  0  0  0  0  0
  187.0440  176.7520  137.5640 C   0  0  0  0  0  2  0  0  0  0  0  0
  186.7890  175.6720  136.5060 C   0  0  2  0  0  3  0  0  0  0  0  0
  186.2300  176.2390  135.2110 C   0  0  0  0  0  1  0  0  0  0  0  0
  185.9480  174.5500  137.0250 C   0  0  0  0  0  0  0  0  0  0  0  0
  186.5020  173.5010  137.4450 O   0  0  0  0  0  1  0  0  0  0  0  0
  184.5630  174.6640  137.0740 O   0  0  0  0  0  0  0  0  0  0  0  0
  191.1480  176.6450  137.8140 C   0  0  0  0  0  2  0  0  0  0  0  0
  192.0610  173.7600  135.4710 C   0  0  0  0  0  3  0  0  0  0  0  0
  190.9370  172.9460  135.6210 C   0  0  0  0  0  3  0  0  0  0  0  0
  191.1120  175.3650  137.0290 C   0  0  0  0  0  0  0  0  0  0  0  0
  189.9930  174.5370  137.1780 C   0  0  0  0  0  3  0  0  0  0  0  0
  189.9060  173.3320  136.4780 C   0  0  0  0  0  3  0  0  0  0  0  0
  192.1620  174.9660  136.1750 C   0  0  0  0  0  0  0  0  0  0  0  0
  193.3730  175.8150  135.9560 C   0  0  0  0  0  2  0  0  0  0  0  0
  194.4290  175.0260  135.4910 O   0  0  0  0  0  0  0  0  0  0  0  0
  195.2930  174.8960  136.5800 C   0  0  0  0  0  2  0  0  0  0  0  0
  195.3840  173.4360  136.9970 C   0  0  0  0  0  2  0  0  0  0  0  0
  195.4940  173.3000  138.5080 C   0  0  0  0  0  2  0  0  0  0  0  0
  196.7870  174.7960  139.9980 C   0  0  0  0  0  1  0  0  0  0  0  0
  195.5320  174.6690  139.1620 C   0  0  0  0  0  2  0  0  0  0  0  0
  187.2290  177.5190  143.6140 C   0  0  0  0  0  2  0  0  0  0  0  0
  186.4450  177.5000  142.3130 C   0  0  0  0  0  2  0  0  0  0  0  0
  186.0880  178.9110  141.8810 C   0  0  0  0  0  2  0  0  0  0  0  0
  184.5840  179.1280  141.9510 C   0  0  0  0  0  2  0  0  0  0  0  0
  183.8890  177.9770  141.3930 N   0  0  0  0  0  2  0  0  0  0  0  0
  180.5920  176.2330  139.3820 N   0  0  2  0  0  0  0  0  0  0  0  0
  183.7970  177.9080  137.1650 O   0  0  0  0  0  1  0  0  0  0  0  0
  182.6670  177.6850  137.9630 C   0  0  2  0  0  0  0  0  0  0  0  0
  183.8740  178.1230  139.9430 C   0  0  1  0  0  3  0  0  0  0  0  0
  179.7460  178.8960  138.2280 O   0  0  0  0  0  1  0  0  0  0  0  0
  182.1340  179.0260  138.4830 C   0  0  1  0  0  3  0  0  0  0  0  0
  183.0700  177.0170  139.2460 C   0  0  1  0  0  3  0  0  0  0  0  0
  179.9330  175.0930  137.3200 C   0  0  0  0  0  1  0  0  0  0  0  0
  180.6500  177.5590  140.0780 C   0  0  2  0  0  3  0  0  0  0  0  0
  184.1370  180.2610  138.9330 F   0  0  0  0  0  0  0  0  0  0  0  0
  180.7570  178.8660  139.1960 C   0  0  2  0  0  0  0  0  0  0  0  0
  181.8250  176.6420  140.1040 C   0  0  1  0  0  3  0  0  0  0  0  0
  181.7360  176.7890  137.1700 C   0  0  0  0  0  2  0  0  0  0  0  0
  183.2010  179.4270  139.5190 C   0  0  2  0  0  3  0  0  0  0  0  0
  180.4850  176.3700  137.9180 C   0  0  2  0  0  3  0  0  0  0  0  0
  180.5140  180.0760  140.1130 C   0  0  0  0  0  2  0  0  0  0  0  0
  180.1290  179.6750  141.5320 C   0  0  0  0  0  1  0  0  0  0  0  0
  1  4  1  0  0  0  0
  2 34  1  1  0  0  0
  2  6  1  0  0  0  0
  3  2  1  0  0  0  0
  4  6  1  0  0  0  0
  5  8  1  6  0  0  0
  5  3  1  0  0  0  0
  5  1  1  0  0  0  0
  8  7  2  1  0  0  0
  9 20  1  6  0  0  0
  9  8  1  0  0  0  0
 10  9  1  0  0  0  0
 12 11  1  1  0  0  0
 12 10  1  0  0  0  0
 13 14  1  0  0  0  0
 13 12  1  0  0  0  0
 15 16  1  6  0  0  0
 15 17  1  0  0  0  0
 15 14  1  0  0  0  0
 17 19  2  0  0  0  0
 17 18  1  0  0  0  0
 21 22  2  0  0  0  0
 21 26  1  0  0  0  0
 22 25  1  0  0  0  0
 23 24  1  0  0  0  0
 23 20  1  0  0  0  0
 25 24  2  0  0  0  0
 26 23  2  0  0  0  0
 27 26  1  0  0  0  0
 28 27  1  0  0  0  0
 28 29  1  0  0  0  0
 29 30  1  0  0  0  0
 30 31  1  0  0  0  0
 31 33  1  0  0  0  0
 33 32  1  0  0  0  0
 35 34  1  0  0  0  0
 36 37  1  0  0  0  0
 36 35  1  0  0  0  0
 38 37  1  0  0  0  0
 39 47  1  0  0  0  0
 39 50  1  0  0  0  0
 40 41  1  0  0  0  0
 41 44  1  0  0  0  0
 41 45  1  0  0  0  0
 42 38  1  0  0  0  0
 43 49  1  0  0  0  0
 44 49  1  0  0  0  0
 44 52  1  0  0  0  0
 45 42  1  0  0  0  0
 45 50  1  0  0  0  0
 46 53  1  0  0  0  0
 47 50  1  0  0  0  0
 48 52  1  0  0  0  0
 49 47  1  0  0  0  0
 49 54  1  0  0  0  0
 51 53  1  0  0  0  0
 51 41  1  0  0  0  0
 52 42  1  0  0  0  0
 53 39  1  0  0  0  0
 54 55  1  0  0  0  0
M  END
>  <MODEL>
6

>  <REMARK>
 VINA RESULT:      -5.6      3.788      7.491
  Name = 
  23 active torsions:
  status: ('A' for Active; 'I' for Inactive)
    1  A    between atoms: C_4  and  C_37
    2  A    between atoms: C_4  and  C_40
    3  A    between atoms: C_5  and  O_19
    4  A    between atoms: C_5  and  C_40
    5  A    between atoms: C_7  and  N_22
    6  A    between atoms: C_8  and  N_22
    7  A    between atoms: C_8  and  C_43
    8  A    between atoms: C_10  and  C_32
    9  A    between atoms: C_11  and  C_38
   10  A    between atoms: C_13  and  C_48
   11  A    between atoms: C_13  and  C_52
   12  A    between atoms: C_16  and  C_36
   13  A    between atoms: O_19  and  C_45
   14  A    between atoms: C_26  and  C_45
   15  A    between atoms: C_27  and  C_54
   16  A    between atoms: P_28  and  C_44
   17  A    between atoms: P_28  and  C_49
   18  A    between atoms: C_32  and  C_48
   19  A    between atoms: N_33  and  C_49
   20  A    between atoms: N_33  and  C_52
   21  A    between atoms: C_36  and  C_49
   22  A    between atoms: C_43  and  C_51
   23  A    between atoms: C_51  and  C_54
                            x       y       z     vdW  Elec       q    Type
                         _______ _______ _______ _____ _____    ______ ____

>  <TORSDO>
F 23

$$$$
=
 OpenBabel10262420233D

 55 60  0  0  1  0  0  0  0  0999 V2000
  188.5310  172.9180  134.8630 C   0  0  0  0  0  2  0  0  0  0  0  0
  186.6250  172.6500  137.0780 C   0  0  2  0  0  3  0  0  0  0  0  0
  187.5110  173.8870  136.9270 C   0  0  0  0  0  2  0  0  0  0  0  0
  187.6360  171.6870  134.9940 C   0  0  0  0  0  2  0  0  0  0  0  0
  188.8160  173.4990  136.2430 C   0  0  2  0  0  3  0  0  0  0  0  0
  186.3320  172.0490  135.7040 C   0  0  0  0  0  2  0  0  0  0  0  0
  189.7340  175.8670  134.9180 O   0  0  0  0  0  0  0  0  0  0  0  0
  189.8940  174.9470  136.1050 P   0  0  1  0  0  4  0  0  0  0  0  0
  191.0530  175.4110  137.4280 C   0  0  1  0  0  3  0  0  0  0  0  0
  192.4050  175.0060  137.0640 N   0  0  0  0  0  2  0  0  0  0  0  0
  194.0610  176.6540  136.7350 O   0  0  0  0  0  1  0  0  0  0  0  0
  193.3910  175.8900  137.6940 C   0  0  2  0  0  3  0  0  0  0  0  0
  194.3900  175.1160  138.5500 C   0  0  0  0  0  2  0  0  0  0  0  0
  194.6170  173.7050  138.0080 C   0  0  0  0  0  2  0  0  0  0  0  0
  196.0960  173.3280  137.8660 C   0  0  2  0  0  3  0  0  0  0  0  0
  197.0170  174.2790  138.6130 C   0  0  0  0  0  1  0  0  0  0  0  0
  196.5110  173.1650  136.4380 C   0  0  0  0  0  0  0  0  0  0  0  0
  195.9430  173.8440  135.5450 O   0  0  0  0  0  0  0  0  0  0  0  0
  197.5380  172.2930  136.0920 O   0  0  0  0  0  1  0  0  0  0  0  0
  191.0240  176.9120  137.6990 C   0  0  0  0  0  2  0  0  0  0  0  0
  188.6590  177.8160  140.5680 C   0  0  0  0  0  3  0  0  0  0  0  0
  187.5080  178.1520  139.8530 C   0  0  0  0  0  3  0  0  0  0  0  0
  189.8180  177.3360  138.4880 C   0  0  0  0  0  0  0  0  0  0  0  0
  188.6620  177.6820  137.7790 C   0  0  0  0  0  3  0  0  0  0  0  0
  187.5110  178.0890  138.4590 C   0  0  0  0  0  3  0  0  0  0  0  0
  189.8200  177.4160  139.8970 C   0  0  0  0  0  0  0  0  0  0  0  0
  191.0150  177.0390  140.7120 C   0  0  0  0  0  2  0  0  0  0  0  0
  190.6420  176.8530  142.0450 O   0  0  0  0  0  0  0  0  0  0  0  0
  191.6870  177.3970  142.7950 C   0  0  0  0  0  2  0  0  0  0  0  0
  191.1700  178.5480  143.6450 C   0  0  0  0  0  2  0  0  0  0  0  0
  189.8910  178.1650  144.3720 C   0  0  0  0  0  2  0  0  0  0  0  0
  189.2270  177.3520  146.6150 C   0  0  0  0  0  1  0  0  0  0  0  0
  190.1840  177.1480  145.4610 C   0  0  0  0  0  2  0  0  0  0  0  0
  185.3170  172.9970  137.7700 C   0  0  0  0  0  2  0  0  0  0  0  0
  184.7760  174.3190  137.2520 C   0  0  0  0  0  2  0  0  0  0  0  0
  183.3750  174.5700  137.7790 C   0  0  0  0  0  2  0  0  0  0  0  0
  182.7680  175.8010  137.1230 C   0  0  0  0  0  2  0  0  0  0  0  0
  181.9520  176.5260  138.0860 N   0  0  0  0  0  2  0  0  0  0  0  0
  180.0260  180.2990  137.9640 N   0  0  2  0  0  0  0  0  0  0  0  0
  184.1160  180.0270  139.0600 O   0  0  0  0  0  1  0  0  0  0  0  0
  182.7170  179.9770  139.0080 C   0  0  2  0  0  0  0  0  0  0  0  0
  182.7310  177.6580  138.5720 C   0  0  1  0  0  3  0  0  0  0  0  0
  180.3040  180.6600  140.9530 O   0  0  0  0  0  1  0  0  0  0  0  0
  182.1800  179.3130  140.2830 C   0  0  1  0  0  3  0  0  0  0  0  0
  182.2770  178.9910  137.9640 C   0  0  1  0  0  3  0  0  0  0  0  0
  180.4160  182.6870  137.6070 C   0  0  0  0  0  1  0  0  0  0  0  0
  179.8890  179.2280  139.0040 C   0  0  2  0  0  3  0  0  0  0  0  0
  183.7850  177.5850  140.7040 F   0  0  0  0  0  0  0  0  0  0  0  0
  180.6290  179.4220  140.3860 C   0  0  2  0  0  0  0  0  0  0  0  0
  180.7300  179.0000  137.7930 C   0  0  1  0  0  3  0  0  0  0  0  0
  182.2370  181.3710  138.6550 C   0  0  0  0  0  2  0  0  0  0  0  0
  182.5760  177.8380  140.0810 C   0  0  2  0  0  3  0  0  0  0  0  0
  180.7360  181.4870  138.4730 C   0  0  2  0  0  3  0  0  0  0  0  0
  180.1050  178.3510  141.3570 C   0  0  0  0  0  2  0  0  0  0  0  0
  179.5820  178.9390  142.6610 C   0  0  0  0  0  1  0  0  0  0  0  0
  1  4  1  0  0  0  0
  1  5  1  0  0  0  0
  2 34  1  6  0  0  0
  3  2  1  0  0  0  0
  4  6  1  0  0  0  0
  5  8  1  6  0  0  0
  5  3  1  0  0  0  0
  6  2  1  0  0  0  0
  8  7  2  1  0  0  0
  8  9  1  0  0  0  0
  9 20  1  6  0  0  0
 10  9  1  0  0  0  0
 10 12  1  0  0  0  0
 12 11  1  6  0  0  0
 12 13  1  0  0  0  0
 14 13  1  0  0  0  0
 15 14  1  0  0  0  0
 15 16  1  6  0  0  0
 17 15  1  0  0  0  0
 18 17  2  0  0  0  0
 19 17  1  0  0  0  0
 20 23  1  0  0  0  0
 22 21  2  0  0  0  0
 23 26  2  0  0  0  0
 24 25  2  0  0  0  0
 24 23  1  0  0  0  0
 25 22  1  0  0  0  0
 26 21  1  0  0  0  0
 26 27  1  0  0  0  0
 27 28  1  0  0  0  0
 28 29  1  0  0  0  0
 29 30  1  0  0  0  0
 30 31  1  0  0  0  0
 31 33  1  0  0  0  0
 33 32  1  0  0  0  0
 35 34  1  0  0  0  0
 35 36  1  0  0  0  0
 37 36  1  0  0  0  0
 37 38  1  0  0  0  0
 38 42  1  0  0  0  0
 39 53  1  0  0  0  0
 39 47  1  0  0  0  0
 41 40  1  0  0  0  0
 41 44  1  0  0  0  0
 42 52  1  0  0  0  0
 44 49  1  0  0  0  0
 45 42  1  0  0  0  0
 45 41  1  0  0  0  0
 46 53  1  0  0  0  0
 47 49  1  0  0  0  0
 49 43  1  0  0  0  0
 49 54  1  0  0  0  0
 50 39  1  0  0  0  0
 50 45  1  0  0  0  0
 50 47  1  0  0  0  0
 51 41  1  0  0  0  0
 52 44  1  0  0  0  0
 52 48  1  0  0  0  0
 53 51  1  0  0  0  0
 54 55  1  0  0  0  0
M  END
>  <MODEL>
7

>  <REMARK>
 VINA RESULT:      -5.6      4.383      8.513
  Name = 
  23 active torsions:
  status: ('A' for Active; 'I' for Inactive)
    1  A    between atoms: C_4  and  C_37
    2  A    between atoms: C_4  and  C_40
    3  A    between atoms: C_5  and  O_19
    4  A    between atoms: C_5  and  C_40
    5  A    between atoms: C_7  and  N_22
    6  A    between atoms: C_8  and  N_22
    7  A    between atoms: C_8  and  C_43
    8  A    between atoms: C_10  and  C_32
    9  A    between atoms: C_11  and  C_38
   10  A    between atoms: C_13  and  C_48
   11  A    between atoms: C_13  and  C_52
   12  A    between atoms: C_16  and  C_36
   13  A    between atoms: O_19  and  C_45
   14  A    between atoms: C_26  and  C_45
   15  A    between atoms: C_27  and  C_54
   16  A    between atoms: P_28  and  C_44
   17  A    between atoms: P_28  and  C_49
   18  A    between atoms: C_32  and  C_48
   19  A    between atoms: N_33  and  C_49
   20  A    between atoms: N_33  and  C_52
   21  A    between atoms: C_36  and  C_49
   22  A    between atoms: C_43  and  C_51
   23  A    between atoms: C_51  and  C_54
                            x       y       z     vdW  Elec       q    Type
                         _______ _______ _______ _____ _____    ______ ____

>  <TORSDO>
F 23

$$$$
=
 OpenBabel10262420233D

 55 60  0  0  1  0  0  0  0  0999 V2000
  189.9770  177.6860  142.1840 C   0  0  0  0  0  2  0  0  0  0  0  0
  189.9170  176.9350  139.3480 C   0  0  2  0  0  3  0  0  0  0  0  0
  188.6800  177.4870  140.0580 C   0  0  0  0  0  2  0  0  0  0  0  0
  191.2230  177.1550  141.4790 C   0  0  0  0  0  2  0  0  0  0  0  0
  188.7270  177.1060  141.5330 C   0  0  2  0  0  3  0  0  0  0  0  0
  191.1820  177.5020  139.9910 C   0  0  0  0  0  2  0  0  0  0  0  0
  186.9570  177.2420  143.7810 O   0  0  0  0  0  0  0  0  0  0  0  0
  187.2410  177.7100  142.3730 P   0  0  1  0  0  4  0  0  0  0  0  0
  186.1690  178.9800  141.6350 C   0  0  1  0  0  3  0  0  0  0  0  0
  185.0730  178.3430  140.9150 N   0  0  0  0  0  2  0  0  0  0  0  0
  184.6040  180.1220  139.4370 O   0  0  0  0  0  1  0  0  0  0  0  0
  185.0440  178.7980  139.5210 C   0  0  2  0  0  3  0  0  0  0  0  0
  184.1830  177.8950  138.6420 C   0  0  0  0  0  2  0  0  0  0  0  0
  182.7030  178.2620  138.7420 C   0  0  0  0  0  2  0  0  0  0  0  0
  181.7740  177.0500  138.8750 C   0  0  2  0  0  3  0  0  0  0  0  0
  182.3070  176.0050  139.8410 C   0  0  0  0  0  1  0  0  0  0  0  0
  181.4240  176.4490  137.5510 C   0  0  0  0  0  0  0  0  0  0  0  0
  180.3330  176.7510  137.0000 O   0  0  0  0  0  1  0  0  0  0  0  0
  182.3020  175.5820  136.9090 O   0  0  0  0  0  0  0  0  0  0  0  0
  185.6060  179.9240  142.6930 C   0  0  0  0  0  2  0  0  0  0  0  0
  182.9230  178.6720  145.1170 C   0  0  0  0  0  3  0  0  0  0  0  0
  181.8370  178.5430  144.2490 C   0  0  0  0  0  3  0  0  0  0  0  0
  184.3110  179.4360  143.2750 C   0  0  0  0  0  0  0  0  0  0  0  0
  183.2140  179.3090  142.4140 C   0  0  0  0  0  3  0  0  0  0  0  0
  181.9820  178.8650  142.8990 C   0  0  0  0  0  3  0  0  0  0  0  0
  184.1590  179.1250  144.6430 C   0  0  0  0  0  0  0  0  0  0  0  0
  185.2970  179.2190  145.6090 C   0  0  0  0  0  2  0  0  0  0  0  0
  184.9440  178.6170  146.8200 O   0  0  0  0  0  0  0  0  0  0  0  0
  186.1100  178.6310  147.5870 C   0  0  0  0  0  2  0  0  0  0  0  0
  187.1080  177.6270  147.0300 C   0  0  0  0  0  2  0  0  0  0  0  0
  188.5350  178.1320  147.1710 C   0  0  0  0  0  2  0  0  0  0  0  0
  190.5130  177.0180  146.1820 C   0  0  0  0  0  1  0  0  0  0  0  0
  189.4990  176.9670  147.3040 C   0  0  0  0  0  2  0  0  0  0  0  0
  189.8990  177.2860  137.8690 C   0  0  0  0  0  2  0  0  0  0  0  0
  191.1490  176.7620  137.1830 C   0  0  0  0  0  2  0  0  0  0  0  0
  190.8530  175.4730  136.4380 C   0  0  0  0  0  2  0  0  0  0  0  0
  192.1140  174.9330  135.7800 C   0  0  0  0  0  2  0  0  0  0  0  0
  192.3560  173.5650  136.2170 N   0  0  0  0  0  2  0  0  0  0  0  0
  196.0900  171.9020  135.1000 N   0  0  2  0  0  0  0  0  0  0  0  0
  195.4320  173.1720  139.0940 O   0  0  0  0  0  1  0  0  0  0  0  0
  195.6540  173.0910  137.7130 C   0  0  2  0  0  0  0  0  0  0  0  0
  193.4000  173.5980  137.2330 C   0  0  1  0  0  3  0  0  0  0  0  0
  197.5240  174.5190  135.5840 O   0  0  0  0  0  1  0  0  0  0  0  0
  195.6680  174.5020  137.1120 C   0  0  1  0  0  3  0  0  0  0  0  0
  194.4530  172.4990  137.0330 C   0  0  1  0  0  3  0  0  0  0  0  0
  198.0130  170.6530  135.9520 C   0  0  0  0  0  1  0  0  0  0  0  0
  195.5630  173.2710  134.7940 C   0  0  2  0  0  3  0  0  0  0  0  0
  193.9510  175.6270  138.3470 F   0  0  0  0  0  0  0  0  0  0  0  0
  196.1250  174.4950  135.6220 C   0  0  2  0  0  0  0  0  0  0  0  0
  194.7130  172.2800  135.5140 C   0  0  1  0  0  3  0  0  0  0  0  0
  196.8660  172.2020  137.5120 C   0  0  0  0  0  2  0  0  0  0  0  0
  194.1840  174.9090  137.1880 C   0  0  2  0  0  3  0  0  0  0  0  0
  197.2080  171.9320  136.0600 C   0  0  2  0  0  3  0  0  0  0  0  0
  195.6510  175.7870  134.9360 C   0  0  0  0  0  2  0  0  0  0  0  0
  196.6990  176.8920  134.9670 C   0  0  0  0  0  1  0  0  0  0  0  0
  2 34  1  6  0  0  0
  2  6  1  0  0  0  0
  2  3  1  0  0  0  0
  3  5  1  0  0  0  0
  4  1  1  0  0  0  0
  5  1  1  0  0  0  0
  5  8  1  1  0  0  0
  6  4  1  0  0  0  0
  8  7  2  1  0  0  0
  9  8  1  0  0  0  0
  9 20  1  1  0  0  0
 10  9  1  0  0  0  0
 12 11  1  1  0  0  0
 12 10  1  0  0  0  0
 13 14  1  0  0  0  0
 13 12  1  0  0  0  0
 14 15  1  0  0  0  0
 15 16  1  1  0  0  0
 17 15  1  0  0  0  0
 18 17  1  0  0  0  0
 19 17  2  0  0  0  0
 20 23  1  0  0  0  0
 22 21  2  0  0  0  0
 23 26  2  0  0  0  0
 24 25  2  0  0  0  0
 24 23  1  0  0  0  0
 25 22  1  0  0  0  0
 26 21  1  0  0  0  0
 26 27  1  0  0  0  0
 27 28  1  0  0  0  0
 28 29  1  0  0  0  0
 30 31  1  0  0  0  0
 30 29  1  0  0  0  0
 31 33  1  0  0  0  0
 32 33  1  0  0  0  0
 35 34  1  0  0  0  0
 36 35  1  0  0  0  0
 37 38  1  0  0  0  0
 37 36  1  0  0  0  0
 38 42  1  0  0  0  0
 39 50  1  0  0  0  0
 39 53  1  0  0  0  0
 41 40  1  0  0  0  0
 43 49  1  0  0  0  0
 44 52  1  0  0  0  0
 44 41  1  0  0  0  0
 45 42  1  0  0  0  0
 45 41  1  0  0  0  0
 46 53  1  0  0  0  0
 47 39  1  0  0  0  0
 47 50  1  0  0  0  0
 47 49  1  0  0  0  0
 49 44  1  0  0  0  0
 50 45  1  0  0  0  0
 51 41  1  0  0  0  0
 52 42  1  0  0  0  0
 52 48  1  0  0  0  0
 53 51  1  0  0  0  0
 54 55  1  0  0  0  0
 54 49  1  0  0  0  0
M  END
>  <MODEL>
8

>  <REMARK>
 VINA RESULT:      -5.5      5.316      8.890
  Name = 
  23 active torsions:
  status: ('A' for Active; 'I' for Inactive)
    1  A    between atoms: C_4  and  C_37
    2  A    between atoms: C_4  and  C_40
    3  A    between atoms: C_5  and  O_19
    4  A    between atoms: C_5  and  C_40
    5  A    between atoms: C_7  and  N_22
    6  A    between atoms: C_8  and  N_22
    7  A    between atoms: C_8  and  C_43
    8  A    between atoms: C_10  and  C_32
    9  A    between atoms: C_11  and  C_38
   10  A    between atoms: C_13  and  C_48
   11  A    between atoms: C_13  and  C_52
   12  A    between atoms: C_16  and  C_36
   13  A    between atoms: O_19  and  C_45
   14  A    between atoms: C_26  and  C_45
   15  A    between atoms: C_27  and  C_54
   16  A    between atoms: P_28  and  C_44
   17  A    between atoms: P_28  and  C_49
   18  A    between atoms: C_32  and  C_48
   19  A    between atoms: N_33  and  C_49
   20  A    between atoms: N_33  and  C_52
   21  A    between atoms: C_36  and  C_49
   22  A    between atoms: C_43  and  C_51
   23  A    between atoms: C_51  and  C_54
                            x       y       z     vdW  Elec       q    Type
                         _______ _______ _______ _____ _____    ______ ____

>  <TORSDO>
F 23

$$$$
=
 OpenBabel10262420233D

 55 60  0  0  1  0  0  0  0  0999 V2000
  188.9280  174.7160  135.6040 C   0  0  0  0  0  2  0  0  0  0  0  0
  186.4700  173.7710  136.9010 C   0  0  2  0  0  3  0  0  0  0  0  0
  187.1360  175.0870  137.3050 C   0  0  0  0  0  2  0  0  0  0  0  0
  188.2590  173.4100  135.1790 C   0  0  0  0  0  2  0  0  0  0  0  0
  188.6390  174.9900  137.0750 C   0  0  2  0  0  3  0  0  0  0  0  0
  186.7530  173.4760  135.4290 C   0  0  0  0  0  2  0  0  0  0  0  0
  189.0180  177.8270  136.9610 O   0  0  0  0  0  0  0  0  0  0  0  0
  189.4440  176.5250  137.5990 P   0  0  1  0  0  4  0  0  0  0  0  0
  190.6310  176.5670  138.9760 C   0  0  1  0  0  3  0  0  0  0  0  0
  191.9920  176.5730  138.4530 N   0  0  0  0  0  2  0  0  0  0  0  0
  191.8180  174.2720  137.9580 O   0  0  0  0  0  1  0  0  0  0  0  0
  192.1560  175.5250  137.4400 C   0  0  2  0  0  3  0  0  0  0  0  0
  193.5700  175.5000  136.8670 C   0  0  0  0  0  2  0  0  0  0  0  0
  194.4750  174.5500  137.6500 C   0  0  0  0  0  2  0  0  0  0  0  0
  195.9200  174.5120  137.1400 C   0  0  2  0  0  3  0  0  0  0  0  0
  196.2460  173.2260  136.3960 C   0  0  0  0  0  1  0  0  0  0  0  0
  196.9170  174.7920  138.2190 C   0  0  0  0  0  0  0  0  0  0  0  0
  196.5930  174.6200  139.4230 O   0  0  0  0  0  1  0  0  0  0  0  0
  198.2050  175.2130  137.9060 O   0  0  0  0  0  0  0  0  0  0  0  0
  190.4180  177.7880  139.8640 C   0  0  0  0  0  2  0  0  0  0  0  0
  189.1920  177.1620  143.4350 C   0  0  0  0  0  3  0  0  0  0  0  0
  190.3810  176.7560  144.0440 C   0  0  0  0  0  3  0  0  0  0  0  0
  190.3630  177.4400  141.3240 C   0  0  0  0  0  0  0  0  0  0  0  0
  191.5480  177.0250  141.9430 C   0  0  0  0  0  3  0  0  0  0  0  0
  191.5570  176.6830  143.2970 C   0  0  0  0  0  3  0  0  0  0  0  0
  189.1700  177.4980  142.0760 C   0  0  0  0  0  0  0  0  0  0  0  0
  187.8770  177.9540  141.4800 C   0  0  0  0  0  2  0  0  0  0  0  0
  186.8110  177.5390  142.2820 O   0  0  0  0  0  0  0  0  0  0  0  0
  185.9080  178.6030  142.2650 C   0  0  0  0  0  2  0  0  0  0  0  0
  184.9020  178.4470  143.3960 C   0  0  0  0  0  2  0  0  0  0  0  0
  185.1790  179.4330  144.5200 C   0  0  0  0  0  2  0  0  0  0  0  0
  186.3920  177.8650  146.0030 C   0  0  0  0  0  1  0  0  0  0  0  0
  185.1560  178.7260  145.8630 C   0  0  0  0  0  2  0  0  0  0  0  0
  184.9690  173.8260  137.1290 C   0  0  0  0  0  2  0  0  0  0  0  0
  184.3460  174.9340  136.2960 C   0  0  0  0  0  2  0  0  0  0  0  0
  184.3420  176.2440  137.0620 C   0  0  0  0  0  2  0  0  0  0  0  0
  183.0700  177.0280  136.7770 C   0  0  0  0  0  2  0  0  0  0  0  0
  182.6800  177.7880  137.9560 N   0  0  0  0  0  2  0  0  0  0  0  0
  181.4880  179.0140  141.8340 N   0  0  2  0  0  0  0  0  0  0  0  0
  179.2540  176.0720  139.7480 O   0  0  0  0  0  1  0  0  0  0  0  0
  179.8510  177.2540  140.2050 C   0  0  2  0  0  0  0  0  0  0  0  0
  181.4130  177.2500  138.4360 C   0  0  1  0  0  3  0  0  0  0  0  0
  178.9310  180.2360  140.7810 O   0  0  0  0  0  1  0  0  0  0  0  0
  179.4450  178.4190  139.2920 C   0  0  1  0  0  3  0  0  0  0  0  0
  181.3330  177.2060  139.9680 C   0  0  1  0  0  3  0  0  0  0  0  0
  180.3350  178.2670  143.8580 C   0  0  0  0  0  1  0  0  0  0  0  0
  181.3260  179.7580  140.5420 C   0  0  2  0  0  3  0  0  0  0  0  0
  179.4410  177.4180  137.1160 F   0  0  0  0  0  0  0  0  0  0  0  0
  179.8970  179.7940  139.8690 C   0  0  2  0  0  0  0  0  0  0  0  0
  182.0440  178.4510  140.5750 C   0  0  1  0  0  3  0  0  0  0  0  0
  179.5550  177.3550  141.6880 C   0  0  0  0  0  2  0  0  0  0  0  0
  180.2350  178.1210  138.0040 C   0  0  2  0  0  3  0  0  0  0  0  0
  180.2000  178.5430  142.3750 C   0  0  2  0  0  3  0  0  0  0  0  0
  179.9340  180.8350  138.7380 C   0  0  0  0  0  2  0  0  0  0  0  0
  181.2010  181.6800  138.7520 C   0  0  0  0  0  1  0  0  0  0  0  0
  1  5  1  0  0  0  0
  2 34  1  6  0  0  0
  2  3  1  0  0  0  0
  4  6  1  0  0  0  0
  4  1  1  0  0  0  0
  5  3  1  0  0  0  0
  5  8  1  6  0  0  0
  6  2  1  0  0  0  0
  8  7  2  1  0  0  0
  8  9  1  0  0  0  0
  9 20  1  6  0  0  0
 10  9  1  0  0  0  0
 12 11  1  1  0  0  0
 12 10  1  0  0  0  0
 13 12  1  0  0  0  0
 13 14  1  0  0  0  0
 15 16  1  1  0  0  0
 15 14  1  0  0  0  0
 15 17  1  0  0  0  0
 17 18  1  0  0  0  0
 19 17  2  0  0  0  0
 20 23  1  0  0  0  0
 21 22  1  0  0  0  0
 23 24  2  0  0  0  0
 23 26  1  0  0  0  0
 24 25  1  0  0  0  0
 25 22  2  0  0  0  0
 26 21  2  0  0  0  0
 27 26  1  0  0  0  0
 27 28  1  0  0  0  0
 29 28  1  0  0  0  0
 29 30  1  0  0  0  0
 30 31  1  0  0  0  0
 31 33  1  0  0  0  0
 33 32  1  0  0  0  0
 35 36  1  0  0  0  0
 35 34  1  0  0  0  0
 37 36  1  0  0  0  0
 37 38  1  0  0  0  0
 38 42  1  0  0  0  0
 39 53  1  0  0  0  0
 40 41  1  0  0  0  0
 41 51  1  0  0  0  0
 42 45  1  0  0  0  0
 44 49  1  0  0  0  0
 44 41  1  0  0  0  0
 45 41  1  0  0  0  0
 45 50  1  0  0  0  0
 47 50  1  0  0  0  0
 47 39  1  0  0  0  0
 48 52  1  0  0  0  0
 49 47  1  0  0  0  0
 49 43  1  0  0  0  0
 50 39  1  0  0  0  0
 51 53  1  0  0  0  0
 52 42  1  0  0  0  0
 52 44  1  0  0  0  0
 53 46  1  0  0  0  0
 54 55  1  0  0  0  0
 54 49  1  0  0  0  0
M  END
>  <MODEL>
9

>  <REMARK>
 VINA RESULT:      -5.3      3.838      8.360
  Name = 
  23 active torsions:
  status: ('A' for Active; 'I' for Inactive)
    1  A    between atoms: C_4  and  C_37
    2  A    between atoms: C_4  and  C_40
    3  A    between atoms: C_5  and  O_19
    4  A    between atoms: C_5  and  C_40
    5  A    between atoms: C_7  and  N_22
    6  A    between atoms: C_8  and  N_22
    7  A    between atoms: C_8  and  C_43
    8  A    between atoms: C_10  and  C_32
    9  A    between atoms: C_11  and  C_38
   10  A    between atoms: C_13  and  C_48
   11  A    between atoms: C_13  and  C_52
   12  A    between atoms: C_16  and  C_36
   13  A    between atoms: O_19  and  C_45
   14  A    between atoms: C_26  and  C_45
   15  A    between atoms: C_27  and  C_54
   16  A    between atoms: P_28  and  C_44
   17  A    between atoms: P_28  and  C_49
   18  A    between atoms: C_32  and  C_48
   19  A    between atoms: N_33  and  C_49
   20  A    between atoms: N_33  and  C_52
   21  A    between atoms: C_36  and  C_49
   22  A    between atoms: C_43  and  C_51
   23  A    between atoms: C_51  and  C_54
                            x       y       z     vdW  Elec       q    Type
                         _______ _______ _______ _____ _____    ______ ____

>  <TORSDO>
F 23

$$$$
