=
 OpenBabel10262419583D

 27 30  0  0  1  0  0  0  0  0999 V2000
  188.1790  176.8650  143.7530 C   0  0  0  0  0  3  0  0  0  0  0  0
  186.0920  178.1000  144.3350 C   0  0  0  0  0  0  0  0  0  0  0  0
  186.4690  178.6260  141.9520 C   0  0  0  0  0  3  0  0  0  0  0  0
  181.8800  179.2920  143.1990 S   0  0  0  0  0  0  0  0  0  0  0  0
  181.0320  178.5530  140.6240 C   0  0  0  0  0  1  0  0  0  0  0  0
  185.2330  178.8070  145.3280 C   0  0  0  0  0  3  0  0  0  0  0  0
  183.3850  178.1150  141.5580 C   0  0  0  0  0  0  0  0  0  0  0  0
  183.8980  177.4260  140.3380 C   0  0  0  0  0  1  0  0  0  0  0  0
  184.1510  178.3210  142.7190 C   0  0  0  0  0  0  0  0  0  0  0  0
  187.2950  177.5890  144.7040 C   0  0  0  0  0  0  0  0  0  0  0  0
  182.0890  178.6140  141.6710 C   0  0  0  0  0  0  0  0  0  0  0  0
  183.4420  178.9610  143.7210 C   0  0  0  0  0  0  0  0  0  0  0  0
  188.3630  177.1200  142.4490 C   0  0  0  0  0  0  0  0  0  0  0  0
  185.5870  177.9010  142.9120 C   0  0  2  0  0  3  0  0  0  0  0  0
  183.9960  179.2190  145.0470 C   0  0  0  0  0  3  0  0  0  0  0  0
  187.7360  178.2660  141.7400 C   0  0  0  0  0  0  0  0  0  0  0  0
  188.7550  177.8640  148.6930 N   0  0  0  0  0  0  0  0  0  0  0  0
  187.7870  177.6590  146.1040 C   0  0  0  0  0  0  0  0  0  0  0  0
  186.9640  178.1300  147.1370 C   0  0  0  0  0  3  0  0  0  0  0  0
  187.4690  178.2200  148.4360 C   0  0  0  0  0  3  0  0  0  0  0  0
  189.5800  177.4190  147.7090 C   0  0  0  0  0  3  0  0  0  0  0  0
  189.1120  177.3140  146.3970 C   0  0  0  0  0  3  0  0  0  0  0  0
  189.3700  176.2830  141.7310 C   0  0  0  0  0  2  0  0  0  0  0  0
  190.1740  175.6120  142.6530 O   0  0  0  0  0  1  0  0  0  0  0  0
  188.5020  179.0010  140.6890 C   0  0  0  0  0  2  0  0  0  0  0  0
  188.2560  178.3850  139.3240 C   0  0  0  0  0  2  0  0  0  0  0  0
  188.9920  179.0760  138.3630 O   0  0  0  0  0  1  0  0  0  0  0  0
  1 10  1  0  0  0  0
  2 10  2  0  0  0  0
  2  6  1  0  0  0  0
  4 12  1  0  0  0  0
  5 11  1  0  0  0  0
  7 11  2  0  0  0  0
  7  9  1  0  0  0  0
  8  7  1  0  0  0  0
  9 14  1  0  0  0  0
  9 12  2  0  0  0  0
 10 18  1  0  0  0  0
 11  4  1  0  0  0  0
 12 15  1  0  0  0  0
 13  1  2  0  0  0  0
 14  3  1  6  0  0  0
 14  2  1  0  0  0  0
 15  6  2  0  0  0  0
 16  3  2  0  0  0  0
 16 13  1  0  0  0  0
 18 22  2  0  0  0  0
 18 19  1  0  0  0  0
 19 20  2  0  0  0  0
 20 17  1  0  0  0  0
 21 17  2  0  0  0  0
 22 21  1  0  0  0  0
 23 13  1  0  0  0  0
 23 24  1  0  0  0  0
 25 16  1  0  0  0  0
 26 25  1  0  0  0  0
 27 26  1  0  0  0  0
M  END
>  <MODEL>
1

>  <REMARK>
 VINA RESULT:      -9.6      0.000      0.000
  Name = 
  4 active torsions:
  status: ('A' for Active; 'I' for Inactive)
    1  A    between atoms: C_9  and  C_15
    2  A    between atoms: C_10  and  C_20
    3  A    between atoms: C_18  and  C_22
    4  A    between atoms: C_20  and  C_26
                            x       y       z     vdW  Elec       q    Type
                         _______ _______ _______ _____ _____    ______ ____

>  <TORSDO>
F 4

$$$$
=
 OpenBabel10262419583D

 27 30  0  0  1  0  0  0  0  0999 V2000
  187.2640  177.3810  144.2990 C   0  0  0  0  0  3  0  0  0  0  0  0
  186.9170  178.0870  141.9330 C   0  0  0  0  0  0  0  0  0  0  0  0
  189.3360  178.4090  142.3190 C   0  0  0  0  0  3  0  0  0  0  0  0
  188.3370  177.9950  137.6400 S   0  0  0  0  0  0  0  0  0  0  0  0
  190.8190  176.7620  137.1790 C   0  0  0  0  0  1  0  0  0  0  0  0
  186.0540  178.6570  140.8580 C   0  0  0  0  0  3  0  0  0  0  0  0
  189.7600  177.0680  139.5000 C   0  0  0  0  0  0  0  0  0  0  0  0
  190.8620  176.3970  140.2500 C   0  0  0  0  0  1  0  0  0  0  0  0
  188.6110  177.6010  140.1100 C   0  0  1  0  0  3  0  0  0  0  0  0
  186.4460  177.9560  143.2000 C   0  0  0  0  0  0  0  0  0  0  0  0
  189.7560  177.2200  138.1150 C   0  0  0  0  0  0  0  0  0  0  0  0
  187.7250  178.1470  139.1970 C   0  0  0  0  0  0  0  0  0  0  0  0
  188.5840  177.5200  144.4980 C   0  0  0  0  0  0  0  0  0  0  0  0
  188.3180  177.5970  141.5890 C   0  0  0  0  0  0  0  0  0  0  0  0
  186.4270  178.6950  139.5790 C   0  0  0  0  0  3  0  0  0  0  0  0
  189.4570  178.3700  143.6460 C   0  0  0  0  0  0  0  0  0  0  0  0
  182.4770  179.0770  144.2550 N   0  0  0  0  0  0  0  0  0  0  0  0
  185.0510  178.3160  143.5640 C   0  0  0  0  0  0  0  0  0  0  0  0
  184.0430  178.3820  142.5920 C   0  0  0  0  0  3  0  0  0  0  0  0
  182.7520  178.7630  142.9610 C   0  0  0  0  0  3  0  0  0  0  0  0
  183.4380  179.0370  145.2150 C   0  0  0  0  0  3  0  0  0  0  0  0
  184.7420  178.6610  144.8860 C   0  0  0  0  0  3  0  0  0  0  0  0
  189.1530  176.8960  145.7290 C   0  0  0  0  0  2  0  0  0  0  0  0
  188.5150  177.4090  146.8600 O   0  0  0  0  0  1  0  0  0  0  0  0
  190.5690  179.1510  144.2670 C   0  0  0  0  0  2  0  0  0  0  0  0
  191.9100  178.6750  143.7400 C   0  0  0  0  0  2  0  0  0  0  0  0
  191.9620  177.2830  143.7920 O   0  0  0  0  0  1  0  0  0  0  0  0
  1 13  1  0  0  0  0
  2 10  1  0  0  0  0
  3 16  1  0  0  0  0
  4 11  1  0  0  0  0
  4 12  1  0  0  0  0
  5 11  1  0  0  0  0
  6  2  2  0  0  0  0
  7  9  1  0  0  0  0
  7  8  1  0  0  0  0
  9 12  1  6  0  0  0
  9 14  1  0  0  0  0
 10 18  1  0  0  0  0
 10  1  2  0  0  0  0
 11  7  2  0  0  0  0
 12 15  2  0  0  0  0
 13 23  1  0  0  0  0
 14  2  1  0  0  0  0
 14  3  2  0  0  0  0
 15  6  1  0  0  0  0
 16 25  1  0  0  0  0
 16 13  2  0  0  0  0
 17 21  1  0  0  0  0
 18 22  1  0  0  0  0
 19 20  1  0  0  0  0
 19 18  2  0  0  0  0
 20 17  2  0  0  0  0
 22 21  2  0  0  0  0
 23 24  1  0  0  0  0
 26 27  1  0  0  0  0
 26 25  1  0  0  0  0
M  END
>  <MODEL>
2

>  <REMARK>
 VINA RESULT:      -8.2      2.999      5.694
  Name = 
  4 active torsions:
  status: ('A' for Active; 'I' for Inactive)
    1  A    between atoms: C_9  and  C_15
    2  A    between atoms: C_10  and  C_20
    3  A    between atoms: C_18  and  C_22
    4  A    between atoms: C_20  and  C_26
                            x       y       z     vdW  Elec       q    Type
                         _______ _______ _______ _____ _____    ______ ____

>  <TORSDO>
F 4

$$$$
=
 OpenBabel10262419583D

 27 30  0  0  1  0  0  0  0  0999 V2000
  188.8140  176.7870  144.3580 C   0  0  0  0  0  3  0  0  0  0  0  0
  187.6860  177.8170  142.3870 C   0  0  0  0  0  0  0  0  0  0  0  0
  190.0940  177.9450  141.8490 C   0  0  0  0  0  3  0  0  0  0  0  0
  187.3870  178.2100  137.8920 S   0  0  0  0  0  0  0  0  0  0  0  0
  189.3770  176.9070  136.3960 C   0  0  0  0  0  1  0  0  0  0  0  0
  186.5490  178.5730  141.7870 C   0  0  0  0  0  3  0  0  0  0  0  0
  189.2960  176.9650  138.9630 C   0  0  0  0  0  0  0  0  0  0  0  0
  190.5220  176.1390  139.1650 C   0  0  0  0  0  1  0  0  0  0  0  0
  188.5190  177.4790  140.0160 C   0  0  1  0  0  3  0  0  0  0  0  0
  187.7090  177.5480  143.7180 C   0  0  0  0  0  0  0  0  0  0  0  0
  188.7920  177.2980  137.7080 C   0  0  0  0  0  0  0  0  0  0  0  0
  187.4180  178.1910  139.5710 C   0  0  0  0  0  0  0  0  0  0  0  0
  190.1200  176.8220  144.0490 C   0  0  0  0  0  0  0  0  0  0  0  0
  188.7990  177.2970  141.4870 C   0  0  0  0  0  0  0  0  0  0  0  0
  186.4200  178.7570  140.4720 C   0  0  0  0  0  3  0  0  0  0  0  0
  190.6960  177.7240  143.0180 C   0  0  0  0  0  0  0  0  0  0  0  0
  184.5620  178.7450  146.3210 N   0  0  0  0  0  0  0  0  0  0  0  0
  186.5970  177.9370  144.6220 C   0  0  0  0  0  0  0  0  0  0  0  0
  185.3330  178.2680  144.1120 C   0  0  0  0  0  3  0  0  0  0  0  0
  184.3190  178.6670  144.9860 C   0  0  0  0  0  3  0  0  0  0  0  0
  185.7810  178.4460  146.8410 C   0  0  0  0  0  3  0  0  0  0  0  0
  186.8200  178.0420  146.0000 C   0  0  0  0  0  3  0  0  0  0  0  0
  191.0380  176.0090  144.9010 C   0  0  0  0  0  2  0  0  0  0  0  0
  191.0910  176.5440  146.1890 O   0  0  0  0  0  1  0  0  0  0  0  0
  192.0330  178.3520  143.2420 C   0  0  0  0  0  2  0  0  0  0  0  0
  191.9600  179.3710  144.3640 C   0  0  0  0  0  2  0  0  0  0  0  0
  190.8830  180.2270  144.1440 O   0  0  0  0  0  1  0  0  0  0  0  0
  2 10  1  0  0  0  0
  3 16  1  0  0  0  0
  4 12  1  0  0  0  0
  5 11  1  0  0  0  0
  6  2  2  0  0  0  0
  7  8  1  0  0  0  0
  9  7  1  6  0  0  0
  9 14  1  0  0  0  0
 10  1  2  0  0  0  0
 10 18  1  0  0  0  0
 11  4  1  0  0  0  0
 11  7  2  0  0  0  0
 12  9  1  0  0  0  0
 12 15  2  0  0  0  0
 13  1  1  0  0  0  0
 13 23  1  0  0  0  0
 14  3  2  0  0  0  0
 14  2  1  0  0  0  0
 15  6  1  0  0  0  0
 16 25  1  0  0  0  0
 16 13  2  0  0  0  0
 17 21  1  0  0  0  0
 18 22  1  0  0  0  0
 19 18  2  0  0  0  0
 19 20  1  0  0  0  0
 20 17  2  0  0  0  0
 22 21  2  0  0  0  0
 23 24  1  0  0  0  0
 25 26  1  0  0  0  0
 27 26  1  0  0  0  0
M  END
>  <MODEL>
3

>  <REMARK>
 VINA RESULT:      -8.1      2.982      4.959
  Name = 
  4 active torsions:
  status: ('A' for Active; 'I' for Inactive)
    1  A    between atoms: C_9  and  C_15
    2  A    between atoms: C_10  and  C_20
    3  A    between atoms: C_18  and  C_22
    4  A    between atoms: C_20  and  C_26
                            x       y       z     vdW  Elec       q    Type
                         _______ _______ _______ _____ _____    ______ ____

>  <TORSDO>
F 4

$$$$
=
 OpenBabel10262419583D

 27 30  0  0  1  0  0  0  0  0999 V2000
  187.0540  178.9210  141.3600 C   0  0  0  0  0  3  0  0  0  0  0  0
  186.8610  177.9390  143.6440 C   0  0  0  0  0  0  0  0  0  0  0  0
  188.9270  176.9460  142.7240 C   0  0  0  0  0  3  0  0  0  0  0  0
  188.8810  176.7860  147.5230 S   0  0  0  0  0  0  0  0  0  0  0  0
  191.6760  177.0640  147.5980 C   0  0  0  0  0  1  0  0  0  0  0  0
  186.0350  177.4840  144.7990 C   0  0  0  0  0  3  0  0  0  0  0  0
  190.2250  177.5410  145.5320 C   0  0  0  0  0  0  0  0  0  0  0  0
  191.3590  177.9550  144.6530 C   0  0  0  0  0  1  0  0  0  0  0  0
  188.8830  177.5200  145.1170 C   0  0  0  0  0  0  0  0  0  0  0  0
  186.2710  178.4430  142.5300 C   0  0  0  0  0  0  0  0  0  0  0  0
  190.3870  177.1460  146.8580 C   0  0  0  0  0  0  0  0  0  0  0  0
  188.0180  177.1240  146.1220 C   0  0  0  0  0  0  0  0  0  0  0  0
  188.1960  178.4110  140.8740 C   0  0  0  0  0  0  0  0  0  0  0  0
  188.3800  177.8890  143.7430 C   0  0  2  0  0  3  0  0  0  0  0  0
  186.5680  177.0950  145.9580 C   0  0  0  0  0  3  0  0  0  0  0  0
  188.8440  177.1880  141.4150 C   0  0  0  0  0  0  0  0  0  0  0  0
  182.0440  178.8450  142.2360 N   0  0  0  0  0  0  0  0  0  0  0  0
  184.7990  178.6160  142.4250 C   0  0  0  0  0  0  0  0  0  0  0  0
  184.0500  179.1060  143.5040 C   0  0  0  0  0  3  0  0  0  0  0  0
  182.6630  179.2190  143.3870 C   0  0  0  0  0  3  0  0  0  0  0  0
  182.7430  178.3520  141.1800 C   0  0  0  0  0  3  0  0  0  0  0  0
  184.1310  178.2240  141.2580 C   0  0  0  0  0  3  0  0  0  0  0  0
  188.7440  179.0390  139.6350 C   0  0  0  0  0  2  0  0  0  0  0  0
  187.9600  178.6850  138.5360 O   0  0  0  0  0  1  0  0  0  0  0  0
  189.5050  176.2230  140.4850 C   0  0  0  0  0  2  0  0  0  0  0  0
  190.9400  176.6420  140.2190 C   0  0  0  0  0  2  0  0  0  0  0  0
  191.2080  176.5420  138.8560 O   0  0  0  0  0  1  0  0  0  0  0  0
  1 10  1  0  0  0  0
  2 14  1  0  0  0  0
  2  6  1  0  0  0  0
  6 15  2  0  0  0  0
  7 11  2  0  0  0  0
  8  7  1  0  0  0  0
  9  7  1  0  0  0  0
  9 12  2  0  0  0  0
 10  2  2  0  0  0  0
 11  4  1  0  0  0  0
 11  5  1  0  0  0  0
 12  4  1  0  0  0  0
 13  1  2  0  0  0  0
 13 16  1  0  0  0  0
 14  3  1  6  0  0  0
 14  9  1  0  0  0  0
 15 12  1  0  0  0  0
 16  3  2  0  0  0  0
 17 20  1  0  0  0  0
 18 10  1  0  0  0  0
 18 19  1  0  0  0  0
 20 19  2  0  0  0  0
 21 22  1  0  0  0  0
 21 17  2  0  0  0  0
 22 18  2  0  0  0  0
 23 13  1  0  0  0  0
 24 23  1  0  0  0  0
 25 16  1  0  0  0  0
 26 25  1  0  0  0  0
 27 26  1  0  0  0  0
M  END
>  <MODEL>
4

>  <REMARK>
 VINA RESULT:      -8.0      2.805      6.059
  Name = 
  4 active torsions:
  status: ('A' for Active; 'I' for Inactive)
    1  A    between atoms: C_9  and  C_15
    2  A    between atoms: C_10  and  C_20
    3  A    between atoms: C_18  and  C_22
    4  A    between atoms: C_20  and  C_26
                            x       y       z     vdW  Elec       q    Type
                         _______ _______ _______ _____ _____    ______ ____

>  <TORSDO>
F 4

$$$$
=
 OpenBabel10262419583D

 27 30  0  0  1  0  0  0  0  0999 V2000
  189.6690  178.0270  141.4280 C   0  0  0  0  0  3  0  0  0  0  0  0
  187.6370  177.8890  142.8670 C   0  0  1  0  0  3  0  0  0  0  0  0
  189.3130  176.5040  144.0400 C   0  0  0  0  0  3  0  0  0  0  0  0
  185.8460  177.9770  147.0180 S   0  0  0  0  0  0  0  0  0  0  0  0
  187.6680  178.0720  149.1550 C   0  0  0  0  0  1  0  0  0  0  0  0
  186.1550  177.9080  143.0300 C   0  0  0  0  0  3  0  0  0  0  0  0
  188.3410  177.9220  146.6800 C   0  0  0  0  0  0  0  0  0  0  0  0
  189.8120  177.9360  146.9300 C   0  0  0  0  0  1  0  0  0  0  0  0
  187.7670  177.8540  145.3990 C   0  0  0  0  0  0  0  0  0  0  0  0
  188.1980  178.0270  141.6370 C   0  0  0  0  0  0  0  0  0  0  0  0
  187.3890  177.9870  147.6950 C   0  0  0  0  0  0  0  0  0  0  0  0
  186.3830  177.8810  145.4300 C   0  0  0  0  0  0  0  0  0  0  0  0
  190.5910  177.3060  142.0840 C   0  0  0  0  0  0  0  0  0  0  0  0
  188.5260  177.7710  144.0980 C   0  0  0  0  0  0  0  0  0  0  0  0
  185.5610  177.8970  144.2240 C   0  0  0  0  0  3  0  0  0  0  0  0
  190.2570  176.2950  143.1210 C   0  0  0  0  0  0  0  0  0  0  0  0
  185.8510  178.5860  138.1300 N   0  0  0  0  0  0  0  0  0  0  0  0
  187.3800  178.2540  140.4180 C   0  0  0  0  0  0  0  0  0  0  0  0
  186.0350  178.6410  140.5100 C   0  0  0  0  0  3  0  0  0  0  0  0
  185.2840  178.8080  139.3450 C   0  0  0  0  0  3  0  0  0  0  0  0
  187.1470  178.1960  138.0110 C   0  0  0  0  0  3  0  0  0  0  0  0
  187.9320  178.0180  139.1530 C   0  0  0  0  0  3  0  0  0  0  0  0
  192.0060  177.4390  141.6270 C   0  0  0  0  0  2  0  0  0  0  0  0
  192.0520  177.5020  140.2330 O   0  0  0  0  0  1  0  0  0  0  0  0
  191.0470  175.0310  143.2100 C   0  0  0  0  0  2  0  0  0  0  0  0
  192.0520  175.1120  144.3450 C   0  0  0  0  0  2  0  0  0  0  0  0
  192.4360  173.8260  144.7190 O   0  0  0  0  0  1  0  0  0  0  0  0
  1 10  2  0  0  0  0
  1 13  1  0  0  0  0
  2  6  1  1  0  0  0
  2 14  1  0  0  0  0
  3 14  2  0  0  0  0
  4 11  1  0  0  0  0
  6 15  2  0  0  0  0
  7  8  1  0  0  0  0
  7 11  2  0  0  0  0
  9 12  2  0  0  0  0
  9  7  1  0  0  0  0
 10  2  1  0  0  0  0
 11  5  1  0  0  0  0
 12  4  1  0  0  0  0
 13 16  2  0  0  0  0
 14  9  1  0  0  0  0
 15 12  1  0  0  0  0
 16 25  1  0  0  0  0
 16  3  1  0  0  0  0
 17 20  1  0  0  0  0
 18 19  1  0  0  0  0
 18 10  1  0  0  0  0
 20 19  2  0  0  0  0
 21 17  2  0  0  0  0
 21 22  1  0  0  0  0
 22 18  2  0  0  0  0
 23 13  1  0  0  0  0
 24 23  1  0  0  0  0
 25 26  1  0  0  0  0
 26 27  1  0  0  0  0
M  END
>  <MODEL>
5

>  <REMARK>
 VINA RESULT:      -7.8      3.107      6.318
  Name = 
  4 active torsions:
  status: ('A' for Active; 'I' for Inactive)
    1  A    between atoms: C_9  and  C_15
    2  A    between atoms: C_10  and  C_20
    3  A    between atoms: C_18  and  C_22
    4  A    between atoms: C_20  and  C_26
                            x       y       z     vdW  Elec       q    Type
                         _______ _______ _______ _____ _____    ______ ____

>  <TORSDO>
F 4

$$$$
=
 OpenBabel10262419583D

 27 30  0  0  0  0  0  0  0  0999 V2000
  189.7120  175.4300  137.6780 C   0  0  0  0  0  3  0  0  0  0  0  0
  191.1650  176.5370  139.3760 C   0  0  0  0  0  0  0  0  0  0  0  0
  188.9610  177.6140  139.6620 C   0  0  0  0  0  3  0  0  0  0  0  0
  191.6710  178.0690  143.6000 S   0  0  0  0  0  0  0  0  0  0  0  0
  189.3830  177.9940  145.2310 C   0  0  0  0  0  1  0  0  0  0  0  0
  192.5050  177.0030  139.8350 C   0  0  0  0  0  2  0  0  0  0  0  0
  189.4290  177.2870  142.7600 C   0  0  0  0  0  0  0  0  0  0  0  0
  187.9890  176.9010  142.6950 C   0  0  0  0  0  1  0  0  0  0  0  0
  190.3140  177.1880  141.6730 C   0  0  0  0  0  0  0  0  0  0  0  0
  191.0240  175.9230  138.1720 C   0  0  0  0  0  0  0  0  0  0  0  0
  190.0410  177.7750  143.9130 C   0  0  0  0  0  0  0  0  0  0  0  0
  191.6010  177.5840  141.9940 C   0  0  0  0  0  0  0  0  0  0  0  0
  188.5050  175.9880  137.8590 C   0  0  0  0  0  0  0  0  0  0  0  0
  189.9590  176.7000  140.2910 C   0  0  0  0  0  0  0  0  0  0  0  0
  192.7160  177.5000  141.0550 C   0  0  0  0  0  3  0  0  0  0  0  0
  188.2960  177.2860  138.5530 C   0  0  0  0  0  0  0  0  0  0  0  0
  194.3070  175.0380  135.6110 N   0  0  0  0  0  0  0  0  0  0  0  0
  192.1850  175.6410  137.2890 C   0  0  0  0  0  0  0  0  0  0  0  0
  192.3930  176.3750  136.1120 C   0  0  0  0  0  3  0  0  0  0  0  0
  193.4720  176.0590  135.2830 C   0  0  0  0  0  3  0  0  0  0  0  0
  194.1200  174.3000  136.7370 C   0  0  0  0  0  3  0  0  0  0  0  0
  193.0530  174.5850  137.5920 C   0  0  0  0  0  3  0  0  0  0  0  0
  187.3460  175.3250  137.1910 C   0  0  0  0  0  2  0  0  0  0  0  0
  187.4670  175.4360  135.8060 O   0  0  0  0  0  1  0  0  0  0  0  0
  187.2540  178.2340  138.0600 C   0  0  0  0  0  2  0  0  0  0  0  0
  187.7630  179.0010  136.8530 C   0  0  0  0  0  2  0  0  0  0  0  0
  188.8810  179.7500  137.2160 O   0  0  0  0  0  1  0  0  0  0  0  0
  1 13  2  0  0  0  0
  1 10  1  0  0  0  0
  2  6  1  0  0  0  0
  2 14  1  0  0  0  0
  3 14  1  0  0  0  0
  4 11  1  0  0  0  0
  6 15  1  0  0  0  0
  7 11  2  0  0  0  0
  8  7  1  0  0  0  0
  9 12  1  0  0  0  0
  9  7  1  0  0  0  0
 10  2  2  0  0  0  0
 11  5  1  0  0  0  0
 12  4  1  0  0  0  0
 13 16  1  0  0  0  0
 14  9  2  0  0  0  0
 15 12  2  0  0  0  0
 16  3  2  0  0  0  0
 17 21  1  0  0  0  0
 18 22  1  0  0  0  0
 18 10  1  0  0  0  0
 19 18  2  0  0  0  0
 20 17  2  0  0  0  0
 20 19  1  0  0  0  0
 21 22  2  0  0  0  0
 23 13  1  0  0  0  0
 24 23  1  0  0  0  0
 25 16  1  0  0  0  0
 26 27  1  0  0  0  0
 26 25  1  0  0  0  0
M  END
>  <MODEL>
6

>  <REMARK>
 VINA RESULT:      -7.2      4.877      8.315
  Name = 
  4 active torsions:
  status: ('A' for Active; 'I' for Inactive)
    1  A    between atoms: C_9  and  C_15
    2  A    between atoms: C_10  and  C_20
    3  A    between atoms: C_18  and  C_22
    4  A    between atoms: C_20  and  C_26
                            x       y       z     vdW  Elec       q    Type
                         _______ _______ _______ _____ _____    ______ ____

>  <TORSDO>
F 4

$$$$
=
 OpenBabel10262419583D

 27 30  0  0  1  0  0  0  0  0999 V2000
  187.3560  179.0010  139.7860 C   0  0  0  0  0  3  0  0  0  0  0  0
  187.0500  178.1330  142.1030 C   0  0  0  0  0  0  0  0  0  0  0  0
  189.1290  177.0560  141.3170 C   0  0  0  0  0  3  0  0  0  0  0  0
  188.8840  177.1280  146.1120 S   0  0  0  0  0  0  0  0  0  0  0  0
  191.6800  177.3540  146.2910 C   0  0  0  0  0  1  0  0  0  0  0  0
  186.1670  177.7510  143.2430 C   0  0  0  0  0  3  0  0  0  0  0  0
  190.3250  177.7600  144.1460 C   0  0  0  0  0  0  0  0  0  0  0  0
  191.5020  178.1080  143.2960 C   0  0  0  0  0  1  0  0  0  0  0  0
  189.0000  177.7460  143.6770 C   0  0  0  0  0  0  0  0  0  0  0  0
  186.5160  178.5950  140.9430 C   0  0  0  0  0  0  0  0  0  0  0  0
  190.4230  177.4260  145.4950 C   0  0  0  0  0  0  0  0  0  0  0  0
  188.0870  177.4160  144.6630 C   0  0  0  0  0  0  0  0  0  0  0  0
  188.5060  178.4450  139.3720 C   0  0  0  0  0  0  0  0  0  0  0  0
  188.5620  178.0580  142.2670 C   0  0  2  0  0  3  0  0  0  0  0  0
  186.6440  177.4070  144.4400 C   0  0  0  0  0  3  0  0  0  0  0  0
  189.1050  177.2370  139.9960 C   0  0  0  0  0  0  0  0  0  0  0  0
  182.3240  179.0840  140.3890 N   0  0  0  0  0  0  0  0  0  0  0  0
  185.0540  178.7920  140.7690 C   0  0  0  0  0  0  0  0  0  0  0  0
  184.1540  178.4690  141.7940 C   0  0  0  0  0  3  0  0  0  0  0  0
  182.7830  178.6280  141.5850 C   0  0  0  0  0  3  0  0  0  0  0  0
  183.1730  179.3900  139.3720 C   0  0  0  0  0  3  0  0  0  0  0  0
  184.5510  179.2440  139.5420 C   0  0  0  0  0  3  0  0  0  0  0  0
  189.1170  179.0020  138.1290 C   0  0  0  0  0  2  0  0  0  0  0  0
  188.1160  179.3750  137.2320 O   0  0  0  0  0  1  0  0  0  0  0  0
  189.7820  176.2160  139.1410 C   0  0  0  0  0  2  0  0  0  0  0  0
  191.2740  176.4870  139.0730 C   0  0  0  0  0  2  0  0  0  0  0  0
  191.6830  176.5000  137.7410 O   0  0  0  0  0  1  0  0  0  0  0  0
  1 10  1  0  0  0  0
  2 14  1  0  0  0  0
  2  6  1  0  0  0  0
  6 15  2  0  0  0  0
  7 11  2  0  0  0  0
  8  7  1  0  0  0  0
  9  7  1  0  0  0  0
  9 12  2  0  0  0  0
 10  2  2  0  0  0  0
 11  4  1  0  0  0  0
 11  5  1  0  0  0  0
 12  4  1  0  0  0  0
 13  1  2  0  0  0  0
 13 16  1  0  0  0  0
 14  3  1  6  0  0  0
 14  9  1  0  0  0  0
 15 12  1  0  0  0  0
 16  3  2  0  0  0  0
 17 20  1  0  0  0  0
 18 10  1  0  0  0  0
 18 19  1  0  0  0  0
 20 19  2  0  0  0  0
 21 22  1  0  0  0  0
 21 17  2  0  0  0  0
 22 18  2  0  0  0  0
 23 13  1  0  0  0  0
 24 23  1  0  0  0  0
 25 16  1  0  0  0  0
 26 25  1  0  0  0  0
 27 26  1  0  0  0  0
M  END
>  <MODEL>
7

>  <REMARK>
 VINA RESULT:      -7.1      3.183      6.412
  Name = 
  4 active torsions:
  status: ('A' for Active; 'I' for Inactive)
    1  A    between atoms: C_9  and  C_15
    2  A    between atoms: C_10  and  C_20
    3  A    between atoms: C_18  and  C_22
    4  A    between atoms: C_20  and  C_26
                            x       y       z     vdW  Elec       q    Type
                         _______ _______ _______ _____ _____    ______ ____

>  <TORSDO>
F 4

$$$$
=
 OpenBabel10262419583D

 27 30  0  0  1  0  0  0  0  0999 V2000
  188.4560  176.5940  143.5400 C   0  0  0  0  0  3  0  0  0  0  0  0
  186.9230  177.9920  142.1580 C   0  0  0  0  0  0  0  0  0  0  0  0
  189.0280  177.9340  140.8670 C   0  0  0  0  0  3  0  0  0  0  0  0
  185.2750  179.0110  138.0720 S   0  0  0  0  0  0  0  0  0  0  0  0
  186.4790  177.7150  135.8880 C   0  0  0  0  0  1  0  0  0  0  0  0
  185.7750  178.9370  142.0400 C   0  0  0  0  0  3  0  0  0  0  0  0
  187.2250  177.4380  138.3320 C   0  0  0  0  0  0  0  0  0  0  0  0
  188.3190  176.4670  138.0380 C   0  0  0  0  0  1  0  0  0  0  0  0
  186.9040  177.8870  139.6250 C   0  0  0  0  0  0  0  0  0  0  0  0
  187.3270  177.5460  143.3750 C   0  0  0  0  0  0  0  0  0  0  0  0
  186.4030  177.9880  137.3500 C   0  0  0  0  0  0  0  0  0  0  0  0
  185.8330  178.7650  139.6360 C   0  0  0  0  0  0  0  0  0  0  0  0
  189.5870  176.5310  142.8210 C   0  0  0  0  0  0  0  0  0  0  0  0
  187.6060  177.4810  140.8960 C   0  0  2  0  0  3  0  0  0  0  0  0
  185.2650  179.3090  140.8660 C   0  0  0  0  0  3  0  0  0  0  0  0
  189.9310  177.4970  141.7450 C   0  0  0  0  0  0  0  0  0  0  0  0
  185.2700  178.5590  146.9610 N   0  0  0  0  0  0  0  0  0  0  0  0
  186.6260  177.9270  144.6280 C   0  0  0  0  0  0  0  0  0  0  0  0
  187.2710  177.8460  145.8710 C   0  0  0  0  0  3  0  0  0  0  0  0
  186.5710  178.1750  147.0340 C   0  0  0  0  0  3  0  0  0  0  0  0
  184.6150  178.6310  145.7730 C   0  0  0  0  0  3  0  0  0  0  0  0
  185.2800  178.3120  144.5870 C   0  0  0  0  0  3  0  0  0  0  0  0
  190.6010  175.5190  143.2420 C   0  0  0  0  0  2  0  0  0  0  0  0
  191.2530  175.9510  144.3980 O   0  0  0  0  0  1  0  0  0  0  0  0
  191.3460  177.9420  141.5690 C   0  0  0  0  0  2  0  0  0  0  0  0
  191.9140  177.4030  140.2690 C   0  0  0  0  0  2  0  0  0  0  0  0
  193.3060  177.4600  140.3120 O   0  0  0  0  0  1  0  0  0  0  0  0
  2 10  2  0  0  0  0
  3 16  2  0  0  0  0
  4 12  1  0  0  0  0
  5 11  1  0  0  0  0
  6  2  1  0  0  0  0
  7  9  1  0  0  0  0
  8  7  1  0  0  0  0
  9 12  2  0  0  0  0
  9 14  1  0  0  0  0
 10  1  1  0  0  0  0
 10 18  1  0  0  0  0
 11  4  1  0  0  0  0
 11  7  2  0  0  0  0
 12 15  1  0  0  0  0
 13 23  1  0  0  0  0
 13  1  2  0  0  0  0
 14  3  1  6  0  0  0
 14  2  1  0  0  0  0
 15  6  2  0  0  0  0
 16 13  1  0  0  0  0
 17 20  1  0  0  0  0
 18 19  1  0  0  0  0
 19 20  2  0  0  0  0
 21 17  2  0  0  0  0
 22 18  2  0  0  0  0
 22 21  1  0  0  0  0
 23 24  1  0  0  0  0
 25 16  1  0  0  0  0
 26 27  1  0  0  0  0
 26 25  1  0  0  0  0
M  END
>  <MODEL>
8

>  <REMARK>
 VINA RESULT:      -6.9      2.440      3.909
  Name = 
  4 active torsions:
  status: ('A' for Active; 'I' for Inactive)
    1  A    between atoms: C_9  and  C_15
    2  A    between atoms: C_10  and  C_20
    3  A    between atoms: C_18  and  C_22
    4  A    between atoms: C_20  and  C_26
                            x       y       z     vdW  Elec       q    Type
                         _______ _______ _______ _____ _____    ______ ____

>  <TORSDO>
F 4

$$$$
=
 OpenBabel10262419583D

 27 30  0  0  1  0  0  0  0  0999 V2000
  189.1490  178.7440  141.3580 C   0  0  0  0  0  3  0  0  0  0  0  0
  186.8580  178.2800  140.4910 C   0  0  1  0  0  3  0  0  0  0  0  0
  186.7580  177.6170  142.8680 C   0  0  0  0  0  3  0  0  0  0  0  0
  182.3840  178.5280  141.1070 S   0  0  0  0  0  0  0  0  0  0  0  0
  181.5250  179.4610  143.6140 C   0  0  0  0  0  1  0  0  0  0  0  0
  185.9380  177.9140  139.3750 C   0  0  0  0  0  3  0  0  0  0  0  0
  183.9860  179.1120  142.9610 C   0  0  0  0  0  0  0  0  0  0  0  0
  184.5470  179.5720  144.2650 C   0  0  0  0  0  1  0  0  0  0  0  0
  184.7740  178.6850  141.8770 C   0  0  0  0  0  0  0  0  0  0  0  0
  188.1960  178.3700  140.2810 C   0  0  0  0  0  0  0  0  0  0  0  0
  182.6210  179.0720  142.6830 C   0  0  0  0  0  0  0  0  0  0  0  0
  184.0190  178.3330  140.7720 C   0  0  0  0  0  0  0  0  0  0  0  0
  189.0840  178.4190  142.6590 C   0  0  0  0  0  0  0  0  0  0  0  0
  186.2800  178.6090  141.8610 C   0  0  0  0  0  0  0  0  0  0  0  0
  184.6110  177.9300  139.5000 C   0  0  0  0  0  3  0  0  0  0  0  0
  188.0380  177.5340  143.2330 C   0  0  0  0  0  0  0  0  0  0  0  0
  189.8610  177.7220  136.4170 N   0  0  0  0  0  0  0  0  0  0  0  0
  188.8000  178.1660  138.9390 C   0  0  0  0  0  0  0  0  0  0  0  0
  188.6440  179.1190  137.9230 C   0  0  0  0  0  3  0  0  0  0  0  0
  189.1910  178.8790  136.6610 C   0  0  0  0  0  3  0  0  0  0  0  0
  190.0140  176.7730  137.3780 C   0  0  0  0  0  3  0  0  0  0  0  0
  189.4820  176.9760  138.6540 C   0  0  0  0  0  3  0  0  0  0  0  0
  190.2170  178.8640  143.5250 C   0  0  0  0  0  2  0  0  0  0  0  0
  191.4020  178.2590  143.1050 O   0  0  0  0  0  1  0  0  0  0  0  0
  188.3920  176.5680  144.3160 C   0  0  0  0  0  2  0  0  0  0  0  0
  187.9450  177.0980  145.6660 C   0  0  0  0  0  2  0  0  0  0  0  0
  189.0630  177.3610  146.4550 O   0  0  0  0  0  1  0  0  0  0  0  0
  1 13  1  0  0  0  0
  2  6  1  6  0  0  0
  2 14  1  0  0  0  0
  3 16  1  0  0  0  0
  4 11  1  0  0  0  0
  6 15  2  0  0  0  0
  7  8  1  0  0  0  0
  9  7  1  0  0  0  0
 10  2  1  0  0  0  0
 10  1  2  0  0  0  0
 11  7  2  0  0  0  0
 11  5  1  0  0  0  0
 12  4  1  0  0  0  0
 12  9  2  0  0  0  0
 13 16  2  0  0  0  0
 13 23  1  0  0  0  0
 14  9  1  0  0  0  0
 14  3  2  0  0  0  0
 15 12  1  0  0  0  0
 16 25  1  0  0  0  0
 17 20  2  0  0  0  0
 17 21  1  0  0  0  0
 18 10  1  0  0  0  0
 19 18  2  0  0  0  0
 20 19  1  0  0  0  0
 21 22  2  0  0  0  0
 22 18  1  0  0  0  0
 24 23  1  0  0  0  0
 25 26  1  0  0  0  0
 26 27  1  0  0  0  0
M  END
>  <MODEL>
9

>  <REMARK>
 VINA RESULT:      -6.8      3.038      5.863
  Name = 
  4 active torsions:
  status: ('A' for Active; 'I' for Inactive)
    1  A    between atoms: C_9  and  C_15
    2  A    between atoms: C_10  and  C_20
    3  A    between atoms: C_18  and  C_22
    4  A    between atoms: C_20  and  C_26
                            x       y       z     vdW  Elec       q    Type
                         _______ _______ _______ _____ _____    ______ ____

>  <TORSDO>
F 4

$$$$
