=
 OpenBabel10262421413D

 32 37  0  0  0  0  0  0  0  0999 V2000
  188.9400  177.3050  146.3570 C   0  0  0  0  0  0  0  0  0  0  0  0
  185.1100  178.4030  143.1530 C   0  0  0  0  0  0  0  0  0  0  0  0
  188.5800  177.7270  140.4680 O   0  0  0  0  0  0  0  0  0  0  0  0
  186.9720  178.2300  138.3840 S   0  0  0  0  0  0  0  0  0  0  0  0
  182.6730  178.9910  143.0520 N   0  0  0  0  0  0  0  0  0  0  0  0
  181.5430  179.3000  142.3670 C   0  0  0  0  0  0  0  0  0  0  0  0
  186.4860  177.9600  145.1590 C   0  0  0  0  0  0  0  0  0  0  0  0
  187.5440  177.8320  142.9820 O   0  0  0  0  0  0  0  0  0  0  0  0
  179.2720  179.9220  140.9750 N   0  0  0  0  0  0  0  0  0  0  0  0
  188.8470  177.4070  144.9680 C   0  0  0  0  0  3  0  0  0  0  0  0
  187.4140  178.0270  140.0990 C   0  0  0  0  0  0  0  0  0  0  0  0
  186.3440  178.1540  142.3420 C   0  0  0  0  0  0  0  0  0  0  0  0
  186.3020  178.2410  141.0020 C   0  0  0  0  0  0  0  0  0  0  0  0
  183.8820  178.8200  141.0040 C   0  0  0  0  0  0  0  0  0  0  0  0
  179.2480  179.8500  142.3340 C   0  0  0  0  0  3  0  0  0  0  0  0
  187.8130  177.5290  147.1520 C   0  0  0  0  0  3  0  0  0  0  0  0
  187.6260  177.7330  144.3690 C   0  0  0  0  0  0  0  0  0  0  0  0
  180.3780  179.5410  143.0230 N   0  0  0  0  0  0  0  0  0  0  0  0
  186.5910  177.8550  146.5550 C   0  0  0  0  0  3  0  0  0  0  0  0
  185.2350  178.6180  138.8560 C   0  0  0  0  0  2  0  0  0  0  0  0
  185.1070  178.5660  140.3100 N   0  0  0  0  0  0  0  0  0  0  0  0
  182.7480  179.1300  140.3160 N   0  0  0  0  0  0  0  0  0  0  0  0
  185.1940  178.3060  144.5080 C   0  0  0  0  0  0  0  0  0  0  0  0
  184.0100  178.5380  145.3980 C   0  0  0  0  0  1  0  0  0  0  0  0
  180.4170  179.6880  140.2800 C   0  0  0  0  0  3  0  0  0  0  0  0
  183.8510  178.7470  142.4110 C   0  0  0  0  0  0  0  0  0  0  0  0
  181.5850  179.3710  140.9680 C   0  0  0  0  0  0  0  0  0  0  0  0
  191.2480  176.6900  147.4830 C   0  0  0  0  0  0  0  0  0  0  0  0
  190.1950  176.9710  146.9700 C   0  0  0  0  0  0  0  0  0  0  0  0
  192.5030  176.3560  148.0950 C   0  0  0  0  0  0  0  0  0  0  0  0
  193.0070  177.1450  149.1200 O   0  0  0  0  0  1  0  0  0  0  0  0
  193.1450  175.3470  147.7030 O   0  0  0  0  0  0  0  0  0  0  0  0
  1 29  1  0  0  0  0
  1 16  1  0  0  0  0
  2 23  2  0  0  0  0
  4 20  1  0  0  0  0
  4 11  1  0  0  0  0
  6 18  1  0  0  0  0
  6  5  2  0  0  0  0
  7 19  1  0  0  0  0
  8 17  1  0  0  0  0
  9 15  1  0  0  0  0
 10  1  2  0  0  0  0
 11  3  2  0  0  0  0
 11 13  1  0  0  0  0
 12  8  1  0  0  0  0
 12  2  1  0  0  0  0
 13 12  2  0  0  0  0
 14 26  2  0  0  0  0
 15 18  2  0  0  0  0
 17 10  1  0  0  0  0
 17  7  2  0  0  0  0
 19 16  2  0  0  0  0
 20 21  1  0  0  0  0
 21 13  1  0  0  0  0
 21 14  1  0  0  0  0
 22 27  2  0  0  0  0
 22 14  1  0  0  0  0
 23  7  1  0  0  0  0
 23 24  1  0  0  0  0
 25 27  1  0  0  0  0
 25  9  2  0  0  0  0
 26  5  1  0  0  0  0
 26  2  1  0  0  0  0
 27  6  1  0  0  0  0
 28 30  1  0  0  0  0
 29 28  3  0  0  0  0
 30 31  1  0  0  0  0
 32 30  2  0  0  0  0
M  END
>  <MODEL>
1

>  <REMARK>
 VINA RESULT:     -10.5      0.000      0.000
  Name = 
  2 active torsions:
  status: ('A' for Active; 'I' for Inactive)
    1  A    between atoms: C_1  and  C_10
    2  A    between atoms: C_2  and  C_24
                            x       y       z     vdW  Elec       q    Type
                         _______ _______ _______ _____ _____    ______ ____

>  <TORSDO>
F 2

$$$$
=
 OpenBabel10262421413D

 32 37  0  0  0  0  0  0  0  0999 V2000
  183.2410  179.1890  139.7300 C   0  0  0  0  0  0  0  0  0  0  0  0
  187.5060  178.0140  142.2940 C   0  0  0  0  0  0  0  0  0  0  0  0
  188.8070  178.0940  138.0500 O   0  0  0  0  0  0  0  0  0  0  0  0
  191.2790  177.4700  138.8730 S   0  0  0  0  0  0  0  0  0  0  0  0
  188.4280  177.6070  144.5910 N   0  0  0  0  0  0  0  0  0  0  0  0
  189.4470  177.3070  145.4380 C   0  0  0  0  0  0  0  0  0  0  0  0
  185.1840  178.5860  141.6670 C   0  0  0  0  0  0  0  0  0  0  0  0
  186.8360  178.3710  139.9060 O   0  0  0  0  0  0  0  0  0  0  0  0
  191.5060  176.6990  147.1330 N   0  0  0  0  0  0  0  0  0  0  0  0
  184.5570  178.9290  139.3420 C   0  0  0  0  0  3  0  0  0  0  0  0
  189.5440  177.8420  139.0390 C   0  0  0  0  0  0  0  0  0  0  0  0
  187.8350  178.0670  140.8340 C   0  0  0  0  0  0  0  0  0  0  0  0
  189.0880  177.8250  140.4140 C   0  0  0  0  0  0  0  0  0  0  0  0
  189.9100  177.4380  142.7310 C   0  0  0  0  0  0  0  0  0  0  0  0
  190.2580  176.9350  147.6220 C   0  0  0  0  0  3  0  0  0  0  0  0
  182.8910  179.1490  141.0820 C   0  0  0  0  0  3  0  0  0  0  0  0
  185.5260  178.6280  140.3040 C   0  0  0  0  0  0  0  0  0  0  0  0
  189.2360  177.2360  146.7780 N   0  0  0  0  0  2  0  0  0  0  0  0
  183.8580  178.8490  142.0460 C   0  0  0  0  0  3  0  0  0  0  0  0
  191.4340  177.2760  140.6980 C   0  0  0  0  0  2  0  0  0  0  0  0
  190.1340  177.5120  141.3190 N   0  0  0  0  0  0  0  0  0  0  0  0
  190.9310  177.1370  143.5790 N   0  0  0  0  0  0  0  0  0  0  0  0
  186.2250  178.2650  142.6790 C   0  0  0  0  0  0  0  0  0  0  0  0
  185.8060  178.2340  144.1180 C   0  0  0  0  0  1  0  0  0  0  0  0
  191.7590  176.7590  145.7980 C   0  0  0  0  0  2  0  0  0  0  0  0
  188.6200  177.6820  143.2440 C   0  0  0  0  0  0  0  0  0  0  0  0
  190.7250  177.0660  144.9170 C   0  0  0  0  0  0  0  0  0  0  0  0
  181.4140  179.7540  137.9090 C   0  0  0  0  0  0  0  0  0  0  0  0
  182.2480  179.4960  138.7400 C   0  0  0  0  0  0  0  0  0  0  0  0
  180.4220  180.0620  136.9190 C   0  0  0  0  0  0  0  0  0  0  0  0
  180.7450  180.8780  135.8430 O   0  0  0  0  0  0  0  0  0  0  0  0
  179.2600  179.5920  137.0260 O   0  0  0  0  0  1  0  0  0  0  0  0
  1 16  1  0  0  0  0
  2 23  2  0  0  0  0
  2 26  1  0  0  0  0
  3 11  2  0  0  0  0
  4 11  1  0  0  0  0
  4 20  1  0  0  0  0
  5  6  2  0  0  0  0
  6 18  1  0  0  0  0
  7 19  1  0  0  0  0
  7 23  1  0  0  0  0
  8 17  1  0  0  0  0
  8 12  1  0  0  0  0
  9 15  2  0  0  0  0
 10  1  2  0  0  0  0
 10 17  1  0  0  0  0
 11 13  1  0  0  0  0
 12  2  1  0  0  0  0
 13 12  2  0  0  0  0
 13 21  1  0  0  0  0
 14 26  2  0  0  0  0
 14 22  1  0  0  0  0
 16 19  2  0  0  0  0
 17  7  2  0  0  0  0
 18 15  1  0  0  0  0
 20 21  1  0  0  0  0
 21 14  1  0  0  0  0
 22 27  2  0  0  0  0
 23 24  1  0  0  0  0
 25  9  1  0  0  0  0
 26  5  1  0  0  0  0
 27  6  1  0  0  0  0
 27 25  1  0  0  0  0
 28 29  3  0  0  0  0
 29  1  1  0  0  0  0
 30 32  1  0  0  0  0
 30 28  1  0  0  0  0
 31 30  2  0  0  0  0
M  END
>  <MODEL>
2

>  <REMARK>
 VINA RESULT:      -9.4      4.405      9.140
  Name = 
  2 active torsions:
  status: ('A' for Active; 'I' for Inactive)
    1  A    between atoms: C_1  and  C_10
    2  A    between atoms: C_2  and  C_24
                            x       y       z     vdW  Elec       q    Type
                         _______ _______ _______ _____ _____    ______ ____

>  <TORSDO>
F 2

$$$$
=
 OpenBabel10262421413D

 32 37  0  0  0  0  0  0  0  0999 V2000
  182.6790  179.0610  141.0460 C   0  0  0  0  0  0  0  0  0  0  0  0
  187.2970  177.8880  142.9010 C   0  0  0  0  0  0  0  0  0  0  0  0
  187.9400  178.1080  138.5140 O   0  0  0  0  0  0  0  0  0  0  0  0
  190.5160  177.5030  138.9350 S   0  0  0  0  0  0  0  0  0  0  0  0
  188.5610  177.4340  145.0200 N   0  0  0  0  0  0  0  0  0  0  0  0
  189.7000  177.1280  145.6940 C   0  0  0  0  0  0  0  0  0  0  0  0
  184.9000  178.4380  142.6490 C   0  0  0  0  0  0  0  0  0  0  0  0
  186.2690  178.3000  140.6530 O   0  0  0  0  0  0  0  0  0  0  0  0
  191.9990  176.5080  147.0400 N   0  0  0  0  0  0  0  0  0  0  0  0
  183.9250  178.8340  140.4560 C   0  0  0  0  0  3  0  0  0  0  0  0
  188.8220  177.8410  139.3730 C   0  0  0  0  0  0  0  0  0  0  0  0
  187.4010  177.9880  141.4110 C   0  0  0  0  0  0  0  0  0  0  0  0
  188.5790  177.7780  140.8000 C   0  0  0  0  0  0  0  0  0  0  0  0
  189.7460  177.3420  142.9530 C   0  0  0  0  0  0  0  0  0  0  0  0
  190.8370  176.7090  147.7190 C   0  0  0  0  0  3  0  0  0  0  0  0
  182.5380  178.9780  142.4330 C   0  0  0  0  0  3  0  0  0  0  0  0
  185.0320  178.5240  141.2520 C   0  0  0  0  0  0  0  0  0  0  0  0
  189.6950  177.0170  147.0470 N   0  0  0  0  0  0  0  0  0  0  0  0
  183.6430  178.6680  143.2310 C   0  0  0  0  0  3  0  0  0  0  0  0
  190.9480  177.2620  140.7100 C   0  0  0  0  0  2  0  0  0  0  0  0
  189.7540  177.4580  141.5270 N   0  0  0  0  0  0  0  0  0  0  0  0
  190.8880  177.0340  143.6280 N   0  0  0  0  0  0  0  0  0  0  0  0
  186.0860  178.1070  143.4820 C   0  0  0  0  0  0  0  0  0  0  0  0
  185.8900  178.0290  144.9660 C   0  0  0  0  0  1  0  0  0  0  0  0
  192.0460  176.6090  145.6840 C   0  0  0  0  0  3  0  0  0  0  0  0
  188.5460  177.5490  143.6620 C   0  0  0  0  0  0  0  0  0  0  0  0
  190.8880  176.9230  144.9790 C   0  0  0  0  0  0  0  0  0  0  0  0
  180.5910  179.6460  139.5390 C   0  0  0  0  0  0  0  0  0  0  0  0
  181.5440  179.3790  140.2260 C   0  0  0  0  0  0  0  0  0  0  0  0
  179.4570  179.9640  138.7200 C   0  0  0  0  0  0  0  0  0  0  0  0
  178.9380  179.0120  137.8520 O   0  0  0  0  0  0  0  0  0  0  0  0
  178.9310  181.1050  138.7890 O   0  0  0  0  0  1  0  0  0  0  0  0
  1 16  1  0  0  0  0
  2 23  2  0  0  0  0
  2 26  1  0  0  0  0
  3 11  2  0  0  0  0
  4 11  1  0  0  0  0
  4 20  1  0  0  0  0
  5  6  2  0  0  0  0
  6 18  1  0  0  0  0
  7 19  1  0  0  0  0
  7 23  1  0  0  0  0
  8 17  1  0  0  0  0
  8 12  1  0  0  0  0
  9 15  1  0  0  0  0
 10  1  2  0  0  0  0
 10 17  1  0  0  0  0
 11 13  1  0  0  0  0
 12  2  1  0  0  0  0
 13 12  2  0  0  0  0
 13 21  1  0  0  0  0
 14 22  1  0  0  0  0
 14 26  2  0  0  0  0
 16 19  2  0  0  0  0
 17  7  2  0  0  0  0
 18 15  2  0  0  0  0
 20 21  1  0  0  0  0
 21 14  1  0  0  0  0
 22 27  2  0  0  0  0
 23 24  1  0  0  0  0
 25  9  2  0  0  0  0
 26  5  1  0  0  0  0
 27 25  1  0  0  0  0
 27  6  1  0  0  0  0
 28 29  3  0  0  0  0
 29  1  1  0  0  0  0
 30 32  1  0  0  0  0
 30 28  1  0  0  0  0
 31 30  2  0  0  0  0
M  END
>  <MODEL>
3

>  <REMARK>
 VINA RESULT:      -9.3      4.316      9.006
  Name = 
  2 active torsions:
  status: ('A' for Active; 'I' for Inactive)
    1  A    between atoms: C_1  and  C_10
    2  A    between atoms: C_2  and  C_24
                            x       y       z     vdW  Elec       q    Type
                         _______ _______ _______ _____ _____    ______ ____

>  <TORSDO>
F 2

$$$$
=
 OpenBabel10262421413D

 32 37  0  0  0  0  0  0  0  0999 V2000
  191.6460  176.7440  138.2010 C   0  0  0  0  0  0  0  0  0  0  0  0
  188.3340  177.6330  141.9930 C   0  0  0  0  0  0  0  0  0  0  0  0
  192.0560  176.4320  144.0940 O   0  0  0  0  0  0  0  0  0  0  0  0
  190.7600  176.7530  146.4180 S   0  0  0  0  0  0  0  0  0  0  0  0
  185.9760  178.3350  142.4860 N   0  0  0  0  0  0  0  0  0  0  0  0
  184.9650  178.6170  143.3480 C   0  0  0  0  0  0  0  0  0  0  0  0
  189.4130  177.3740  139.7840 C   0  0  0  0  0  0  0  0  0  0  0  0
  190.7230  176.9110  141.7710 O   0  0  0  0  0  0  0  0  0  0  0  0
  182.9350  179.1790  145.0930 N   0  0  0  0  0  0  0  0  0  0  0  0
  191.7340  176.6720  139.5930 C   0  0  0  0  0  3  0  0  0  0  0  0
  190.9680  176.7450  144.6480 C   0  0  0  0  0  0  0  0  0  0  0  0
  189.6390  177.2160  142.5980 C   0  0  0  0  0  0  0  0  0  0  0  0
  189.7700  177.1340  143.9320 C   0  0  0  0  0  0  0  0  0  0  0  0
  187.4160  177.8380  144.3210 C   0  0  0  0  0  0  0  0  0  0  0  0
  182.7370  179.2830  143.7500 C   0  0  0  0  0  3  0  0  0  0  0  0
  190.4470  177.1280  137.5960 C   0  0  0  0  0  3  0  0  0  0  0  0
  190.6240  176.9850  140.3840 C   0  0  0  0  0  0  0  0  0  0  0  0
  183.7480  179.0020  142.8850 N   0  0  0  0  0  2  0  0  0  0  0  0
  189.3360  177.4420  138.3840 C   0  0  0  0  0  3  0  0  0  0  0  0
  189.0090  177.2920  146.2300 C   0  0  0  0  0  2  0  0  0  0  0  0
  188.6970  177.4320  144.8110 N   0  0  0  0  0  0  0  0  0  0  0  0
  186.4020  178.1200  145.1850 N   0  0  0  0  0  0  0  0  0  0  0  0
  188.2410  177.7030  140.6380 C   0  0  0  0  0  0  0  0  0  0  0  0
  186.9740  178.1120  139.9470 C   0  0  0  0  0  1  0  0  0  0  0  0
  184.1390  178.7970  145.5970 C   0  0  0  0  0  2  0  0  0  0  0  0
  187.2040  177.9470  142.9320 C   0  0  0  0  0  0  0  0  0  0  0  0
  185.1860  178.5040  144.7270 C   0  0  0  0  0  0  0  0  0  0  0  0
  193.7460  176.1500  136.7140 C   0  0  0  0  0  0  0  0  0  0  0  0
  192.7870  176.4210  137.3920 C   0  0  0  0  0  0  0  0  0  0  0  0
  194.8860  175.8260  135.9050 C   0  0  0  0  0  0  0  0  0  0  0  0
  195.8920  176.7650  135.7180 O   0  0  0  0  0  1  0  0  0  0  0  0
  194.9760  174.6920  135.3680 O   0  0  0  0  0  0  0  0  0  0  0  0
  1 10  1  0  0  0  0
  2 12  1  0  0  0  0
  2 26  1  0  0  0  0
  3 11  2  0  0  0  0
  5 26  1  0  0  0  0
  5  6  2  0  0  0  0
  6 27  1  0  0  0  0
  7 17  1  0  0  0  0
  7 23  1  0  0  0  0
  8 12  1  0  0  0  0
  9 25  1  0  0  0  0
 10 17  2  0  0  0  0
 11  4  1  0  0  0  0
 12 13  2  0  0  0  0
 13 11  1  0  0  0  0
 13 21  1  0  0  0  0
 14 21  1  0  0  0  0
 14 22  1  0  0  0  0
 15  9  2  0  0  0  0
 16  1  2  0  0  0  0
 16 19  1  0  0  0  0
 17  8  1  0  0  0  0
 18  6  1  0  0  0  0
 18 15  1  0  0  0  0
 19  7  2  0  0  0  0
 20  4  1  0  0  0  0
 21 20  1  0  0  0  0
 23  2  2  0  0  0  0
 24 23  1  0  0  0  0
 26 14  2  0  0  0  0
 27 22  2  0  0  0  0
 27 25  1  0  0  0  0
 28 29  3  0  0  0  0
 29  1  1  0  0  0  0
 30 28  1  0  0  0  0
 31 30  1  0  0  0  0
 32 30  2  0  0  0  0
M  END
>  <MODEL>
4

>  <REMARK>
 VINA RESULT:      -9.3      4.331      7.213
  Name = 
  2 active torsions:
  status: ('A' for Active; 'I' for Inactive)
    1  A    between atoms: C_1  and  C_10
    2  A    between atoms: C_2  and  C_24
                            x       y       z     vdW  Elec       q    Type
                         _______ _______ _______ _____ _____    ______ ____

>  <TORSDO>
F 2

$$$$
=
 OpenBabel10262421413D

 32 37  0  0  0  0  0  0  0  0999 V2000
  191.3350  176.9710  138.1890 C   0  0  0  0  0  0  0  0  0  0  0  0
  187.5850  177.8160  141.5590 C   0  0  0  0  0  0  0  0  0  0  0  0
  191.1260  176.9770  144.1010 O   0  0  0  0  0  0  0  0  0  0  0  0
  189.5700  177.3210  146.2540 S   0  0  0  0  0  0  0  0  0  0  0  0
  185.1480  178.3790  141.7620 N   0  0  0  0  0  0  0  0  0  0  0  0
  184.0340  178.6330  142.4970 C   0  0  0  0  0  0  0  0  0  0  0  0
  188.9100  177.5240  139.4920 C   0  0  0  0  0  0  0  0  0  0  0  0
  190.0250  177.2490  141.6270 O   0  0  0  0  0  0  0  0  0  0  0  0
  181.7970  179.1410  143.9860 N   0  0  0  0  0  0  0  0  0  0  0  0
  191.2770  176.9740  139.5840 C   0  0  0  0  0  3  0  0  0  0  0  0
  189.9680  177.2410  144.5190 C   0  0  0  0  0  0  0  0  0  0  0  0
  188.8400  177.5190  142.3180 C   0  0  0  0  0  0  0  0  0  0  0  0
  188.8320  177.5120  143.6610 C   0  0  0  0  0  0  0  0  0  0  0  0
  186.4100  178.0720  143.7620 C   0  0  0  0  0  0  0  0  0  0  0  0
  181.7390  179.1650  142.6270 C   0  0  0  0  0  3  0  0  0  0  0  0
  190.1870  177.2420  137.4410 C   0  0  0  0  0  3  0  0  0  0  0  0
  190.0710  177.2480  140.2350 C   0  0  0  0  0  0  0  0  0  0  0  0
  182.8520  178.9120  141.8890 N   0  0  0  0  0  2  0  0  0  0  0  0
  188.9800  177.5180  138.0900 C   0  0  0  0  0  3  0  0  0  0  0  0
  187.8190  177.7310  145.8550 C   0  0  0  0  0  2  0  0  0  0  0  0
  187.6540  177.7790  144.4050 N   0  0  0  0  0  0  0  0  0  0  0  0
  185.2930  178.3260  144.4990 N   0  0  0  0  0  0  0  0  0  0  0  0
  187.6340  177.8140  140.1990 C   0  0  0  0  0  0  0  0  0  0  0  0
  186.4260  178.1010  139.3580 C   0  0  0  0  0  1  0  0  0  0  0  0
  182.9610  178.8660  144.6340 C   0  0  0  0  0  2  0  0  0  0  0  0
  186.3430  178.0980  142.3550 C   0  0  0  0  0  0  0  0  0  0  0  0
  184.1120  178.6040  143.8960 C   0  0  0  0  0  0  0  0  0  0  0  0
  193.6160  176.4500  136.9630 C   0  0  0  0  0  0  0  0  0  0  0  0
  192.5760  176.6870  137.5220 C   0  0  0  0  0  0  0  0  0  0  0  0
  194.8550  176.1670  136.2970 C   0  0  0  0  0  0  0  0  0  0  0  0
  195.8270  175.4060  136.9330 O   0  0  0  0  0  1  0  0  0  0  0  0
  195.0610  176.6070  135.1370 O   0  0  0  0  0  0  0  0  0  0  0  0
  1 10  1  0  0  0  0
  2 12  1  0  0  0  0
  2 26  1  0  0  0  0
  3 11  2  0  0  0  0
  5 26  1  0  0  0  0
  5  6  2  0  0  0  0
  6 27  1  0  0  0  0
  7 23  1  0  0  0  0
  7 17  1  0  0  0  0
  8 12  1  0  0  0  0
  9 25  1  0  0  0  0
 10 17  2  0  0  0  0
 11  4  1  0  0  0  0
 12 13  2  0  0  0  0
 13 21  1  0  0  0  0
 13 11  1  0  0  0  0
 14 21  1  0  0  0  0
 14 22  1  0  0  0  0
 15  9  2  0  0  0  0
 16 19  1  0  0  0  0
 16  1  2  0  0  0  0
 17  8  1  0  0  0  0
 18  6  1  0  0  0  0
 18 15  1  0  0  0  0
 19  7  2  0  0  0  0
 20  4  1  0  0  0  0
 21 20  1  0  0  0  0
 23  2  2  0  0  0  0
 24 23  1  0  0  0  0
 26 14  2  0  0  0  0
 27 22  2  0  0  0  0
 27 25  1  0  0  0  0
 28 29  3  0  0  0  0
 29  1  1  0  0  0  0
 30 31  1  0  0  0  0
 30 28  1  0  0  0  0
 32 30  2  0  0  0  0
M  END
>  <MODEL>
5

>  <REMARK>
 VINA RESULT:      -8.3      4.018      6.755
  Name = 
  2 active torsions:
  status: ('A' for Active; 'I' for Inactive)
    1  A    between atoms: C_1  and  C_10
    2  A    between atoms: C_2  and  C_24
                            x       y       z     vdW  Elec       q    Type
                         _______ _______ _______ _____ _____    ______ ____

>  <TORSDO>
F 2

$$$$
=
 OpenBabel10262421413D

 32 37  0  0  0  0  0  0  0  0999 V2000
  188.1690  177.9460  143.7790 C   0  0  0  0  0  0  0  0  0  0  0  0
  190.2940  176.9840  139.2300 C   0  0  0  0  0  0  0  0  0  0  0  0
  186.0340  177.7760  138.2640 O   0  0  0  0  0  0  0  0  0  0  0  0
  186.6180  177.3610  135.6830 S   0  0  0  0  0  0  0  0  0  0  0  0
  192.4560  176.3990  138.0990 N   0  0  0  0  0  0  0  0  0  0  0  0
  193.1930  176.1190  136.9930 C   0  0  0  0  0  0  0  0  0  0  0  0
  189.8880  177.3410  141.6420 C   0  0  0  0  0  0  0  0  0  0  0  0
  188.0210  177.5630  140.1110 O   0  0  0  0  0  0  0  0  0  0  0  0
  194.6650  175.5550  134.7580 N   0  0  0  0  0  0  0  0  0  0  0  0
  187.6730  177.9030  142.4740 C   0  0  0  0  0  3  0  0  0  0  0  0
  186.9350  177.4910  137.4320 C   0  0  0  0  0  0  0  0  0  0  0  0
  188.8400  177.2670  139.0170 C   0  0  0  0  0  0  0  0  0  0  0  0
  188.3180  177.2380  137.7800 C   0  0  0  0  0  0  0  0  0  0  0  0
  190.5080  176.6580  136.7500 C   0  0  0  0  0  0  0  0  0  0  0  0
  195.2550  175.5700  135.9840 C   0  0  0  0  0  3  0  0  0  0  0  0
  189.5200  177.6870  144.0210 C   0  0  0  0  0  3  0  0  0  0  0  0
  188.5270  177.6020  141.4080 C   0  0  0  0  0  0  0  0  0  0  0  0
  194.5200  175.8500  137.0940 N   0  0  0  0  0  0  0  0  0  0  0  0
  190.3760  177.3870  142.9580 C   0  0  0  0  0  3  0  0  0  0  0  0
  188.3870  176.9520  135.3710 C   0  0  0  0  0  2  0  0  0  0  0  0
  189.1100  176.9420  136.6400 N   0  0  0  0  0  0  0  0  0  0  0  0
  191.2460  176.3770  135.6400 N   0  0  0  0  0  0  0  0  0  0  0  0
  190.7840  177.0230  140.4980 C   0  0  0  0  0  0  0  0  0  0  0  0
  192.2270  176.7530  140.8040 C   0  0  0  0  0  1  0  0  0  0  0  0
  193.3390  175.8200  134.6130 C   0  0  0  0  0  3  0  0  0  0  0  0
  191.1230  176.6710  138.0170 C   0  0  0  0  0  0  0  0  0  0  0  0
  192.5700  176.1080  135.7370 C   0  0  0  0  0  0  0  0  0  0  0  0
  186.5520  178.5140  145.7880 C   0  0  0  0  0  0  0  0  0  0  0  0
  187.2890  178.2540  144.8710 C   0  0  0  0  0  0  0  0  0  0  0  0
  185.6730  178.8220  146.8800 C   0  0  0  0  0  0  0  0  0  0  0  0
  186.0550  179.7530  147.8370 O   0  0  0  0  0  1  0  0  0  0  0  0
  184.5550  178.2510  146.9680 O   0  0  0  0  0  0  0  0  0  0  0  0
  1 16  1  0  0  0  0
  1 29  1  0  0  0  0
  2 23  2  0  0  0  0
  4 11  1  0  0  0  0
  6 18  1  0  0  0  0
  6  5  2  0  0  0  0
  7 19  1  0  0  0  0
  8 17  1  0  0  0  0
  9 15  1  0  0  0  0
 10  1  2  0  0  0  0
 11 13  1  0  0  0  0
 11  3  2  0  0  0  0
 12  2  1  0  0  0  0
 12  8  1  0  0  0  0
 13 12  2  0  0  0  0
 14 26  2  0  0  0  0
 15 18  2  0  0  0  0
 17  7  2  0  0  0  0
 17 10  1  0  0  0  0
 19 16  2  0  0  0  0
 20  4  1  0  0  0  0
 20 21  1  0  0  0  0
 21 14  1  0  0  0  0
 21 13  1  0  0  0  0
 22 27  2  0  0  0  0
 22 14  1  0  0  0  0
 23 24  1  0  0  0  0
 23  7  1  0  0  0  0
 25  9  2  0  0  0  0
 25 27  1  0  0  0  0
 26  5  1  0  0  0  0
 26  2  1  0  0  0  0
 27  6  1  0  0  0  0
 28 30  1  0  0  0  0
 29 28  3  0  0  0  0
 30 32  2  0  0  0  0
 30 31  1  0  0  0  0
M  END
>  <MODEL>
6

>  <REMARK>
 VINA RESULT:      -8.3      5.296      8.687
  Name = 
  2 active torsions:
  status: ('A' for Active; 'I' for Inactive)
    1  A    between atoms: C_1  and  C_10
    2  A    between atoms: C_2  and  C_24
                            x       y       z     vdW  Elec       q    Type
                         _______ _______ _______ _____ _____    ______ ____

>  <TORSDO>
F 2

$$$$
=
 OpenBabel10262421413D

 32 37  0  0  0  0  0  0  0  0999 V2000
  183.3030  178.7500  142.4870 C   0  0  0  0  0  0  0  0  0  0  0  0
  188.2870  177.7690  141.9040 C   0  0  0  0  0  0  0  0  0  0  0  0
  187.6940  177.6750  146.3030 O   0  0  0  0  0  0  0  0  0  0  0  0
  190.3040  177.1340  146.5690 S   0  0  0  0  0  0  0  0  0  0  0  0
  190.0980  177.4860  140.1910 N   0  0  0  0  0  0  0  0  0  0  0  0
  191.3860  177.2420  139.8390 C   0  0  0  0  0  0  0  0  0  0  0  0
  185.8970  178.2720  141.5210 C   0  0  0  0  0  0  0  0  0  0  0  0
  186.6690  178.0050  143.8040 O   0  0  0  0  0  0  0  0  0  0  0  0
  193.9850  176.7500  139.1410 N   0  0  0  0  0  0  0  0  0  0  0  0
  184.3450  178.4960  143.3810 C   0  0  0  0  0  3  0  0  0  0  0  0
  188.7860  177.4840  145.7050 C   0  0  0  0  0  0  0  0  0  0  0  0
  187.9750  177.7610  143.3690 C   0  0  0  0  0  0  0  0  0  0  0  0
  188.9450  177.5210  144.2650 C   0  0  0  0  0  0  0  0  0  0  0  0
  190.6730  177.2580  142.4940 C   0  0  0  0  0  0  0  0  0  0  0  0
  193.0480  176.9860  138.1830 C   0  0  0  0  0  3  0  0  0  0  0  0
  183.5500  178.7670  141.1120 C   0  0  0  0  0  3  0  0  0  0  0  0
  185.6370  178.2580  142.9030 C   0  0  0  0  0  0  0  0  0  0  0  0
  191.7570  177.2310  138.5320 N   0  0  0  0  0  2  0  0  0  0  0  0
  184.8410  178.5290  140.6310 C   0  0  0  0  0  3  0  0  0  0  0  0
  191.2140  177.0280  144.9710 C   0  0  0  0  0  2  0  0  0  0  0  0
  190.2850  177.2690  143.8710 N   0  0  0  0  0  0  0  0  0  0  0  0
  191.9650  177.0140  142.1410 N   0  0  0  0  0  0  0  0  0  0  0  0
  187.2760  178.0170  141.0270 C   0  0  0  0  0  0  0  0  0  0  0  0
  187.4970  178.0440  139.5450 C   0  0  0  0  0  1  0  0  0  0  0  0
  193.6550  176.7530  140.4600 C   0  0  0  0  0  2  0  0  0  0  0  0
  189.7070  177.5020  141.4970 C   0  0  0  0  0  0  0  0  0  0  0  0
  192.3390  177.0010  140.8380 C   0  0  0  0  0  0  0  0  0  0  0  0
  180.8650  179.2010  143.3950 C   0  0  0  0  0  0  0  0  0  0  0  0
  181.9770  178.9950  142.9810 C   0  0  0  0  0  0  0  0  0  0  0  0
  179.5400  179.4470  143.8890 C   0  0  0  0  0  0  0  0  0  0  0  0
  178.9310  178.5250  144.7300 O   0  0  0  0  0  1  0  0  0  0  0  0
  178.9310  180.4980  143.5600 O   0  0  0  0  0  0  0  0  0  0  0  0
  1 29  1  0  0  0  0
  1 10  1  0  0  0  0
  2 12  1  0  0  0  0
  5 26  1  0  0  0  0
  6  5  2  0  0  0  0
  6 27  1  0  0  0  0
  7 17  1  0  0  0  0
  9 25  1  0  0  0  0
 11  3  2  0  0  0  0
 11  4  1  0  0  0  0
 12  8  1  0  0  0  0
 12 13  2  0  0  0  0
 13 11  1  0  0  0  0
 14 21  1  0  0  0  0
 15 18  1  0  0  0  0
 15  9  2  0  0  0  0
 16  1  2  0  0  0  0
 17 10  2  0  0  0  0
 17  8  1  0  0  0  0
 18  6  1  0  0  0  0
 19 16  1  0  0  0  0
 19  7  2  0  0  0  0
 20  4  1  0  0  0  0
 21 13  1  0  0  0  0
 21 20  1  0  0  0  0
 22 14  1  0  0  0  0
 23  7  1  0  0  0  0
 23  2  2  0  0  0  0
 24 23  1  0  0  0  0
 25 27  1  0  0  0  0
 26  2  1  0  0  0  0
 26 14  2  0  0  0  0
 27 22  2  0  0  0  0
 28 30  1  0  0  0  0
 29 28  3  0  0  0  0
 30 31  1  0  0  0  0
 32 30  2  0  0  0  0
M  END
>  <MODEL>
7

>  <REMARK>
 VINA RESULT:      -8.2      4.544      9.167
  Name = 
  2 active torsions:
  status: ('A' for Active; 'I' for Inactive)
    1  A    between atoms: C_1  and  C_10
    2  A    between atoms: C_2  and  C_24
                            x       y       z     vdW  Elec       q    Type
                         _______ _______ _______ _____ _____    ______ ____

>  <TORSDO>
F 2

$$$$
=
 OpenBabel10262421413D

 32 37  0  0  0  0  0  0  0  0999 V2000
  189.6700  177.3950  139.1540 C   0  0  0  0  0  0  0  0  0  0  0  0
  185.2530  178.4370  141.5090 C   0  0  0  0  0  0  0  0  0  0  0  0
  188.1050  177.7780  144.8460 O   0  0  0  0  0  0  0  0  0  0  0  0
  186.0990  178.2520  146.5570 S   0  0  0  0  0  0  0  0  0  0  0  0
  182.8410  179.0010  141.1100 N   0  0  0  0  0  0  0  0  0  0  0  0
  181.5900  179.2960  141.5500 C   0  0  0  0  0  0  0  0  0  0  0  0
  187.0150  178.0190  139.8260 C   0  0  0  0  0  0  0  0  0  0  0  0
  187.6060  177.8860  142.1730 O   0  0  0  0  0  0  0  0  0  0  0  0
  179.0760  179.8870  142.4490 N   0  0  0  0  0  0  0  0  0  0  0  0
  189.2920  177.4870  140.4950 C   0  0  0  0  0  3  0  0  0  0  0  0
  186.8850  178.0630  144.9690 C   0  0  0  0  0  0  0  0  0  0  0  0
  186.2970  178.1950  142.5540 C   0  0  0  0  0  0  0  0  0  0  0  0
  185.9800  178.2730  143.8570 C   0  0  0  0  0  0  0  0  0  0  0  0
  183.6050  178.8270  143.3620 C   0  0  0  0  0  0  0  0  0  0  0  0
  179.3320  179.8240  141.1140 C   0  0  0  0  0  3  0  0  0  0  0  0
  188.7270  177.6130  138.1460 C   0  0  0  0  0  3  0  0  0  0  0  0
  187.9710  177.7970  140.8320 C   0  0  0  0  0  0  0  0  0  0  0  0
  180.5830  179.5290  140.6700 N   0  0  0  0  0  0  0  0  0  0  0  0
  187.4060  177.9240  138.4800 C   0  0  0  0  0  3  0  0  0  0  0  0
  184.4910  178.6270  145.7400 C   0  0  0  0  0  2  0  0  0  0  0  0
  184.6650  178.5820  144.2910 N   0  0  0  0  0  0  0  0  0  0  0  0
  182.3510  179.1230  143.8040 N   0  0  0  0  0  0  0  0  0  0  0  0
  185.6140  178.3480  140.2000 C   0  0  0  0  0  0  0  0  0  0  0  0
  184.6350  178.5760  139.0870 C   0  0  0  0  0  1  0  0  0  0  0  0
  180.0560  179.6600  143.3630 C   0  0  0  0  0  3  0  0  0  0  0  0
  183.8640  178.7630  141.9780 C   0  0  0  0  0  0  0  0  0  0  0  0
  181.3440  179.3560  142.9280 C   0  0  0  0  0  0  0  0  0  0  0  0
  192.1660  176.8080  138.5220 C   0  0  0  0  0  0  0  0  0  0  0  0
  191.0270  177.0760  138.8100 C   0  0  0  0  0  0  0  0  0  0  0  0
  193.5220  176.4890  138.1780 C   0  0  0  0  0  0  0  0  0  0  0  0
  193.9830  176.7150  136.8880 O   0  0  0  0  0  0  0  0  0  0  0  0
  194.2940  176.0050  139.0460 O   0  0  0  0  0  1  0  0  0  0  0  0
  1 10  1  0  0  0  0
  2 26  1  0  0  0  0
  2 12  1  0  0  0  0
  3 11  2  0  0  0  0
  5  6  2  0  0  0  0
  5 26  1  0  0  0  0
  6 27  1  0  0  0  0
  7 23  1  0  0  0  0
  7 17  1  0  0  0  0
  8 12  1  0  0  0  0
  9 25  2  0  0  0  0
 10 17  2  0  0  0  0
 11  4  1  0  0  0  0
 12 13  2  0  0  0  0
 13 21  1  0  0  0  0
 13 11  1  0  0  0  0
 14 22  1  0  0  0  0
 14 21  1  0  0  0  0
 15  9  1  0  0  0  0
 16 19  1  0  0  0  0
 16  1  2  0  0  0  0
 17  8  1  0  0  0  0
 18 15  2  0  0  0  0
 18  6  1  0  0  0  0
 19  7  2  0  0  0  0
 20  4  1  0  0  0  0
 21 20  1  0  0  0  0
 23  2  2  0  0  0  0
 24 23  1  0  0  0  0
 26 14  2  0  0  0  0
 27 25  1  0  0  0  0
 27 22  2  0  0  0  0
 28 29  3  0  0  0  0
 29  1  1  0  0  0  0
 30 28  1  0  0  0  0
 30 32  1  0  0  0  0
 31 30  2  0  0  0  0
M  END
>  <MODEL>
8

>  <REMARK>
 VINA RESULT:      -8.1      2.978      5.668
  Name = 
  2 active torsions:
  status: ('A' for Active; 'I' for Inactive)
    1  A    between atoms: C_1  and  C_10
    2  A    between atoms: C_2  and  C_24
                            x       y       z     vdW  Elec       q    Type
                         _______ _______ _______ _____ _____    ______ ____

>  <TORSDO>
F 2

$$$$
=
 OpenBabel10262421413D

 32 37  0  0  0  0  0  0  0  0999 V2000
  187.4560  177.9000  143.1570 C   0  0  0  0  0  0  0  0  0  0  0  0
  183.1800  178.8380  140.5160 C   0  0  0  0  0  0  0  0  0  0  0  0
  181.7930  178.5740  144.7250 O   0  0  0  0  0  0  0  0  0  0  0  0
  179.3020  179.0440  143.8560 S   0  0  0  0  0  0  0  0  0  0  0  0
  182.2840  179.2320  138.2060 N   0  0  0  0  0  0  0  0  0  0  0  0
  181.2670  179.4820  137.3420 C   0  0  0  0  0  0  0  0  0  0  0  0
  185.5210  178.4110  141.1860 C   0  0  0  0  0  0  0  0  0  0  0  0
  183.8190  178.4720  142.9120 O   0  0  0  0  0  0  0  0  0  0  0  0
  179.2090  179.9840  135.6110 N   0  0  0  0  0  0  0  0  0  0  0  0
  186.1170  178.0600  143.5180 C   0  0  0  0  0  3  0  0  0  0  0  0
  181.0620  178.7950  143.7230 C   0  0  0  0  0  0  0  0  0  0  0  0
  182.8220  178.7290  141.9660 C   0  0  0  0  0  0  0  0  0  0  0  0
  181.5470  178.8760  142.3610 C   0  0  0  0  0  0  0  0  0  0  0  0
  180.7520  179.2560  140.0330 C   0  0  0  0  0  0  0  0  0  0  0  0
  180.4810  179.8460  135.1470 C   0  0  0  0  0  3  0  0  0  0  0  0
  187.8340  177.9940  141.8150 C   0  0  0  0  0  3  0  0  0  0  0  0
  185.1520  178.3140  142.5390 C   0  0  0  0  0  0  0  0  0  0  0  0
  181.5020  179.5960  136.0090 N   0  0  0  0  0  0  0  0  0  0  0  0
  186.8710  178.2490  140.8340 C   0  0  0  0  0  3  0  0  0  0  0  0
  179.1750  179.2680  142.0320 C   0  0  0  0  0  2  0  0  0  0  0  0
  180.5020  179.1360  141.4370 N   0  0  0  0  0  0  0  0  0  0  0  0
  179.7320  179.5060  139.1670 N   0  0  0  0  0  0  0  0  0  0  0  0
  184.4830  178.6830  140.1570 C   0  0  0  0  0  0  0  0  0  0  0  0
  184.9320  178.7760  138.7290 C   0  0  0  0  0  1  0  0  0  0  0  0
  178.9310  179.8770  136.9380 C   0  0  0  0  0  3  0  0  0  0  0  0
  182.0670  179.1130  139.5470 C   0  0  0  0  0  0  0  0  0  0  0  0
  179.9630  179.6210  137.8370 C   0  0  0  0  0  0  0  0  0  0  0  0
  189.2760  177.4170  145.0090 C   0  0  0  0  0  0  0  0  0  0  0  0
  188.4460  177.6380  144.1640 C   0  0  0  0  0  0  0  0  0  0  0  0
  190.2650  177.1550  146.0150 C   0  0  0  0  0  0  0  0  0  0  0  0
  191.6130  177.3140  145.7220 O   0  0  0  0  0  0  0  0  0  0  0  0
  189.9110  176.7830  147.1640 O   0  0  0  0  0  1  0  0  0  0  0  0
  1 10  1  0  0  0  0
  1 29  1  0  0  0  0
  2 12  1  0  0  0  0
  5 26  1  0  0  0  0
  6 27  1  0  0  0  0
  6  5  2  0  0  0  0
  7 17  1  0  0  0  0
  9 25  2  0  0  0  0
 11  4  1  0  0  0  0
 11  3  2  0  0  0  0
 12 13  2  0  0  0  0
 12  8  1  0  0  0  0
 13 11  1  0  0  0  0
 14 21  1  0  0  0  0
 15  9  1  0  0  0  0
 15 18  2  0  0  0  0
 16  1  2  0  0  0  0
 17  8  1  0  0  0  0
 17 10  2  0  0  0  0
 18  6  1  0  0  0  0
 19  7  2  0  0  0  0
 19 16  1  0  0  0  0
 20  4  1  0  0  0  0
 21 20  1  0  0  0  0
 21 13  1  0  0  0  0
 22 14  1  0  0  0  0
 23  2  2  0  0  0  0
 23  7  1  0  0  0  0
 24 23  1  0  0  0  0
 25 27  1  0  0  0  0
 26 14  2  0  0  0  0
 26  2  1  0  0  0  0
 27 22  2  0  0  0  0
 28 30  1  0  0  0  0
 29 28  3  0  0  0  0
 30 32  1  0  0  0  0
 31 30  2  0  0  0  0
M  END
>  <MODEL>
9

>  <REMARK>
 VINA RESULT:      -7.7      3.041      5.050
  Name = 
  2 active torsions:
  status: ('A' for Active; 'I' for Inactive)
    1  A    between atoms: C_1  and  C_10
    2  A    between atoms: C_2  and  C_24
                            x       y       z     vdW  Elec       q    Type
                         _______ _______ _______ _____ _____    ______ ____

>  <TORSDO>
F 2

$$$$
