=
 OpenBabel10262420583D

 28 30  0  0  1  0  0  0  0  0999 V2000
  192.0080  173.8940  136.1830 N   0  0  0  0  0  2  0  0  0  0  0  0
  189.4600  173.4010  137.2410 C   0  0  0  0  0  1  0  0  0  0  0  0
  189.6640  174.6610  136.4000 C   0  0  1  0  0  0  0  0  0  0  0  0
  195.1230  175.6160  137.0800 O   0  0  0  0  0  0  0  0  0  0  0  0
  190.0970  173.0870  134.5980 O   0  0  0  0  0  1  0  0  0  0  0  0
  188.8330  176.2730  138.2180 C   0  0  0  0  0  2  0  0  0  0  0  0
  190.1300  176.9640  138.6250 C   0  0  2  0  0  3  0  0  0  0  0  0
  188.7820  175.8830  136.7380 C   0  0  1  0  0  3  0  0  0  0  0  0
  192.9850  176.5900  137.3460 C   0  0  0  0  0  2  0  0  0  0  0  0
  191.2090  175.9360  138.9830 C   0  0  0  0  0  2  0  0  0  0  0  0
  194.1350  173.1250  136.6650 O   0  0  0  0  0  0  0  0  0  0  0  0
  192.6000  176.5230  138.8140 C   0  0  0  0  0  2  0  0  0  0  0  0
  193.8770  175.4460  136.9950 C   0  0  0  0  0  0  0  0  0  0  0  0
  193.3560  174.1140  136.6170 C   0  0  0  0  0  0  0  0  0  0  0  0
  191.0590  174.9500  135.8480 C   0  0  2  0  0  3  0  0  0  0  0  0
  189.9440  174.4450  134.9140 C   0  0  2  0  0  3  0  0  0  0  0  0
  187.7260  178.4790  140.7490 C   0  0  0  0  0  3  0  0  0  0  0  0
  189.6410  177.2880  141.0270 N   0  0  0  0  0  0  0  0  0  0  0  0
  188.3800  177.6600  141.5510 C   0  0  0  0  0  0  0  0  0  0  0  0
  189.8430  177.9630  139.7570 C   0  0  2  0  0  3  0  0  0  0  0  0
  188.5530  178.7700  139.5350 C   0  0  0  0  0  2  0  0  0  0  0  0
  187.9910  177.8430  143.8910 O   0  0  0  0  0  0  0  0  0  0  0  0
  187.8590  177.1720  142.8350 C   0  0  0  0  0  3  0  0  0  0  0  0
  190.6820  176.5790  141.7640 C   0  0  0  0  0  2  0  0  0  0  0  0
  191.6870  177.5500  142.3550 C   0  0  0  0  0  2  0  0  0  0  0  0
  191.4810  177.6910  143.8480 C   0  0  0  0  0  1  0  0  0  0  0  0
  187.7480  178.0250  135.9690 C   0  0  0  0  0  1  0  0  0  0  0  0
  188.9470  177.1090  135.8370 C   0  0  0  0  0  2  0  0  0  0  0  0
  1 14  1  0  0  0  0
  3  8  1  0  0  0  0
  3  2  1  1  0  0  0
  7  6  1  1  0  0  0
  7 10  1  0  0  0  0
  7 20  1  0  0  0  0
  8 28  1  6  0  0  0
  8  6  1  0  0  0  0
  9 12  1  0  0  0  0
 12 10  1  0  0  0  0
 13  4  2  0  0  0  0
 13  9  1  0  0  0  0
 14 11  2  0  0  0  0
 14 13  1  0  0  0  0
 15  1  1  1  0  0  0
 15  3  1  0  0  0  0
 16  5  1  1  0  0  0
 16 15  1  0  0  0  0
 16  3  1  0  0  0  0
 17 19  2  0  0  0  0
 18 19  1  0  0  0  0
 18 24  1  0  0  0  0
 19 23  1  0  0  0  0
 20 21  1  6  0  0  0
 20 18  1  0  0  0  0
 21 17  1  0  0  0  0
 23 22  2  0  0  0  0
 24 25  1  0  0  0  0
 25 26  1  0  0  0  0
 28 27  1  0  0  0  0
M  END
>  <MODEL>
1

>  <REMARK>
 VINA RESULT:      -5.5      0.000      0.000
  Name = 
  5 active torsions:
  status: ('A' for Active; 'I' for Inactive)
    1  A    between atoms: N_9  and  C_18
    2  A    between atoms: C_10  and  C_13
    3  A    between atoms: C_11  and  C_22
    4  A    between atoms: C_12  and  C_23
    5  A    between atoms: C_14  and  C_18
                            x       y       z     vdW  Elec       q    Type
                         _______ _______ _______ _____ _____    ______ ____

>  <TORSDO>
F 5

$$$$
=
 OpenBabel10262420583D

 28 30  0  0  1  0  0  0  0  0999 V2000
  182.6590  177.6820  137.8920 N   0  0  0  0  0  2  0  0  0  0  0  0
  182.5320  176.3870  135.4100 C   0  0  0  0  0  1  0  0  0  0  0  0
  183.1230  175.6240  136.5960 C   0  0  1  0  0  0  0  0  0  0  0  0
  184.9540  179.7890  139.8310 O   0  0  0  0  0  0  0  0  0  0  0  0
  180.8800  175.8090  137.5140 O   0  0  0  0  0  1  0  0  0  0  0  0
  185.3590  175.1190  135.4360 C   0  0  0  0  0  2  0  0  0  0  0  0
  186.3110  176.0230  136.2110 C   0  0  2  0  0  3  0  0  0  0  0  0
  184.2080  174.5690  136.2830 C   0  0  1  0  0  3  0  0  0  0  0  0
  185.6410  177.8270  138.7060 C   0  0  0  0  0  2  0  0  0  0  0  0
  185.7980  177.4670  136.2340 C   0  0  0  0  0  2  0  0  0  0  0  0
  182.5560  179.8900  138.5700 O   0  0  0  0  0  0  0  0  0  0  0  0
  186.3560  178.2260  137.4270 C   0  0  0  0  0  2  0  0  0  0  0  0
  184.6150  178.8510  139.0630 C   0  0  0  0  0  0  0  0  0  0  0  0
  183.2460  178.8380  138.5010 C   0  0  0  0  0  0  0  0  0  0  0  0
  183.2240  176.3370  137.9430 C   0  0  2  0  0  3  0  0  0  0  0  0
  182.1520  175.2560  137.7150 C   0  0  2  0  0  3  0  0  0  0  0  0
  189.6620  177.1880  136.1840 C   0  0  0  0  0  3  0  0  0  0  0  0
  188.6190  175.2010  136.5470 N   0  0  0  0  0  0  0  0  0  0  0  0
  189.7400  176.0270  136.8070 C   0  0  0  0  0  0  0  0  0  0  0  0
  187.7280  175.8900  135.6290 C   0  0  2  0  0  3  0  0  0  0  0  0
  188.4040  177.2480  135.3750 C   0  0  0  0  0  2  0  0  0  0  0  0
  190.7310  175.6570  138.9380 O   0  0  0  0  0  0  0  0  0  0  0  0
  190.8490  175.6340  137.6850 C   0  0  0  0  0  3  0  0  0  0  0  0
  188.5120  173.7910  136.9060 C   0  0  0  0  0  2  0  0  0  0  0  0
  188.6830  172.9050  135.6860 C   0  0  0  0  0  2  0  0  0  0  0  0
  187.5490  171.9080  135.5830 C   0  0  0  0  0  1  0  0  0  0  0  0
  184.3650  172.3020  137.3230 C   0  0  0  0  0  1  0  0  0  0  0  0
  184.7320  173.7640  137.4740 C   0  0  0  0  0  2  0  0  0  0  0  0
  1 14  1  0  0  0  0
  3  2  1  6  0  0  0
  3 16  1  0  0  0  0
  3 15  1  0  0  0  0
  6  8  1  0  0  0  0
  7  6  1  6  0  0  0
  7 10  1  0  0  0  0
  8  3  1  0  0  0  0
  8 28  1  1  0  0  0
  9 13  1  0  0  0  0
 10 12  1  0  0  0  0
 12  9  1  0  0  0  0
 13  4  2  0  0  0  0
 14 11  2  0  0  0  0
 14 13  1  0  0  0  0
 15  1  1  6  0  0  0
 16  5  1  6  0  0  0
 16 15  1  0  0  0  0
 17 19  2  0  0  0  0
 18 19  1  0  0  0  0
 18 24  1  0  0  0  0
 19 23  1  0  0  0  0
 20 21  1  1  0  0  0
 20  7  1  0  0  0  0
 20 18  1  0  0  0  0
 21 17  1  0  0  0  0
 23 22  2  0  0  0  0
 25 24  1  0  0  0  0
 26 25  1  0  0  0  0
 27 28  1  0  0  0  0
M  END
>  <MODEL>
2

>  <REMARK>
 VINA RESULT:      -5.1      4.531      7.789
  Name = 
  5 active torsions:
  status: ('A' for Active; 'I' for Inactive)
    1  A    between atoms: N_9  and  C_18
    2  A    between atoms: C_10  and  C_13
    3  A    between atoms: C_11  and  C_22
    4  A    between atoms: C_12  and  C_23
    5  A    between atoms: C_14  and  C_18
                            x       y       z     vdW  Elec       q    Type
                         _______ _______ _______ _____ _____    ______ ____

>  <TORSDO>
F 5

$$$$
=
 OpenBabel10262420583D

 28 30  0  0  1  0  0  0  0  0999 V2000
  188.0310  177.0570  137.9330 N   0  0  0  0  0  2  0  0  0  0  0  0
  187.8100  176.8670  135.1460 C   0  0  0  0  0  1  0  0  0  0  0  0
  188.0380  175.5820  135.9440 C   0  0  1  0  0  0  0  0  0  0  0  0
  190.6030  177.5190  140.5090 O   0  0  0  0  0  0  0  0  0  0  0  0
  185.8510  176.0740  136.8850 O   0  0  0  0  0  1  0  0  0  0  0  0
  190.1540  174.9000  134.6590 C   0  0  0  0  0  2  0  0  0  0  0  0
  191.2330  175.1290  135.7110 C   0  0  2  0  0  3  0  0  0  0  0  0
  188.8130  174.4460  135.2420 C   0  0  1  0  0  3  0  0  0  0  0  0
  190.8320  175.9990  138.7130 C   0  0  0  0  0  2  0  0  0  0  0  0
  191.1420  176.5450  136.2900 C   0  0  0  0  0  2  0  0  0  0  0  0
  188.4740  178.7840  139.4050 O   0  0  0  0  0  0  0  0  0  0  0  0
  191.7610  176.6100  137.6760 C   0  0  0  0  0  2  0  0  0  0  0  0
  190.0990  177.0750  139.4430 C   0  0  0  0  0  0  0  0  0  0  0  0
  188.8480  177.6780  138.9320 C   0  0  0  0  0  0  0  0  0  0  0  0
  188.1900  175.6860  137.4600 C   0  0  2  0  0  3  0  0  0  0  0  0
  186.8910  175.1350  136.8470 C   0  0  2  0  0  3  0  0  0  0  0  0
  194.6950  175.8930  135.5620 C   0  0  0  0  0  3  0  0  0  0  0  0
  193.4390  174.0610  136.0420 N   0  0  0  0  0  0  0  0  0  0  0  0
  194.6530  174.7620  136.2390 C   0  0  0  0  0  0  0  0  0  0  0  0
  192.6100  174.8050  135.1090 C   0  0  2  0  0  3  0  0  0  0  0  0
  193.4320  176.0610  134.7750 C   0  0  0  0  0  2  0  0  0  0  0  0
  196.0080  174.8730  138.1920 O   0  0  0  0  0  0  0  0  0  0  0  0
  195.7320  174.2840  137.1140 C   0  0  0  0  0  3  0  0  0  0  0  0
  193.1790  172.6910  136.4720 C   0  0  0  0  0  2  0  0  0  0  0  0
  193.4000  171.7130  135.3340 C   0  0  0  0  0  2  0  0  0  0  0  0
  192.0790  171.2110  134.7930 C   0  0  0  0  0  1  0  0  0  0  0  0
  188.3140  171.9970  135.2810 C   0  0  0  0  0  1  0  0  0  0  0  0
  188.9650  173.1430  136.0290 C   0  0  0  0  0  2  0  0  0  0  0  0
  1 14  1  0  0  0  0
  3  2  1  6  0  0  0
  3 16  1  0  0  0  0
  3 15  1  0  0  0  0
  6  8  1  0  0  0  0
  7  6  1  6  0  0  0
  7 10  1  0  0  0  0
  8  3  1  0  0  0  0
  8 28  1  1  0  0  0
  9 13  1  0  0  0  0
 10 12  1  0  0  0  0
 12  9  1  0  0  0  0
 13  4  2  0  0  0  0
 14 11  2  0  0  0  0
 14 13  1  0  0  0  0
 15  1  1  6  0  0  0
 16  5  1  6  0  0  0
 16 15  1  0  0  0  0
 17 19  2  0  0  0  0
 18 19  1  0  0  0  0
 18 24  1  0  0  0  0
 19 23  1  0  0  0  0
 20 21  1  1  0  0  0
 20  7  1  0  0  0  0
 20 18  1  0  0  0  0
 21 17  1  0  0  0  0
 23 22  2  0  0  0  0
 25 24  1  0  0  0  0
 26 25  1  0  0  0  0
 27 28  1  0  0  0  0
M  END
>  <MODEL>
3

>  <REMARK>
 VINA RESULT:      -5.1      2.429      6.409
  Name = 
  5 active torsions:
  status: ('A' for Active; 'I' for Inactive)
    1  A    between atoms: N_9  and  C_18
    2  A    between atoms: C_10  and  C_13
    3  A    between atoms: C_11  and  C_22
    4  A    between atoms: C_12  and  C_23
    5  A    between atoms: C_14  and  C_18
                            x       y       z     vdW  Elec       q    Type
                         _______ _______ _______ _____ _____    ______ ____

>  <TORSDO>
F 5

$$$$
=
 OpenBabel10262420583D

 28 30  0  0  1  0  0  0  0  0999 V2000
  185.1210  174.9450  135.5870 N   0  0  0  0  0  2  0  0  0  0  0  0
  186.1220  177.4770  134.9220 C   0  0  0  0  0  1  0  0  0  0  0  0
  186.5510  176.8540  136.2510 C   0  0  1  0  0  0  0  0  0  0  0  0
  182.2730  173.4370  137.3420 O   0  0  0  0  0  0  0  0  0  0  0  0
  187.6110  175.1820  134.8390 O   0  0  0  0  0  1  0  0  0  0  0  0
  185.7520  178.8280  137.6860 C   0  0  0  0  0  2  0  0  0  0  0  0
  184.5430  178.2210  138.3880 C   0  0  2  0  0  3  0  0  0  0  0  0
  186.8730  177.8220  137.4110 C   0  0  1  0  0  3  0  0  0  0  0  0
  183.5180  175.2460  138.2170 C   0  0  0  0  0  2  0  0  0  0  0  0
  183.5750  177.6020  137.3740 C   0  0  0  0  0  2  0  0  0  0  0  0
  183.3340  173.6720  134.8580 O   0  0  0  0  0  0  0  0  0  0  0  0
  182.7210  176.5240  138.0210 C   0  0  0  0  0  2  0  0  0  0  0  0
  183.1970  174.2680  137.1350 C   0  0  0  0  0  0  0  0  0  0  0  0
  183.8730  174.2820  135.8190 C   0  0  0  0  0  0  0  0  0  0  0  0
  185.9830  175.4880  136.6310 C   0  0  2  0  0  3  0  0  0  0  0  0
  187.4430  175.6170  136.1610 C   0  0  2  0  0  3  0  0  0  0  0  0
  181.5490  179.7200  139.5610 C   0  0  0  0  0  3  0  0  0  0  0  0
  183.3470  178.6950  140.5000 N   0  0  0  0  0  0  0  0  0  0  0  0
  181.9710  179.0160  140.5940 C   0  0  0  0  0  0  0  0  0  0  0  0
  183.8870  179.2820  139.2860 C   0  0  2  0  0  3  0  0  0  0  0  0
  182.6860  179.9750  138.6210 C   0  0  0  0  0  2  0  0  0  0  0  0
  180.9440  179.3260  142.7170 O   0  0  0  0  0  0  0  0  0  0  0  0
  181.1140  178.5920  141.7090 C   0  0  0  0  0  3  0  0  0  0  0  0
  184.1520  178.1210  141.5730 C   0  0  0  0  0  2  0  0  0  0  0  0
  185.4340  178.9080  141.7710 C   0  0  0  0  0  2  0  0  0  0  0  0
  186.4300  178.1150  142.5900 C   0  0  0  0  0  1  0  0  0  0  0  0
  188.4310  178.0560  139.3520 C   0  0  0  0  0  1  0  0  0  0  0  0
  187.3730  177.1820  138.7080 C   0  0  0  0  0  2  0  0  0  0  0  0
  1 14  1  0  0  0  0
  3  2  1  6  0  0  0
  3 15  1  0  0  0  0
  3  8  1  0  0  0  0
  6  7  1  0  0  0  0
  7 10  1  6  0  0  0
  7 20  1  0  0  0  0
  8  6  1  0  0  0  0
  8 28  1  1  0  0  0
 10 12  1  0  0  0  0
 11 14  2  0  0  0  0
 12  9  1  0  0  0  0
 13  4  2  0  0  0  0
 13  9  1  0  0  0  0
 14 13  1  0  0  0  0
 15  1  1  6  0  0  0
 16  5  1  6  0  0  0
 16  3  1  0  0  0  0
 16 15  1  0  0  0  0
 17 19  2  0  0  0  0
 18 19  1  0  0  0  0
 18 24  1  0  0  0  0
 19 23  1  0  0  0  0
 20 21  1  6  0  0  0
 20 18  1  0  0  0  0
 21 17  1  0  0  0  0
 23 22  2  0  0  0  0
 24 25  1  0  0  0  0
 25 26  1  0  0  0  0
 28 27  1  0  0  0  0
M  END
>  <MODEL>
4

>  <REMARK>
 VINA RESULT:      -5.0      4.821      7.045
  Name = 
  5 active torsions:
  status: ('A' for Active; 'I' for Inactive)
    1  A    between atoms: N_9  and  C_18
    2  A    between atoms: C_10  and  C_13
    3  A    between atoms: C_11  and  C_22
    4  A    between atoms: C_12  and  C_23
    5  A    between atoms: C_14  and  C_18
                            x       y       z     vdW  Elec       q    Type
                         _______ _______ _______ _____ _____    ______ ____

>  <TORSDO>
F 5

$$$$
=
 OpenBabel10262420583D

 28 30  0  0  1  0  0  0  0  0999 V2000
  181.0350  175.1670  136.6210 N   0  0  0  0  0  2  0  0  0  0  0  0
  181.4890  177.7430  135.6130 C   0  0  0  0  0  1  0  0  0  0  0  0
  182.5250  177.1440  136.5660 C   0  0  1  0  0  0  0  0  0  0  0  0
  179.4320  173.5280  139.4870 O   0  0  0  0  0  0  0  0  0  0  0  0
  182.8580  175.5220  134.7860 O   0  0  0  0  0  1  0  0  0  0  0  0
  182.4170  179.0820  138.2480 C   0  0  0  0  0  2  0  0  0  0  0  0
  181.7150  178.4180  139.4280 C   0  0  2  0  0  3  0  0  0  0  0  0
  183.3160  178.1300  137.4540 C   0  0  1  0  0  3  0  0  0  0  0  0
  180.8640  175.3970  139.7020 C   0  0  0  0  0  2  0  0  0  0  0  0
  180.4090  177.7510  138.9830 C   0  0  0  0  0  2  0  0  0  0  0  0
  179.1740  173.8070  136.8020 O   0  0  0  0  0  0  0  0  0  0  0  0
  180.0140  176.6340  139.9350 C   0  0  0  0  0  2  0  0  0  0  0  0
  180.1100  174.4020  138.8830 C   0  0  0  0  0  0  0  0  0  0  0  0
  180.0780  174.4450  137.4050 C   0  0  0  0  0  0  0  0  0  0  0  0
  182.2650  175.7540  137.1420 C   0  0  2  0  0  3  0  0  0  0  0  0
  183.3190  175.9520  136.0380 C   0  0  2  0  0  3  0  0  0  0  0  0
  179.5820  179.7640  141.9230 C   0  0  0  0  0  3  0  0  0  0  0  0
  181.6580  178.8420  141.8640 N   0  0  0  0  0  0  0  0  0  0  0  0
  180.4820  179.0890  142.6120 C   0  0  0  0  0  0  0  0  0  0  0  0
  181.5190  179.4490  140.5510 C   0  0  2  0  0  3  0  0  0  0  0  0
  180.1130  180.0730  140.5580 C   0  0  0  0  0  2  0  0  0  0  0  0
  179.6810  177.5540  144.2440 O   0  0  0  0  0  0  0  0  0  0  0  0
  180.2880  178.6280  143.9930 C   0  0  0  0  0  3  0  0  0  0  0  0
  182.9060  178.3180  142.4070 C   0  0  0  0  0  2  0  0  0  0  0  0
  184.1040  179.0030  141.7750 C   0  0  0  0  0  2  0  0  0  0  0  0
  185.3960  178.4510  142.3370 C   0  0  0  0  0  1  0  0  0  0  0  0
  185.7300  178.2020  138.0980 C   0  0  0  0  0  1  0  0  0  0  0  0
  184.4000  177.5190  138.3440 C   0  0  0  0  0  2  0  0  0  0  0  0
  1 14  1  0  0  0  0
  3  2  1  6  0  0  0
  3 15  1  0  0  0  0
  3  8  1  0  0  0  0
  7  6  1  6  0  0  0
  7 20  1  0  0  0  0
  8  6  1  0  0  0  0
  8 28  1  1  0  0  0
  9 12  1  0  0  0  0
 10  7  1  0  0  0  0
 10 12  1  0  0  0  0
 11 14  2  0  0  0  0
 13  4  2  0  0  0  0
 13  9  1  0  0  0  0
 14 13  1  0  0  0  0
 15  1  1  6  0  0  0
 16  5  1  6  0  0  0
 16  3  1  0  0  0  0
 16 15  1  0  0  0  0
 17 19  2  0  0  0  0
 18 24  1  0  0  0  0
 18 19  1  0  0  0  0
 19 23  1  0  0  0  0
 20 21  1  1  0  0  0
 20 18  1  0  0  0  0
 21 17  1  0  0  0  0
 23 22  2  0  0  0  0
 25 26  1  0  0  0  0
 25 24  1  0  0  0  0
 27 28  1  0  0  0  0
M  END
>  <MODEL>
5

>  <REMARK>
 VINA RESULT:      -5.0      7.176      9.582
  Name = 
  5 active torsions:
  status: ('A' for Active; 'I' for Inactive)
    1  A    between atoms: N_9  and  C_18
    2  A    between atoms: C_10  and  C_13
    3  A    between atoms: C_11  and  C_22
    4  A    between atoms: C_12  and  C_23
    5  A    between atoms: C_14  and  C_18
                            x       y       z     vdW  Elec       q    Type
                         _______ _______ _______ _____ _____    ______ ____

>  <TORSDO>
F 5

$$$$
=
 OpenBabel10262420583D

 28 30  0  0  1  0  0  0  0  0999 V2000
  184.9540  175.0380  136.4250 N   0  0  0  0  0  2  0  0  0  0  0  0
  182.3840  174.7830  137.5130 C   0  0  0  0  0  1  0  0  0  0  0  0
  182.6170  175.8540  136.4460 C   0  0  1  0  0  0  0  0  0  0  0  0
  188.0750  176.8740  137.0250 O   0  0  0  0  0  0  0  0  0  0  0  0
  183.0590  173.9540  134.9940 O   0  0  0  0  0  1  0  0  0  0  0  0
  181.7770  177.7970  137.9000 C   0  0  0  0  0  2  0  0  0  0  0  0
  183.0750  178.5420  138.1870 C   0  0  2  0  0  3  0  0  0  0  0  0
  181.7440  177.1260  136.5240 C   0  0  1  0  0  3  0  0  0  0  0  0
  185.9460  177.9010  137.0570 C   0  0  0  0  0  2  0  0  0  0  0  0
  184.1360  177.5940  138.7580 C   0  0  0  0  0  2  0  0  0  0  0  0
  187.0640  174.3590  137.0860 O   0  0  0  0  0  0  0  0  0  0  0  0
  185.5370  178.1240  138.5030 C   0  0  0  0  0  2  0  0  0  0  0  0
  186.8300  176.7020  136.9520 C   0  0  0  0  0  0  0  0  0  0  0  0
  186.2980  175.3260  136.8320 C   0  0  0  0  0  0  0  0  0  0  0  0
  184.0230  176.0170  135.8730 C   0  0  2  0  0  3  0  0  0  0  0  0
  182.9180  175.3490  135.0370 C   0  0  2  0  0  3  0  0  0  0  0  0
  180.8270  181.1270  139.1090 C   0  0  0  0  0  3  0  0  0  0  0  0
  181.8590  179.3980  140.1630 N   0  0  0  0  0  0  0  0  0  0  0  0
  180.7450  180.2700  140.1090 C   0  0  0  0  0  0  0  0  0  0  0  0
  182.7830  179.7460  139.0970 C   0  0  2  0  0  3  0  0  0  0  0  0
  182.1030  180.9100  138.3560 C   0  0  0  0  0  2  0  0  0  0  0  0
  179.6270  180.8770  142.1200 O   0  0  0  0  0  0  0  0  0  0  0  0
  179.6210  180.2090  141.0520 C   0  0  0  0  0  3  0  0  0  0  0  0
  182.1670  178.4950  141.2660 C   0  0  0  0  0  2  0  0  0  0  0  0
  183.3480  179.0040  142.0710 C   0  0  0  0  0  2  0  0  0  0  0  0
  183.0300  179.0010  143.5510 C   0  0  0  0  0  1  0  0  0  0  0  0
  180.7510  179.0880  135.3360 C   0  0  0  0  0  1  0  0  0  0  0  0
  181.9390  178.1500  135.4040 C   0  0  0  0  0  2  0  0  0  0  0  0
  1 14  1  0  0  0  0
  3  8  1  0  0  0  0
  3  2  1  1  0  0  0
  7  6  1  1  0  0  0
  7 10  1  0  0  0  0
  7 20  1  0  0  0  0
  8 28  1  6  0  0  0
  8  6  1  0  0  0  0
  9 12  1  0  0  0  0
 12 10  1  0  0  0  0
 13  4  2  0  0  0  0
 13  9  1  0  0  0  0
 14 13  1  0  0  0  0
 14 11  2  0  0  0  0
 15  1  1  1  0  0  0
 15  3  1  0  0  0  0
 16  5  1  1  0  0  0
 16 15  1  0  0  0  0
 16  3  1  0  0  0  0
 17 19  2  0  0  0  0
 18 24  1  0  0  0  0
 19 18  1  0  0  0  0
 19 23  1  0  0  0  0
 20 21  1  6  0  0  0
 20 18  1  0  0  0  0
 21 17  1  0  0  0  0
 23 22  2  0  0  0  0
 24 25  1  0  0  0  0
 25 26  1  0  0  0  0
 27 28  1  0  0  0  0
M  END
>  <MODEL>
6

>  <REMARK>
 VINA RESULT:      -4.8      5.887      7.559
  Name = 
  5 active torsions:
  status: ('A' for Active; 'I' for Inactive)
    1  A    between atoms: N_9  and  C_18
    2  A    between atoms: C_10  and  C_13
    3  A    between atoms: C_11  and  C_22
    4  A    between atoms: C_12  and  C_23
    5  A    between atoms: C_14  and  C_18
                            x       y       z     vdW  Elec       q    Type
                         _______ _______ _______ _____ _____    ______ ____

>  <TORSDO>
F 5

$$$$
=
 OpenBabel10262420583D

 28 30  0  0  1  0  0  0  0  0999 V2000
  188.0970  178.2320  139.4630 N   0  0  0  0  0  2  0  0  0  0  0  0
  188.4420  179.1640  136.8420 C   0  0  0  0  0  1  0  0  0  0  0  0
  188.0720  177.6940  137.0470 C   0  0  1  0  0  0  0  0  0  0  0  0
  190.0560  176.7210  142.1730 O   0  0  0  0  0  0  0  0  0  0  0  0
  186.0030  178.5970  137.9480 O   0  0  0  0  0  1  0  0  0  0  0  0
  190.0910  176.7800  135.7480 C   0  0  0  0  0  2  0  0  0  0  0  0
  190.9300  176.1860  136.8740 C   0  0  2  0  0  3  0  0  0  0  0  0
  188.5820  176.6870  135.9910 C   0  0  1  0  0  3  0  0  0  0  0  0
  190.1800  175.9910  139.9280 C   0  0  0  0  0  2  0  0  0  0  0  0
  191.1670  177.2170  137.9830 C   0  0  0  0  0  2  0  0  0  0  0  0
  188.7310  179.0030  141.5490 O   0  0  0  0  0  0  0  0  0  0  0  0
  191.4560  176.5360  139.3100 C   0  0  0  0  0  2  0  0  0  0  0  0
  189.6830  176.9190  140.9870 C   0  0  0  0  0  0  0  0  0  0  0  0
  188.8300  178.0910  140.6860 C   0  0  0  0  0  0  0  0  0  0  0  0
  187.9150  177.1750  138.4740 C   0  0  2  0  0  3  0  0  0  0  0  0
  186.6740  177.4180  137.5960 C   0  0  2  0  0  3  0  0  0  0  0  0
  194.3490  175.3910  137.3850 C   0  0  0  0  0  3  0  0  0  0  0  0
  192.4760  174.2590  136.7720 N   0  0  0  0  0  0  0  0  0  0  0  0
  193.7520  174.2150  137.3850 C   0  0  0  0  0  0  0  0  0  0  0  0
  192.2300  175.6090  136.2920 C   0  0  2  0  0  3  0  0  0  0  0  0
  193.4800  176.4030  136.7060 C   0  0  0  0  0  2  0  0  0  0  0  0
  195.0960  173.0490  138.9650 O   0  0  0  0  0  0  0  0  0  0  0  0
  194.3280  172.9960  137.9690 C   0  0  0  0  0  3  0  0  0  0  0  0
  191.6700  173.0950  136.4230 C   0  0  0  0  0  2  0  0  0  0  0  0
  191.4240  173.0330  134.9260 C   0  0  0  0  0  2  0  0  0  0  0  0
  190.4010  171.9680  134.5950 C   0  0  0  0  0  1  0  0  0  0  0  0
  187.7480  174.6330  134.8360 C   0  0  0  0  0  1  0  0  0  0  0  0
  188.1380  175.2340  136.1720 C   0  0  0  0  0  2  0  0  0  0  0  0
  1 14  1  0  0  0  0
  3  2  1  6  0  0  0
  3 16  1  0  0  0  0
  3 15  1  0  0  0  0
  6  8  1  0  0  0  0
  7  6  1  6  0  0  0
  7 10  1  0  0  0  0
  8 28  1  1  0  0  0
  8  3  1  0  0  0  0
  9 13  1  0  0  0  0
 10 12  1  0  0  0  0
 12  9  1  0  0  0  0
 13  4  2  0  0  0  0
 14 13  1  0  0  0  0
 14 11  2  0  0  0  0
 15  1  1  1  0  0  0
 16  5  1  1  0  0  0
 16 15  1  0  0  0  0
 17 19  2  0  0  0  0
 18 19  1  0  0  0  0
 19 23  1  0  0  0  0
 20 21  1  1  0  0  0
 20 18  1  0  0  0  0
 20  7  1  0  0  0  0
 21 17  1  0  0  0  0
 23 22  2  0  0  0  0
 24 18  1  0  0  0  0
 25 24  1  0  0  0  0
 26 25  1  0  0  0  0
 27 28  1  0  0  0  0
M  END
>  <MODEL>
7

>  <REMARK>
 VINA RESULT:      -4.8      2.167      6.307
  Name = 
  5 active torsions:
  status: ('A' for Active; 'I' for Inactive)
    1  A    between atoms: N_9  and  C_18
    2  A    between atoms: C_10  and  C_13
    3  A    between atoms: C_11  and  C_22
    4  A    between atoms: C_12  and  C_23
    5  A    between atoms: C_14  and  C_18
                            x       y       z     vdW  Elec       q    Type
                         _______ _______ _______ _____ _____    ______ ____

>  <TORSDO>
F 5

$$$$
=
 OpenBabel10262420583D

 28 30  0  0  1  0  0  0  0  0999 V2000
  186.7390  177.6310  143.3350 N   0  0  0  0  0  2  0  0  0  0  0  0
  188.6380  175.5810  143.5550 C   0  0  0  0  0  1  0  0  0  0  0  0
  189.1250  177.0300  143.6120 C   0  0  1  0  0  0  0  0  0  0  0  0
  185.1310  179.6880  140.7560 O   0  0  0  0  0  0  0  0  0  0  0  0
  187.8160  177.1270  145.6590 O   0  0  0  0  0  1  0  0  0  0  0  0
  190.7860  176.7780  141.6700 C   0  0  0  0  0  2  0  0  0  0  0  0
  190.1040  177.5970  140.5800 C   0  0  2  0  0  3  0  0  0  0  0  0
  190.5480  177.3150  143.0840 C   0  0  1  0  0  3  0  0  0  0  0  0
  187.4610  179.2950  140.8280 C   0  0  0  0  0  2  0  0  0  0  0  0
  188.6550  177.1410  140.3790 C   0  0  0  0  0  2  0  0  0  0  0  0
  184.5640  177.7420  142.5570 O   0  0  0  0  0  0  0  0  0  0  0  0
  187.8100  178.2530  139.7790 C   0  0  0  0  0  2  0  0  0  0  0  0
  186.0720  179.0760  141.3280 C   0  0  0  0  0  0  0  0  0  0  0  0
  185.7560  178.1260  142.4180 C   0  0  0  0  0  0  0  0  0  0  0  0
  188.0970  178.1500  143.4610 C   0  0  2  0  0  3  0  0  0  0  0  0
  188.7060  177.8360  144.8390 C   0  0  2  0  0  3  0  0  0  0  0  0
  192.9190  176.2430  138.8990 C   0  0  0  0  0  3  0  0  0  0  0  0
  190.6770  176.3260  138.5380 N   0  0  0  0  0  0  0  0  0  0  0  0
  191.8950  175.6330  138.3340 C   0  0  0  0  0  0  0  0  0  0  0  0
  190.9440  177.5380  139.2950 C   0  0  2  0  0  3  0  0  0  0  0  0
  192.4580  177.5020  139.5650 C   0  0  0  0  0  2  0  0  0  0  0  0
  193.1110  173.8620  137.3110 O   0  0  0  0  0  0  0  0  0  0  0  0
  191.9940  174.3700  137.5910 C   0  0  0  0  0  3  0  0  0  0  0  0
  189.4180  176.0300  137.8640 C   0  0  0  0  0  2  0  0  0  0  0  0
  189.4300  176.5480  136.4380 C   0  0  0  0  0  2  0  0  0  0  0  0
  188.8310  177.9370  136.3660 C   0  0  0  0  0  1  0  0  0  0  0  0
  192.0550  178.8610  144.3440 C   0  0  0  0  0  1  0  0  0  0  0  0
  191.0450  178.7560  143.2190 C   0  0  0  0  0  2  0  0  0  0  0  0
  3  2  1  6  0  0  0
  3 16  1  0  0  0  0
  4 13  2  0  0  0  0
  6  8  1  0  0  0  0
  7 10  1  6  0  0  0
  7  6  1  0  0  0  0
  8 28  1  6  0  0  0
  8  3  1  0  0  0  0
  9 13  1  0  0  0  0
 12 10  1  0  0  0  0
 12  9  1  0  0  0  0
 13 14  1  0  0  0  0
 14 11  2  0  0  0  0
 14  1  1  0  0  0  0
 15  1  1  1  0  0  0
 15  3  1  0  0  0  0
 15 16  1  0  0  0  0
 16  5  1  1  0  0  0
 17 21  1  0  0  0  0
 18 20  1  0  0  0  0
 19 18  1  0  0  0  0
 19 17  2  0  0  0  0
 20 21  1  1  0  0  0
 20  7  1  0  0  0  0
 22 23  2  0  0  0  0
 23 19  1  0  0  0  0
 24 18  1  0  0  0  0
 25 24  1  0  0  0  0
 26 25  1  0  0  0  0
 28 27  1  0  0  0  0
M  END
>  <MODEL>
8

>  <REMARK>
 VINA RESULT:      -4.7      1.918      7.695
  Name = 
  5 active torsions:
  status: ('A' for Active; 'I' for Inactive)
    1  A    between atoms: N_9  and  C_18
    2  A    between atoms: C_10  and  C_13
    3  A    between atoms: C_11  and  C_22
    4  A    between atoms: C_12  and  C_23
    5  A    between atoms: C_14  and  C_18
                            x       y       z     vdW  Elec       q    Type
                         _______ _______ _______ _____ _____    ______ ____

>  <TORSDO>
F 5

$$$$
=
 OpenBabel10262420583D

 28 30  0  0  1  0  0  0  0  0999 V2000
  191.3400  177.1360  141.4040 N   0  0  0  0  0  2  0  0  0  0  0  0
  190.5380  179.1240  143.2090 C   0  0  0  0  0  1  0  0  0  0  0  0
  189.7810  177.7940  143.2110 C   0  0  1  0  0  0  0  0  0  0  0  0
  190.6140  176.0010  137.9900 O   0  0  0  0  0  0  0  0  0  0  0  0
  191.9100  176.8700  143.9380 O   0  0  0  0  0  1  0  0  0  0  0  0
  187.4760  178.8560  142.8160 C   0  0  0  0  0  2  0  0  0  0  0  0
  187.1860  178.4220  141.3840 C   0  0  2  0  0  3  0  0  0  0  0  0
  188.2910  177.8340  143.6150 C   0  0  1  0  0  3  0  0  0  0  0  0
  188.9290  176.5340  139.5600 C   0  0  0  0  0  2  0  0  0  0  0  0
  188.3440  178.7980  140.4530 C   0  0  0  0  0  2  0  0  0  0  0  0
  192.5940  177.1280  139.4610 O   0  0  0  0  0  0  0  0  0  0  0  0
  188.3680  177.9050  139.2230 C   0  0  0  0  0  2  0  0  0  0  0  0
  190.3590  176.4460  139.1410 C   0  0  0  0  0  0  0  0  0  0  0  0
  191.4720  176.9180  139.9940 C   0  0  0  0  0  0  0  0  0  0  0  0
  190.1950  176.7200  142.2070 C   0  0  2  0  0  3  0  0  0  0  0  0
  190.5610  176.5740  143.6950 C   0  0  2  0  0  3  0  0  0  0  0  0
  184.4910  178.3160  139.0790 C   0  0  0  0  0  3  0  0  0  0  0  0
  184.7290  178.1460  141.3330 N   0  0  0  0  0  0  0  0  0  0  0  0
  183.9790  177.8030  140.1820 C   0  0  0  0  0  0  0  0  0  0  0  0
  185.8340  179.0030  140.9380 C   0  0  2  0  0  3  0  0  0  0  0  0
  185.7050  179.1260  139.4110 C   0  0  0  0  0  2  0  0  0  0  0  0
  182.6570  175.9640  139.4540 O   0  0  0  0  0  0  0  0  0  0  0  0
  182.7800  176.9560  140.2190 C   0  0  0  0  0  3  0  0  0  0  0  0
  184.3060  177.9190  142.7110 C   0  0  0  0  0  2  0  0  0  0  0  0
  184.0750  179.2350  143.4310 C   0  0  0  0  0  2  0  0  0  0  0  0
  184.0160  179.0230  144.9290 C   0  0  0  0  0  1  0  0  0  0  0  0
  186.7550  176.3880  144.9570 C   0  0  0  0  0  1  0  0  0  0  0  0
  187.5720  176.4850  143.6840 C   0  0  0  0  0  2  0  0  0  0  0  0
  3  2  1  6  0  0  0
  3  8  1  0  0  0  0
  3 16  1  0  0  0  0
  4 13  2  0  0  0  0
  6  8  1  0  0  0  0
  7 10  1  6  0  0  0
  7  6  1  0  0  0  0
  8 28  1  6  0  0  0
 11 14  2  0  0  0  0
 12  9  1  0  0  0  0
 12 10  1  0  0  0  0
 13  9  1  0  0  0  0
 13 14  1  0  0  0  0
 14  1  1  0  0  0  0
 15  1  1  6  0  0  0
 15  3  1  0  0  0  0
 15 16  1  0  0  0  0
 16  5  1  6  0  0  0
 17 21  1  0  0  0  0
 17 19  2  0  0  0  0
 18 24  1  0  0  0  0
 19 23  1  0  0  0  0
 19 18  1  0  0  0  0
 20 21  1  6  0  0  0
 20 18  1  0  0  0  0
 20  7  1  0  0  0  0
 22 23  2  0  0  0  0
 24 25  1  0  0  0  0
 25 26  1  0  0  0  0
 28 27  1  0  0  0  0
M  END
>  <MODEL>
9

>  <REMARK>
 VINA RESULT:      -4.7      3.153      6.341
  Name = 
  5 active torsions:
  status: ('A' for Active; 'I' for Inactive)
    1  A    between atoms: N_9  and  C_18
    2  A    between atoms: C_10  and  C_13
    3  A    between atoms: C_11  and  C_22
    4  A    between atoms: C_12  and  C_23
    5  A    between atoms: C_14  and  C_18
                            x       y       z     vdW  Elec       q    Type
                         _______ _______ _______ _____ _____    ______ ____

>  <TORSDO>
F 5

$$$$
