=
 OpenBabel10262420433D

 28 31  0  0  1  0  0  0  0  0999 V2000
  187.5000  178.6050  139.3660 N   0  0  0  0  0  0  0  0  0  0  0  0
  190.4580  175.9520  139.4110 O   0  0  0  0  0  1  0  0  0  0  0  0
  188.4270  178.8120  140.4900 C   0  0  0  0  0  2  0  0  0  0  0  0
  189.5530  177.8010  138.2110 C   0  0  0  0  0  2  0  0  0  0  0  0
  190.2030  177.3200  139.5120 C   0  0  1  0  0  3  0  0  0  0  0  0
  188.0300  177.7150  138.3190 C   0  0  0  0  0  2  0  0  0  0  0  0
  189.3310  177.5950  140.7580 C   0  0  1  0  0  3  0  0  0  0  0  0
  191.1040  176.7090  142.1170 C   0  0  0  0  0  1  0  0  0  0  0  0
  190.1450  177.7970  141.9760 N   0  0  0  0  0  0  0  0  0  0  0  0
  190.3220  177.2960  146.9360 C   0  0  0  0  0  3  0  0  0  0  0  0
  188.0440  177.3430  145.7870 C   0  0  0  0  0  0  0  0  0  0  0  0
  190.1730  177.8050  144.5140 C   0  0  0  0  0  2  0  0  0  0  0  0
  188.3070  177.9030  148.1450 C   0  0  0  0  0  0  0  0  0  0  0  0
  189.5310  177.0480  145.6750 C   0  0  1  0  0  3  0  0  0  0  0  0
  188.0450  176.4890  143.1530 S   0  0  0  0  0  0  0  0  0  0  0  0
  187.4900  177.7260  146.9400 C   0  0  0  0  0  3  0  0  0  0  0  0
  187.1520  177.1680  144.5960 C   0  0  0  0  0  2  0  0  0  0  0  0
  187.7700  178.2510  149.2280 O   0  0  0  0  0  0  0  0  0  0  0  0
  189.7540  177.6810  148.0790 C   0  0  0  0  0  3  0  0  0  0  0  0
  189.3390  177.7820  143.2110 C   0  0  2  0  0  3  0  0  0  0  0  0
  186.3050  177.9760  139.9090 C   0  0  0  0  0  2  0  0  0  0  0  0
  185.5300  178.9650  140.7760 C   0  0  2  0  0  3  0  0  0  0  0  0
  183.2130  178.4880  140.8980 N   0  0  0  0  0  0  0  0  0  0  0  0
  185.2880  178.3880  142.0340 O   0  0  0  0  0  0  0  0  0  0  0  0
  184.0490  179.3320  138.6740 C   0  0  0  0  0  1  0  0  0  0  0  0
  184.1780  179.3170  140.2010 C   0  0  2  0  0  3  0  0  0  0  0  0
  183.0730  177.1820  140.2600 C   0  0  0  0  0  1  0  0  0  0  0  0
  183.8860  178.2470  142.1680 C   0  0  0  0  0  2  0  0  0  0  0  0
  1 21  1  0  0  0  0
  1  3  1  0  0  0  0
  3  7  1  0  0  0  0
  4  6  1  0  0  0  0
  4  5  1  0  0  0  0
  5  2  1  6  0  0  0
  5  7  1  0  0  0  0
  6  1  1  0  0  0  0
  7  9  1  1  0  0  0
  9  8  1  0  0  0  0
 10 19  2  0  0  0  0
 11 16  2  0  0  0  0
 13 18  2  0  0  0  0
 14 12  1  6  0  0  0
 14 11  1  0  0  0  0
 14 10  1  0  0  0  0
 15 20  1  0  0  0  0
 15 17  1  0  0  0  0
 16 13  1  0  0  0  0
 17 11  1  0  0  0  0
 19 13  1  0  0  0  0
 20  9  1  6  0  0  0
 20 12  1  0  0  0  0
 22 21  1  6  0  0  0
 22 24  1  0  0  0  0
 23 28  1  0  0  0  0
 24 28  1  0  0  0  0
 26 25  1  6  0  0  0
 26 22  1  0  0  0  0
 26 23  1  0  0  0  0
 27 23  1  0  0  0  0
M  END
>  <MODEL>
1

>  <REMARK>
 VINA RESULT:      -8.2      0.000      0.000
  Name = 
  4 active torsions:
  status: ('A' for Active; 'I' for Inactive)
    1  A    between atoms: N_1  and  C_2
    2  A    between atoms: C_2  and  C_3
    3  A    between atoms: N_20  and  C_25
    4  A    between atoms: N_20  and  C_27
                            x       y       z     vdW  Elec       q    Type
                         _______ _______ _______ _____ _____    ______ ____

>  <TORSDO>
F 4

$$$$
=
 OpenBabel10262420433D

 28 31  0  0  1  0  0  0  0  0999 V2000
  187.7560  178.4930  138.6470 N   0  0  0  0  0  0  0  0  0  0  0  0
  190.4430  175.7150  139.5720 O   0  0  0  0  0  1  0  0  0  0  0  0
  188.6200  178.8950  139.7700 C   0  0  0  0  0  2  0  0  0  0  0  0
  189.7980  177.2840  137.8990 C   0  0  0  0  0  2  0  0  0  0  0  0
  190.3110  177.0820  139.3270 C   0  0  1  0  0  3  0  0  0  0  0  0
  188.2700  177.3410  137.8890 C   0  0  0  0  0  2  0  0  0  0  0  0
  189.3850  177.7140  140.3930 C   0  0  1  0  0  3  0  0  0  0  0  0
  191.2900  177.2810  141.7930 C   0  0  0  0  0  1  0  0  0  0  0  0
  190.1300  178.1410  141.5970 N   0  0  0  0  0  0  0  0  0  0  0  0
  190.3260  177.1160  146.4750 C   0  0  0  0  0  3  0  0  0  0  0  0
  188.0430  177.3670  145.3640 C   0  0  0  0  0  0  0  0  0  0  0  0
  190.1770  177.8810  144.1210 C   0  0  0  0  0  2  0  0  0  0  0  0
  188.3450  177.6660  147.7630 C   0  0  0  0  0  0  0  0  0  0  0  0
  189.5170  177.0310  145.2040 C   0  0  1  0  0  3  0  0  0  0  0  0
  187.9920  176.7940  142.6550 S   0  0  0  0  0  0  0  0  0  0  0  0
  187.5120  177.6460  146.5560 C   0  0  0  0  0  3  0  0  0  0  0  0
  187.1360  177.3500  144.1710 C   0  0  0  0  0  2  0  0  0  0  0  0
  187.8290  177.9180  148.8830 O   0  0  0  0  0  0  0  0  0  0  0  0
  189.7810  177.3990  147.6580 C   0  0  0  0  0  3  0  0  0  0  0  0
  189.3330  178.0260  142.8320 C   0  0  2  0  0  3  0  0  0  0  0  0
  186.4730  178.1040  139.2150 C   0  0  0  0  0  2  0  0  0  0  0  0
  185.3410  178.8960  138.5650 C   0  0  2  0  0  3  0  0  0  0  0  0
  183.1890  178.0680  139.1050 N   0  0  0  0  0  0  0  0  0  0  0  0
  184.7830  179.7690  139.5140 O   0  0  0  0  0  0  0  0  0  0  0  0
  184.5800  176.6130  137.5870 C   0  0  0  0  0  1  0  0  0  0  0  0
  184.2120  178.0170  138.0780 C   0  0  2  0  0  3  0  0  0  0  0  0
  183.4280  177.0730  140.1470 C   0  0  0  0  0  1  0  0  0  0  0  0
  183.4420  179.3650  139.7200 C   0  0  0  0  0  2  0  0  0  0  0  0
  1 21  1  0  0  0  0
  1  3  1  0  0  0  0
  3  7  1  0  0  0  0
  4  5  1  0  0  0  0
  5  2  1  1  0  0  0
  5  7  1  0  0  0  0
  6  4  1  0  0  0  0
  6  1  1  0  0  0  0
  7  9  1  1  0  0  0
  9  8  1  0  0  0  0
 10 19  2  0  0  0  0
 11 16  2  0  0  0  0
 13 18  2  0  0  0  0
 14 12  1  6  0  0  0
 14 11  1  0  0  0  0
 14 10  1  0  0  0  0
 15 20  1  0  0  0  0
 15 17  1  0  0  0  0
 16 13  1  0  0  0  0
 17 11  1  0  0  0  0
 19 13  1  0  0  0  0
 20  9  1  6  0  0  0
 20 12  1  0  0  0  0
 22 21  1  1  0  0  0
 22 24  1  0  0  0  0
 23 28  1  0  0  0  0
 23 27  1  0  0  0  0
 24 28  1  0  0  0  0
 26 25  1  1  0  0  0
 26 22  1  0  0  0  0
 26 23  1  0  0  0  0
M  END
>  <MODEL>
2

>  <REMARK>
 VINA RESULT:      -7.8      1.063      1.274
  Name = 
  4 active torsions:
  status: ('A' for Active; 'I' for Inactive)
    1  A    between atoms: N_1  and  C_2
    2  A    between atoms: C_2  and  C_3
    3  A    between atoms: N_20  and  C_25
    4  A    between atoms: N_20  and  C_27
                            x       y       z     vdW  Elec       q    Type
                         _______ _______ _______ _____ _____    ______ ____

>  <TORSDO>
F 4

$$$$
=
 OpenBabel10262420433D

 28 31  0  0  1  0  0  0  0  0999 V2000
  188.4700  177.1080  145.1600 N   0  0  0  0  0  0  0  0  0  0  0  0
  192.0140  178.5510  144.0900 O   0  0  0  0  0  1  0  0  0  0  0  0
  188.9540  176.5330  143.8940 C   0  0  0  0  0  2  0  0  0  0  0  0
  190.8960  177.1990  145.7020 C   0  0  0  0  0  2  0  0  0  0  0  0
  191.3100  177.3560  144.2360 C   0  0  1  0  0  3  0  0  0  0  0  0
  189.5120  177.8060  145.9290 C   0  0  0  0  0  2  0  0  0  0  0  0
  190.1040  177.3420  143.2670 C   0  0  1  0  0  3  0  0  0  0  0  0
  191.7000  177.4260  141.4710 C   0  0  0  0  0  1  0  0  0  0  0  0
  190.4640  176.8070  141.9360 N   0  0  0  0  0  0  0  0  0  0  0  0
  189.7410  177.6110  137.0660 C   0  0  0  0  0  3  0  0  0  0  0  0
  187.8130  178.0420  138.6810 C   0  0  0  0  0  0  0  0  0  0  0  0
  189.9670  176.9790  139.4530 C   0  0  0  0  0  2  0  0  0  0  0  0
  187.4340  177.6090  136.3130 C   0  0  0  0  0  0  0  0  0  0  0  0
  189.3160  177.9530  138.4730 C   0  0  1  0  0  3  0  0  0  0  0  0
  188.5740  178.6740  141.2680 S   0  0  0  0  0  0  0  0  0  0  0  0
  186.9550  177.8930  137.6690 C   0  0  0  0  0  3  0  0  0  0  0  0
  187.2600  178.3430  140.0410 C   0  0  0  0  0  2  0  0  0  0  0  0
  186.6150  177.4840  135.3660 O   0  0  0  0  0  0  0  0  0  0  0  0
  188.8710  177.4630  136.0670 C   0  0  0  0  0  3  0  0  0  0  0  0
  189.4530  177.1110  140.9060 C   0  0  2  0  0  3  0  0  0  0  0  0
  187.4490  178.0880  144.8190 C   0  0  0  0  0  2  0  0  0  0  0  0
  186.1180  177.3940  144.5350 C   0  0  2  0  0  3  0  0  0  0  0  0
  184.2970  178.8980  144.3570 N   0  0  0  0  0  0  0  0  0  0  0  0
  185.8120  177.5200  143.1700 O   0  0  0  0  0  0  0  0  0  0  0  0
  185.2640  178.6080  146.6670 C   0  0  0  0  0  1  0  0  0  0  0  0
  184.9620  178.0080  145.2900 C   0  0  2  0  0  3  0  0  0  0  0  0
  184.9130  180.2220  144.3520 C   0  0  0  0  0  1  0  0  0  0  0  0
  184.6310  178.2930  143.0730 C   0  0  0  0  0  2  0  0  0  0  0  0
  1  6  1  0  0  0  0
  3  1  1  0  0  0  0
  4  6  1  0  0  0  0
  5  2  1  1  0  0  0
  5  4  1  0  0  0  0
  7  9  1  6  0  0  0
  7  3  1  0  0  0  0
  7  5  1  0  0  0  0
  8  9  1  0  0  0  0
 11 17  1  0  0  0  0
 12 20  1  0  0  0  0
 13 16  1  0  0  0  0
 14 10  1  6  0  0  0
 14 11  1  0  0  0  0
 14 12  1  0  0  0  0
 16 11  2  0  0  0  0
 17 15  1  0  0  0  0
 18 13  2  0  0  0  0
 19 13  1  0  0  0  0
 19 10  2  0  0  0  0
 20 15  1  0  0  0  0
 20  9  1  1  0  0  0
 21  1  1  0  0  0  0
 22 21  1  6  0  0  0
 22 26  1  0  0  0  0
 23 26  1  0  0  0  0
 24 22  1  0  0  0  0
 26 25  1  1  0  0  0
 27 23  1  0  0  0  0
 28 24  1  0  0  0  0
 28 23  1  0  0  0  0
M  END
>  <MODEL>
3

>  <REMARK>
 VINA RESULT:      -7.2      2.552      6.681
  Name = 
  4 active torsions:
  status: ('A' for Active; 'I' for Inactive)
    1  A    between atoms: N_1  and  C_2
    2  A    between atoms: C_2  and  C_3
    3  A    between atoms: N_20  and  C_25
    4  A    between atoms: N_20  and  C_27
                            x       y       z     vdW  Elec       q    Type
                         _______ _______ _______ _____ _____    ______ ____

>  <TORSDO>
F 4

$$$$
=
 OpenBabel10262420433D

 28 31  0  0  1  0  0  0  0  0999 V2000
  189.6270  175.7440  137.1250 N   0  0  0  0  0  0  0  0  0  0  0  0
  189.0580  179.4890  138.3250 O   0  0  0  0  0  1  0  0  0  0  0  0
  188.8600  175.8240  138.3790 C   0  0  0  0  0  2  0  0  0  0  0  0
  188.4900  177.9030  136.6400 C   0  0  0  0  0  2  0  0  0  0  0  0
  188.3860  178.2840  138.1200 C   0  0  1  0  0  3  0  0  0  0  0  0
  189.7180  177.0250  136.4050 C   0  0  0  0  0  2  0  0  0  0  0  0
  188.9640  177.2010  139.0600 C   0  0  1  0  0  3  0  0  0  0  0  0
  187.6410  178.4740  140.6120 C   0  0  0  0  0  1  0  0  0  0  0  0
  188.2930  177.1910  140.3790 N   0  0  0  0  0  0  0  0  0  0  0  0
  188.9620  177.8750  145.2750 C   0  0  0  0  0  3  0  0  0  0  0  0
  190.9510  177.1400  143.8540 C   0  0  0  0  0  0  0  0  0  0  0  0
  188.6210  177.2700  142.8940 C   0  0  0  0  0  2  0  0  0  0  0  0
  190.8750  176.7530  146.2590 C   0  0  0  0  0  0  0  0  0  0  0  0
  189.6050  177.8460  143.9100 C   0  0  1  0  0  3  0  0  0  0  0  0
  190.8190  177.8780  141.1880 S   0  0  0  0  0  0  0  0  0  0  0  0
  191.5320  176.6510  144.9520 C   0  0  0  0  0  3  0  0  0  0  0  0
  191.6800  177.0160  142.5510 C   0  0  0  0  0  2  0  0  0  0  0  0
  191.4410  176.2990  147.2880 O   0  0  0  0  0  0  0  0  0  0  0  0
  189.5540  177.3780  146.3610 C   0  0  0  0  0  3  0  0  0  0  0  0
  189.2360  177.0130  141.4980 C   0  0  2  0  0  3  0  0  0  0  0  0
  190.9810  175.3450  137.4790 C   0  0  0  0  0  2  0  0  0  0  0  0
  191.9930  176.0060  136.5450 C   0  0  2  0  0  3  0  0  0  0  0  0
  194.2210  175.2980  136.9260 N   0  0  0  0  0  0  0  0  0  0  0  0
  192.3290  175.1090  135.5170 O   0  0  0  0  0  0  0  0  0  0  0  0
  193.2050  176.7520  138.7180 C   0  0  0  0  0  1  0  0  0  0  0  0
  193.2870  176.3640  137.2380 C   0  0  2  0  0  3  0  0  0  0  0  0
  194.0980  174.1890  137.8680 C   0  0  0  0  0  1  0  0  0  0  0  0
  193.7040  174.8070  135.6550 C   0  0  0  0  0  2  0  0  0  0  0  0
  1 21  1  0  0  0  0
  1  3  1  0  0  0  0
  3  7  1  0  0  0  0
  4  5  1  0  0  0  0
  5  2  1  6  0  0  0
  5  7  1  0  0  0  0
  6  4  1  0  0  0  0
  6  1  1  0  0  0  0
  7  9  1  1  0  0  0
  9  8  1  0  0  0  0
 10 19  2  0  0  0  0
 11 14  1  0  0  0  0
 11 16  2  0  0  0  0
 13 19  1  0  0  0  0
 13 18  2  0  0  0  0
 14 12  1  6  0  0  0
 14 10  1  0  0  0  0
 15 20  1  0  0  0  0
 15 17  1  0  0  0  0
 16 13  1  0  0  0  0
 17 11  1  0  0  0  0
 20  9  1  6  0  0  0
 20 12  1  0  0  0  0
 22 26  1  0  0  0  0
 22 21  1  1  0  0  0
 23 26  1  0  0  0  0
 23 27  1  0  0  0  0
 24 28  1  0  0  0  0
 24 22  1  0  0  0  0
 26 25  1  1  0  0  0
 28 23  1  0  0  0  0
M  END
>  <MODEL>
4

>  <REMARK>
 VINA RESULT:      -7.1      3.107      6.114
  Name = 
  4 active torsions:
  status: ('A' for Active; 'I' for Inactive)
    1  A    between atoms: N_1  and  C_2
    2  A    between atoms: C_2  and  C_3
    3  A    between atoms: N_20  and  C_25
    4  A    between atoms: N_20  and  C_27
                            x       y       z     vdW  Elec       q    Type
                         _______ _______ _______ _____ _____    ______ ____

>  <TORSDO>
F 4

$$$$
=
 OpenBabel10262420433D

 28 31  0  0  1  0  0  0  0  0999 V2000
  182.1310  175.2470  139.1040 N   0  0  0  0  0  0  0  0  0  0  0  0
  179.2820  177.9170  139.8400 O   0  0  0  0  0  1  0  0  0  0  0  0
  182.6360  176.4260  139.8270 C   0  0  0  0  0  2  0  0  0  0  0  0
  180.0500  175.7270  140.3800 C   0  0  0  0  0  2  0  0  0  0  0  0
  180.3320  177.2300  140.4490 C   0  0  1  0  0  3  0  0  0  0  0  0
  180.6640  175.1320  139.1130 C   0  0  0  0  0  2  0  0  0  0  0  0
  181.6680  177.6220  139.7770 C   0  0  1  0  0  3  0  0  0  0  0  0
  182.8040  179.7000  139.3600 C   0  0  0  0  0  1  0  0  0  0  0  0
  182.2750  178.8200  140.3960 N   0  0  0  0  0  0  0  0  0  0  0  0
  184.0900  179.2010  145.0270 C   0  0  0  0  0  3  0  0  0  0  0  0
  185.6200  178.3400  143.1750 C   0  0  0  0  0  0  0  0  0  0  0  0
  183.1630  178.7470  142.7720 C   0  0  0  0  0  2  0  0  0  0  0  0
  186.0420  177.8480  145.5240 C   0  0  0  0  0  0  0  0  0  0  0  0
  184.4050  179.1730  143.5520 C   0  0  1  0  0  3  0  0  0  0  0  0
  184.9760  179.2120  140.6270 S   0  0  0  0  0  0  0  0  0  0  0  0
  186.3750  177.7440  144.1000 C   0  0  0  0  0  3  0  0  0  0  0  0
  186.0210  178.2050  141.7370 C   0  0  0  0  0  2  0  0  0  0  0  0
  186.7700  177.2920  146.3870 O   0  0  0  0  0  0  0  0  0  0  0  0
  184.8520  178.5970  145.9380 C   0  0  0  0  0  3  0  0  0  0  0  0
  183.4190  178.4960  141.2670 C   0  0  2  0  0  3  0  0  0  0  0  0
  182.5500  175.3870  137.7170 C   0  0  0  0  0  2  0  0  0  0  0  0
  183.9960  175.8710  137.6430 C   0  0  2  0  0  3  0  0  0  0  0  0
  185.1730  175.0210  135.7720 N   0  0  0  0  0  0  0  0  0  0  0  0
  184.0890  176.9090  136.7010 O   0  0  0  0  0  0  0  0  0  0  0  0
  184.6210  173.3500  137.5780 C   0  0  0  0  0  1  0  0  0  0  0  0
  184.9540  174.7940  137.1880 C   0  0  2  0  0  3  0  0  0  0  0  0
  184.1510  174.3640  134.9620 C   0  0  0  0  0  1  0  0  0  0  0  0
  184.9240  176.4520  135.6540 C   0  0  0  0  0  2  0  0  0  0  0  0
  1  6  1  0  0  0  0
  1  3  1  0  0  0  0
  4  5  1  0  0  0  0
  5  2  1  6  0  0  0
  6  4  1  0  0  0  0
  7  3  1  0  0  0  0
  7  9  1  1  0  0  0
  7  5  1  0  0  0  0
  8  9  1  0  0  0  0
 10 19  2  0  0  0  0
 11 14  1  0  0  0  0
 11 16  2  0  0  0  0
 13 19  1  0  0  0  0
 13 18  2  0  0  0  0
 14 12  1  6  0  0  0
 14 10  1  0  0  0  0
 15 20  1  0  0  0  0
 15 17  1  0  0  0  0
 16 13  1  0  0  0  0
 17 11  1  0  0  0  0
 20  9  1  6  0  0  0
 20 12  1  0  0  0  0
 21  1  1  0  0  0  0
 22 21  1  6  0  0  0
 23 26  1  0  0  0  0
 24 22  1  0  0  0  0
 26 25  1  6  0  0  0
 26 22  1  0  0  0  0
 27 23  1  0  0  0  0
 28 23  1  0  0  0  0
 28 24  1  0  0  0  0
M  END
>  <MODEL>
5

>  <REMARK>
 VINA RESULT:      -7.0      3.885      6.637
  Name = 
  4 active torsions:
  status: ('A' for Active; 'I' for Inactive)
    1  A    between atoms: N_1  and  C_2
    2  A    between atoms: C_2  and  C_3
    3  A    between atoms: N_20  and  C_25
    4  A    between atoms: N_20  and  C_27
                            x       y       z     vdW  Elec       q    Type
                         _______ _______ _______ _____ _____    ______ ____

>  <TORSDO>
F 4

$$$$
=
 OpenBabel10262420433D

 28 31  0  0  1  0  0  0  0  0999 V2000
  187.8930  177.9840  137.7070 N   0  0  0  0  0  0  0  0  0  0  0  0
  190.6030  175.3010  138.8230 O   0  0  0  0  0  1  0  0  0  0  0  0
  188.8950  178.5440  138.6290 C   0  0  0  0  0  2  0  0  0  0  0  0
  189.8000  176.5660  136.9700 C   0  0  0  0  0  2  0  0  0  0  0  0
  190.4760  176.6050  138.3440 C   0  0  1  0  0  3  0  0  0  0  0  0
  188.2840  176.6910  137.1230 C   0  0  0  0  0  2  0  0  0  0  0  0
  189.7010  177.4620  139.3710 C   0  0  1  0  0  3  0  0  0  0  0  0
  191.8750  177.3690  140.3920 C   0  0  0  0  0  1  0  0  0  0  0  0
  190.5950  178.0680  140.3810 N   0  0  0  0  0  0  0  0  0  0  0  0
  191.5670  176.4090  144.9840 C   0  0  0  0  0  3  0  0  0  0  0  0
  189.2160  177.2450  144.4510 C   0  0  0  0  0  0  0  0  0  0  0  0
  191.1060  177.4830  142.7970 C   0  0  0  0  0  2  0  0  0  0  0  0
  190.0670  177.1700  146.7330 C   0  0  0  0  0  0  0  0  0  0  0  0
  190.5140  176.6480  143.9310 C   0  0  1  0  0  3  0  0  0  0  0  0
  188.4800  177.0450  141.7890 S   0  0  0  0  0  0  0  0  0  0  0  0
  189.0190  177.4690  145.7520 C   0  0  0  0  0  3  0  0  0  0  0  0
  188.1000  177.5600  143.5010 C   0  0  0  0  0  2  0  0  0  0  0  0
  189.8620  177.3740  147.9590 O   0  0  0  0  0  0  0  0  0  0  0  0
  191.3560  176.6410  146.2800 C   0  0  0  0  0  3  0  0  0  0  0  0
  190.0670  177.9550  141.7530 C   0  0  2  0  0  3  0  0  0  0  0  0
  186.6790  177.7660  138.4790 C   0  0  0  0  0  2  0  0  0  0  0  0
  185.5590  178.6740  137.9780 C   0  0  2  0  0  3  0  0  0  0  0  0
  183.4010  177.9460  138.6310 N   0  0  0  0  0  0  0  0  0  0  0  0
  185.1350  179.5080  139.0260 O   0  0  0  0  0  0  0  0  0  0  0  0
  184.5710  176.5230  136.9090 C   0  0  0  0  0  1  0  0  0  0  0  0
  184.3380  177.9060  137.5240 C   0  0  2  0  0  3  0  0  0  0  0  0
  183.6490  176.8630  139.5790 C   0  0  0  0  0  1  0  0  0  0  0  0
  183.7890  179.1750  139.3110 C   0  0  0  0  0  2  0  0  0  0  0  0
  1 21  1  0  0  0  0
  1  3  1  0  0  0  0
  3  7  1  0  0  0  0
  4  6  1  0  0  0  0
  4  5  1  0  0  0  0
  5  2  1  1  0  0  0
  5  7  1  0  0  0  0
  6  1  1  0  0  0  0
  7  9  1  1  0  0  0
  9  8  1  0  0  0  0
 10 19  2  0  0  0  0
 11 16  2  0  0  0  0
 13 18  2  0  0  0  0
 14 12  1  6  0  0  0
 14 11  1  0  0  0  0
 14 10  1  0  0  0  0
 15 17  1  0  0  0  0
 16 13  1  0  0  0  0
 17 11  1  0  0  0  0
 19 13  1  0  0  0  0
 20  9  1  6  0  0  0
 20 15  1  0  0  0  0
 20 12  1  0  0  0  0
 22 21  1  1  0  0  0
 22 24  1  0  0  0  0
 23 28  1  0  0  0  0
 23 27  1  0  0  0  0
 24 28  1  0  0  0  0
 26 25  1  1  0  0  0
 26 22  1  0  0  0  0
 26 23  1  0  0  0  0
M  END
>  <MODEL>
6

>  <REMARK>
 VINA RESULT:      -6.9      1.687      2.142
  Name = 
  4 active torsions:
  status: ('A' for Active; 'I' for Inactive)
    1  A    between atoms: N_1  and  C_2
    2  A    between atoms: C_2  and  C_3
    3  A    between atoms: N_20  and  C_25
    4  A    between atoms: N_20  and  C_27
                            x       y       z     vdW  Elec       q    Type
                         _______ _______ _______ _____ _____    ______ ____

>  <TORSDO>
F 4

$$$$
=
 OpenBabel10262420433D

 28 31  0  0  1  0  0  0  0  0999 V2000
  187.8350  176.2840  136.0310 N   0  0  0  0  0  0  0  0  0  0  0  0
  190.6290  173.9660  137.6460 O   0  0  0  0  0  1  0  0  0  0  0  0
  188.8030  177.0460  136.8380 C   0  0  0  0  0  2  0  0  0  0  0  0
  189.8040  174.8300  135.5850 C   0  0  0  0  0  2  0  0  0  0  0  0
  190.4600  175.1520  136.9310 C   0  0  1  0  0  3  0  0  0  0  0  0
  188.2830  174.9210  135.7030 C   0  0  0  0  0  2  0  0  0  0  0  0
  189.6390  176.1550  137.7740 C   0  0  1  0  0  3  0  0  0  0  0  0
  191.8720  176.4930  138.5990 C   0  0  0  0  0  1  0  0  0  0  0  0
  190.4960  176.9740  138.6580 N   0  0  0  0  0  0  0  0  0  0  0  0
  187.1140  178.4120  142.0320 C   0  0  0  0  0  3  0  0  0  0  0  0
  189.2240  177.2230  142.8370 C   0  0  0  0  0  0  0  0  0  0  0  0
  188.6940  177.4480  140.3810 C   0  0  0  0  0  2  0  0  0  0  0  0
  187.1850  177.2680  144.1710 C   0  0  0  0  0  0  0  0  0  0  0  0
  188.5620  178.0760  141.7670 C   0  0  1  0  0  3  0  0  0  0  0  0
  191.4260  177.4990  141.1810 S   0  0  0  0  0  0  0  0  0  0  0  0
  188.5780  176.8680  143.9500 C   0  0  0  0  0  3  0  0  0  0  0  0
  190.6510  176.7940  142.6780 C   0  0  0  0  0  2  0  0  0  0  0  0
  186.5920  176.9370  145.2310 O   0  0  0  0  0  0  0  0  0  0  0  0
  186.4830  178.0470  143.1470 C   0  0  0  0  0  3  0  0  0  0  0  0
  190.1030  176.8860  140.0760 C   0  0  2  0  0  3  0  0  0  0  0  0
  186.6200  176.1660  136.8230 C   0  0  0  0  0  2  0  0  0  0  0  0
  185.7500  177.4090  136.6520 C   0  0  2  0  0  3  0  0  0  0  0  0
  183.4920  177.0650  137.2810 N   0  0  0  0  0  0  0  0  0  0  0  0
  185.5660  178.0220  137.9020 O   0  0  0  0  0  0  0  0  0  0  0  0
  184.2390  175.8970  135.1750 C   0  0  0  0  0  1  0  0  0  0  0  0
  184.3690  177.0920  136.1250 C   0  0  2  0  0  3  0  0  0  0  0  0
  183.4830  175.7480  137.9130 C   0  0  0  0  0  1  0  0  0  0  0  0
  184.1850  177.9520  138.2060 C   0  0  0  0  0  2  0  0  0  0  0  0
  1 21  1  0  0  0  0
  1  3  1  0  0  0  0
  3  7  1  0  0  0  0
  4  6  1  0  0  0  0
  4  5  1  0  0  0  0
  5  2  1  1  0  0  0
  5  7  1  0  0  0  0
  6  1  1  0  0  0  0
  7  9  1  6  0  0  0
  8  9  1  0  0  0  0
 10 19  2  0  0  0  0
 11 16  2  0  0  0  0
 13 18  2  0  0  0  0
 14 12  1  6  0  0  0
 14 10  1  0  0  0  0
 14 11  1  0  0  0  0
 15 17  1  0  0  0  0
 16 13  1  0  0  0  0
 17 11  1  0  0  0  0
 19 13  1  0  0  0  0
 20  9  1  6  0  0  0
 20 12  1  0  0  0  0
 20 15  1  0  0  0  0
 22 21  1  1  0  0  0
 22 24  1  0  0  0  0
 23 27  1  0  0  0  0
 23 28  1  0  0  0  0
 24 28  1  0  0  0  0
 26 25  1  1  0  0  0
 26 22  1  0  0  0  0
 26 23  1  0  0  0  0
M  END
>  <MODEL>
7

>  <REMARK>
 VINA RESULT:      -6.7      2.819      4.057
  Name = 
  4 active torsions:
  status: ('A' for Active; 'I' for Inactive)
    1  A    between atoms: N_1  and  C_2
    2  A    between atoms: C_2  and  C_3
    3  A    between atoms: N_20  and  C_25
    4  A    between atoms: N_20  and  C_27
                            x       y       z     vdW  Elec       q    Type
                         _______ _______ _______ _____ _____    ______ ____

>  <TORSDO>
F 4

$$$$
=
 OpenBabel10262420433D

 28 31  0  0  1  0  0  0  0  0999 V2000
  182.9150  176.6040  137.4790 N   0  0  0  0  0  0  0  0  0  0  0  0
  182.6450  180.3700  138.7170 O   0  0  0  0  0  1  0  0  0  0  0  0
  182.5210  176.7050  138.8940 C   0  0  0  0  0  2  0  0  0  0  0  0
  181.6570  178.7420  137.2850 C   0  0  0  0  0  2  0  0  0  0  0  0
  181.9600  179.1550  138.7280 C   0  0  1  0  0  3  0  0  0  0  0  0
  182.7860  177.8690  136.7370 C   0  0  0  0  0  2  0  0  0  0  0  0
  182.7890  178.0980  139.4940 C   0  0  1  0  0  3  0  0  0  0  0  0
  181.8720  179.3720  141.3150 C   0  0  0  0  0  1  0  0  0  0  0  0
  182.5070  178.1120  140.9460 N   0  0  0  0  0  0  0  0  0  0  0  0
  184.4220  178.9240  145.4800 C   0  0  0  0  0  3  0  0  0  0  0  0
  186.0020  178.3210  143.5690 C   0  0  0  0  0  0  0  0  0  0  0  0
  183.4970  178.2570  143.2780 C   0  0  0  0  0  2  0  0  0  0  0  0
  186.6130  177.9690  145.9020 C   0  0  0  0  0  0  0  0  0  0  0  0
  184.6720  178.9230  143.9910 C   0  0  1  0  0  3  0  0  0  0  0  0
  185.0950  179.0030  141.0430 S   0  0  0  0  0  0  0  0  0  0  0  0
  186.8960  177.8960  144.4650 C   0  0  0  0  0  3  0  0  0  0  0  0
  186.3580  178.2320  142.1150 C   0  0  0  0  0  2  0  0  0  0  0  0
  187.4700  177.5760  146.7360 O   0  0  0  0  0  0  0  0  0  0  0  0
  185.3240  178.4920  146.3610 C   0  0  0  0  0  3  0  0  0  0  0  0
  183.7290  178.0240  141.7660 C   0  0  2  0  0  3  0  0  0  0  0  0
  184.3200  176.2240  137.4540 C   0  0  0  0  0  2  0  0  0  0  0  0
  184.9770  176.6990  136.1600 C   0  0  2  0  0  3  0  0  0  0  0  0
  187.2920  176.2090  136.0520 N   0  0  0  0  0  0  0  0  0  0  0  0
  185.1330  175.6060  135.2920 O   0  0  0  0  0  0  0  0  0  0  0  0
  186.6180  177.9870  137.7070 C   0  0  0  0  0  1  0  0  0  0  0  0
  186.3590  177.2710  136.3780 C   0  0  2  0  0  3  0  0  0  0  0  0
  187.5390  175.3440  137.2020 C   0  0  0  0  0  1  0  0  0  0  0  0
  186.5230  175.4120  135.1050 C   0  0  0  0  0  2  0  0  0  0  0  0
  1  3  1  0  0  0  0
  3  7  1  0  0  0  0
  4  5  1  0  0  0  0
  5  2  1  6  0  0  0
  5  7  1  0  0  0  0
  6  4  1  0  0  0  0
  6  1  1  0  0  0  0
  7  9  1  1  0  0  0
  9  8  1  0  0  0  0
 10 19  2  0  0  0  0
 11 14  1  0  0  0  0
 11 16  2  0  0  0  0
 13 19  1  0  0  0  0
 13 18  2  0  0  0  0
 14 12  1  6  0  0  0
 14 10  1  0  0  0  0
 15 20  1  0  0  0  0
 15 17  1  0  0  0  0
 16 13  1  0  0  0  0
 17 11  1  0  0  0  0
 20  9  1  6  0  0  0
 20 12  1  0  0  0  0
 21  1  1  0  0  0  0
 22 26  1  0  0  0  0
 22 21  1  1  0  0  0
 23 26  1  0  0  0  0
 23 27  1  0  0  0  0
 24 22  1  0  0  0  0
 26 25  1  1  0  0  0
 28 24  1  0  0  0  0
 28 23  1  0  0  0  0
M  END
>  <MODEL>
8

>  <REMARK>
 VINA RESULT:      -6.7      3.355      6.020
  Name = 
  4 active torsions:
  status: ('A' for Active; 'I' for Inactive)
    1  A    between atoms: N_1  and  C_2
    2  A    between atoms: C_2  and  C_3
    3  A    between atoms: N_20  and  C_25
    4  A    between atoms: N_20  and  C_27
                            x       y       z     vdW  Elec       q    Type
                         _______ _______ _______ _____ _____    ______ ____

>  <TORSDO>
F 4

$$$$
=
 OpenBabel10262420433D

 28 31  0  0  1  0  0  0  0  0999 V2000
  186.9510  178.2320  143.3120 N   0  0  0  0  0  0  0  0  0  0  0  0
  183.5770  177.9510  141.2320 O   0  0  0  0  0  1  0  0  0  0  0  0
  187.0760  178.7900  141.9550 C   0  0  0  0  0  2  0  0  0  0  0  0
  184.6010  179.0220  143.0980 C   0  0  0  0  0  2  0  0  0  0  0  0
  184.5870  178.8490  141.5760 C   0  0  1  0  0  3  0  0  0  0  0  0
  185.5580  178.0150  143.7350 C   0  0  0  0  0  2  0  0  0  0  0  0
  185.9390  178.3490  141.0160 C   0  0  1  0  0  3  0  0  0  0  0  0
  184.9150  178.9190  138.9170 C   0  0  0  0  0  1  0  0  0  0  0  0
  186.1800  178.8210  139.6350 N   0  0  0  0  0  0  0  0  0  0  0  0
  190.8130  177.0960  138.9660 C   0  0  0  0  0  3  0  0  0  0  0  0
  189.0050  176.4450  137.2860 C   0  0  0  0  0  0  0  0  0  0  0  0
  188.4490  177.7100  139.3980 C   0  0  0  0  0  2  0  0  0  0  0  0
  191.0260  175.1150  137.5810 C   0  0  0  0  0  0  0  0  0  0  0  0
  189.4970  177.4480  138.3170 C   0  0  1  0  0  3  0  0  0  0  0  0
  186.9160  178.2490  137.0590 S   0  0  0  0  0  0  0  0  0  0  0  0
  189.7300  175.3770  136.9460 C   0  0  0  0  0  3  0  0  0  0  0  0
  187.6950  176.6630  136.5920 C   0  0  0  0  0  2  0  0  0  0  0  0
  191.7050  174.1110  137.2410 O   0  0  0  0  0  0  0  0  0  0  0  0
  191.5230  176.0230  138.6180 C   0  0  0  0  0  3  0  0  0  0  0  0
  187.0130  177.8910  138.8510 C   0  0  2  0  0  3  0  0  0  0  0  0
  187.6110  176.9350  143.3010 C   0  0  0  0  0  2  0  0  0  0  0  0
  188.5490  176.8040  144.4990 C   0  0  2  0  0  3  0  0  0  0  0  0
  190.7060  177.6990  144.1010 N   0  0  0  0  0  0  0  0  0  0  0  0
  188.6200  178.0380  145.1670 O   0  0  0  0  0  0  0  0  0  0  0  0
  190.1450  175.5790  142.8570 C   0  0  0  0  0  1  0  0  0  0  0  0
  189.9640  176.4520  144.1030 C   0  0  2  0  0  3  0  0  0  0  0  0
  190.5870  178.3890  142.8200 C   0  0  0  0  0  1  0  0  0  0  0  0
  189.9540  178.4980  145.0610 C   0  0  0  0  0  2  0  0  0  0  0  0
  1  6  1  0  0  0  0
  3  1  1  0  0  0  0
  4  6  1  0  0  0  0
  5  2  1  1  0  0  0
  5  4  1  0  0  0  0
  7  9  1  6  0  0  0
  7  5  1  0  0  0  0
  7  3  1  0  0  0  0
  8  9  1  0  0  0  0
 11 14  1  0  0  0  0
 13 19  1  0  0  0  0
 14 10  1  1  0  0  0
 14 12  1  0  0  0  0
 15 20  1  0  0  0  0
 16 11  2  0  0  0  0
 16 13  1  0  0  0  0
 17 15  1  0  0  0  0
 17 11  1  0  0  0  0
 18 13  2  0  0  0  0
 19 10  2  0  0  0  0
 20 12  1  0  0  0  0
 20  9  1  1  0  0  0
 21  1  1  0  0  0  0
 22 21  1  6  0  0  0
 22 24  1  0  0  0  0
 23 26  1  0  0  0  0
 23 28  1  0  0  0  0
 26 25  1  6  0  0  0
 26 22  1  0  0  0  0
 27 23  1  0  0  0  0
 28 24  1  0  0  0  0
M  END
>  <MODEL>
9

>  <REMARK>
 VINA RESULT:      -6.6      2.373      7.349
  Name = 
  4 active torsions:
  status: ('A' for Active; 'I' for Inactive)
    1  A    between atoms: N_1  and  C_2
    2  A    between atoms: C_2  and  C_3
    3  A    between atoms: N_20  and  C_25
    4  A    between atoms: N_20  and  C_27
                            x       y       z     vdW  Elec       q    Type
                         _______ _______ _______ _____ _____    ______ ____

>  <TORSDO>
F 4

$$$$
