=
 OpenBabel10262420553D

 28 31  0  0  1  0  0  0  0  0999 V2000
  184.6460  178.4110  143.0450 C   0  0  0  0  0  0  0  0  0  0  0  0
  186.2170  178.5320  147.5580 O   0  0  0  0  0  0  0  0  0  0  0  0
  187.8150  177.0060  144.5810 C   0  0  2  0  0  3  0  0  0  0  0  0
  185.3740  178.4320  145.3550 C   0  0  0  0  0  0  0  0  0  0  0  0
  186.9000  177.6250  143.6220 N   0  0  0  0  0  2  0  0  0  0  0  0
  183.1830  179.1740  144.8150 C   0  0  0  0  0  3  0  0  0  0  0  0
  186.4360  178.2320  146.3520 C   0  0  0  0  0  0  0  0  0  0  0  0
  184.1620  178.9300  145.7250 N   0  0  0  0  0  0  0  0  0  0  0  0
  187.8150  177.7710  145.9280 C   0  0  1  0  0  3  0  0  0  0  0  0
  183.4080  178.9240  143.4620 C   0  0  0  0  0  3  0  0  0  0  0  0
  185.6310  178.1520  144.0080 C   0  0  0  0  0  0  0  0  0  0  0  0
  189.8970  178.2950  143.9470 C   0  0  0  0  0  2  0  0  0  0  0  0
  189.1640  176.4040  142.6330 O   0  0  0  0  0  0  0  0  0  0  0  0
  191.1960  177.4570  141.9770 C   0  0  0  0  0  0  0  0  0  0  0  0
  189.2180  176.9240  143.9640 C   0  0  2  0  0  3  0  0  0  0  0  0
  190.1940  176.6160  141.7090 C   0  0  0  0  0  3  0  0  0  0  0  0
  192.1910  177.6230  141.0740 F   0  0  0  0  0  0  0  0  0  0  0  0
  191.2750  178.1600  143.3030 C   0  0  0  0  0  2  0  0  0  0  0  0
  188.5000  176.9700  147.0430 C   0  0  0  0  0  2  0  0  0  0  0  0
  189.5870  177.7700  147.7450 C   0  0  0  0  0  1  0  0  0  0  0  0
  184.9210  178.1470  141.6950 O   0  0  0  0  0  0  0  0  0  0  0  0
  183.9980  178.3270  140.6180 C   0  0  2  0  0  3  0  0  0  0  0  0
  183.9570  178.0790  138.2640 C   0  0  1  0  0  3  0  0  0  0  0  0
  183.3030  177.1390  140.3470 O   0  0  0  0  0  0  0  0  0  0  0  0
  184.5440  180.1660  139.2160 O   0  0  0  0  0  1  0  0  0  0  0  0
  184.6970  178.7880  139.3580 C   0  0  1  0  0  3  0  0  0  0  0  0
  184.9170  177.1850  137.5040 C   0  0  0  0  0  1  0  0  0  0  0  0
  182.9400  177.2270  138.9930 C   0  0  0  0  0  2  0  0  0  0  0  0
  1 10  2  0  0  0  0
  1 11  1  0  0  0  0
  3  5  1  6  0  0  0
  3  9  1  0  0  0  0
  4  8  1  0  0  0  0
  4  7  1  0  0  0  0
  5 11  1  0  0  0  0
  6  8  2  0  0  0  0
  7  2  2  0  0  0  0
  9  7  1  0  0  0  0
  9 19  1  1  0  0  0
 10  6  1  0  0  0  0
 11  4  2  0  0  0  0
 13 15  1  0  0  0  0
 14 18  1  0  0  0  0
 15 12  1  6  0  0  0
 15  3  1  0  0  0  0
 16 14  2  0  0  0  0
 16 13  1  0  0  0  0
 17 14  1  0  0  0  0
 18 12  1  0  0  0  0
 19 20  1  0  0  0  0
 21  1  1  0  0  0  0
 22 21  1  1  0  0  0
 23 27  1  1  0  0  0
 23 28  1  0  0  0  0
 23 26  1  0  0  0  0
 24 22  1  0  0  0  0
 26 25  1  6  0  0  0
 26 22  1  0  0  0  0
 28 24  1  0  0  0  0
M  END
>  <MODEL>
1

>  <REMARK>
 VINA RESULT:      -9.8      0.000      0.000
  Name = 
  4 active torsions:
  status: ('A' for Active; 'I' for Inactive)
    1  A    between atoms: C_1  and  O_2
    2  A    between atoms: O_2  and  C_3
    3  A    between atoms: C_10  and  C_13
    4  A    between atoms: C_14  and  C_25
                            x       y       z     vdW  Elec       q    Type
                         _______ _______ _______ _____ _____    ______ ____

>  <TORSDO>
F 4

$$$$
=
 OpenBabel10262420553D

 28 31  0  0  1  0  0  0  0  0999 V2000
  186.2160  178.5420  140.4370 C   0  0  0  0  0  0  0  0  0  0  0  0
  183.5780  178.7740  144.4170 O   0  0  0  0  0  0  0  0  0  0  0  0
  187.1100  177.7150  144.0280 C   0  0  2  0  0  3  0  0  0  0  0  0
  184.8270  178.6060  142.4200 C   0  0  0  0  0  0  0  0  0  0  0  0
  187.2260  178.1840  142.6470 N   0  0  0  0  0  2  0  0  0  0  0  0
  183.8320  178.9300  140.2880 C   0  0  0  0  0  3  0  0  0  0  0  0
  184.7050  178.5740  143.8860 C   0  0  0  0  0  0  0  0  0  0  0  0
  183.7360  178.8430  141.6410 N   0  0  0  0  0  0  0  0  0  0  0  0
  185.9320  178.4080  144.7580 C   0  0  1  0  0  3  0  0  0  0  0  0
  185.0710  178.7860  139.6640 C   0  0  0  0  0  3  0  0  0  0  0  0
  186.0840  178.4380  141.8290 C   0  0  0  0  0  0  0  0  0  0  0  0
  189.6300  177.6870  143.8150 C   0  0  0  0  0  2  0  0  0  0  0  0
  188.5580  177.0780  145.8930 O   0  0  0  0  0  0  0  0  0  0  0  0
  190.9390  177.1070  145.8700 C   0  0  0  0  0  0  0  0  0  0  0  0
  188.4460  177.9330  144.7520 C   0  0  2  0  0  3  0  0  0  0  0  0
  189.7960  176.7610  146.4660 C   0  0  0  0  0  3  0  0  0  0  0  0
  192.1200  176.8080  146.4600 F   0  0  0  0  0  0  0  0  0  0  0  0
  190.9290  177.8960  144.5900 C   0  0  0  0  0  2  0  0  0  0  0  0
  185.5840  177.7070  146.0780 C   0  0  0  0  0  2  0  0  0  0  0  0
  185.6990  178.6420  147.2740 C   0  0  0  0  0  1  0  0  0  0  0  0
  187.4840  178.3930  139.8550 O   0  0  0  0  0  0  0  0  0  0  0  0
  187.7270  178.0630  138.4860 C   0  0  2  0  0  3  0  0  0  0  0  0
  189.5520  177.4420  137.1130 C   0  0  1  0  0  3  0  0  0  0  0  0
  187.6240  176.6800  138.2760 O   0  0  0  0  0  0  0  0  0  0  0  0
  188.9670  179.7270  137.3290 O   0  0  0  0  0  1  0  0  0  0  0  0
  189.0920  178.5310  138.0350 C   0  0  1  0  0  3  0  0  0  0  0  0
  190.8310  176.8310  137.6530 C   0  0  0  0  0  1  0  0  0  0  0  0
  188.4390  176.4170  137.1630 C   0  0  0  0  0  2  0  0  0  0  0  0
  1 11  1  0  0  0  0
  3  5  1  6  0  0  0
  3 15  1  0  0  0  0
  3  9  1  0  0  0  0
  4  7  1  0  0  0  0
  6  8  2  0  0  0  0
  7  2  2  0  0  0  0
  7  9  1  0  0  0  0
  8  4  1  0  0  0  0
  9 19  1  1  0  0  0
 10  6  1  0  0  0  0
 10  1  2  0  0  0  0
 11  4  2  0  0  0  0
 11  5  1  0  0  0  0
 12 18  1  0  0  0  0
 13 16  1  0  0  0  0
 14 17  1  0  0  0  0
 14 16  2  0  0  0  0
 15 12  1  6  0  0  0
 15 13  1  0  0  0  0
 18 14  1  0  0  0  0
 19 20  1  0  0  0  0
 21  1  1  0  0  0  0
 22 21  1  1  0  0  0
 23 28  1  0  0  0  0
 23 27  1  1  0  0  0
 23 26  1  0  0  0  0
 24 22  1  0  0  0  0
 26 25  1  6  0  0  0
 26 22  1  0  0  0  0
 28 24  1  0  0  0  0
M  END
>  <MODEL>
2

>  <REMARK>
 VINA RESULT:      -8.4      2.838      3.877
  Name = 
  4 active torsions:
  status: ('A' for Active; 'I' for Inactive)
    1  A    between atoms: C_1  and  O_2
    2  A    between atoms: O_2  and  C_3
    3  A    between atoms: C_10  and  C_13
    4  A    between atoms: C_14  and  C_25
                            x       y       z     vdW  Elec       q    Type
                         _______ _______ _______ _____ _____    ______ ____

>  <TORSDO>
F 4

$$$$
=
 OpenBabel10262420553D

 28 31  0  0  1  0  0  0  0  0999 V2000
  189.2690  177.8580  141.9060 C   0  0  0  0  0  0  0  0  0  0  0  0
  188.3900  176.9610  146.5190 O   0  0  0  0  0  0  0  0  0  0  0  0
  186.0950  178.3020  143.9330 C   0  0  2  0  0  3  0  0  0  0  0  0
  188.8830  177.4570  144.2630 C   0  0  0  0  0  0  0  0  0  0  0  0
  186.9920  178.0130  142.8130 N   0  0  0  0  0  2  0  0  0  0  0  0
  191.0940  177.3270  143.4050 C   0  0  0  0  0  3  0  0  0  0  0  0
  187.9470  177.3020  145.3870 C   0  0  0  0  0  0  0  0  0  0  0  0
  190.2150  177.2420  144.4380 N   0  0  0  0  0  0  0  0  0  0  0  0
  186.4540  177.4450  145.1730 C   0  0  1  0  0  3  0  0  0  0  0  0
  190.6370  177.6310  142.1220 C   0  0  0  0  0  3  0  0  0  0  0  0
  188.3900  177.7830  142.9940 C   0  0  0  0  0  0  0  0  0  0  0  0
  184.4720  178.3880  141.9950 C   0  0  0  0  0  2  0  0  0  0  0  0
  183.7480  178.9120  144.2400 O   0  0  0  0  0  0  0  0  0  0  0  0
  182.0880  178.9340  142.5330 C   0  0  0  0  0  0  0  0  0  0  0  0
  184.6430  178.0900  143.4860 C   0  0  2  0  0  3  0  0  0  0  0  0
  182.4670  179.2370  143.7770 C   0  0  0  0  0  3  0  0  0  0  0  0
  180.8350  179.2390  142.1220 F   0  0  0  0  0  0  0  0  0  0  0  0
  183.0080  178.1840  141.6110 C   0  0  0  0  0  2  0  0  0  0  0  0
  185.7580  177.9540  146.4420 C   0  0  0  0  0  2  0  0  0  0  0  0
  186.0230  179.4310  146.6930 C   0  0  0  0  0  1  0  0  0  0  0  0
  188.7620  178.1630  140.6340 O   0  0  0  0  0  0  0  0  0  0  0  0
  189.5000  178.0790  139.4130 C   0  0  2  0  0  3  0  0  0  0  0  0
  189.3300  176.9990  137.3130 C   0  0  1  0  0  3  0  0  0  0  0  0
  189.0640  179.0450  138.4940 O   0  0  0  0  0  0  0  0  0  0  0  0
  190.5160  175.9570  139.0780 O   0  0  0  0  0  1  0  0  0  0  0  0
  189.3800  176.7090  138.7830 C   0  0  1  0  0  3  0  0  0  0  0  0
  188.0200  176.4880  136.7440 C   0  0  0  0  0  1  0  0  0  0  0  0
  189.3640  178.5100  137.2300 C   0  0  0  0  0  2  0  0  0  0  0  0
  1 10  2  0  0  0  0
  1 11  1  0  0  0  0
  3  5  1  6  0  0  0
  3  9  1  0  0  0  0
  4  8  1  0  0  0  0
  4  7  1  0  0  0  0
  5 11  1  0  0  0  0
  6  8  2  0  0  0  0
  7  2  2  0  0  0  0
  9  7  1  0  0  0  0
  9 19  1  1  0  0  0
 10  6  1  0  0  0  0
 11  4  2  0  0  0  0
 14 16  2  0  0  0  0
 15 12  1  6  0  0  0
 15  3  1  0  0  0  0
 15 13  1  0  0  0  0
 16 13  1  0  0  0  0
 17 14  1  0  0  0  0
 18 12  1  0  0  0  0
 18 14  1  0  0  0  0
 19 20  1  0  0  0  0
 21  1  1  0  0  0  0
 22 21  1  1  0  0  0
 23 27  1  1  0  0  0
 23 26  1  0  0  0  0
 24 22  1  0  0  0  0
 26 25  1  6  0  0  0
 26 22  1  0  0  0  0
 28 23  1  0  0  0  0
 28 24  1  0  0  0  0
M  END
>  <MODEL>
3

>  <REMARK>
 VINA RESULT:      -8.2      3.238      5.877
  Name = 
  4 active torsions:
  status: ('A' for Active; 'I' for Inactive)
    1  A    between atoms: C_1  and  O_2
    2  A    between atoms: O_2  and  C_3
    3  A    between atoms: C_10  and  C_13
    4  A    between atoms: C_14  and  C_25
                            x       y       z     vdW  Elec       q    Type
                         _______ _______ _______ _____ _____    ______ ____

>  <TORSDO>
F 4

$$$$
=
 OpenBabel10262420553D

 28 31  0  0  1  0  0  0  0  0999 V2000
  189.2190  176.8390  141.2340 C   0  0  0  0  0  0  0  0  0  0  0  0
  185.4400  179.7530  140.9520 O   0  0  0  0  0  0  0  0  0  0  0  0
  186.3900  177.4370  143.6870 C   0  0  2  0  0  3  0  0  0  0  0  0
  187.2800  178.2750  141.0230 C   0  0  0  0  0  0  0  0  0  0  0  0
  187.7260  177.1650  143.1580 N   0  0  0  0  0  2  0  0  0  0  0  0
  188.7020  177.9510  139.1480 C   0  0  0  0  0  3  0  0  0  0  0  0
  186.1250  178.9450  141.6380 C   0  0  0  0  0  0  0  0  0  0  0  0
  187.6080  178.5160  139.7240 N   0  0  0  0  0  0  0  0  0  0  0  0
  185.8160  178.7550  143.1090 C   0  0  1  0  0  3  0  0  0  0  0  0
  189.5270  177.1080  139.8920 C   0  0  0  0  0  3  0  0  0  0  0  0
  188.0750  177.4210  141.7970 C   0  0  0  0  0  0  0  0  0  0  0  0
  186.0610  178.8290  145.7730 C   0  0  0  0  0  2  0  0  0  0  0  0
  187.7510  177.1050  145.6900 O   0  0  0  0  0  0  0  0  0  0  0  0
  187.4860  178.2640  147.7530 C   0  0  0  0  0  0  0  0  0  0  0  0
  186.4470  177.4560  145.2200 C   0  0  2  0  0  3  0  0  0  0  0  0
  188.1970  177.4470  146.9730 C   0  0  0  0  0  3  0  0  0  0  0  0
  187.9300  178.5570  148.9980 F   0  0  0  0  0  0  0  0  0  0  0  0
  186.1570  178.7980  147.2970 C   0  0  0  0  0  2  0  0  0  0  0  0
  184.3120  178.8940  143.3830 C   0  0  0  0  0  2  0  0  0  0  0  0
  183.4660  178.2240  142.3110 C   0  0  0  0  0  1  0  0  0  0  0  0
  190.0210  176.0010  142.0240 O   0  0  0  0  0  0  0  0  0  0  0  0
  191.0850  176.4410  142.8710 C   0  0  2  0  0  3  0  0  0  0  0  0
  191.8320  178.4510  143.8730 C   0  0  1  0  0  3  0  0  0  0  0  0
  190.7090  176.3850  144.2210 O   0  0  0  0  0  0  0  0  0  0  0  0
  192.6650  177.8170  141.7490 O   0  0  0  0  0  1  0  0  0  0  0  0
  191.5150  177.8520  142.5360 C   0  0  1  0  0  3  0  0  0  0  0  0
  190.9300  179.6460  144.1170 C   0  0  0  0  0  1  0  0  0  0  0  0
  191.4990  177.3540  144.8620 C   0  0  0  0  0  2  0  0  0  0  0  0
  1 11  1  0  0  0  0
  1 21  1  0  0  0  0
  2  7  2  0  0  0  0
  3  5  1  6  0  0  0
  3 15  1  0  0  0  0
  4  7  1  0  0  0  0
  4 11  2  0  0  0  0
  6  8  2  0  0  0  0
  6 10  1  0  0  0  0
  7  9  1  0  0  0  0
  8  4  1  0  0  0  0
  9 19  1  6  0  0  0
  9  3  1  0  0  0  0
 10  1  2  0  0  0  0
 11  5  1  0  0  0  0
 12 18  1  0  0  0  0
 13 16  1  0  0  0  0
 14 17  1  0  0  0  0
 15 13  1  0  0  0  0
 15 12  1  6  0  0  0
 16 14  2  0  0  0  0
 18 14  1  0  0  0  0
 20 19  1  0  0  0  0
 22 21  1  6  0  0  0
 22 24  1  0  0  0  0
 23 27  1  1  0  0  0
 23 28  1  0  0  0  0
 24 28  1  0  0  0  0
 26 25  1  6  0  0  0
 26 22  1  0  0  0  0
 26 23  1  0  0  0  0
M  END
>  <MODEL>
4

>  <REMARK>
 VINA RESULT:      -8.2      2.773      6.656
  Name = 
  4 active torsions:
  status: ('A' for Active; 'I' for Inactive)
    1  A    between atoms: C_1  and  O_2
    2  A    between atoms: O_2  and  C_3
    3  A    between atoms: C_10  and  C_13
    4  A    between atoms: C_14  and  C_25
                            x       y       z     vdW  Elec       q    Type
                         _______ _______ _______ _____ _____    ______ ____

>  <TORSDO>
F 4

$$$$
=
 OpenBabel10262420553D

 28 31  0  0  1  0  0  0  0  0999 V2000
  189.9070  177.6620  140.6900 C   0  0  0  0  0  0  0  0  0  0  0  0
  191.4380  176.8510  145.1450 O   0  0  0  0  0  0  0  0  0  0  0  0
  188.1480  178.1360  144.0160 C   0  0  2  0  0  3  0  0  0  0  0  0
  190.7430  177.3050  142.9340 C   0  0  0  0  0  0  0  0  0  0  0  0
  188.3760  177.8280  142.6030 N   0  0  0  0  0  2  0  0  0  0  0  0
  192.2400  177.1640  141.0960 C   0  0  0  0  0  3  0  0  0  0  0  0
  190.4890  177.1690  144.3770 C   0  0  0  0  0  0  0  0  0  0  0  0
  191.9900  177.0960  142.4300 N   0  0  0  0  0  0  0  0  0  0  0  0
  189.0840  177.3040  144.9280 C   0  0  1  0  0  3  0  0  0  0  0  0
  191.2040  177.4430  140.2040 C   0  0  0  0  0  3  0  0  0  0  0  0
  189.6820  177.6050  142.0720 C   0  0  0  0  0  0  0  0  0  0  0  0
  185.7600  178.4690  143.2520 C   0  0  0  0  0  2  0  0  0  0  0  0
  186.3260  178.5160  145.6000 O   0  0  0  0  0  0  0  0  0  0  0  0
  184.0240  178.7410  145.0360 C   0  0  0  0  0  0  0  0  0  0  0  0
  186.6680  177.9120  144.3500 C   0  0  2  0  0  3  0  0  0  0  0  0
  185.0040  178.8330  145.9370 C   0  0  0  0  0  3  0  0  0  0  0  0
  182.7520  179.0310  145.3970 F   0  0  0  0  0  0  0  0  0  0  0  0
  184.3030  178.2400  143.6460 C   0  0  0  0  0  2  0  0  0  0  0  0
  189.1020  177.8350  146.3670 C   0  0  0  0  0  2  0  0  0  0  0  0
  188.8130  176.7430  147.3880 C   0  0  0  0  0  1  0  0  0  0  0  0
  188.8330  177.9410  139.8310 O   0  0  0  0  0  0  0  0  0  0  0  0
  188.9030  177.9550  138.4040 C   0  0  2  0  0  3  0  0  0  0  0  0
  187.7070  177.0630  136.5650 C   0  0  1  0  0  3  0  0  0  0  0  0
  188.1370  179.0020  137.8720 O   0  0  0  0  0  0  0  0  0  0  0  0
  189.5280  175.8570  137.4790 O   0  0  0  0  0  1  0  0  0  0  0  0
  188.4280  176.6460  137.8120 C   0  0  1  0  0  3  0  0  0  0  0  0
  186.2590  176.6210  136.6500 C   0  0  0  0  0  1  0  0  0  0  0  0
  187.7780  178.5760  136.5830 C   0  0  0  0  0  2  0  0  0  0  0  0
  1 11  1  0  0  0  0
  3  5  1  6  0  0  0
  3 15  1  0  0  0  0
  3  9  1  0  0  0  0
  4  7  1  0  0  0  0
  6  8  2  0  0  0  0
  7  9  1  0  0  0  0
  7  2  2  0  0  0  0
  8  4  1  0  0  0  0
  9 19  1  1  0  0  0
 10  1  2  0  0  0  0
 10  6  1  0  0  0  0
 11  5  1  0  0  0  0
 11  4  2  0  0  0  0
 12 18  1  0  0  0  0
 13 16  1  0  0  0  0
 14 17  1  0  0  0  0
 14 16  2  0  0  0  0
 15 12  1  6  0  0  0
 15 13  1  0  0  0  0
 18 14  1  0  0  0  0
 19 20  1  0  0  0  0
 21  1  1  0  0  0  0
 22 21  1  1  0  0  0
 23 28  1  0  0  0  0
 23 27  1  1  0  0  0
 23 26  1  0  0  0  0
 24 22  1  0  0  0  0
 26 25  1  6  0  0  0
 26 22  1  0  0  0  0
 28 24  1  0  0  0  0
M  END
>  <MODEL>
5

>  <REMARK>
 VINA RESULT:      -8.1      3.236      5.748
  Name = 
  4 active torsions:
  status: ('A' for Active; 'I' for Inactive)
    1  A    between atoms: C_1  and  O_2
    2  A    between atoms: O_2  and  C_3
    3  A    between atoms: C_10  and  C_13
    4  A    between atoms: C_14  and  C_25
                            x       y       z     vdW  Elec       q    Type
                         _______ _______ _______ _____ _____    ______ ____

>  <TORSDO>
F 4

$$$$
=
 OpenBabel10262420553D

 28 31  0  0  1  0  0  0  0  0999 V2000
  189.1780  177.4140  141.3000 C   0  0  0  0  0  0  0  0  0  0  0  0
  186.8640  177.3640  145.4820 O   0  0  0  0  0  0  0  0  0  0  0  0
  185.8960  179.0210  142.3100 C   0  0  2  0  0  3  0  0  0  0  0  0
  188.0720  177.4240  143.4540 C   0  0  0  0  0  0  0  0  0  0  0  0
  186.9160  178.3490  141.5050 N   0  0  0  0  0  2  0  0  0  0  0  0
  190.2680  176.5380  143.2750 C   0  0  0  0  0  3  0  0  0  0  0  0
  186.8720  177.6890  144.2630 C   0  0  0  0  0  0  0  0  0  0  0  0
  189.1670  176.8410  144.0120 N   0  0  0  0  0  0  0  0  0  0  0  0
  185.6180  178.2470  143.6230 C   0  0  1  0  0  3  0  0  0  0  0  0
  190.2910  176.8150  141.9070 C   0  0  0  0  0  3  0  0  0  0  0  0
  188.0650  177.7330  142.0880 C   0  0  0  0  0  0  0  0  0  0  0  0
  183.8830  177.8790  141.2890 C   0  0  0  0  0  2  0  0  0  0  0  0
  184.9360  179.7520  140.1840 O   0  0  0  0  0  0  0  0  0  0  0  0
  182.9880  178.8440  139.1580 C   0  0  0  0  0  0  0  0  0  0  0  0
  184.6260  179.2050  141.4680 C   0  0  2  0  0  3  0  0  0  0  0  0
  184.0670  179.6270  139.0920 C   0  0  0  0  0  3  0  0  0  0  0  0
  182.1540  178.7620  138.0950 F   0  0  0  0  0  0  0  0  0  0  0  0
  182.6450  178.1150  140.4280 C   0  0  0  0  0  2  0  0  0  0  0  0
  184.8100  179.0840  144.6230 C   0  0  0  0  0  2  0  0  0  0  0  0
  183.3620  178.6280  144.7200 C   0  0  0  0  0  1  0  0  0  0  0  0
  189.1540  177.7080  139.9280 O   0  0  0  0  0  0  0  0  0  0  0  0
  188.6830  176.8250  138.9070 C   0  0  2  0  0  3  0  0  0  0  0  0
  188.3860  176.8360  136.5580 C   0  0  1  0  0  3  0  0  0  0  0  0
  189.7380  176.0800  138.3610 O   0  0  0  0  0  0  0  0  0  0  0  0
  186.6060  177.5010  137.9710 O   0  0  0  0  0  1  0  0  0  0  0  0
  187.9870  177.5810  137.7960 C   0  0  1  0  0  3  0  0  0  0  0  0
  189.1350  177.7710  135.6280 C   0  0  0  0  0  1  0  0  0  0  0  0
  189.3240  175.7580  137.0580 C   0  0  0  0  0  2  0  0  0  0  0  0
  1 10  2  0  0  0  0
  1 11  1  0  0  0  0
  3  5  1  6  0  0  0
  3  9  1  0  0  0  0
  4  8  1  0  0  0  0
  4  7  1  0  0  0  0
  5 11  1  0  0  0  0
  6  8  2  0  0  0  0
  7  2  2  0  0  0  0
  9  7  1  0  0  0  0
  9 19  1  1  0  0  0
 10  6  1  0  0  0  0
 11  4  2  0  0  0  0
 13 15  1  0  0  0  0
 14 18  1  0  0  0  0
 15 12  1  6  0  0  0
 15  3  1  0  0  0  0
 16 14  2  0  0  0  0
 16 13  1  0  0  0  0
 17 14  1  0  0  0  0
 18 12  1  0  0  0  0
 19 20  1  0  0  0  0
 21  1  1  0  0  0  0
 22 21  1  1  0  0  0
 23 27  1  6  0  0  0
 23 28  1  0  0  0  0
 23 26  1  0  0  0  0
 24 22  1  0  0  0  0
 26 25  1  1  0  0  0
 26 22  1  0  0  0  0
 28 24  1  0  0  0  0
M  END
>  <MODEL>
6

>  <REMARK>
 VINA RESULT:      -8.0      3.107      5.838
  Name = 
  4 active torsions:
  status: ('A' for Active; 'I' for Inactive)
    1  A    between atoms: C_1  and  O_2
    2  A    between atoms: O_2  and  C_3
    3  A    between atoms: C_10  and  C_13
    4  A    between atoms: C_14  and  C_25
                            x       y       z     vdW  Elec       q    Type
                         _______ _______ _______ _____ _____    ______ ____

>  <TORSDO>
F 4

$$$$
=
 OpenBabel10262420553D

 28 31  0  0  1  0  0  0  0  0999 V2000
  187.2820  178.3520  139.1590 C   0  0  0  0  0  0  0  0  0  0  0  0
  191.6820  176.7150  140.0600 O   0  0  0  0  0  0  0  0  0  0  0  0
  189.0870  177.8470  142.4550 C   0  0  2  0  0  3  0  0  0  0  0  0
  189.5410  177.5850  139.5710 C   0  0  0  0  0  0  0  0  0  0  0  0
  188.0170  177.9000  141.4580 N   0  0  0  0  0  2  0  0  0  0  0  0
  188.8520  178.0400  137.3440 C   0  0  0  0  0  3  0  0  0  0  0  0
  190.5630  177.0930  140.5070 C   0  0  0  0  0  0  0  0  0  0  0  0
  189.7970  177.6400  138.2350 N   0  0  0  0  0  0  0  0  0  0  0  0
  190.2490  176.9380  141.9810 C   0  0  1  0  0  3  0  0  0  0  0  0
  187.5790  178.3980  137.7890 C   0  0  0  0  0  3  0  0  0  0  0  0
  188.2810  177.9530  140.0560 C   0  0  0  0  0  0  0  0  0  0  0  0
  187.0220  177.7410  143.9110 C   0  0  0  0  0  2  0  0  0  0  0  0
  189.2180  177.9690  144.8930 O   0  0  0  0  0  0  0  0  0  0  0  0
  187.3760  177.7780  146.3900 C   0  0  0  0  0  0  0  0  0  0  0  0
  188.5060  177.3860  143.7980 C   0  0  2  0  0  3  0  0  0  0  0  0
  188.6610  178.0690  146.1740 C   0  0  0  0  0  3  0  0  0  0  0  0
  186.8720  177.8610  147.6440 F   0  0  0  0  0  0  0  0  0  0  0  0
  186.5020  177.2820  145.2720 C   0  0  0  0  0  2  0  0  0  0  0  0
  191.5070  177.1220  142.8390 C   0  0  0  0  0  2  0  0  0  0  0  0
  191.7580  175.9340  143.7560 C   0  0  0  0  0  1  0  0  0  0  0  0
  186.0150  178.6990  139.6530 O   0  0  0  0  0  0  0  0  0  0  0  0
  184.8520  178.9210  138.8510 C   0  0  2  0  0  3  0  0  0  0  0  0
  182.5120  178.5930  139.0000 C   0  0  1  0  0  3  0  0  0  0  0  0
  184.2840  180.1740  139.1260 O   0  0  0  0  0  0  0  0  0  0  0  0
  183.8760  176.9110  138.0420 O   0  0  0  0  0  1  0  0  0  0  0  0
  183.8100  177.8470  139.0730 C   0  0  1  0  0  3  0  0  0  0  0  0
  181.7740  178.4500  140.3160 C   0  0  0  0  0  1  0  0  0  0  0  0
  182.9240  180.0380  138.8040 C   0  0  0  0  0  2  0  0  0  0  0  0
  1 21  1  0  0  0  0
  1 11  1  0  0  0  0
  2  7  2  0  0  0  0
  3  5  1  6  0  0  0
  3 15  1  0  0  0  0
  4 11  2  0  0  0  0
  4  7  1  0  0  0  0
  6 10  1  0  0  0  0
  6  8  2  0  0  0  0
  7  9  1  0  0  0  0
  8  4  1  0  0  0  0
  9  3  1  0  0  0  0
  9 19  1  1  0  0  0
 10  1  2  0  0  0  0
 11  5  1  0  0  0  0
 12 18  1  0  0  0  0
 13 16  1  0  0  0  0
 14 17  1  0  0  0  0
 15 12  1  6  0  0  0
 15 13  1  0  0  0  0
 16 14  2  0  0  0  0
 18 14  1  0  0  0  0
 19 20  1  0  0  0  0
 22 26  1  0  0  0  0
 22 24  1  0  0  0  0
 22 21  1  1  0  0  0
 23 26  1  0  0  0  0
 23 27  1  1  0  0  0
 26 25  1  6  0  0  0
 28 23  1  0  0  0  0
 28 24  1  0  0  0  0
M  END
>  <MODEL>
7

>  <REMARK>
 VINA RESULT:      -8.0      2.813      5.321
  Name = 
  4 active torsions:
  status: ('A' for Active; 'I' for Inactive)
    1  A    between atoms: C_1  and  O_2
    2  A    between atoms: O_2  and  C_3
    3  A    between atoms: C_10  and  C_13
    4  A    between atoms: C_14  and  C_25
                            x       y       z     vdW  Elec       q    Type
                         _______ _______ _______ _____ _____    ______ ____

>  <TORSDO>
F 4

$$$$
=
 OpenBabel10262420553D

 28 31  0  0  1  0  0  0  0  0999 V2000
  189.2340  178.2270  140.0780 C   0  0  0  0  0  0  0  0  0  0  0  0
  187.4900  176.6680  144.2460 O   0  0  0  0  0  0  0  0  0  0  0  0
  185.9480  178.9970  141.8070 C   0  0  2  0  0  3  0  0  0  0  0  0
  188.4150  177.4710  142.2270 C   0  0  0  0  0  0  0  0  0  0  0  0
  186.9260  178.7320  140.7520 N   0  0  0  0  0  2  0  0  0  0  0  0
  190.6560  176.9950  141.5990 C   0  0  0  0  0  3  0  0  0  0  0  0
  187.3060  177.3210  143.1820 C   0  0  0  0  0  0  0  0  0  0  0  0
  189.6310  176.9170  142.4880 N   0  0  0  0  0  0  0  0  0  0  0  0
  185.9270  177.8520  142.8510 C   0  0  1  0  0  3  0  0  0  0  0  0
  190.4740  177.6460  140.3780 C   0  0  0  0  0  3  0  0  0  0  0  0
  188.2010  178.1480  141.0210 C   0  0  0  0  0  0  0  0  0  0  0  0
  183.7580  177.9300  141.1270 C   0  0  0  0  0  2  0  0  0  0  0  0
  184.6930  179.7580  139.8520 O   0  0  0  0  0  0  0  0  0  0  0  0
  182.5750  178.9220  139.1550 C   0  0  0  0  0  0  0  0  0  0  0  0
  184.5690  179.2260  141.1740 C   0  0  2  0  0  3  0  0  0  0  0  0
  183.6590  179.6630  138.9120 C   0  0  0  0  0  3  0  0  0  0  0  0
  181.5810  178.8690  138.2370 F   0  0  0  0  0  0  0  0  0  0  0  0
  182.4090  178.2110  140.4690 C   0  0  0  0  0  2  0  0  0  0  0  0
  185.1650  178.2490  144.1220 C   0  0  0  0  0  2  0  0  0  0  0  0
  185.2390  179.7440  144.3960 C   0  0  0  0  0  1  0  0  0  0  0  0
  189.0020  178.8890  138.8620 O   0  0  0  0  0  0  0  0  0  0  0  0
  188.6880  178.2480  137.6240 C   0  0  2  0  0  3  0  0  0  0  0  0
  186.9580  176.9130  136.7120 C   0  0  1  0  0  3  0  0  0  0  0  0
  187.9170  179.0870  136.8050 O   0  0  0  0  0  0  0  0  0  0  0  0
  188.8270  175.8790  137.7360 O   0  0  0  0  0  1  0  0  0  0  0  0
  187.9420  176.9510  137.8430 C   0  0  1  0  0  3  0  0  0  0  0  0
  185.5490  176.8800  137.2720 C   0  0  0  0  0  1  0  0  0  0  0  0
  187.1830  178.2190  135.9800 C   0  0  0  0  0  2  0  0  0  0  0  0
  1 10  2  0  0  0  0
  1 11  1  0  0  0  0
  3  5  1  6  0  0  0
  3  9  1  0  0  0  0
  4  8  1  0  0  0  0
  4  7  1  0  0  0  0
  5 11  1  0  0  0  0
  6  8  2  0  0  0  0
  7  2  2  0  0  0  0
  9  7  1  0  0  0  0
  9 19  1  1  0  0  0
 10  6  1  0  0  0  0
 11  4  2  0  0  0  0
 13 15  1  0  0  0  0
 14 18  1  0  0  0  0
 15 12  1  6  0  0  0
 15  3  1  0  0  0  0
 16 14  2  0  0  0  0
 16 13  1  0  0  0  0
 17 14  1  0  0  0  0
 18 12  1  0  0  0  0
 19 20  1  0  0  0  0
 21  1  1  0  0  0  0
 22 26  1  0  0  0  0
 22 21  1  1  0  0  0
 23 27  1  1  0  0  0
 23 26  1  0  0  0  0
 24 22  1  0  0  0  0
 26 25  1  6  0  0  0
 28 23  1  0  0  0  0
 28 24  1  0  0  0  0
M  END
>  <MODEL>
8

>  <REMARK>
 VINA RESULT:      -7.9      3.258      6.051
  Name = 
  4 active torsions:
  status: ('A' for Active; 'I' for Inactive)
    1  A    between atoms: C_1  and  O_2
    2  A    between atoms: O_2  and  C_3
    3  A    between atoms: C_10  and  C_13
    4  A    between atoms: C_14  and  C_25
                            x       y       z     vdW  Elec       q    Type
                         _______ _______ _______ _____ _____    ______ ____

>  <TORSDO>
F 4

$$$$
=
 OpenBabel10262420553D

 28 31  0  0  1  0  0  0  0  0999 V2000
  184.6630  178.6020  143.2600 C   0  0  0  0  0  0  0  0  0  0  0  0
  180.7050  179.1120  140.6280 O   0  0  0  0  0  0  0  0  0  0  0  0
  184.2480  179.1970  139.5380 C   0  0  2  0  0  3  0  0  0  0  0  0
  182.6380  178.9260  141.9720 C   0  0  0  0  0  0  0  0  0  0  0  0
  184.7780  178.7000  140.8080 N   0  0  0  0  0  2  0  0  0  0  0  0
  182.5140  178.8570  144.3440 C   0  0  0  0  0  3  0  0  0  0  0  0
  181.9620  179.0030  140.6680 C   0  0  0  0  0  0  0  0  0  0  0  0
  181.9190  178.9780  143.1270 N   0  0  0  0  0  0  0  0  0  0  0  0
  182.7470  178.8470  139.3820 C   0  0  1  0  0  3  0  0  0  0  0  0
  183.8930  178.6620  144.4310 C   0  0  0  0  0  3  0  0  0  0  0  0
  184.0260  178.7500  142.0210 C   0  0  0  0  0  0  0  0  0  0  0  0
  184.6510  177.2260  138.0050 C   0  0  0  0  0  2  0  0  0  0  0  0
  186.4820  178.6280  138.7250 O   0  0  0  0  0  0  0  0  0  0  0  0
  186.9960  176.8720  137.2000 C   0  0  0  0  0  0  0  0  0  0  0  0
  185.0930  178.6400  138.3850 C   0  0  2  0  0  3  0  0  0  0  0  0
  187.4030  177.8050  138.0640 C   0  0  0  0  0  3  0  0  0  0  0  0
  187.9110  176.1080  136.5580 F   0  0  0  0  0  0  0  0  0  0  0  0
  185.5370  176.7140  136.8720 C   0  0  0  0  0  2  0  0  0  0  0  0
  182.0930  179.6260  138.2340 C   0  0  0  0  0  2  0  0  0  0  0  0
  181.4160  178.7080  137.2270 C   0  0  0  0  0  1  0  0  0  0  0  0
  186.0520  178.4050  143.2980 O   0  0  0  0  0  0  0  0  0  0  0  0
  186.7400  177.5790  144.2400 C   0  0  2  0  0  3  0  0  0  0  0  0
  188.9650  177.1590  144.9320 C   0  0  1  0  0  3  0  0  0  0  0  0
  186.9190  178.2500  145.4590 O   0  0  0  0  0  0  0  0  0  0  0  0
  187.9970  175.8410  143.2180 O   0  0  0  0  0  1  0  0  0  0  0  0
  188.0890  177.1410  143.7150 C   0  0  1  0  0  3  0  0  0  0  0  0
  190.1020  178.1390  144.7180 C   0  0  0  0  0  1  0  0  0  0  0  0
  188.0590  177.6650  146.0350 C   0  0  0  0  0  2  0  0  0  0  0  0
  1 21  1  0  0  0  0
  1 10  1  0  0  0  0
  2  7  2  0  0  0  0
  3  5  1  1  0  0  0
  4 11  1  0  0  0  0
  4  8  2  0  0  0  0
  5 11  1  0  0  0  0
  6 10  2  0  0  0  0
  7  4  1  0  0  0  0
  8  6  1  0  0  0  0
  9 19  1  6  0  0  0
  9  3  1  0  0  0  0
  9  7  1  0  0  0  0
 11  1  2  0  0  0  0
 14 16  2  0  0  0  0
 15 12  1  1  0  0  0
 15 13  1  0  0  0  0
 15  3  1  0  0  0  0
 16 13  1  0  0  0  0
 17 14  1  0  0  0  0
 18 14  1  0  0  0  0
 18 12  1  0  0  0  0
 20 19  1  0  0  0  0
 22 21  1  6  0  0  0
 22 24  1  0  0  0  0
 23 27  1  6  0  0  0
 23 28  1  0  0  0  0
 24 28  1  0  0  0  0
 26 25  1  1  0  0  0
 26 22  1  0  0  0  0
 26 23  1  0  0  0  0
M  END
>  <MODEL>
9

>  <REMARK>
 VINA RESULT:      -7.7      2.251      6.805
  Name = 
  4 active torsions:
  status: ('A' for Active; 'I' for Inactive)
    1  A    between atoms: C_1  and  O_2
    2  A    between atoms: O_2  and  C_3
    3  A    between atoms: C_10  and  C_13
    4  A    between atoms: C_14  and  C_25
                            x       y       z     vdW  Elec       q    Type
                         _______ _______ _______ _____ _____    ______ ____

>  <TORSDO>
F 4

$$$$
