=
 OpenBabel10262420063D

 27 31  0  0  1  0  0  0  0  0999 V2000
  187.8440  176.3600  143.4570 C   0  0  0  0  0  2  0  0  0  0  0  0
  187.1560  177.7950  141.5740 C   0  0  0  0  0  0  0  0  0  0  0  0
  189.6830  177.8750  141.6590 N   0  0  0  0  0  2  0  0  0  0  0  0
  187.4880  178.6720  137.4710 C   0  0  0  0  0  2  0  0  0  0  0  0
  189.3810  180.0460  137.0150 F   0  0  0  0  0  0  0  0  0  0  0  0
  186.0280  177.9640  140.8200 N   0  0  0  0  0  0  0  0  0  0  0  0
  189.6240  178.3830  138.7080 C   0  0  2  0  0  3  0  0  0  0  0  0
  191.6090  177.7900  144.8380 C   0  0  0  0  0  3  0  0  0  0  0  0
  190.4080  177.0900  138.5700 C   0  0  0  0  0  1  0  0  0  0  0  0
  190.7300  177.1040  145.6730 C   0  0  0  0  0  0  0  0  0  0  0  0
  188.4420  178.1770  139.5830 C   0  0  0  0  0  0  0  0  0  0  0  0
  187.0220  177.4500  142.9580 N   0  0  0  0  0  0  0  0  0  0  0  0
  189.0160  178.7540  137.3450 C   0  0  1  0  0  3  0  0  0  0  0  0
  187.2790  178.3400  138.8930 C   0  0  0  0  0  0  0  0  0  0  0  0
  189.1480  176.8990  143.9080 C   0  0  0  0  0  0  0  0  0  0  0  0
  188.4270  177.9100  140.9550 C   0  0  0  0  0  0  0  0  0  0  0  0
  191.2380  178.0340  143.5150 C   0  0  0  0  0  3  0  0  0  0  0  0
  186.0820  178.2370  139.5120 N   0  0  0  0  0  0  0  0  0  0  0  0
  191.0890  176.8450  147.0240 N   0  0  0  0  0  1  0  0  0  0  0  0
  189.5340  176.6710  145.1940 N   0  0  0  0  0  0  0  0  0  0  0  0
  189.9970  177.6060  143.0350 C   0  0  0  0  0  0  0  0  0  0  0  0
  184.2250  179.3870  145.5150 C   0  0  0  0  0  3  0  0  0  0  0  0
  186.0830  178.1170  143.8290 C   0  0  0  0  0  0  0  0  0  0  0  0
  186.1400  177.9380  145.2220 C   0  0  0  0  0  3  0  0  0  0  0  0
  185.2190  178.5710  146.0600 C   0  0  0  0  0  3  0  0  0  0  0  0
  184.1520  179.5700  144.1320 C   0  0  0  0  0  3  0  0  0  0  0  0
  185.0740  178.9370  143.2950 C   0  0  0  0  0  3  0  0  0  0  0  0
  1 15  1  0  0  0  0
  2 12  1  0  0  0  0
  3 21  1  0  0  0  0
  4 14  1  0  0  0  0
  6  2  2  0  0  0  0
  7  9  1  6  0  0  0
  7 11  1  0  0  0  0
  8 10  1  0  0  0  0
 10 19  1  0  0  0  0
 11 16  2  0  0  0  0
 12  1  1  0  0  0  0
 12 23  1  0  0  0  0
 13  5  1  1  0  0  0
 13  4  1  0  0  0  0
 13  7  1  0  0  0  0
 14 18  2  0  0  0  0
 14 11  1  0  0  0  0
 15 20  1  0  0  0  0
 16  2  1  0  0  0  0
 16  3  1  0  0  0  0
 17  8  2  0  0  0  0
 18  6  1  0  0  0  0
 20 10  2  0  0  0  0
 21 17  1  0  0  0  0
 21 15  2  0  0  0  0
 22 25  1  0  0  0  0
 23 24  1  0  0  0  0
 24 25  2  0  0  0  0
 26 22  2  0  0  0  0
 27 23  2  0  0  0  0
 27 26  1  0  0  0  0
M  END
>  <MODEL>
1

>  <REMARK>
 VINA RESULT:      -8.7      0.000      0.000
  Name = 
  1 active torsions:
  status: ('A' for Active; 'I' for Inactive)
    1  A    between atoms: C_9  and  N_15
                            x       y       z     vdW  Elec       q    Type
                         _______ _______ _______ _____ _____    ______ ____

>  <TORSDO>
F 1

$$$$
=
 OpenBabel10262420063D

 27 31  0  0  1  0  0  0  0  0999 V2000
  188.6230  175.8510  143.0740 C   0  0  0  0  0  2  0  0  0  0  0  0
  187.1890  177.2520  144.5080 C   0  0  0  0  0  0  0  0  0  0  0  0
  187.0150  178.1960  142.1680 N   0  0  0  0  0  2  0  0  0  0  0  0
  183.3680  178.8730  145.2070 C   0  0  0  0  0  2  0  0  0  0  0  0
  183.0240  180.8790  143.9690 F   0  0  0  0  0  0  0  0  0  0  0  0
  186.6170  177.1400  145.7450 N   0  0  0  0  0  0  0  0  0  0  0  0
  184.2720  179.1460  142.9080 C   0  0  2  0  0  3  0  0  0  0  0  0
  189.8690  178.2520  139.7860 C   0  0  0  0  0  3  0  0  0  0  0  0
  183.7680  178.2530  141.7880 C   0  0  0  0  0  1  0  0  0  0  0  0
  190.6220  177.1700  140.2360 C   0  0  0  0  0  0  0  0  0  0  0  0
  185.2030  178.3930  143.7870 C   0  0  0  0  0  0  0  0  0  0  0  0
  188.4690  176.6510  144.2770 N   0  0  0  0  0  0  0  0  0  0  0  0
  183.0980  179.5060  143.8340 C   0  0  1  0  0  3  0  0  0  0  0  0
  184.6960  178.2520  145.0430 C   0  0  0  0  0  0  0  0  0  0  0  0
  189.0380  176.7270  141.9540 C   0  0  0  0  0  0  0  0  0  0  0  0
  186.4760  177.9080  143.4720 C   0  0  0  0  0  0  0  0  0  0  0  0
  188.6810  178.5720  140.4440 C   0  0  0  0  0  3  0  0  0  0  0  0
  185.4040  177.6330  146.0150 N   0  0  0  0  0  0  0  0  0  0  0  0
  191.8360  176.8280  139.5800 N   0  0  0  0  0  1  0  0  0  0  0  0
  190.1920  176.4340  141.2950 N   0  0  0  0  0  0  0  0  0  0  0  0
  188.2550  177.8240  141.5460 C   0  0  0  0  0  0  0  0  0  0  0  0
  191.6800  177.0180  147.0460 C   0  0  0  0  0  3  0  0  0  0  0  0
  189.5620  176.7880  145.2100 C   0  0  0  0  0  0  0  0  0  0  0  0
  190.8870  176.5580  144.8060 C   0  0  0  0  0  3  0  0  0  0  0  0
  191.9410  176.6750  145.7170 C   0  0  0  0  0  3  0  0  0  0  0  0
  190.3670  177.2440  147.4640 C   0  0  0  0  0  3  0  0  0  0  0  0
  189.3150  177.1280  146.5530 C   0  0  0  0  0  3  0  0  0  0  0  0
  1 12  1  0  0  0  0
  2  6  1  0  0  0  0
  3 16  1  0  0  0  0
  6 18  2  0  0  0  0
  7  9  1  6  0  0  0
  7 11  1  0  0  0  0
  7 13  1  0  0  0  0
  8 10  2  0  0  0  0
  8 17  1  0  0  0  0
 10 20  1  0  0  0  0
 11 14  2  0  0  0  0
 12  2  1  0  0  0  0
 12 23  1  0  0  0  0
 13  5  1  1  0  0  0
 13  4  1  0  0  0  0
 14  4  1  0  0  0  0
 14 18  1  0  0  0  0
 15  1  1  0  0  0  0
 16 11  1  0  0  0  0
 16  2  2  0  0  0  0
 17 21  2  0  0  0  0
 19 10  1  0  0  0  0
 20 15  2  0  0  0  0
 21 15  1  0  0  0  0
 21  3  1  0  0  0  0
 22 26  1  0  0  0  0
 23 27  1  0  0  0  0
 24 23  2  0  0  0  0
 24 25  1  0  0  0  0
 25 22  2  0  0  0  0
 27 26  2  0  0  0  0
M  END
>  <MODEL>
2

>  <REMARK>
 VINA RESULT:      -8.4      2.495      5.822
  Name = 
  1 active torsions:
  status: ('A' for Active; 'I' for Inactive)
    1  A    between atoms: C_9  and  N_15
                            x       y       z     vdW  Elec       q    Type
                         _______ _______ _______ _____ _____    ______ ____

>  <TORSDO>
F 1

$$$$
=
 OpenBabel10262420063D

 27 31  0  0  1  0  0  0  0  0999 V2000
  186.4010  179.5350  141.5670 C   0  0  0  0  0  2  0  0  0  0  0  0
  185.8490  178.4730  143.7210 C   0  0  0  0  0  0  0  0  0  0  0  0
  188.1260  177.6010  143.0470 N   0  0  0  0  0  2  0  0  0  0  0  0
  186.9860  177.7180  147.7040 C   0  0  0  0  0  2  0  0  0  0  0  0
  188.4460  175.8410  147.8600 F   0  0  0  0  0  0  0  0  0  0  0  0
  184.9630  178.7000  144.7380 N   0  0  0  0  0  0  0  0  0  0  0  0
  188.7060  177.2670  145.9660 C   0  0  2  0  0  3  0  0  0  0  0  0
  189.0790  176.9380  139.5150 C   0  0  0  0  0  3  0  0  0  0  0  0
  189.8400  178.2540  145.7530 C   0  0  0  0  0  1  0  0  0  0  0  0
  188.2490  177.8280  138.8360 C   0  0  0  0  0  0  0  0  0  0  0  0
  187.4480  177.7950  145.3800 C   0  0  0  0  0  0  0  0  0  0  0  0
  185.4600  178.7820  142.3780 N   0  0  0  0  0  0  0  0  0  0  0  0
  188.4000  177.1660  147.4700 C   0  0  1  0  0  3  0  0  0  0  0  0
  186.5140  178.0360  146.3430 C   0  0  0  0  0  0  0  0  0  0  0  0
  187.3230  178.5960  140.8880 C   0  0  0  0  0  0  0  0  0  0  0  0
  187.1480  177.9930  144.0290 C   0  0  0  0  0  0  0  0  0  0  0  0
  189.0170  176.8810  140.9080 C   0  0  0  0  0  3  0  0  0  0  0  0
  185.2790  178.4810  146.0190 N   0  0  0  0  0  0  0  0  0  0  0  0
  188.2970  177.9010  137.4170 N   0  0  0  0  0  1  0  0  0  0  0  0
  187.4030  178.6340  139.5290 N   0  0  0  0  0  0  0  0  0  0  0  0
  188.1280  177.6970  141.6130 C   0  0  0  0  0  0  0  0  0  0  0  0
  181.6590  177.7110  140.7910 C   0  0  0  0  0  3  0  0  0  0  0  0
  184.1720  178.4050  141.8450 C   0  0  0  0  0  0  0  0  0  0  0  0
  184.0740  177.5820  140.7110 C   0  0  0  0  0  3  0  0  0  0  0  0
  182.8260  177.2340  140.1880 C   0  0  0  0  0  3  0  0  0  0  0  0
  181.7410  178.5350  141.9150 C   0  0  0  0  0  3  0  0  0  0  0  0
  182.9890  178.8820  142.4370 C   0  0  0  0  0  3  0  0  0  0  0  0
  1 12  1  0  0  0  0
  2 16  2  0  0  0  0
  2  6  1  0  0  0  0
  3 16  1  0  0  0  0
  6 18  2  0  0  0  0
  7  9  1  1  0  0  0
  7 13  1  0  0  0  0
  8 17  1  0  0  0  0
 10  8  2  0  0  0  0
 10 20  1  0  0  0  0
 11  7  1  0  0  0  0
 11 14  2  0  0  0  0
 12  2  1  0  0  0  0
 13  4  1  0  0  0  0
 13  5  1  6  0  0  0
 14  4  1  0  0  0  0
 15  1  1  0  0  0  0
 15 21  1  0  0  0  0
 16 11  1  0  0  0  0
 17 21  2  0  0  0  0
 18 14  1  0  0  0  0
 19 10  1  0  0  0  0
 20 15  2  0  0  0  0
 21  3  1  0  0  0  0
 22 26  1  0  0  0  0
 23 12  1  0  0  0  0
 23 27  1  0  0  0  0
 24 23  2  0  0  0  0
 25 24  1  0  0  0  0
 25 22  2  0  0  0  0
 26 27  2  0  0  0  0
M  END
>  <MODEL>
3

>  <REMARK>
 VINA RESULT:      -8.4      3.199      6.196
  Name = 
  1 active torsions:
  status: ('A' for Active; 'I' for Inactive)
    1  A    between atoms: C_9  and  N_15
                            x       y       z     vdW  Elec       q    Type
                         _______ _______ _______ _____ _____    ______ ____

>  <TORSDO>
F 1

$$$$
=
 OpenBabel10262420063D

 27 31  0  0  1  0  0  0  0  0999 V2000
  189.4000  179.0430  142.1110 C   0  0  0  0  0  2  0  0  0  0  0  0
  187.3850  178.4320  140.8290 C   0  0  0  0  0  0  0  0  0  0  0  0
  186.8540  177.9960  143.2630 N   0  0  0  0  0  2  0  0  0  0  0  0
  183.2490  178.9570  140.2510 C   0  0  0  0  0  2  0  0  0  0  0  0
  181.9740  177.5800  141.7200 F   0  0  0  0  0  0  0  0  0  0  0  0
  186.8980  178.6780  139.5750 N   0  0  0  0  0  0  0  0  0  0  0  0
  183.9850  178.5260  142.5850 C   0  0  2  0  0  3  0  0  0  0  0  0
  189.3720  176.7480  145.6970 C   0  0  0  0  0  3  0  0  0  0  0  0
  184.0660  179.6750  143.5750 C   0  0  0  0  0  1  0  0  0  0  0  0
  190.5550  177.2220  145.1340 C   0  0  0  0  0  0  0  0  0  0  0  0
  185.1310  178.5790  141.6420 C   0  0  0  0  0  0  0  0  0  0  0  0
  188.8000  178.3040  141.0130 N   0  0  0  0  0  0  0  0  0  0  0  0
  182.7530  178.7210  141.6850 C   0  0  1  0  0  3  0  0  0  0  0  0
  184.7120  178.8140  140.3660 C   0  0  0  0  0  0  0  0  0  0  0  0
  189.3520  178.2170  143.3400 C   0  0  0  0  0  0  0  0  0  0  0  0
  186.4840  178.3660  141.9220 C   0  0  0  0  0  0  0  0  0  0  0  0
  188.1620  177.0160  145.0570 C   0  0  0  0  0  3  0  0  0  0  0  0
  185.5940  178.8580  139.3420 N   0  0  0  0  0  0  0  0  0  0  0  0
  191.8000  176.9590  145.7700 N   0  0  0  0  0  1  0  0  0  0  0  0
  190.5200  177.9440  143.9830 N   0  0  0  0  0  0  0  0  0  0  0  0
  188.1350  177.7400  143.8620 C   0  0  0  0  0  0  0  0  0  0  0  0
  191.2180  176.0000  138.3740 C   0  0  0  0  0  3  0  0  0  0  0  0
  189.6210  177.5130  140.1280 C   0  0  0  0  0  0  0  0  0  0  0  0
  191.0160  177.4640  140.2910 C   0  0  0  0  0  3  0  0  0  0  0  0
  191.8100  176.7110  139.4210 C   0  0  0  0  0  3  0  0  0  0  0  0
  189.8330  176.0430  138.1970 C   0  0  0  0  0  3  0  0  0  0  0  0
  189.0400  176.7960  139.0660 C   0  0  0  0  0  3  0  0  0  0  0  0
  1 15  1  0  0  0  0
  2 12  1  0  0  0  0
  2 16  1  0  0  0  0
  3 21  1  0  0  0  0
  4 14  1  0  0  0  0
  4 13  1  0  0  0  0
  6  2  2  0  0  0  0
  7  9  1  1  0  0  0
 10  8  1  0  0  0  0
 10 19  1  0  0  0  0
 11 16  2  0  0  0  0
 11  7  1  0  0  0  0
 12  1  1  0  0  0  0
 13  5  1  6  0  0  0
 13  7  1  0  0  0  0
 14 11  1  0  0  0  0
 15 21  2  0  0  0  0
 15 20  1  0  0  0  0
 16  3  1  0  0  0  0
 17  8  2  0  0  0  0
 18  6  1  0  0  0  0
 18 14  2  0  0  0  0
 20 10  2  0  0  0  0
 21 17  1  0  0  0  0
 22 25  1  0  0  0  0
 23 24  1  0  0  0  0
 23 12  1  0  0  0  0
 25 24  2  0  0  0  0
 26 22  2  0  0  0  0
 26 27  1  0  0  0  0
 27 23  2  0  0  0  0
M  END
>  <MODEL>
4

>  <REMARK>
 VINA RESULT:      -8.2      2.403      5.364
  Name = 
  1 active torsions:
  status: ('A' for Active; 'I' for Inactive)
    1  A    between atoms: C_9  and  N_15
                            x       y       z     vdW  Elec       q    Type
                         _______ _______ _______ _____ _____    ______ ____

>  <TORSDO>
F 1

$$$$
=
 OpenBabel10262420063D

 27 31  0  0  1  0  0  0  0  0999 V2000
  189.1200  178.9940  141.7270 C   0  0  0  0  0  2  0  0  0  0  0  0
  187.0260  178.4050  140.5690 C   0  0  0  0  0  0  0  0  0  0  0  0
  186.6230  178.0150  143.0350 N   0  0  0  0  0  2  0  0  0  0  0  0
  182.8750  179.0030  140.2120 C   0  0  0  0  0  2  0  0  0  0  0  0
  181.6580  177.6740  141.7710 F   0  0  0  0  0  0  0  0  0  0  0  0
  186.4740  178.6420  139.3400 N   0  0  0  0  0  0  0  0  0  0  0  0
  183.7320  178.5920  142.5090 C   0  0  2  0  0  3  0  0  0  0  0  0
  189.2490  176.7530  145.3450 C   0  0  0  0  0  3  0  0  0  0  0  0
  183.8900  179.7530  143.4750 C   0  0  0  0  0  1  0  0  0  0  0  0
  190.4080  177.1940  144.7090 C   0  0  0  0  0  0  0  0  0  0  0  0
  184.8240  178.6080  141.5030 C   0  0  0  0  0  0  0  0  0  0  0  0
  188.4470  178.2520  140.6760 N   0  0  0  0  0  0  0  0  0  0  0  0
  182.4560  178.7980  141.6760 C   0  0  1  0  0  3  0  0  0  0  0  0
  184.3400  178.8330  140.2490 C   0  0  0  0  0  0  0  0  0  0  0  0
  189.1260  178.1870  142.9700 C   0  0  0  0  0  0  0  0  0  0  0  0
  186.1860  178.3730  141.7110 C   0  0  0  0  0  0  0  0  0  0  0  0
  188.0100  177.0350  144.7690 C   0  0  0  0  0  3  0  0  0  0  0  0
  185.1630  178.8450  139.1770 N   0  0  0  0  0  0  0  0  0  0  0  0
  191.6810  176.9170  145.2790 N   0  0  0  0  0  1  0  0  0  0  0  0
  190.3220  177.9000  143.5520 N   0  0  0  0  0  0  0  0  0  0  0  0
  187.9300  177.7430  143.5660 C   0  0  0  0  0  0  0  0  0  0  0  0
  190.6740  175.8020  138.0020 C   0  0  0  0  0  3  0  0  0  0  0  0
  189.2020  177.4310  139.7590 C   0  0  0  0  0  0  0  0  0  0  0  0
  188.5770  176.8110  138.6640 C   0  0  0  0  0  3  0  0  0  0  0  0
  189.3080  176.0030  137.7890 C   0  0  0  0  0  3  0  0  0  0  0  0
  191.3080  176.4070  139.0890 C   0  0  0  0  0  3  0  0  0  0  0  0
  190.5760  177.2140  139.9630 C   0  0  0  0  0  3  0  0  0  0  0  0
  1 15  1  0  0  0  0
  2 12  1  0  0  0  0
  2 16  1  0  0  0  0
  3 21  1  0  0  0  0
  4 14  1  0  0  0  0
  4 13  1  0  0  0  0
  6  2  2  0  0  0  0
  7  9  1  1  0  0  0
 10 19  1  0  0  0  0
 10  8  2  0  0  0  0
 11 16  2  0  0  0  0
 11  7  1  0  0  0  0
 12  1  1  0  0  0  0
 13  5  1  6  0  0  0
 13  7  1  0  0  0  0
 14 11  1  0  0  0  0
 15 20  2  0  0  0  0
 15 21  1  0  0  0  0
 16  3  1  0  0  0  0
 17  8  1  0  0  0  0
 18  6  1  0  0  0  0
 18 14  2  0  0  0  0
 20 10  1  0  0  0  0
 21 17  2  0  0  0  0
 22 26  1  0  0  0  0
 23 27  1  0  0  0  0
 23 12  1  0  0  0  0
 24 23  2  0  0  0  0
 25 22  2  0  0  0  0
 25 24  1  0  0  0  0
 26 27  2  0  0  0  0
M  END
>  <MODEL>
5

>  <REMARK>
 VINA RESULT:      -8.0      2.478      5.504
  Name = 
  1 active torsions:
  status: ('A' for Active; 'I' for Inactive)
    1  A    between atoms: C_9  and  N_15
                            x       y       z     vdW  Elec       q    Type
                         _______ _______ _______ _____ _____    ______ ____

>  <TORSDO>
F 1

$$$$
=
 OpenBabel10262420063D

 27 31  0  0  1  0  0  0  0  0999 V2000
  187.2180  176.3780  143.4990 C   0  0  0  0  0  2  0  0  0  0  0  0
  185.4460  178.0290  143.0400 C   0  0  0  0  0  0  0  0  0  0  0  0
  187.1040  178.2000  141.1380 N   0  0  0  0  0  2  0  0  0  0  0  0
  182.5490  179.4740  140.3490 C   0  0  0  0  0  2  0  0  0  0  0  0
  183.4970  180.9740  138.7590 F   0  0  0  0  0  0  0  0  0  0  0  0
  184.1670  178.2530  143.4700 N   0  0  0  0  0  0  0  0  0  0  0  0
  184.8250  179.1060  139.4200 C   0  0  2  0  0  3  0  0  0  0  0  0
  190.7670  177.7570  141.5950 C   0  0  0  0  0  3  0  0  0  0  0  0
  185.1040  177.8780  138.5720 C   0  0  0  0  0  1  0  0  0  0  0  0
  190.8050  176.9270  142.7130 C   0  0  0  0  0  0  0  0  0  0  0  0
  184.7430  178.7330  140.8550 C   0  0  0  0  0  0  0  0  0  0  0  0
  186.4040  177.4910  143.9580 N   0  0  0  0  0  0  0  0  0  0  0  0
  183.4180  179.6360  139.0930 C   0  0  1  0  0  3  0  0  0  0  0  0
  183.4910  178.9410  141.3510 C   0  0  0  0  0  0  0  0  0  0  0  0
  188.4300  176.9020  142.8280 C   0  0  0  0  0  0  0  0  0  0  0  0
  185.7740  178.2790  141.6830 C   0  0  0  0  0  0  0  0  0  0  0  0
  189.5300  178.1660  141.0950 C   0  0  0  0  0  3  0  0  0  0  0  0
  183.2110  178.7050  142.6530 N   0  0  0  0  0  0  0  0  0  0  0  0
  192.0560  176.5000  143.2390 N   0  0  0  0  0  1  0  0  0  0  0  0
  189.6480  176.5160  143.2960 N   0  0  0  0  0  0  0  0  0  0  0  0
  188.3450  177.7570  141.7120 C   0  0  0  0  0  0  0  0  0  0  0  0
  186.7820  178.9430  147.9410 C   0  0  0  0  0  3  0  0  0  0  0  0
  186.5430  177.9920  145.3050 C   0  0  0  0  0  0  0  0  0  0  0  0
  187.5900  177.5520  146.1330 C   0  0  0  0  0  3  0  0  0  0  0  0
  187.7110  178.0260  147.4420 C   0  0  0  0  0  3  0  0  0  0  0  0
  185.7340  179.3850  147.1320 C   0  0  0  0  0  3  0  0  0  0  0  0
  185.6140  178.9110  145.8230 C   0  0  0  0  0  3  0  0  0  0  0  0
  1 12  1  0  0  0  0
  2  6  1  0  0  0  0
  2 12  1  0  0  0  0
  3 16  1  0  0  0  0
  3 21  1  0  0  0  0
  4 14  1  0  0  0  0
  7  9  1  6  0  0  0
  7 11  1  0  0  0  0
  8 10  1  0  0  0  0
 10 19  1  0  0  0  0
 10 20  2  0  0  0  0
 11 14  2  0  0  0  0
 11 16  1  0  0  0  0
 12 23  1  0  0  0  0
 13  5  1  1  0  0  0
 13  7  1  0  0  0  0
 13  4  1  0  0  0  0
 14 18  1  0  0  0  0
 15 20  1  0  0  0  0
 15  1  1  0  0  0  0
 16  2  2  0  0  0  0
 17  8  2  0  0  0  0
 17 21  1  0  0  0  0
 18  6  2  0  0  0  0
 21 15  2  0  0  0  0
 23 27  2  0  0  0  0
 23 24  1  0  0  0  0
 24 25  2  0  0  0  0
 25 22  1  0  0  0  0
 26 22  2  0  0  0  0
 27 26  1  0  0  0  0
M  END
>  <MODEL>
6

>  <REMARK>
 VINA RESULT:      -7.9      2.447      3.577
  Name = 
  1 active torsions:
  status: ('A' for Active; 'I' for Inactive)
    1  A    between atoms: C_9  and  N_15
                            x       y       z     vdW  Elec       q    Type
                         _______ _______ _______ _____ _____    ______ ____

>  <TORSDO>
F 1

$$$$
=
 OpenBabel10262420063D

 27 31  0  0  1  0  0  0  0  0999 V2000
  189.7690  178.6900  144.3700 C   0  0  0  0  0  2  0  0  0  0  0  0
  190.7940  177.3490  142.5730 C   0  0  0  0  0  0  0  0  0  0  0  0
  188.3300  177.5230  142.0310 N   0  0  0  0  0  2  0  0  0  0  0  0
  191.4400  176.8470  138.4440 C   0  0  0  0  0  2  0  0  0  0  0  0
  189.6210  175.7160  137.4010 F   0  0  0  0  0  0  0  0  0  0  0  0
  192.0590  177.1280  142.1020 N   0  0  0  0  0  0  0  0  0  0  0  0
  189.0900  177.2520  139.1470 C   0  0  2  0  0  3  0  0  0  0  0  0
  185.6770  177.5470  144.6360 C   0  0  0  0  0  3  0  0  0  0  0  0
  188.4710  178.6250  138.9570 C   0  0  0  0  0  1  0  0  0  0  0  0
  186.3690  178.0690  145.7260 C   0  0  0  0  0  0  0  0  0  0  0  0
  190.0260  177.2640  140.3000 C   0  0  0  0  0  0  0  0  0  0  0  0
  190.6020  177.5660  143.9760 N   0  0  0  0  0  0  0  0  0  0  0  0
  189.9910  176.9320  137.9420 C   0  0  1  0  0  3  0  0  0  0  0  0
  191.3090  177.0400  139.9000 C   0  0  0  0  0  0  0  0  0  0  0  0
  188.3550  178.2530  144.4310 C   0  0  0  0  0  0  0  0  0  0  0  0
  189.7160  177.4160  141.6550 C   0  0  0  0  0  0  0  0  0  0  0  0
  186.3500  177.3740  143.4250 C   0  0  0  0  0  3  0  0  0  0  0  0
  192.3160  176.9680  140.8000 N   0  0  0  0  0  0  0  0  0  0  0  0
  185.7020  178.2530  146.9680 N   0  0  0  0  0  1  0  0  0  0  0  0
  187.6770  178.4140  145.6010 N   0  0  0  0  0  0  0  0  0  0  0  0
  187.7010  177.7100  143.3090 C   0  0  0  0  0  0  0  0  0  0  0  0
  192.4310  175.1130  146.9340 C   0  0  0  0  0  3  0  0  0  0  0  0
  191.2350  176.7380  144.9750 C   0  0  0  0  0  0  0  0  0  0  0  0
  191.8340  175.5170  144.6240 C   0  0  0  0  0  3  0  0  0  0  0  0
  192.4300  174.7090  145.5970 C   0  0  0  0  0  3  0  0  0  0  0  0
  191.8340  176.3210  147.2990 C   0  0  0  0  0  3  0  0  0  0  0  0
  191.2380  177.1280  146.3260 C   0  0  0  0  0  3  0  0  0  0  0  0
  1 15  1  0  0  0  0
  2 12  1  0  0  0  0
  3 21  1  0  0  0  0
  4 14  1  0  0  0  0
  6  2  1  0  0  0  0
  7  9  1  6  0  0  0
  7 11  1  0  0  0  0
  8 10  1  0  0  0  0
 10 19  1  0  0  0  0
 11 16  1  0  0  0  0
 12  1  1  0  0  0  0
 12 23  1  0  0  0  0
 13  5  1  1  0  0  0
 13  4  1  0  0  0  0
 13  7  1  0  0  0  0
 14 11  2  0  0  0  0
 14 18  1  0  0  0  0
 15 20  1  0  0  0  0
 16  3  1  0  0  0  0
 16  2  2  0  0  0  0
 17  8  2  0  0  0  0
 18  6  2  0  0  0  0
 20 10  2  0  0  0  0
 21 17  1  0  0  0  0
 21 15  2  0  0  0  0
 22 26  1  0  0  0  0
 23 27  1  0  0  0  0
 24 23  2  0  0  0  0
 24 25  1  0  0  0  0
 25 22  2  0  0  0  0
 27 26  2  0  0  0  0
M  END
>  <MODEL>
7

>  <REMARK>
 VINA RESULT:      -7.9      2.058      5.005
  Name = 
  1 active torsions:
  status: ('A' for Active; 'I' for Inactive)
    1  A    between atoms: C_9  and  N_15
                            x       y       z     vdW  Elec       q    Type
                         _______ _______ _______ _____ _____    ______ ____

>  <TORSDO>
F 1

$$$$
=
 OpenBabel10262420063D

 27 31  0  0  1  0  0  0  0  0999 V2000
  188.4950  179.0380  141.0360 C   0  0  0  0  0  2  0  0  0  0  0  0
  186.2210  178.5860  140.1980 C   0  0  0  0  0  0  0  0  0  0  0  0
  186.2420  177.9110  142.6360 N   0  0  0  0  0  2  0  0  0  0  0  0
  182.0830  179.2200  140.6390 C   0  0  0  0  0  2  0  0  0  0  0  0
  181.1270  177.7180  142.2220 F   0  0  0  0  0  0  0  0  0  0  0  0
  185.4710  178.9660  139.1200 N   0  0  0  0  0  0  0  0  0  0  0  0
  183.3150  178.5440  142.6890 C   0  0  2  0  0  3  0  0  0  0  0  0
  189.2010  176.3900  144.2940 C   0  0  0  0  0  3  0  0  0  0  0  0
  183.6600  179.5850  143.7400 C   0  0  0  0  0  1  0  0  0  0  0  0
  190.2420  176.9030  143.5220 C   0  0  0  0  0  0  0  0  0  0  0  0
  184.2170  178.6790  141.5170 C   0  0  0  0  0  0  0  0  0  0  0  0
  187.6360  178.4230  140.0390 N   0  0  0  0  0  0  0  0  0  0  0  0
  181.9190  178.8460  142.1190 C   0  0  1  0  0  3  0  0  0  0  0  0
  183.5290  179.0480  140.4010 C   0  0  0  0  0  0  0  0  0  0  0  0
  188.6990  178.0910  142.1570 C   0  0  0  0  0  0  0  0  0  0  0  0
  185.5900  178.4220  141.4580 C   0  0  0  0  0  0  0  0  0  0  0  0
  187.8870  176.7370  143.9780 C   0  0  0  0  0  3  0  0  0  0  0  0
  184.1560  179.1850  139.2100 N   0  0  0  0  0  0  0  0  0  0  0  0
  191.5880  176.5610  143.8270 N   0  0  0  0  0  1  0  0  0  0  0  0
  189.9720  177.7390  142.4860 N   0  0  0  0  0  0  0  0  0  0  0  0
  187.6150  177.5800  142.8970 C   0  0  0  0  0  0  0  0  0  0  0  0
  189.3340  176.3100  136.7580 C   0  0  0  0  0  3  0  0  0  0  0  0
  188.2050  177.7150  138.9170 C   0  0  0  0  0  0  0  0  0  0  0  0
  187.4230  176.8390  138.1450 C   0  0  0  0  0  3  0  0  0  0  0  0
  187.9830  176.1430  137.0700 C   0  0  0  0  0  3  0  0  0  0  0  0
  190.1250  177.1720  137.5190 C   0  0  0  0  0  3  0  0  0  0  0  0
  189.5650  177.8680  138.5930 C   0  0  0  0  0  3  0  0  0  0  0  0
  1 15  1  0  0  0  0
  2 16  1  0  0  0  0
  3 21  1  0  0  0  0
  4 13  1  0  0  0  0
  6 18  1  0  0  0  0
  6  2  2  0  0  0  0
  7  9  1  1  0  0  0
 10 19  1  0  0  0  0
 10  8  2  0  0  0  0
 11  7  1  0  0  0  0
 12  2  1  0  0  0  0
 12  1  1  0  0  0  0
 13  5  1  6  0  0  0
 13  7  1  0  0  0  0
 14  4  1  0  0  0  0
 14 11  1  0  0  0  0
 15 20  2  0  0  0  0
 15 21  1  0  0  0  0
 16 11  2  0  0  0  0
 16  3  1  0  0  0  0
 17  8  1  0  0  0  0
 18 14  2  0  0  0  0
 20 10  1  0  0  0  0
 21 17  2  0  0  0  0
 22 25  2  0  0  0  0
 22 26  1  0  0  0  0
 23 12  1  0  0  0  0
 24 23  2  0  0  0  0
 25 24  1  0  0  0  0
 26 27  2  0  0  0  0
 27 23  1  0  0  0  0
M  END
>  <MODEL>
8

>  <REMARK>
 VINA RESULT:      -7.8      2.654      5.824
  Name = 
  1 active torsions:
  status: ('A' for Active; 'I' for Inactive)
    1  A    between atoms: C_9  and  N_15
                            x       y       z     vdW  Elec       q    Type
                         _______ _______ _______ _____ _____    ______ ____

>  <TORSDO>
F 1

$$$$
=
 OpenBabel10262420063D

 27 31  0  0  1  0  0  0  0  0999 V2000
  186.9360  176.4580  143.2190 C   0  0  0  0  0  2  0  0  0  0  0  0
  189.0700  177.0380  144.3070 C   0  0  0  0  0  0  0  0  0  0  0  0
  187.2470  178.1910  145.6280 N   0  0  0  0  0  2  0  0  0  0  0  0
  191.3560  177.0890  147.8420 C   0  0  0  0  0  2  0  0  0  0  0  0
  190.8710  179.0030  149.1750 F   0  0  0  0  0  0  0  0  0  0  0  0
  190.3490  176.5530  144.2990 N   0  0  0  0  0  0  0  0  0  0  0  0
  189.0480  177.9950  148.0130 C   0  0  2  0  0  3  0  0  0  0  0  0
  184.1840  179.5960  144.0580 C   0  0  0  0  0  3  0  0  0  0  0  0
  187.9530  177.1550  148.6470 C   0  0  0  0  0  1  0  0  0  0  0  0
  184.0660  178.7960  142.9230 C   0  0  0  0  0  0  0  0  0  0  0  0
  189.3500  177.4980  146.6470 C   0  0  0  0  0  0  0  0  0  0  0  0
  188.2920  176.9680  143.1060 N   0  0  0  0  0  0  0  0  0  0  0  0
  190.3610  177.7790  148.7850 C   0  0  1  0  0  3  0  0  0  0  0  0
  190.6180  177.0060  146.5670 C   0  0  0  0  0  0  0  0  0  0  0  0
  186.0170  177.5770  143.5290 C   0  0  0  0  0  0  0  0  0  0  0  0
  188.5290  177.5450  145.5160 C   0  0  0  0  0  0  0  0  0  0  0  0
  185.2470  179.3770  144.9350 C   0  0  0  0  0  3  0  0  0  0  0  0
  191.1120  176.5420  145.3970 N   0  0  0  0  0  0  0  0  0  0  0  0
  182.9910  179.0030  142.0170 N   0  0  0  0  0  1  0  0  0  0  0  0
  184.9710  177.8100  142.6890 N   0  0  0  0  0  0  0  0  0  0  0  0
  186.1870  178.3760  144.6760 C   0  0  0  0  0  0  0  0  0  0  0  0
  189.8610  178.0380  139.2970 C   0  0  0  0  0  3  0  0  0  0  0  0
  188.8290  177.3430  141.8200 C   0  0  0  0  0  0  0  0  0  0  0  0
  188.1670  178.2800  141.0090 C   0  0  0  0  0  3  0  0  0  0  0  0
  188.6810  178.6280  139.7560 C   0  0  0  0  0  3  0  0  0  0  0  0
  190.5270  177.1010  140.0900 C   0  0  0  0  0  3  0  0  0  0  0  0
  190.0130  176.7540  141.3420 C   0  0  0  0  0  3  0  0  0  0  0  0
  1 15  1  0  0  0  0
  2 16  1  0  0  0  0
  4 13  1  0  0  0  0
  6  2  2  0  0  0  0
  6 18  1  0  0  0  0
  7  9  1  1  0  0  0
  7 13  1  0  0  0  0
  8 17  1  0  0  0  0
 10  8  2  0  0  0  0
 11  7  1  0  0  0  0
 12  1  1  0  0  0  0
 12  2  1  0  0  0  0
 13  5  1  6  0  0  0
 14 11  1  0  0  0  0
 14  4  1  0  0  0  0
 15 21  1  0  0  0  0
 16  3  1  0  0  0  0
 16 11  2  0  0  0  0
 18 14  2  0  0  0  0
 19 10  1  0  0  0  0
 20 10  1  0  0  0  0
 20 15  2  0  0  0  0
 21 17  2  0  0  0  0
 21  3  1  0  0  0  0
 22 25  2  0  0  0  0
 22 26  1  0  0  0  0
 23 12  1  0  0  0  0
 24 23  2  0  0  0  0
 25 24  1  0  0  0  0
 26 27  2  0  0  0  0
 27 23  1  0  0  0  0
M  END
>  <MODEL>
9

>  <REMARK>
 VINA RESULT:      -7.6      2.987      7.303
  Name = 
  1 active torsions:
  status: ('A' for Active; 'I' for Inactive)
    1  A    between atoms: C_9  and  N_15
                            x       y       z     vdW  Elec       q    Type
                         _______ _______ _______ _____ _____    ______ ____

>  <TORSDO>
F 1

$$$$
