=
 OpenBabel10262420063D

 27 29  0  0  1  0  0  0  0  0999 V2000
  188.0070  177.2200  144.0120 C   0  0  2  0  0  3  0  0  0  0  0  0
  184.0920  178.6450  145.2630 C   0  0  0  0  0  2  0  0  0  0  0  0
  186.7260  177.8990  144.4240 C   0  0  0  0  0  0  0  0  0  0  0  0
  185.6880  178.2720  143.3830 C   0  0  0  0  0  2  0  0  0  0  0  0
  184.5870  179.1800  143.9290 C   0  0  0  0  0  2  0  0  0  0  0  0
  185.2350  178.7050  146.2690 C   0  0  0  0  0  2  0  0  0  0  0  0
  186.4730  178.0310  145.7380 C   0  0  0  0  0  3  0  0  0  0  0  0
  189.2470  178.0340  144.4030 C   0  0  0  0  0  2  0  0  0  0  0  0
  192.0030  176.0160  146.0870 C   0  0  0  0  0  3  0  0  0  0  0  0
  191.6490  176.1490  147.4320 C   0  0  0  0  0  3  0  0  0  0  0  0
  190.0870  177.3620  145.4480 C   0  0  0  0  0  0  0  0  0  0  0  0
  191.5890  176.4680  143.7600 O   0  0  0  0  0  1  0  0  0  0  0  0
  190.5150  176.8850  147.7880 C   0  0  0  0  0  3  0  0  0  0  0  0
  189.7370  177.4890  146.7980 C   0  0  0  0  0  3  0  0  0  0  0  0
  191.2250  176.6180  145.0930 C   0  0  0  0  0  0  0  0  0  0  0  0
  188.0230  176.9010  142.5910 N   0  0  0  0  0  2  0  0  0  0  0  0
  188.9220  177.8470  141.9530 C   0  0  0  0  0  2  0  0  0  0  0  0
  187.4810  178.1150  138.4810 C   0  0  0  0  0  3  0  0  0  0  0  0
  188.3190  177.5850  136.2120 C   0  0  0  0  0  1  0  0  0  0  0  0
  189.7120  177.1670  138.2850 C   0  0  0  0  0  0  0  0  0  0  0  0
  191.0420  176.6630  137.2360 Cl  0  0  0  0  0  0  0  0  0  0  0  0
  189.8470  177.2080  139.6980 C   0  0  0  0  0  0  0  0  0  0  0  0
  188.5140  177.6130  137.6900 C   0  0  0  0  0  0  0  0  0  0  0  0
  188.7970  177.7360  140.4720 C   0  0  0  0  0  0  0  0  0  0  0  0
  187.6240  178.1820  139.8640 C   0  0  0  0  0  3  0  0  0  0  0  0
  192.2170  177.4810  140.4350 C   0  0  0  0  0  1  0  0  0  0  0  0
  190.9930  176.7630  140.3750 O   0  0  0  0  0  0  0  0  0  0  0  0
  1  8  1  6  0  0  0
  1  3  1  0  0  0  0
  2  6  1  0  0  0  0
  3  7  2  0  0  0  0
  4  5  1  0  0  0  0
  4  3  1  0  0  0  0
  5  2  1  0  0  0  0
  7  6  1  0  0  0  0
  8 11  1  0  0  0  0
  9 10  1  0  0  0  0
 10 13  2  0  0  0  0
 11 14  2  0  0  0  0
 12 15  1  0  0  0  0
 14 13  1  0  0  0  0
 15 11  1  0  0  0  0
 15  9  2  0  0  0  0
 16  1  1  0  0  0  0
 17 16  1  0  0  0  0
 18 25  1  0  0  0  0
 19 23  1  0  0  0  0
 20 22  2  0  0  0  0
 21 20  1  0  0  0  0
 22 27  1  0  0  0  0
 22 24  1  0  0  0  0
 23 20  1  0  0  0  0
 23 18  2  0  0  0  0
 24 17  1  0  0  0  0
 25 24  2  0  0  0  0
 27 26  1  0  0  0  0
M  END
>  <MODEL>
1

>  <REMARK>
 VINA RESULT:      -8.7      0.000      0.000
  Name = 
  7 active torsions:
  status: ('A' for Active; 'I' for Inactive)
    1  A    between atoms: C_1  and  C_15
    2  A    between atoms: C_1  and  C_18
    3  A    between atoms: N_2  and  C_6
    4  A    between atoms: N_2  and  C_15
    5  A    between atoms: C_6  and  C_17
    6  A    between atoms: C_9  and  C_15
    7  A    between atoms: C_14  and  O_19
                            x       y       z     vdW  Elec       q    Type
                         _______ _______ _______ _____ _____    ______ ____

>  <TORSDO>
F 7

$$$$
=
 OpenBabel10262420063D

 27 29  0  0  1  0  0  0  0  0999 V2000
  188.0610  177.1990  144.2690 C   0  0  2  0  0  3  0  0  0  0  0  0
  184.2960  178.5820  145.9530 C   0  0  0  0  0  2  0  0  0  0  0  0
  186.8270  177.8640  144.8230 C   0  0  0  0  0  0  0  0  0  0  0  0
  185.6760  178.2290  143.9050 C   0  0  0  0  0  2  0  0  0  0  0  0
  184.6340  179.1250  144.5730 C   0  0  0  0  0  2  0  0  0  0  0  0
  185.5430  178.6510  146.8250 C   0  0  0  0  0  2  0  0  0  0  0  0
  186.7210  177.9910  146.1580 C   0  0  0  0  0  3  0  0  0  0  0  0
  189.3420  177.9640  144.6240 C   0  0  0  0  0  2  0  0  0  0  0  0
  192.2020  175.6690  145.6520 C   0  0  0  0  0  3  0  0  0  0  0  0
  192.0820  175.6970  147.0440 C   0  0  0  0  0  3  0  0  0  0  0  0
  190.2970  177.1600  145.4550 C   0  0  0  0  0  0  0  0  0  0  0  0
  191.4440  176.3490  143.4720 O   0  0  0  0  0  1  0  0  0  0  0  0
  191.0710  176.4530  147.6440 C   0  0  0  0  0  3  0  0  0  0  0  0
  190.1810  177.1820  146.8500 C   0  0  0  0  0  3  0  0  0  0  0  0
  191.3130  176.3960  144.8550 C   0  0  0  0  0  0  0  0  0  0  0  0
  187.9670  176.9840  142.8320 N   0  0  0  0  0  2  0  0  0  0  0  0
  188.7150  178.0540  142.1930 C   0  0  0  0  0  2  0  0  0  0  0  0
  190.1380  176.6720  138.9880 C   0  0  0  0  0  3  0  0  0  0  0  0
  189.4260  176.7130  136.6170 C   0  0  0  0  0  1  0  0  0  0  0  0
  188.0930  177.8660  138.4350 C   0  0  0  0  0  0  0  0  0  0  0  0
  186.8760  178.2760  137.2210 Cl  0  0  0  0  0  0  0  0  0  0  0  0
  187.9340  178.2160  139.8020 C   0  0  0  0  0  0  0  0  0  0  0  0
  189.2100  177.1020  138.0400 C   0  0  0  0  0  0  0  0  0  0  0  0
  188.8750  177.7540  140.7420 C   0  0  0  0  0  0  0  0  0  0  0  0
  189.9680  176.9900  140.3320 C   0  0  0  0  0  3  0  0  0  0  0  0
  185.5080  178.5810  140.2650 C   0  0  0  0  0  1  0  0  0  0  0  0
  186.8670  178.9930  140.2790 O   0  0  0  0  0  0  0  0  0  0  0  0
  1  8  1  6  0  0  0
  1  3  1  0  0  0  0
  2  6  1  0  0  0  0
  3  7  2  0  0  0  0
  4  5  1  0  0  0  0
  4  3  1  0  0  0  0
  5  2  1  0  0  0  0
  7  6  1  0  0  0  0
  8 11  1  0  0  0  0
  9 10  1  0  0  0  0
 10 13  2  0  0  0  0
 11 14  2  0  0  0  0
 12 15  1  0  0  0  0
 14 13  1  0  0  0  0
 15 11  1  0  0  0  0
 15  9  2  0  0  0  0
 16  1  1  0  0  0  0
 17 16  1  0  0  0  0
 18 25  1  0  0  0  0
 19 23  1  0  0  0  0
 20 22  2  0  0  0  0
 21 20  1  0  0  0  0
 22 27  1  0  0  0  0
 22 24  1  0  0  0  0
 23 20  1  0  0  0  0
 23 18  2  0  0  0  0
 24 17  1  0  0  0  0
 25 24  2  0  0  0  0
 26 27  1  0  0  0  0
M  END
>  <MODEL>
2

>  <REMARK>
 VINA RESULT:      -8.7      1.434      2.109
  Name = 
  7 active torsions:
  status: ('A' for Active; 'I' for Inactive)
    1  A    between atoms: C_1  and  C_15
    2  A    between atoms: C_1  and  C_18
    3  A    between atoms: N_2  and  C_6
    4  A    between atoms: N_2  and  C_15
    5  A    between atoms: C_6  and  C_17
    6  A    between atoms: C_9  and  C_15
    7  A    between atoms: C_14  and  O_19
                            x       y       z     vdW  Elec       q    Type
                         _______ _______ _______ _____ _____    ______ ____

>  <TORSDO>
F 7

$$$$
=
 OpenBabel10262420063D

 27 29  0  0  1  0  0  0  0  0999 V2000
  188.5760  178.0970  143.7740 C   0  0  2  0  0  3  0  0  0  0  0  0
  191.6790  176.7150  146.4920 C   0  0  0  0  0  2  0  0  0  0  0  0
  189.5800  177.4330  144.6820 C   0  0  0  0  0  0  0  0  0  0  0  0
  190.9060  176.9460  144.1320 C   0  0  0  0  0  2  0  0  0  0  0  0
  191.6810  176.0700  145.1150 C   0  0  0  0  0  2  0  0  0  0  0  0
  190.2450  176.7700  147.0040 C   0  0  0  0  0  2  0  0  0  0  0  0
  189.3250  177.4170  146.0030 C   0  0  0  0  0  3  0  0  0  0  0  0
  187.3070  177.2540  143.5970 C   0  0  0  0  0  2  0  0  0  0  0  0
  183.8660  178.8220  144.0550 C   0  0  0  0  0  3  0  0  0  0  0  0
  183.8360  179.0030  145.4400 C   0  0  0  0  0  3  0  0  0  0  0  0
  186.0950  177.8760  144.2250 C   0  0  0  0  0  0  0  0  0  0  0  0
  185.0070  178.0950  142.0630 O   0  0  0  0  0  1  0  0  0  0  0  0
  184.9330  178.6240  146.2190 C   0  0  0  0  0  3  0  0  0  0  0  0
  186.0590  178.0630  145.6120 C   0  0  0  0  0  3  0  0  0  0  0  0
  184.9920  178.2610  143.4440 C   0  0  0  0  0  0  0  0  0  0  0  0
  189.1540  178.4430  142.4830 N   0  0  0  0  0  2  0  0  0  0  0  0
  188.3010  177.8530  141.4650 C   0  0  0  0  0  2  0  0  0  0  0  0
  191.0750  176.4350  139.3430 C   0  0  0  0  0  3  0  0  0  0  0  0
  191.5260  176.3540  136.9100 C   0  0  0  0  0  1  0  0  0  0  0  0
  189.4740  177.4990  137.8530 C   0  0  0  0  0  0  0  0  0  0  0  0
  188.9360  177.8000  136.1970 Cl  0  0  0  0  0  0  0  0  0  0  0  0
  188.6970  177.8880  138.9760 C   0  0  0  0  0  0  0  0  0  0  0  0
  190.6710  176.7810  138.0540 C   0  0  0  0  0  0  0  0  0  0  0  0
  189.1170  177.5110  140.2650 C   0  0  0  0  0  0  0  0  0  0  0  0
  190.2990  176.7920  140.4420 C   0  0  0  0  0  3  0  0  0  0  0  0
  186.2780  178.0940  138.3940 C   0  0  0  0  0  1  0  0  0  0  0  0
  187.5060  178.6240  138.8700 O   0  0  0  0  0  0  0  0  0  0  0  0
  1  8  1  6  0  0  0
  1  3  1  0  0  0  0
  2  6  1  0  0  0  0
  3  7  2  0  0  0  0
  4  3  1  0  0  0  0
  4  5  1  0  0  0  0
  5  2  1  0  0  0  0
  7  6  1  0  0  0  0
  8 11  1  0  0  0  0
  9 10  1  0  0  0  0
 10 13  2  0  0  0  0
 11 14  2  0  0  0  0
 12 15  1  0  0  0  0
 14 13  1  0  0  0  0
 15  9  2  0  0  0  0
 15 11  1  0  0  0  0
 16  1  1  0  0  0  0
 17 16  1  0  0  0  0
 18 25  1  0  0  0  0
 19 23  1  0  0  0  0
 20 23  1  0  0  0  0
 20 22  2  0  0  0  0
 21 20  1  0  0  0  0
 22 24  1  0  0  0  0
 23 18  2  0  0  0  0
 24 25  2  0  0  0  0
 24 17  1  0  0  0  0
 26 27  1  0  0  0  0
 27 22  1  0  0  0  0
M  END
>  <MODEL>
3

>  <REMARK>
 VINA RESULT:      -8.7      1.885      4.853
  Name = 
  7 active torsions:
  status: ('A' for Active; 'I' for Inactive)
    1  A    between atoms: C_1  and  C_15
    2  A    between atoms: C_1  and  C_18
    3  A    between atoms: N_2  and  C_6
    4  A    between atoms: N_2  and  C_15
    5  A    between atoms: C_6  and  C_17
    6  A    between atoms: C_9  and  C_15
    7  A    between atoms: C_14  and  O_19
                            x       y       z     vdW  Elec       q    Type
                         _______ _______ _______ _____ _____    ______ ____

>  <TORSDO>
F 7

$$$$
=
 OpenBabel10262420063D

 27 29  0  0  1  0  0  0  0  0999 V2000
  187.4290  177.8940  143.7380 C   0  0  2  0  0  3  0  0  0  0  0  0
  191.5420  176.5020  143.4610 C   0  0  0  0  0  2  0  0  0  0  0  0
  188.8460  177.4670  143.4480 C   0  0  0  0  0  0  0  0  0  0  0  0
  189.9900  178.4490  143.6150 C   0  0  0  0  0  2  0  0  0  0  0  0
  191.3080  177.9420  143.0310 C   0  0  0  0  0  2  0  0  0  0  0  0
  190.4450  175.6300  142.8640 C   0  0  0  0  0  2  0  0  0  0  0  0
  189.0750  176.1690  143.1830 C   0  0  0  0  0  3  0  0  0  0  0  0
  186.8360  177.1550  144.9440 C   0  0  0  0  0  2  0  0  0  0  0  0
  187.4100  178.6390  148.4050 C   0  0  0  0  0  3  0  0  0  0  0  0
  188.7090  178.2010  148.6730 C   0  0  0  0  0  3  0  0  0  0  0  0
  187.4810  177.5360  146.2430 C   0  0  0  0  0  0  0  0  0  0  0  0
  185.5030  178.7630  146.9410 O   0  0  0  0  0  1  0  0  0  0  0  0
  189.3970  177.4330  147.7290 C   0  0  0  0  0  3  0  0  0  0  0  0
  188.7840  177.1030  146.5180 C   0  0  0  0  0  3  0  0  0  0  0  0
  186.7930  178.3110  147.1930 C   0  0  0  0  0  0  0  0  0  0  0  0
  186.5690  177.7550  142.5710 N   0  0  0  0  0  2  0  0  0  0  0  0
  185.9330  179.0440  142.3570 C   0  0  0  0  0  2  0  0  0  0  0  0
  182.6650  179.0430  144.2340 C   0  0  0  0  0  3  0  0  0  0  0  0
  180.2940  178.7540  143.5840 C   0  0  0  0  0  1  0  0  0  0  0  0
  182.1720  178.6220  141.8900 C   0  0  0  0  0  0  0  0  0  0  0  0
  180.9550  178.4480  140.6200 Cl  0  0  0  0  0  0  0  0  0  0  0  0
  183.5600  178.6690  141.5960 C   0  0  0  0  0  0  0  0  0  0  0  0
  181.7390  178.7990  143.2210 C   0  0  0  0  0  0  0  0  0  0  0  0
  184.4730  178.9330  142.6340 C   0  0  0  0  0  0  0  0  0  0  0  0
  184.0240  179.1160  143.9420 C   0  0  0  0  0  3  0  0  0  0  0  0
  184.0610  179.4650  139.2830 C   0  0  0  0  0  1  0  0  0  0  0  0
  184.0800  178.4800  140.3060 O   0  0  0  0  0  0  0  0  0  0  0  0
  1  8  1  1  0  0  0
  3  4  1  0  0  0  0
  3  1  1  0  0  0  0
  5  2  1  0  0  0  0
  5  4  1  0  0  0  0
  6  7  1  0  0  0  0
  6  2  1  0  0  0  0
  7  3  2  0  0  0  0
  8 11  1  0  0  0  0
  9 10  1  0  0  0  0
 11 14  2  0  0  0  0
 11 15  1  0  0  0  0
 12 15  1  0  0  0  0
 13 10  2  0  0  0  0
 14 13  1  0  0  0  0
 15  9  2  0  0  0  0
 16  1  1  0  0  0  0
 17 16  1  0  0  0  0
 17 24  1  0  0  0  0
 20 23  1  0  0  0  0
 21 20  1  0  0  0  0
 22 20  2  0  0  0  0
 22 24  1  0  0  0  0
 23 19  1  0  0  0  0
 23 18  2  0  0  0  0
 24 25  2  0  0  0  0
 25 18  1  0  0  0  0
 26 27  1  0  0  0  0
 27 22  1  0  0  0  0
M  END
>  <MODEL>
4

>  <REMARK>
 VINA RESULT:      -8.6      3.818      6.161
  Name = 
  7 active torsions:
  status: ('A' for Active; 'I' for Inactive)
    1  A    between atoms: C_1  and  C_15
    2  A    between atoms: C_1  and  C_18
    3  A    between atoms: N_2  and  C_6
    4  A    between atoms: N_2  and  C_15
    5  A    between atoms: C_6  and  C_17
    6  A    between atoms: C_9  and  C_15
    7  A    between atoms: C_14  and  O_19
                            x       y       z     vdW  Elec       q    Type
                         _______ _______ _______ _____ _____    ______ ____

>  <TORSDO>
F 7

$$$$
=
 OpenBabel10262420063D

 27 29  0  0  1  0  0  0  0  0999 V2000
  187.8710  177.2420  144.1530 C   0  0  2  0  0  3  0  0  0  0  0  0
  183.9290  178.6110  145.3820 C   0  0  0  0  0  2  0  0  0  0  0  0
  186.5810  177.9030  144.5670 C   0  0  0  0  0  0  0  0  0  0  0  0
  185.5640  178.3190  143.5210 C   0  0  0  0  0  2  0  0  0  0  0  0
  184.4510  179.2030  144.0820 C   0  0  0  0  0  2  0  0  0  0  0  0
  185.0510  178.6290  146.4130 C   0  0  0  0  0  2  0  0  0  0  0  0
  186.3010  177.9790  145.8800 C   0  0  0  0  0  3  0  0  0  0  0  0
  189.1010  178.0570  144.5730 C   0  0  0  0  0  2  0  0  0  0  0  0
  191.0980  176.3680  147.3420 C   0  0  0  0  0  3  0  0  0  0  0  0
  192.0550  175.6740  146.5970 C   0  0  0  0  0  3  0  0  0  0  0  0
  190.1320  177.2390  145.2930 C   0  0  0  0  0  0  0  0  0  0  0  0
  189.1970  177.8410  147.4540 O   0  0  0  0  0  1  0  0  0  0  0  0
  192.0550  175.7620  145.2030 C   0  0  0  0  0  3  0  0  0  0  0  0
  191.0950  176.5430  144.5530 C   0  0  0  0  0  3  0  0  0  0  0  0
  190.1370  177.1510  146.6950 C   0  0  0  0  0  0  0  0  0  0  0  0
  187.9030  176.9540  142.7260 N   0  0  0  0  0  2  0  0  0  0  0  0
  188.4320  178.1350  142.0660 C   0  0  0  0  0  2  0  0  0  0  0  0
  191.1630  176.6800  139.9140 C   0  0  0  0  0  3  0  0  0  0  0  0
  191.4840  176.4050  137.4740 C   0  0  0  0  0  1  0  0  0  0  0  0
  189.4240  177.5210  138.4350 C   0  0  0  0  0  0  0  0  0  0  0  0
  188.7790  177.6430  136.7940 Cl  0  0  0  0  0  0  0  0  0  0  0  0
  188.6880  177.9680  139.5640 C   0  0  0  0  0  0  0  0  0  0  0  0
  190.6700  176.8870  138.6260 C   0  0  0  0  0  0  0  0  0  0  0  0
  189.2000  177.7300  140.8540 C   0  0  0  0  0  0  0  0  0  0  0  0
  190.4290  177.0930  141.0220 C   0  0  0  0  0  3  0  0  0  0  0  0
  186.3070  178.0890  138.8220 C   0  0  0  0  0  1  0  0  0  0  0  0
  187.4530  178.6280  139.4660 O   0  0  0  0  0  0  0  0  0  0  0  0
  1  3  1  0  0  0  0
  1  8  1  6  0  0  0
  2  6  1  0  0  0  0
  3  7  2  0  0  0  0
  4  5  1  0  0  0  0
  4  3  1  0  0  0  0
  5  2  1  0  0  0  0
  7  6  1  0  0  0  0
  8 11  1  0  0  0  0
 10  9  2  0  0  0  0
 11 15  2  0  0  0  0
 13 10  1  0  0  0  0
 14 13  2  0  0  0  0
 14 11  1  0  0  0  0
 15  9  1  0  0  0  0
 15 12  1  0  0  0  0
 16  1  1  0  0  0  0
 17 16  1  0  0  0  0
 18 25  1  0  0  0  0
 19 23  1  0  0  0  0
 20 23  1  0  0  0  0
 20 22  2  0  0  0  0
 21 20  1  0  0  0  0
 22 24  1  0  0  0  0
 23 18  2  0  0  0  0
 24 25  2  0  0  0  0
 24 17  1  0  0  0  0
 26 27  1  0  0  0  0
 27 22  1  0  0  0  0
M  END
>  <MODEL>
5

>  <REMARK>
 VINA RESULT:      -8.5      1.516      2.422
  Name = 
  7 active torsions:
  status: ('A' for Active; 'I' for Inactive)
    1  A    between atoms: C_1  and  C_15
    2  A    between atoms: C_1  and  C_18
    3  A    between atoms: N_2  and  C_6
    4  A    between atoms: N_2  and  C_15
    5  A    between atoms: C_6  and  C_17
    6  A    between atoms: C_9  and  C_15
    7  A    between atoms: C_14  and  O_19
                            x       y       z     vdW  Elec       q    Type
                         _______ _______ _______ _____ _____    ______ ____

>  <TORSDO>
F 7

$$$$
=
 OpenBabel10262420063D

 27 29  0  0  1  0  0  0  0  0999 V2000
  187.9170  177.8010  142.8600 C   0  0  2  0  0  3  0  0  0  0  0  0
  190.9520  177.0280  139.8400 C   0  0  0  0  0  2  0  0  0  0  0  0
  189.0300  177.7220  141.8460 C   0  0  0  0  0  0  0  0  0  0  0  0
  190.4170  177.2740  142.2640 C   0  0  0  0  0  2  0  0  0  0  0  0
  191.4750  177.5050  141.1860 C   0  0  0  0  0  2  0  0  0  0  0  0
  189.7500  177.8810  139.4520 C   0  0  0  0  0  2  0  0  0  0  0  0
  188.7220  177.9200  140.5510 C   0  0  0  0  0  3  0  0  0  0  0  0
  188.0270  176.7050  143.9270 C   0  0  0  0  0  2  0  0  0  0  0  0
  189.0690  177.8100  147.4200 C   0  0  0  0  0  3  0  0  0  0  0  0
  187.8540  178.2780  147.9280 C   0  0  0  0  0  3  0  0  0  0  0  0
  187.9790  177.2400  145.3280 C   0  0  0  0  0  0  0  0  0  0  0  0
  190.3530  176.8230  145.6390 O   0  0  0  0  0  1  0  0  0  0  0  0
  186.7010  178.2260  147.1400 C   0  0  0  0  0  3  0  0  0  0  0  0
  186.7640  177.7080  145.8440 C   0  0  0  0  0  3  0  0  0  0  0  0
  189.1360  177.2900  146.1240 C   0  0  0  0  0  0  0  0  0  0  0  0
  186.6040  177.7830  142.2310 N   0  0  0  0  0  2  0  0  0  0  0  0
  186.0110  179.0910  142.4490 C   0  0  0  0  0  2  0  0  0  0  0  0
  182.8450  179.0040  144.4920 C   0  0  0  0  0  3  0  0  0  0  0  0
  180.4550  178.6290  143.9670 C   0  0  0  0  0  1  0  0  0  0  0  0
  182.2470  178.5390  142.1810 C   0  0  0  0  0  0  0  0  0  0  0  0
  180.9730  178.3090  140.9780 Cl  0  0  0  0  0  0  0  0  0  0  0  0
  183.6160  178.6280  141.8150 C   0  0  0  0  0  0  0  0  0  0  0  0
  181.8770  178.7180  143.5300 C   0  0  0  0  0  0  0  0  0  0  0  0
  184.5710  178.9360  142.8020 C   0  0  0  0  0  0  0  0  0  0  0  0
  184.1830  179.1190  144.1290 C   0  0  0  0  0  3  0  0  0  0  0  0
  183.9380  179.3980  139.4620 C   0  0  0  0  0  1  0  0  0  0  0  0
  184.0750  178.4410  140.5020 O   0  0  0  0  0  0  0  0  0  0  0  0
  1  8  1  1  0  0  0
  2  5  1  0  0  0  0
  3  4  1  0  0  0  0
  3  1  1  0  0  0  0
  5  4  1  0  0  0  0
  6  2  1  0  0  0  0
  6  7  1  0  0  0  0
  7  3  2  0  0  0  0
  8 11  1  0  0  0  0
  9 10  1  0  0  0  0
 11 14  2  0  0  0  0
 11 15  1  0  0  0  0
 12 15  1  0  0  0  0
 13 10  2  0  0  0  0
 14 13  1  0  0  0  0
 15  9  2  0  0  0  0
 16 17  1  0  0  0  0
 16  1  1  0  0  0  0
 17 24  1  0  0  0  0
 20 23  1  0  0  0  0
 21 20  1  0  0  0  0
 22 20  2  0  0  0  0
 22 24  1  0  0  0  0
 23 19  1  0  0  0  0
 23 18  2  0  0  0  0
 24 25  2  0  0  0  0
 25 18  1  0  0  0  0
 26 27  1  0  0  0  0
 27 22  1  0  0  0  0
M  END
>  <MODEL>
6

>  <REMARK>
 VINA RESULT:      -8.4      3.065      6.215
  Name = 
  7 active torsions:
  status: ('A' for Active; 'I' for Inactive)
    1  A    between atoms: C_1  and  C_15
    2  A    between atoms: C_1  and  C_18
    3  A    between atoms: N_2  and  C_6
    4  A    between atoms: N_2  and  C_15
    5  A    between atoms: C_6  and  C_17
    6  A    between atoms: C_9  and  C_15
    7  A    between atoms: C_14  and  O_19
                            x       y       z     vdW  Elec       q    Type
                         _______ _______ _______ _____ _____    ______ ____

>  <TORSDO>
F 7

$$$$
=
 OpenBabel10262420063D

 27 29  0  0  1  0  0  0  0  0999 V2000
  188.2120  177.1470  143.9050 C   0  0  2  0  0  3  0  0  0  0  0  0
  189.1610  177.9240  148.0790 C   0  0  0  0  0  2  0  0  0  0  0  0
  188.5290  177.2160  145.3780 C   0  0  0  0  0  0  0  0  0  0  0  0
  189.9650  177.1260  145.8570 C   0  0  0  0  0  2  0  0  0  0  0  0
  190.0850  176.9460  147.3690 C   0  0  0  0  0  2  0  0  0  0  0  0
  187.7200  177.5830  147.7190 C   0  0  0  0  0  2  0  0  0  0  0  0
  187.5270  177.5020  146.2280 C   0  0  0  0  0  3  0  0  0  0  0  0
  188.8070  178.3270  143.1270 C   0  0  0  0  0  2  0  0  0  0  0  0
  191.8890  177.4580  141.0650 C   0  0  0  0  0  3  0  0  0  0  0  0
  191.3030  177.0630  139.8600 C   0  0  0  0  0  3  0  0  0  0  0  0
  189.6900  177.8990  141.9930 C   0  0  0  0  0  0  0  0  0  0  0  0
  191.6900  178.2730  143.3210 O   0  0  0  0  0  1  0  0  0  0  0  0
  189.9130  177.0870  139.7170 C   0  0  0  0  0  3  0  0  0  0  0  0
  189.1090  177.5050  140.7810 C   0  0  0  0  0  3  0  0  0  0  0  0
  191.0880  177.8770  142.1320 C   0  0  0  0  0  0  0  0  0  0  0  0
  186.7810  177.0330  143.6600 N   0  0  0  0  0  2  0  0  0  0  0  0
  186.3680  178.2510  142.9850 C   0  0  0  0  0  2  0  0  0  0  0  0
  183.0730  178.9730  144.6670 C   0  0  0  0  0  3  0  0  0  0  0  0
  180.7350  179.1830  143.8800 C   0  0  0  0  0  1  0  0  0  0  0  0
  182.6350  178.6280  142.3000 C   0  0  0  0  0  0  0  0  0  0  0  0
  181.4830  178.6940  140.9620 Cl  0  0  0  0  0  0  0  0  0  0  0  0
  184.0160  178.3740  142.0870 C   0  0  0  0  0  0  0  0  0  0  0  0
  182.1750  178.9150  143.6020 C   0  0  0  0  0  0  0  0  0  0  0  0
  184.9040  178.4570  143.1770 C   0  0  0  0  0  0  0  0  0  0  0  0
  184.4310  178.7520  144.4550 C   0  0  0  0  0  3  0  0  0  0  0  0
  184.7710  179.0010  139.7920 C   0  0  0  0  0  1  0  0  0  0  0  0
  184.5560  178.0570  140.8310 O   0  0  0  0  0  0  0  0  0  0  0  0
  1  8  1  6  0  0  0
  1  3  1  0  0  0  0
  3  4  1  0  0  0  0
  3  7  2  0  0  0  0
  4  5  1  0  0  0  0
  5  2  1  0  0  0  0
  6  2  1  0  0  0  0
  7  6  1  0  0  0  0
  9 15  1  0  0  0  0
 10  9  2  0  0  0  0
 11 15  2  0  0  0  0
 11  8  1  0  0  0  0
 13 10  1  0  0  0  0
 13 14  2  0  0  0  0
 14 11  1  0  0  0  0
 15 12  1  0  0  0  0
 16  1  1  0  0  0  0
 17 24  1  0  0  0  0
 17 16  1  0  0  0  0
 20 23  1  0  0  0  0
 21 20  1  0  0  0  0
 22 20  2  0  0  0  0
 22 24  1  0  0  0  0
 23 19  1  0  0  0  0
 23 18  2  0  0  0  0
 24 25  2  0  0  0  0
 25 18  1  0  0  0  0
 26 27  1  0  0  0  0
 27 22  1  0  0  0  0
M  END
>  <MODEL>
7

>  <REMARK>
 VINA RESULT:      -8.2      2.866      6.019
  Name = 
  7 active torsions:
  status: ('A' for Active; 'I' for Inactive)
    1  A    between atoms: C_1  and  C_15
    2  A    between atoms: C_1  and  C_18
    3  A    between atoms: N_2  and  C_6
    4  A    between atoms: N_2  and  C_15
    5  A    between atoms: C_6  and  C_17
    6  A    between atoms: C_9  and  C_15
    7  A    between atoms: C_14  and  O_19
                            x       y       z     vdW  Elec       q    Type
                         _______ _______ _______ _____ _____    ______ ____

>  <TORSDO>
F 7

$$$$
=
 OpenBabel10262420063D

 27 29  0  0  1  0  0  0  0  0999 V2000
  187.5900  177.3750  143.3960 C   0  0  2  0  0  3  0  0  0  0  0  0
  188.6910  177.1340  147.5970 C   0  0  0  0  0  2  0  0  0  0  0  0
  187.9770  177.4930  144.8480 C   0  0  0  0  0  0  0  0  0  0  0  0
  186.9080  177.6060  145.9180 C   0  0  0  0  0  2  0  0  0  0  0  0
  187.4670  177.9820  147.2900 C   0  0  0  0  0  2  0  0  0  0  0  0
  189.7810  177.4630  146.5850 C   0  0  0  0  0  2  0  0  0  0  0  0
  189.2750  177.3510  145.1710 C   0  0  0  0  0  3  0  0  0  0  0  0
  188.1690  178.5150  142.5470 C   0  0  0  0  0  2  0  0  0  0  0  0
  189.5240  177.6750  139.0890 C   0  0  0  0  0  3  0  0  0  0  0  0
  190.7790  177.1510  139.4120 C   0  0  0  0  0  3  0  0  0  0  0  0
  189.0640  178.0330  141.4450 C   0  0  0  0  0  0  0  0  0  0  0  0
  187.4180  178.6270  139.7590 O   0  0  0  0  0  1  0  0  0  0  0  0
  191.1770  177.0640  140.7490 C   0  0  0  0  0  3  0  0  0  0  0  0
  190.3210  177.5040  141.7620 C   0  0  0  0  0  3  0  0  0  0  0  0
  188.6650  178.1150  140.1000 C   0  0  0  0  0  0  0  0  0  0  0  0
  186.1480  177.2800  143.2210 N   0  0  0  0  0  2  0  0  0  0  0  0
  185.6960  178.5630  142.7110 C   0  0  0  0  0  2  0  0  0  0  0  0
  182.3280  179.0020  144.3460 C   0  0  0  0  0  3  0  0  0  0  0  0
  180.0000  179.1230  143.5110 C   0  0  0  0  0  1  0  0  0  0  0  0
  181.9640  178.7650  141.9530 C   0  0  0  0  0  0  0  0  0  0  0  0
  180.8400  178.8410  140.5910 Cl  0  0  0  0  0  0  0  0  0  0  0  0
  183.3610  178.6030  141.7620 C   0  0  0  0  0  0  0  0  0  0  0  0
  181.4590  178.9530  143.2560 C   0  0  0  0  0  0  0  0  0  0  0  0
  184.2190  178.6750  142.8760 C   0  0  0  0  0  0  0  0  0  0  0  0
  183.7010  178.8710  144.1570 C   0  0  0  0  0  3  0  0  0  0  0  0
  184.0450  179.3760  139.4890 C   0  0  0  0  0  1  0  0  0  0  0  0
  183.9470  178.3880  140.5040 O   0  0  0  0  0  0  0  0  0  0  0  0
  1  8  1  6  0  0  0
  1  3  1  0  0  0  0
  3  7  2  0  0  0  0
  3  4  1  0  0  0  0
  4  5  1  0  0  0  0
  5  2  1  0  0  0  0
  6  2  1  0  0  0  0
  7  6  1  0  0  0  0
  9 10  2  0  0  0  0
  9 15  1  0  0  0  0
 10 13  1  0  0  0  0
 11 14  1  0  0  0  0
 11  8  1  0  0  0  0
 12 15  1  0  0  0  0
 13 14  2  0  0  0  0
 15 11  2  0  0  0  0
 16  1  1  0  0  0  0
 17 24  1  0  0  0  0
 17 16  1  0  0  0  0
 20 23  1  0  0  0  0
 21 20  1  0  0  0  0
 22 20  2  0  0  0  0
 22 24  1  0  0  0  0
 23 19  1  0  0  0  0
 23 18  2  0  0  0  0
 24 25  2  0  0  0  0
 25 18  1  0  0  0  0
 26 27  1  0  0  0  0
 27 22  1  0  0  0  0
M  END
>  <MODEL>
8

>  <REMARK>
 VINA RESULT:      -8.2      3.204      6.383
  Name = 
  7 active torsions:
  status: ('A' for Active; 'I' for Inactive)
    1  A    between atoms: C_1  and  C_15
    2  A    between atoms: C_1  and  C_18
    3  A    between atoms: N_2  and  C_6
    4  A    between atoms: N_2  and  C_15
    5  A    between atoms: C_6  and  C_17
    6  A    between atoms: C_9  and  C_15
    7  A    between atoms: C_14  and  O_19
                            x       y       z     vdW  Elec       q    Type
                         _______ _______ _______ _____ _____    ______ ____

>  <TORSDO>
F 7

$$$$
=
 OpenBabel10262420063D

 27 29  0  0  1  0  0  0  0  0999 V2000
  187.8780  177.7120  141.1810 C   0  0  2  0  0  3  0  0  0  0  0  0
  190.4010  177.2540  137.6670 C   0  0  0  0  0  2  0  0  0  0  0  0
  188.6830  177.3640  139.9540 C   0  0  0  0  0  0  0  0  0  0  0  0
  188.0980  177.5710  138.5710 C   0  0  0  0  0  2  0  0  0  0  0  0
  188.9300  176.9260  137.4630 C   0  0  0  0  0  2  0  0  0  0  0  0
  190.8660  176.6240  138.9740 C   0  0  0  0  0  2  0  0  0  0  0  0
  189.9690  177.0070  140.1220 C   0  0  0  0  0  3  0  0  0  0  0  0
  187.1300  179.0420  141.0260 C   0  0  0  0  0  2  0  0  0  0  0  0
  183.3690  178.8560  140.4560 C   0  0  0  0  0  3  0  0  0  0  0  0
  182.9090  178.6550  141.7610 C   0  0  0  0  0  3  0  0  0  0  0  0
  185.6550  178.9200  141.2690 C   0  0  0  0  0  0  0  0  0  0  0  0
  185.1750  179.1960  138.9030 O   0  0  0  0  0  1  0  0  0  0  0  0
  183.8180  178.5890  142.8200 C   0  0  0  0  0  3  0  0  0  0  0  0
  185.1870  178.7210  142.5740 C   0  0  0  0  0  3  0  0  0  0  0  0
  184.7380  178.9900  140.2060 C   0  0  0  0  0  0  0  0  0  0  0  0
  188.6940  177.7130  142.3870 N   0  0  0  0  0  2  0  0  0  0  0  0
  188.2190  176.6230  143.2220 C   0  0  0  0  0  2  0  0  0  0  0  0
  187.1930  177.8250  146.6440 C   0  0  0  0  0  3  0  0  0  0  0  0
  188.3630  178.0910  148.8090 C   0  0  0  0  0  1  0  0  0  0  0  0
  189.5550  177.2550  146.7380 C   0  0  0  0  0  0  0  0  0  0  0  0
  191.0030  177.0120  147.7220 Cl  0  0  0  0  0  0  0  0  0  0  0  0
  189.5230  176.9190  145.3580 C   0  0  0  0  0  0  0  0  0  0  0  0
  188.3810  177.7200  147.3660 C   0  0  0  0  0  0  0  0  0  0  0  0
  188.3060  177.0180  144.6570 C   0  0  0  0  0  0  0  0  0  0  0  0
  187.1540  177.4700  145.2990 C   0  0  0  0  0  3  0  0  0  0  0  0
  191.7120  177.3120  144.2240 C   0  0  0  0  0  1  0  0  0  0  0  0
  190.6480  176.4720  144.6480 O   0  0  0  0  0  0  0  0  0  0  0  0
  1  8  1  6  0  0  0
  1 16  1  0  0  0  0
  2  6  1  0  0  0  0
  3  7  2  0  0  0  0
  3  1  1  0  0  0  0
  4  3  1  0  0  0  0
  5  2  1  0  0  0  0
  5  4  1  0  0  0  0
  6  7  1  0  0  0  0
  8 11  1  0  0  0  0
  9 10  1  0  0  0  0
 10 13  2  0  0  0  0
 11 14  2  0  0  0  0
 12 15  1  0  0  0  0
 14 13  1  0  0  0  0
 15  9  2  0  0  0  0
 15 11  1  0  0  0  0
 16 17  1  0  0  0  0
 17 24  1  0  0  0  0
 18 23  1  0  0  0  0
 20 23  2  0  0  0  0
 20 21  1  0  0  0  0
 22 20  1  0  0  0  0
 23 19  1  0  0  0  0
 24 25  1  0  0  0  0
 24 22  2  0  0  0  0
 25 18  2  0  0  0  0
 26 27  1  0  0  0  0
 27 22  1  0  0  0  0
M  END
>  <MODEL>
9

>  <REMARK>
 VINA RESULT:      -8.1      2.832      7.509
  Name = 
  7 active torsions:
  status: ('A' for Active; 'I' for Inactive)
    1  A    between atoms: C_1  and  C_15
    2  A    between atoms: C_1  and  C_18
    3  A    between atoms: N_2  and  C_6
    4  A    between atoms: N_2  and  C_15
    5  A    between atoms: C_6  and  C_17
    6  A    between atoms: C_9  and  C_15
    7  A    between atoms: C_14  and  O_19
                            x       y       z     vdW  Elec       q    Type
                         _______ _______ _______ _____ _____    ______ ____

>  <TORSDO>
F 7

$$$$
