=
 OpenBabel10262421013D

 32 37  0  0  1  0  0  0  0  0999 V2000
  182.4310  178.7810  138.2360 C   0  0  1  0  0  3  0  0  0  0  0  0
  182.0460  178.8170  140.5970 C   0  0  1  0  0  3  0  0  0  0  0  0
  181.9570  178.3480  136.8370 C   0  0  0  0  0  2  0  0  0  0  0  0
  181.4870  178.4030  139.3060 N   0  0  1  0  0  0  0  0  0  0  0  0
  181.0780  178.4560  141.7170 C   0  0  1  0  0  3  0  0  0  0  0  0
  185.6740  178.4890  143.8940 C   0  0  0  0  0  3  0  0  0  0  0  0
  183.3910  178.1310  140.8560 C   0  0  1  0  0  3  0  0  0  0  0  0
  183.4070  178.9990  144.5740 C   0  0  0  0  0  3  0  0  0  0  0  0
  182.9590  178.7630  143.2720 C   0  0  0  0  0  0  0  0  0  0  0  0
  180.2190  179.1500  139.1570 C   0  0  2  0  0  3  0  0  0  0  0  0
  181.5950  178.8880  142.9740 O   0  0  0  0  0  0  0  0  0  0  0  0
  179.2700  178.7080  140.1100 O   0  0  0  0  0  0  0  0  0  0  0  0
  179.6080  179.0410  137.7570 C   0  0  0  0  0  2  0  0  0  0  0  0
  184.3600  178.5810  139.8590 N   0  0  0  0  0  2  0  0  0  0  0  0
  183.8730  178.2850  138.5080 C   0  0  1  0  0  3  0  0  0  0  0  0
  183.8820  178.4170  142.2580 C   0  0  0  0  0  0  0  0  0  0  0  0
  179.7050  179.0630  141.4130 C   0  0  2  0  0  3  0  0  0  0  0  0
  180.2810  177.6290  136.8310 S   0  0  0  0  0  0  0  0  0  0  0  0
  184.7620  178.8630  144.8850 C   0  0  0  0  0  3  0  0  0  0  0  0
  185.2350  178.2590  142.5870 C   0  0  0  0  0  3  0  0  0  0  0  0
  185.7070  175.3410  136.8180 C   0  0  0  0  0  0  0  0  0  0  0  0
  186.8110  175.0640  136.0750 F   0  0  0  0  0  0  0  0  0  0  0  0
  183.7320  174.5910  137.9300 N   0  0  0  0  0  0  0  0  0  0  0  0
  184.2890  176.9200  138.0070 C   0  0  0  0  0  0  0  0  0  0  0  0
  184.8280  174.3130  137.1770 C   0  0  0  0  0  0  0  0  0  0  0  0
  183.4500  175.8540  138.3410 C   0  0  0  0  0  3  0  0  0  0  0  0
  185.4380  176.6560  137.2270 C   0  0  0  0  0  0  0  0  0  0  0  0
  186.3940  177.7280  136.8260 C   0  0  0  0  0  1  0  0  0  0  0  0
  184.0600  172.0830  137.2050 O   0  0  0  0  0  1  0  0  0  0  0  0
  185.1020  172.9040  136.7760 C   0  0  0  0  0  2  0  0  0  0  0  0
  179.6490  180.5750  141.6480 C   0  0  0  0  0  2  0  0  0  0  0  0
  178.9310  180.8460  142.8120 O   0  0  0  0  0  1  0  0  0  0  0  0
  1  3  1  6  0  0  0
  1 15  1  0  0  0  0
  1  4  1  0  0  0  0
  2  7  1  0  0  0  0
  2  5  1  0  0  0  0
  4  2  1  0  0  0  0
  5 11  1  0  0  0  0
  6 19  1  0  0  0  0
  7 16  1  0  0  0  0
  8 19  2  0  0  0  0
  9  8  1  0  0  0  0
 10  4  1  0  0  0  0
 10 12  1  0  0  0  0
 11  9  1  0  0  0  0
 12 17  1  0  0  0  0
 13 10  1  0  0  0  0
 14  7  1  0  0  0  0
 15 14  1  0  0  0  0
 16 20  1  0  0  0  0
 16  9  2  0  0  0  0
 17 31  1  0  0  0  0
 17  5  1  0  0  0  0
 18  3  1  0  0  0  0
 18 13  1  0  0  0  0
 20  6  2  0  0  0  0
 21 25  2  0  0  0  0
 21 27  1  0  0  0  0
 22 21  1  0  0  0  0
 23 26  2  0  0  0  0
 24 26  1  0  0  0  0
 24 15  1  0  0  0  0
 25 23  1  0  0  0  0
 27 24  2  0  0  0  0
 28 27  1  0  0  0  0
 30 25  1  0  0  0  0
 30 29  1  0  0  0  0
 31 32  1  0  0  0  0
M  END
>  <MODEL>
1

>  <REMARK>
 VINA RESULT:      -7.0      0.000      0.000
  Name = 
  3 active torsions:
  status: ('A' for Active; 'I' for Inactive)
    1  A    between atoms: C_13  and  C_29
    2  A    between atoms: C_16  and  C_27
    3  A    between atoms: CA_19  and  C_26
                            x       y       z     vdW  Elec       q    Type
                         _______ _______ _______ _____ _____    ______ ____

>  <TORSDO>
F 3

$$$$
=
 OpenBabel10262421013D

 32 37  0  0  1  0  0  0  0  0999 V2000
  187.2900  178.9780  141.0770 C   0  0  1  0  0  3  0  0  0  0  0  0
  187.3790  178.1130  143.3060 C   0  0  1  0  0  3  0  0  0  0  0  0
  186.5610  179.0370  139.7230 C   0  0  0  0  0  2  0  0  0  0  0  0
  186.5890  178.1430  142.0720 N   0  0  1  0  0  0  0  0  0  0  0  0
  186.6630  177.2730  144.3570 C   0  0  1  0  0  3  0  0  0  0  0  0
  191.5970  176.9790  145.5580 C   0  0  0  0  0  3  0  0  0  0  0  0
  188.7690  177.5210  143.0520 C   0  0  1  0  0  3  0  0  0  0  0  0
  189.4940  176.9740  146.7600 C   0  0  0  0  0  3  0  0  0  0  0  0
  188.8040  177.1830  145.5630 C   0  0  0  0  0  0  0  0  0  0  0  0
  185.2940  178.7600  142.4360 C   0  0  2  0  0  3  0  0  0  0  0  0
  187.4060  177.2680  145.5750 O   0  0  0  0  0  0  0  0  0  0  0  0
  184.5660  177.9070  143.3010 O   0  0  0  0  0  0  0  0  0  0  0  0
  184.4220  179.1060  141.2260 C   0  0  0  0  0  2  0  0  0  0  0  0
  189.5070  178.3990  142.1460 N   0  0  0  0  0  2  0  0  0  0  0  0
  188.7710  178.5660  140.8900 C   0  0  1  0  0  3  0  0  0  0  0  0
  189.5180  177.3250  144.3510 C   0  0  0  0  0  0  0  0  0  0  0  0
  185.2400  177.8070  144.5450 C   0  0  2  0  0  3  0  0  0  0  0  0
  184.9400  178.2030  139.7350 S   0  0  0  0  0  0  0  0  0  0  0  0
  190.8880  176.8730  146.7580 C   0  0  0  0  0  3  0  0  0  0  0  0
  190.9140  177.1970  144.3580 C   0  0  0  0  0  3  0  0  0  0  0  0
  190.5970  176.0140  138.6450 C   0  0  0  0  0  0  0  0  0  0  0  0
  191.8200  175.4560  138.4510 F   0  0  0  0  0  0  0  0  0  0  0  0
  188.2960  176.1940  138.0370 N   0  0  0  0  0  0  0  0  0  0  0  0
  189.1210  177.5270  139.8480 C   0  0  0  0  0  0  0  0  0  0  0  0
  189.5200  175.6430  137.8310 C   0  0  0  0  0  0  0  0  0  0  0  0
  188.0810  177.1150  139.0100 C   0  0  0  0  0  3  0  0  0  0  0  0
  190.4040  176.9660  139.6570 C   0  0  0  0  0  0  0  0  0  0  0  0
  191.5720  177.3400  140.5050 C   0  0  0  0  0  1  0  0  0  0  0  0
  189.8830  173.3640  137.3440 O   0  0  0  0  0  1  0  0  0  0  0  0
  189.6920  174.6170  136.7650 C   0  0  0  0  0  2  0  0  0  0  0  0
  185.1860  179.1150  145.3380 C   0  0  0  0  0  2  0  0  0  0  0  0
  184.5310  178.9070  146.5510 O   0  0  0  0  0  1  0  0  0  0  0  0
  1  3  1  6  0  0  0
  1  4  1  0  0  0  0
  2  5  1  0  0  0  0
  3 18  1  0  0  0  0
  4 10  1  0  0  0  0
  4  2  1  0  0  0  0
  5 17  1  0  0  0  0
  5 11  1  0  0  0  0
  6 19  1  0  0  0  0
  7  2  1  0  0  0  0
  7 16  1  0  0  0  0
  9 11  1  0  0  0  0
  9  8  1  0  0  0  0
 10 12  1  0  0  0  0
 12 17  1  0  0  0  0
 13 10  1  0  0  0  0
 14  7  1  0  0  0  0
 15  1  1  0  0  0  0
 15 14  1  0  0  0  0
 16 20  1  0  0  0  0
 16  9  2  0  0  0  0
 17 31  1  0  0  0  0
 18 13  1  0  0  0  0
 19  8  2  0  0  0  0
 20  6  2  0  0  0  0
 21 27  1  0  0  0  0
 22 21  1  0  0  0  0
 23 26  2  0  0  0  0
 24 15  1  0  0  0  0
 25 23  1  0  0  0  0
 25 21  2  0  0  0  0
 26 24  1  0  0  0  0
 27 24  2  0  0  0  0
 27 28  1  0  0  0  0
 30 29  1  0  0  0  0
 30 25  1  0  0  0  0
 31 32  1  0  0  0  0
M  END
>  <MODEL>
2

>  <REMARK>
 VINA RESULT:      -6.8      4.322      5.924
  Name = 
  3 active torsions:
  status: ('A' for Active; 'I' for Inactive)
    1  A    between atoms: C_13  and  C_29
    2  A    between atoms: C_16  and  C_27
    3  A    between atoms: CA_19  and  C_26
                            x       y       z     vdW  Elec       q    Type
                         _______ _______ _______ _____ _____    ______ ____

>  <TORSDO>
F 3

$$$$
=
 OpenBabel10262421013D

 32 37  0  0  1  0  0  0  0  0999 V2000
  185.1620  179.3800  142.6660 C   0  0  1  0  0  3  0  0  0  0  0  0
  187.1680  178.0770  142.6460 C   0  0  1  0  0  3  0  0  0  0  0  0
  183.7330  179.5770  143.2020 C   0  0  0  0  0  2  0  0  0  0  0  0
  185.8380  178.2050  143.2490 N   0  0  1  0  0  0  0  0  0  0  0  0
  187.8950  176.8810  143.2500 C   0  0  1  0  0  3  0  0  0  0  0  0
  189.9000  177.4500  138.6100 C   0  0  0  0  0  3  0  0  0  0  0  0
  187.0660  177.8880  141.1290 C   0  0  1  0  0  3  0  0  0  0  0  0
  190.6750  176.6960  140.7770 C   0  0  0  0  0  3  0  0  0  0  0  0
  189.4330  177.0090  141.3350 C   0  0  0  0  0  0  0  0  0  0  0  0
  186.0690  178.4130  144.6960 C   0  0  2  0  0  3  0  0  0  0  0  0
  189.2050  176.7690  142.6970 O   0  0  0  0  0  0  0  0  0  0  0  0
  186.6120  177.2450  145.2830 O   0  0  0  0  0  0  0  0  0  0  0  0
  184.8060  178.8170  145.4630 C   0  0  0  0  0  2  0  0  0  0  0  0
  186.4900  179.0930  140.5340 N   0  0  0  0  0  2  0  0  0  0  0  0
  185.1750  179.3680  141.1180 C   0  0  1  0  0  3  0  0  0  0  0  0
  188.4200  177.5790  140.5310 C   0  0  0  0  0  0  0  0  0  0  0  0
  187.9170  177.0210  144.7750 C   0  0  2  0  0  3  0  0  0  0  0  0
  183.2940  178.4170  144.5380 S   0  0  0  0  0  0  0  0  0  0  0  0
  190.9090  176.9170  139.4170 C   0  0  0  0  0  3  0  0  0  0  0  0
  188.6570  177.7730  139.1630 C   0  0  0  0  0  3  0  0  0  0  0  0
  182.2460  178.5630  138.7380 C   0  0  0  0  0  0  0  0  0  0  0  0
  181.5140  179.1100  137.7330 F   0  0  0  0  0  0  0  0  0  0  0  0
  182.7070  176.7170  140.1800 N   0  0  0  0  0  0  0  0  0  0  0  0
  184.0380  178.6990  140.3770 C   0  0  0  0  0  0  0  0  0  0  0  0
  181.9650  177.2660  139.1830 C   0  0  0  0  0  0  0  0  0  0  0  0
  183.7180  177.3990  140.7760 C   0  0  0  0  0  3  0  0  0  0  0  0
  183.2830  179.2910  139.3390 C   0  0  0  0  0  0  0  0  0  0  0  0
  183.5550  180.6710  138.8420 C   0  0  0  0  0  1  0  0  0  0  0  0
  180.9100  175.1610  139.0480 O   0  0  0  0  0  1  0  0  0  0  0  0
  180.8850  176.4610  138.5470 C   0  0  0  0  0  2  0  0  0  0  0  0
  188.9170  178.0690  145.2700 C   0  0  0  0  0  2  0  0  0  0  0  0
  189.1820  177.8670  146.6240 O   0  0  0  0  0  1  0  0  0  0  0  0
  1  3  1  6  0  0  0
  1  4  1  0  0  0  0
  2  4  1  0  0  0  0
  2  5  1  0  0  0  0
  3 18  1  0  0  0  0
  4 10  1  0  0  0  0
  5 17  1  0  0  0  0
  6 20  2  0  0  0  0
  6 19  1  0  0  0  0
  7  2  1  0  0  0  0
  8  9  1  0  0  0  0
  9 11  1  0  0  0  0
 10 12  1  0  0  0  0
 10 13  1  0  0  0  0
 11  5  1  0  0  0  0
 14 15  1  0  0  0  0
 14  7  1  0  0  0  0
 15  1  1  0  0  0  0
 16  7  1  0  0  0  0
 16  9  2  0  0  0  0
 17 31  1  0  0  0  0
 17 12  1  0  0  0  0
 18 13  1  0  0  0  0
 19  8  2  0  0  0  0
 20 16  1  0  0  0  0
 21 25  2  0  0  0  0
 21 27  1  0  0  0  0
 22 21  1  0  0  0  0
 23 26  2  0  0  0  0
 24 26  1  0  0  0  0
 24 15  1  0  0  0  0
 25 23  1  0  0  0  0
 27 24  2  0  0  0  0
 28 27  1  0  0  0  0
 30 29  1  0  0  0  0
 30 25  1  0  0  0  0
 31 32  1  0  0  0  0
M  END
>  <MODEL>
3

>  <REMARK>
 VINA RESULT:      -6.8      4.006      6.623
  Name = 
  3 active torsions:
  status: ('A' for Active; 'I' for Inactive)
    1  A    between atoms: C_13  and  C_29
    2  A    between atoms: C_16  and  C_27
    3  A    between atoms: CA_19  and  C_26
                            x       y       z     vdW  Elec       q    Type
                         _______ _______ _______ _____ _____    ______ ____

>  <TORSDO>
F 3

$$$$
=
 OpenBabel10262421013D

 32 37  0  0  1  0  0  0  0  0999 V2000
  184.9590  177.5580  138.5670 C   0  0  1  0  0  3  0  0  0  0  0  0
  185.8310  178.1940  140.7020 C   0  0  1  0  0  3  0  0  0  0  0  0
  185.0060  177.7040  137.0360 C   0  0  0  0  0  2  0  0  0  0  0  0
  185.9860  178.3650  139.2550 N   0  0  1  0  0  0  0  0  0  0  0  0
  186.8960  179.0030  141.4330 C   0  0  1  0  0  3  0  0  0  0  0  0
  183.0140  178.6580  144.7020 C   0  0  0  0  0  3  0  0  0  0  0  0
  184.4450  178.6580  141.1630 C   0  0  1  0  0  3  0  0  0  0  0  0
  185.4290  178.7730  144.8500 C   0  0  0  0  0  3  0  0  0  0  0  0
  185.5200  178.7520  143.4560 C   0  0  0  0  0  0  0  0  0  0  0  0
  187.3370  177.8570  138.9300 C   0  0  2  0  0  3  0  0  0  0  0  0
  186.7780  178.8150  142.8430 O   0  0  0  0  0  0  0  0  0  0  0  0
  188.3280  178.6970  139.4930 O   0  0  0  0  0  0  0  0  0  0  0  0
  187.5920  177.7210  137.4260 C   0  0  0  0  0  2  0  0  0  0  0  0
  183.4270  177.7950  140.5660 N   0  0  0  0  0  2  0  0  0  0  0  0
  183.5310  177.8260  139.1040 C   0  0  1  0  0  3  0  0  0  0  0  0
  184.3470  178.6500  142.6730 C   0  0  0  0  0  0  0  0  0  0  0  0
  188.2790  178.6080  140.9080 C   0  0  2  0  0  3  0  0  0  0  0  0
  186.4150  178.7000  136.4470 S   0  0  0  0  0  0  0  0  0  0  0  0
  184.1790  178.7260  145.4730 C   0  0  0  0  0  3  0  0  0  0  0  0
  183.0980  178.6280  143.3070 C   0  0  0  0  0  3  0  0  0  0  0  0
  180.9870  179.8080  136.9850 C   0  0  0  0  0  0  0  0  0  0  0  0
  180.0030  179.6280  136.0660 F   0  0  0  0  0  0  0  0  0  0  0  0
  182.2920  181.2740  138.3440 N   0  0  0  0  0  0  0  0  0  0  0  0
  182.6970  178.9160  138.4670 C   0  0  0  0  0  0  0  0  0  0  0  0
  181.3160  181.0990  137.4160 C   0  0  0  0  0  0  0  0  0  0  0  0
  182.9790  180.2250  138.8660 C   0  0  0  0  0  3  0  0  0  0  0  0
  181.6830  178.7070  137.5050 C   0  0  0  0  0  0  0  0  0  0  0  0
  181.3090  177.3460  137.0230 C   0  0  0  0  0  1  0  0  0  0  0  0
  180.9910  183.4290  137.5780 O   0  0  0  0  0  1  0  0  0  0  0  0
  180.5780  182.2840  136.8980 C   0  0  0  0  0  2  0  0  0  0  0  0
  188.7510  177.2430  141.4170 C   0  0  0  0  0  2  0  0  0  0  0  0
  190.0200  177.3630  141.9840 O   0  0  0  0  0  1  0  0  0  0  0  0
  1  3  1  6  0  0  0
  1 15  1  0  0  0  0
  1  4  1  0  0  0  0
  2  7  1  0  0  0  0
  2  5  1  0  0  0  0
  4  2  1  0  0  0  0
  5 11  1  0  0  0  0
  6 19  1  0  0  0  0
  7 16  1  0  0  0  0
  8 19  2  0  0  0  0
  9  8  1  0  0  0  0
 10  4  1  0  0  0  0
 10 12  1  0  0  0  0
 11  9  1  0  0  0  0
 12 17  1  0  0  0  0
 13 10  1  0  0  0  0
 14  7  1  0  0  0  0
 15 14  1  0  0  0  0
 16 20  1  0  0  0  0
 16  9  2  0  0  0  0
 17 31  1  0  0  0  0
 17  5  1  0  0  0  0
 18  3  1  0  0  0  0
 18 13  1  0  0  0  0
 20  6  2  0  0  0  0
 21 25  2  0  0  0  0
 21 27  1  0  0  0  0
 22 21  1  0  0  0  0
 23 26  2  0  0  0  0
 24 26  1  0  0  0  0
 24 15  1  0  0  0  0
 25 23  1  0  0  0  0
 27 24  2  0  0  0  0
 28 27  1  0  0  0  0
 30 25  1  0  0  0  0
 30 29  1  0  0  0  0
 31 32  1  0  0  0  0
M  END
>  <MODEL>
4

>  <REMARK>
 VINA RESULT:      -6.6      3.551      6.170
  Name = 
  3 active torsions:
  status: ('A' for Active; 'I' for Inactive)
    1  A    between atoms: C_13  and  C_29
    2  A    between atoms: C_16  and  C_27
    3  A    between atoms: CA_19  and  C_26
                            x       y       z     vdW  Elec       q    Type
                         _______ _______ _______ _____ _____    ______ ____

>  <TORSDO>
F 3

$$$$
=
 OpenBabel10262421013D

 32 37  0  0  1  0  0  0  0  0999 V2000
  183.9590  179.2690  141.1380 C   0  0  1  0  0  3  0  0  0  0  0  0
  185.5800  178.5340  142.7360 C   0  0  1  0  0  3  0  0  0  0  0  0
  182.5020  179.2440  140.6420 C   0  0  0  0  0  2  0  0  0  0  0  0
  184.1610  178.4840  142.3710 N   0  0  1  0  0  0  0  0  0  0  0  0
  185.8090  177.7470  144.0200 C   0  0  1  0  0  3  0  0  0  0  0  0
  190.2500  177.5740  141.5480 C   0  0  0  0  0  3  0  0  0  0  0  0
  186.4520  177.9420  141.6230 C   0  0  1  0  0  3  0  0  0  0  0  0
  189.5290  177.6140  143.8590 C   0  0  0  0  0  3  0  0  0  0  0  0
  188.2010  177.7480  143.4470 C   0  0  0  0  0  0  0  0  0  0  0  0
  183.4330  179.1070  143.4980 C   0  0  2  0  0  3  0  0  0  0  0  0
  187.1810  177.8180  144.4060 O   0  0  0  0  0  0  0  0  0  0  0  0
  183.5280  178.2970  144.6560 O   0  0  0  0  0  0  0  0  0  0  0  0
  181.9550  179.3750  143.1960 C   0  0  0  0  0  2  0  0  0  0  0  0
  186.3360  178.7760  140.4280 N   0  0  0  0  0  2  0  0  0  0  0  0
  184.9350  178.8630  140.0060 C   0  0  1  0  0  3  0  0  0  0  0  0
  187.8930  177.8290  142.0690 C   0  0  0  0  0  0  0  0  0  0  0  0
  184.8710  178.2750  145.1100 C   0  0  2  0  0  3  0  0  0  0  0  0
  181.3630  178.3950  141.7840 S   0  0  0  0  0  0  0  0  0  0  0  0
  190.5520  177.5280  142.9120 C   0  0  0  0  0  3  0  0  0  0  0  0
  188.9240  177.7160  141.1280 C   0  0  0  0  0  3  0  0  0  0  0  0
  184.6480  176.4930  136.9740 C   0  0  0  0  0  0  0  0  0  0  0  0
  185.2110  176.2470  135.7630 F   0  0  0  0  0  0  0  0  0  0  0  0
  183.0320  175.9450  138.6430 N   0  0  0  0  0  0  0  0  0  0  0  0
  184.5310  177.7710  139.0410 C   0  0  0  0  0  0  0  0  0  0  0  0
  183.5840  175.7040  137.4260 C   0  0  0  0  0  0  0  0  0  0  0  0
  183.4750  176.9480  139.4430 C   0  0  0  0  0  3  0  0  0  0  0  0
  185.1250  177.5380  137.7790 C   0  0  0  0  0  0  0  0  0  0  0  0
  186.2590  178.3610  137.2680 C   0  0  0  0  0  1  0  0  0  0  0  0
  183.4740  173.3620  137.1660 O   0  0  0  0  0  1  0  0  0  0  0  0
  183.0740  174.5730  136.6020 C   0  0  0  0  0  2  0  0  0  0  0  0
  185.3100  179.6250  145.6810 C   0  0  0  0  0  2  0  0  0  0  0  0
  185.6270  179.4870  147.0330 O   0  0  0  0  0  1  0  0  0  0  0  0
  1  3  1  6  0  0  0
  1  4  1  0  0  0  0
  2  5  1  0  0  0  0
  3 18  1  0  0  0  0
  4  2  1  0  0  0  0
  4 10  1  0  0  0  0
  5 11  1  0  0  0  0
  5 17  1  0  0  0  0
  6 19  1  0  0  0  0
  7 16  1  0  0  0  0
  7  2  1  0  0  0  0
  9  8  1  0  0  0  0
  9 11  1  0  0  0  0
 10 12  1  0  0  0  0
 12 17  1  0  0  0  0
 13 10  1  0  0  0  0
 14  7  1  0  0  0  0
 15 14  1  0  0  0  0
 15  1  1  0  0  0  0
 16  9  2  0  0  0  0
 17 31  1  0  0  0  0
 18 13  1  0  0  0  0
 19  8  2  0  0  0  0
 20  6  2  0  0  0  0
 20 16  1  0  0  0  0
 21 25  2  0  0  0  0
 21 27  1  0  0  0  0
 22 21  1  0  0  0  0
 23 26  2  0  0  0  0
 24 26  1  0  0  0  0
 24 15  1  0  0  0  0
 25 23  1  0  0  0  0
 27 24  2  0  0  0  0
 28 27  1  0  0  0  0
 30 29  1  0  0  0  0
 30 25  1  0  0  0  0
 31 32  1  0  0  0  0
M  END
>  <MODEL>
5

>  <REMARK>
 VINA RESULT:      -5.9      2.749      4.403
  Name = 
  3 active torsions:
  status: ('A' for Active; 'I' for Inactive)
    1  A    between atoms: C_13  and  C_29
    2  A    between atoms: C_16  and  C_27
    3  A    between atoms: CA_19  and  C_26
                            x       y       z     vdW  Elec       q    Type
                         _______ _______ _______ _____ _____    ______ ____

>  <TORSDO>
F 3

$$$$
=
 OpenBabel10262421013D

 32 37  0  0  1  0  0  0  0  0999 V2000
  186.0850  179.0190  140.4680 C   0  0  1  0  0  3  0  0  0  0  0  0
  186.9000  178.3000  142.6000 C   0  0  1  0  0  3  0  0  0  0  0  0
  184.9830  178.9540  139.3970 C   0  0  0  0  0  2  0  0  0  0  0  0
  185.7760  178.2080  141.6630 N   0  0  1  0  0  0  0  0  0  0  0  0
  186.5940  177.4870  143.8520 C   0  0  1  0  0  3  0  0  0  0  0  0
  191.6680  177.5490  143.5170 C   0  0  0  0  0  3  0  0  0  0  0  0
  188.1890  177.7730  141.9620 C   0  0  1  0  0  3  0  0  0  0  0  0
  190.0280  177.4970  145.2970 C   0  0  0  0  0  3  0  0  0  0  0  0
  188.9980  177.5930  144.3570 C   0  0  0  0  0  0  0  0  0  0  0  0
  184.6090  178.7720  142.3750 C   0  0  2  0  0  3  0  0  0  0  0  0
  187.6650  177.5990  144.7880 O   0  0  0  0  0  0  0  0  0  0  0  0
  184.2370  177.9340  143.4540 O   0  0  0  0  0  0  0  0  0  0  0  0
  183.3920  178.9930  141.4720 C   0  0  0  0  0  2  0  0  0  0  0  0
  188.5570  178.6350  140.8400 N   0  0  0  0  0  2  0  0  0  0  0  0
  187.4690  178.6820  139.8600 C   0  0  1  0  0  3  0  0  0  0  0  0
  189.3050  177.7010  142.9810 C   0  0  0  0  0  0  0  0  0  0  0  0
  185.2570  177.9490  144.4400 C   0  0  2  0  0  3  0  0  0  0  0  0
  183.5050  178.0310  139.9340 S   0  0  0  0  0  0  0  0  0  0  0  0
  191.3600  177.4760  144.8780 C   0  0  0  0  0  3  0  0  0  0  0  0
  190.6440  177.6530  142.5710 C   0  0  0  0  0  3  0  0  0  0  0  0
  188.7110  175.9660  137.4160 C   0  0  0  0  0  0  0  0  0  0  0  0
  189.8430  175.3190  137.0350 F   0  0  0  0  0  0  0  0  0  0  0  0
  186.3570  176.2990  137.1980 N   0  0  0  0  0  0  0  0  0  0  0  0
  187.5660  177.6020  138.8050 C   0  0  0  0  0  0  0  0  0  0  0  0
  187.4890  175.6590  136.8060 C   0  0  0  0  0  0  0  0  0  0  0  0
  186.3730  177.2500  138.1660 C   0  0  0  0  0  3  0  0  0  0  0  0
  188.7570  176.9470  138.4170 C   0  0  0  0  0  0  0  0  0  0  0  0
  190.0750  177.2520  139.0450 C   0  0  0  0  0  1  0  0  0  0  0  0
  186.8310  173.4530  136.2910 O   0  0  0  0  0  1  0  0  0  0  0  0
  187.4080  174.6050  135.7560 C   0  0  0  0  0  2  0  0  0  0  0  0
  185.3480  179.2990  145.1560 C   0  0  0  0  0  2  0  0  0  0  0  0
  185.3150  179.1040  146.5370 O   0  0  0  0  0  1  0  0  0  0  0  0
  1  3  1  6  0  0  0
  1  4  1  0  0  0  0
  2  5  1  0  0  0  0
  3 18  1  0  0  0  0
  4 10  1  0  0  0  0
  4  2  1  0  0  0  0
  5 17  1  0  0  0  0
  5 11  1  0  0  0  0
  6 19  1  0  0  0  0
  7  2  1  0  0  0  0
  7 16  1  0  0  0  0
  9 11  1  0  0  0  0
  9  8  1  0  0  0  0
 10 12  1  0  0  0  0
 12 17  1  0  0  0  0
 13 10  1  0  0  0  0
 14  7  1  0  0  0  0
 15  1  1  0  0  0  0
 15 14  1  0  0  0  0
 16  9  2  0  0  0  0
 17 31  1  0  0  0  0
 18 13  1  0  0  0  0
 19  8  2  0  0  0  0
 20 16  1  0  0  0  0
 20  6  2  0  0  0  0
 21 27  1  0  0  0  0
 22 21  1  0  0  0  0
 23 26  2  0  0  0  0
 24 15  1  0  0  0  0
 25 23  1  0  0  0  0
 25 21  2  0  0  0  0
 26 24  1  0  0  0  0
 27 24  2  0  0  0  0
 27 28  1  0  0  0  0
 30 29  1  0  0  0  0
 30 25  1  0  0  0  0
 31 32  1  0  0  0  0
M  END
>  <MODEL>
6

>  <REMARK>
 VINA RESULT:      -5.8      3.476      5.070
  Name = 
  3 active torsions:
  status: ('A' for Active; 'I' for Inactive)
    1  A    between atoms: C_13  and  C_29
    2  A    between atoms: C_16  and  C_27
    3  A    between atoms: CA_19  and  C_26
                            x       y       z     vdW  Elec       q    Type
                         _______ _______ _______ _____ _____    ______ ____

>  <TORSDO>
F 3

$$$$
=
 OpenBabel10262421013D

 32 37  0  0  1  0  0  0  0  0999 V2000
  184.7920  177.8160  136.3980 C   0  0  1  0  0  3  0  0  0  0  0  0
  183.5760  177.6830  138.4540 C   0  0  1  0  0  3  0  0  0  0  0  0
  185.1640  177.1700  135.0520 C   0  0  0  0  0  2  0  0  0  0  0  0
  183.8310  177.0100  137.1770 N   0  0  1  0  0  0  0  0  0  0  0  0
  182.5690  176.8790  139.2680 C   0  0  1  0  0  3  0  0  0  0  0  0
  185.3290  179.4150  142.7050 C   0  0  0  0  0  3  0  0  0  0  0  0
  184.8690  177.8310  139.2630 C   0  0  1  0  0  3  0  0  0  0  0  0
  183.0430  178.6400  142.5170 C   0  0  0  0  0  3  0  0  0  0  0  0
  183.3020  178.1760  141.2240 C   0  0  0  0  0  0  0  0  0  0  0  0
  182.5270  176.9560  136.4810 C   0  0  2  0  0  3  0  0  0  0  0  0
  182.2840  177.5440  140.4970 O   0  0  0  0  0  0  0  0  0  0  0  0
  181.6380  176.0910  137.1640 O   0  0  0  0  0  0  0  0  0  0  0  0
  182.6340  176.5100  135.0200 C   0  0  0  0  0  2  0  0  0  0  0  0
  185.7860  178.7140  138.5430 N   0  0  0  0  0  2  0  0  0  0  0  0
  186.0620  178.1770  137.2080 C   0  0  1  0  0  3  0  0  0  0  0  0
  184.5810  178.3620  140.6500 C   0  0  0  0  0  0  0  0  0  0  0  0
  181.3100  176.6480  138.4260 C   0  0  2  0  0  3  0  0  0  0  0  0
  184.2060  175.6640  134.6810 S   0  0  0  0  0  0  0  0  0  0  0  0
  184.0540  179.2590  143.2550 C   0  0  0  0  0  3  0  0  0  0  0  0
  185.5940  178.9620  141.4090 C   0  0  0  0  0  3  0  0  0  0  0  0
  189.6120  176.6710  137.0680 C   0  0  0  0  0  0  0  0  0  0  0  0
  190.9190  177.0380  137.0130 F   0  0  0  0  0  0  0  0  0  0  0  0
  187.9580  174.9520  137.1530 N   0  0  0  0  0  0  0  0  0  0  0  0
  187.2490  177.2410  137.1710 C   0  0  0  0  0  0  0  0  0  0  0  0
  189.2650  175.3150  137.0850 C   0  0  0  0  0  0  0  0  0  0  0  0
  186.9620  175.8730  137.1920 C   0  0  0  0  0  3  0  0  0  0  0  0
  188.6030  177.6440  137.1050 C   0  0  0  0  0  0  0  0  0  0  0  0
  189.0060  179.0800  137.0830 C   0  0  0  0  0  1  0  0  0  0  0  0
  191.1870  174.4500  138.1450 O   0  0  0  0  0  1  0  0  0  0  0  0
  190.3180  174.2610  137.0710 C   0  0  0  0  0  2  0  0  0  0  0  0
  180.4340  177.8970  138.2960 C   0  0  0  0  0  2  0  0  0  0  0  0
  179.0890  177.5440  138.3970 O   0  0  0  0  0  1  0  0  0  0  0  0
  1  3  1  6  0  0  0
  1  4  1  0  0  0  0
  1 15  1  0  0  0  0
  2  7  1  0  0  0  0
  2  5  1  0  0  0  0
  4  2  1  0  0  0  0
  5 11  1  0  0  0  0
  6 19  1  0  0  0  0
  7 16  1  0  0  0  0
  8 19  2  0  0  0  0
  9  8  1  0  0  0  0
 10 12  1  0  0  0  0
 10  4  1  0  0  0  0
 11  9  1  0  0  0  0
 12 17  1  0  0  0  0
 13 10  1  0  0  0  0
 14  7  1  0  0  0  0
 15 14  1  0  0  0  0
 16  9  2  0  0  0  0
 16 20  1  0  0  0  0
 17  5  1  0  0  0  0
 18 13  1  0  0  0  0
 18  3  1  0  0  0  0
 20  6  2  0  0  0  0
 21 25  2  0  0  0  0
 21 27  1  0  0  0  0
 22 21  1  0  0  0  0
 23 26  2  0  0  0  0
 24 26  1  0  0  0  0
 24 15  1  0  0  0  0
 25 23  1  0  0  0  0
 27 24  2  0  0  0  0
 28 27  1  0  0  0  0
 30 25  1  0  0  0  0
 30 29  1  0  0  0  0
 31 32  1  0  0  0  0
 31 17  1  0  0  0  0
M  END
>  <MODEL>
7

>  <REMARK>
 VINA RESULT:      -5.6      2.883      3.786
  Name = 
  3 active torsions:
  status: ('A' for Active; 'I' for Inactive)
    1  A    between atoms: C_13  and  C_29
    2  A    between atoms: C_16  and  C_27
    3  A    between atoms: CA_19  and  C_26
                            x       y       z     vdW  Elec       q    Type
                         _______ _______ _______ _____ _____    ______ ____

>  <TORSDO>
F 3

$$$$
=
 OpenBabel10262421013D

 32 37  0  0  1  0  0  0  0  0999 V2000
  182.9000  179.4590  141.4840 C   0  0  1  0  0  3  0  0  0  0  0  0
  184.9120  178.7110  142.5400 C   0  0  1  0  0  3  0  0  0  0  0  0
  181.3660  179.3790  141.3800 C   0  0  0  0  0  2  0  0  0  0  0  0
  183.4500  178.6000  142.5510 N   0  0  1  0  0  0  0  0  0  0  0  0
  185.5020  177.8480  143.6490 C   0  0  1  0  0  3  0  0  0  0  0  0
  189.1430  178.1340  140.1100 C   0  0  0  0  0  3  0  0  0  0  0  0
  185.4850  178.2580  141.1940 C   0  0  1  0  0  3  0  0  0  0  0  0
  189.0520  177.9600  142.5240 C   0  0  0  0  0  3  0  0  0  0  0  0
  187.6570  178.0400  142.4810 C   0  0  0  0  0  0  0  0  0  0  0  0
  183.0170  179.0920  143.8770 C   0  0  2  0  0  3  0  0  0  0  0  0
  186.9220  177.9770  143.6730 O   0  0  0  0  0  0  0  0  0  0  0  0
  183.4450  178.2070  144.8960 O   0  0  0  0  0  0  0  0  0  0  0  0
  181.5020  179.2880  143.9900 C   0  0  0  0  0  2  0  0  0  0  0  0
  185.0260  179.1680  140.1460 N   0  0  0  0  0  2  0  0  0  0  0  0
  183.5610  179.1980  140.1080 C   0  0  1  0  0  3  0  0  0  0  0  0
  186.9960  178.2020  141.2420 C   0  0  0  0  0  0  0  0  0  0  0  0
  184.8600  178.2350  144.9860 C   0  0  2  0  0  3  0  0  0  0  0  0
  180.6020  178.3790  142.6990 S   0  0  0  0  0  0  0  0  0  0  0  0
  189.7940  178.0080  141.3410 C   0  0  0  0  0  3  0  0  0  0  0  0
  187.7490  178.2240  140.0600 C   0  0  0  0  0  3  0  0  0  0  0  0
  181.5790  177.3620  137.3530 C   0  0  0  0  0  0  0  0  0  0  0  0
  180.7250  177.5990  136.3240 F   0  0  0  0  0  0  0  0  0  0  0  0
  182.8380  175.8210  138.6710 N   0  0  0  0  0  0  0  0  0  0  0  0
  182.9640  178.1560  139.1890 C   0  0  0  0  0  0  0  0  0  0  0  0
  181.9740  176.0520  137.6490 C   0  0  0  0  0  0  0  0  0  0  0  0
  183.3280  176.8300  139.4350 C   0  0  0  0  0  3  0  0  0  0  0  0
  182.0690  178.4240  138.1280 C   0  0  0  0  0  0  0  0  0  0  0  0
  181.6270  179.8070  137.7870 C   0  0  0  0  0  1  0  0  0  0  0  0
  182.3080  174.7490  135.7120 O   0  0  0  0  0  1  0  0  0  0  0  0
  181.4880  174.9080  136.8280 C   0  0  0  0  0  2  0  0  0  0  0  0
  185.3770  179.5650  145.5400 C   0  0  0  0  0  2  0  0  0  0  0  0
  185.6510  179.4360  146.9010 O   0  0  0  0  0  1  0  0  0  0  0  0
  1  3  1  6  0  0  0
  1  4  1  0  0  0  0
  2  4  1  0  0  0  0
  2  5  1  0  0  0  0
  3 18  1  0  0  0  0
  4 10  1  0  0  0  0
  5 11  1  0  0  0  0
  5 17  1  0  0  0  0
  6 19  1  0  0  0  0
  7 16  1  0  0  0  0
  7  2  1  0  0  0  0
  9  8  1  0  0  0  0
  9 11  1  0  0  0  0
 10 13  1  0  0  0  0
 10 12  1  0  0  0  0
 12 17  1  0  0  0  0
 14  7  1  0  0  0  0
 15 14  1  0  0  0  0
 15  1  1  0  0  0  0
 16  9  2  0  0  0  0
 17 31  1  0  0  0  0
 18 13  1  0  0  0  0
 19  8  2  0  0  0  0
 20  6  2  0  0  0  0
 20 16  1  0  0  0  0
 21 25  2  0  0  0  0
 21 27  1  0  0  0  0
 22 21  1  0  0  0  0
 23 26  2  0  0  0  0
 24 26  1  0  0  0  0
 24 15  1  0  0  0  0
 25 23  1  0  0  0  0
 27 24  2  0  0  0  0
 28 27  1  0  0  0  0
 29 30  1  0  0  0  0
 30 25  1  0  0  0  0
 31 32  1  0  0  0  0
M  END
>  <MODEL>
8

>  <REMARK>
 VINA RESULT:      -5.6      2.962      4.779
  Name = 
  3 active torsions:
  status: ('A' for Active; 'I' for Inactive)
    1  A    between atoms: C_13  and  C_29
    2  A    between atoms: C_16  and  C_27
    3  A    between atoms: CA_19  and  C_26
                            x       y       z     vdW  Elec       q    Type
                         _______ _______ _______ _____ _____    ______ ____

>  <TORSDO>
F 3

$$$$
=
 OpenBabel10262421013D

 32 37  0  0  1  0  0  0  0  0999 V2000
  184.8150  179.3900  142.4910 C   0  0  1  0  0  3  0  0  0  0  0  0
  186.9110  178.3110  142.0820 C   0  0  1  0  0  3  0  0  0  0  0  0
  183.5030  179.4420  143.2920 C   0  0  0  0  0  2  0  0  0  0  0  0
  185.7150  178.3050  142.9300 N   0  0  1  0  0  0  0  0  0  0  0  0
  187.8660  177.2120  142.5310 C   0  0  1  0  0  3  0  0  0  0  0  0
  188.8720  177.9090  137.5950 C   0  0  0  0  0  3  0  0  0  0  0  0
  186.5420  178.0850  140.6130 C   0  0  1  0  0  3  0  0  0  0  0  0
  190.1260  177.2820  139.5700 C   0  0  0  0  0  3  0  0  0  0  0  0
  188.9870  177.4700  140.3570 C   0  0  0  0  0  0  0  0  0  0  0  0
  186.1940  178.5640  144.3060 C   0  0  2  0  0  3  0  0  0  0  0  0
  189.0510  177.2320  141.7370 O   0  0  0  0  0  0  0  0  0  0  0  0
  186.9640  177.4720  144.7740 O   0  0  0  0  0  0  0  0  0  0  0  0
  185.0650  178.8430  145.3020 C   0  0  0  0  0  2  0  0  0  0  0  0
  185.7350  179.2090  140.1420 N   0  0  0  0  0  2  0  0  0  0  0  0
  184.5330  179.3510  140.9690 C   0  0  1  0  0  3  0  0  0  0  0  0
  187.7820  177.9130  139.7650 C   0  0  0  0  0  0  0  0  0  0  0  0
  188.1640  177.3810  144.0240 C   0  0  2  0  0  3  0  0  0  0  0  0
  183.4570  178.2650  144.6840 S   0  0  0  0  0  0  0  0  0  0  0  0
  190.0690  177.5030  138.1910 C   0  0  0  0  0  3  0  0  0  0  0  0
  187.7300  178.1060  138.3780 C   0  0  0  0  0  3  0  0  0  0  0  0
  181.1900  178.2380  139.3970 C   0  0  0  0  0  0  0  0  0  0  0  0
  180.0940  178.7380  138.7690 F   0  0  0  0  0  0  0  0  0  0  0  0
  182.3990  176.3640  140.2490 N   0  0  0  0  0  0  0  0  0  0  0  0
  183.3560  178.5500  140.4590 C   0  0  0  0  0  0  0  0  0  0  0  0
  181.2960  176.8620  139.6320 C   0  0  0  0  0  0  0  0  0  0  0  0
  183.4110  177.1690  140.6620 C   0  0  0  0  0  3  0  0  0  0  0  0
  182.2200  179.0930  139.8150 C   0  0  0  0  0  0  0  0  0  0  0  0
  182.0750  180.5530  139.5510 C   0  0  0  0  0  1  0  0  0  0  0  0
  180.3540  175.7020  137.8070 O   0  0  0  0  0  1  0  0  0  0  0  0
  180.2280  175.9290  139.1770 C   0  0  0  0  0  2  0  0  0  0  0  0
  189.1200  178.5400  144.3210 C   0  0  0  0  0  2  0  0  0  0  0  0
  189.9770  178.1900  145.3650 O   0  0  0  0  0  1  0  0  0  0  0  0
  1  4  1  0  0  0  0
  1  3  1  1  0  0  0
  2  5  1  0  0  0  0
  2  4  1  0  0  0  0
  3 18  1  0  0  0  0
  4 10  1  0  0  0  0
  5 17  1  0  0  0  0
  6 19  2  0  0  0  0
  6 20  1  0  0  0  0
  7  2  1  0  0  0  0
  8  9  2  0  0  0  0
  9 11  1  0  0  0  0
 10 12  1  0  0  0  0
 10 13  1  0  0  0  0
 11  5  1  0  0  0  0
 14  7  1  0  0  0  0
 14 15  1  0  0  0  0
 15  1  1  0  0  0  0
 16  9  1  0  0  0  0
 16  7  1  0  0  0  0
 17 31  1  0  0  0  0
 17 12  1  0  0  0  0
 18 13  1  0  0  0  0
 19  8  1  0  0  0  0
 20 16  2  0  0  0  0
 21 25  2  0  0  0  0
 21 27  1  0  0  0  0
 22 21  1  0  0  0  0
 23 26  2  0  0  0  0
 24 26  1  0  0  0  0
 24 15  1  0  0  0  0
 25 23  1  0  0  0  0
 27 24  2  0  0  0  0
 28 27  1  0  0  0  0
 29 30  1  0  0  0  0
 30 25  1  0  0  0  0
 31 32  1  0  0  0  0
M  END
>  <MODEL>
9

>  <REMARK>
 VINA RESULT:      -5.3      3.902      6.715
  Name = 
  3 active torsions:
  status: ('A' for Active; 'I' for Inactive)
    1  A    between atoms: C_13  and  C_29
    2  A    between atoms: C_16  and  C_27
    3  A    between atoms: CA_19  and  C_26
                            x       y       z     vdW  Elec       q    Type
                         _______ _______ _______ _____ _____    ______ ____

>  <TORSDO>
F 3

$$$$
