=
 OpenBabel10262420083D

 27 30  0  0  1  0  0  0  0  0999 V2000
  187.5530  176.3540  143.4340 C   0  0  0  0  0  2  0  0  0  0  0  0
  188.4490  177.5930  143.1890 C   0  0  2  0  0  3  0  0  0  0  0  0
  187.3230  177.6320  144.2580 C   0  0  2  0  0  0  0  0  0  0  0  0
  189.9370  177.3620  147.2040 C   0  0  0  0  0  2  0  0  0  0  0  0
  189.2160  178.1040  148.3000 C   0  0  0  0  0  2  0  0  0  0  0  0
  188.0260  177.6780  145.6580 C   0  0  1  0  0  3  0  0  0  0  0  0
  190.3320  177.0380  144.9580 O   0  0  0  0  0  1  0  0  0  0  0  0
  187.6880  178.2340  148.1180 C   0  0  0  0  0  2  0  0  0  0  0  0
  187.2030  177.3870  146.9550 C   0  0  0  0  0  2  0  0  0  0  0  0
  189.5530  177.7920  145.7830 C   0  0  2  0  0  3  0  0  0  0  0  0
  183.3680  178.9470  144.1930 C   0  0  0  0  0  3  0  0  0  0  0  0
  186.0040  178.1790  144.0750 C   0  0  0  0  0  0  0  0  0  0  0  0
  185.4610  178.6740  145.2730 C   0  0  0  0  0  3  0  0  0  0  0  0
  184.1190  179.0360  145.3270 C   0  0  0  0  0  3  0  0  0  0  0  0
  183.9120  178.4450  143.0000 C   0  0  0  0  0  3  0  0  0  0  0  0
  185.2370  177.9730  142.9360 C   0  0  0  0  0  3  0  0  0  0  0  0
  188.0890  178.4520  141.9330 C   0  0  0  0  0  2  0  0  0  0  0  0
  191.1850  176.9520  140.4490 C   0  0  0  0  0  3  0  0  0  0  0  0
  192.0330  176.4200  138.3730 O   0  0  0  0  0  1  0  0  0  0  0  0
  189.8240  177.5340  138.5410 C   0  0  0  0  0  0  0  0  0  0  0  0
  189.7020  177.4830  137.1820 O   0  0  0  0  0  1  0  0  0  0  0  0
  188.8210  178.0960  139.4270 C   0  0  0  0  0  0  0  0  0  0  0  0
  191.0170  176.9810  139.1340 C   0  0  0  0  0  0  0  0  0  0  0  0
  189.0250  177.9460  140.8060 C   0  0  0  0  0  0  0  0  0  0  0  0
  190.1680  177.3990  141.2830 C   0  0  0  0  0  3  0  0  0  0  0  0
  186.7050  177.9070  138.3040 O   0  0  0  0  0  1  0  0  0  0  0  0
  187.6650  178.6910  138.9440 O   0  0  0  0  0  0  0  0  0  0  0  0
  1  3  1  0  0  0  0
  2 17  1  6  0  0  0
  2  1  1  0  0  0  0
  2  3  1  0  0  0  0
  3 12  1  6  0  0  0
  3  6  1  0  0  0  0
  4  5  1  0  0  0  0
  6 10  1  0  0  0  0
  6  9  1  6  0  0  0
  8  5  1  0  0  0  0
  9  8  1  0  0  0  0
 10  7  1  6  0  0  0
 10  4  1  0  0  0  0
 11 14  1  0  0  0  0
 12 13  1  0  0  0  0
 13 14  2  0  0  0  0
 15 11  2  0  0  0  0
 16 15  1  0  0  0  0
 16 12  2  0  0  0  0
 18 25  1  0  0  0  0
 19 23  1  0  0  0  0
 20 23  1  0  0  0  0
 20 22  2  0  0  0  0
 21 20  1  0  0  0  0
 22 24  1  0  0  0  0
 23 18  2  0  0  0  0
 24 25  2  0  0  0  0
 24 17  1  0  0  0  0
 26 27  1  0  0  0  0
 27 22  1  0  0  0  0
M  END
>  <MODEL>
1

>  <REMARK>
 VINA RESULT:     -10.1      0.000      0.000
  Name = 
  5 active torsions:
  status: ('A' for Active; 'I' for Inactive)
    1  A    between atoms: C_2  and  C_6
    2  A    between atoms: C_6  and  C_17
    3  A    between atoms: C_9  and  C_15
    4  A    between atoms: C_14  and  O_19
    5  A    between atoms: C_15  and  C_18
                            x       y       z     vdW  Elec       q    Type
                         _______ _______ _______ _____ _____    ______ ____

>  <TORSDO>
F 5

$$$$
=
 OpenBabel10262420083D

 27 30  0  0  1  0  0  0  0  0999 V2000
  190.6690  178.9840  144.2660 C   0  0  0  0  0  2  0  0  0  0  0  0
  190.2610  178.3840  142.8970 C   0  0  2  0  0  3  0  0  0  0  0  0
  189.9420  177.6290  144.2160 C   0  0  2  0  0  0  0  0  0  0  0  0
  186.3050  177.7030  145.7480 C   0  0  0  0  0  2  0  0  0  0  0  0
  185.4860  178.0650  144.5350 C   0  0  0  0  0  2  0  0  0  0  0  0
  188.3880  177.6820  144.4050 C   0  0  1  0  0  3  0  0  0  0  0  0
  188.3000  177.8030  146.8940 O   0  0  0  0  0  1  0  0  0  0  0  0
  186.1630  177.7900  143.1750 C   0  0  0  0  0  2  0  0  0  0  0  0
  187.4490  177.0040  143.3530 C   0  0  0  0  0  2  0  0  0  0  0  0
  187.7570  178.1960  145.7080 C   0  0  2  0  0  3  0  0  0  0  0  0
  192.5240  174.9370  146.0770 C   0  0  0  0  0  3  0  0  0  0  0  0
  190.7220  176.5620  144.7880 C   0  0  0  0  0  0  0  0  0  0  0  0
  191.0890  176.8240  146.1190 C   0  0  0  0  0  3  0  0  0  0  0  0
  192.0210  176.0090  146.7520 C   0  0  0  0  0  3  0  0  0  0  0  0
  192.1590  174.6830  144.7450 C   0  0  0  0  0  3  0  0  0  0  0  0
  191.2990  175.5450  144.0400 C   0  0  0  0  0  3  0  0  0  0  0  0
  191.4080  177.6900  142.0920 C   0  0  0  0  0  2  0  0  0  0  0  0
  188.7570  177.4460  139.4550 C   0  0  0  0  0  3  0  0  0  0  0  0
  188.5850  176.9750  137.2050 O   0  0  0  0  0  1  0  0  0  0  0  0
  190.7980  176.8380  138.3150 C   0  0  0  0  0  0  0  0  0  0  0  0
  191.3710  176.5110  137.1190 O   0  0  0  0  0  1  0  0  0  0  0  0
  191.5340  176.9740  139.5590 C   0  0  0  0  0  0  0  0  0  0  0  0
  189.3760  177.0790  138.3410 C   0  0  0  0  0  0  0  0  0  0  0  0
  190.8300  177.4550  140.6730 C   0  0  0  0  0  0  0  0  0  0  0  0
  189.4960  177.6730  140.6090 C   0  0  0  0  0  3  0  0  0  0  0  0
  193.8010  177.7670  139.5000 O   0  0  0  0  0  1  0  0  0  0  0  0
  192.8940  176.7170  139.6400 O   0  0  0  0  0  0  0  0  0  0  0  0
  2 17  1  6  0  0  0
  2  3  1  0  0  0  0
  2  1  1  0  0  0  0
  3  1  1  0  0  0  0
  3  6  1  0  0  0  0
  3 12  1  1  0  0  0
  5  4  1  0  0  0  0
  6  9  1  1  0  0  0
  6 10  1  0  0  0  0
  8  9  1  0  0  0  0
  8  5  1  0  0  0  0
 10  4  1  0  0  0  0
 10  7  1  1  0  0  0
 11 14  1  0  0  0  0
 12 13  1  0  0  0  0
 13 14  2  0  0  0  0
 15 11  2  0  0  0  0
 16 15  1  0  0  0  0
 16 12  2  0  0  0  0
 18 25  1  0  0  0  0
 19 23  1  0  0  0  0
 20 23  1  0  0  0  0
 20 22  2  0  0  0  0
 21 20  1  0  0  0  0
 22 27  1  0  0  0  0
 22 24  1  0  0  0  0
 23 18  2  0  0  0  0
 24 17  1  0  0  0  0
 25 24  2  0  0  0  0
 26 27  1  0  0  0  0
M  END
>  <MODEL>
2

>  <REMARK>
 VINA RESULT:      -9.7      1.903      4.831
  Name = 
  5 active torsions:
  status: ('A' for Active; 'I' for Inactive)
    1  A    between atoms: C_2  and  C_6
    2  A    between atoms: C_6  and  C_17
    3  A    between atoms: C_9  and  C_15
    4  A    between atoms: C_14  and  O_19
    5  A    between atoms: C_15  and  C_18
                            x       y       z     vdW  Elec       q    Type
                         _______ _______ _______ _____ _____    ______ ____

>  <TORSDO>
F 5

$$$$
=
 OpenBabel10262420083D

 27 30  0  0  1  0  0  0  0  0999 V2000
  186.8600  176.3940  144.1070 C   0  0  0  0  0  2  0  0  0  0  0  0
  186.8150  177.7950  143.4480 C   0  0  2  0  0  3  0  0  0  0  0  0
  188.0020  177.3920  144.3650 C   0  0  2  0  0  0  0  0  0  0  0  0
  190.5750  177.6580  141.3830 C   0  0  0  0  0  2  0  0  0  0  0  0
  191.8080  177.0580  142.0100 C   0  0  0  0  0  2  0  0  0  0  0  0
  189.2600  177.2440  143.4420 C   0  0  1  0  0  3  0  0  0  0  0  0
  188.5920  178.8060  141.6160 O   0  0  0  0  0  1  0  0  0  0  0  0
  191.5550  176.1640  143.2430 C   0  0  0  0  0  2  0  0  0  0  0  0
  190.0710  175.9070  143.4370 C   0  0  0  0  0  2  0  0  0  0  0  0
  189.6010  178.2990  142.3790 C   0  0  2  0  0  3  0  0  0  0  0  0
  188.7770  177.9410  148.4230 C   0  0  0  0  0  3  0  0  0  0  0  0
  188.1420  177.7240  145.7590 C   0  0  0  0  0  0  0  0  0  0  0  0
  189.4860  177.7460  146.1690 C   0  0  0  0  0  3  0  0  0  0  0  0
  189.7940  177.8310  147.5230 C   0  0  0  0  0  3  0  0  0  0  0  0
  187.4360  177.9130  148.0100 C   0  0  0  0  0  3  0  0  0  0  0  0
  187.0860  177.7230  146.6600 C   0  0  0  0  0  3  0  0  0  0  0  0
  185.8750  178.8380  144.1370 C   0  0  0  0  0  2  0  0  0  0  0  0
  183.6220  178.3640  141.1800 C   0  0  0  0  0  3  0  0  0  0  0  0
  181.3680  178.3650  140.6980 O   0  0  0  0  0  1  0  0  0  0  0  0
  182.1230  178.8760  143.0040 C   0  0  0  0  0  0  0  0  0  0  0  0
  180.8210  178.9990  143.3960 O   0  0  0  0  0  1  0  0  0  0  0  0
  183.2590  179.0430  143.8920 C   0  0  0  0  0  0  0  0  0  0  0  0
  182.3850  178.5460  141.6250 C   0  0  0  0  0  0  0  0  0  0  0  0
  184.5290  178.7440  143.3750 C   0  0  0  0  0  0  0  0  0  0  0  0
  184.6880  178.4240  142.0690 C   0  0  0  0  0  3  0  0  0  0  0  0
  183.8000  178.7070  146.2080 O   0  0  0  0  0  1  0  0  0  0  0  0
  183.1060  179.4060  145.2210 O   0  0  0  0  0  0  0  0  0  0  0  0
  1  3  1  0  0  0  0
  2  1  1  0  0  0  0
  2 17  1  1  0  0  0
  2  3  1  0  0  0  0
  3 12  1  1  0  0  0
  4  5  1  0  0  0  0
  4 10  1  0  0  0  0
  5  8  1  0  0  0  0
  6  9  1  6  0  0  0
  6  3  1  0  0  0  0
  8  9  1  0  0  0  0
 10  7  1  6  0  0  0
 10  6  1  0  0  0  0
 12 13  2  0  0  0  0
 12 16  1  0  0  0  0
 13 14  1  0  0  0  0
 14 11  2  0  0  0  0
 15 11  1  0  0  0  0
 16 15  2  0  0  0  0
 18 23  2  0  0  0  0
 18 25  1  0  0  0  0
 19 23  1  0  0  0  0
 20 21  1  0  0  0  0
 20 22  2  0  0  0  0
 22 27  1  0  0  0  0
 23 20  1  0  0  0  0
 24 22  1  0  0  0  0
 24 17  1  0  0  0  0
 25 24  2  0  0  0  0
 27 26  1  0  0  0  0
M  END
>  <MODEL>
3

>  <REMARK>
 VINA RESULT:      -9.7      3.011      6.309
  Name = 
  5 active torsions:
  status: ('A' for Active; 'I' for Inactive)
    1  A    between atoms: C_2  and  C_6
    2  A    between atoms: C_6  and  C_17
    3  A    between atoms: C_9  and  C_15
    4  A    between atoms: C_14  and  O_19
    5  A    between atoms: C_15  and  C_18
                            x       y       z     vdW  Elec       q    Type
                         _______ _______ _______ _____ _____    ______ ____

>  <TORSDO>
F 5

$$$$
=
 OpenBabel10262420083D

 27 30  0  0  1  0  0  0  0  0999 V2000
  186.3890  176.5960  143.9760 C   0  0  0  0  0  2  0  0  0  0  0  0
  186.4090  177.9840  143.2890 C   0  0  2  0  0  3  0  0  0  0  0  0
  187.5910  177.5310  144.1890 C   0  0  2  0  0  0  0  0  0  0  0  0
  190.1310  177.6260  141.1670 C   0  0  0  0  0  2  0  0  0  0  0  0
  191.3180  176.9140  141.7640 C   0  0  0  0  0  2  0  0  0  0  0  0
  188.8170  177.2920  143.2420 C   0  0  1  0  0  3  0  0  0  0  0  0
  188.2560  178.9340  141.4520 O   0  0  0  0  0  1  0  0  0  0  0  0
  191.0090  176.0250  142.9880 C   0  0  0  0  0  2  0  0  0  0  0  0
  189.5120  175.8910  143.2040 C   0  0  0  0  0  2  0  0  0  0  0  0
  189.2300  178.3310  142.1900 C   0  0  2  0  0  3  0  0  0  0  0  0
  188.4790  178.1070  148.2200 C   0  0  0  0  0  3  0  0  0  0  0  0
  187.7820  177.8810  145.5720 C   0  0  0  0  0  0  0  0  0  0  0  0
  189.1300  177.8040  145.9610 C   0  0  0  0  0  3  0  0  0  0  0  0
  189.4680  177.8930  147.3070 C   0  0  0  0  0  3  0  0  0  0  0  0
  187.1330  178.1770  147.8290 C   0  0  0  0  0  3  0  0  0  0  0  0
  186.7450  177.9870  146.4890 C   0  0  0  0  0  3  0  0  0  0  0  0
  185.5480  179.0930  143.9760 C   0  0  0  0  0  2  0  0  0  0  0  0
  181.8130  178.7920  143.9650 C   0  0  0  0  0  3  0  0  0  0  0  0
  180.0920  178.5930  142.4440 O   0  0  0  0  0  1  0  0  0  0  0  0
  182.4350  178.6500  141.6360 C   0  0  0  0  0  0  0  0  0  0  0  0
  181.9860  178.5680  140.3490 O   0  0  0  0  0  1  0  0  0  0  0  0
  183.8370  178.7340  142.0040 C   0  0  0  0  0  0  0  0  0  0  0  0
  181.4550  178.6680  142.6940 C   0  0  0  0  0  0  0  0  0  0  0  0
  184.1330  178.9570  143.3570 C   0  0  0  0  0  0  0  0  0  0  0  0
  183.1510  178.9780  144.2880 C   0  0  0  0  0  3  0  0  0  0  0  0
  184.9820  179.7090  140.1310 O   0  0  0  0  0  1  0  0  0  0  0  0
  184.8500  178.6770  141.0590 O   0  0  0  0  0  0  0  0  0  0  0  0
  1  3  1  0  0  0  0
  2 17  1  1  0  0  0
  2  1  1  0  0  0  0
  2  3  1  0  0  0  0
  3 12  1  1  0  0  0
  4  5  1  0  0  0  0
  4 10  1  0  0  0  0
  5  8  1  0  0  0  0
  6  9  1  6  0  0  0
  6  3  1  0  0  0  0
  8  9  1  0  0  0  0
 10  7  1  6  0  0  0
 10  6  1  0  0  0  0
 12 13  2  0  0  0  0
 12 16  1  0  0  0  0
 13 14  1  0  0  0  0
 14 11  2  0  0  0  0
 15 11  1  0  0  0  0
 16 15  2  0  0  0  0
 18 25  1  0  0  0  0
 19 23  1  0  0  0  0
 20 22  2  0  0  0  0
 20 23  1  0  0  0  0
 21 20  1  0  0  0  0
 22 24  1  0  0  0  0
 23 18  2  0  0  0  0
 24 17  1  0  0  0  0
 24 25  2  0  0  0  0
 26 27  1  0  0  0  0
 27 22  1  0  0  0  0
M  END
>  <MODEL>
4

>  <REMARK>
 VINA RESULT:      -9.7      2.353      6.112
  Name = 
  5 active torsions:
  status: ('A' for Active; 'I' for Inactive)
    1  A    between atoms: C_2  and  C_6
    2  A    between atoms: C_6  and  C_17
    3  A    between atoms: C_9  and  C_15
    4  A    between atoms: C_14  and  O_19
    5  A    between atoms: C_15  and  C_18
                            x       y       z     vdW  Elec       q    Type
                         _______ _______ _______ _____ _____    ______ ____

>  <TORSDO>
F 5

$$$$
=
 OpenBabel10262420083D

 27 30  0  0  1  0  0  0  0  0999 V2000
  187.9390  176.4070  143.2540 C   0  0  0  0  0  2  0  0  0  0  0  0
  188.8160  177.6810  143.1870 C   0  0  2  0  0  3  0  0  0  0  0  0
  187.5790  177.6240  144.1230 C   0  0  2  0  0  0  0  0  0  0  0  0
  189.8080  177.0990  147.3390 C   0  0  0  0  0  2  0  0  0  0  0  0
  189.0380  177.8990  148.3590 C   0  0  0  0  0  2  0  0  0  0  0  0
  188.1210  177.5970  145.5930 C   0  0  1  0  0  3  0  0  0  0  0  0
  190.4240  176.7520  145.1460 O   0  0  0  0  0  1  0  0  0  0  0  0
  187.5590  178.1680  148.0080 C   0  0  0  0  0  2  0  0  0  0  0  0
  187.1330  177.3760  146.7860 C   0  0  0  0  0  2  0  0  0  0  0  0
  189.6270  177.5710  145.8910 C   0  0  2  0  0  3  0  0  0  0  0  0
  183.6280  178.8930  143.7310 C   0  0  0  0  0  3  0  0  0  0  0  0
  186.2710  178.1470  143.8260 C   0  0  0  0  0  0  0  0  0  0  0  0
  185.6460  178.6950  144.9600 C   0  0  0  0  0  3  0  0  0  0  0  0
  184.3010  179.0450  144.9070 C   0  0  0  0  0  3  0  0  0  0  0  0
  184.2540  178.3400  142.6030 C   0  0  0  0  0  3  0  0  0  0  0  0
  185.5830  177.8780  142.6510 C   0  0  0  0  0  3  0  0  0  0  0  0
  188.5700  178.6100  141.9530 C   0  0  0  0  0  2  0  0  0  0  0  0
  188.6730  176.7680  138.6920 C   0  0  0  0  0  3  0  0  0  0  0  0
  190.2330  175.8320  137.2760 O   0  0  0  0  0  1  0  0  0  0  0  0
  190.9780  176.8510  139.4100 C   0  0  0  0  0  0  0  0  0  0  0  0
  192.2730  176.5610  139.0890 O   0  0  0  0  0  1  0  0  0  0  0  0
  190.5750  177.5240  140.6310 C   0  0  0  0  0  0  0  0  0  0  0  0
  189.9490  176.4780  138.4710 C   0  0  0  0  0  0  0  0  0  0  0  0
  189.2230  177.8800  140.7520 C   0  0  0  0  0  0  0  0  0  0  0  0
  188.3210  177.5060  139.8150 C   0  0  0  0  0  3  0  0  0  0  0  0
  192.0560  176.8850  142.4110 O   0  0  0  0  0  1  0  0  0  0  0  0
  191.4880  177.8770  141.6120 O   0  0  0  0  0  0  0  0  0  0  0  0
  1  3  1  0  0  0  0
  2 17  1  6  0  0  0
  2  1  1  0  0  0  0
  2  3  1  0  0  0  0
  3 12  1  6  0  0  0
  3  6  1  0  0  0  0
  4  5  1  0  0  0  0
  6 10  1  0  0  0  0
  6  9  1  6  0  0  0
  8  5  1  0  0  0  0
  9  8  1  0  0  0  0
 10  7  1  6  0  0  0
 10  4  1  0  0  0  0
 11 14  1  0  0  0  0
 12 13  1  0  0  0  0
 14 13  2  0  0  0  0
 15 16  1  0  0  0  0
 15 11  2  0  0  0  0
 16 12  2  0  0  0  0
 18 25  1  0  0  0  0
 19 23  1  0  0  0  0
 20 22  2  0  0  0  0
 21 20  1  0  0  0  0
 22 24  1  0  0  0  0
 22 27  1  0  0  0  0
 23 18  2  0  0  0  0
 23 20  1  0  0  0  0
 24 17  1  0  0  0  0
 25 24  2  0  0  0  0
 27 26  1  0  0  0  0
M  END
>  <MODEL>
5

>  <REMARK>
 VINA RESULT:      -9.6      1.287      2.032
  Name = 
  5 active torsions:
  status: ('A' for Active; 'I' for Inactive)
    1  A    between atoms: C_2  and  C_6
    2  A    between atoms: C_6  and  C_17
    3  A    between atoms: C_9  and  C_15
    4  A    between atoms: C_14  and  O_19
    5  A    between atoms: C_15  and  C_18
                            x       y       z     vdW  Elec       q    Type
                         _______ _______ _______ _____ _____    ______ ____

>  <TORSDO>
F 5

$$$$
=
 OpenBabel10262420083D

 27 30  0  0  1  0  0  0  0  0999 V2000
  187.9870  176.3760  143.2160 C   0  0  0  0  0  2  0  0  0  0  0  0
  188.7400  177.7130  143.0070 C   0  0  2  0  0  3  0  0  0  0  0  0
  188.0580  177.3950  144.3650 C   0  0  2  0  0  0  0  0  0  0  0  0
  191.4500  176.4010  146.1220 C   0  0  0  0  0  2  0  0  0  0  0  0
  191.3030  177.0950  147.4520 C   0  0  0  0  0  2  0  0  0  0  0  0
  189.2050  177.1690  145.4090 C   0  0  1  0  0  3  0  0  0  0  0  0
  190.9680  176.3070  143.8720 O   0  0  0  0  0  1  0  0  0  0  0  0
  189.8560  177.4570  147.8520 C   0  0  0  0  0  2  0  0  0  0  0  0
  188.8530  176.8360  146.8960 C   0  0  0  0  0  2  0  0  0  0  0  0
  190.6730  177.0540  144.9730 C   0  0  2  0  0  3  0  0  0  0  0  0
  184.2840  179.0030  145.1060 C   0  0  0  0  0  3  0  0  0  0  0  0
  186.7570  177.8490  144.7830 C   0  0  0  0  0  0  0  0  0  0  0  0
  185.8260  177.8410  143.7300 C   0  0  0  0  0  3  0  0  0  0  0  0
  184.5870  178.4510  143.8970 C   0  0  0  0  0  3  0  0  0  0  0  0
  185.2190  179.0150  146.1530 C   0  0  0  0  0  3  0  0  0  0  0  0
  186.5180  178.5000  145.9860 C   0  0  0  0  0  3  0  0  0  0  0  0
  187.9640  178.8110  142.2090 C   0  0  0  0  0  2  0  0  0  0  0  0
  189.3770  177.4090  139.0350 C   0  0  0  0  0  3  0  0  0  0  0  0
  188.6660  176.8580  136.9120 O   0  0  0  0  0  1  0  0  0  0  0  0
  187.0670  177.8770  138.5100 C   0  0  0  0  0  0  0  0  0  0  0  0
  186.0790  177.7830  137.5710 O   0  0  0  0  0  1  0  0  0  0  0  0
  186.8730  178.4190  139.8420 C   0  0  0  0  0  0  0  0  0  0  0  0
  188.3800  177.3940  138.1600 C   0  0  0  0  0  0  0  0  0  0  0  0
  187.9460  178.3160  140.7400 C   0  0  0  0  0  0  0  0  0  0  0  0
  189.1440  177.8330  140.3370 C   0  0  0  0  0  3  0  0  0  0  0  0
  184.9300  179.7530  139.3750 O   0  0  0  0  0  1  0  0  0  0  0  0
  185.6580  178.9480  140.2510 O   0  0  0  0  0  0  0  0  0  0  0  0
  1  3  1  0  0  0  0
  2 17  1  6  0  0  0
  2  1  1  0  0  0  0
  2  3  1  0  0  0  0
  3 12  1  1  0  0  0
  3  6  1  0  0  0  0
  4  5  1  0  0  0  0
  5  8  1  0  0  0  0
  6  9  1  6  0  0  0
  9  8  1  0  0  0  0
 10  7  1  6  0  0  0
 10  6  1  0  0  0  0
 10  4  1  0  0  0  0
 11 15  1  0  0  0  0
 12 16  1  0  0  0  0
 13 14  1  0  0  0  0
 13 12  2  0  0  0  0
 14 11  2  0  0  0  0
 16 15  2  0  0  0  0
 18 25  1  0  0  0  0
 19 23  1  0  0  0  0
 20 22  2  0  0  0  0
 21 20  1  0  0  0  0
 22 27  1  0  0  0  0
 22 24  1  0  0  0  0
 23 20  1  0  0  0  0
 23 18  2  0  0  0  0
 24 17  1  0  0  0  0
 25 24  2  0  0  0  0
 26 27  1  0  0  0  0
M  END
>  <MODEL>
6

>  <REMARK>
 VINA RESULT:      -9.4      1.398      2.173
  Name = 
  5 active torsions:
  status: ('A' for Active; 'I' for Inactive)
    1  A    between atoms: C_2  and  C_6
    2  A    between atoms: C_6  and  C_17
    3  A    between atoms: C_9  and  C_15
    4  A    between atoms: C_14  and  O_19
    5  A    between atoms: C_15  and  C_18
                            x       y       z     vdW  Elec       q    Type
                         _______ _______ _______ _____ _____    ______ ____

>  <TORSDO>
F 5

$$$$
=
 OpenBabel10262420083D

 27 30  0  0  1  0  0  0  0  0999 V2000
  188.8750  175.6290  142.8210 C   0  0  0  0  0  2  0  0  0  0  0  0
  187.7950  176.7390  142.8370 C   0  0  2  0  0  3  0  0  0  0  0  0
  189.2390  177.0500  142.3590 C   0  0  2  0  0  0  0  0  0  0  0  0
  190.1200  177.5150  138.5390 C   0  0  0  0  0  2  0  0  0  0  0  0
  188.7430  177.5460  137.9250 C   0  0  0  0  0  2  0  0  0  0  0  0
  189.1620  177.3060  140.8150 C   0  0  1  0  0  3  0  0  0  0  0  0
  191.5270  176.7950  140.2140 O   0  0  0  0  0  1  0  0  0  0  0  0
  187.5940  177.8890  138.8970 C   0  0  0  0  0  2  0  0  0  0  0  0
  188.1320  178.3360  140.2450 C   0  0  0  0  0  2  0  0  0  0  0  0
  190.2140  176.7320  139.8550 C   0  0  2  0  0  3  0  0  0  0  0  0
  192.0250  178.5060  145.0960 C   0  0  0  0  0  3  0  0  0  0  0  0
  190.2840  177.6400  143.1550 C   0  0  0  0  0  0  0  0  0  0  0  0
  190.8280  176.7300  144.0780 C   0  0  0  0  0  3  0  0  0  0  0  0
  191.6890  177.1850  145.0720 C   0  0  0  0  0  3  0  0  0  0  0  0
  191.4740  179.4120  144.1760 C   0  0  0  0  0  3  0  0  0  0  0  0
  190.5200  179.0060  143.2230 C   0  0  0  0  0  3  0  0  0  0  0  0
  187.4960  177.3740  144.2340 C   0  0  0  0  0  2  0  0  0  0  0  0
  184.3690  178.5620  142.5450 C   0  0  0  0  0  3  0  0  0  0  0  0
  182.2660  179.3150  143.1160 O   0  0  0  0  0  1  0  0  0  0  0  0
  183.8970  178.7740  144.9040 C   0  0  0  0  0  0  0  0  0  0  0  0
  182.9570  179.0850  145.8460 O   0  0  0  0  0  1  0  0  0  0  0  0
  185.2400  178.3210  145.2150 C   0  0  0  0  0  0  0  0  0  0  0  0
  183.5260  178.8910  143.5150 C   0  0  0  0  0  0  0  0  0  0  0  0
  186.0420  177.9040  144.1420 C   0  0  0  0  0  0  0  0  0  0  0  0
  185.6120  178.0300  142.8650 C   0  0  0  0  0  3  0  0  0  0  0  0
  185.8620  179.3820  147.2790 O   0  0  0  0  0  1  0  0  0  0  0  0
  185.7000  178.2240  146.5200 O   0  0  0  0  0  0  0  0  0  0  0  0
  1  2  1  0  0  0  0
  2 17  1  1  0  0  0
  3  1  1  0  0  0  0
  3  2  1  0  0  0  0
  3 12  1  1  0  0  0
  4 10  1  0  0  0  0
  5  4  1  0  0  0  0
  5  8  1  0  0  0  0
  6  9  1  1  0  0  0
  6  3  1  0  0  0  0
  8  9  1  0  0  0  0
 10  7  1  1  0  0  0
 10  6  1  0  0  0  0
 12 16  2  0  0  0  0
 12 13  1  0  0  0  0
 13 14  2  0  0  0  0
 14 11  1  0  0  0  0
 15 11  2  0  0  0  0
 16 15  1  0  0  0  0
 18 25  2  0  0  0  0
 18 23  1  0  0  0  0
 19 23  1  0  0  0  0
 20 22  1  0  0  0  0
 20 21  1  0  0  0  0
 22 27  1  0  0  0  0
 23 20  2  0  0  0  0
 24 17  1  0  0  0  0
 24 22  2  0  0  0  0
 25 24  1  0  0  0  0
 27 26  1  0  0  0  0
M  END
>  <MODEL>
7

>  <REMARK>
 VINA RESULT:      -9.4      2.814      7.180
  Name = 
  5 active torsions:
  status: ('A' for Active; 'I' for Inactive)
    1  A    between atoms: C_2  and  C_6
    2  A    between atoms: C_6  and  C_17
    3  A    between atoms: C_9  and  C_15
    4  A    between atoms: C_14  and  O_19
    5  A    between atoms: C_15  and  C_18
                            x       y       z     vdW  Elec       q    Type
                         _______ _______ _______ _____ _____    ______ ____

>  <TORSDO>
F 5

$$$$
=
 OpenBabel10262420083D

 27 30  0  0  1  0  0  0  0  0999 V2000
  187.9110  176.0900  143.3210 C   0  0  0  0  0  2  0  0  0  0  0  0
  188.7590  177.3240  142.9280 C   0  0  2  0  0  3  0  0  0  0  0  0
  187.8830  177.3450  144.2090 C   0  0  2  0  0  0  0  0  0  0  0  0
  189.4270  177.5040  147.8390 C   0  0  0  0  0  2  0  0  0  0  0  0
  190.8300  177.0190  147.5790 C   0  0  0  0  0  2  0  0  0  0  0  0
  188.8640  177.3400  145.4310 C   0  0  1  0  0  3  0  0  0  0  0  0
  187.1930  177.5040  147.2750 O   0  0  0  0  0  1  0  0  0  0  0  0
  191.3060  177.1270  146.1140 C   0  0  0  0  0  2  0  0  0  0  0  0
  190.3130  177.9080  145.2720 C   0  0  0  0  0  2  0  0  0  0  0  0
  188.3790  176.9870  146.8450 C   0  0  2  0  0  3  0  0  0  0  0  0
  184.1250  179.1360  144.0030 C   0  0  0  0  0  3  0  0  0  0  0  0
  186.5650  177.9140  144.3210 C   0  0  0  0  0  0  0  0  0  0  0  0
  185.7570  177.6080  143.2130 C   0  0  0  0  0  3  0  0  0  0  0  0
  184.5350  178.2530  143.0490 C   0  0  0  0  0  3  0  0  0  0  0  0
  184.9380  179.4430  145.1050 C   0  0  0  0  0  3  0  0  0  0  0  0
  186.2240  178.8890  145.2490 C   0  0  0  0  0  3  0  0  0  0  0  0
  188.1610  178.2260  141.7990 C   0  0  0  0  0  2  0  0  0  0  0  0
  191.0830  177.0260  139.7830 C   0  0  0  0  0  3  0  0  0  0  0  0
  191.6450  176.6870  137.5730 O   0  0  0  0  0  1  0  0  0  0  0  0
  189.4280  177.6440  138.1360 C   0  0  0  0  0  0  0  0  0  0  0  0
  189.1120  177.6750  136.8080 O   0  0  0  0  0  1  0  0  0  0  0  0
  188.5370  178.0830  139.1940 C   0  0  0  0  0  0  0  0  0  0  0  0
  190.7230  177.1310  138.5100 C   0  0  0  0  0  0  0  0  0  0  0  0
  188.9480  177.8550  140.5160 C   0  0  0  0  0  0  0  0  0  0  0  0
  190.1760  177.3520  140.7840 C   0  0  0  0  0  3  0  0  0  0  0  0
  186.3170  177.8550  138.3050 O   0  0  0  0  0  1  0  0  0  0  0  0
  187.2930  178.6330  138.9270 O   0  0  0  0  0  0  0  0  0  0  0  0
  1  3  1  0  0  0  0
  2 17  1  6  0  0  0
  2  1  1  0  0  0  0
  2  3  1  0  0  0  0
  3 12  1  1  0  0  0
  3  6  1  0  0  0  0
  5  4  1  0  0  0  0
  6  9  1  1  0  0  0
  6 10  1  0  0  0  0
  8  5  1  0  0  0  0
  9  8  1  0  0  0  0
 10  7  1  1  0  0  0
 10  4  1  0  0  0  0
 11 15  1  0  0  0  0
 12 16  1  0  0  0  0
 13 12  2  0  0  0  0
 14 13  1  0  0  0  0
 14 11  2  0  0  0  0
 15 16  2  0  0  0  0
 18 25  1  0  0  0  0
 19 23  1  0  0  0  0
 20 23  1  0  0  0  0
 20 22  2  0  0  0  0
 21 20  1  0  0  0  0
 22 24  1  0  0  0  0
 23 18  2  0  0  0  0
 24 25  2  0  0  0  0
 24 17  1  0  0  0  0
 26 27  1  0  0  0  0
 27 22  1  0  0  0  0
M  END
>  <MODEL>
8

>  <REMARK>
 VINA RESULT:      -9.4      1.079      1.786
  Name = 
  5 active torsions:
  status: ('A' for Active; 'I' for Inactive)
    1  A    between atoms: C_2  and  C_6
    2  A    between atoms: C_6  and  C_17
    3  A    between atoms: C_9  and  C_15
    4  A    between atoms: C_14  and  O_19
    5  A    between atoms: C_15  and  C_18
                            x       y       z     vdW  Elec       q    Type
                         _______ _______ _______ _____ _____    ______ ____

>  <TORSDO>
F 5

$$$$
=
 OpenBabel10262420083D

 27 30  0  0  1  0  0  0  0  0999 V2000
  187.7100  176.4180  144.1100 C   0  0  0  0  0  2  0  0  0  0  0  0
  188.0560  177.7920  144.7350 C   0  0  2  0  0  3  0  0  0  0  0  0
  187.2900  177.7100  143.3870 C   0  0  2  0  0  0  0  0  0  0  0  0
  183.5690  178.9650  142.9920 C   0  0  0  0  0  2  0  0  0  0  0  0
  183.0690  178.8430  144.4090 C   0  0  0  0  0  2  0  0  0  0  0  0
  185.8290  178.2030  143.6630 C   0  0  1  0  0  3  0  0  0  0  0  0
  184.9810  178.2480  141.3190 O   0  0  0  0  0  1  0  0  0  0  0  0
  184.1650  178.7990  145.4950 C   0  0  0  0  0  2  0  0  0  0  0  0
  185.5310  179.1050  144.9060 C   0  0  0  0  0  2  0  0  0  0  0  0
  184.7080  178.0040  142.6320 C   0  0  2  0  0  3  0  0  0  0  0  0
  189.4500  177.8660  139.8250 C   0  0  0  0  0  3  0  0  0  0  0  0
  187.8740  177.8240  142.0760 C   0  0  0  0  0  0  0  0  0  0  0  0
  188.6810  176.7200  141.7530 C   0  0  0  0  0  3  0  0  0  0  0  0
  189.4930  176.7620  140.6250 C   0  0  0  0  0  3  0  0  0  0  0  0
  188.6480  178.9690  140.1550 C   0  0  0  0  0  3  0  0  0  0  0  0
  187.8930  179.0030  141.3430 C   0  0  0  0  0  3  0  0  0  0  0  0
  189.5310  178.2740  144.5380 C   0  0  0  0  0  2  0  0  0  0  0  0
  191.0090  176.9300  147.7080 C   0  0  0  0  0  3  0  0  0  0  0  0
  192.4400  175.2530  148.3820 O   0  0  0  0  0  1  0  0  0  0  0  0
  191.9970  175.5830  145.9640 C   0  0  0  0  0  0  0  0  0  0  0  0
  192.8060  174.5200  145.6780 O   0  0  0  0  0  1  0  0  0  0  0  0
  191.2980  176.3660  144.9620 C   0  0  0  0  0  0  0  0  0  0  0  0
  191.8150  175.9400  147.3500 C   0  0  0  0  0  0  0  0  0  0  0  0
  190.3920  177.3340  145.4190 C   0  0  0  0  0  0  0  0  0  0  0  0
  190.2680  177.5980  146.7410 C   0  0  0  0  0  3  0  0  0  0  0  0
  192.0560  177.0890  142.8000 O   0  0  0  0  0  1  0  0  0  0  0  0
  191.4490  176.1250  143.6040 O   0  0  0  0  0  0  0  0  0  0  0  0
  1  2  1  0  0  0  0
  2 17  1  6  0  0  0
  3 12  1  6  0  0  0
  3  6  1  0  0  0  0
  3  1  1  0  0  0  0
  3  2  1  0  0  0  0
  4  5  1  0  0  0  0
  5  8  1  0  0  0  0
  6  9  1  6  0  0  0
  9  8  1  0  0  0  0
 10  7  1  6  0  0  0
 10  4  1  0  0  0  0
 10  6  1  0  0  0  0
 11 15  2  0  0  0  0
 11 14  1  0  0  0  0
 13 12  1  0  0  0  0
 14 13  2  0  0  0  0
 15 16  1  0  0  0  0
 16 12  2  0  0  0  0
 17 24  1  0  0  0  0
 20 23  2  0  0  0  0
 21 20  1  0  0  0  0
 22 24  2  0  0  0  0
 22 20  1  0  0  0  0
 23 18  1  0  0  0  0
 23 19  1  0  0  0  0
 24 25  1  0  0  0  0
 25 18  2  0  0  0  0
 26 27  1  0  0  0  0
 27 22  1  0  0  0  0
M  END
>  <MODEL>
9

>  <REMARK>
 VINA RESULT:      -9.1      2.139      6.070
  Name = 
  5 active torsions:
  status: ('A' for Active; 'I' for Inactive)
    1  A    between atoms: C_2  and  C_6
    2  A    between atoms: C_6  and  C_17
    3  A    between atoms: C_9  and  C_15
    4  A    between atoms: C_14  and  O_19
    5  A    between atoms: C_15  and  C_18
                            x       y       z     vdW  Elec       q    Type
                         _______ _______ _______ _____ _____    ______ ____

>  <TORSDO>
F 5

$$$$
