=
 OpenBabel10262421113D

 32 36  0  0  1  0  0  0  0  0999 V2000
  189.3430  177.3320  140.4230 N   0  0  0  0  0  0  0  0  0  0  0  0
  187.5260  178.1630  141.4990 C   0  0  0  0  0  0  0  0  0  0  0  0
  188.8280  176.5940  142.7940 C   0  0  0  0  0  3  0  0  0  0  0  0
  184.6410  179.3680  143.4910 C   0  0  0  0  0  3  0  0  0  0  0  0
  188.5870  177.3180  141.6240 C   0  0  0  0  0  0  0  0  0  0  0  0
  185.9270  177.7810  144.8020 C   0  0  0  0  0  3  0  0  0  0  0  0
  186.8210  177.6230  143.7400 C   0  0  0  0  0  0  0  0  0  0  0  0
  187.9250  176.7530  143.8610 C   0  0  0  0  0  3  0  0  0  0  0  0
  187.5420  178.7610  140.2490 O   0  0  0  0  0  0  0  0  0  0  0  0
  188.6810  178.2770  139.5180 C   0  0  2  0  0  3  0  0  0  0  0  0
  186.6150  178.3480  142.5370 C   0  0  0  0  0  0  0  0  0  0  0  0
  184.8390  178.6520  144.6760 C   0  0  0  0  0  3  0  0  0  0  0  0
  185.5270  179.2180  142.4190 C   0  0  0  0  0  3  0  0  0  0  0  0
  188.2200  177.4000  135.8330 C   0  0  0  0  0  0  0  0  0  0  0  0
  188.5440  177.8780  134.6060 F   0  0  0  0  0  0  0  0  0  0  0  0
  188.2490  177.5800  138.2580 C   0  0  0  0  0  0  0  0  0  0  0  0
  187.5040  176.2040  135.9330 C   0  0  0  0  0  3  0  0  0  0  0  0
  187.5370  176.3750  138.3430 C   0  0  0  0  0  3  0  0  0  0  0  0
  188.5990  178.0920  136.9930 C   0  0  0  0  0  0  0  0  0  0  0  0
  189.3750  179.3640  136.8680 C   0  0  0  0  0  1  0  0  0  0  0  0
  187.1590  175.6840  137.1900 C   0  0  0  0  0  0  0  0  0  0  0  0
  185.0650  174.3770  137.0150 C   0  0  0  0  0  1  0  0  0  0  0  0
  186.4490  174.4880  137.3200 O   0  0  0  0  0  0  0  0  0  0  0  0
  191.7420  177.5030  140.8740 C   0  0  0  0  0  2  0  0  0  0  0  0
  190.6450  176.7180  140.1840 C   0  0  2  0  0  3  0  0  0  0  0  0
  190.9360  176.6790  138.7570 N   0  0  0  0  0  0  0  0  0  0  0  0
  192.3790  176.8230  138.6600 C   0  0  0  0  0  2  0  0  0  0  0  0
  192.8350  177.6460  139.8440 C   0  0  0  0  0  2  0  0  0  0  0  0
  190.6090  175.3420  138.2920 C   0  0  0  0  0  2  0  0  0  0  0  0
  191.0540  175.1820  136.8550 C   0  0  0  0  0  2  0  0  0  0  0  0
  190.6030  173.8340  136.3350 C   0  0  0  0  0  2  0  0  0  0  0  0
  189.6740  173.2840  137.2180 O   0  0  0  0  0  1  0  0  0  0  0  0
  1  5  1  0  0  0  0
  2  5  2  0  0  0  0
  2 11  1  0  0  0  0
  3  8  2  0  0  0  0
  4 12  1  0  0  0  0
  5  3  1  0  0  0  0
  7  8  1  0  0  0  0
  7  6  1  0  0  0  0
  9  2  1  0  0  0  0
 10 16  1  6  0  0  0
 10  9  1  0  0  0  0
 10  1  1  0  0  0  0
 11  7  2  0  0  0  0
 12  6  2  0  0  0  0
 13 11  1  0  0  0  0
 13  4  2  0  0  0  0
 14 17  2  0  0  0  0
 14 19  1  0  0  0  0
 15 14  1  0  0  0  0
 16 18  1  0  0  0  0
 17 21  1  0  0  0  0
 19 16  2  0  0  0  0
 20 19  1  0  0  0  0
 21 23  1  0  0  0  0
 21 18  2  0  0  0  0
 22 23  1  0  0  0  0
 25  1  1  6  0  0  0
 25 24  1  0  0  0  0
 26 25  1  0  0  0  0
 27 26  1  0  0  0  0
 27 28  1  0  0  0  0
 28 24  1  0  0  0  0
 29 26  1  0  0  0  0
 30 29  1  0  0  0  0
 31 30  1  0  0  0  0
 31 32  1  0  0  0  0
M  END
>  <MODEL>
1

>  <REMARK>
 VINA RESULT:      -7.2      0.000      0.000
  Name = 
  6 active torsions:
  status: ('A' for Active; 'I' for Inactive)
    1  A    between atoms: N_1  and  C_5
    2  A    between atoms: C_13  and  C_18
    3  A    between atoms: N_14  and  C_29
    4  A    between atoms: O_15  and  C_26
    5  A    between atoms: C_16  and  C_27
    6  A    between atoms: C_18  and  C_29
                            x       y       z     vdW  Elec       q    Type
                         _______ _______ _______ _____ _____    ______ ____

>  <TORSDO>
F 6

$$$$
=
 OpenBabel10262421113D

 32 36  0  0  1  0  0  0  0  0999 V2000
  181.0340  178.9200  138.3670 N   0  0  0  0  0  0  0  0  0  0  0  0
  181.0410  181.1340  137.8710 C   0  0  0  0  0  0  0  0  0  0  0  0
  180.6650  179.6820  135.9780 C   0  0  0  0  0  3  0  0  0  0  0  0
  180.9920  184.6770  136.7850 C   0  0  0  0  0  3  0  0  0  0  0  0
  180.9050  179.8880  137.3380 C   0  0  0  0  0  0  0  0  0  0  0  0
  180.6290  183.2350  134.8660 C   0  0  0  0  0  3  0  0  0  0  0  0
  180.7200  182.1100  135.6910 C   0  0  0  0  0  0  0  0  0  0  0  0
  180.5760  180.8160  135.1500 C   0  0  0  0  0  3  0  0  0  0  0  0
  181.2510  181.0440  139.2380 O   0  0  0  0  0  0  0  0  0  0  0  0
  181.2490  179.6570  139.6170 C   0  0  2  0  0  3  0  0  0  0  0  0
  180.9540  182.2780  137.0810 C   0  0  0  0  0  0  0  0  0  0  0  0
  180.7650  184.5150  135.4130 C   0  0  0  0  0  3  0  0  0  0  0  0
  181.0880  183.5610  137.6210 C   0  0  0  0  0  3  0  0  0  0  0  0
  183.8710  178.4480  142.1110 C   0  0  0  0  0  0  0  0  0  0  0  0
  183.9630  178.0370  143.4010 F   0  0  0  0  0  0  0  0  0  0  0  0
  182.5650  179.2710  140.2320 C   0  0  0  0  0  0  0  0  0  0  0  0
  185.0220  178.4710  141.3180 C   0  0  0  0  0  3  0  0  0  0  0  0
  183.7270  179.2820  139.4460 C   0  0  0  0  0  3  0  0  0  0  0  0
  182.6380  178.8440  141.5730 C   0  0  0  0  0  0  0  0  0  0  0  0
  181.4150  178.8020  142.4330 C   0  0  0  0  0  1  0  0  0  0  0  0
  184.9560  178.8880  139.9800 C   0  0  0  0  0  0  0  0  0  0  0  0
  187.2610  178.1630  139.4470 C   0  0  0  0  0  1  0  0  0  0  0  0
  186.0880  178.9160  139.1620 O   0  0  0  0  0  0  0  0  0  0  0  0
  179.9630  177.0090  139.4600 C   0  0  0  0  0  2  0  0  0  0  0  0
  180.7820  177.4840  138.2770 C   0  0  2  0  0  3  0  0  0  0  0  0
  182.0370  176.7470  138.2610 N   0  0  0  0  0  0  0  0  0  0  0  0
  181.7480  175.4910  138.9330 C   0  0  0  0  0  2  0  0  0  0  0  0
  180.6510  175.7550  139.9410 C   0  0  0  0  0  2  0  0  0  0  0  0
  182.3280  176.4300  136.8740 C   0  0  0  0  0  2  0  0  0  0  0  0
  183.5570  177.1920  136.4260 C   0  0  0  0  0  2  0  0  0  0  0  0
  184.7990  176.4380  136.8500 C   0  0  0  0  0  2  0  0  0  0  0  0
  185.9260  177.0610  136.3130 O   0  0  0  0  0  1  0  0  0  0  0  0
  1 10  1  0  0  0  0
  2  9  1  0  0  0  0
  3  5  2  0  0  0  0
  4 13  2  0  0  0  0
  5  2  1  0  0  0  0
  5  1  1  0  0  0  0
  6 12  2  0  0  0  0
  6  7  1  0  0  0  0
  7 11  1  0  0  0  0
  8  7  2  0  0  0  0
  8  3  1  0  0  0  0
  9 10  1  0  0  0  0
 10 16  1  6  0  0  0
 11 13  1  0  0  0  0
 11  2  2  0  0  0  0
 12  4  1  0  0  0  0
 14 15  1  0  0  0  0
 16 19  2  0  0  0  0
 17 14  2  0  0  0  0
 18 21  2  0  0  0  0
 18 16  1  0  0  0  0
 19 14  1  0  0  0  0
 19 20  1  0  0  0  0
 21 17  1  0  0  0  0
 23 22  1  0  0  0  0
 23 21  1  0  0  0  0
 24 28  1  0  0  0  0
 25  1  1  1  0  0  0
 25 24  1  0  0  0  0
 26 25  1  0  0  0  0
 26 27  1  0  0  0  0
 27 28  1  0  0  0  0
 29 26  1  0  0  0  0
 30 31  1  0  0  0  0
 30 29  1  0  0  0  0
 32 31  1  0  0  0  0
M  END
>  <MODEL>
2

>  <REMARK>
 VINA RESULT:      -7.2      6.107      8.859
  Name = 
  6 active torsions:
  status: ('A' for Active; 'I' for Inactive)
    1  A    between atoms: N_1  and  C_5
    2  A    between atoms: C_13  and  C_18
    3  A    between atoms: N_14  and  C_29
    4  A    between atoms: O_15  and  C_26
    5  A    between atoms: C_16  and  C_27
    6  A    between atoms: C_18  and  C_29
                            x       y       z     vdW  Elec       q    Type
                         _______ _______ _______ _____ _____    ______ ____

>  <TORSDO>
F 6

$$$$
=
 OpenBabel10262421113D

 32 36  0  0  1  0  0  0  0  0999 V2000
  182.1530  177.8080  139.0440 N   0  0  0  0  0  0  0  0  0  0  0  0
  181.5700  179.8920  138.3630 C   0  0  0  0  0  0  0  0  0  0  0  0
  181.4770  178.2090  136.6340 C   0  0  0  0  0  3  0  0  0  0  0  0
  180.5600  183.1830  136.9880 C   0  0  0  0  0  3  0  0  0  0  0  0
  181.7280  178.6050  137.9500 C   0  0  0  0  0  0  0  0  0  0  0  0
  180.4770  181.5090  135.2320 C   0  0  0  0  0  3  0  0  0  0  0  0
  180.8950  180.5320  136.1390 C   0  0  0  0  0  0  0  0  0  0  0  0
  181.0580  179.1950  135.7220 C   0  0  0  0  0  3  0  0  0  0  0  0
  181.8670  179.9960  139.7130 O   0  0  0  0  0  0  0  0  0  0  0  0
  182.2400  178.6990  140.2070 C   0  0  2  0  0  3  0  0  0  0  0  0
  181.1520  180.8930  137.4880 C   0  0  0  0  0  0  0  0  0  0  0  0
  180.3110  182.8320  135.6570 C   0  0  0  0  0  3  0  0  0  0  0  0
  180.9830  182.2160  137.9060 C   0  0  0  0  0  3  0  0  0  0  0  0
  185.1940  178.7170  142.6210 C   0  0  0  0  0  0  0  0  0  0  0  0
  185.4430  178.7460  143.9540 F   0  0  0  0  0  0  0  0  0  0  0  0
  183.6410  178.7170  140.7500 C   0  0  0  0  0  0  0  0  0  0  0  0
  186.2670  178.6570  141.7270 C   0  0  0  0  0  3  0  0  0  0  0  0
  184.7270  178.6490  139.8650 C   0  0  0  0  0  3  0  0  0  0  0  0
  183.8770  178.7440  142.1390 C   0  0  0  0  0  0  0  0  0  0  0  0
  182.7410  178.7970  143.1090 C   0  0  0  0  0  1  0  0  0  0  0  0
  186.0390  178.6220  140.3430 C   0  0  0  0  0  0  0  0  0  0  0  0
  186.9210  178.1010  138.0910 C   0  0  0  0  0  1  0  0  0  0  0  0
  187.0920  178.5560  139.4270 O   0  0  0  0  0  0  0  0  0  0  0  0
  183.3240  175.8680  138.1200 C   0  0  0  0  0  2  0  0  0  0  0  0
  182.2720  176.3540  139.0950 C   0  0  2  0  0  3  0  0  0  0  0  0
  181.0030  175.7280  138.7520 N   0  0  0  0  0  0  0  0  0  0  0  0
  181.3610  174.4850  138.0860 C   0  0  0  0  0  2  0  0  0  0  0  0
  182.6910  174.7040  137.4000 C   0  0  0  0  0  2  0  0  0  0  0  0
  180.3530  175.3700  140.0000 C   0  0  0  0  0  2  0  0  0  0  0  0
  178.9380  175.9070  140.0080 C   0  0  0  0  0  2  0  0  0  0  0  0
  178.9310  177.2960  140.6090 C   0  0  0  0  0  2  0  0  0  0  0  0
  179.3660  177.2310  141.9330 O   0  0  0  0  0  1  0  0  0  0  0  0
  1 25  1  0  0  0  0
  1 10  1  0  0  0  0
  2  9  1  0  0  0  0
  3  5  2  0  0  0  0
  4 13  2  0  0  0  0
  5  2  1  0  0  0  0
  5  1  1  0  0  0  0
  6 12  2  0  0  0  0
  6  7  1  0  0  0  0
  7 11  1  0  0  0  0
  8  7  2  0  0  0  0
  8  3  1  0  0  0  0
  9 10  1  0  0  0  0
 10 16  1  6  0  0  0
 11 13  1  0  0  0  0
 11  2  2  0  0  0  0
 12  4  1  0  0  0  0
 14 15  1  0  0  0  0
 16 19  2  0  0  0  0
 17 14  2  0  0  0  0
 18 21  2  0  0  0  0
 18 16  1  0  0  0  0
 19 14  1  0  0  0  0
 19 20  1  0  0  0  0
 21 17  1  0  0  0  0
 22 23  1  0  0  0  0
 23 21  1  0  0  0  0
 25 24  1  6  0  0  0
 26 25  1  0  0  0  0
 26 29  1  0  0  0  0
 27 26  1  0  0  0  0
 28 27  1  0  0  0  0
 28 24  1  0  0  0  0
 29 30  1  0  0  0  0
 30 31  1  0  0  0  0
 31 32  1  0  0  0  0
M  END
>  <MODEL>
3

>  <REMARK>
 VINA RESULT:      -6.8      5.759      8.840
  Name = 
  6 active torsions:
  status: ('A' for Active; 'I' for Inactive)
    1  A    between atoms: N_1  and  C_5
    2  A    between atoms: C_13  and  C_18
    3  A    between atoms: N_14  and  C_29
    4  A    between atoms: O_15  and  C_26
    5  A    between atoms: C_16  and  C_27
    6  A    between atoms: C_18  and  C_29
                            x       y       z     vdW  Elec       q    Type
                         _______ _______ _______ _____ _____    ______ ____

>  <TORSDO>
F 6

$$$$
=
 OpenBabel10262421113D

 32 36  0  0  1  0  0  0  0  0999 V2000
  189.9110  177.3410  142.3980 N   0  0  0  0  0  0  0  0  0  0  0  0
  190.0340  176.5270  140.2840 C   0  0  0  0  0  0  0  0  0  0  0  0
  191.9760  177.7750  140.9930 C   0  0  0  0  0  3  0  0  0  0  0  0
  190.5040  175.3080  136.8150 C   0  0  0  0  0  3  0  0  0  0  0  0
  190.7030  177.2490  141.2240 C   0  0  0  0  0  0  0  0  0  0  0  0
  192.4590  176.5730  137.5030 C   0  0  0  0  0  3  0  0  0  0  0  0
  191.8750  176.8020  138.7520 C   0  0  0  0  0  0  0  0  0  0  0  0
  192.5610  177.5450  139.7350 C   0  0  0  0  0  3  0  0  0  0  0  0
  188.8100  176.1150  140.7860 O   0  0  0  0  0  0  0  0  0  0  0  0
  188.6750  176.5970  142.1330 C   0  0  2  0  0  3  0  0  0  0  0  0
  190.5850  176.2770  139.0290 C   0  0  0  0  0  0  0  0  0  0  0  0
  191.7730  175.8280  136.5370 C   0  0  0  0  0  3  0  0  0  0  0  0
  189.9070  175.5320  138.0600 C   0  0  0  0  0  3  0  0  0  0  0  0
  185.8040  178.6280  143.6120 C   0  0  0  0  0  0  0  0  0  0  0  0
  185.2180  178.8730  144.8100 F   0  0  0  0  0  0  0  0  0  0  0  0
  187.4820  177.5010  142.2590 C   0  0  0  0  0  0  0  0  0  0  0  0
  185.3160  179.2670  142.4690 C   0  0  0  0  0  3  0  0  0  0  0  0
  186.9860  178.1560  141.1220 C   0  0  0  0  0  3  0  0  0  0  0  0
  186.8900  177.7460  143.5150 C   0  0  0  0  0  0  0  0  0  0  0  0
  187.4070  177.0790  144.7490 C   0  0  0  0  0  1  0  0  0  0  0  0
  185.9050  179.0350  141.2170 C   0  0  0  0  0  0  0  0  0  0  0  0
  184.1750  179.3750  139.4800 C   0  0  0  0  0  1  0  0  0  0  0  0
  185.4410  179.6640  140.0590 O   0  0  0  0  0  0  0  0  0  0  0  0
  190.3670  179.3800  143.6730 C   0  0  0  0  0  2  0  0  0  0  0  0
  190.3070  177.8670  143.7010 C   0  0  2  0  0  3  0  0  0  0  0  0
  191.6210  177.3620  144.0760 N   0  0  0  0  0  0  0  0  0  0  0  0
  192.2300  178.4300  144.8540 C   0  0  0  0  0  2  0  0  0  0  0  0
  191.6680  179.7390  144.3470 C   0  0  0  0  0  2  0  0  0  0  0  0
  191.4070  176.2460  144.9800 C   0  0  0  0  0  2  0  0  0  0  0  0
  191.4420  176.7370  146.4110 C   0  0  0  0  0  2  0  0  0  0  0  0
  192.1170  175.7000  147.2830 C   0  0  0  0  0  2  0  0  0  0  0  0
  192.7530  176.3350  148.3500 O   0  0  0  0  0  1  0  0  0  0  0  0
  2  9  1  0  0  0  0
  2  5  1  0  0  0  0
  3  5  2  0  0  0  0
  4 13  2  0  0  0  0
  5  1  1  0  0  0  0
  6  7  1  0  0  0  0
  7 11  1  0  0  0  0
  7  8  2  0  0  0  0
  8  3  1  0  0  0  0
  9 10  1  0  0  0  0
 10 16  1  6  0  0  0
 10  1  1  0  0  0  0
 11  2  2  0  0  0  0
 12  4  1  0  0  0  0
 12  6  2  0  0  0  0
 13 11  1  0  0  0  0
 14 15  1  0  0  0  0
 16 19  2  0  0  0  0
 17 14  2  0  0  0  0
 18 21  2  0  0  0  0
 18 16  1  0  0  0  0
 19 14  1  0  0  0  0
 19 20  1  0  0  0  0
 21 17  1  0  0  0  0
 22 23  1  0  0  0  0
 23 21  1  0  0  0  0
 24 25  1  0  0  0  0
 24 28  1  0  0  0  0
 25  1  1  6  0  0  0
 25 26  1  0  0  0  0
 26 27  1  0  0  0  0
 26 29  1  0  0  0  0
 28 27  1  0  0  0  0
 29 30  1  0  0  0  0
 30 31  1  0  0  0  0
 31 32  1  0  0  0  0
M  END
>  <MODEL>
4

>  <REMARK>
 VINA RESULT:      -6.5      3.474      6.972
  Name = 
  6 active torsions:
  status: ('A' for Active; 'I' for Inactive)
    1  A    between atoms: N_1  and  C_5
    2  A    between atoms: C_13  and  C_18
    3  A    between atoms: N_14  and  C_29
    4  A    between atoms: O_15  and  C_26
    5  A    between atoms: C_16  and  C_27
    6  A    between atoms: C_18  and  C_29
                            x       y       z     vdW  Elec       q    Type
                         _______ _______ _______ _____ _____    ______ ____

>  <TORSDO>
F 6

$$$$
=
 OpenBabel10262421113D

 32 36  0  0  1  0  0  0  0  0999 V2000
  185.7240  178.6280  140.2650 N   0  0  0  0  0  0  0  0  0  0  0  0
  185.4590  178.6770  142.5180 C   0  0  0  0  0  0  0  0  0  0  0  0
  187.4320  177.5060  141.7650 C   0  0  0  0  0  3  0  0  0  0  0  0
  185.2790  178.6160  146.2200 C   0  0  0  0  0  3  0  0  0  0  0  0
  186.2640  178.2300  141.5150 C   0  0  0  0  0  0  0  0  0  0  0  0
  187.2590  177.4210  145.4830 C   0  0  0  0  0  3  0  0  0  0  0  0
  186.9310  177.6900  144.1520 C   0  0  0  0  0  0  0  0  0  0  0  0
  187.7600  177.2350  143.1060 C   0  0  0  0  0  3  0  0  0  0  0  0
  184.3880  179.3780  141.9870 O   0  0  0  0  0  0  0  0  0  0  0  0
  184.5030  179.3880  140.5540 C   0  0  2  0  0  3  0  0  0  0  0  0
  185.7550  178.4300  143.8560 C   0  0  0  0  0  0  0  0  0  0  0  0
  186.4340  177.8830  146.5140 C   0  0  0  0  0  3  0  0  0  0  0  0
  184.9360  178.8900  144.8920 C   0  0  0  0  0  3  0  0  0  0  0  0
  181.4040  178.7870  138.4120 C   0  0  0  0  0  0  0  0  0  0  0  0
  180.5930  179.4530  137.5520 F   0  0  0  0  0  0  0  0  0  0  0  0
  183.3120  178.7280  139.9180 C   0  0  0  0  0  0  0  0  0  0  0  0
  181.1540  177.4380  138.6800 C   0  0  0  0  0  3  0  0  0  0  0  0
  183.0540  177.3730  140.1720 C   0  0  0  0  0  3  0  0  0  0  0  0
  182.4850  179.4380  139.0250 C   0  0  0  0  0  0  0  0  0  0  0  0
  182.7440  180.8780  138.7180 C   0  0  0  0  0  1  0  0  0  0  0  0
  181.9790  176.7230  139.5620 C   0  0  0  0  0  0  0  0  0  0  0  0
  180.4610  174.7870  139.8310 C   0  0  0  0  0  1  0  0  0  0  0  0
  181.7570  175.3730  139.8440 O   0  0  0  0  0  0  0  0  0  0  0  0
  185.4030  177.8620  137.9620 C   0  0  0  0  0  2  0  0  0  0  0  0
  186.3480  178.5180  138.9490 C   0  0  2  0  0  3  0  0  0  0  0  0
  187.5600  177.7160  139.0260 N   0  0  0  0  0  0  0  0  0  0  0  0
  187.6470  177.0350  137.7440 C   0  0  0  0  0  2  0  0  0  0  0  0
  186.2350  176.8320  137.2400 C   0  0  0  0  0  2  0  0  0  0  0  0
  188.6790  178.6400  139.0930 C   0  0  0  0  0  2  0  0  0  0  0  0
  189.9530  177.9240  138.7020 C   0  0  0  0  0  2  0  0  0  0  0  0
  190.6360  177.3950  139.9450 C   0  0  0  0  0  2  0  0  0  0  0  0
  190.5550  176.0030  139.9610 O   0  0  0  0  0  1  0  0  0  0  0  0
  1 10  1  0  0  0  0
  1  5  1  0  0  0  0
  2 11  1  0  0  0  0
  3  8  2  0  0  0  0
  4 12  1  0  0  0  0
  5  3  1  0  0  0  0
  5  2  2  0  0  0  0
  6 12  2  0  0  0  0
  7  6  1  0  0  0  0
  8  7  1  0  0  0  0
  9  2  1  0  0  0  0
 10 16  1  6  0  0  0
 10  9  1  0  0  0  0
 11  7  2  0  0  0  0
 11 13  1  0  0  0  0
 13  4  2  0  0  0  0
 14 17  2  0  0  0  0
 14 19  1  0  0  0  0
 15 14  1  0  0  0  0
 16 18  1  0  0  0  0
 17 21  1  0  0  0  0
 19 16  2  0  0  0  0
 20 19  1  0  0  0  0
 21 23  1  0  0  0  0
 21 18  2  0  0  0  0
 22 23  1  0  0  0  0
 25 24  1  6  0  0  0
 25 26  1  0  0  0  0
 25  1  1  0  0  0  0
 26 29  1  0  0  0  0
 27 26  1  0  0  0  0
 28 27  1  0  0  0  0
 28 24  1  0  0  0  0
 30 29  1  0  0  0  0
 30 31  1  0  0  0  0
 31 32  1  0  0  0  0
M  END
>  <MODEL>
5

>  <REMARK>
 VINA RESULT:      -6.4      3.402      4.793
  Name = 
  6 active torsions:
  status: ('A' for Active; 'I' for Inactive)
    1  A    between atoms: N_1  and  C_5
    2  A    between atoms: C_13  and  C_18
    3  A    between atoms: N_14  and  C_29
    4  A    between atoms: O_15  and  C_26
    5  A    between atoms: C_16  and  C_27
    6  A    between atoms: C_18  and  C_29
                            x       y       z     vdW  Elec       q    Type
                         _______ _______ _______ _____ _____    ______ ____

>  <TORSDO>
F 6

$$$$
=
 OpenBabel10262421113D

 32 36  0  0  1  0  0  0  0  0999 V2000
  188.3870  178.0490  139.4800 N   0  0  0  0  0  0  0  0  0  0  0  0
  187.5380  178.0820  141.5830 C   0  0  0  0  0  0  0  0  0  0  0  0
  189.7800  177.2010  141.4210 C   0  0  0  0  0  3  0  0  0  0  0  0
  186.4050  178.0320  145.1120 C   0  0  0  0  0  3  0  0  0  0  0  0
  188.6300  177.7450  140.8440 C   0  0  0  0  0  0  0  0  0  0  0  0
  188.6530  177.1280  144.9680 C   0  0  0  0  0  3  0  0  0  0  0  0
  188.6510  177.3330  143.5860 C   0  0  0  0  0  0  0  0  0  0  0  0
  189.7800  176.9930  142.8120 C   0  0  0  0  0  3  0  0  0  0  0  0
  186.5570  178.6150  140.7620 O   0  0  0  0  0  0  0  0  0  0  0  0
  187.0410  178.6280  139.4090 C   0  0  2  0  0  3  0  0  0  0  0  0
  187.5040  177.8930  142.9630 C   0  0  0  0  0  0  0  0  0  0  0  0
  187.5320  177.4760  145.7280 C   0  0  0  0  0  3  0  0  0  0  0  0
  186.3880  178.2410  143.7300 C   0  0  0  0  0  3  0  0  0  0  0  0
  184.0780  177.4590  137.3090 C   0  0  0  0  0  0  0  0  0  0  0  0
  182.8270  177.8590  136.9680 F   0  0  0  0  0  0  0  0  0  0  0  0
  186.1600  177.7970  138.5190 C   0  0  0  0  0  0  0  0  0  0  0  0
  184.5800  176.2650  136.7840 C   0  0  0  0  0  3  0  0  0  0  0  0
  186.6540  176.6000  137.9780 C   0  0  0  0  0  3  0  0  0  0  0  0
  184.8650  178.2320  138.1750 C   0  0  0  0  0  0  0  0  0  0  0  0
  184.3160  179.5120  138.7190 C   0  0  0  0  0  1  0  0  0  0  0  0
  185.8720  175.8290  137.1150 C   0  0  0  0  0  0  0  0  0  0  0  0
  186.1980  173.3780  137.2170 C   0  0  0  0  0  1  0  0  0  0  0  0
  186.4020  174.6430  136.6010 O   0  0  0  0  0  0  0  0  0  0  0  0
  188.9490  179.0080  137.2990 C   0  0  0  0  0  2  0  0  0  0  0  0
  189.3420  178.0170  138.3760 C   0  0  2  0  0  3  0  0  0  0  0  0
  189.3910  176.6880  137.7820 N   0  0  0  0  0  0  0  0  0  0  0  0
  189.6700  176.9120  136.3730 C   0  0  0  0  0  2  0  0  0  0  0  0
  189.0780  178.2530  135.9990 C   0  0  0  0  0  2  0  0  0  0  0  0
  190.5470  176.0120  138.3430 C   0  0  0  0  0  2  0  0  0  0  0  0
  191.6790  176.0260  137.3400 C   0  0  0  0  0  2  0  0  0  0  0  0
  192.9830  176.3100  138.0540 C   0  0  0  0  0  2  0  0  0  0  0  0
  193.9300  176.7530  137.1310 O   0  0  0  0  0  1  0  0  0  0  0  0
  1  5  1  0  0  0  0
  2 11  1  0  0  0  0
  3  8  2  0  0  0  0
  4 12  1  0  0  0  0
  5  3  1  0  0  0  0
  5  2  2  0  0  0  0
  6 12  2  0  0  0  0
  7  6  1  0  0  0  0
  8  7  1  0  0  0  0
  9  2  1  0  0  0  0
 10 16  1  6  0  0  0
 10  1  1  0  0  0  0
 10  9  1  0  0  0  0
 11  7  2  0  0  0  0
 11 13  1  0  0  0  0
 13  4  2  0  0  0  0
 14 19  1  0  0  0  0
 15 14  1  0  0  0  0
 17 21  1  0  0  0  0
 17 14  2  0  0  0  0
 18 16  1  0  0  0  0
 19 16  2  0  0  0  0
 19 20  1  0  0  0  0
 21 18  2  0  0  0  0
 23 21  1  0  0  0  0
 23 22  1  0  0  0  0
 25 24  1  6  0  0  0
 25  1  1  0  0  0  0
 26 29  1  0  0  0  0
 26 25  1  0  0  0  0
 27 26  1  0  0  0  0
 28 27  1  0  0  0  0
 28 24  1  0  0  0  0
 30 31  1  0  0  0  0
 30 29  1  0  0  0  0
 32 31  1  0  0  0  0
M  END
>  <MODEL>
6

>  <REMARK>
 VINA RESULT:      -6.4      2.153      3.015
  Name = 
  6 active torsions:
  status: ('A' for Active; 'I' for Inactive)
    1  A    between atoms: N_1  and  C_5
    2  A    between atoms: C_13  and  C_18
    3  A    between atoms: N_14  and  C_29
    4  A    between atoms: O_15  and  C_26
    5  A    between atoms: C_16  and  C_27
    6  A    between atoms: C_18  and  C_29
                            x       y       z     vdW  Elec       q    Type
                         _______ _______ _______ _____ _____    ______ ____

>  <TORSDO>
F 6

$$$$
=
 OpenBabel10262421113D

 32 36  0  0  1  0  0  0  0  0999 V2000
  183.4820  177.9000  139.3020 N   0  0  0  0  0  0  0  0  0  0  0  0
  185.5110  178.2430  138.3440 C   0  0  0  0  0  0  0  0  0  0  0  0
  184.2690  176.3860  137.4270 C   0  0  0  0  0  3  0  0  0  0  0  0
  188.7630  178.5820  136.5990 C   0  0  0  0  0  3  0  0  0  0  0  0
  184.4030  177.4510  138.3200 C   0  0  0  0  0  0  0  0  0  0  0  0
  187.5380  176.7020  135.6750 C   0  0  0  0  0  3  0  0  0  0  0  0
  186.4850  176.9490  136.5590 C   0  0  0  0  0  0  0  0  0  0  0  0
  185.3310  176.1370  136.5390 C   0  0  0  0  0  3  0  0  0  0  0  0
  185.3680  179.2270  139.3090 O   0  0  0  0  0  0  0  0  0  0  0  0
  184.0910  179.0670  139.9500 C   0  0  2  0  0  3  0  0  0  0  0  0
  186.5790  178.0280  137.4770 C   0  0  0  0  0  0  0  0  0  0  0  0
  188.6740  177.5170  135.6960 C   0  0  0  0  0  3  0  0  0  0  0  0
  187.7180  178.8400  137.4920 C   0  0  0  0  0  3  0  0  0  0  0  0
  183.3470  178.6660  143.6710 C   0  0  0  0  0  0  0  0  0  0  0  0
  182.3120  178.7870  144.5390 F   0  0  0  0  0  0  0  0  0  0  0  0
  184.2610  178.8170  141.4230 C   0  0  0  0  0  0  0  0  0  0  0  0
  184.5940  178.2550  144.1480 C   0  0  0  0  0  3  0  0  0  0  0  0
  185.5060  178.3960  141.9140 C   0  0  0  0  0  3  0  0  0  0  0  0
  183.1720  178.9460  142.3070 C   0  0  0  0  0  0  0  0  0  0  0  0
  181.8280  179.3730  141.8120 C   0  0  0  0  0  1  0  0  0  0  0  0
  185.6820  178.1180  143.2710 C   0  0  0  0  0  0  0  0  0  0  0  0
  187.2980  177.6860  145.0950 C   0  0  0  0  0  1  0  0  0  0  0  0
  186.9380  177.7030  143.7190 O   0  0  0  0  0  0  0  0  0  0  0  0
  182.0600  175.9850  139.8510 C   0  0  0  0  0  2  0  0  0  0  0  0
  182.1050  177.4590  139.4990 C   0  0  2  0  0  3  0  0  0  0  0  0
  181.3250  177.6650  138.2870 N   0  0  0  0  0  0  0  0  0  0  0  0
  180.3510  176.5850  138.2740 C   0  0  0  0  0  2  0  0  0  0  0  0
  180.9740  175.4020  138.9820 C   0  0  0  0  0  2  0  0  0  0  0  0
  180.5850  178.9030  138.4630 C   0  0  0  0  0  2  0  0  0  0  0  0
  181.1800  179.9790  137.5810 C   0  0  0  0  0  2  0  0  0  0  0  0
  181.4270  181.2250  138.4040 C   0  0  0  0  0  2  0  0  0  0  0  0
  180.3680  181.4120  139.2920 O   0  0  0  0  0  1  0  0  0  0  0  0
  1 10  1  0  0  0  0
  2  9  1  0  0  0  0
  3  5  2  0  0  0  0
  4 13  2  0  0  0  0
  5  2  1  0  0  0  0
  5  1  1  0  0  0  0
  6 12  2  0  0  0  0
  6  7  1  0  0  0  0
  7 11  1  0  0  0  0
  8  7  2  0  0  0  0
  8  3  1  0  0  0  0
  9 10  1  0  0  0  0
 10 16  1  1  0  0  0
 11 13  1  0  0  0  0
 11  2  2  0  0  0  0
 12  4  1  0  0  0  0
 14 17  1  0  0  0  0
 14 15  1  0  0  0  0
 16 18  2  0  0  0  0
 16 19  1  0  0  0  0
 18 21  1  0  0  0  0
 19 14  2  0  0  0  0
 20 19  1  0  0  0  0
 21 23  1  0  0  0  0
 21 17  2  0  0  0  0
 23 22  1  0  0  0  0
 25  1  1  6  0  0  0
 25 24  1  0  0  0  0
 26 29  1  0  0  0  0
 26 25  1  0  0  0  0
 27 26  1  0  0  0  0
 27 28  1  0  0  0  0
 28 24  1  0  0  0  0
 30 31  1  0  0  0  0
 30 29  1  0  0  0  0
 31 32  1  0  0  0  0
M  END
>  <MODEL>
7

>  <REMARK>
 VINA RESULT:      -6.4      4.340      8.540
  Name = 
  6 active torsions:
  status: ('A' for Active; 'I' for Inactive)
    1  A    between atoms: N_1  and  C_5
    2  A    between atoms: C_13  and  C_18
    3  A    between atoms: N_14  and  C_29
    4  A    between atoms: O_15  and  C_26
    5  A    between atoms: C_16  and  C_27
    6  A    between atoms: C_18  and  C_29
                            x       y       z     vdW  Elec       q    Type
                         _______ _______ _______ _____ _____    ______ ____

>  <TORSDO>
F 6

$$$$
=
 OpenBabel10262421113D

 32 36  0  0  1  0  0  0  0  0999 V2000
  185.5400  178.2180  138.6050 N   0  0  0  0  0  0  0  0  0  0  0  0
  184.2460  178.5020  140.4470 C   0  0  0  0  0  0  0  0  0  0  0  0
  186.6210  178.4580  140.8860 C   0  0  0  0  0  3  0  0  0  0  0  0
  182.3780  178.9890  143.6110 C   0  0  0  0  0  3  0  0  0  0  0  0
  185.5320  178.3900  140.0130 C   0  0  0  0  0  0  0  0  0  0  0  0
  184.7600  178.9310  144.0750 C   0  0  0  0  0  3  0  0  0  0  0  0
  185.0240  178.7500  142.7150 C   0  0  0  0  0  0  0  0  0  0  0  0
  186.3520  178.6380  142.2550 C   0  0  0  0  0  3  0  0  0  0  0  0
  183.3760  178.4190  139.3720 O   0  0  0  0  0  0  0  0  0  0  0  0
  184.1400  178.2450  138.1680 C   0  0  2  0  0  3  0  0  0  0  0  0
  183.9450  178.6850  141.7950 C   0  0  0  0  0  0  0  0  0  0  0  0
  183.4390  179.0490  144.5210 C   0  0  0  0  0  3  0  0  0  0  0  0
  182.6270  178.8050  142.2470 C   0  0  0  0  0  3  0  0  0  0  0  0
  182.6570  175.7290  135.7120 C   0  0  0  0  0  0  0  0  0  0  0  0
  181.8540  175.6970  134.6200 F   0  0  0  0  0  0  0  0  0  0  0  0
  183.7790  176.9530  137.4890 C   0  0  0  0  0  0  0  0  0  0  0  0
  183.2020  174.5350  136.1950 C   0  0  0  0  0  3  0  0  0  0  0  0
  184.3250  175.7490  137.9570 C   0  0  0  0  0  3  0  0  0  0  0  0
  182.9450  176.9430  136.3530 C   0  0  0  0  0  0  0  0  0  0  0  0
  182.3640  178.2120  135.8170 C   0  0  0  0  0  1  0  0  0  0  0  0
  184.0390  174.5390  137.3200 C   0  0  0  0  0  0  0  0  0  0  0  0
  185.9560  172.9970  137.5870 C   0  0  0  0  0  1  0  0  0  0  0  0
  184.6020  173.3620  137.8210 O   0  0  0  0  0  0  0  0  0  0  0  0
  186.2830  178.6420  136.3120 C   0  0  0  0  0  2  0  0  0  0  0  0
  186.6950  178.2350  137.7120 C   0  0  2  0  0  3  0  0  0  0  0  0
  187.3070  176.9150  137.6450 N   0  0  0  0  0  0  0  0  0  0  0  0
  187.8360  176.8100  136.2950 C   0  0  0  0  0  2  0  0  0  0  0  0
  186.9590  177.6520  135.3950 C   0  0  0  0  0  2  0  0  0  0  0  0
  188.4440  176.9260  138.5490 C   0  0  0  0  0  2  0  0  0  0  0  0
  189.6280  177.5770  137.8670 C   0  0  0  0  0  2  0  0  0  0  0  0
  190.8680  176.7420  138.1040 C   0  0  0  0  0  2  0  0  0  0  0  0
  190.6060  175.7950  139.0950 O   0  0  0  0  0  1  0  0  0  0  0  0
  1  5  1  0  0  0  0
  2 11  1  0  0  0  0
  3  8  2  0  0  0  0
  4 12  1  0  0  0  0
  5  2  2  0  0  0  0
  5  3  1  0  0  0  0
  6 12  2  0  0  0  0
  7  6  1  0  0  0  0
  8  7  1  0  0  0  0
  9  2  1  0  0  0  0
 10 16  1  1  0  0  0
 10  1  1  0  0  0  0
 10  9  1  0  0  0  0
 11 13  1  0  0  0  0
 11  7  2  0  0  0  0
 13  4  2  0  0  0  0
 14 17  2  0  0  0  0
 14 19  1  0  0  0  0
 15 14  1  0  0  0  0
 16 18  1  0  0  0  0
 17 21  1  0  0  0  0
 19 16  2  0  0  0  0
 20 19  1  0  0  0  0
 21 23  1  0  0  0  0
 21 18  2  0  0  0  0
 22 23  1  0  0  0  0
 25 24  1  6  0  0  0
 25  1  1  0  0  0  0
 26 25  1  0  0  0  0
 26 29  1  0  0  0  0
 27 26  1  0  0  0  0
 28 27  1  0  0  0  0
 28 24  1  0  0  0  0
 30 31  1  0  0  0  0
 30 29  1  0  0  0  0
 31 32  1  0  0  0  0
M  END
>  <MODEL>
8

>  <REMARK>
 VINA RESULT:      -6.2      2.742      4.285
  Name = 
  6 active torsions:
  status: ('A' for Active; 'I' for Inactive)
    1  A    between atoms: N_1  and  C_5
    2  A    between atoms: C_13  and  C_18
    3  A    between atoms: N_14  and  C_29
    4  A    between atoms: O_15  and  C_26
    5  A    between atoms: C_16  and  C_27
    6  A    between atoms: C_18  and  C_29
                            x       y       z     vdW  Elec       q    Type
                         _______ _______ _______ _____ _____    ______ ____

>  <TORSDO>
F 6

$$$$
=
 OpenBabel10262421113D

 32 36  0  0  1  0  0  0  0  0999 V2000
  182.3890  178.0950  140.1270 N   0  0  0  0  0  0  0  0  0  0  0  0
  184.6070  178.2410  139.6680 C   0  0  0  0  0  0  0  0  0  0  0  0
  184.0560  178.3910  142.0140 C   0  0  0  0  0  3  0  0  0  0  0  0
  188.2760  178.4940  139.2050 C   0  0  0  0  0  3  0  0  0  0  0  0
  183.6890  178.2530  140.6740 C   0  0  0  0  0  0  0  0  0  0  0  0
  187.7410  178.6640  141.5670 C   0  0  0  0  0  3  0  0  0  0  0  0
  186.3820  178.5260  141.2730 C   0  0  0  0  0  0  0  0  0  0  0  0
  185.4240  178.5320  142.3080 C   0  0  0  0  0  3  0  0  0  0  0  0
  183.9700  178.0710  138.4490 O   0  0  0  0  0  0  0  0  0  0  0  0
  182.5550  177.9650  138.6750 C   0  0  2  0  0  3  0  0  0  0  0  0
  185.9700  178.3740  139.9220 C   0  0  0  0  0  0  0  0  0  0  0  0
  188.6850  178.6480  140.5340 C   0  0  0  0  0  3  0  0  0  0  0  0
  186.9190  178.3580  138.8960 C   0  0  0  0  0  3  0  0  0  0  0  0
  180.1920  179.8090  136.3140 C   0  0  0  0  0  0  0  0  0  0  0  0
  179.3080  179.5470  135.3190 F   0  0  0  0  0  0  0  0  0  0  0  0
  181.8160  179.0630  137.9630 C   0  0  0  0  0  0  0  0  0  0  0  0
  180.3900  181.1310  136.7210 C   0  0  0  0  0  3  0  0  0  0  0  0
  181.9990  180.3940  138.3670 C   0  0  0  0  0  3  0  0  0  0  0  0
  180.9000  178.7690  136.9340 C   0  0  0  0  0  0  0  0  0  0  0  0
  180.6680  177.3590  136.4940 C   0  0  0  0  0  1  0  0  0  0  0  0
  181.2950  181.4310  137.7510 C   0  0  0  0  0  0  0  0  0  0  0  0
  181.5160  183.8530  137.2940 C   0  0  0  0  0  1  0  0  0  0  0  0
  181.5080  182.7430  138.1820 O   0  0  0  0  0  0  0  0  0  0  0  0
  180.3530  176.7410  140.2240 C   0  0  0  0  0  2  0  0  0  0  0  0
  181.1400  177.8750  140.8490 C   0  0  2  0  0  3  0  0  0  0  0  0
  180.3160  179.0760  140.8190 N   0  0  0  0  0  0  0  0  0  0  0  0
  178.9440  178.5950  140.8120 C   0  0  0  0  0  2  0  0  0  0  0  0
  178.9370  177.2500  140.1190 C   0  0  0  0  0  2  0  0  0  0  0  0
  180.5200  179.7630  142.0830 C   0  0  0  0  0  2  0  0  0  0  0  0
  179.3460  179.4970  143.0000 C   0  0  0  0  0  2  0  0  0  0  0  0
  179.8420  178.8560  144.2790 C   0  0  0  0  0  2  0  0  0  0  0  0
  179.6790  177.4730  144.1980 O   0  0  0  0  0  1  0  0  0  0  0  0
  1  5  1  0  0  0  0
  2 11  2  0  0  0  0
  2  5  1  0  0  0  0
  3  8  1  0  0  0  0
  4 12  1  0  0  0  0
  5  3  2  0  0  0  0
  7  6  1  0  0  0  0
  7  8  2  0  0  0  0
  9 10  1  0  0  0  0
  9  2  1  0  0  0  0
 10 16  1  6  0  0  0
 10  1  1  0  0  0  0
 11  7  1  0  0  0  0
 12  6  2  0  0  0  0
 13  4  2  0  0  0  0
 13 11  1  0  0  0  0
 14 17  2  0  0  0  0
 14 19  1  0  0  0  0
 15 14  1  0  0  0  0
 16 18  1  0  0  0  0
 17 21  1  0  0  0  0
 19 16  2  0  0  0  0
 20 19  1  0  0  0  0
 21 23  1  0  0  0  0
 21 18  2  0  0  0  0
 22 23  1  0  0  0  0
 24 25  1  0  0  0  0
 25  1  1  6  0  0  0
 26 25  1  0  0  0  0
 26 29  1  0  0  0  0
 27 26  1  0  0  0  0
 28 24  1  0  0  0  0
 28 27  1  0  0  0  0
 29 30  1  0  0  0  0
 30 31  1  0  0  0  0
 32 31  1  0  0  0  0
M  END
>  <MODEL>
9

>  <REMARK>
 VINA RESULT:      -6.2      5.586      8.738
  Name = 
  6 active torsions:
  status: ('A' for Active; 'I' for Inactive)
    1  A    between atoms: N_1  and  C_5
    2  A    between atoms: C_13  and  C_18
    3  A    between atoms: N_14  and  C_29
    4  A    between atoms: O_15  and  C_26
    5  A    between atoms: C_16  and  C_27
    6  A    between atoms: C_18  and  C_29
                            x       y       z     vdW  Elec       q    Type
                         _______ _______ _______ _____ _____    ______ ____

>  <TORSDO>
F 6

$$$$
