=
 OpenBabel10262420063D

 27 30  0  0  1  0  0  0  0  0999 V2000
  190.8200  178.2890  142.5290 C   0  0  0  0  0  2  0  0  0  0  0  0
  188.3210  177.9180  142.3720 C   0  0  0  0  0  0  0  0  0  0  0  0
  188.4800  176.8030  144.4980 O   0  0  0  0  0  0  0  0  0  0  0  0
  184.5200  179.6810  143.2290 C   0  0  0  0  0  2  0  0  0  0  0  0
  183.4580  178.7910  143.8240 C   0  0  0  0  0  2  0  0  0  0  0  0
  187.6810  178.7620  141.5220 N   0  0  0  0  0  0  0  0  0  0  0  0
  185.8450  177.6050  145.1990 C   0  0  0  0  0  3  0  0  0  0  0  0
  191.2000  177.3090  146.1220 C   0  0  2  0  0  3  0  0  0  0  0  0
  184.6700  177.8710  145.7780 C   0  0  0  0  0  3  0  0  0  0  0  0
  192.2640  176.7730  146.8450 O   0  0  0  0  0  1  0  0  0  0  0  0
  186.4600  178.1130  143.9430 C   0  0  0  0  0  0  0  0  0  0  0  0
  189.6890  177.3880  142.0240 C   0  0  1  0  0  3  0  0  0  0  0  0
  183.6360  178.8400  145.3190 C   0  0  0  0  0  2  0  0  0  0  0  0
  185.8190  178.9740  143.0090 C   0  0  0  0  0  0  0  0  0  0  0  0
  190.7540  178.4070  143.9820 N   0  0  0  0  0  2  0  0  0  0  0  0
  187.7450  177.6080  143.6170 C   0  0  0  0  0  0  0  0  0  0  0  0
  189.9430  176.4690  146.3810 C   0  0  0  0  0  2  0  0  0  0  0  0
  186.4680  179.2880  141.8160 C   0  0  0  0  0  3  0  0  0  0  0  0
  191.4790  176.1430  144.0350 O   0  0  0  0  0  1  0  0  0  0  0  0
  191.5880  177.4000  144.6440 C   0  0  2  0  0  3  0  0  0  0  0  0
  188.6790  177.1410  145.8650 C   0  0  0  0  0  2  0  0  0  0  0  0
  190.1730  176.3490  137.8790 C   0  0  0  0  0  3  0  0  0  0  0  0
  189.8410  177.0420  140.5730 C   0  0  0  0  0  0  0  0  0  0  0  0
  191.1030  176.6790  140.0900 C   0  0  0  0  0  3  0  0  0  0  0  0
  191.2690  176.3350  138.7450 C   0  0  0  0  0  3  0  0  0  0  0  0
  188.9090  176.7060  138.3560 C   0  0  0  0  0  3  0  0  0  0  0  0
  188.7410  177.0500  139.7000 C   0  0  0  0  0  3  0  0  0  0  0  0
  1 15  1  0  0  0  0
  2 16  1  0  0  0  0
  3 21  1  0  0  0  0
  4  5  1  0  0  0  0
  5 13  1  0  0  0  0
  6 18  1  0  0  0  0
  6  2  2  0  0  0  0
  7  9  2  0  0  0  0
  8 17  1  0  0  0  0
  8 10  1  1  0  0  0
 11  7  1  0  0  0  0
 12 23  1  6  0  0  0
 12  2  1  0  0  0  0
 12  1  1  0  0  0  0
 13  9  1  0  0  0  0
 14  4  1  0  0  0  0
 14 11  1  0  0  0  0
 15 20  1  0  0  0  0
 16 11  2  0  0  0  0
 16  3  1  0  0  0  0
 18 14  2  0  0  0  0
 20 19  1  6  0  0  0
 20  8  1  0  0  0  0
 21 17  1  0  0  0  0
 22 26  2  0  0  0  0
 22 25  1  0  0  0  0
 24 23  1  0  0  0  0
 25 24  2  0  0  0  0
 26 27  1  0  0  0  0
 27 23  2  0  0  0  0
M  END
>  <MODEL>
1

>  <REMARK>
 VINA RESULT:      -8.9      0.000      0.000
  Name = 
  1 active torsions:
  status: ('A' for Active; 'I' for Inactive)
    1  A    between atoms: C_9  and  C_15
                            x       y       z     vdW  Elec       q    Type
                         _______ _______ _______ _____ _____    ______ ____

>  <TORSDO>
F 1

$$$$
=
 OpenBabel10262420063D

 27 30  0  0  1  0  0  0  0  0999 V2000
  186.1170  179.3500  141.1050 C   0  0  0  0  0  2  0  0  0  0  0  0
  185.8620  178.3290  143.4070 C   0  0  0  0  0  0  0  0  0  0  0  0
  187.8150  177.0160  142.9040 O   0  0  0  0  0  0  0  0  0  0  0  0
  186.8810  178.8350  147.5290 C   0  0  0  0  0  2  0  0  0  0  0  0
  187.3250  177.6130  148.2920 C   0  0  0  0  0  2  0  0  0  0  0  0
  185.1250  179.0720  144.2720 N   0  0  0  0  0  0  0  0  0  0  0  0
  188.5690  176.9540  145.6430 C   0  0  0  0  0  3  0  0  0  0  0  0
  189.5460  178.0240  140.3980 C   0  0  2  0  0  3  0  0  0  0  0  0
  189.1560  176.8020  146.8350 C   0  0  0  0  0  3  0  0  0  0  0  0
  190.2080  177.7080  139.2130 O   0  0  0  0  0  1  0  0  0  0  0  0
  187.4080  177.7810  145.2170 C   0  0  0  0  0  0  0  0  0  0  0  0
  185.4710  178.2510  141.9520 C   0  0  1  0  0  3  0  0  0  0  0  0
  188.8160  177.5020  148.1050 C   0  0  0  0  0  2  0  0  0  0  0  0
  186.5900  178.5520  146.0900 C   0  0  0  0  0  0  0  0  0  0  0  0
  187.5720  179.2420  141.1720 N   0  0  0  0  0  2  0  0  0  0  0  0
  187.0400  177.7020  143.8500 C   0  0  0  0  0  0  0  0  0  0  0  0
  189.6620  176.8420  141.3680 C   0  0  0  0  0  2  0  0  0  0  0  0
  185.4650  179.1960  145.5770 C   0  0  0  0  0  3  0  0  0  0  0  0
  187.3230  177.2810  139.8490 O   0  0  0  0  0  1  0  0  0  0  0  0
  188.1030  178.4230  140.0800 C   0  0  2  0  0  3  0  0  0  0  0  0
  189.2190  177.2030  142.7790 C   0  0  0  0  0  2  0  0  0  0  0  0
  181.2130  178.0720  141.3700 C   0  0  0  0  0  3  0  0  0  0  0  0
  183.9890  178.1650  141.7400 C   0  0  0  0  0  0  0  0  0  0  0  0
  183.1350  178.7900  142.6560 C   0  0  0  0  0  3  0  0  0  0  0  0
  181.7490  178.7420  142.4720 C   0  0  0  0  0  3  0  0  0  0  0  0
  182.0610  177.4490  140.4490 C   0  0  0  0  0  3  0  0  0  0  0  0
  183.4460  177.4970  140.6310 C   0  0  0  0  0  3  0  0  0  0  0  0
  1 15  1  0  0  0  0
  1 12  1  0  0  0  0
  2 16  2  0  0  0  0
  2  6  1  0  0  0  0
  3 16  1  0  0  0  0
  4  5  1  0  0  0  0
  6 18  2  0  0  0  0
  7  9  2  0  0  0  0
  8 10  1  6  0  0  0
  8 17  1  0  0  0  0
  9 13  1  0  0  0  0
 11  7  1  0  0  0  0
 11 14  2  0  0  0  0
 12 23  1  1  0  0  0
 12  2  1  0  0  0  0
 13  5  1  0  0  0  0
 14  4  1  0  0  0  0
 16 11  1  0  0  0  0
 17 21  1  0  0  0  0
 18 14  1  0  0  0  0
 20 19  1  1  0  0  0
 20  8  1  0  0  0  0
 20 15  1  0  0  0  0
 21  3  1  0  0  0  0
 22 25  1  0  0  0  0
 23 24  1  0  0  0  0
 25 24  2  0  0  0  0
 26 27  1  0  0  0  0
 26 22  2  0  0  0  0
 27 23  2  0  0  0  0
M  END
>  <MODEL>
2

>  <REMARK>
 VINA RESULT:      -8.2      2.400      5.599
  Name = 
  1 active torsions:
  status: ('A' for Active; 'I' for Inactive)
    1  A    between atoms: C_9  and  C_15
                            x       y       z     vdW  Elec       q    Type
                         _______ _______ _______ _____ _____    ______ ____

>  <TORSDO>
F 1

$$$$
=
 OpenBabel10262420063D

 27 30  0  0  1  0  0  0  0  0999 V2000
  189.0340  178.5220  138.6450 C   0  0  0  0  0  2  0  0  0  0  0  0
  187.0340  178.0260  140.1160 C   0  0  0  0  0  0  0  0  0  0  0  0
  188.5540  176.8720  141.5800 O   0  0  0  0  0  0  0  0  0  0  0  0
  184.6410  179.5700  143.3060 C   0  0  0  0  0  2  0  0  0  0  0  0
  184.2350  178.6140  144.3990 C   0  0  0  0  0  2  0  0  0  0  0  0
  185.9760  178.8550  139.9210 N   0  0  0  0  0  0  0  0  0  0  0  0
  186.9750  177.5210  143.8520 C   0  0  0  0  0  3  0  0  0  0  0  0
  191.6660  177.4800  141.0950 C   0  0  2  0  0  3  0  0  0  0  0  0
  186.4450  177.7130  145.0640 C   0  0  0  0  0  3  0  0  0  0  0  0
  192.9590  176.9830  140.9340 O   0  0  0  0  0  1  0  0  0  0  0  0
  186.6220  178.0880  142.5220 C   0  0  0  0  0  0  0  0  0  0  0  0
  187.8670  177.5750  138.9420 C   0  0  1  0  0  3  0  0  0  0  0  0
  185.3350  178.6380  145.4280 C   0  0  0  0  0  2  0  0  0  0  0  0
  185.5080  178.9360  142.2660 C   0  0  0  0  0  0  0  0  0  0  0  0
  189.9190  178.6030  139.8030 N   0  0  0  0  0  2  0  0  0  0  0  0
  187.4050  177.6580  141.4210 C   0  0  0  0  0  0  0  0  0  0  0  0
  190.8950  176.5710  142.0590 C   0  0  0  0  0  2  0  0  0  0  0  0
  185.2260  179.3100  140.9530 C   0  0  0  0  0  3  0  0  0  0  0  0
  190.5610  176.3780  139.2620 O   0  0  0  0  0  1  0  0  0  0  0  0
  191.0070  177.6250  139.7210 C   0  0  2  0  0  3  0  0  0  0  0  0
  189.5800  177.1880  142.5120 C   0  0  0  0  0  2  0  0  0  0  0  0
  185.5900  176.7280  135.3930 C   0  0  0  0  0  3  0  0  0  0  0  0
  187.0550  177.2710  137.7190 C   0  0  0  0  0  0  0  0  0  0  0  0
  187.1520  178.1210  136.6110 C   0  0  0  0  0  3  0  0  0  0  0  0
  186.4190  177.8510  135.4510 C   0  0  0  0  0  3  0  0  0  0  0  0
  185.4920  175.8730  136.4950 C   0  0  0  0  0  3  0  0  0  0  0  0
  186.2240  176.1410  137.6540 C   0  0  0  0  0  3  0  0  0  0  0  0
  1 12  1  0  0  0  0
  1 15  1  0  0  0  0
  2 16  1  0  0  0  0
  3 21  1  0  0  0  0
  4  5  1  0  0  0  0
  5 13  1  0  0  0  0
  6  2  2  0  0  0  0
  6 18  1  0  0  0  0
  7  9  2  0  0  0  0
  8 10  1  6  0  0  0
  8 17  1  0  0  0  0
  9 13  1  0  0  0  0
 11  7  1  0  0  0  0
 12 23  1  6  0  0  0
 12  2  1  0  0  0  0
 14 11  1  0  0  0  0
 14  4  1  0  0  0  0
 16  3  1  0  0  0  0
 16 11  2  0  0  0  0
 17 21  1  0  0  0  0
 18 14  2  0  0  0  0
 20 19  1  1  0  0  0
 20 15  1  0  0  0  0
 20  8  1  0  0  0  0
 22 25  2  0  0  0  0
 22 26  1  0  0  0  0
 24 23  2  0  0  0  0
 25 24  1  0  0  0  0
 26 27  2  0  0  0  0
 27 23  1  0  0  0  0
M  END
>  <MODEL>
3

>  <REMARK>
 VINA RESULT:      -7.7      2.389      3.695
  Name = 
  1 active torsions:
  status: ('A' for Active; 'I' for Inactive)
    1  A    between atoms: C_9  and  C_15
                            x       y       z     vdW  Elec       q    Type
                         _______ _______ _______ _____ _____    ______ ____

>  <TORSDO>
F 1

$$$$
=
 OpenBabel10262420063D

 27 30  0  0  1  0  0  0  0  0999 V2000
  187.9530  176.5360  143.7050 C   0  0  0  0  0  2  0  0  0  0  0  0
  186.0560  178.1040  143.1140 C   0  0  0  0  0  0  0  0  0  0  0  0
  187.3980  178.8250  141.2520 O   0  0  0  0  0  0  0  0  0  0  0  0
  182.3680  178.3890  140.9690 C   0  0  0  0  0  2  0  0  0  0  0  0
  182.1280  179.6380  140.1580 C   0  0  0  0  0  2  0  0  0  0  0  0
  184.8550  177.7570  143.6450 N   0  0  0  0  0  0  0  0  0  0  0  0
  185.0810  179.3780  139.7010 C   0  0  0  0  0  3  0  0  0  0  0  0
  189.8660  176.9160  140.5090 C   0  0  2  0  0  3  0  0  0  0  0  0
  184.1760  179.6830  138.7660 C   0  0  0  0  0  3  0  0  0  0  0  0
  191.2210  176.7970  140.2020 O   0  0  0  0  0  1  0  0  0  0  0  0
  184.9390  178.7330  141.0350 C   0  0  0  0  0  0  0  0  0  0  0  0
  187.3200  177.9140  143.9150 C   0  0  1  0  0  3  0  0  0  0  0  0
  182.7160  179.3900  138.7940 C   0  0  0  0  0  2  0  0  0  0  0  0
  183.7030  178.3770  141.6430 C   0  0  0  0  0  0  0  0  0  0  0  0
  188.2960  176.3520  142.2980 N   0  0  0  0  0  2  0  0  0  0  0  0
  186.1290  178.5600  141.7870 C   0  0  0  0  0  0  0  0  0  0  0  0
  189.3390  178.2430  139.9520 C   0  0  0  0  0  2  0  0  0  0  0  0
  183.7030  177.8780  142.9440 C   0  0  0  0  0  3  0  0  0  0  0  0
  190.0150  177.9510  142.6770 O   0  0  0  0  0  1  0  0  0  0  0  0
  189.6750  176.7610  142.0200 C   0  0  2  0  0  3  0  0  0  0  0  0
  187.8210  178.3270  139.9890 C   0  0  0  0  0  2  0  0  0  0  0  0
  186.9310  178.8900  148.0860 C   0  0  0  0  0  3  0  0  0  0  0  0
  187.1600  178.2520  145.3670 C   0  0  0  0  0  0  0  0  0  0  0  0
  188.1400  177.8330  146.2740 C   0  0  0  0  0  3  0  0  0  0  0  0
  188.0250  178.1490  147.6310 C   0  0  0  0  0  3  0  0  0  0  0  0
  185.9510  179.3170  147.1840 C   0  0  0  0  0  3  0  0  0  0  0  0
  186.0650  179.0010  145.8270 C   0  0  0  0  0  3  0  0  0  0  0  0
  1 12  1  0  0  0  0
  2  6  1  0  0  0  0
  2 12  1  0  0  0  0
  3 16  1  0  0  0  0
  4 14  1  0  0  0  0
  5  4  1  0  0  0  0
  7 11  1  0  0  0  0
  8 10  1  1  0  0  0
  8 20  1  0  0  0  0
  9 13  1  0  0  0  0
  9  7  2  0  0  0  0
 11 14  2  0  0  0  0
 11 16  1  0  0  0  0
 12 23  1  1  0  0  0
 13  5  1  0  0  0  0
 14 18  1  0  0  0  0
 15  1  1  0  0  0  0
 16  2  2  0  0  0  0
 17 21  1  0  0  0  0
 17  8  1  0  0  0  0
 18  6  2  0  0  0  0
 20 15  1  0  0  0  0
 20 19  1  1  0  0  0
 21  3  1  0  0  0  0
 23 27  2  0  0  0  0
 23 24  1  0  0  0  0
 24 25  2  0  0  0  0
 25 22  1  0  0  0  0
 26 22  2  0  0  0  0
 27 26  1  0  0  0  0
M  END
>  <MODEL>
4

>  <REMARK>
 VINA RESULT:      -7.7      2.521      5.702
  Name = 
  1 active torsions:
  status: ('A' for Active; 'I' for Inactive)
    1  A    between atoms: C_9  and  C_15
                            x       y       z     vdW  Elec       q    Type
                         _______ _______ _______ _____ _____    ______ ____

>  <TORSDO>
F 1

$$$$
=
 OpenBabel10262420063D

 27 30  0  0  1  0  0  0  0  0999 V2000
  187.5700  179.3110  141.7190 C   0  0  0  0  0  2  0  0  0  0  0  0
  188.0670  177.7920  143.6810 C   0  0  0  0  0  0  0  0  0  0  0  0
  189.2900  176.4080  142.1400 O   0  0  0  0  0  0  0  0  0  0  0  0
  190.7820  177.1280  146.9180 C   0  0  0  0  0  2  0  0  0  0  0  0
  191.2170  175.7090  147.1830 C   0  0  0  0  0  2  0  0  0  0  0  0
  187.9390  178.3850  144.8960 N   0  0  0  0  0  0  0  0  0  0  0  0
  191.0740  175.5730  144.1890 C   0  0  0  0  0  3  0  0  0  0  0  0
  190.0090  177.7760  139.3290 C   0  0  2  0  0  3  0  0  0  0  0  0
  192.0500  175.0570  144.9430 C   0  0  0  0  0  3  0  0  0  0  0  0
  190.0340  177.6820  137.9380 O   0  0  0  0  0  1  0  0  0  0  0  0
  190.0570  176.6210  144.4780 C   0  0  0  0  0  0  0  0  0  0  0  0
  187.1030  178.1270  142.5710 C   0  0  1  0  0  3  0  0  0  0  0  0
  192.4300  175.4580  146.3260 C   0  0  0  0  0  2  0  0  0  0  0  0
  189.8680  177.2500  145.7410 C   0  0  0  0  0  0  0  0  0  0  0  0
  188.8580  179.0060  141.1020 N   0  0  0  0  0  2  0  0  0  0  0  0
  189.1500  176.9300  143.4330 C   0  0  0  0  0  0  0  0  0  0  0  0
  190.2480  176.3860  139.9300 C   0  0  0  0  0  2  0  0  0  0  0  0
  188.8070  178.1380  145.9060 C   0  0  0  0  0  3  0  0  0  0  0  0
  187.6540  177.4820  139.7290 O   0  0  0  0  0  1  0  0  0  0  0  0
  188.6930  178.4220  139.7680 C   0  0  2  0  0  3  0  0  0  0  0  0
  190.5200  176.4400  141.4260 C   0  0  0  0  0  2  0  0  0  0  0  0
  183.0660  178.6280  143.9680 C   0  0  0  0  0  3  0  0  0  0  0  0
  185.6880  178.2860  143.0400 C   0  0  0  0  0  0  0  0  0  0  0  0
  185.4410  178.4530  144.4070 C   0  0  0  0  0  3  0  0  0  0  0  0
  184.1330  178.6210  144.8710 C   0  0  0  0  0  3  0  0  0  0  0  0
  183.3070  178.4670  142.6000 C   0  0  0  0  0  3  0  0  0  0  0  0
  184.6140  178.2990  142.1360 C   0  0  0  0  0  3  0  0  0  0  0  0
  1 12  1  0  0  0  0
  2  6  1  0  0  0  0
  3 16  1  0  0  0  0
  4  5  1  0  0  0  0
  6 18  2  0  0  0  0
  7 11  1  0  0  0  0
  7  9  2  0  0  0  0
  8 10  1  6  0  0  0
  8 20  1  0  0  0  0
  8 17  1  0  0  0  0
  9 13  1  0  0  0  0
 11 14  2  0  0  0  0
 12 23  1  1  0  0  0
 12  2  1  0  0  0  0
 13  5  1  0  0  0  0
 14 18  1  0  0  0  0
 14  4  1  0  0  0  0
 15  1  1  0  0  0  0
 16  2  2  0  0  0  0
 16 11  1  0  0  0  0
 17 21  1  0  0  0  0
 20 19  1  1  0  0  0
 20 15  1  0  0  0  0
 21  3  1  0  0  0  0
 22 25  1  0  0  0  0
 23 24  1  0  0  0  0
 24 25  2  0  0  0  0
 26 22  2  0  0  0  0
 27 26  1  0  0  0  0
 27 23  2  0  0  0  0
M  END
>  <MODEL>
5

>  <REMARK>
 VINA RESULT:      -7.5      2.145      6.249
  Name = 
  1 active torsions:
  status: ('A' for Active; 'I' for Inactive)
    1  A    between atoms: C_9  and  C_15
                            x       y       z     vdW  Elec       q    Type
                         _______ _______ _______ _____ _____    ______ ____

>  <TORSDO>
F 1

$$$$
=
 OpenBabel10262420063D

 27 30  0  0  1  0  0  0  0  0999 V2000
  186.6770  179.1690  140.0180 C   0  0  0  0  0  2  0  0  0  0  0  0
  185.7060  178.4780  142.2510 C   0  0  0  0  0  0  0  0  0  0  0  0
  187.5920  177.0010  142.4730 O   0  0  0  0  0  0  0  0  0  0  0  0
  185.5950  179.4690  146.4100 C   0  0  0  0  0  2  0  0  0  0  0  0
  185.6980  178.3350  147.3980 C   0  0  0  0  0  2  0  0  0  0  0  0
  184.8320  179.3710  142.7820 N   0  0  0  0  0  0  0  0  0  0  0  0
  187.5560  177.2600  145.3030 C   0  0  0  0  0  3  0  0  0  0  0  0
  190.0310  177.5670  140.4660 C   0  0  2  0  0  3  0  0  0  0  0  0
  187.7760  177.2340  146.6210 C   0  0  0  0  0  3  0  0  0  0  0  0
  190.9610  177.0590  139.5610 O   0  0  0  0  0  1  0  0  0  0  0  0
  186.6380  178.0880  144.4750 C   0  0  0  0  0  0  0  0  0  0  0  0
  185.7240  178.2310  140.7630 C   0  0  1  0  0  3  0  0  0  0  0  0
  187.1660  178.1150  147.6560 C   0  0  0  0  0  2  0  0  0  0  0  0
  185.6860  179.0140  144.9870 C   0  0  0  0  0  0  0  0  0  0  0  0
  188.0410  178.9880  140.5070 N   0  0  0  0  0  2  0  0  0  0  0  0
  186.6540  177.8490  143.0770 C   0  0  0  0  0  0  0  0  0  0  0  0
  189.7660  176.5200  141.5550 C   0  0  0  0  0  2  0  0  0  0  0  0
  184.8100  179.6470  144.1080 C   0  0  0  0  0  3  0  0  0  0  0  0
  187.9860  176.8870  139.3940 O   0  0  0  0  0  1  0  0  0  0  0  0
  188.7740  178.0020  139.7090 C   0  0  2  0  0  3  0  0  0  0  0  0
  188.9880  177.0890  142.7320 C   0  0  0  0  0  2  0  0  0  0  0  0
  181.8290  178.1710  138.9400 C   0  0  0  0  0  3  0  0  0  0  0  0
  184.3560  178.2030  140.1490 C   0  0  0  0  0  0  0  0  0  0  0  0
  184.0390  179.1350  139.1550 C   0  0  0  0  0  3  0  0  0  0  0  0
  182.7770  179.1210  138.5530 C   0  0  0  0  0  3  0  0  0  0  0  0
  182.1410  177.2340  139.9300 C   0  0  0  0  0  3  0  0  0  0  0  0
  183.4020  177.2470  140.5320 C   0  0  0  0  0  3  0  0  0  0  0  0
  1 15  1  0  0  0  0
  1 12  1  0  0  0  0
  2  6  2  0  0  0  0
  2 16  1  0  0  0  0
  3 21  1  0  0  0  0
  3 16  1  0  0  0  0
  4  5  1  0  0  0  0
  5 13  1  0  0  0  0
  6 18  1  0  0  0  0
  7  9  2  0  0  0  0
  8 10  1  6  0  0  0
  8 17  1  0  0  0  0
  9 13  1  0  0  0  0
 11 14  1  0  0  0  0
 11  7  1  0  0  0  0
 12 23  1  6  0  0  0
 12  2  1  0  0  0  0
 14  4  1  0  0  0  0
 16 11  2  0  0  0  0
 17 21  1  0  0  0  0
 18 14  2  0  0  0  0
 20 19  1  1  0  0  0
 20  8  1  0  0  0  0
 20 15  1  0  0  0  0
 22 26  1  0  0  0  0
 23 27  1  0  0  0  0
 24 23  2  0  0  0  0
 25 22  2  0  0  0  0
 25 24  1  0  0  0  0
 26 27  2  0  0  0  0
M  END
>  <MODEL>
6

>  <REMARK>
 VINA RESULT:      -7.4      2.723      4.975
  Name = 
  1 active torsions:
  status: ('A' for Active; 'I' for Inactive)
    1  A    between atoms: C_9  and  C_15
                            x       y       z     vdW  Elec       q    Type
                         _______ _______ _______ _____ _____    ______ ____

>  <TORSDO>
F 1

$$$$
=
 OpenBabel10262420063D

 27 30  0  0  1  0  0  0  0  0999 V2000
  183.6860  179.7610  143.7310 C   0  0  0  0  0  2  0  0  0  0  0  0
  184.7460  178.3480  141.9190 C   0  0  0  0  0  0  0  0  0  0  0  0
  182.5410  177.5000  141.4640 O   0  0  0  0  0  0  0  0  0  0  0  0
  185.9350  178.3440  137.8110 C   0  0  0  0  0  2  0  0  0  0  0  0
  185.6300  177.1110  136.9990 C   0  0  0  0  0  2  0  0  0  0  0  0
  185.9540  178.7980  141.4920 N   0  0  0  0  0  0  0  0  0  0  0  0
  183.1720  177.1240  138.7190 C   0  0  0  0  0  3  0  0  0  0  0  0
  180.1250  179.1940  142.7240 C   0  0  2  0  0  3  0  0  0  0  0  0
  183.1970  176.8840  137.4030 C   0  0  0  0  0  3  0  0  0  0  0  0
  178.9310  179.1980  143.4430 O   0  0  0  0  0  1  0  0  0  0  0  0
  184.1540  177.7920  139.6160 C   0  0  0  0  0  0  0  0  0  0  0  0
  184.3780  178.4410  143.3790 C   0  0  1  0  0  3  0  0  0  0  0  0
  184.2470  177.2960  136.4310 C   0  0  0  0  0  2  0  0  0  0  0  0
  185.4400  178.2540  139.2200 C   0  0  0  0  0  0  0  0  0  0  0  0
  182.4550  179.9020  142.9600 N   0  0  0  0  0  2  0  0  0  0  0  0
  183.8050  177.8740  140.9880 C   0  0  0  0  0  0  0  0  0  0  0  0
  180.2070  177.9080  141.8920 C   0  0  0  0  0  2  0  0  0  0  0  0
  186.3070  178.7640  140.1840 C   0  0  0  0  0  3  0  0  0  0  0  0
  181.5860  178.1710  144.3420 O   0  0  0  0  0  1  0  0  0  0  0  0
  181.2970  179.3790  143.6910 C   0  0  2  0  0  3  0  0  0  0  0  0
  181.3310  177.9500  140.8680 C   0  0  0  0  0  2  0  0  0  0  0  0
  187.6070  177.5470  146.0760 C   0  0  0  0  0  3  0  0  0  0  0  0
  185.5190  178.1320  144.3000 C   0  0  0  0  0  0  0  0  0  0  0  0
  185.4450  178.5440  145.6360 C   0  0  0  0  0  3  0  0  0  0  0  0
  186.4870  178.2540  146.5210 C   0  0  0  0  0  3  0  0  0  0  0  0
  187.6850  177.1280  144.7440 C   0  0  0  0  0  3  0  0  0  0  0  0
  186.6440  177.4170  143.8590 C   0  0  0  0  0  3  0  0  0  0  0  0
  2 12  1  0  0  0  0
  4 14  1  0  0  0  0
  5  4  1  0  0  0  0
  6  2  1  0  0  0  0
  7 11  1  0  0  0  0
  8 10  1  1  0  0  0
  8 20  1  0  0  0  0
  9  7  2  0  0  0  0
 11 16  1  0  0  0  0
 12  1  1  0  0  0  0
 12 23  1  1  0  0  0
 13  5  1  0  0  0  0
 13  9  1  0  0  0  0
 14 11  2  0  0  0  0
 14 18  1  0  0  0  0
 15 20  1  0  0  0  0
 15  1  1  0  0  0  0
 16  3  1  0  0  0  0
 16  2  2  0  0  0  0
 17  8  1  0  0  0  0
 18  6  2  0  0  0  0
 20 19  1  6  0  0  0
 21  3  1  0  0  0  0
 21 17  1  0  0  0  0
 22 25  1  0  0  0  0
 23 24  1  0  0  0  0
 24 25  2  0  0  0  0
 26 22  2  0  0  0  0
 27 23  2  0  0  0  0
 27 26  1  0  0  0  0
M  END
>  <MODEL>
7

>  <REMARK>
 VINA RESULT:      -7.2      4.262      7.804
  Name = 
  1 active torsions:
  status: ('A' for Active; 'I' for Inactive)
    1  A    between atoms: C_9  and  C_15
                            x       y       z     vdW  Elec       q    Type
                         _______ _______ _______ _____ _____    ______ ____

>  <TORSDO>
F 1

$$$$
=
 OpenBabel10262420063D

 27 30  0  0  1  0  0  0  0  0999 V2000
  183.6040  179.1670  139.1780 C   0  0  0  0  0  2  0  0  0  0  0  0
  183.5170  178.2280  141.5270 C   0  0  0  0  0  0  0  0  0  0  0  0
  185.8160  177.5890  141.2220 O   0  0  0  0  0  0  0  0  0  0  0  0
  184.0160  179.2300  145.6540 C   0  0  0  0  0  2  0  0  0  0  0  0
  184.7670  178.2520  146.5220 C   0  0  0  0  0  2  0  0  0  0  0  0
  182.5200  178.7360  142.2970 N   0  0  0  0  0  0  0  0  0  0  0  0
  186.3470  177.9010  143.9960 C   0  0  0  0  0  3  0  0  0  0  0  0
  187.3190  178.9780  138.7520 C   0  0  2  0  0  3  0  0  0  0  0  0
  186.8630  178.0020  145.2260 C   0  0  0  0  0  3  0  0  0  0  0  0
  188.1320  178.8350  137.6290 O   0  0  0  0  0  1  0  0  0  0  0  0
  185.0180  178.2910  143.4520 C   0  0  0  0  0  0  0  0  0  0  0  0
  183.2780  177.9600  140.0610 C   0  0  1  0  0  3  0  0  0  0  0  0
  186.2260  178.6160  146.4240 C   0  0  0  0  0  2  0  0  0  0  0  0
  183.9360  178.8000  144.2230 C   0  0  0  0  0  0  0  0  0  0  0  0
  185.0080  179.5340  139.3310 N   0  0  0  0  0  2  0  0  0  0  0  0
  184.7960  178.0330  142.0750 C   0  0  0  0  0  0  0  0  0  0  0  0
  187.7310  177.9430  139.8060 C   0  0  0  0  0  2  0  0  0  0  0  0
  182.7070  179.0240  143.6070 C   0  0  0  0  0  3  0  0  0  0  0  0
  185.4920  177.5370  138.1340 O   0  0  0  0  0  1  0  0  0  0  0  0
  185.8510  178.8780  138.3280 C   0  0  2  0  0  3  0  0  0  0  0  0
  187.0940  178.2100  141.1610 C   0  0  0  0  0  2  0  0  0  0  0  0
  179.3930  176.2850  139.2860 C   0  0  0  0  0  3  0  0  0  0  0  0
  181.9200  177.3940  139.7750 C   0  0  0  0  0  0  0  0  0  0  0  0
  181.7410  176.0060  139.8080 C   0  0  0  0  0  3  0  0  0  0  0  0
  180.4810  175.4530  139.5620 C   0  0  0  0  0  3  0  0  0  0  0  0
  179.5640  177.6720  139.2560 C   0  0  0  0  0  3  0  0  0  0  0  0
  180.8230  178.2270  139.5020 C   0  0  0  0  0  3  0  0  0  0  0  0
  1 15  1  0  0  0  0
  1 12  1  0  0  0  0
  2 16  2  0  0  0  0
  2  6  1  0  0  0  0
  3 16  1  0  0  0  0
  4  5  1  0  0  0  0
  6 18  2  0  0  0  0
  7  9  2  0  0  0  0
  8 10  1  6  0  0  0
  8 17  1  0  0  0  0
  9 13  1  0  0  0  0
 11  7  1  0  0  0  0
 11 14  2  0  0  0  0
 12 23  1  1  0  0  0
 12  2  1  0  0  0  0
 13  5  1  0  0  0  0
 14  4  1  0  0  0  0
 16 11  1  0  0  0  0
 17 21  1  0  0  0  0
 18 14  1  0  0  0  0
 20 19  1  1  0  0  0
 20  8  1  0  0  0  0
 20 15  1  0  0  0  0
 21  3  1  0  0  0  0
 22 25  1  0  0  0  0
 23 24  1  0  0  0  0
 25 24  2  0  0  0  0
 26 22  2  0  0  0  0
 26 27  1  0  0  0  0
 27 23  2  0  0  0  0
M  END
>  <MODEL>
8

>  <REMARK>
 VINA RESULT:      -7.0      3.947      6.789
  Name = 
  1 active torsions:
  status: ('A' for Active; 'I' for Inactive)
    1  A    between atoms: C_9  and  C_15
                            x       y       z     vdW  Elec       q    Type
                         _______ _______ _______ _____ _____    ______ ____

>  <TORSDO>
F 1

$$$$
=
 OpenBabel10262420063D

 27 30  0  0  1  0  0  0  0  0999 V2000
  187.7540  176.5290  143.4810 C   0  0  0  0  0  2  0  0  0  0  0  0
  188.7910  177.2430  141.2850 C   0  0  0  0  0  0  0  0  0  0  0  0
  190.6780  178.0040  142.5690 O   0  0  0  0  0  0  0  0  0  0  0  0
  191.1730  175.8880  138.0030 C   0  0  0  0  0  2  0  0  0  0  0  0
  192.2510  176.8120  137.4960 C   0  0  0  0  0  2  0  0  0  0  0  0
  188.2730  176.6250  140.1930 N   0  0  0  0  0  0  0  0  0  0  0  0
  192.4540  177.4600  140.4180 C   0  0  0  0  0  3  0  0  0  0  0  0
  190.8290  176.9130  145.5820 C   0  0  2  0  0  3  0  0  0  0  0  0
  193.4890  177.2690  139.5920 C   0  0  0  0  0  3  0  0  0  0  0  0
  191.0160  177.1930  146.9340 O   0  0  0  0  0  1  0  0  0  0  0  0
  191.0230  177.0660  140.3100 C   0  0  0  0  0  0  0  0  0  0  0  0
  187.8910  177.6350  142.4310 C   0  0  1  0  0  3  0  0  0  0  0  0
  193.4890  176.5210  138.3040 C   0  0  0  0  0  2  0  0  0  0  0  0
  190.4310  176.4430  139.1760 C   0  0  0  0  0  0  0  0  0  0  0  0
  189.0620  176.2090  144.0440 N   0  0  0  0  0  2  0  0  0  0  0  0
  190.1790  177.4400  141.3870 C   0  0  0  0  0  0  0  0  0  0  0  0
  191.6960  177.8630  144.7470 C   0  0  0  0  0  2  0  0  0  0  0  0
  189.0540  176.2250  139.1610 C   0  0  0  0  0  3  0  0  0  0  0  0
  188.9360  178.3260  145.1190 O   0  0  0  0  0  1  0  0  0  0  0  0
  189.3350  176.9900  145.2530 C   0  0  2  0  0  3  0  0  0  0  0  0
  191.7720  177.4460  143.2860 C   0  0  0  0  0  2  0  0  0  0  0  0
  184.0660  179.1850  141.2210 C   0  0  0  0  0  3  0  0  0  0  0  0
  186.5610  178.1670  141.9860 C   0  0  0  0  0  0  0  0  0  0  0  0
  185.4910  178.1580  142.8870 C   0  0  0  0  0  3  0  0  0  0  0  0
  184.2450  178.6640  142.5050 C   0  0  0  0  0  3  0  0  0  0  0  0
  185.1330  179.2010  140.3170 C   0  0  0  0  0  3  0  0  0  0  0  0
  186.3780  178.6960  140.6990 C   0  0  0  0  0  3  0  0  0  0  0  0
  1 15  1  0  0  0  0
  2 16  1  0  0  0  0
  2 12  1  0  0  0  0
  3 21  1  0  0  0  0
  4 14  1  0  0  0  0
  5  4  1  0  0  0  0
  5 13  1  0  0  0  0
  6  2  2  0  0  0  0
  8 10  1  1  0  0  0
  9  7  2  0  0  0  0
 11  7  1  0  0  0  0
 11 16  2  0  0  0  0
 12 23  1  6  0  0  0
 12  1  1  0  0  0  0
 13  9  1  0  0  0  0
 14 11  1  0  0  0  0
 15 20  1  0  0  0  0
 16  3  1  0  0  0  0
 17  8  1  0  0  0  0
 18 14  2  0  0  0  0
 18  6  1  0  0  0  0
 20 19  1  6  0  0  0
 20  8  1  0  0  0  0
 21 17  1  0  0  0  0
 22 25  1  0  0  0  0
 23 24  1  0  0  0  0
 25 24  2  0  0  0  0
 26 27  1  0  0  0  0
 26 22  2  0  0  0  0
 27 23  2  0  0  0  0
M  END
>  <MODEL>
9

>  <REMARK>
 VINA RESULT:      -6.9      1.602      5.949
  Name = 
  1 active torsions:
  status: ('A' for Active; 'I' for Inactive)
    1  A    between atoms: C_9  and  C_15
                            x       y       z     vdW  Elec       q    Type
                         _______ _______ _______ _____ _____    ______ ____

>  <TORSDO>
F 1

$$$$
