=
 OpenBabel10262420003D

 27 31  0  0  1  0  0  0  0  0999 V2000
  190.9400  177.6280  139.4860 C   0  0  0  0  0  2  0  0  0  0  0  0
  188.5430  178.0180  138.7840 C   0  0  2  0  0  3  0  0  0  0  0  0
  188.9790  175.7170  137.9070 C   0  0  0  0  0  2  0  0  0  0  0  0
  189.0790  179.0620  137.7850 C   0  0  0  0  0  2  0  0  0  0  0  0
  192.3130  175.6090  136.0370 C   0  0  0  0  0  2  0  0  0  0  0  0
  193.2140  175.9910  137.1760 C   0  0  0  0  0  0  0  0  0  0  0  0
  187.2060  177.0150  136.9230 C   0  0  1  0  0  3  0  0  0  0  0  0
  189.5190  177.7010  139.8350 N   0  0  0  0  0  0  0  0  0  0  0  0
  187.0150  178.4400  136.6460 N   0  0  0  0  0  2  0  0  0  0  0  0
  191.2600  176.3600  138.7000 C   0  0  2  0  0  3  0  0  0  0  0  0
  188.0000  176.7900  138.1510 N   0  0  2  0  0  0  0  0  0  0  0  0
  190.9420  175.1560  136.5220 C   0  0  0  0  0  2  0  0  0  0  0  0
  188.3330  179.0260  136.4600 C   0  0  0  0  0  2  0  0  0  0  0  0
  194.5870  176.0120  136.9710 O   0  0  0  0  0  1  0  0  0  0  0  0
  192.7280  176.3720  138.3620 C   0  0  0  0  0  3  0  0  0  0  0  0
  190.3570  176.2020  137.4610 C   0  0  1  0  0  3  0  0  0  0  0  0
  188.2030  176.5820  143.7220 C   0  0  0  0  0  3  0  0  0  0  0  0
  189.0730  177.3210  141.1520 C   0  0  0  0  0  0  0  0  0  0  0  0
  189.8090  176.4040  141.9210 C   0  0  0  0  0  3  0  0  0  0  0  0
  189.3770  176.0370  143.1990 C   0  0  0  0  0  3  0  0  0  0  0  0
  187.4610  177.4950  142.9700 C   0  0  0  0  0  3  0  0  0  0  0  0
  187.8940  177.8630  141.6920 C   0  0  0  0  0  3  0  0  0  0  0  0
  185.8430  176.3130  137.0310 C   0  0  2  0  0  3  0  0  0  0  0  0
  185.6920  175.2960  135.9070 C   0  0  0  0  0  1  0  0  0  0  0  0
  184.4670  177.7300  138.3260 C   0  0  0  0  0  2  0  0  0  0  0  0
  183.6100  176.7380  137.6990 C   0  0  0  0  0  2  0  0  0  0  0  0
  184.7560  177.2850  136.9510 N   0  0  0  0  0  0  0  0  0  0  0  0
  1  8  1  0  0  0  0
  2  4  1  6  0  0  0
  2  8  1  0  0  0  0
  5 12  1  0  0  0  0
  5  6  1  0  0  0  0
  6 15  2  0  0  0  0
  7 23  1  1  0  0  0
  7 11  1  0  0  0  0
  8 18  1  0  0  0  0
  9  7  1  0  0  0  0
 10 15  1  6  0  0  0
 10  1  1  0  0  0  0
 11  3  1  6  0  0  0
 11  2  1  0  0  0  0
 13  9  1  0  0  0  0
 13  4  1  0  0  0  0
 14  6  1  0  0  0  0
 16 12  1  6  0  0  0
 16  3  1  0  0  0  0
 16 10  1  0  0  0  0
 18 22  2  0  0  0  0
 18 19  1  0  0  0  0
 19 20  2  0  0  0  0
 20 17  1  0  0  0  0
 21 17  2  0  0  0  0
 22 21  1  0  0  0  0
 23 24  1  6  0  0  0
 26 25  1  0  0  0  0
 27 23  1  0  0  0  0
 27 26  1  0  0  0  0
 27 25  1  0  0  0  0
M  END
>  <MODEL>
1

>  <REMARK>
 VINA RESULT:      -6.7      0.000      0.000
  Name = 
  3 active torsions:
  status: ('A' for Active; 'I' for Inactive)
    1  A    between atoms: C_8  and  C_14
    2  A    between atoms: C_8  and  N_16
    3  A    between atoms: C_9  and  N_15
                            x       y       z     vdW  Elec       q    Type
                         _______ _______ _______ _____ _____    ______ ____

>  <TORSDO>
F 3

$$$$
=
 OpenBabel10262420003D

 27 31  0  0  1  0  0  0  0  0999 V2000
  184.5550  179.2540  139.6040 C   0  0  0  0  0  2  0  0  0  0  0  0
  182.0790  178.8730  139.9440 C   0  0  2  0  0  3  0  0  0  0  0  0
  182.8640  176.6110  139.2220 C   0  0  0  0  0  2  0  0  0  0  0  0
  181.8450  179.7580  138.7040 C   0  0  0  0  0  2  0  0  0  0  0  0
  185.1110  176.8950  136.1410 C   0  0  0  0  0  2  0  0  0  0  0  0
  186.1990  177.7370  136.7430 C   0  0  0  0  0  0  0  0  0  0  0  0
  180.5390  177.1730  138.9450 C   0  0  1  0  0  3  0  0  0  0  0  0
  183.4220  179.0550  140.5110 N   0  0  0  0  0  0  0  0  0  0  0  0
  179.8180  178.4060  138.6210 N   0  0  0  0  0  2  0  0  0  0  0  0
  184.9450  177.9570  138.9000 C   0  0  2  0  0  3  0  0  0  0  0  0
  181.7600  177.4380  139.7380 N   0  0  2  0  0  0  0  0  0  0  0  0
  184.2390  176.2450  137.2070 C   0  0  0  0  0  2  0  0  0  0  0  0
  180.7110  179.2370  137.8320 C   0  0  0  0  0  2  0  0  0  0  0  0
  187.3140  178.0460  135.9750 O   0  0  0  0  0  1  0  0  0  0  0  0
  186.0960  178.2490  137.9730 C   0  0  0  0  0  3  0  0  0  0  0  0
  183.7460  177.3020  138.1850 C   0  0  1  0  0  3  0  0  0  0  0  0
  184.0740  178.5720  144.6860 C   0  0  0  0  0  3  0  0  0  0  0  0
  183.6440  178.8900  141.9260 C   0  0  0  0  0  0  0  0  0  0  0  0
  184.9340  178.6480  142.4260 C   0  0  0  0  0  3  0  0  0  0  0  0
  185.1480  178.4890  143.7980 C   0  0  0  0  0  3  0  0  0  0  0  0
  182.7860  178.8130  144.2040 C   0  0  0  0  0  3  0  0  0  0  0  0
  182.5720  178.9720  142.8320 C   0  0  0  0  0  3  0  0  0  0  0  0
  179.6130  176.2040  139.6960 C   0  0  2  0  0  3  0  0  0  0  0  0
  179.6090  176.5380  141.1830 C   0  0  0  0  0  1  0  0  0  0  0  0
  180.0020  174.5370  138.0690 C   0  0  0  0  0  2  0  0  0  0  0  0
  178.9310  174.0670  138.9330 C   0  0  0  0  0  2  0  0  0  0  0  0
  180.0550  174.8240  139.5140 N   0  0  0  0  0  0  0  0  0  0  0  0
  1  8  1  0  0  0  0
  2  4  1  6  0  0  0
  2  8  1  0  0  0  0
  5  6  1  0  0  0  0
  5 12  1  0  0  0  0
  6 15  2  0  0  0  0
  7 23  1  1  0  0  0
  7 11  1  0  0  0  0
  8 18  1  0  0  0  0
  9  7  1  0  0  0  0
 10 15  1  6  0  0  0
 10  1  1  0  0  0  0
 11  3  1  6  0  0  0
 11  2  1  0  0  0  0
 13  9  1  0  0  0  0
 13  4  1  0  0  0  0
 14  6  1  0  0  0  0
 16 12  1  6  0  0  0
 16 10  1  0  0  0  0
 16  3  1  0  0  0  0
 18 19  2  0  0  0  0
 18 22  1  0  0  0  0
 19 20  1  0  0  0  0
 20 17  2  0  0  0  0
 21 17  1  0  0  0  0
 22 21  2  0  0  0  0
 23 24  1  1  0  0  0
 25 26  1  0  0  0  0
 25 27  1  0  0  0  0
 26 27  1  0  0  0  0
 27 23  1  0  0  0  0
M  END
>  <MODEL>
2

>  <REMARK>
 VINA RESULT:      -6.4      4.589      6.510
  Name = 
  3 active torsions:
  status: ('A' for Active; 'I' for Inactive)
    1  A    between atoms: C_8  and  C_14
    2  A    between atoms: C_8  and  N_16
    3  A    between atoms: C_9  and  N_15
                            x       y       z     vdW  Elec       q    Type
                         _______ _______ _______ _____ _____    ______ ____

>  <TORSDO>
F 3

$$$$
=
 OpenBabel10262420003D

 27 31  0  0  1  0  0  0  0  0999 V2000
  188.3060  178.6400  141.5080 C   0  0  0  0  0  2  0  0  0  0  0  0
  190.5340  178.1350  142.5910 C   0  0  2  0  0  3  0  0  0  0  0  0
  189.0220  176.4890  143.7110 C   0  0  0  0  0  2  0  0  0  0  0  0
  190.4220  179.5020  143.2950 C   0  0  0  0  0  2  0  0  0  0  0  0
  185.8190  178.2090  144.8980 C   0  0  0  0  0  2  0  0  0  0  0  0
  185.3110  178.6680  143.5610 C   0  0  0  0  0  0  0  0  0  0  0  0
  191.0740  177.1080  144.8070 C   0  0  1  0  0  3  0  0  0  0  0  0
  189.6370  178.0310  141.4330 N   0  0  0  0  0  0  0  0  0  0  0  0
  191.8550  178.3450  144.8920 N   0  0  0  0  0  2  0  0  0  0  0  0
  187.3700  177.8340  142.4040 C   0  0  2  0  0  3  0  0  0  0  0  0
  190.3980  176.9690  143.4980 N   0  0  2  0  0  0  0  0  0  0  0  0
  186.8830  177.1280  144.7620 C   0  0  0  0  0  2  0  0  0  0  0  0
  190.9300  179.4540  144.7290 C   0  0  0  0  0  2  0  0  0  0  0  0
  184.0810  179.3080  143.4920 O   0  0  0  0  0  1  0  0  0  0  0  0
  186.0370  178.5350  142.4470 C   0  0  0  0  0  3  0  0  0  0  0  0
  187.9710  177.5930  143.8030 C   0  0  1  0  0  3  0  0  0  0  0  0
  190.7100  175.6260  138.0930 C   0  0  0  0  0  3  0  0  0  0  0  0
  190.0000  177.2150  140.3010 C   0  0  0  0  0  0  0  0  0  0  0  0
  189.0260  176.7930  139.3810 C   0  0  0  0  0  3  0  0  0  0  0  0
  189.3790  176.0030  138.2830 C   0  0  0  0  0  3  0  0  0  0  0  0
  191.6890  176.0390  139.0000 C   0  0  0  0  0  3  0  0  0  0  0  0
  191.3360  176.8300  140.0970 C   0  0  0  0  0  3  0  0  0  0  0  0
  191.9800  175.8960  145.0720 C   0  0  2  0  0  3  0  0  0  0  0  0
  191.8590  174.8970  143.9280 C   0  0  0  0  0  1  0  0  0  0  0  0
  191.3170  176.3040  147.3030 C   0  0  0  0  0  2  0  0  0  0  0  0
  192.6030  175.6280  147.3430 C   0  0  0  0  0  2  0  0  0  0  0  0
  191.6100  175.2410  146.3240 N   0  0  0  0  0  0  0  0  0  0  0  0
  2  4  1  1  0  0  0
  2 11  1  0  0  0  0
  4 13  1  0  0  0  0
  6  5  1  0  0  0  0
  7  9  1  0  0  0  0
  7 23  1  6  0  0  0
  8  1  1  0  0  0  0
  8  2  1  0  0  0  0
 10  1  1  6  0  0  0
 10 15  1  0  0  0  0
 10 16  1  0  0  0  0
 11  3  1  1  0  0  0
 11  7  1  0  0  0  0
 12  5  1  0  0  0  0
 13  9  1  0  0  0  0
 14  6  1  0  0  0  0
 15  6  2  0  0  0  0
 16  3  1  6  0  0  0
 16 12  1  0  0  0  0
 17 20  2  0  0  0  0
 17 21  1  0  0  0  0
 18  8  1  0  0  0  0
 19 18  2  0  0  0  0
 20 19  1  0  0  0  0
 21 22  2  0  0  0  0
 22 18  1  0  0  0  0
 23 24  1  6  0  0  0
 23 27  1  0  0  0  0
 25 26  1  0  0  0  0
 27 25  1  0  0  0  0
 27 26  1  0  0  0  0
M  END
>  <MODEL>
3

>  <REMARK>
 VINA RESULT:      -6.4      3.846      8.130
  Name = 
  3 active torsions:
  status: ('A' for Active; 'I' for Inactive)
    1  A    between atoms: C_8  and  C_14
    2  A    between atoms: C_8  and  N_16
    3  A    between atoms: C_9  and  N_15
                            x       y       z     vdW  Elec       q    Type
                         _______ _______ _______ _____ _____    ______ ____

>  <TORSDO>
F 3

$$$$
=
 OpenBabel10262420003D

 27 31  0  0  1  0  0  0  0  0999 V2000
  189.4140  178.2690  138.9810 C   0  0  0  0  0  2  0  0  0  0  0  0
  187.2010  178.0830  137.7710 C   0  0  2  0  0  3  0  0  0  0  0  0
  187.9650  175.7030  137.8360 C   0  0  0  0  0  2  0  0  0  0  0  0
  187.8690  178.8080  136.5860 C   0  0  0  0  0  2  0  0  0  0  0  0
  191.6210  175.4420  136.7450 C   0  0  0  0  0  2  0  0  0  0  0  0
  192.2310  176.2910  137.8240 C   0  0  0  0  0  0  0  0  0  0  0  0
  186.3620  176.3600  136.1640 C   0  0  1  0  0  3  0  0  0  0  0  0
  187.9490  178.2590  139.0230 N   0  0  0  0  0  0  0  0  0  0  0  0
  186.1410  177.5790  135.3830 N   0  0  0  0  0  2  0  0  0  0  0  0
  189.9770  176.8690  138.7520 C   0  0  2  0  0  3  0  0  0  0  0  0
  186.8880  176.6550  137.5150 N   0  0  2  0  0  0  0  0  0  0  0  0
  190.2110  174.9920  137.1040 C   0  0  0  0  0  2  0  0  0  0  0  0
  187.4260  178.2430  135.2440 C   0  0  0  0  0  2  0  0  0  0  0  0
  193.6110  176.4290  137.8720 O   0  0  0  0  0  1  0  0  0  0  0  0
  191.4790  176.9670  138.6980 C   0  0  0  0  0  3  0  0  0  0  0  0
  189.3710  176.1970  137.5030 C   0  0  1  0  0  3  0  0  0  0  0  0
  185.9100  178.2980  142.7560 C   0  0  0  0  0  3  0  0  0  0  0  0
  187.2580  178.2710  140.2880 C   0  0  0  0  0  0  0  0  0  0  0  0
  187.9190  177.8950  141.4690 C   0  0  0  0  0  3  0  0  0  0  0  0
  187.2490  177.9080  142.6960 C   0  0  0  0  0  3  0  0  0  0  0  0
  185.2400  178.6750  141.5900 C   0  0  0  0  0  3  0  0  0  0  0  0
  185.9100  178.6630  140.3630 C   0  0  0  0  0  3  0  0  0  0  0  0
  185.0560  175.5560  136.2630 C   0  0  2  0  0  3  0  0  0  0  0  0
  184.2740  175.9860  137.4980 C   0  0  0  0  0  1  0  0  0  0  0  0
  186.1380  173.7680  135.1610 C   0  0  0  0  0  2  0  0  0  0  0  0
  184.7140  173.4770  135.1780 C   0  0  0  0  0  2  0  0  0  0  0  0
  185.3380  174.1250  136.3460 N   0  0  0  0  0  0  0  0  0  0  0  0
  1  8  1  0  0  0  0
  2  4  1  6  0  0  0
  2  8  1  0  0  0  0
  5 12  1  0  0  0  0
  5  6  1  0  0  0  0
  6 14  1  0  0  0  0
  6 15  2  0  0  0  0
  7 23  1  1  0  0  0
  7 11  1  0  0  0  0
  8 18  1  0  0  0  0
  9  7  1  0  0  0  0
 10 15  1  6  0  0  0
 10  1  1  0  0  0  0
 11  2  1  0  0  0  0
 11  3  1  6  0  0  0
 13  9  1  0  0  0  0
 13  4  1  0  0  0  0
 16 12  1  1  0  0  0
 16  3  1  0  0  0  0
 16 10  1  0  0  0  0
 18 22  2  0  0  0  0
 18 19  1  0  0  0  0
 19 20  2  0  0  0  0
 20 17  1  0  0  0  0
 21 17  2  0  0  0  0
 22 21  1  0  0  0  0
 23 27  1  0  0  0  0
 23 24  1  1  0  0  0
 25 26  1  0  0  0  0
 25 27  1  0  0  0  0
 26 27  1  0  0  0  0
M  END
>  <MODEL>
4

>  <REMARK>
 VINA RESULT:      -6.1      1.525      2.277
  Name = 
  3 active torsions:
  status: ('A' for Active; 'I' for Inactive)
    1  A    between atoms: C_8  and  C_14
    2  A    between atoms: C_8  and  N_16
    3  A    between atoms: C_9  and  N_15
                            x       y       z     vdW  Elec       q    Type
                         _______ _______ _______ _____ _____    ______ ____

>  <TORSDO>
F 3

$$$$
=
 OpenBabel10262420003D

 27 31  0  0  1  0  0  0  0  0999 V2000
  190.8680  176.3980  137.8180 C   0  0  0  0  0  2  0  0  0  0  0  0
  188.7040  177.5320  137.1680 C   0  0  2  0  0  3  0  0  0  0  0  0
  188.0210  175.1290  137.2940 C   0  0  0  0  0  2  0  0  0  0  0  0
  189.3470  177.8150  135.7960 C   0  0  0  0  0  2  0  0  0  0  0  0
  190.5320  172.9260  135.4320 C   0  0  0  0  0  2  0  0  0  0  0  0
  191.7480  173.2410  136.2530 C   0  0  0  0  0  0  0  0  0  0  0  0
  186.6930  176.6430  135.9740 C   0  0  1  0  0  3  0  0  0  0  0  0
  189.7030  177.2040  138.1930 N   0  0  0  0  0  0  0  0  0  0  0  0
  186.9970  177.8120  135.1450 N   0  0  0  0  0  2  0  0  0  0  0  0
  190.4930  174.9340  137.6070 C   0  0  2  0  0  3  0  0  0  0  0  0
  187.6060  176.5340  137.1330 N   0  0  2  0  0  0  0  0  0  0  0  0
  189.2450  173.3220  136.1450 C   0  0  0  0  0  2  0  0  0  0  0  0
  188.3550  177.6540  134.6520 C   0  0  0  0  0  2  0  0  0  0  0  0
  192.9390  172.5840  135.9730 O   0  0  0  0  0  1  0  0  0  0  0  0
  191.7330  174.1810  137.2040 C   0  0  0  0  0  3  0  0  0  0  0  0
  189.3350  174.7710  136.6030 C   0  0  1  0  0  3  0  0  0  0  0  0
  189.0060  178.2020  142.2680 C   0  0  0  0  0  3  0  0  0  0  0  0
  189.4670  177.5410  139.5750 C   0  0  0  0  0  0  0  0  0  0  0  0
  190.3760  177.1520  140.5730 C   0  0  0  0  0  3  0  0  0  0  0  0
  190.1460  177.4800  141.9120 C   0  0  0  0  0  3  0  0  0  0  0  0
  188.0940  178.5970  141.2870 C   0  0  0  0  0  3  0  0  0  0  0  0
  188.3230  178.2690  139.9480 C   0  0  0  0  0  3  0  0  0  0  0  0
  185.2330  176.6990  136.4470 C   0  0  2  0  0  3  0  0  0  0  0  0
  185.1390  177.4770  137.7540 C   0  0  0  0  0  1  0  0  0  0  0  0
  184.8460  174.6320  135.3710 C   0  0  0  0  0  2  0  0  0  0  0  0
  183.5530  175.1810  135.7450 C   0  0  0  0  0  2  0  0  0  0  0  0
  184.7050  175.3520  136.6490 N   0  0  0  0  0  0  0  0  0  0  0  0
  1  8  1  0  0  0  0
  2  4  1  6  0  0  0
  2  8  1  0  0  0  0
  5 12  1  0  0  0  0
  5  6  1  0  0  0  0
  6 15  2  0  0  0  0
  7 23  1  1  0  0  0
  7 11  1  0  0  0  0
  8 18  1  0  0  0  0
  9  7  1  0  0  0  0
 10 15  1  6  0  0  0
 10  1  1  0  0  0  0
 11  2  1  0  0  0  0
 11  3  1  6  0  0  0
 13  9  1  0  0  0  0
 13  4  1  0  0  0  0
 14  6  1  0  0  0  0
 16 12  1  1  0  0  0
 16  3  1  0  0  0  0
 16 10  1  0  0  0  0
 18 22  2  0  0  0  0
 18 19  1  0  0  0  0
 19 20  2  0  0  0  0
 20 17  1  0  0  0  0
 21 17  2  0  0  0  0
 22 21  1  0  0  0  0
 23 27  1  0  0  0  0
 23 24  1  1  0  0  0
 25 26  1  0  0  0  0
 25 27  1  0  0  0  0
 26 27  1  0  0  0  0
M  END
>  <MODEL>
5

>  <REMARK>
 VINA RESULT:      -5.9      1.720      2.329
  Name = 
  3 active torsions:
  status: ('A' for Active; 'I' for Inactive)
    1  A    between atoms: C_8  and  C_14
    2  A    between atoms: C_8  and  N_16
    3  A    between atoms: C_9  and  N_15
                            x       y       z     vdW  Elec       q    Type
                         _______ _______ _______ _____ _____    ______ ____

>  <TORSDO>
F 3

$$$$
=
 OpenBabel10262420003D

 27 31  0  0  1  0  0  0  0  0999 V2000
  189.7070  178.2200  139.0940 C   0  0  0  0  0  2  0  0  0  0  0  0
  187.4800  178.0540  137.9090 C   0  0  2  0  0  3  0  0  0  0  0  0
  188.2280  175.6680  137.9580 C   0  0  0  0  0  2  0  0  0  0  0  0
  188.1390  178.7770  136.7180 C   0  0  0  0  0  2  0  0  0  0  0  0
  191.8690  175.3850  136.8240 C   0  0  0  0  0  2  0  0  0  0  0  0
  192.4970  176.2270  137.8990 C   0  0  0  0  0  0  0  0  0  0  0  0
  186.6100  176.3410  136.3070 C   0  0  1  0  0  3  0  0  0  0  0  0
  188.2430  178.2210  139.1530 N   0  0  0  0  0  0  0  0  0  0  0  0
  186.3890  177.5630  135.5310 N   0  0  0  0  0  2  0  0  0  0  0  0
  190.2580  176.8170  138.8540 C   0  0  2  0  0  3  0  0  0  0  0  0
  187.1540  176.6290  137.6520 N   0  0  2  0  0  0  0  0  0  0  0  0
  190.4600  174.9440  137.1980 C   0  0  0  0  0  2  0  0  0  0  0  0
  187.6770  178.2200  135.3800 C   0  0  0  0  0  2  0  0  0  0  0  0
  193.8790  176.3550  137.9320 O   0  0  0  0  0  1  0  0  0  0  0  0
  191.7600  176.9060  138.7830 C   0  0  0  0  0  3  0  0  0  0  0  0
  189.6330  176.1540  137.6110 C   0  0  1  0  0  3  0  0  0  0  0  0
  186.2500  178.2570  142.9100 C   0  0  0  0  0  3  0  0  0  0  0  0
  187.5670  178.2340  140.4260 C   0  0  0  0  0  0  0  0  0  0  0  0
  186.2260  178.6410  140.5210 C   0  0  0  0  0  3  0  0  0  0  0  0
  185.5710  178.6530  141.7560 C   0  0  0  0  0  3  0  0  0  0  0  0
  187.5840  177.8490  142.8310 C   0  0  0  0  0  3  0  0  0  0  0  0
  188.2380  177.8370  141.5960 C   0  0  0  0  0  3  0  0  0  0  0  0
  185.3000  175.5450  136.4190 C   0  0  2  0  0  3  0  0  0  0  0  0
  185.4190  174.2380  135.6430 C   0  0  0  0  0  1  0  0  0  0  0  0
  183.5160  176.9650  137.0350 C   0  0  0  0  0  2  0  0  0  0  0  0
  182.9410  175.7610  136.4580 C   0  0  0  0  0  2  0  0  0  0  0  0
  184.1810  176.3190  135.8890 N   0  0  0  0  0  0  0  0  0  0  0  0
  1  8  1  0  0  0  0
  2  4  1  6  0  0  0
  2  8  1  0  0  0  0
  5 12  1  0  0  0  0
  5  6  1  0  0  0  0
  6 14  1  0  0  0  0
  6 15  2  0  0  0  0
  7 23  1  1  0  0  0
  7 11  1  0  0  0  0
  8 18  1  0  0  0  0
  9  7  1  0  0  0  0
 10 15  1  6  0  0  0
 10  1  1  0  0  0  0
 11  2  1  0  0  0  0
 11  3  1  6  0  0  0
 13  9  1  0  0  0  0
 13  4  1  0  0  0  0
 16 12  1  1  0  0  0
 16  3  1  0  0  0  0
 16 10  1  0  0  0  0
 18 19  2  0  0  0  0
 18 22  1  0  0  0  0
 19 20  1  0  0  0  0
 20 17  2  0  0  0  0
 21 17  1  0  0  0  0
 22 21  2  0  0  0  0
 23 24  1  6  0  0  0
 26 25  1  0  0  0  0
 27 23  1  0  0  0  0
 27 26  1  0  0  0  0
 27 25  1  0  0  0  0
M  END
>  <MODEL>
6

>  <REMARK>
 VINA RESULT:      -5.7      1.241      1.812
  Name = 
  3 active torsions:
  status: ('A' for Active; 'I' for Inactive)
    1  A    between atoms: C_8  and  C_14
    2  A    between atoms: C_8  and  N_16
    3  A    between atoms: C_9  and  N_15
                            x       y       z     vdW  Elec       q    Type
                         _______ _______ _______ _____ _____    ______ ____

>  <TORSDO>
F 3

$$$$
=
 OpenBabel10262420003D

 27 31  0  0  1  0  0  0  0  0999 V2000
  183.8210  177.3690  139.3820 C   0  0  0  0  0  2  0  0  0  0  0  0
  182.4670  179.3840  140.0890 C   0  0  2  0  0  3  0  0  0  0  0  0
  180.8940  177.4990  140.5670 C   0  0  0  0  0  2  0  0  0  0  0  0
  182.3820  179.7620  138.5970 C   0  0  0  0  0  2  0  0  0  0  0  0
  180.7370  175.1020  137.5910 C   0  0  0  0  0  2  0  0  0  0  0  0
  182.1790  174.6820  137.5750 C   0  0  0  0  0  0  0  0  0  0  0  0
  179.9920  179.7090  140.2490 C   0  0  1  0  0  3  0  0  0  0  0  0
  183.5470  178.4260  140.3590 N   0  0  0  0  0  0  0  0  0  0  0  0
  180.3530  180.8480  139.4030 N   0  0  0  0  0  2  0  0  0  0  0  0
  182.7480  176.2840  139.4140 C   0  0  2  0  0  3  0  0  0  0  0  0
  181.1800  178.9400  140.6800 N   0  0  2  0  0  0  0  0  0  0  0  0
  180.3480  175.7520  138.9130 C   0  0  0  0  0  2  0  0  0  0  0  0
  181.0160  180.3190  138.2220 C   0  0  0  0  0  2  0  0  0  0  0  0
  182.5890  173.7200  136.6610 O   0  0  0  0  0  1  0  0  0  0  0  0
  183.0880  175.2530  138.3700 C   0  0  0  0  0  3  0  0  0  0  0  0
  181.3300  176.8660  139.2480 C   0  0  1  0  0  3  0  0  0  0  0  0
  185.5520  178.4460  144.1100 C   0  0  0  0  0  3  0  0  0  0  0  0
  184.2260  178.4340  141.6310 C   0  0  0  0  0  0  0  0  0  0  0  0
  183.5120  178.6370  142.8240 C   0  0  0  0  0  3  0  0  0  0  0  0
  184.1710  178.6430  144.0560 C   0  0  0  0  0  3  0  0  0  0  0  0
  186.2750  178.2420  142.9330 C   0  0  0  0  0  3  0  0  0  0  0  0
  185.6160  178.2350  141.7010 C   0  0  0  0  0  3  0  0  0  0  0  0
  179.1950  180.1930  141.4710 C   0  0  2  0  0  3  0  0  0  0  0  0
  178.9310  181.6900  141.3580 C   0  0  0  0  0  1  0  0  0  0  0  0
  179.4540  178.6320  143.2250 C   0  0  0  0  0  2  0  0  0  0  0  0
  178.9530  179.8670  143.8050 C   0  0  0  0  0  2  0  0  0  0  0  0
  179.9310  179.9260  142.7040 N   0  0  0  0  0  0  0  0  0  0  0  0
  1 10  1  0  0  0  0
  1  8  1  0  0  0  0
  2  4  1  6  0  0  0
  2  8  1  0  0  0  0
  2 11  1  0  0  0  0
  5 12  1  0  0  0  0
  6  5  1  0  0  0  0
  6 15  2  0  0  0  0
  7 11  1  0  0  0  0
  7 23  1  1  0  0  0
  8 18  1  0  0  0  0
  9  7  1  0  0  0  0
 10 15  1  6  0  0  0
 11  3  1  6  0  0  0
 13  4  1  0  0  0  0
 13  9  1  0  0  0  0
 14  6  1  0  0  0  0
 16 12  1  1  0  0  0
 16 10  1  0  0  0  0
 16  3  1  0  0  0  0
 18 22  2  0  0  0  0
 18 19  1  0  0  0  0
 19 20  2  0  0  0  0
 20 17  1  0  0  0  0
 21 17  2  0  0  0  0
 22 21  1  0  0  0  0
 23 24  1  6  0  0  0
 23 27  1  0  0  0  0
 25 26  1  0  0  0  0
 27 25  1  0  0  0  0
 27 26  1  0  0  0  0
M  END
>  <MODEL>
7

>  <REMARK>
 VINA RESULT:      -5.3      5.717      8.105
  Name = 
  3 active torsions:
  status: ('A' for Active; 'I' for Inactive)
    1  A    between atoms: C_8  and  C_14
    2  A    between atoms: C_8  and  N_16
    3  A    between atoms: C_9  and  N_15
                            x       y       z     vdW  Elec       q    Type
                         _______ _______ _______ _____ _____    ______ ____

>  <TORSDO>
F 3

$$$$
=
 OpenBabel10262420003D

 27 31  0  0  1  0  0  0  0  0999 V2000
  181.4960  177.8760  137.5240 C   0  0  0  0  0  2  0  0  0  0  0  0
  182.8340  177.4630  139.6290 C   0  0  2  0  0  3  0  0  0  0  0  0
  181.2930  179.3000  140.3390 C   0  0  0  0  0  2  0  0  0  0  0  0
  184.0470  178.0630  138.8910 C   0  0  0  0  0  2  0  0  0  0  0  0
  181.2450  182.0900  137.7250 C   0  0  0  0  0  2  0  0  0  0  0  0
  180.7220  181.2920  136.5650 C   0  0  0  0  0  0  0  0  0  0  0  0
  183.3420  178.9700  141.5600 C   0  0  1  0  0  3  0  0  0  0  0  0
  181.7680  177.0530  138.7050 N   0  0  0  0  0  0  0  0  0  0  0  0
  184.6950  178.5500  141.1900 N   0  0  0  0  0  2  0  0  0  0  0  0
  180.7790  179.1720  137.8970 C   0  0  2  0  0  3  0  0  0  0  0  0
  182.3100  178.3090  140.7300 N   0  0  2  0  0  0  0  0  0  0  0  0
  181.0060  181.3860  139.0540 C   0  0  0  0  0  2  0  0  0  0  0  0
  184.9040  178.9290  139.8030 C   0  0  0  0  0  2  0  0  0  0  0  0
  180.4660  181.9390  135.3630 O   0  0  0  0  0  1  0  0  0  0  0  0
  180.5580  179.9680  136.6380 C   0  0  0  0  0  3  0  0  0  0  0  0
  181.5360  179.9600  138.9840 C   0  0  1  0  0  3  0  0  0  0  0  0
  179.2260  173.7840  139.6760 C   0  0  0  0  0  3  0  0  0  0  0  0
  180.9060  175.9450  139.0330 C   0  0  0  0  0  0  0  0  0  0  0  0
  180.8340  174.8200  138.1950 C   0  0  0  0  0  3  0  0  0  0  0  0
  179.9990  173.7460  138.5140 C   0  0  0  0  0  3  0  0  0  0  0  0
  179.2880  174.8950  140.5200 C   0  0  0  0  0  3  0  0  0  0  0  0
  180.1240  175.9690  140.2010 C   0  0  0  0  0  3  0  0  0  0  0  0
  183.0920  178.6870  143.0490 C   0  0  2  0  0  3  0  0  0  0  0  0
  181.6500  179.0250  143.4070 C   0  0  0  0  0  1  0  0  0  0  0  0
  185.0560  178.5760  144.3580 C   0  0  0  0  0  2  0  0  0  0  0  0
  183.9560  178.9180  145.2440 C   0  0  0  0  0  2  0  0  0  0  0  0
  183.9930  179.4800  143.8820 N   0  0  0  0  0  0  0  0  0  0  0  0
  1 10  1  0  0  0  0
  1  8  1  0  0  0  0
  2  4  1  6  0  0  0
  2 11  1  0  0  0  0
  4 13  1  0  0  0  0
  5 12  1  0  0  0  0
  6 15  2  0  0  0  0
  6  5  1  0  0  0  0
  7 23  1  1  0  0  0
  8 18  1  0  0  0  0
  8  2  1  0  0  0  0
  9  7  1  0  0  0  0
 10 15  1  6  0  0  0
 10 16  1  0  0  0  0
 11  3  1  6  0  0  0
 11  7  1  0  0  0  0
 13  9  1  0  0  0  0
 14  6  1  0  0  0  0
 16 12  1  1  0  0  0
 16  3  1  0  0  0  0
 17 21  1  0  0  0  0
 18 22  1  0  0  0  0
 19 20  1  0  0  0  0
 19 18  2  0  0  0  0
 20 17  2  0  0  0  0
 22 21  2  0  0  0  0
 23 24  1  1  0  0  0
 23 27  1  0  0  0  0
 25 26  1  0  0  0  0
 27 25  1  0  0  0  0
 27 26  1  0  0  0  0
M  END
>  <MODEL>
8

>  <REMARK>
 VINA RESULT:      -5.2      6.103      9.346
  Name = 
  3 active torsions:
  status: ('A' for Active; 'I' for Inactive)
    1  A    between atoms: C_8  and  C_14
    2  A    between atoms: C_8  and  N_16
    3  A    between atoms: C_9  and  N_15
                            x       y       z     vdW  Elec       q    Type
                         _______ _______ _______ _____ _____    ______ ____

>  <TORSDO>
F 3

$$$$
=
 OpenBabel10262420003D

 27 31  0  0  1  0  0  0  0  0999 V2000
  183.8290  177.3630  137.3430 C   0  0  0  0  0  2  0  0  0  0  0  0
  183.0470  179.0440  139.0620 C   0  0  2  0  0  3  0  0  0  0  0  0
  182.2390  176.8860  140.0330 C   0  0  0  0  0  2  0  0  0  0  0  0
  182.0400  179.5460  138.0090 C   0  0  0  0  0  2  0  0  0  0  0  0
  180.4700  174.7970  137.3620 C   0  0  0  0  0  2  0  0  0  0  0  0
  181.6260  174.6280  136.4190 C   0  0  0  0  0  0  0  0  0  0  0  0
  181.1720  178.9350  140.7140 C   0  0  1  0  0  3  0  0  0  0  0  0
  184.1340  178.2590  138.4620 N   0  0  0  0  0  0  0  0  0  0  0  0
  180.8560  180.1950  140.0390 N   0  0  0  0  0  2  0  0  0  0  0  0
  183.0830  176.1160  137.8110 C   0  0  2  0  0  3  0  0  0  0  0  0
  182.4280  178.3360  140.2100 N   0  0  2  0  0  0  0  0  0  0  0  0
  180.9260  175.2420  138.7470 C   0  0  0  0  0  2  0  0  0  0  0  0
  180.6940  179.9020  138.6250 C   0  0  0  0  0  2  0  0  0  0  0  0
  181.4610  173.8420  135.2860 O   0  0  0  0  0  1  0  0  0  0  0  0
  182.7880  175.2620  136.6050 C   0  0  0  0  0  3  0  0  0  0  0  0
  181.8220  176.4660  138.6260 C   0  0  1  0  0  3  0  0  0  0  0  0
  188.0050  178.2530  140.2240 C   0  0  0  0  0  3  0  0  0  0  0  0
  185.4460  178.2560  139.0580 C   0  0  0  0  0  0  0  0  0  0  0  0
  186.5740  177.8830  138.3080 C   0  0  0  0  0  3  0  0  0  0  0  0
  187.8460  177.8810  138.8870 C   0  0  0  0  0  3  0  0  0  0  0  0
  186.8930  178.6260  140.9820 C   0  0  0  0  0  3  0  0  0  0  0  0
  185.6210  178.6280  140.4030 C   0  0  0  0  0  3  0  0  0  0  0  0
  181.2570  179.1580  142.2320 C   0  0  2  0  0  3  0  0  0  0  0  0
  182.6780  178.8920  142.7160 C   0  0  0  0  0  1  0  0  0  0  0  0
  178.9690  178.7440  142.6450 C   0  0  0  0  0  2  0  0  0  0  0  0
  179.5900  179.0840  143.9140 C   0  0  0  0  0  2  0  0  0  0  0  0
  180.3350  178.2710  142.9350 N   0  0  0  0  0  0  0  0  0  0  0  0
  1 10  1  0  0  0  0
  1  8  1  0  0  0  0
  2  4  1  6  0  0  0
  2 11  1  0  0  0  0
  4 13  1  0  0  0  0
  5 12  1  0  0  0  0
  6 15  2  0  0  0  0
  6  5  1  0  0  0  0
  7 23  1  1  0  0  0
  8 18  1  0  0  0  0
  8  2  1  0  0  0  0
  9  7  1  0  0  0  0
 10 15  1  6  0  0  0
 10 16  1  0  0  0  0
 11  3  1  6  0  0  0
 11  7  1  0  0  0  0
 13  9  1  0  0  0  0
 14  6  1  0  0  0  0
 16 12  1  1  0  0  0
 16  3  1  0  0  0  0
 17 21  1  0  0  0  0
 18 22  1  0  0  0  0
 19 20  1  0  0  0  0
 19 18  2  0  0  0  0
 20 17  2  0  0  0  0
 22 21  2  0  0  0  0
 23 24  1  1  0  0  0
 23 27  1  0  0  0  0
 25 27  1  0  0  0  0
 25 26  1  0  0  0  0
 27 26  1  0  0  0  0
M  END
>  <MODEL>
9

>  <REMARK>
 VINA RESULT:      -5.2      4.579      7.757
  Name = 
  3 active torsions:
  status: ('A' for Active; 'I' for Inactive)
    1  A    between atoms: C_8  and  C_14
    2  A    between atoms: C_8  and  N_16
    3  A    between atoms: C_9  and  N_15
                            x       y       z     vdW  Elec       q    Type
                         _______ _______ _______ _____ _____    ______ ____

>  <TORSDO>
F 3

$$$$
