=
 OpenBabel10262420393D

 55 60  0  0  1  0  0  0  0  0999 V2000
  183.7510  179.1520  144.0210 C   0  0  0  0  0  2  0  0  0  0  0  0
  183.2540  179.0070  141.2620 C   0  0  2  0  0  3  0  0  0  0  0  0
  184.7060  178.7850  141.7200 C   0  0  0  0  0  2  0  0  0  0  0  0
  182.3300  178.9670  143.4580 C   0  0  0  0  0  2  0  0  0  0  0  0
  184.7880  178.3930  143.1980 C   0  0  1  0  0  3  0  0  0  0  0  0
  182.3200  178.3140  142.1440 N   0  0  0  0  0  2  0  0  0  0  0  0
  183.2460  177.2530  139.5400 C   0  0  0  0  0  3  0  0  0  0  0  0
  183.0650  178.5300  139.8640 C   0  0  0  0  0  3  0  0  0  0  0  0
  181.1760  176.4390  135.5750 O   0  0  0  0  0  1  0  0  0  0  0  0
  183.9610  177.2090  137.1230 C   0  0  1  0  0  3  0  0  0  0  0  0
  182.2000  175.7430  136.2340 C   0  0  1  0  0  0  0  0  0  0  0  0
  183.5590  176.3870  135.9120 C   0  0  1  0  0  3  0  0  0  0  0  0
  183.0820  176.7810  138.1960 N   0  0  0  0  0  0  0  0  0  0  0  0
  183.5130  177.1930  134.7710 O   0  0  0  0  0  1  0  0  0  0  0  0
  185.4090  176.8990  137.4620 C   0  0  0  0  0  1  0  0  0  0  0  0
  182.0320  175.8680  137.7600 C   0  0  1  0  0  3  0  0  0  0  0  0
  181.2810  172.2280  136.1240 C   0  0  0  0  0  0  0  0  0  0  0  0
  182.1750  174.2720  135.7660 C   0  0  1  0  0  3  0  0  0  0  0  0
  183.9020  173.5060  137.4800 C   0  0  0  0  0  1  0  0  0  0  0  0
  183.3790  173.3830  136.0560 C   0  0  1  0  0  3  0  0  0  0  0  0
  180.4090  171.5480  135.0750 C   0  0  0  0  0  1  0  0  0  0  0  0
  182.7860  172.0170  135.8880 C   0  0  2  0  0  3  0  0  0  0  0  0
  180.9220  171.6440  137.4770 C   0  0  0  0  0  1  0  0  0  0  0  0
  183.0610  171.5580  134.5940 O   0  0  0  0  0  1  0  0  0  0  0  0
  180.9940  173.6100  136.1400 O   0  0  0  0  0  0  0  0  0  0  0  0
  180.7730  176.3820  138.1070 O   0  0  0  0  0  0  0  0  0  0  0  0
  180.0370  175.2880  138.5740 C   0  0  0  0  0  2  0  0  0  0  0  0
  180.2950  175.0740  140.0540 C   0  0  0  0  0  2  0  0  0  0  0  0
  179.3910  174.1640  140.5670 F   0  0  0  0  0  0  0  0  0  0  0  0
  186.0670  178.6520  143.6950 O   0  0  0  0  0  0  0  0  0  0  0  0
  186.7020  177.4070  143.7350 C   0  0  0  0  0  2  0  0  0  0  0  0
  190.0990  177.1700  147.4050 C   0  0  0  0  0  2  0  0  0  0  0  0
  187.8890  178.6210  141.3230 C   0  0  0  0  0  2  0  0  0  0  0  0
  192.0270  176.0200  146.7960 C   0  0  0  0  0  2  0  0  0  0  0  0
  190.7290  177.0900  144.9710 N   0  0  0  0  0  0  0  0  0  0  0  0
  191.8920  176.2600  145.2970 C   0  0  0  0  0  2  0  0  0  0  0  0
  190.7100  175.8490  147.3840 N   0  0  0  0  0  2  0  0  0  0  0  0
  189.8380  177.6870  145.9800 C   0  0  1  0  0  3  0  0  0  0  0  0
  189.2240  177.5730  143.2230 C   0  0  0  0  0  0  0  0  0  0  0  0
  189.8250  177.3470  140.8770 O   0  0  0  0  0  0  0  0  0  0  0  0
  190.4300  177.2900  143.6150 N   0  0  0  0  0  0  0  0  0  0  0  0
  188.9940  177.2530  139.7470 C   0  0  1  0  0  3  0  0  0  0  0  0
  188.3920  177.5810  145.5470 C   0  0  0  0  0  0  0  0  0  0  0  0
  187.9400  178.3480  139.8500 C   0  0  0  0  0  2  0  0  0  0  0  0
  188.1100  177.5740  144.2210 C   0  0  0  0  0  0  0  0  0  0  0  0
  189.0040  177.8520  141.8300 N   0  0  0  0  0  0  0  0  0  0  0  0
  187.3300  177.6650  146.6230 C   0  0  2  0  0  3  0  0  0  0  0  0
  186.4180  178.8960  146.6000 C   0  0  0  0  0  2  0  0  0  0  0  0
  184.9830  178.6020  147.0030 C   0  0  0  0  0  1  0  0  0  0  0  0
  187.7360  177.8090  148.9620 O   0  0  0  0  0  0  0  0  0  0  0  0
  187.7000  177.1010  147.9650 C   0  0  0  0  0  3  0  0  0  0  0  0
  189.8190  177.4220  138.4810 C   0  0  0  0  0  2  0  0  0  0  0  0
  189.3210  176.5390  137.4360 N   0  0  0  0  0  2  0  0  0  0  0  0
  190.4350  175.7180  136.9880 C   0  0  0  0  0  2  0  0  0  0  0  0
  190.6690  174.6950  137.9110 O   0  0  0  0  0  1  0  0  0  0  0  0
  2  8  1  6  0  0  0
  2  3  1  0  0  0  0
  2  6  1  0  0  0  0
  3  5  1  0  0  0  0
  4  1  1  0  0  0  0
  5 30  1  1  0  0  0
  5  1  1  0  0  0  0
  6  4  1  0  0  0  0
  7  8  2  0  0  0  0
 10 15  1  1  0  0  0
 10 13  1  0  0  0  0
 11  9  1  6  0  0  0
 11 16  1  0  0  0  0
 12 14  1  6  0  0  0
 12 11  1  0  0  0  0
 12 10  1  0  0  0  0
 13  7  1  0  0  0  0
 16 26  1  6  0  0  0
 16 13  1  0  0  0  0
 17 25  1  0  0  0  0
 17 23  1  0  0  0  0
 18 20  1  0  0  0  0
 18 25  1  1  0  0  0
 18 11  1  0  0  0  0
 20 19  1  1  0  0  0
 21 17  1  0  0  0  0
 22 24  1  6  0  0  0
 22 20  1  0  0  0  0
 22 17  1  0  0  0  0
 26 27  1  0  0  0  0
 27 28  1  0  0  0  0
 28 29  1  0  0  0  0
 30 31  1  0  0  0  0
 31 45  1  0  0  0  0
 33 46  1  0  0  0  0
 34 37  1  0  0  0  0
 35 36  1  0  0  0  0
 35 38  1  0  0  0  0
 36 34  1  0  0  0  0
 37 32  1  0  0  0  0
 38 32  1  1  0  0  0
 39 41  2  0  0  0  0
 39 45  1  0  0  0  0
 40 46  1  0  0  0  0
 41 35  1  0  0  0  0
 42 52  1  6  0  0  0
 42 44  1  0  0  0  0
 42 40  1  0  0  0  0
 43 38  1  0  0  0  0
 43 47  1  0  0  0  0
 44 33  1  0  0  0  0
 45 43  2  0  0  0  0
 46 39  1  0  0  0  0
 47 48  1  1  0  0  0
 47 51  1  0  0  0  0
 48 49  1  0  0  0  0
 51 50  2  0  0  0  0
 53 52  1  0  0  0  0
 54 53  1  0  0  0  0
 54 55  1  0  0  0  0
M  END
>  <MODEL>
1

>  <REMARK>
 VINA RESULT:      -8.3      0.000      0.000
  Name = 
  15 active torsions:
  status: ('A' for Active; 'I' for Inactive)
    1  A    between atoms: O_2  and  C_28
    2  A    between atoms: O_2  and  C_44
    3  A    between atoms: O_3  and  C_38
    4  A    between atoms: O_3  and  C_46
    5  A    between atoms: C_4  and  C_19
    6  A    between atoms: C_6  and  C_20
    7  A    between atoms: C_10  and  N_18
    8  A    between atoms: C_11  and  C_38
    9  A    between atoms: N_18  and  C_32
   10  A    between atoms: C_19  and  C_40
   11  A    between atoms: C_19  and  C_45
   12  A    between atoms: C_27  and  C_54
   13  A    between atoms: C_28  and  C_49
   14  A    between atoms: C_32  and  C_39
   15  A    between atoms: N_35  and  C_51
                            x       y       z     vdW  Elec       q    Type
                         _______ _______ _______ _____ _____    ______ ____

>  <TORSDO>
F 15

$$$$
=
 OpenBabel10262420393D

 55 60  0  0  1  0  0  0  0  0999 V2000
  187.2740  178.4570  140.2660 C   0  0  0  0  0  2  0  0  0  0  0  0
  189.4020  177.9150  138.5170 C   0  0  2  0  0  3  0  0  0  0  0  0
  189.7390  178.0080  140.0150 C   0  0  0  0  0  2  0  0  0  0  0  0
  187.0400  177.9580  138.8270 C   0  0  0  0  0  2  0  0  0  0  0  0
  188.5020  177.8070  140.8960 C   0  0  1  0  0  3  0  0  0  0  0  0
  188.1630  177.1700  138.3090 N   0  0  0  0  0  2  0  0  0  0  0  0
  191.0670  176.1330  138.2100 C   0  0  0  0  0  3  0  0  0  0  0  0
  190.5090  177.2560  137.7690 C   0  0  0  0  0  3  0  0  0  0  0  0
  193.2480  174.0840  134.7880 O   0  0  0  0  0  1  0  0  0  0  0  0
  193.4310  176.1440  137.3310 C   0  0  1  0  0  3  0  0  0  0  0  0
  193.4140  173.9750  136.1760 C   0  0  1  0  0  0  0  0  0  0  0  0
  194.3260  175.1040  136.6830 C   0  0  1  0  0  3  0  0  0  0  0  0
  192.1440  175.4950  137.5080 N   0  0  0  0  0  0  0  0  0  0  0  0
  195.0810  175.6840  135.6590 O   0  0  0  0  0  1  0  0  0  0  0  0
  194.0250  176.5290  138.6740 C   0  0  0  0  0  1  0  0  0  0  0  0
  192.0650  174.1780  136.8900 C   0  0  1  0  0  3  0  0  0  0  0  0
  195.6990  171.1540  135.9790 C   0  0  0  0  0  0  0  0  0  0  0  0
  194.0360  172.5970  136.4890 C   0  0  1  0  0  3  0  0  0  0  0  0
  192.8080  171.4090  134.5940 C   0  0  0  0  0  1  0  0  0  0  0  0
  193.3110  171.3370  136.0290 C   0  0  1  0  0  3  0  0  0  0  0  0
  196.7550  170.7650  137.0070 C   0  0  0  0  0  1  0  0  0  0  0  0
  194.4110  170.3210  136.0920 C   0  0  2  0  0  3  0  0  0  0  0  0
  196.2900  170.9370  134.5990 C   0  0  0  0  0  1  0  0  0  0  0  0
  194.3270  169.6360  137.3100 O   0  0  0  0  0  1  0  0  0  0  0  0
  195.3910  172.5240  136.1270 O   0  0  0  0  0  0  0  0  0  0  0  0
  190.9860  174.1300  135.9940 O   0  0  0  0  0  0  0  0  0  0  0  0
  190.0840  173.2120  136.5410 C   0  0  0  0  0  2  0  0  0  0  0  0
  188.6600  173.7110  136.3730 C   0  0  0  0  0  2  0  0  0  0  0  0
  188.6640  174.9870  135.8400 F   0  0  0  0  0  0  0  0  0  0  0  0
  188.7220  178.3440  142.1650 O   0  0  0  0  0  0  0  0  0  0  0  0
  187.4480  178.6290  142.6670 C   0  0  0  0  0  2  0  0  0  0  0  0
  189.4580  177.2430  147.0380 C   0  0  0  0  0  2  0  0  0  0  0  0
  184.6220  177.7920  142.5320 C   0  0  0  0  0  2  0  0  0  0  0  0
  188.2930  178.0550  148.8800 C   0  0  0  0  0  2  0  0  0  0  0  0
  187.0090  177.7570  146.7770 N   0  0  0  0  0  0  0  0  0  0  0  0
  186.9540  178.2130  148.1690 C   0  0  0  0  0  2  0  0  0  0  0  0
  189.3740  178.3660  147.9600 N   0  0  0  0  0  2  0  0  0  0  0  0
  188.1990  177.1470  146.1590 C   0  0  1  0  0  3  0  0  0  0  0  0
  185.9570  178.0420  144.6870 C   0  0  0  0  0  0  0  0  0  0  0  0
  183.6190  178.6810  144.4740 O   0  0  0  0  0  0  0  0  0  0  0  0
  185.8710  177.9540  145.9810 N   0  0  0  0  0  0  0  0  0  0  0  0
  182.9380  179.2180  143.3690 C   0  0  1  0  0  3  0  0  0  0  0  0
  188.3950  177.6660  144.7510 C   0  0  0  0  0  0  0  0  0  0  0  0
  183.3030  178.3880  142.1460 C   0  0  0  0  0  2  0  0  0  0  0  0
  187.3050  178.0480  144.0410 C   0  0  0  0  0  0  0  0  0  0  0  0
  184.7430  178.1560  143.9260 N   0  0  0  0  0  0  0  0  0  0  0  0
  189.7830  177.5630  144.1530 C   0  0  2  0  0  3  0  0  0  0  0  0
  190.3430  176.1530  143.9440 C   0  0  0  0  0  2  0  0  0  0  0  0
  191.1890  176.0100  142.6900 C   0  0  0  0  0  1  0  0  0  0  0  0
  191.5720  179.0740  143.7400 O   0  0  0  0  0  0  0  0  0  0  0  0
  190.7520  178.6440  144.5390 C   0  0  0  0  0  3  0  0  0  0  0  0
  181.4380  179.1790  143.6150 C   0  0  0  0  0  2  0  0  0  0  0  0
  180.7210  179.5820  142.4150 N   0  0  0  0  0  2  0  0  0  0  0  0
  179.3070  179.3280  142.6410 C   0  0  0  0  0  2  0  0  0  0  0  0
  178.9510  178.1010  142.0760 O   0  0  0  0  0  1  0  0  0  0  0  0
  1  5  1  0  0  0  0
  2  8  1  6  0  0  0
  2  3  1  0  0  0  0
  3  5  1  0  0  0  0
  4  1  1  0  0  0  0
  5 30  1  1  0  0  0
  6  2  1  0  0  0  0
  6  4  1  0  0  0  0
  8  7  2  0  0  0  0
 10 13  1  0  0  0  0
 10 15  1  1  0  0  0
 11  9  1  6  0  0  0
 11 18  1  0  0  0  0
 11 12  1  0  0  0  0
 11 16  1  0  0  0  0
 12 14  1  6  0  0  0
 12 10  1  0  0  0  0
 13  7  1  0  0  0  0
 16 26  1  6  0  0  0
 16 13  1  0  0  0  0
 17 22  1  0  0  0  0
 17 25  1  0  0  0  0
 17 21  1  0  0  0  0
 18 25  1  6  0  0  0
 20 19  1  6  0  0  0
 20 22  1  0  0  0  0
 20 18  1  0  0  0  0
 22 24  1  1  0  0  0
 23 17  1  0  0  0  0
 26 27  1  0  0  0  0
 28 27  1  0  0  0  0
 29 28  1  0  0  0  0
 30 31  1  0  0  0  0
 31 45  1  0  0  0  0
 32 37  1  0  0  0  0
 33 46  1  0  0  0  0
 35 36  1  0  0  0  0
 36 34  1  0  0  0  0
 37 34  1  0  0  0  0
 38 35  1  0  0  0  0
 38 32  1  1  0  0  0
 39 41  2  0  0  0  0
 41 35  1  0  0  0  0
 42 52  1  1  0  0  0
 42 40  1  0  0  0  0
 43 38  1  0  0  0  0
 44 33  1  0  0  0  0
 44 42  1  0  0  0  0
 45 39  1  0  0  0  0
 45 43  2  0  0  0  0
 46 40  1  0  0  0  0
 46 39  1  0  0  0  0
 47 48  1  1  0  0  0
 47 51  1  0  0  0  0
 47 43  1  0  0  0  0
 49 48  1  0  0  0  0
 50 51  2  0  0  0  0
 53 54  1  0  0  0  0
 53 52  1  0  0  0  0
 55 54  1  0  0  0  0
M  END
>  <MODEL>
2

>  <REMARK>
 VINA RESULT:      -7.7      4.396      8.767
  Name = 
  15 active torsions:
  status: ('A' for Active; 'I' for Inactive)
    1  A    between atoms: O_2  and  C_28
    2  A    between atoms: O_2  and  C_44
    3  A    between atoms: O_3  and  C_38
    4  A    between atoms: O_3  and  C_46
    5  A    between atoms: C_4  and  C_19
    6  A    between atoms: C_6  and  C_20
    7  A    between atoms: C_10  and  N_18
    8  A    between atoms: C_11  and  C_38
    9  A    between atoms: N_18  and  C_32
   10  A    between atoms: C_19  and  C_40
   11  A    between atoms: C_19  and  C_45
   12  A    between atoms: C_27  and  C_54
   13  A    between atoms: C_28  and  C_49
   14  A    between atoms: C_32  and  C_39
   15  A    between atoms: N_35  and  C_51
                            x       y       z     vdW  Elec       q    Type
                         _______ _______ _______ _____ _____    ______ ____

>  <TORSDO>
F 15

$$$$
=
 OpenBabel10262420393D

 55 60  0  0  1  0  0  0  0  0999 V2000
  185.6070  178.2180  139.3190 C   0  0  0  0  0  2  0  0  0  0  0  0
  188.0660  177.1570  138.4790 C   0  0  2  0  0  3  0  0  0  0  0  0
  186.8880  177.0430  137.4970 C   0  0  0  0  0  2  0  0  0  0  0  0
  186.9340  178.5950  140.0050 C   0  0  0  0  0  2  0  0  0  0  0  0
  185.7780  178.0510  137.8120 C   0  0  1  0  0  3  0  0  0  0  0  0
  188.0900  178.4730  139.1100 N   0  0  0  0  0  2  0  0  0  0  0  0
  190.1220  175.8720  138.0760 C   0  0  0  0  0  3  0  0  0  0  0  0
  189.3590  176.9190  137.7790 C   0  0  0  0  0  3  0  0  0  0  0  0
  193.0270  175.1520  134.6540 O   0  0  0  0  0  1  0  0  0  0  0  0
  192.5000  176.5440  137.5740 C   0  0  1  0  0  3  0  0  0  0  0  0
  193.0750  174.7500  135.9960 C   0  0  1  0  0  0  0  0  0  0  0  0
  193.6620  175.8800  136.8590 C   0  0  1  0  0  3  0  0  0  0  0  0
  191.3770  175.6380  137.4200 N   0  0  0  0  0  0  0  0  0  0  0  0
  194.3680  176.8190  136.1030 O   0  0  0  0  0  1  0  0  0  0  0  0
  192.8600  176.7050  139.0410 C   0  0  0  0  0  1  0  0  0  0  0  0
  191.6510  174.5150  136.5320 C   0  0  1  0  0  3  0  0  0  0  0  0
  195.6490  172.4860  137.2060 C   0  0  0  0  0  0  0  0  0  0  0  0
  193.9510  173.4820  136.0980 C   0  0  1  0  0  3  0  0  0  0  0  0
  195.8270  174.4420  134.6600 C   0  0  0  0  0  1  0  0  0  0  0  0
  194.9970  173.2180  135.0210 C   0  0  1  0  0  3  0  0  0  0  0  0
  195.4330  171.2070  138.0060 C   0  0  0  0  0  1  0  0  0  0  0  0
  195.8880  172.2300  135.7090 C   0  0  2  0  0  3  0  0  0  0  0  0
  196.8690  173.1890  137.7730 C   0  0  0  0  0  1  0  0  0  0  0  0
  195.5150  170.9360  135.3260 O   0  0  0  0  0  1  0  0  0  0  0  0
  194.5290  173.3290  137.3690 O   0  0  0  0  0  0  0  0  0  0  0  0
  190.7030  174.4760  135.4980 O   0  0  0  0  0  0  0  0  0  0  0  0
  190.2910  173.1420  135.4160 C   0  0  0  0  0  2  0  0  0  0  0  0
  188.8930  172.9880  135.9840 C   0  0  0  0  0  2  0  0  0  0  0  0
  187.9580  173.4620  135.0820 F   0  0  0  0  0  0  0  0  0  0  0  0
  184.5730  177.6350  137.2440 O   0  0  0  0  0  0  0  0  0  0  0  0
  183.9430  176.8790  138.2370 C   0  0  0  0  0  2  0  0  0  0  0  0
  181.4980  173.0900  136.0590 C   0  0  0  0  0  2  0  0  0  0  0  0
  182.1790  179.2330  138.4650 C   0  0  0  0  0  2  0  0  0  0  0  0
  179.5320  172.5150  137.1610 C   0  0  0  0  0  2  0  0  0  0  0  0
  180.3260  174.8520  137.4210 N   0  0  0  0  0  0  0  0  0  0  0  0
  179.3070  173.8750  137.8120 C   0  0  0  0  0  2  0  0  0  0  0  0
  180.9560  172.2320  137.1020 N   0  0  0  0  0  2  0  0  0  0  0  0
  181.4010  174.5750  136.4520 C   0  0  1  0  0  3  0  0  0  0  0  0
  181.3660  176.8410  138.1410 C   0  0  0  0  0  0  0  0  0  0  0  0
  180.2490  178.4560  139.5770 O   0  0  0  0  0  0  0  0  0  0  0  0
  180.2950  176.1110  138.0400 N   0  0  0  0  0  0  0  0  0  0  0  0
  180.7990  179.4820  140.3640 C   0  0  1  0  0  3  0  0  0  0  0  0
  182.7100  175.1700  136.9200 C   0  0  0  0  0  0  0  0  0  0  0  0
  181.8010  180.2430  139.5060 C   0  0  0  0  0  2  0  0  0  0  0  0
  182.6790  176.2840  137.6930 C   0  0  0  0  0  0  0  0  0  0  0  0
  181.2460  178.1560  138.7090 N   0  0  0  0  0  0  0  0  0  0  0  0
  183.9880  174.5870  136.3540 C   0  0  2  0  0  3  0  0  0  0  0  0
  185.0370  174.1080  137.3630 C   0  0  0  0  0  2  0  0  0  0  0  0
  185.2760  172.6090  137.3310 C   0  0  0  0  0  1  0  0  0  0  0  0
  185.6800  175.3330  134.8590 O   0  0  0  0  0  0  0  0  0  0  0  0
  184.4840  175.1970  135.0740 C   0  0  0  0  0  3  0  0  0  0  0  0
  179.6980  180.4100  140.8510 C   0  0  0  0  0  2  0  0  0  0  0  0
  179.8600  180.6790  142.2720 N   0  0  0  0  0  2  0  0  0  0  0  0
  179.6650  179.4250  142.9820 C   0  0  0  0  0  2  0  0  0  0  0  0
  180.8310  179.0870  143.6730 O   0  0  0  0  0  1  0  0  0  0  0  0
  1  4  1  0  0  0  0
  2  8  1  6  0  0  0
  2  6  1  0  0  0  0
  3  5  1  0  0  0  0
  3  2  1  0  0  0  0
  5 30  1  1  0  0  0
  5  1  1  0  0  0  0
  6  4  1  0  0  0  0
  8  7  2  0  0  0  0
 10 15  1  1  0  0  0
 11  9  1  6  0  0  0
 11 18  1  0  0  0  0
 11 16  1  0  0  0  0
 11 12  1  0  0  0  0
 12 14  1  6  0  0  0
 12 10  1  0  0  0  0
 13 10  1  0  0  0  0
 13  7  1  0  0  0  0
 16 26  1  6  0  0  0
 16 13  1  0  0  0  0
 17 25  1  0  0  0  0
 17 23  1  0  0  0  0
 17 21  1  0  0  0  0
 18 25  1  1  0  0  0
 20 19  1  1  0  0  0
 20 22  1  0  0  0  0
 20 18  1  0  0  0  0
 22 24  1  6  0  0  0
 22 17  1  0  0  0  0
 27 26  1  0  0  0  0
 27 28  1  0  0  0  0
 29 28  1  0  0  0  0
 30 31  1  0  0  0  0
 32 37  1  0  0  0  0
 33 46  1  0  0  0  0
 33 44  1  0  0  0  0
 34 36  1  0  0  0  0
 35 36  1  0  0  0  0
 35 41  1  0  0  0  0
 37 34  1  0  0  0  0
 38 32  1  1  0  0  0
 38 43  1  0  0  0  0
 38 35  1  0  0  0  0
 39 46  1  0  0  0  0
 40 42  1  0  0  0  0
 41 39  2  0  0  0  0
 42 52  1  6  0  0  0
 43 45  2  0  0  0  0
 44 42  1  0  0  0  0
 45 39  1  0  0  0  0
 45 31  1  0  0  0  0
 46 40  1  0  0  0  0
 47 51  1  1  0  0  0
 47 43  1  0  0  0  0
 47 48  1  0  0  0  0
 49 48  1  0  0  0  0
 50 51  2  0  0  0  0
 52 53  1  0  0  0  0
 53 54  1  0  0  0  0
 54 55  1  0  0  0  0
M  END
>  <MODEL>
3

>  <REMARK>
 VINA RESULT:      -6.8      4.502     10.892
  Name = 
  15 active torsions:
  status: ('A' for Active; 'I' for Inactive)
    1  A    between atoms: O_2  and  C_28
    2  A    between atoms: O_2  and  C_44
    3  A    between atoms: O_3  and  C_38
    4  A    between atoms: O_3  and  C_46
    5  A    between atoms: C_4  and  C_19
    6  A    between atoms: C_6  and  C_20
    7  A    between atoms: C_10  and  N_18
    8  A    between atoms: C_11  and  C_38
    9  A    between atoms: N_18  and  C_32
   10  A    between atoms: C_19  and  C_40
   11  A    between atoms: C_19  and  C_45
   12  A    between atoms: C_27  and  C_54
   13  A    between atoms: C_28  and  C_49
   14  A    between atoms: C_32  and  C_39
   15  A    between atoms: N_35  and  C_51
                            x       y       z     vdW  Elec       q    Type
                         _______ _______ _______ _____ _____    ______ ____

>  <TORSDO>
F 15

$$$$
=
 OpenBabel10262420393D

 55 60  0  0  1  0  0  0  0  0999 V2000
  191.2190  176.6600  138.8640 C   0  0  0  0  0  2  0  0  0  0  0  0
  188.7440  177.7240  138.0780 C   0  0  2  0  0  3  0  0  0  0  0  0
  189.0830  176.3100  137.5770 C   0  0  0  0  0  2  0  0  0  0  0  0
  190.5850  177.8650  139.5830 C   0  0  0  0  0  2  0  0  0  0  0  0
  190.1680  175.6430  138.4300 C   0  0  1  0  0  3  0  0  0  0  0  0
  189.1220  177.8840  139.4780 N   0  0  0  0  0  2  0  0  0  0  0  0
  186.3930  177.4810  138.7540 C   0  0  0  0  0  3  0  0  0  0  0  0
  187.2890  178.0020  137.9210 C   0  0  0  0  0  3  0  0  0  0  0  0
  182.4630  179.7560  138.9590 O   0  0  0  0  0  1  0  0  0  0  0  0
  184.3210  177.6070  137.3240 C   0  0  1  0  0  3  0  0  0  0  0  0
  182.7300  178.3810  139.0300 C   0  0  1  0  0  0  0  0  0  0  0  0
  182.8440  177.7980  137.6120 C   0  0  1  0  0  3  0  0  0  0  0  0
  184.9880  177.7280  138.6080 N   0  0  0  0  0  0  0  0  0  0  0  0
  182.2630  178.6240  136.6450 O   0  0  0  0  0  1  0  0  0  0  0  0
  184.5280  176.2200  136.7420 C   0  0  0  0  0  1  0  0  0  0  0  0
  184.1020  178.1400  139.6890 C   0  0  1  0  0  3  0  0  0  0  0  0
  179.8590  176.2450  139.6660 C   0  0  0  0  0  0  0  0  0  0  0  0
  181.5840  177.6970  139.8060 C   0  0  1  0  0  3  0  0  0  0  0  0
  179.8340  179.4090  139.0890 C   0  0  0  0  0  1  0  0  0  0  0  0
  180.3670  178.5230  140.2070 C   0  0  1  0  0  3  0  0  0  0  0  0
  179.8510  174.9420  140.4570 C   0  0  0  0  0  1  0  0  0  0  0  0
  179.3570  177.4500  140.4800 C   0  0  2  0  0  3  0  0  0  0  0  0
  178.9480  176.0660  138.4650 C   0  0  0  0  0  1  0  0  0  0  0  0
  179.3330  177.1880  141.8550 O   0  0  0  0  0  1  0  0  0  0  0  0
  181.1680  176.4980  139.2030 O   0  0  0  0  0  0  0  0  0  0  0  0
  184.5980  179.3000  140.3030 O   0  0  0  0  0  0  0  0  0  0  0  0
  184.3600  179.1310  141.6710 C   0  0  0  0  0  2  0  0  0  0  0  0
  185.6700  179.1450  142.4380 C   0  0  0  0  0  2  0  0  0  0  0  0
  186.5420  178.2140  141.9050 F   0  0  0  0  0  0  0  0  0  0  0  0
  190.7760  174.6100  137.7160 O   0  0  0  0  0  0  0  0  0  0  0  0
  191.2660  175.2100  136.5520 C   0  0  0  0  0  2  0  0  0  0  0  0
  195.2940  172.6070  135.1120 C   0  0  0  0  0  2  0  0  0  0  0  0
  188.9880  174.6340  134.7680 C   0  0  0  0  0  2  0  0  0  0  0  0
  194.9140  170.3150  135.0120 C   0  0  0  0  0  2  0  0  0  0  0  0
  192.9450  171.7960  134.7160 N   0  0  0  0  0  0  0  0  0  0  0  0
  193.4070  170.4080  134.8070 C   0  0  0  0  0  2  0  0  0  0  0  0
  195.3540  171.3820  135.8950 N   0  0  0  0  0  2  0  0  0  0  0  0
  193.8430  172.9630  134.7440 C   0  0  1  0  0  3  0  0  0  0  0  0
  191.0360  173.1410  135.0290 C   0  0  0  0  0  0  0  0  0  0  0  0
  188.7730  172.2840  134.7770 O   0  0  0  0  0  0  0  0  0  0  0  0
  191.5620  172.0190  134.6390 N   0  0  0  0  0  0  0  0  0  0  0  0
  187.5590  172.8150  135.2440 C   0  0  1  0  0  3  0  0  0  0  0  0
  193.2520  174.0720  135.5890 C   0  0  0  0  0  0  0  0  0  0  0  0
  187.5330  174.2970  134.8950 C   0  0  0  0  0  2  0  0  0  0  0  0
  191.9030  174.1720  135.6790 C   0  0  0  0  0  0  0  0  0  0  0  0
  189.6240  173.3370  134.8420 N   0  0  0  0  0  0  0  0  0  0  0  0
  194.2030  175.1120  136.1440 C   0  0  2  0  0  3  0  0  0  0  0  0
  194.3270  175.1920  137.6690 C   0  0  0  0  0  2  0  0  0  0  0  0
  194.7020  173.8730  138.3220 C   0  0  0  0  0  1  0  0  0  0  0  0
  195.1370  177.2450  135.6580 O   0  0  0  0  0  0  0  0  0  0  0  0
  194.3040  176.3960  135.3710 C   0  0  0  0  0  3  0  0  0  0  0  0
  186.3910  172.0910  134.5950 C   0  0  0  0  0  2  0  0  0  0  0  0
  185.6130  171.3870  135.6030 N   0  0  0  0  0  2  0  0  0  0  0  0
  184.6490  172.3280  136.1510 C   0  0  0  0  0  2  0  0  0  0  0  0
  184.9170  172.5430  137.5060 O   0  0  0  0  0  1  0  0  0  0  0  0
  1  4  1  0  0  0  0
  2  8  1  1  0  0  0
  2  6  1  0  0  0  0
  3  2  1  0  0  0  0
  3  5  1  0  0  0  0
  5 30  1  6  0  0  0
  5  1  1  0  0  0  0
  6  4  1  0  0  0  0
  8  7  2  0  0  0  0
 10 15  1  1  0  0  0
 10 12  1  0  0  0  0
 10 13  1  0  0  0  0
 11  9  1  6  0  0  0
 11 16  1  0  0  0  0
 11 18  1  0  0  0  0
 12 14  1  6  0  0  0
 12 11  1  0  0  0  0
 13  7  1  0  0  0  0
 13 16  1  0  0  0  0
 16 26  1  6  0  0  0
 17 21  1  0  0  0  0
 17 22  1  0  0  0  0
 18 25  1  6  0  0  0
 18 20  1  0  0  0  0
 20 19  1  6  0  0  0
 20 22  1  0  0  0  0
 22 24  1  1  0  0  0
 23 17  1  0  0  0  0
 25 17  1  0  0  0  0
 26 27  1  0  0  0  0
 27 28  1  0  0  0  0
 29 28  1  0  0  0  0
 31 30  1  0  0  0  0
 32 37  1  0  0  0  0
 33 46  1  0  0  0  0
 33 44  1  0  0  0  0
 34 37  1  0  0  0  0
 35 38  1  0  0  0  0
 35 36  1  0  0  0  0
 36 34  1  0  0  0  0
 38 32  1  1  0  0  0
 38 43  1  0  0  0  0
 39 45  1  0  0  0  0
 40 46  1  0  0  0  0
 40 42  1  0  0  0  0
 41 35  1  0  0  0  0
 41 39  2  0  0  0  0
 42 52  1  6  0  0  0
 43 45  2  0  0  0  0
 43 47  1  0  0  0  0
 44 42  1  0  0  0  0
 45 31  1  0  0  0  0
 46 39  1  0  0  0  0
 47 51  1  1  0  0  0
 47 48  1  0  0  0  0
 48 49  1  0  0  0  0
 51 50  2  0  0  0  0
 52 53  1  0  0  0  0
 53 54  1  0  0  0  0
 54 55  1  0  0  0  0
M  END
>  <MODEL>
4

>  <REMARK>
 VINA RESULT:      -6.7      3.907      8.600
  Name = 
  15 active torsions:
  status: ('A' for Active; 'I' for Inactive)
    1  A    between atoms: O_2  and  C_28
    2  A    between atoms: O_2  and  C_44
    3  A    between atoms: O_3  and  C_38
    4  A    between atoms: O_3  and  C_46
    5  A    between atoms: C_4  and  C_19
    6  A    between atoms: C_6  and  C_20
    7  A    between atoms: C_10  and  N_18
    8  A    between atoms: C_11  and  C_38
    9  A    between atoms: N_18  and  C_32
   10  A    between atoms: C_19  and  C_40
   11  A    between atoms: C_19  and  C_45
   12  A    between atoms: C_27  and  C_54
   13  A    between atoms: C_28  and  C_49
   14  A    between atoms: C_32  and  C_39
   15  A    between atoms: N_35  and  C_51
                            x       y       z     vdW  Elec       q    Type
                         _______ _______ _______ _____ _____    ______ ____

>  <TORSDO>
F 15

$$$$
=
 OpenBabel10262420393D

 55 60  0  0  1  0  0  0  0  0999 V2000
  191.2840  177.0990  140.6720 C   0  0  0  0  0  2  0  0  0  0  0  0
  188.7360  178.1150  140.0770 C   0  0  2  0  0  3  0  0  0  0  0  0
  189.4770  177.3890  138.9420 C   0  0  0  0  0  2  0  0  0  0  0  0
  190.2860  177.4920  141.7760 C   0  0  0  0  0  2  0  0  0  0  0  0
  190.5820  176.4700  139.4720 C   0  0  1  0  0  3  0  0  0  0  0  0
  188.8890  177.3970  141.3390 N   0  0  0  0  0  2  0  0  0  0  0  0
  186.4130  178.6530  140.6720 C   0  0  0  0  0  3  0  0  0  0  0  0
  187.2880  178.2530  139.7560 C   0  0  0  0  0  3  0  0  0  0  0  0
  182.1090  180.0370  141.1480 O   0  0  0  0  0  1  0  0  0  0  0  0
  184.5390  179.2520  139.0950 C   0  0  1  0  0  3  0  0  0  0  0  0
  182.6370  178.8590  140.6000 C   0  0  1  0  0  0  0  0  0  0  0  0
  183.0310  179.0990  139.1330 C   0  0  1  0  0  3  0  0  0  0  0  0
  185.0130  178.7770  140.3820 N   0  0  0  0  0  0  0  0  0  0  0  0
  182.4130  180.2280  138.5900 O   0  0  0  0  0  1  0  0  0  0  0  0
  185.0890  178.3900  137.9710 C   0  0  0  0  0  1  0  0  0  0  0  0
  183.9420  178.4750  141.3230 C   0  0  1  0  0  3  0  0  0  0  0  0
  180.2300  176.3550  139.5290 C   0  0  0  0  0  0  0  0  0  0  0  0
  181.5690  177.7490  140.6990 C   0  0  1  0  0  3  0  0  0  0  0  0
  179.6070  179.3650  140.4760 C   0  0  0  0  0  1  0  0  0  0  0  0
  180.1600  178.1170  141.1500 C   0  0  1  0  0  3  0  0  0  0  0  0
  180.3930  174.8410  139.6120 C   0  0  0  0  0  1  0  0  0  0  0  0
  179.3760  176.9340  140.6700 C   0  0  2  0  0  3  0  0  0  0  0  0
  179.5520  176.6780  138.2110 C   0  0  0  0  0  1  0  0  0  0  0  0
  179.2210  176.0300  141.7280 O   0  0  0  0  0  1  0  0  0  0  0  0
  181.5050  176.9590  139.5390 O   0  0  0  0  0  0  0  0  0  0  0  0
  184.1190  179.2080  142.5060 O   0  0  0  0  0  0  0  0  0  0  0  0
  184.1960  178.2570  143.5290 C   0  0  0  0  0  2  0  0  0  0  0  0
  185.5410  178.3430  144.2260 C   0  0  0  0  0  2  0  0  0  0  0  0
  185.3940  178.0830  145.5760 F   0  0  0  0  0  0  0  0  0  0  0  0
  191.5120  176.2030  138.4660 O   0  0  0  0  0  0  0  0  0  0  0  0
  190.8440  176.4790  137.2690 C   0  0  0  0  0  2  0  0  0  0  0  0
  193.9110  173.2520  134.9790 C   0  0  0  0  0  2  0  0  0  0  0  0
  188.1420  176.3280  136.0940 C   0  0  0  0  0  2  0  0  0  0  0  0
  193.1370  171.0590  135.0300 C   0  0  0  0  0  2  0  0  0  0  0  0
  191.4340  172.8590  135.1740 N   0  0  0  0  0  0  0  0  0  0  0  0
  191.6620  171.4120  135.1870 C   0  0  0  0  0  2  0  0  0  0  0  0
  193.9490  172.0220  135.7560 N   0  0  0  0  0  2  0  0  0  0  0  0
  192.4960  173.8560  134.9580 C   0  0  1  0  0  3  0  0  0  0  0  0
  189.9100  174.5050  135.8980 C   0  0  0  0  0  0  0  0  0  0  0  0
  187.5420  174.0500  136.2120 O   0  0  0  0  0  0  0  0  0  0  0  0
  190.1310  173.3160  135.4220 N   0  0  0  0  0  0  0  0  0  0  0  0
  186.5820  174.7720  136.9420 C   0  0  1  0  0  3  0  0  0  0  0  0
  192.3210  175.0350  135.8900 C   0  0  0  0  0  0  0  0  0  0  0  0
  186.7250  176.2430  136.5720 C   0  0  0  0  0  2  0  0  0  0  0  0
  191.0690  175.3620  136.2960 C   0  0  0  0  0  0  0  0  0  0  0  0
  188.5490  174.9410  136.0470 N   0  0  0  0  0  0  0  0  0  0  0  0
  193.5380  175.8890  136.1770 C   0  0  2  0  0  3  0  0  0  0  0  0
  194.0730  176.7410  135.0220 C   0  0  0  0  0  2  0  0  0  0  0  0
  195.5860  176.7120  134.8910 C   0  0  0  0  0  1  0  0  0  0  0  0
  194.1850  174.6590  138.1080 O   0  0  0  0  0  0  0  0  0  0  0  0
  194.5400  175.3130  137.1370 C   0  0  0  0  0  3  0  0  0  0  0  0
  185.1880  174.2680  136.6070 C   0  0  0  0  0  2  0  0  0  0  0  0
  184.9190  173.0250  137.3140 N   0  0  0  0  0  2  0  0  0  0  0  0
  183.6460  172.5120  136.8340 C   0  0  0  0  0  2  0  0  0  0  0  0
  183.5000  171.1760  137.2160 O   0  0  0  0  0  1  0  0  0  0  0  0
  1  4  1  0  0  0  0
  2  8  1  6  0  0  0
  2  6  1  0  0  0  0
  3  5  1  0  0  0  0
  3  2  1  0  0  0  0
  5 30  1  6  0  0  0
  5  1  1  0  0  0  0
  6  4  1  0  0  0  0
  8  7  2  0  0  0  0
 10 15  1  6  0  0  0
 10 12  1  0  0  0  0
 10 13  1  0  0  0  0
 11 18  1  0  0  0  0
 11  9  1  1  0  0  0
 11 16  1  0  0  0  0
 12 14  1  1  0  0  0
 12 11  1  0  0  0  0
 13  7  1  0  0  0  0
 13 16  1  0  0  0  0
 16 26  1  1  0  0  0
 17 25  1  0  0  0  0
 17 21  1  0  0  0  0
 17 22  1  0  0  0  0
 18 25  1  6  0  0  0
 18 20  1  0  0  0  0
 20 19  1  6  0  0  0
 22 20  1  0  0  0  0
 22 24  1  1  0  0  0
 23 17  1  0  0  0  0
 26 27  1  0  0  0  0
 27 28  1  0  0  0  0
 28 29  1  0  0  0  0
 31 30  1  0  0  0  0
 32 37  1  0  0  0  0
 33 44  1  0  0  0  0
 34 36  1  0  0  0  0
 34 37  1  0  0  0  0
 35 36  1  0  0  0  0
 35 41  1  0  0  0  0
 38 32  1  1  0  0  0
 38 35  1  0  0  0  0
 38 43  1  0  0  0  0
 39 46  1  0  0  0  0
 39 45  1  0  0  0  0
 40 42  1  0  0  0  0
 41 39  2  0  0  0  0
 42 52  1  6  0  0  0
 43 47  1  0  0  0  0
 43 45  2  0  0  0  0
 44 42  1  0  0  0  0
 45 31  1  0  0  0  0
 46 33  1  0  0  0  0
 46 40  1  0  0  0  0
 47 48  1  6  0  0  0
 47 51  1  0  0  0  0
 49 48  1  0  0  0  0
 51 50  2  0  0  0  0
 52 53  1  0  0  0  0
 54 55  1  0  0  0  0
 54 53  1  0  0  0  0
M  END
>  <MODEL>
5

>  <REMARK>
 VINA RESULT:      -6.7      3.209      8.276
  Name = 
  15 active torsions:
  status: ('A' for Active; 'I' for Inactive)
    1  A    between atoms: O_2  and  C_28
    2  A    between atoms: O_2  and  C_44
    3  A    between atoms: O_3  and  C_38
    4  A    between atoms: O_3  and  C_46
    5  A    between atoms: C_4  and  C_19
    6  A    between atoms: C_6  and  C_20
    7  A    between atoms: C_10  and  N_18
    8  A    between atoms: C_11  and  C_38
    9  A    between atoms: N_18  and  C_32
   10  A    between atoms: C_19  and  C_40
   11  A    between atoms: C_19  and  C_45
   12  A    between atoms: C_27  and  C_54
   13  A    between atoms: C_28  and  C_49
   14  A    between atoms: C_32  and  C_39
   15  A    between atoms: N_35  and  C_51
                            x       y       z     vdW  Elec       q    Type
                         _______ _______ _______ _____ _____    ______ ____

>  <TORSDO>
F 15

$$$$
=
 OpenBabel10262420393D

 55 60  0  0  1  0  0  0  0  0999 V2000
  187.8570  178.5420  140.3080 C   0  0  0  0  0  2  0  0  0  0  0  0
  190.2940  177.5230  139.3580 C   0  0  2  0  0  3  0  0  0  0  0  0
  189.7230  176.8830  140.6350 C   0  0  0  0  0  2  0  0  0  0  0  0
  188.3430  178.8010  138.8700 C   0  0  0  0  0  2  0  0  0  0  0  0
  188.2190  177.1380  140.7830 C   0  0  1  0  0  3  0  0  0  0  0  0
  189.2380  177.7500  138.3750 N   0  0  0  0  0  2  0  0  0  0  0  0
  191.4530  176.5010  137.4470 C   0  0  0  0  0  3  0  0  0  0  0  0
  191.3490  176.6570  138.7630 C   0  0  0  0  0  3  0  0  0  0  0  0
  193.2700  173.4550  134.6030 O   0  0  0  0  0  1  0  0  0  0  0  0
  193.7000  176.2000  136.3420 C   0  0  1  0  0  3  0  0  0  0  0  0
  193.5960  173.7800  135.9280 C   0  0  1  0  0  0  0  0  0  0  0  0
  194.5360  174.9960  135.9510 C   0  0  1  0  0  3  0  0  0  0  0  0
  192.4550  175.6590  136.8590 N   0  0  0  0  0  0  0  0  0  0  0  0
  195.1570  175.2170  134.7180 O   0  0  0  0  0  1  0  0  0  0  0  0
  194.4360  176.9740  137.4220 C   0  0  0  0  0  1  0  0  0  0  0  0
  192.3330  174.2170  136.6940 C   0  0  1  0  0  3  0  0  0  0  0  0
  196.0000  171.1020  136.4400 C   0  0  0  0  0  0  0  0  0  0  0  0
  194.2770  172.5580  136.5800 C   0  0  1  0  0  3  0  0  0  0  0  0
  193.0970  170.8690  135.0750 C   0  0  0  0  0  1  0  0  0  0  0  0
  193.6070  171.1920  136.4730 C   0  0  1  0  0  3  0  0  0  0  0  0
  197.0750  171.0380  137.5190 C   0  0  0  0  0  1  0  0  0  0  0  0
  194.7500  170.2750  136.7830 C   0  0  2  0  0  3  0  0  0  0  0  0
  196.5970  170.5580  135.1550 C   0  0  0  0  0  1  0  0  0  0  0  0
  194.6990  169.9270  138.1380 O   0  0  0  0  0  1  0  0  0  0  0  0
  195.6340  172.4490  136.2300 O   0  0  0  0  0  0  0  0  0  0  0  0
  191.1600  173.9100  135.9870 O   0  0  0  0  0  0  0  0  0  0  0  0
  190.2710  173.3990  136.9380 C   0  0  0  0  0  2  0  0  0  0  0  0
  188.8610  173.3730  136.3780 C   0  0  0  0  0  2  0  0  0  0  0  0
  188.1090  174.3900  136.9350 F   0  0  0  0  0  0  0  0  0  0  0  0
  187.8310  176.9740  142.1140 O   0  0  0  0  0  0  0  0  0  0  0  0
  188.5790  177.9140  142.8300 C   0  0  0  0  0  2  0  0  0  0  0  0
  190.9510  176.9350  147.1290 C   0  0  0  0  0  2  0  0  0  0  0  0
  185.6760  177.4910  143.1480 C   0  0  0  0  0  2  0  0  0  0  0  0
  190.1500  178.1820  148.9220 C   0  0  0  0  0  2  0  0  0  0  0  0
  188.5750  177.7580  147.0520 N   0  0  0  0  0  0  0  0  0  0  0  0
  188.7610  178.4240  148.3440 C   0  0  0  0  0  2  0  0  0  0  0  0
  191.1330  178.1860  147.8510 N   0  0  0  0  0  2  0  0  0  0  0  0
  189.5860  176.8920  146.4220 C   0  0  1  0  0  3  0  0  0  0  0  0
  187.3030  177.8700  145.0710 C   0  0  0  0  0  0  0  0  0  0  0  0
  185.0580  178.8050  145.0070 O   0  0  0  0  0  0  0  0  0  0  0  0
  187.3760  177.9950  146.3630 N   0  0  0  0  0  0  0  0  0  0  0  0
  184.3110  179.2610  143.9080 C   0  0  1  0  0  3  0  0  0  0  0  0
  189.6610  177.1540  144.9330 C   0  0  0  0  0  0  0  0  0  0  0  0
  184.4040  178.2080  142.8110 C   0  0  0  0  0  2  0  0  0  0  0  0
  188.5440  177.5790  144.2910 C   0  0  0  0  0  0  0  0  0  0  0  0
  186.0240  178.0430  144.4380 N   0  0  0  0  0  0  0  0  0  0  0  0
  190.9340  176.7580  144.2150 C   0  0  2  0  0  3  0  0  0  0  0  0
  191.6150  177.8380  143.3690 C   0  0  0  0  0  2  0  0  0  0  0  0
  191.6110  179.2130  144.0140 C   0  0  0  0  0  1  0  0  0  0  0  0
  191.9640  174.6290  143.9610 O   0  0  0  0  0  0  0  0  0  0  0  0
  191.0000  175.3420  143.7170 C   0  0  0  0  0  3  0  0  0  0  0  0
  182.8640  179.4810  144.3180 C   0  0  0  0  0  2  0  0  0  0  0  0
  181.9720  179.1250  143.2240 N   0  0  0  0  0  2  0  0  0  0  0  0
  180.6100  179.1940  143.7270 C   0  0  0  0  0  2  0  0  0  0  0  0
  179.9480  177.9910  143.4670 O   0  0  0  0  0  1  0  0  0  0  0  0
  1  5  1  0  0  0  0
  2  8  1  6  0  0  0
  2  3  1  0  0  0  0
  3  5  1  0  0  0  0
  4  1  1  0  0  0  0
  5 30  1  1  0  0  0
  6  4  1  0  0  0  0
  6  2  1  0  0  0  0
  7  8  2  0  0  0  0
 10 13  1  0  0  0  0
 10 15  1  1  0  0  0
 11  9  1  6  0  0  0
 11 12  1  0  0  0  0
 11 18  1  0  0  0  0
 11 16  1  0  0  0  0
 12 14  1  6  0  0  0
 12 10  1  0  0  0  0
 13  7  1  0  0  0  0
 16 26  1  6  0  0  0
 16 13  1  0  0  0  0
 17 22  1  0  0  0  0
 17 21  1  0  0  0  0
 18 25  1  6  0  0  0
 20 19  1  6  0  0  0
 20 18  1  0  0  0  0
 20 22  1  0  0  0  0
 22 24  1  1  0  0  0
 23 17  1  0  0  0  0
 25 17  1  0  0  0  0
 26 27  1  0  0  0  0
 28 29  1  0  0  0  0
 28 27  1  0  0  0  0
 30 31  1  0  0  0  0
 31 45  1  0  0  0  0
 32 37  1  0  0  0  0
 33 46  1  0  0  0  0
 35 36  1  0  0  0  0
 36 34  1  0  0  0  0
 37 34  1  0  0  0  0
 38 35  1  0  0  0  0
 38 32  1  1  0  0  0
 39 41  2  0  0  0  0
 41 35  1  0  0  0  0
 42 52  1  1  0  0  0
 42 40  1  0  0  0  0
 43 38  1  0  0  0  0
 44 33  1  0  0  0  0
 44 42  1  0  0  0  0
 45 43  2  0  0  0  0
 45 39  1  0  0  0  0
 46 40  1  0  0  0  0
 46 39  1  0  0  0  0
 47 48  1  6  0  0  0
 47 43  1  0  0  0  0
 48 49  1  0  0  0  0
 51 50  2  0  0  0  0
 51 47  1  0  0  0  0
 53 54  1  0  0  0  0
 53 52  1  0  0  0  0
 55 54  1  0  0  0  0
M  END
>  <MODEL>
6

>  <REMARK>
 VINA RESULT:      -6.4      4.605      8.819
  Name = 
  15 active torsions:
  status: ('A' for Active; 'I' for Inactive)
    1  A    between atoms: O_2  and  C_28
    2  A    between atoms: O_2  and  C_44
    3  A    between atoms: O_3  and  C_38
    4  A    between atoms: O_3  and  C_46
    5  A    between atoms: C_4  and  C_19
    6  A    between atoms: C_6  and  C_20
    7  A    between atoms: C_10  and  N_18
    8  A    between atoms: C_11  and  C_38
    9  A    between atoms: N_18  and  C_32
   10  A    between atoms: C_19  and  C_40
   11  A    between atoms: C_19  and  C_45
   12  A    between atoms: C_27  and  C_54
   13  A    between atoms: C_28  and  C_49
   14  A    between atoms: C_32  and  C_39
   15  A    between atoms: N_35  and  C_51
                            x       y       z     vdW  Elec       q    Type
                         _______ _______ _______ _____ _____    ______ ____

>  <TORSDO>
F 15

$$$$
=
 OpenBabel10262420393D

 55 60  0  0  1  0  0  0  0  0999 V2000
  190.6280  177.6360  140.4870 C   0  0  0  0  0  2  0  0  0  0  0  0
  188.4810  176.9330  138.8210 C   0  0  2  0  0  3  0  0  0  0  0  0
  188.1340  177.6420  140.1420 C   0  0  0  0  0  2  0  0  0  0  0  0
  190.8300  177.2880  139.0010 C   0  0  0  0  0  2  0  0  0  0  0  0
  189.3310  178.4060  140.7160 C   0  0  1  0  0  3  0  0  0  0  0  0
  189.6390  177.5560  138.1870 N   0  0  0  0  0  2  0  0  0  0  0  0
  186.1030  176.6220  138.2820 C   0  0  0  0  0  3  0  0  0  0  0  0
  187.3230  176.9700  137.8850 C   0  0  0  0  0  3  0  0  0  0  0  0
  181.9370  177.6110  136.7540 O   0  0  0  0  0  1  0  0  0  0  0  0
  185.0960  177.1280  136.0260 C   0  0  1  0  0  3  0  0  0  0  0  0
  182.7670  176.5080  136.5040 C   0  0  1  0  0  0  0  0  0  0  0  0
  183.7560  176.8450  135.3760 C   0  0  1  0  0  3  0  0  0  0  0  0
  184.9810  176.6380  137.3880 N   0  0  0  0  0  0  0  0  0  0  0  0
  183.3450  177.9410  134.6120 O   0  0  0  0  0  1  0  0  0  0  0  0
  186.1740  176.3670  135.2730 C   0  0  0  0  0  1  0  0  0  0  0  0
  183.6350  176.2050  137.7400 C   0  0  1  0  0  3  0  0  0  0  0  0
  180.5160  173.6780  136.8720 C   0  0  0  0  0  0  0  0  0  0  0  0
  181.8820  175.3080  136.1070 C   0  0  1  0  0  3  0  0  0  0  0  0
  183.7130  173.5830  136.5340 C   0  0  0  0  0  1  0  0  0  0  0  0
  182.5500  174.0140  135.6520 C   0  0  1  0  0  3  0  0  0  0  0  0
  179.0420  173.6320  136.4870 C   0  0  0  0  0  1  0  0  0  0  0  0
  181.4350  173.0280  135.8240 C   0  0  2  0  0  3  0  0  0  0  0  0
  180.6780  172.9300  138.1820 C   0  0  0  0  0  1  0  0  0  0  0  0
  180.7930  172.8480  134.5940 O   0  0  0  0  0  1  0  0  0  0  0  0
  180.9000  175.0210  137.0710 O   0  0  0  0  0  0  0  0  0  0  0  0
  183.1870  176.8970  138.8760 O   0  0  0  0  0  0  0  0  0  0  0  0
  182.6320  175.9240  139.7130 C   0  0  0  0  0  2  0  0  0  0  0  0
  181.1980  176.2830  140.0570 C   0  0  0  0  0  2  0  0  0  0  0  0
  180.8020  177.3960  139.3400 F   0  0  0  0  0  0  0  0  0  0  0  0
  189.1490  178.6310  142.0810 O   0  0  0  0  0  0  0  0  0  0  0  0
  187.8060  178.3270  142.3260 C   0  0  0  0  0  2  0  0  0  0  0  0
  189.7920  177.0820  146.7500 C   0  0  0  0  0  2  0  0  0  0  0  0
  184.9450  177.6140  142.2550 C   0  0  0  0  0  2  0  0  0  0  0  0
  188.6820  178.0420  148.5550 C   0  0  0  0  0  2  0  0  0  0  0  0
  187.3670  177.6930  146.4800 N   0  0  0  0  0  0  0  0  0  0  0  0
  187.3450  178.2230  147.8450 C   0  0  0  0  0  2  0  0  0  0  0  0
  189.7680  178.2540  147.6130 N   0  0  0  0  0  2  0  0  0  0  0  0
  188.5220  176.9980  145.8860 C   0  0  1  0  0  3  0  0  0  0  0  0
  186.3090  177.9150  144.3850 C   0  0  0  0  0  0  0  0  0  0  0  0
  184.0010  178.6480  144.1540 O   0  0  0  0  0  0  0  0  0  0  0  0
  186.2310  177.8990  145.6820 N   0  0  0  0  0  0  0  0  0  0  0  0
  183.3340  179.1570  143.0270 C   0  0  1  0  0  3  0  0  0  0  0  0
  188.7290  177.4330  144.4520 C   0  0  0  0  0  0  0  0  0  0  0  0
  183.6500  178.2480  141.8470 C   0  0  0  0  0  2  0  0  0  0  0  0
  187.6500  177.8270  143.7300 C   0  0  0  0  0  0  0  0  0  0  0  0
  185.0950  178.0440  143.6270 N   0  0  0  0  0  0  0  0  0  0  0  0
  190.1050  177.2360  143.8510 C   0  0  2  0  0  3  0  0  0  0  0  0
  190.6900  175.8210  143.9110 C   0  0  0  0  0  2  0  0  0  0  0  0
  192.1620  175.7830  144.2830 C   0  0  0  0  0  1  0  0  0  0  0  0
  192.1580  178.3670  143.4530 O   0  0  0  0  0  0  0  0  0  0  0  0
  191.0590  178.3880  143.9890 C   0  0  0  0  0  3  0  0  0  0  0  0
  181.8360  179.1990  143.2850 C   0  0  0  0  0  2  0  0  0  0  0  0
  181.1130  179.3030  142.0270 N   0  0  0  0  0  2  0  0  0  0  0  0
  179.6910  179.2520  142.3320 C   0  0  0  0  0  2  0  0  0  0  0  0
  179.4420  178.2370  143.2580 O   0  0  0  0  0  1  0  0  0  0  0  0
  1  5  1  0  0  0  0
  2  8  1  6  0  0  0
  2  3  1  0  0  0  0
  3  5  1  0  0  0  0
  4  1  1  0  0  0  0
  5 30  1  1  0  0  0
  6  2  1  0  0  0  0
  6  4  1  0  0  0  0
  8  7  2  0  0  0  0
 10 15  1  6  0  0  0
 10 13  1  0  0  0  0
 11  9  1  1  0  0  0
 11 16  1  0  0  0  0
 12 14  1  1  0  0  0
 12 10  1  0  0  0  0
 12 11  1  0  0  0  0
 13 16  1  0  0  0  0
 13  7  1  0  0  0  0
 16 26  1  1  0  0  0
 17 25  1  0  0  0  0
 17 23  1  0  0  0  0
 18 11  1  0  0  0  0
 18 25  1  1  0  0  0
 20 22  1  0  0  0  0
 20 18  1  0  0  0  0
 20 19  1  1  0  0  0
 21 17  1  0  0  0  0
 22 24  1  6  0  0  0
 22 17  1  0  0  0  0
 26 27  1  0  0  0  0
 27 28  1  0  0  0  0
 29 28  1  0  0  0  0
 30 31  1  0  0  0  0
 31 45  1  0  0  0  0
 32 37  1  0  0  0  0
 33 46  1  0  0  0  0
 35 36  1  0  0  0  0
 36 34  1  0  0  0  0
 37 34  1  0  0  0  0
 38 35  1  0  0  0  0
 38 32  1  1  0  0  0
 39 41  2  0  0  0  0
 41 35  1  0  0  0  0
 42 52  1  1  0  0  0
 42 40  1  0  0  0  0
 43 38  1  0  0  0  0
 44 33  1  0  0  0  0
 44 42  1  0  0  0  0
 45 39  1  0  0  0  0
 45 43  2  0  0  0  0
 46 40  1  0  0  0  0
 46 39  1  0  0  0  0
 47 48  1  1  0  0  0
 47 51  1  0  0  0  0
 47 43  1  0  0  0  0
 48 49  1  0  0  0  0
 50 51  2  0  0  0  0
 53 54  1  0  0  0  0
 53 52  1  0  0  0  0
 54 55  1  0  0  0  0
M  END
>  <MODEL>
7

>  <REMARK>
 VINA RESULT:      -5.9      2.082      5.039
  Name = 
  15 active torsions:
  status: ('A' for Active; 'I' for Inactive)
    1  A    between atoms: O_2  and  C_28
    2  A    between atoms: O_2  and  C_44
    3  A    between atoms: O_3  and  C_38
    4  A    between atoms: O_3  and  C_46
    5  A    between atoms: C_4  and  C_19
    6  A    between atoms: C_6  and  C_20
    7  A    between atoms: C_10  and  N_18
    8  A    between atoms: C_11  and  C_38
    9  A    between atoms: N_18  and  C_32
   10  A    between atoms: C_19  and  C_40
   11  A    between atoms: C_19  and  C_45
   12  A    between atoms: C_27  and  C_54
   13  A    between atoms: C_28  and  C_49
   14  A    between atoms: C_32  and  C_39
   15  A    between atoms: N_35  and  C_51
                            x       y       z     vdW  Elec       q    Type
                         _______ _______ _______ _____ _____    ______ ____

>  <TORSDO>
F 15

$$$$
=
 OpenBabel10262420393D

 55 60  0  0  1  0  0  0  0  0999 V2000
  184.9330  178.7440  145.2580 C   0  0  0  0  0  2  0  0  0  0  0  0
  184.1120  178.7710  142.5740 C   0  0  2  0  0  3  0  0  0  0  0  0
  185.3330  177.9010  142.9190 C   0  0  0  0  0  2  0  0  0  0  0  0
  183.5360  179.2370  144.8390 C   0  0  0  0  0  2  0  0  0  0  0  0
  185.3930  177.5600  144.4120 C   0  0  1  0  0  3  0  0  0  0  0  0
  183.0710  178.6280  143.5870 N   0  0  0  0  0  2  0  0  0  0  0  0
  182.4190  178.9120  140.7990 C   0  0  0  0  0  3  0  0  0  0  0  0
  183.5620  178.3990  141.2410 C   0  0  0  0  0  3  0  0  0  0  0  0
  179.2520  178.2060  137.6140 O   0  0  0  0  0  1  0  0  0  0  0  0
  182.3000  179.1980  138.2960 C   0  0  1  0  0  3  0  0  0  0  0  0
  180.4990  177.5970  137.8170 C   0  0  1  0  0  0  0  0  0  0  0  0
  181.6060  178.4490  137.1750 C   0  0  1  0  0  3  0  0  0  0  0  0
  181.8690  178.5520  139.5230 N   0  0  0  0  0  0  0  0  0  0  0  0
  181.1090  179.3460  136.2260 O   0  0  0  0  0  1  0  0  0  0  0  0
  183.8030  179.0580  138.1180 C   0  0  0  0  0  1  0  0  0  0  0  0
  180.8300  177.5510  139.3210 C   0  0  1  0  0  3  0  0  0  0  0  0
  181.4640  174.1620  137.1220 C   0  0  0  0  0  0  0  0  0  0  0  0
  180.4660  176.1880  137.1860 C   0  0  1  0  0  3  0  0  0  0  0  0
  182.1570  176.7650  135.3650 C   0  0  0  0  0  1  0  0  0  0  0  0
  180.8800  176.0200  135.7280 C   0  0  1  0  0  3  0  0  0  0  0  0
  180.7340  172.9020  137.5730 C   0  0  0  0  0  1  0  0  0  0  0  0
  181.1570  174.5490  135.6660 C   0  0  2  0  0  3  0  0  0  0  0  0
  182.9550  173.9050  137.2450 C   0  0  0  0  0  1  0  0  0  0  0  0
  180.0240  173.8940  135.1700 O   0  0  0  0  0  1  0  0  0  0  0  0
  181.1200  175.2290  137.9780 O   0  0  0  0  0  0  0  0  0  0  0  0
  179.7100  177.8520  140.1120 O   0  0  0  0  0  0  0  0  0  0  0  0
  179.6730  176.8630  141.1010 C   0  0  0  0  0  2  0  0  0  0  0  0
  178.9330  175.6400  140.5930 C   0  0  0  0  0  2  0  0  0  0  0  0
  179.7940  174.5610  140.5180 F   0  0  0  0  0  0  0  0  0  0  0  0
  186.6910  177.1980  144.7720 O   0  0  0  0  0  0  0  0  0  0  0  0
  187.5230  178.0910  144.0890 C   0  0  0  0  0  2  0  0  0  0  0  0
  191.1390  176.7170  147.2680 C   0  0  0  0  0  2  0  0  0  0  0  0
  188.6790  178.7760  141.4630 C   0  0  0  0  0  2  0  0  0  0  0  0
  192.4320  174.9530  146.4760 C   0  0  0  0  0  2  0  0  0  0  0  0
  191.3270  176.3880  144.7800 N   0  0  0  0  0  0  0  0  0  0  0  0
  192.1630  175.2050  144.9970 C   0  0  0  0  0  2  0  0  0  0  0  0
  191.2420  175.2650  147.2490 N   0  0  0  0  0  2  0  0  0  0  0  0
  190.8620  177.2750  145.8610 C   0  0  1  0  0  3  0  0  0  0  0  0
  189.8370  177.3490  143.2270 C   0  0  0  0  0  0  0  0  0  0  0  0
  189.9600  176.8950  140.8410 O   0  0  0  0  0  0  0  0  0  0  0  0
  190.9140  176.6640  143.4680 N   0  0  0  0  0  0  0  0  0  0  0  0
  188.9880  177.0860  139.8440 C   0  0  1  0  0  3  0  0  0  0  0  0
  189.4220  177.6810  145.6370 C   0  0  0  0  0  0  0  0  0  0  0  0
  188.4080  178.4830  140.0180 C   0  0  0  0  0  2  0  0  0  0  0  0
  188.9570  177.7570  144.3650 C   0  0  0  0  0  0  0  0  0  0  0  0
  189.5200  177.6700  141.8620 N   0  0  0  0  0  0  0  0  0  0  0  0
  188.6300  178.1490  146.8410 C   0  0  2  0  0  3  0  0  0  0  0  0
  189.3280  179.1300  147.7890 C   0  0  0  0  0  2  0  0  0  0  0  0
  189.4290  178.6310  149.2200 C   0  0  0  0  0  1  0  0  0  0  0  0
  188.0790  176.0310  147.7710 O   0  0  0  0  0  0  0  0  0  0  0  0
  187.6920  177.1450  147.4480 C   0  0  0  0  0  3  0  0  0  0  0  0
  189.6180  176.9360  138.4690 C   0  0  0  0  0  2  0  0  0  0  0  0
  188.6120  176.5390  137.4950 N   0  0  0  0  0  2  0  0  0  0  0  0
  188.6960  177.4640  136.3750 C   0  0  0  0  0  2  0  0  0  0  0  0
  188.2770  178.7340  136.7780 O   0  0  0  0  0  1  0  0  0  0  0  0
  2  8  1  6  0  0  0
  2  3  1  0  0  0  0
  2  6  1  0  0  0  0
  3  5  1  0  0  0  0
  4  1  1  0  0  0  0
  5 30  1  1  0  0  0
  5  1  1  0  0  0  0
  6  4  1  0  0  0  0
  7  8  2  0  0  0  0
 10 15  1  6  0  0  0
 10 13  1  0  0  0  0
 11  9  1  6  0  0  0
 11 16  1  0  0  0  0
 12 14  1  6  0  0  0
 12 11  1  0  0  0  0
 12 10  1  0  0  0  0
 13  7  1  0  0  0  0
 16 13  1  0  0  0  0
 16 26  1  1  0  0  0
 17 23  1  0  0  0  0
 17 21  1  0  0  0  0
 17 25  1  0  0  0  0
 18 11  1  0  0  0  0
 18 25  1  1  0  0  0
 20 19  1  1  0  0  0
 20 18  1  0  0  0  0
 22 24  1  1  0  0  0
 22 20  1  0  0  0  0
 22 17  1  0  0  0  0
 26 27  1  0  0  0  0
 28 27  1  0  0  0  0
 29 28  1  0  0  0  0
 31 45  1  0  0  0  0
 31 30  1  0  0  0  0
 33 46  1  0  0  0  0
 34 37  1  0  0  0  0
 35 36  1  0  0  0  0
 35 38  1  0  0  0  0
 36 34  1  0  0  0  0
 37 32  1  0  0  0  0
 38 32  1  1  0  0  0
 39 41  2  0  0  0  0
 39 45  1  0  0  0  0
 40 46  1  0  0  0  0
 41 35  1  0  0  0  0
 42 52  1  6  0  0  0
 42 44  1  0  0  0  0
 42 40  1  0  0  0  0
 43 38  1  0  0  0  0
 43 47  1  0  0  0  0
 44 33  1  0  0  0  0
 45 43  2  0  0  0  0
 46 39  1  0  0  0  0
 47 51  1  1  0  0  0
 47 48  1  0  0  0  0
 48 49  1  0  0  0  0
 51 50  2  0  0  0  0
 53 52  1  0  0  0  0
 54 55  1  0  0  0  0
 54 53  1  0  0  0  0
M  END
>  <MODEL>
8

>  <REMARK>
 VINA RESULT:      -5.8      1.672      2.315
  Name = 
  15 active torsions:
  status: ('A' for Active; 'I' for Inactive)
    1  A    between atoms: O_2  and  C_28
    2  A    between atoms: O_2  and  C_44
    3  A    between atoms: O_3  and  C_38
    4  A    between atoms: O_3  and  C_46
    5  A    between atoms: C_4  and  C_19
    6  A    between atoms: C_6  and  C_20
    7  A    between atoms: C_10  and  N_18
    8  A    between atoms: C_11  and  C_38
    9  A    between atoms: N_18  and  C_32
   10  A    between atoms: C_19  and  C_40
   11  A    between atoms: C_19  and  C_45
   12  A    between atoms: C_27  and  C_54
   13  A    between atoms: C_28  and  C_49
   14  A    between atoms: C_32  and  C_39
   15  A    between atoms: N_35  and  C_51
                            x       y       z     vdW  Elec       q    Type
                         _______ _______ _______ _____ _____    ______ ____

>  <TORSDO>
F 15

$$$$
=
 OpenBabel10262420393D

 55 60  0  0  1  0  0  0  0  0999 V2000
  186.8450  178.3110  141.6630 C   0  0  0  0  0  2  0  0  0  0  0  0
  189.0530  177.2940  140.2600 C   0  0  2  0  0  3  0  0  0  0  0  0
  187.7100  177.3310  139.5110 C   0  0  0  0  0  2  0  0  0  0  0  0
  188.2920  178.5660  142.1250 C   0  0  0  0  0  2  0  0  0  0  0  0
  186.7270  178.3220  140.1420 C   0  0  1  0  0  3  0  0  0  0  0  0
  189.2570  178.5230  141.0210 N   0  0  0  0  0  2  0  0  0  0  0  0
  190.6990  175.9050  139.0750 C   0  0  0  0  0  3  0  0  0  0  0  0
  190.1820  177.1080  139.3060 C   0  0  0  0  0  3  0  0  0  0  0  0
  192.8440  175.2450  135.1210 O   0  0  0  0  0  1  0  0  0  0  0  0
  192.8830  176.6690  138.0730 C   0  0  1  0  0  3  0  0  0  0  0  0
  193.1930  174.8710  136.4270 C   0  0  1  0  0  0  0  0  0  0  0  0
  193.8960  176.0410  137.1340 C   0  0  1  0  0  3  0  0  0  0  0  0
  191.7960  175.7120  138.1700 N   0  0  0  0  0  0  0  0  0  0  0  0
  194.3820  176.9960  136.2360 O   0  0  0  0  0  1  0  0  0  0  0  0
  193.5380  176.8740  139.4280 C   0  0  0  0  0  1  0  0  0  0  0  0
  191.9270  174.5850  137.2550 C   0  0  1  0  0  3  0  0  0  0  0  0
  196.0450  172.7250  137.1180 C   0  0  0  0  0  0  0  0  0  0  0  0
  194.1280  173.6440  136.3520 C   0  0  1  0  0  3  0  0  0  0  0  0
  195.6620  174.6910  134.6020 C   0  0  0  0  0  1  0  0  0  0  0  0
  194.9680  173.4290  135.0980 C   0  0  1  0  0  3  0  0  0  0  0  0
  196.0380  171.4360  137.9320 C   0  0  0  0  0  1  0  0  0  0  0  0
  196.0140  172.4820  135.6000 C   0  0  2  0  0  3  0  0  0  0  0  0
  197.3160  173.4820  137.4570 C   0  0  0  0  0  1  0  0  0  0  0  0
  195.6340  171.1730  135.2800 O   0  0  0  0  0  1  0  0  0  0  0  0
  194.9380  173.5150  137.4930 O   0  0  0  0  0  0  0  0  0  0  0  0
  190.7840  174.4860  136.4460 O   0  0  0  0  0  0  0  0  0  0  0  0
  190.6120  173.1180  136.2070 C   0  0  0  0  0  2  0  0  0  0  0  0
  189.1440  172.8060  135.9810 C   0  0  0  0  0  2  0  0  0  0  0  0
  188.3790  173.3580  136.9920 F   0  0  0  0  0  0  0  0  0  0  0  0
  185.4200  178.0090  139.7670 O   0  0  0  0  0  0  0  0  0  0  0  0
  185.2410  178.6210  138.5220 C   0  0  0  0  0  2  0  0  0  0  0  0
  185.3350  175.0990  134.9640 C   0  0  0  0  0  2  0  0  0  0  0  0
  182.4670  179.4950  139.0190 C   0  0  0  0  0  2  0  0  0  0  0  0
  183.9920  173.2650  135.4560 C   0  0  0  0  0  2  0  0  0  0  0  0
  183.3600  175.4310  136.4880 N   0  0  0  0  0  0  0  0  0  0  0  0
  183.0420  174.0040  136.3900 C   0  0  0  0  0  2  0  0  0  0  0  0
  185.3370  173.7940  135.6080 N   0  0  0  0  0  2  0  0  0  0  0  0
  184.4270  176.0890  135.7140 C   0  0  1  0  0  3  0  0  0  0  0  0
  183.1150  177.2960  137.9090 C   0  0  0  0  0  0  0  0  0  0  0  0
  181.2660  177.5160  139.4740 O   0  0  0  0  0  0  0  0  0  0  0  0
  182.6280  176.2020  137.4030 N   0  0  0  0  0  0  0  0  0  0  0  0
  181.1430  178.3460  140.6010 C   0  0  1  0  0  3  0  0  0  0  0  0
  185.1810  177.0770  136.5770 C   0  0  0  0  0  0  0  0  0  0  0  0
  181.5750  179.7490  140.1960 C   0  0  0  0  0  2  0  0  0  0  0  0
  184.5250  177.6830  137.5980 C   0  0  0  0  0  0  0  0  0  0  0  0
  182.2780  178.0830  138.7730 N   0  0  0  0  0  0  0  0  0  0  0  0
  186.5790  177.4650  136.1400 C   0  0  2  0  0  3  0  0  0  0  0  0
  187.6950  176.4520  136.4160 C   0  0  0  0  0  2  0  0  0  0  0  0
  188.7020  176.3280  135.2850 C   0  0  0  0  0  1  0  0  0  0  0  0
  188.0620  179.2880  136.5070 O   0  0  0  0  0  0  0  0  0  0  0  0
  186.9250  178.9230  136.2420 C   0  0  0  0  0  3  0  0  0  0  0  0
  179.7040  178.3490  141.0900 C   0  0  0  0  0  2  0  0  0  0  0  0
  179.5820  177.5460  142.2980 N   0  0  0  0  0  2  0  0  0  0  0  0
  180.0030  178.3730  143.4190 C   0  0  0  0  0  2  0  0  0  0  0  0
  178.9310  178.5600  144.2950 O   0  0  0  0  0  1  0  0  0  0  0  0
  1  4  1  0  0  0  0
  2  8  1  6  0  0  0
  2  6  1  0  0  0  0
  3  5  1  0  0  0  0
  3  2  1  0  0  0  0
  5 30  1  1  0  0  0
  5  1  1  0  0  0  0
  6  4  1  0  0  0  0
  7  8  2  0  0  0  0
 10 13  1  0  0  0  0
 10 15  1  1  0  0  0
 11  9  1  6  0  0  0
 11 12  1  0  0  0  0
 11 16  1  0  0  0  0
 12 14  1  6  0  0  0
 12 10  1  0  0  0  0
 13  7  1  0  0  0  0
 16 26  1  6  0  0  0
 16 13  1  0  0  0  0
 17 23  1  0  0  0  0
 17 25  1  0  0  0  0
 17 21  1  0  0  0  0
 18 11  1  0  0  0  0
 18 25  1  1  0  0  0
 20 19  1  1  0  0  0
 20 22  1  0  0  0  0
 20 18  1  0  0  0  0
 22 24  1  1  0  0  0
 22 17  1  0  0  0  0
 27 26  1  0  0  0  0
 28 27  1  0  0  0  0
 28 29  1  0  0  0  0
 31 30  1  0  0  0  0
 32 37  1  0  0  0  0
 33 44  1  0  0  0  0
 34 37  1  0  0  0  0
 34 36  1  0  0  0  0
 35 41  1  0  0  0  0
 36 35  1  0  0  0  0
 38 32  1  1  0  0  0
 38 35  1  0  0  0  0
 38 43  1  0  0  0  0
 39 46  1  0  0  0  0
 40 42  1  0  0  0  0
 41 39  2  0  0  0  0
 42 52  1  6  0  0  0
 43 45  2  0  0  0  0
 44 42  1  0  0  0  0
 45 39  1  0  0  0  0
 45 31  1  0  0  0  0
 46 33  1  0  0  0  0
 46 40  1  0  0  0  0
 47 51  1  1  0  0  0
 47 48  1  0  0  0  0
 47 43  1  0  0  0  0
 49 48  1  0  0  0  0
 51 50  2  0  0  0  0
 52 53  1  0  0  0  0
 53 54  1  0  0  0  0
 54 55  1  0  0  0  0
M  END
>  <MODEL>
9

>  <REMARK>
 VINA RESULT:      -5.7      3.912     10.525
  Name = 
  15 active torsions:
  status: ('A' for Active; 'I' for Inactive)
    1  A    between atoms: O_2  and  C_28
    2  A    between atoms: O_2  and  C_44
    3  A    between atoms: O_3  and  C_38
    4  A    between atoms: O_3  and  C_46
    5  A    between atoms: C_4  and  C_19
    6  A    between atoms: C_6  and  C_20
    7  A    between atoms: C_10  and  N_18
    8  A    between atoms: C_11  and  C_38
    9  A    between atoms: N_18  and  C_32
   10  A    between atoms: C_19  and  C_40
   11  A    between atoms: C_19  and  C_45
   12  A    between atoms: C_27  and  C_54
   13  A    between atoms: C_28  and  C_49
   14  A    between atoms: C_32  and  C_39
   15  A    between atoms: N_35  and  C_51
                            x       y       z     vdW  Elec       q    Type
                         _______ _______ _______ _____ _____    ______ ____

>  <TORSDO>
F 15

$$$$
