=
 OpenBabel10262421093D

 32 37  0  0  0  0  0  0  0  0999 V2000
  189.5850  177.1480  143.2350 C   0  0  0  0  0  0  0  0  0  0  0  0
  187.7560  177.5750  144.8080 C   0  0  0  0  0  0  0  0  0  0  0  0
  190.8920  176.6870  143.0140 C   0  0  0  0  0  3  0  0  0  0  0  0
  189.0790  177.1660  144.5590 C   0  0  0  0  0  0  0  0  0  0  0  0
  187.2630  177.6220  146.1290 C   0  0  0  0  0  0  0  0  0  0  0  0
  183.3620  178.9490  143.1970 C   0  0  0  0  0  3  0  0  0  0  0  0
  186.9100  177.9190  143.7260 C   0  0  0  0  0  0  0  0  0  0  0  0
  183.7550  178.6350  145.5650 C   0  0  0  0  0  3  0  0  0  0  0  0
  185.0830  178.2890  145.3040 C   0  0  0  0  0  0  0  0  0  0  0  0
  189.8820  176.7190  145.6220 C   0  0  0  0  0  0  0  0  0  0  0  0
  185.9330  177.9760  146.3640 C   0  0  0  0  0  3  0  0  0  0  0  0
  189.3720  176.6950  146.9250 O   0  0  0  0  0  0  0  0  0  0  0  0
  191.1790  176.2650  145.3780 C   0  0  0  0  0  3  0  0  0  0  0  0
  187.4260  177.9020  142.4220 C   0  0  0  0  0  2  0  0  0  0  0  0
  188.7540  177.5450  142.1640 C   0  0  0  0  0  0  0  0  0  0  0  0
  185.5670  178.2720  143.9730 C   0  0  0  0  0  0  0  0  0  0  0  0
  188.1800  177.3910  147.3030 C   0  0  0  0  0  0  0  0  0  0  0  0
  191.6850  176.2530  144.0780 C   0  0  0  0  0  3  0  0  0  0  0  0
  182.8950  178.9640  144.5130 C   0  0  0  0  0  3  0  0  0  0  0  0
  184.6900  178.6070  142.9270 C   0  0  0  0  0  3  0  0  0  0  0  0
  188.9250  178.1240  138.4150 C   0  0  0  0  0  0  0  0  0  0  0  0
  188.1890  178.6730  137.4170 F   0  0  0  0  0  0  0  0  0  0  0  0
  189.2230  177.5620  140.7610 C   0  0  0  0  0  0  0  0  0  0  0  0
  190.1600  177.5410  138.1190 C   0  0  0  0  0  3  0  0  0  0  0  0
  190.4550  176.9700  140.4480 C   0  0  0  0  0  3  0  0  0  0  0  0
  188.4470  178.1280  139.7300 C   0  0  0  0  0  0  0  0  0  0  0  0
  187.1980  178.6780  140.0020 O   0  0  0  0  0  1  0  0  0  0  0  0
  190.9300  176.9580  139.1350 C   0  0  0  0  0  0  0  0  0  0  0  0
  192.7590  176.3690  137.5770 C   0  0  0  0  0  1  0  0  0  0  0  0
  192.1660  176.3630  138.8680 O   0  0  0  0  0  0  0  0  0  0  0  0
  188.5510  178.7250  147.9350 C   0  0  0  0  0  2  0  0  0  0  0  0
  189.6270  178.5530  148.8060 O   0  0  0  0  0  1  0  0  0  0  0  0
  1  4  1  0  0  0  0
  2  5  1  0  0  0  0
  3  1  1  0  0  0  0
  3 18  2  0  0  0  0
  4  2  2  0  0  0  0
  4 10  1  0  0  0  0
  5 11  1  0  0  0  0
  5 17  2  0  0  0  0
  6 19  1  0  0  0  0
  7 16  2  0  0  0  0
  7  2  1  0  0  0  0
  9  8  1  0  0  0  0
  9 11  2  0  0  0  0
 10 12  1  0  0  0  0
 12 17  1  0  0  0  0
 13 10  2  0  0  0  0
 14  7  1  0  0  0  0
 15 14  1  0  0  0  0
 15  1  2  0  0  0  0
 16  9  1  0  0  0  0
 17 31  1  0  0  0  0
 18 13  1  0  0  0  0
 19  8  2  0  0  0  0
 20  6  2  0  0  0  0
 20 16  1  0  0  0  0
 21 26  1  0  0  0  0
 22 21  1  0  0  0  0
 23 15  1  0  0  0  0
 24 21  2  0  0  0  0
 24 28  1  0  0  0  0
 25 23  1  0  0  0  0
 26 27  1  0  0  0  0
 26 23  2  0  0  0  0
 28 25  2  0  0  0  0
 29 30  1  0  0  0  0
 30 28  1  0  0  0  0
 31 32  1  0  0  0  0
M  END
>  <MODEL>
1

>  <REMARK>
 VINA RESULT:     -12.1      0.000      0.000
  Name = 
  3 active torsions:
  status: ('A' for Active; 'I' for Inactive)
    1  A    between atoms: C_13  and  C_29
    2  A    between atoms: O_15  and  C_26
    3  A    between atoms: C_16  and  C_27
                            x       y       z     vdW  Elec       q    Type
                         _______ _______ _______ _____ _____    ______ ____

>  <TORSDO>
F 3

$$$$
=
 OpenBabel10262421093D

 32 37  0  0  0  0  0  0  0  0999 V2000
  190.0130  176.8370  144.0910 C   0  0  0  0  0  0  0  0  0  0  0  0
  187.9300  177.4380  145.2310 C   0  0  0  0  0  0  0  0  0  0  0  0
  191.3110  176.3090  144.1670 C   0  0  0  0  0  3  0  0  0  0  0  0
  189.2520  176.9590  145.2800 C   0  0  0  0  0  0  0  0  0  0  0  0
  187.1830  177.5880  146.4190 C   0  0  0  0  0  0  0  0  0  0  0  0
  184.0320  178.8900  142.6840 C   0  0  0  0  0  3  0  0  0  0  0  0
  187.3390  177.7480  143.9820 C   0  0  0  0  0  0  0  0  0  0  0  0
  183.9210  178.7090  145.0950 C   0  0  0  0  0  3  0  0  0  0  0  0
  185.2540  178.2930  145.1310 C   0  0  0  0  0  0  0  0  0  0  0  0
  189.7980  176.5470  146.5080 C   0  0  0  0  0  0  0  0  0  0  0  0
  185.8540  178.0110  146.3580 C   0  0  0  0  0  3  0  0  0  0  0  0
  189.0350  176.6260  147.6780 O   0  0  0  0  0  0  0  0  0  0  0  0
  191.0920  176.0240  146.5590 C   0  0  0  0  0  3  0  0  0  0  0  0
  188.1070  177.6280  142.8140 C   0  0  0  0  0  2  0  0  0  0  0  0
  189.4380  177.2010  142.8530 C   0  0  0  0  0  0  0  0  0  0  0  0
  185.9950  178.1720  143.9300 C   0  0  0  0  0  0  0  0  0  0  0  0
  187.8310  177.3930  147.7660 C   0  0  0  0  0  0  0  0  0  0  0  0
  191.8480  175.9100  145.3920 C   0  0  0  0  0  3  0  0  0  0  0  0
  183.3100  179.0070  143.8740 C   0  0  0  0  0  3  0  0  0  0  0  0
  185.3660  178.4770  142.7100 C   0  0  0  0  0  3  0  0  0  0  0  0
  192.1690  177.4890  140.2300 C   0  0  0  0  0  0  0  0  0  0  0  0
  193.4400  177.9440  140.1050 F   0  0  0  0  0  0  0  0  0  0  0  0
  190.1810  177.1100  141.5770 C   0  0  0  0  0  0  0  0  0  0  0  0
  191.5260  176.9260  139.1240 C   0  0  0  0  0  3  0  0  0  0  0  0
  189.5440  176.5580  140.4560 C   0  0  0  0  0  3  0  0  0  0  0  0
  191.4990  177.5920  141.4550 C   0  0  0  0  0  0  0  0  0  0  0  0
  192.1390  178.1890  142.5360 O   0  0  0  0  0  1  0  0  0  0  0  0
  190.2080  176.4610  139.2320 C   0  0  0  0  0  0  0  0  0  0  0  0
  188.2390  176.3130  137.7410 C   0  0  0  0  0  1  0  0  0  0  0  0
  189.5380  175.9000  138.1410 O   0  0  0  0  0  0  0  0  0  0  0  0
  188.1370  178.7480  148.3890 C   0  0  0  0  0  2  0  0  0  0  0  0
  189.4210  178.7390  148.9320 O   0  0  0  0  0  1  0  0  0  0  0  0
  1  3  1  0  0  0  0
  1  4  1  0  0  0  0
  2  4  2  0  0  0  0
  2  5  1  0  0  0  0
  3 18  2  0  0  0  0
  4 10  1  0  0  0  0
  5 17  2  0  0  0  0
  6 20  2  0  0  0  0
  6 19  1  0  0  0  0
  7  2  1  0  0  0  0
  8  9  1  0  0  0  0
  9 11  2  0  0  0  0
 10 13  2  0  0  0  0
 10 12  1  0  0  0  0
 11  5  1  0  0  0  0
 12 17  1  0  0  0  0
 14 15  1  0  0  0  0
 14  7  1  0  0  0  0
 15  1  2  0  0  0  0
 16  7  2  0  0  0  0
 16  9  1  0  0  0  0
 17 31  1  0  0  0  0
 18 13  1  0  0  0  0
 19  8  2  0  0  0  0
 20 16  1  0  0  0  0
 21 26  1  0  0  0  0
 22 21  1  0  0  0  0
 23 15  1  0  0  0  0
 24 28  1  0  0  0  0
 24 21  2  0  0  0  0
 25 23  1  0  0  0  0
 26 23  2  0  0  0  0
 26 27  1  0  0  0  0
 28 25  2  0  0  0  0
 29 30  1  0  0  0  0
 30 28  1  0  0  0  0
 31 32  1  0  0  0  0
M  END
>  <MODEL>
2

>  <REMARK>
 VINA RESULT:     -11.4      1.645      2.104
  Name = 
  3 active torsions:
  status: ('A' for Active; 'I' for Inactive)
    1  A    between atoms: C_13  and  C_29
    2  A    between atoms: O_15  and  C_26
    3  A    between atoms: C_16  and  C_27
                            x       y       z     vdW  Elec       q    Type
                         _______ _______ _______ _____ _____    ______ ____

>  <TORSDO>
F 3

$$$$
=
 OpenBabel10262421093D

 32 37  0  0  1  0  0  0  0  0999 V2000
  186.3330  178.2260  144.9480 C   0  0  0  0  0  0  0  0  0  0  0  0
  188.7090  177.7910  144.5430 C   0  0  0  0  0  0  0  0  0  0  0  0
  185.3040  178.5040  145.8620 C   0  0  0  0  0  3  0  0  0  0  0  0
  187.6480  178.0220  145.4360 C   0  0  0  0  0  0  0  0  0  0  0  0
  190.0120  177.5580  145.0310 C   0  0  0  0  0  0  0  0  0  0  0  0
  190.4420  177.5020  139.9920 C   0  0  0  0  0  3  0  0  0  0  0  0
  188.4720  177.8150  143.1470 C   0  0  0  0  0  0  0  0  0  0  0  0
  191.9300  177.2620  141.8870 C   0  0  0  0  0  3  0  0  0  0  0  0
  190.8540  177.4330  142.7610 C   0  0  0  0  0  0  0  0  0  0  0  0
  187.9050  178.1080  146.8150 C   0  0  0  0  0  0  0  0  0  0  0  0
  191.0710  177.3840  144.1370 C   0  0  0  0  0  3  0  0  0  0  0  0
  189.2080  177.9500  147.2990 O   0  0  0  0  0  0  0  0  0  0  0  0
  186.8660  178.3860  147.7060 C   0  0  0  0  0  3  0  0  0  0  0  0
  187.1650  178.0120  142.6780 C   0  0  0  0  0  3  0  0  0  0  0  0
  186.0910  178.1940  143.5560 C   0  0  0  0  0  0  0  0  0  0  0  0
  189.5480  177.6410  142.2520 C   0  0  0  0  0  0  0  0  0  0  0  0
  190.2640  177.3940  146.5080 C   0  0  1  0  0  3  0  0  0  0  0  0
  185.5680  178.5790  147.2310 C   0  0  0  0  0  3  0  0  0  0  0  0
  191.7250  177.2970  140.5050 C   0  0  0  0  0  3  0  0  0  0  0  0
  189.3590  177.6720  140.8590 C   0  0  0  0  0  3  0  0  0  0  0  0
  183.2500  178.6950  141.0870 C   0  0  0  0  0  0  0  0  0  0  0  0
  183.0480  178.8110  139.7510 F   0  0  0  0  0  0  0  0  0  0  0  0
  184.7430  178.3860  142.9820 C   0  0  0  0  0  0  0  0  0  0  0  0
  182.1600  178.7700  141.9580 C   0  0  0  0  0  3  0  0  0  0  0  0
  183.6410  178.4750  143.8450 C   0  0  0  0  0  3  0  0  0  0  0  0
  184.5430  178.5130  141.5930 C   0  0  0  0  0  0  0  0  0  0  0  0
  185.6220  178.4780  140.7150 O   0  0  0  0  0  1  0  0  0  0  0  0
  182.3520  178.6640  143.3430 C   0  0  0  0  0  0  0  0  0  0  0  0
  179.9560  178.3710  143.8860 C   0  0  0  0  0  1  0  0  0  0  0  0
  181.2810  178.7420  144.2380 O   0  0  0  0  0  0  0  0  0  0  0  0
  190.4240  175.9180  146.8410 C   0  0  0  0  0  2  0  0  0  0  0  0
  191.7200  175.6730  147.2960 O   0  0  0  0  0  1  0  0  0  0  0  0
  1  4  1  0  0  0  0
  1  3  2  0  0  0  0
  2  5  1  0  0  0  0
  2  4  1  0  0  0  0
  3 18  1  0  0  0  0
  4 10  2  0  0  0  0
  5 17  1  0  0  0  0
  6 19  2  0  0  0  0
  6 20  1  0  0  0  0
  7  2  2  0  0  0  0
  8  9  2  0  0  0  0
  9 11  1  0  0  0  0
 10 12  1  0  0  0  0
 10 13  1  0  0  0  0
 11  5  2  0  0  0  0
 14  7  1  0  0  0  0
 14 15  2  0  0  0  0
 15  1  1  0  0  0  0
 16  9  1  0  0  0  0
 16  7  1  0  0  0  0
 17 31  1  6  0  0  0
 17 12  1  0  0  0  0
 18 13  2  0  0  0  0
 19  8  1  0  0  0  0
 20 16  2  0  0  0  0
 21 26  2  0  0  0  0
 21 24  1  0  0  0  0
 22 21  1  0  0  0  0
 23 15  1  0  0  0  0
 23 25  2  0  0  0  0
 24 28  2  0  0  0  0
 26 23  1  0  0  0  0
 27 26  1  0  0  0  0
 28 25  1  0  0  0  0
 28 30  1  0  0  0  0
 29 30  1  0  0  0  0
 31 32  1  0  0  0  0
M  END
>  <MODEL>
3

>  <REMARK>
 VINA RESULT:     -11.0      2.087      6.325
  Name = 
  3 active torsions:
  status: ('A' for Active; 'I' for Inactive)
    1  A    between atoms: C_13  and  C_29
    2  A    between atoms: O_15  and  C_26
    3  A    between atoms: C_16  and  C_27
                            x       y       z     vdW  Elec       q    Type
                         _______ _______ _______ _____ _____    ______ ____

>  <TORSDO>
F 3

$$$$
=
 OpenBabel10262421093D

 32 37  0  0  1  0  0  0  0  0999 V2000
  187.7750  177.9690  142.5230 C   0  0  0  0  0  0  0  0  0  0  0  0
  185.6030  178.4090  141.4820 C   0  0  0  0  0  0  0  0  0  0  0  0
  189.1660  177.8400  142.3850 C   0  0  0  0  0  3  0  0  0  0  0  0
  186.9920  178.2260  141.3700 C   0  0  0  0  0  0  0  0  0  0  0  0
  184.8200  178.6350  140.3300 C   0  0  0  0  0  0  0  0  0  0  0  0
  181.5880  178.8820  144.2120 C   0  0  0  0  0  3  0  0  0  0  0  0
  184.9900  178.3900  142.7590 C   0  0  0  0  0  0  0  0  0  0  0  0
  181.4690  179.1250  141.8070 C   0  0  0  0  0  3  0  0  0  0  0  0
  182.8410  178.8810  141.7080 C   0  0  0  0  0  0  0  0  0  0  0  0
  187.6140  178.3560  140.1160 C   0  0  0  0  0  0  0  0  0  0  0  0
  183.4490  178.8700  140.4540 C   0  0  0  0  0  3  0  0  0  0  0  0
  186.8500  178.6520  138.9810 O   0  0  0  0  0  0  0  0  0  0  0  0
  188.9990  178.2250  140.0020 C   0  0  0  0  0  3  0  0  0  0  0  0
  185.7770  178.1280  143.8900 C   0  0  0  0  0  3  0  0  0  0  0  0
  187.1520  177.8950  143.7890 C   0  0  0  0  0  0  0  0  0  0  0  0
  183.6060  178.6320  142.8740 C   0  0  0  0  0  0  0  0  0  0  0  0
  185.4250  178.5260  138.9540 C   0  0  1  0  0  3  0  0  0  0  0  0
  189.7730  177.9630  141.1330 C   0  0  0  0  0  3  0  0  0  0  0  0
  180.8430  179.1260  143.0570 C   0  0  0  0  0  3  0  0  0  0  0  0
  182.9610  178.6350  144.1230 C   0  0  0  0  0  3  0  0  0  0  0  0
  188.0670  177.4900  147.4520 C   0  0  0  0  0  0  0  0  0  0  0  0
  187.5050  177.6180  148.6790 F   0  0  0  0  0  0  0  0  0  0  0  0
  187.9080  177.6170  145.0290 C   0  0  0  0  0  0  0  0  0  0  0  0
  189.4030  177.0960  147.3430 C   0  0  0  0  0  3  0  0  0  0  0  0
  189.2530  177.2330  144.9350 C   0  0  0  0  0  3  0  0  0  0  0  0
  187.3180  177.7610  146.3010 C   0  0  0  0  0  0  0  0  0  0  0  0
  186.0000  178.1880  146.4270 O   0  0  0  0  0  1  0  0  0  0  0  0
  190.0040  176.9690  146.0830 C   0  0  0  0  0  0  0  0  0  0  0  0
  192.0610  175.9260  146.9760 C   0  0  0  0  0  1  0  0  0  0  0  0
  191.3400  176.5830  145.9440 O   0  0  0  0  0  0  0  0  0  0  0  0
  185.0450  177.1920  138.3290 C   0  0  0  0  0  2  0  0  0  0  0  0
  185.9450  176.8720  137.3130 O   0  0  0  0  0  1  0  0  0  0  0  0
  1 15  1  0  0  0  0
  2  7  1  0  0  0  0
  3  1  1  0  0  0  0
  4  2  1  0  0  0  0
  4  1  2  0  0  0  0
  5 11  1  0  0  0  0
  5  2  2  0  0  0  0
  7 16  2  0  0  0  0
  7 14  1  0  0  0  0
  8 19  2  0  0  0  0
  9  8  1  0  0  0  0
  9 16  1  0  0  0  0
 10  4  1  0  0  0  0
 11  9  2  0  0  0  0
 12 10  1  0  0  0  0
 13 10  2  0  0  0  0
 13 18  1  0  0  0  0
 15 14  2  0  0  0  0
 15 23  1  0  0  0  0
 16 20  1  0  0  0  0
 17 31  1  1  0  0  0
 17 12  1  0  0  0  0
 17  5  1  0  0  0  0
 18  3  2  0  0  0  0
 19  6  1  0  0  0  0
 20  6  2  0  0  0  0
 21 22  1  0  0  0  0
 23 26  1  0  0  0  0
 24 21  1  0  0  0  0
 25 23  2  0  0  0  0
 25 28  1  0  0  0  0
 26 27  1  0  0  0  0
 26 21  2  0  0  0  0
 28 24  2  0  0  0  0
 30 28  1  0  0  0  0
 30 29  1  0  0  0  0
 32 31  1  0  0  0  0
M  END
>  <MODEL>
4

>  <REMARK>
 VINA RESULT:     -10.9      2.796      6.399
  Name = 
  3 active torsions:
  status: ('A' for Active; 'I' for Inactive)
    1  A    between atoms: C_13  and  C_29
    2  A    between atoms: O_15  and  C_26
    3  A    between atoms: C_16  and  C_27
                            x       y       z     vdW  Elec       q    Type
                         _______ _______ _______ _____ _____    ______ ____

>  <TORSDO>
F 3

$$$$
=
 OpenBabel10262421093D

 32 37  0  0  0  0  0  0  0  0999 V2000
  185.5420  178.4080  144.1680 C   0  0  0  0  0  0  0  0  0  0  0  0
  187.9580  178.0270  144.2910 C   0  0  0  0  0  0  0  0  0  0  0  0
  184.3370  178.6860  144.8320 C   0  0  0  0  0  3  0  0  0  0  0  0
  186.7270  178.2570  144.9310 C   0  0  0  0  0  0  0  0  0  0  0  0
  189.1320  177.8460  145.0530 C   0  0  0  0  0  0  0  0  0  0  0  0
  190.6240  177.6400  140.2250 C   0  0  0  0  0  3  0  0  0  0  0  0
  188.0230  177.9990  142.8770 C   0  0  0  0  0  0  0  0  0  0  0  0
  191.6800  177.5030  142.3990 C   0  0  0  0  0  3  0  0  0  0  0  0
  190.4400  177.6720  143.0180 C   0  0  0  0  0  0  0  0  0  0  0  0
  186.6830  178.3940  146.3290 C   0  0  0  0  0  0  0  0  0  0  0  0
  190.3600  177.6730  144.4100 C   0  0  0  0  0  3  0  0  0  0  0  0
  187.8570  178.2880  147.0830 O   0  0  0  0  0  0  0  0  0  0  0  0
  185.4730  178.6720  146.9680 C   0  0  0  0  0  3  0  0  0  0  0  0
  186.8420  178.1440  142.1360 C   0  0  0  0  0  2  0  0  0  0  0  0
  185.6030  178.3240  142.7590 C   0  0  0  0  0  0  0  0  0  0  0  0
  189.2680  177.8270  142.2370 C   0  0  0  0  0  0  0  0  0  0  0  0
  189.0680  177.7370  146.5550 C   0  0  0  0  0  0  0  0  0  0  0  0
  184.3020  178.8120  146.2230 C   0  0  0  0  0  3  0  0  0  0  0  0
  191.7730  177.4870  141.0050 C   0  0  0  0  0  3  0  0  0  0  0  0
  189.3790  177.8080  140.8360 C   0  0  0  0  0  3  0  0  0  0  0  0
  183.3450  178.8770  139.7560 C   0  0  0  0  0  0  0  0  0  0  0  0
  183.4340  179.1540  138.4320 F   0  0  0  0  0  0  0  0  0  0  0  0
  184.4030  178.4600  141.9050 C   0  0  0  0  0  0  0  0  0  0  0  0
  182.0870  178.7260  140.3460 C   0  0  0  0  0  3  0  0  0  0  0  0
  183.1340  178.3230  142.4860 C   0  0  0  0  0  3  0  0  0  0  0  0
  184.5040  178.7550  140.5310 C   0  0  0  0  0  0  0  0  0  0  0  0
  185.7480  178.9460  139.9360 O   0  0  0  0  0  1  0  0  0  0  0  0
  181.9760  178.4510  141.7170 C   0  0  0  0  0  0  0  0  0  0  0  0
  180.5070  178.6280  143.6990 C   0  0  0  0  0  1  0  0  0  0  0  0
  180.7320  178.3010  142.3350 O   0  0  0  0  0  0  0  0  0  0  0  0
  189.1830  176.2770  146.9690 C   0  0  0  0  0  2  0  0  0  0  0  0
  190.4900  176.0020  147.3720 O   0  0  0  0  0  1  0  0  0  0  0  0
  1  3  1  0  0  0  0
  1  4  1  0  0  0  0
  2  4  2  0  0  0  0
  2  5  1  0  0  0  0
  3 18  2  0  0  0  0
  4 10  1  0  0  0  0
  5 17  2  0  0  0  0
  6 20  2  0  0  0  0
  6 19  1  0  0  0  0
  7  2  1  0  0  0  0
  8  9  1  0  0  0  0
  9 11  2  0  0  0  0
 10 13  2  0  0  0  0
 10 12  1  0  0  0  0
 11  5  1  0  0  0  0
 14 15  1  0  0  0  0
 14  7  1  0  0  0  0
 15  1  2  0  0  0  0
 16  7  2  0  0  0  0
 16  9  1  0  0  0  0
 17 31  1  0  0  0  0
 17 12  1  0  0  0  0
 18 13  1  0  0  0  0
 19  8  2  0  0  0  0
 20 16  1  0  0  0  0
 21 24  2  0  0  0  0
 21 26  1  0  0  0  0
 22 21  1  0  0  0  0
 23 25  1  0  0  0  0
 23 15  1  0  0  0  0
 24 28  1  0  0  0  0
 26 23  2  0  0  0  0
 27 26  1  0  0  0  0
 28 30  1  0  0  0  0
 28 25  2  0  0  0  0
 30 29  1  0  0  0  0
 31 32  1  0  0  0  0
M  END
>  <MODEL>
5

>  <REMARK>
 VINA RESULT:     -10.6      2.096      6.202
  Name = 
  3 active torsions:
  status: ('A' for Active; 'I' for Inactive)
    1  A    between atoms: C_13  and  C_29
    2  A    between atoms: O_15  and  C_26
    3  A    between atoms: C_16  and  C_27
                            x       y       z     vdW  Elec       q    Type
                         _______ _______ _______ _____ _____    ______ ____

>  <TORSDO>
F 3

$$$$
=
 OpenBabel10262421093D

 32 37  0  0  1  0  0  0  0  0999 V2000
  189.4020  177.6710  142.6250 C   0  0  0  0  0  0  0  0  0  0  0  0
  187.5710  178.0930  141.0540 C   0  0  0  0  0  0  0  0  0  0  0  0
  190.7780  177.4930  142.8420 C   0  0  0  0  0  3  0  0  0  0  0  0
  188.9360  177.8620  141.3000 C   0  0  0  0  0  0  0  0  0  0  0  0
  187.1030  178.2520  139.7330 C   0  0  0  0  0  0  0  0  0  0  0  0
  183.0390  178.8860  142.6750 C   0  0  0  0  0  3  0  0  0  0  0  0
  186.6660  178.1880  142.1400 C   0  0  0  0  0  0  0  0  0  0  0  0
  183.5200  178.9490  140.3040 C   0  0  0  0  0  3  0  0  0  0  0  0
  184.8620  178.6590  140.5620 C   0  0  0  0  0  0  0  0  0  0  0  0
  189.8490  177.8790  140.2320 C   0  0  1  0  0  3  0  0  0  0  0  0
  185.7560  178.5360  139.5000 C   0  0  0  0  0  3  0  0  0  0  0  0
  189.3990  178.1090  138.9270 O   0  0  0  0  0  0  0  0  0  0  0  0
  191.2130  177.7000  140.4720 C   0  0  0  0  0  3  0  0  0  0  0  0
  187.1400  177.9910  143.4440 C   0  0  0  0  0  3  0  0  0  0  0  0
  188.4870  177.7120  143.7000 C   0  0  0  0  0  0  0  0  0  0  0  0
  185.3080  178.4770  141.8940 C   0  0  0  0  0  0  0  0  0  0  0  0
  188.0190  178.0230  138.5580 C   0  0  0  0  0  0  0  0  0  0  0  0
  191.6760  177.5030  141.7730 C   0  0  0  0  0  3  0  0  0  0  0  0
  182.6100  179.0630  141.3580 C   0  0  0  0  0  3  0  0  0  0  0  0
  184.3790  178.5940  142.9430 C   0  0  0  0  0  3  0  0  0  0  0  0
  188.4270  177.4320  147.4870 C   0  0  0  0  0  0  0  0  0  0  0  0
  187.5550  177.5430  148.5190 F   0  0  0  0  0  0  0  0  0  0  0  0
  188.9050  177.5080  145.1040 C   0  0  0  0  0  0  0  0  0  0  0  0
  189.7660  177.1300  147.7460 C   0  0  0  0  0  3  0  0  0  0  0  0
  190.2480  177.2160  145.3800 C   0  0  0  0  0  3  0  0  0  0  0  0
  187.9930  177.6320  146.1710 C   0  0  0  0  0  0  0  0  0  0  0  0
  186.6640  177.9700  145.9330 O   0  0  0  0  0  1  0  0  0  0  0  0
  190.6850  177.0230  146.6920 C   0  0  0  0  0  0  0  0  0  0  0  0
  192.4530  175.6280  147.7150 C   0  0  0  0  0  1  0  0  0  0  0  0
  192.0320  176.7280  146.9210 O   0  0  0  0  0  0  0  0  0  0  0  0
  187.7420  176.6550  137.9500 C   0  0  0  0  0  2  0  0  0  0  0  0
  188.8680  176.2080  137.2580 O   0  0  0  0  0  1  0  0  0  0  0  0
  1  3  2  0  0  0  0
  1 15  1  0  0  0  0
  2  4  2  0  0  0  0
  2  7  1  0  0  0  0
  4  1  1  0  0  0  0
  5  2  1  0  0  0  0
  6 20  2  0  0  0  0
  7 14  1  0  0  0  0
  8  9  1  0  0  0  0
  8 19  2  0  0  0  0
  9 16  1  0  0  0  0
 10 13  1  1  0  0  0
 10  4  1  0  0  0  0
 11  5  1  0  0  0  0
 11  9  2  0  0  0  0
 12 10  1  0  0  0  0
 13 18  2  0  0  0  0
 14 15  2  0  0  0  0
 15 23  1  0  0  0  0
 16  7  2  0  0  0  0
 16 20  1  0  0  0  0
 17 12  1  0  0  0  0
 17  5  2  0  0  0  0
 18  3  1  0  0  0  0
 19  6  1  0  0  0  0
 21 24  1  0  0  0  0
 21 22  1  0  0  0  0
 23 25  2  0  0  0  0
 23 26  1  0  0  0  0
 25 28  1  0  0  0  0
 26 21  2  0  0  0  0
 27 26  1  0  0  0  0
 28 30  1  0  0  0  0
 28 24  2  0  0  0  0
 30 29  1  0  0  0  0
 31 17  1  0  0  0  0
 32 31  1  0  0  0  0
M  END
>  <MODEL>
6

>  <REMARK>
 VINA RESULT:     -10.5      2.640      6.338
  Name = 
  3 active torsions:
  status: ('A' for Active; 'I' for Inactive)
    1  A    between atoms: C_13  and  C_29
    2  A    between atoms: O_15  and  C_26
    3  A    between atoms: C_16  and  C_27
                            x       y       z     vdW  Elec       q    Type
                         _______ _______ _______ _____ _____    ______ ____

>  <TORSDO>
F 3

$$$$
=
 OpenBabel10262421093D

 32 37  0  0  1  0  0  0  0  0999 V2000
  187.4850  178.0050  141.7870 C   0  0  0  0  0  0  0  0  0  0  0  0
  188.8330  177.7550  143.8170 C   0  0  0  0  0  0  0  0  0  0  0  0
  187.4120  177.9740  140.3850 C   0  0  0  0  0  3  0  0  0  0  0  0
  188.7360  177.7790  142.4140 C   0  0  0  0  0  0  0  0  0  0  0  0
  190.0830  177.5600  144.4400 C   0  0  0  0  0  0  0  0  0  0  0  0
  186.7360  177.8560  148.2200 C   0  0  0  0  0  3  0  0  0  0  0  0
  187.6660  177.9030  144.6060 C   0  0  0  0  0  0  0  0  0  0  0  0
  189.1230  177.5110  148.0080 C   0  0  0  0  0  3  0  0  0  0  0  0
  189.0170  177.5980  146.6180 C   0  0  0  0  0  0  0  0  0  0  0  0
  189.8760  177.5210  141.6320 C   0  0  1  0  0  3  0  0  0  0  0  0
  190.1630  177.4820  145.8320 C   0  0  0  0  0  3  0  0  0  0  0  0
  191.1040  177.2550  142.2470 O   0  0  0  0  0  0  0  0  0  0  0  0
  189.7790  177.4950  140.2400 C   0  0  0  0  0  3  0  0  0  0  0  0
  186.4370  178.1320  143.9720 C   0  0  0  0  0  3  0  0  0  0  0  0
  186.3330  178.2080  142.5790 C   0  0  0  0  0  0  0  0  0  0  0  0
  187.7570  177.8190  146.0110 C   0  0  0  0  0  0  0  0  0  0  0  0
  191.3530  177.5340  143.6290 C   0  0  0  0  0  0  0  0  0  0  0  0
  188.5520  177.7260  139.6170 C   0  0  0  0  0  3  0  0  0  0  0  0
  187.9840  177.6390  148.8080 C   0  0  0  0  0  3  0  0  0  0  0  0
  186.6220  177.9470  146.8300 C   0  0  0  0  0  3  0  0  0  0  0  0
  182.6070  178.8310  142.1960 C   0  0  0  0  0  0  0  0  0  0  0  0
  181.4960  178.9660  142.9620 F   0  0  0  0  0  0  0  0  0  0  0  0
  185.0010  178.4620  141.9890 C   0  0  0  0  0  0  0  0  0  0  0  0
  182.5000  178.9200  140.8060 C   0  0  0  0  0  3  0  0  0  0  0  0
  184.8780  178.5410  140.5940 C   0  0  0  0  0  3  0  0  0  0  0  0
  183.8510  178.5930  142.7920 C   0  0  0  0  0  0  0  0  0  0  0  0
  183.9340  178.4690  144.1750 O   0  0  0  0  0  1  0  0  0  0  0  0
  183.6370  178.7720  139.9970 C   0  0  0  0  0  0  0  0  0  0  0  0
  184.1100  177.8590  137.7470 C   0  0  0  0  0  1  0  0  0  0  0  0
  183.5590  178.8490  138.6040 O   0  0  0  0  0  0  0  0  0  0  0  0
  192.0700  178.8710  143.7550 C   0  0  0  0  0  2  0  0  0  0  0  0
  191.1380  179.8920  143.9360 O   0  0  0  0  0  1  0  0  0  0  0  0
  1  4  1  0  0  0  0
  1 15  1  0  0  0  0
  2  5  1  0  0  0  0
  2  7  1  0  0  0  0
  3  1  2  0  0  0  0
  4  2  2  0  0  0  0
  5 11  1  0  0  0  0
  6 19  1  0  0  0  0
  7 16  2  0  0  0  0
  8 19  2  0  0  0  0
  9  8  1  0  0  0  0
 10 13  1  1  0  0  0
 10 12  1  0  0  0  0
 10  4  1  0  0  0  0
 11  9  2  0  0  0  0
 12 17  1  0  0  0  0
 14  7  1  0  0  0  0
 15 14  2  0  0  0  0
 16  9  1  0  0  0  0
 16 20  1  0  0  0  0
 17 31  1  0  0  0  0
 17  5  2  0  0  0  0
 18 13  2  0  0  0  0
 18  3  1  0  0  0  0
 20  6  2  0  0  0  0
 21 26  1  0  0  0  0
 21 22  1  0  0  0  0
 23 15  1  0  0  0  0
 23 26  2  0  0  0  0
 24 21  2  0  0  0  0
 25 23  1  0  0  0  0
 26 27  1  0  0  0  0
 28 25  2  0  0  0  0
 28 24  1  0  0  0  0
 29 30  1  0  0  0  0
 30 28  1  0  0  0  0
 31 32  1  0  0  0  0
M  END
>  <MODEL>
7

>  <REMARK>
 VINA RESULT:     -10.1      2.668      5.454
  Name = 
  3 active torsions:
  status: ('A' for Active; 'I' for Inactive)
    1  A    between atoms: C_13  and  C_29
    2  A    between atoms: O_15  and  C_26
    3  A    between atoms: C_16  and  C_27
                            x       y       z     vdW  Elec       q    Type
                         _______ _______ _______ _____ _____    ______ ____

>  <TORSDO>
F 3

$$$$
=
 OpenBabel10262421093D

 32 37  0  0  1  0  0  0  0  0999 V2000
  188.7810  177.6780  141.6480 C   0  0  0  0  0  0  0  0  0  0  0  0
  186.4460  178.2700  141.2050 C   0  0  0  0  0  0  0  0  0  0  0  0
  190.0900  177.5190  141.1660 C   0  0  0  0  0  3  0  0  0  0  0  0
  187.7580  178.0550  140.7440 C   0  0  0  0  0  0  0  0  0  0  0  0
  185.4220  178.6150  140.2980 C   0  0  0  0  0  0  0  0  0  0  0  0
  183.2370  178.6350  144.8600 C   0  0  0  0  0  3  0  0  0  0  0  0
  186.1600  178.1620  142.5870 C   0  0  0  0  0  0  0  0  0  0  0  0
  182.5540  179.0820  142.5810 C   0  0  0  0  0  3  0  0  0  0  0  0
  183.8470  178.8050  142.1330 C   0  0  0  0  0  0  0  0  0  0  0  0
  188.0640  178.2700  139.3890 C   0  0  1  0  0  3  0  0  0  0  0  0
  184.1340  178.8810  140.7710 C   0  0  0  0  0  3  0  0  0  0  0  0
  187.0650  178.6830  138.5000 O   0  0  0  0  0  0  0  0  0  0  0  0
  189.3730  178.1070  138.9310 C   0  0  0  0  0  3  0  0  0  0  0  0
  187.1810  177.7830  143.4700 C   0  0  0  0  0  3  0  0  0  0  0  0
  188.4790  177.5180  143.0190 C   0  0  0  0  0  0  0  0  0  0  0  0
  184.8580  178.4360  143.0550 C   0  0  0  0  0  0  0  0  0  0  0  0
  185.6710  178.6040  138.8120 C   0  0  0  0  0  0  0  0  0  0  0  0
  190.3830  177.7280  139.8160 C   0  0  0  0  0  3  0  0  0  0  0  0
  182.2490  178.9970  143.9420 C   0  0  0  0  0  3  0  0  0  0  0  0
  184.5340  178.3550  144.4200 C   0  0  0  0  0  3  0  0  0  0  0  0
  191.4400  175.8120  144.6750 C   0  0  0  0  0  0  0  0  0  0  0  0
  192.4090  174.9090  144.3850 F   0  0  0  0  0  0  0  0  0  0  0  0
  189.4960  177.1150  144.0130 C   0  0  0  0  0  0  0  0  0  0  0  0
  191.3840  176.3770  145.9510 C   0  0  0  0  0  3  0  0  0  0  0  0
  189.4450  177.6640  145.3020 C   0  0  0  0  0  3  0  0  0  0  0  0
  190.4950  176.1690  143.7060 C   0  0  0  0  0  0  0  0  0  0  0  0
  190.5420  175.5690  142.4510 O   0  0  0  0  0  1  0  0  0  0  0  0
  190.3820  177.3050  146.2720 C   0  0  0  0  0  0  0  0  0  0  0  0
  189.0590  178.1260  148.1940 C   0  0  0  0  0  1  0  0  0  0  0  0
  190.2970  177.8810  147.5420 O   0  0  0  0  0  0  0  0  0  0  0  0
  185.0860  177.3380  138.2030 C   0  0  0  0  0  2  0  0  0  0  0  0
  185.6930  177.0810  136.9730 O   0  0  0  0  0  1  0  0  0  0  0  0
  1 15  1  0  0  0  0
  2  7  1  0  0  0  0
  3  1  2  0  0  0  0
  4  2  2  0  0  0  0
  4  1  1  0  0  0  0
  5 11  1  0  0  0  0
  5  2  1  0  0  0  0
  7 16  2  0  0  0  0
  7 14  1  0  0  0  0
  8 19  2  0  0  0  0
  9  8  1  0  0  0  0
  9 16  1  0  0  0  0
 10 13  1  1  0  0  0
 10  4  1  0  0  0  0
 11  9  2  0  0  0  0
 12 17  1  0  0  0  0
 12 10  1  0  0  0  0
 13 18  2  0  0  0  0
 15 14  2  0  0  0  0
 15 23  1  0  0  0  0
 16 20  1  0  0  0  0
 17  5  2  0  0  0  0
 18  3  1  0  0  0  0
 19  6  1  0  0  0  0
 20  6  2  0  0  0  0
 21 24  1  0  0  0  0
 22 21  1  0  0  0  0
 23 25  2  0  0  0  0
 24 28  2  0  0  0  0
 25 28  1  0  0  0  0
 26 23  1  0  0  0  0
 26 21  2  0  0  0  0
 27 26  1  0  0  0  0
 28 30  1  0  0  0  0
 30 29  1  0  0  0  0
 31 17  1  0  0  0  0
 32 31  1  0  0  0  0
M  END
>  <MODEL>
8

>  <REMARK>
 VINA RESULT:     -10.1      2.307      6.208
  Name = 
  3 active torsions:
  status: ('A' for Active; 'I' for Inactive)
    1  A    between atoms: C_13  and  C_29
    2  A    between atoms: O_15  and  C_26
    3  A    between atoms: C_16  and  C_27
                            x       y       z     vdW  Elec       q    Type
                         _______ _______ _______ _____ _____    ______ ____

>  <TORSDO>
F 3

$$$$
=
 OpenBabel10262421093D

 32 37  0  0  1  0  0  0  0  0999 V2000
  186.0650  178.3080  142.8180 C   0  0  0  0  0  0  0  0  0  0  0  0
  185.9130  178.3880  140.3750 C   0  0  0  0  0  0  0  0  0  0  0  0
  185.4130  178.3450  144.0610 C   0  0  0  0  0  3  0  0  0  0  0  0
  185.2980  178.4700  141.6370 C   0  0  0  0  0  0  0  0  0  0  0  0
  185.1550  178.5800  139.2010 C   0  0  0  0  0  0  0  0  0  0  0  0
  189.8340  177.5050  137.6110 C   0  0  0  0  0  3  0  0  0  0  0  0
  187.2940  178.0900  140.2830 C   0  0  0  0  0  0  0  0  0  0  0  0
  187.6950  177.9860  136.5840 C   0  0  0  0  0  3  0  0  0  0  0  0
  187.1130  178.1230  137.8470 C   0  0  0  0  0  0  0  0  0  0  0  0
  183.9070  178.6550  141.7240 C   0  0  0  0  0  0  0  0  0  0  0  0
  185.7610  178.4440  137.9500 C   0  0  0  0  0  3  0  0  0  0  0  0
  183.1400  178.7730  140.5600 O   0  0  0  0  0  0  0  0  0  0  0  0
  183.2810  178.6880  142.9720 C   0  0  0  0  0  3  0  0  0  0  0  0
  188.0410  177.9390  141.4600 C   0  0  0  0  0  3  0  0  0  0  0  0
  187.4530  178.0660  142.7230 C   0  0  0  0  0  0  0  0  0  0  0  0
  187.8960  177.9510  139.0150 C   0  0  0  0  0  0  0  0  0  0  0  0
  183.7180  179.0300  139.2750 C   0  0  1  0  0  3  0  0  0  0  0  0
  184.0320  178.5380  144.1370 C   0  0  0  0  0  3  0  0  0  0  0  0
  189.0530  177.6770  136.4660 C   0  0  0  0  0  3  0  0  0  0  0  0
  189.2610  177.6420  138.8780 C   0  0  0  0  0  3  0  0  0  0  0  0
  190.4940  177.8500  144.9860 C   0  0  0  0  0  0  0  0  0  0  0  0
  191.8440  177.9640  144.9200 F   0  0  0  0  0  0  0  0  0  0  0  0
  188.3120  177.9000  143.9150 C   0  0  0  0  0  0  0  0  0  0  0  0
  189.8870  177.5540  146.2090 C   0  0  0  0  0  3  0  0  0  0  0  0
  187.7170  177.5910  145.1460 C   0  0  0  0  0  3  0  0  0  0  0  0
  189.7150  178.0140  143.8350 C   0  0  0  0  0  0  0  0  0  0  0  0
  190.3380  178.2710  142.6180 O   0  0  0  0  0  1  0  0  0  0  0  0
  188.4930  177.4200  146.2940 C   0  0  0  0  0  0  0  0  0  0  0  0
  188.0700  177.8680  148.6890 C   0  0  0  0  0  1  0  0  0  0  0  0
  187.8590  177.1180  147.5020 O   0  0  0  0  0  0  0  0  0  0  0  0
  183.6290  180.5170  138.9670 C   0  0  0  0  0  2  0  0  0  0  0  0
  182.3380  180.8360  138.5460 O   0  0  0  0  0  1  0  0  0  0  0  0
  1  3  2  0  0  0  0
  2  4  1  0  0  0  0
  3 18  1  0  0  0  0
  4 10  2  0  0  0  0
  4  1  1  0  0  0  0
  5 17  1  0  0  0  0
  5  2  2  0  0  0  0
  6 20  2  0  0  0  0
  7  2  1  0  0  0  0
  7 14  1  0  0  0  0
  8  9  1  0  0  0  0
  9 11  2  0  0  0  0
  9 16  1  0  0  0  0
 10 13  1  0  0  0  0
 11  5  1  0  0  0  0
 12 10  1  0  0  0  0
 13 18  2  0  0  0  0
 14 15  2  0  0  0  0
 15  1  1  0  0  0  0
 15 23  1  0  0  0  0
 16  7  2  0  0  0  0
 17 31  1  1  0  0  0
 17 12  1  0  0  0  0
 19  8  2  0  0  0  0
 19  6  1  0  0  0  0
 20 16  1  0  0  0  0
 21 24  1  0  0  0  0
 22 21  1  0  0  0  0
 23 25  2  0  0  0  0
 24 28  2  0  0  0  0
 25 28  1  0  0  0  0
 26 23  1  0  0  0  0
 26 21  2  0  0  0  0
 27 26  1  0  0  0  0
 28 30  1  0  0  0  0
 30 29  1  0  0  0  0
 32 31  1  0  0  0  0
M  END
>  <MODEL>
9

>  <REMARK>
 VINA RESULT:      -9.9      2.698      7.565
  Name = 
  3 active torsions:
  status: ('A' for Active; 'I' for Inactive)
    1  A    between atoms: C_13  and  C_29
    2  A    between atoms: O_15  and  C_26
    3  A    between atoms: C_16  and  C_27
                            x       y       z     vdW  Elec       q    Type
                         _______ _______ _______ _____ _____    ______ ____

>  <TORSDO>
F 3

$$$$
