=
 OpenBabel10262423153D

 34 38  0  0  1  0  0  0  0  0999 V2000
  183.1360  178.3330  140.8780 C   0  0  0  0  0  0  0  0  0  0  0  0
  179.3570  178.3550  141.8260 C   0  0  0  0  0  2  0  0  0  0  0  0
  181.3630  179.2110  143.1140 C   0  0  0  0  0  2  0  0  0  0  0  0
  183.9150  177.9680  140.0100 O   0  0  0  0  0  0  0  0  0  0  0  0
  185.0020  179.6660  143.8640 N   0  0  0  0  0  2  0  0  0  0  0  0
  183.6070  179.5860  144.3150 C   0  0  1  0  0  3  0  0  0  0  0  0
  185.0340  179.2000  142.4710 C   0  0  2  0  0  3  0  0  0  0  0  0
  182.8420  178.8540  143.2410 C   0  0  2  0  0  3  0  0  0  0  0  0
  183.5890  179.2250  142.0030 C   0  0  2  0  0  3  0  0  0  0  0  0
  183.5340  178.8160  145.6190 C   0  0  0  0  0  1  0  0  0  0  0  0
  178.9400  177.4680  140.6430 C   0  0  0  0  0  2  0  0  0  0  0  0
  179.5990  177.8900  139.3200 C   0  0  2  0  0  3  0  0  0  0  0  0
  180.7990  178.8580  141.7190 C   0  0  1  0  0  3  0  0  0  0  0  0
  181.1340  177.9100  139.4060 C   0  0  0  0  0  2  0  0  0  0  0  0
  181.6770  177.9280  140.8410 C   0  0  1  0  0  3  0  0  0  0  0  0
  185.6490  177.7990  142.4190 C   0  0  0  0  0  2  0  0  0  0  0  0
  186.8990  177.1910  144.9000 F   0  0  0  0  0  0  0  0  0  0  0  0
  189.3310  178.3180  141.7190 C   0  0  0  0  0  3  0  0  0  0  0  0
  191.1660  177.0100  145.3360 C   0  0  1  0  0  3  0  0  0  0  0  0
  189.6740  177.3630  145.3970 C   0  0  0  0  0  2  0  0  0  0  0  0
  189.0880  177.6190  144.0350 C   0  0  0  0  0  0  0  0  0  0  0  0
  187.1280  177.8550  142.6150 C   0  0  0  0  0  0  0  0  0  0  0  0
  191.4050  178.0510  143.0750 C   0  0  0  0  0  2  0  0  0  0  0  0
  189.9070  178.0250  142.9580 C   0  0  0  0  0  0  0  0  0  0  0  0
  191.8690  178.1050  144.5270 C   0  0  0  0  0  2  0  0  0  0  0  0
  187.9470  178.2400  141.5500 C   0  0  0  0  0  3  0  0  0  0  0  0
  187.6960  177.5500  143.8610 C   0  0  0  0  0  0  0  0  0  0  0  0
  190.6750  177.1460  147.6560 C   0  0  0  0  0  1  0  0  0  0  0  0
  191.7360  176.9060  146.6860 N   0  0  0  0  0  0  0  0  0  0  0  0
  192.1470  175.5270  146.9110 C   0  0  0  0  0  1  0  0  0  0  0  0
  179.0920  179.2470  138.8430 C   0  0  0  0  0  2  0  0  0  0  0  0
  180.2040  180.0630  138.1960 C   0  0  0  0  0  2  0  0  0  0  0  0
  180.4480  181.3680  138.9380 C   0  0  0  0  0  2  0  0  0  0  0  0
  179.2830  181.6800  139.8590 C   0  0  0  0  0  1  0  0  0  0  0  0
  4  1  2  0  0  0  0
  5  6  1  0  0  0  0
  6 10  1  1  0  0  0
  7 16  1  1  0  0  0
  7  5  1  0  0  0  0
  8  3  1  6  0  0  0
  8  6  1  0  0  0  0
  9  1  1  6  0  0  0
  9  7  1  0  0  0  0
  9  8  1  0  0  0  0
 11  2  1  0  0  0  0
 12 31  1  1  0  0  0
 12 14  1  0  0  0  0
 12 11  1  0  0  0  0
 13  2  1  1  0  0  0
 13  3  1  0  0  0  0
 15 14  1  6  0  0  0
 15  1  1  0  0  0  0
 15 13  1  0  0  0  0
 16 22  1  0  0  0  0
 18 24  1  0  0  0  0
 19 20  1  0  0  0  0
 19 29  1  1  0  0  0
 21 20  1  0  0  0  0
 22 27  2  0  0  0  0
 23 25  1  0  0  0  0
 24 23  1  0  0  0  0
 24 21  2  0  0  0  0
 25 19  1  0  0  0  0
 26 18  2  0  0  0  0
 26 22  1  0  0  0  0
 27 21  1  0  0  0  0
 27 17  1  0  0  0  0
 29 30  1  0  0  0  0
 29 28  1  0  0  0  0
 32 31  1  0  0  0  0
 32 33  1  0  0  0  0
 33 34  1  0  0  0  0
M  END
>  <MODEL>
1

>  <REMARK>
 VINA RESULT:      -8.5      0.000      0.000
  Name = 
  6 active torsions:
  status: ('A' for Active; 'I' for Inactive)
    1  A    between atoms: C_3  and  C_24
    2  A    between atoms: C_7  and  N_15
    3  A    between atoms: C_8  and  C_17
    4  A    between atoms: C_8  and  C_18
    5  A    between atoms: C_24  and  C_25
    6  A    between atoms: C_25  and  C_27
                            x       y       z     vdW  Elec       q    Type
                         _______ _______ _______ _____ _____    ______ ____

>  <TORSDO>
F 6

$$$$
=
 OpenBabel10262423153D

 34 38  0  0  1  0  0  0  0  0999 V2000
  190.6430  176.0070  138.3110 C   0  0  0  0  0  0  0  0  0  0  0  0
  190.6100  174.8410  134.5940 C   0  0  0  0  0  2  0  0  0  0  0  0
  189.7500  176.9840  135.6350 C   0  0  0  0  0  2  0  0  0  0  0  0
  190.9590  175.6480  139.4360 O   0  0  0  0  0  0  0  0  0  0  0  0
  188.7710  179.2700  138.4310 N   0  0  0  0  0  2  0  0  0  0  0  0
  188.6270  178.8210  137.0410 C   0  0  1  0  0  3  0  0  0  0  0  0
  189.5720  178.2580  139.1320 C   0  0  2  0  0  3  0  0  0  0  0  0
  189.1670  177.4150  136.9780 C   0  0  2  0  0  3  0  0  0  0  0  0
  190.2170  177.4240  138.0390 C   0  0  2  0  0  3  0  0  0  0  0  0
  187.1630  178.8330  136.6480 C   0  0  0  0  0  1  0  0  0  0  0  0
  191.0780  173.4140  134.9200 C   0  0  0  0  0  2  0  0  0  0  0  0
  192.2420  173.3830  135.9230 C   0  0  2  0  0  3  0  0  0  0  0  0
  190.7300  175.7970  135.7820 C   0  0  1  0  0  3  0  0  0  0  0  0
  191.9050  174.1050  137.2390 C   0  0  0  0  0  2  0  0  0  0  0  0
  190.6970  175.0470  137.1400 C   0  0  1  0  0  3  0  0  0  0  0  0
  188.6610  177.4330  140.0450 C   0  0  0  0  0  2  0  0  0  0  0  0
  186.9050  177.5280  142.2800 F   0  0  0  0  0  0  0  0  0  0  0  0
  190.9980  177.5120  143.0200 C   0  0  0  0  0  3  0  0  0  0  0  0
  188.3200  177.2480  146.3240 C   0  0  1  0  0  3  0  0  0  0  0  0
  187.7270  177.6860  144.9770 C   0  0  0  0  0  2  0  0  0  0  0  0
  188.7120  177.5530  143.8470 C   0  0  0  0  0  0  0  0  0  0  0  0
  189.1480  177.4630  141.4570 C   0  0  0  0  0  0  0  0  0  0  0  0
  190.6570  177.5480  145.4880 C   0  0  0  0  0  2  0  0  0  0  0  0
  190.1040  177.5720  144.0920 C   0  0  0  0  0  0  0  0  0  0  0  0
  189.6340  178.0090  146.5230 C   0  0  0  0  0  2  0  0  0  0  0  0
  190.5230  177.4640  141.7080 C   0  0  0  0  0  3  0  0  0  0  0  0
  188.2400  177.5140  142.5250 C   0  0  0  0  0  0  0  0  0  0  0  0
  188.0940  178.2450  148.4680 C   0  0  0  0  0  1  0  0  0  0  0  0
  187.3830  177.5210  147.4220 N   0  0  0  0  0  0  0  0  0  0  0  0
  186.3670  178.4500  146.9450 C   0  0  0  0  0  1  0  0  0  0  0  0
  193.5190  173.9660  135.3280 C   0  0  0  0  0  2  0  0  0  0  0  0
  194.3590  174.6690  136.3870 C   0  0  0  0  0  2  0  0  0  0  0  0
  194.4350  176.1680  136.1380 C   0  0  0  0  0  2  0  0  0  0  0  0
  194.4970  176.4570  134.6510 C   0  0  0  0  0  1  0  0  0  0  0  0
  1  4  2  0  0  0  0
  2 11  1  0  0  0  0
  3 13  1  0  0  0  0
  5  7  1  0  0  0  0
  6 10  1  1  0  0  0
  6  5  1  0  0  0  0
  7 16  1  1  0  0  0
  8  3  1  6  0  0  0
  8  6  1  0  0  0  0
  8  9  1  0  0  0  0
  9  1  1  1  0  0  0
  9  7  1  0  0  0  0
 11 12  1  0  0  0  0
 12 31  1  6  0  0  0
 12 14  1  0  0  0  0
 13  2  1  6  0  0  0
 13 15  1  0  0  0  0
 15 14  1  1  0  0  0
 15  1  1  0  0  0  0
 16 22  1  0  0  0  0
 17 27  1  0  0  0  0
 18 24  1  0  0  0  0
 19 25  1  0  0  0  0
 19 29  1  1  0  0  0
 20 19  1  0  0  0  0
 21 24  2  0  0  0  0
 21 20  1  0  0  0  0
 22 26  1  0  0  0  0
 22 27  2  0  0  0  0
 23 25  1  0  0  0  0
 24 23  1  0  0  0  0
 26 18  2  0  0  0  0
 27 21  1  0  0  0  0
 29 28  1  0  0  0  0
 30 29  1  0  0  0  0
 31 32  1  0  0  0  0
 33 32  1  0  0  0  0
 34 33  1  0  0  0  0
M  END
>  <MODEL>
2

>  <REMARK>
 VINA RESULT:      -8.0      5.227      8.993
  Name = 
  6 active torsions:
  status: ('A' for Active; 'I' for Inactive)
    1  A    between atoms: C_3  and  C_24
    2  A    between atoms: C_7  and  N_15
    3  A    between atoms: C_8  and  C_17
    4  A    between atoms: C_8  and  C_18
    5  A    between atoms: C_24  and  C_25
    6  A    between atoms: C_25  and  C_27
                            x       y       z     vdW  Elec       q    Type
                         _______ _______ _______ _____ _____    ______ ____

>  <TORSDO>
F 6

$$$$
=
 OpenBabel10262423153D

 34 38  0  0  1  0  0  0  0  0999 V2000
  187.8250  177.6470  143.9610 C   0  0  0  0  0  0  0  0  0  0  0  0
  187.8240  178.1620  147.8220 C   0  0  0  0  0  2  0  0  0  0  0  0
  185.8900  178.1110  146.1870 C   0  0  0  0  0  2  0  0  0  0  0  0
  188.5700  177.4870  143.0050 O   0  0  0  0  0  0  0  0  0  0  0  0
  184.2670  178.0990  142.8150 N   0  0  0  0  0  2  0  0  0  0  0  0
  184.2300  178.4180  144.2480 C   0  0  1  0  0  3  0  0  0  0  0  0
  185.6560  177.7500  142.4860 C   0  0  2  0  0  3  0  0  0  0  0  0
  185.6600  178.4700  144.7220 C   0  0  2  0  0  3  0  0  0  0  0  0
  186.3350  177.4900  143.8200 C   0  0  2  0  0  3  0  0  0  0  0  0
  183.5660  179.7650  144.4550 C   0  0  0  0  0  1  0  0  0  0  0  0
  189.3530  178.2850  147.9190 C   0  0  0  0  0  2  0  0  0  0  0  0
  190.0900  177.2170  147.0950 C   0  0  2  0  0  3  0  0  0  0  0  0
  187.3480  177.6700  146.4540 C   0  0  1  0  0  3  0  0  0  0  0  0
  189.6850  177.2350  145.6110 C   0  0  0  0  0  2  0  0  0  0  0  0
  188.3740  177.9810  145.3320 C   0  0  1  0  0  3  0  0  0  0  0  0
  186.2990  178.9030  141.7100 C   0  0  0  0  0  2  0  0  0  0  0  0
  188.7240  178.1740  140.4160 F   0  0  0  0  0  0  0  0  0  0  0  0
  185.2750  178.4040  138.1010 C   0  0  0  0  0  3  0  0  0  0  0  0
  188.8490  176.9320  136.3070 C   0  0  1  0  0  3  0  0  0  0  0  0
  188.9900  177.6610  137.6510 C   0  0  0  0  0  2  0  0  0  0  0  0
  187.6580  177.9600  138.2850 C   0  0  0  0  0  0  0  0  0  0  0  0
  186.3750  178.5900  140.2520 C   0  0  0  0  0  0  0  0  0  0  0  0
  186.4880  177.7110  136.0380 C   0  0  0  0  0  2  0  0  0  0  0  0
  186.4880  178.0630  137.4980 C   0  0  0  0  0  0  0  0  0  0  0  0
  187.8890  177.7470  135.4350 C   0  0  0  0  0  2  0  0  0  0  0  0
  185.2190  178.6730  139.4700 C   0  0  0  0  0  3  0  0  0  0  0  0
  187.5980  178.2400  139.6590 C   0  0  0  0  0  0  0  0  0  0  0  0
  191.0880  176.1990  136.6090 C   0  0  0  0  0  1  0  0  0  0  0  0
  190.1560  176.7820  135.6530 N   0  0  0  0  0  0  0  0  0  0  0  0
  190.0340  175.7910  134.5940 C   0  0  0  0  0  1  0  0  0  0  0  0
  189.8850  175.8180  147.6680 C   0  0  0  0  0  2  0  0  0  0  0  0
  191.1660  174.9960  147.6040 C   0  0  0  0  0  2  0  0  0  0  0  0
  192.3990  175.8820  147.5190 C   0  0  0  0  0  2  0  0  0  0  0  0
  193.1610  175.8590  148.8300 C   0  0  0  0  0  1  0  0  0  0  0  0
  1 15  1  0  0  0  0
  2 11  1  0  0  0  0
  4  1  2  0  0  0  0
  5  6  1  0  0  0  0
  6 10  1  6  0  0  0
  6  8  1  0  0  0  0
  7 16  1  1  0  0  0
  7  5  1  0  0  0  0
  7  9  1  0  0  0  0
  8  3  1  1  0  0  0
  9  1  1  6  0  0  0
  9  8  1  0  0  0  0
 12 31  1  1  0  0  0
 12 11  1  0  0  0  0
 13  3  1  6  0  0  0
 13  2  1  0  0  0  0
 14 12  1  0  0  0  0
 15 14  1  1  0  0  0
 15 13  1  0  0  0  0
 18 26  1  0  0  0  0
 19 29  1  6  0  0  0
 19 20  1  0  0  0  0
 20 21  1  0  0  0  0
 21 27  2  0  0  0  0
 22 16  1  0  0  0  0
 23 24  1  0  0  0  0
 24 18  2  0  0  0  0
 24 21  1  0  0  0  0
 25 23  1  0  0  0  0
 25 19  1  0  0  0  0
 26 22  2  0  0  0  0
 27 22  1  0  0  0  0
 27 17  1  0  0  0  0
 29 28  1  0  0  0  0
 30 29  1  0  0  0  0
 32 31  1  0  0  0  0
 33 32  1  0  0  0  0
 33 34  1  0  0  0  0
M  END
>  <MODEL>
3

>  <REMARK>
 VINA RESULT:      -7.9      3.785      8.912
  Name = 
  6 active torsions:
  status: ('A' for Active; 'I' for Inactive)
    1  A    between atoms: C_3  and  C_24
    2  A    between atoms: C_7  and  N_15
    3  A    between atoms: C_8  and  C_17
    4  A    between atoms: C_8  and  C_18
    5  A    between atoms: C_24  and  C_25
    6  A    between atoms: C_25  and  C_27
                            x       y       z     vdW  Elec       q    Type
                         _______ _______ _______ _____ _____    ______ ____

>  <TORSDO>
F 6

$$$$
=
 OpenBabel10262423153D

 34 38  0  0  1  0  0  0  0  0999 V2000
  187.8990  177.7320  143.9860 C   0  0  0  0  0  0  0  0  0  0  0  0
  187.7160  178.1040  147.8600 C   0  0  0  0  0  2  0  0  0  0  0  0
  185.8570  178.0580  146.1400 C   0  0  0  0  0  2  0  0  0  0  0  0
  188.6890  177.6280  143.0600 O   0  0  0  0  0  0  0  0  0  0  0  0
  184.3830  178.1240  142.7010 N   0  0  0  0  0  2  0  0  0  0  0  0
  184.2740  178.3890  144.1410 C   0  0  1  0  0  3  0  0  0  0  0  0
  185.7940  177.8270  142.4210 C   0  0  2  0  0  3  0  0  0  0  0  0
  185.6800  178.4640  144.6800 C   0  0  2  0  0  3  0  0  0  0  0  0
  186.4230  177.5380  143.7740 C   0  0  2  0  0  3  0  0  0  0  0  0
  183.5610  179.7080  144.3660 C   0  0  0  0  0  1  0  0  0  0  0  0
  189.2350  178.2660  148.0290 C   0  0  0  0  0  2  0  0  0  0  0  0
  190.0380  177.2510  147.2010 C   0  0  2  0  0  3  0  0  0  0  0  0
  187.3140  177.6490  146.4550 C   0  0  1  0  0  3  0  0  0  0  0  0
  189.6980  177.3120  145.7020 C   0  0  0  0  0  2  0  0  0  0  0  0
  188.3780  178.0310  145.3920 C   0  0  1  0  0  3  0  0  0  0  0  0
  186.4350  179.0260  141.7160 C   0  0  0  0  0  2  0  0  0  0  0  0
  184.7650  178.2850  139.5370 F   0  0  0  0  0  0  0  0  0  0  0  0
  188.8820  178.2270  138.9430 C   0  0  0  0  0  3  0  0  0  0  0  0
  186.3220  177.5190  135.6100 C   0  0  1  0  0  3  0  0  0  0  0  0
  185.6900  177.4380  137.0060 C   0  0  0  0  0  2  0  0  0  0  0  0
  186.6290  177.8980  138.0890 C   0  0  0  0  0  0  0  0  0  0  0  0
  186.9740  178.6360  140.3800 C   0  0  0  0  0  0  0  0  0  0  0  0
  188.6330  177.5230  136.5650 C   0  0  0  0  0  2  0  0  0  0  0  0
  188.0290  177.8560  137.9000 C   0  0  0  0  0  0  0  0  0  0  0  0
  187.6590  176.7730  135.6610 C   0  0  0  0  0  2  0  0  0  0  0  0
  188.3580  178.6090  140.1790 C   0  0  0  0  0  3  0  0  0  0  0  0
  186.1080  178.2740  139.3370 C   0  0  0  0  0  0  0  0  0  0  0  0
  185.6210  175.4900  134.5940 C   0  0  0  0  0  1  0  0  0  0  0  0
  185.4320  176.9350  134.5970 N   0  0  0  0  0  0  0  0  0  0  0  0
  184.0530  177.1320  135.0210 C   0  0  0  0  0  1  0  0  0  0  0  0
  189.8510  175.8270  147.7140 C   0  0  0  0  0  2  0  0  0  0  0  0
  191.1510  175.0340  147.6450 C   0  0  0  0  0  2  0  0  0  0  0  0
  192.3620  175.9480  147.5400 C   0  0  0  0  0  2  0  0  0  0  0  0
  193.1970  175.8690  148.8030 C   0  0  0  0  0  1  0  0  0  0  0  0
  1 15  1  0  0  0  0
  2 11  1  0  0  0  0
  4  1  2  0  0  0  0
  5  6  1  0  0  0  0
  6 10  1  6  0  0  0
  6  8  1  0  0  0  0
  7 16  1  1  0  0  0
  7  5  1  0  0  0  0
  7  9  1  0  0  0  0
  8  3  1  1  0  0  0
  9  1  1  6  0  0  0
  9  8  1  0  0  0  0
 12 31  1  1  0  0  0
 12 11  1  0  0  0  0
 13  3  1  6  0  0  0
 13  2  1  0  0  0  0
 14 12  1  0  0  0  0
 15 14  1  1  0  0  0
 15 13  1  0  0  0  0
 18 26  1  0  0  0  0
 19 29  1  6  0  0  0
 19 25  1  0  0  0  0
 19 20  1  0  0  0  0
 20 21  1  0  0  0  0
 21 27  2  0  0  0  0
 22 16  1  0  0  0  0
 23 24  1  0  0  0  0
 24 21  1  0  0  0  0
 24 18  2  0  0  0  0
 25 23  1  0  0  0  0
 26 22  2  0  0  0  0
 27 17  1  0  0  0  0
 27 22  1  0  0  0  0
 28 29  1  0  0  0  0
 29 30  1  0  0  0  0
 32 31  1  0  0  0  0
 33 32  1  0  0  0  0
 33 34  1  0  0  0  0
M  END
>  <MODEL>
4

>  <REMARK>
 VINA RESULT:      -7.6      3.953      9.240
  Name = 
  6 active torsions:
  status: ('A' for Active; 'I' for Inactive)
    1  A    between atoms: C_3  and  C_24
    2  A    between atoms: C_7  and  N_15
    3  A    between atoms: C_8  and  C_17
    4  A    between atoms: C_8  and  C_18
    5  A    between atoms: C_24  and  C_25
    6  A    between atoms: C_25  and  C_27
                            x       y       z     vdW  Elec       q    Type
                         _______ _______ _______ _____ _____    ______ ____

>  <TORSDO>
F 6

$$$$
=
 OpenBabel10262423153D

 34 38  0  0  1  0  0  0  0  0999 V2000
  181.5000  180.2790  139.1310 C   0  0  0  0  0  0  0  0  0  0  0  0
  178.9960  179.5830  136.2290 C   0  0  0  0  0  2  0  0  0  0  0  0
  178.9390  178.8230  138.6440 C   0  0  0  0  0  2  0  0  0  0  0  0
  182.5620  180.8300  139.3830 O   0  0  0  0  0  0  0  0  0  0  0  0
  180.3010  178.2840  142.0890 N   0  0  0  0  0  2  0  0  0  0  0  0
  179.3970  177.8950  140.9990 C   0  0  1  0  0  3  0  0  0  0  0  0
  181.2460  179.2630  141.5380 C   0  0  2  0  0  3  0  0  0  0  0  0
  179.9570  178.4910  139.7320 C   0  0  2  0  0  3  0  0  0  0  0  0
  180.6310  179.7270  140.2280 C   0  0  2  0  0  3  0  0  0  0  0  0
  179.3520  176.3840  140.8850 C   0  0  0  0  0  1  0  0  0  0  0  0
  179.9060  180.1860  135.1480 C   0  0  0  0  0  2  0  0  0  0  0  0
  180.5300  181.5240  135.5740 C   0  0  2  0  0  3  0  0  0  0  0  0
  179.4760  179.8790  137.6510 C   0  0  1  0  0  3  0  0  0  0  0  0
  181.3270  181.4120  136.8850 C   0  0  0  0  0  2  0  0  0  0  0  0
  181.0020  180.1560  137.7050 C   0  0  1  0  0  3  0  0  0  0  0  0
  182.6120  178.5980  141.3460 C   0  0  0  0  0  2  0  0  0  0  0  0
  185.2940  177.6660  141.5130 F   0  0  0  0  0  0  0  0  0  0  0  0
  183.4960  179.0570  144.9970 C   0  0  0  0  0  3  0  0  0  0  0  0
  187.6300  178.0260  145.0970 C   0  0  1  0  0  3  0  0  0  0  0  0
  186.8180  177.5420  143.8870 C   0  0  0  0  0  2  0  0  0  0  0  0
  185.4310  178.1270  143.8560 C   0  0  0  0  0  0  0  0  0  0  0  0
  183.3930  178.6030  142.6190 C   0  0  0  0  0  0  0  0  0  0  0  0
  185.5560  178.6570  146.3420 C   0  0  0  0  0  2  0  0  0  0  0  0
  184.8080  178.5780  145.0420 C   0  0  0  0  0  0  0  0  0  0  0  0
  186.7930  177.7640  146.3520 C   0  0  0  0  0  2  0  0  0  0  0  0
  182.7890  179.0640  143.7930 C   0  0  0  0  0  3  0  0  0  0  0  0
  184.7130  178.1280  142.6500 C   0  0  0  0  0  0  0  0  0  0  0  0
  189.9450  178.1900  144.5920 C   0  0  0  0  0  1  0  0  0  0  0  0
  188.9220  177.3300  145.1720 N   0  0  0  0  0  0  0  0  0  0  0  0
  189.2960  177.1940  146.5730 C   0  0  0  0  0  1  0  0  0  0  0  0
  179.4810  182.6240  135.7010 C   0  0  0  0  0  2  0  0  0  0  0  0
  179.9440  183.9170  135.0400 C   0  0  0  0  0  2  0  0  0  0  0  0
  180.5090  184.8960  136.0570 C   0  0  0  0  0  2  0  0  0  0  0  0
  179.8240  184.7210  137.3990 C   0  0  0  0  0  1  0  0  0  0  0  0
  1  4  2  0  0  0  0
  6 10  1  6  0  0  0
  6  5  1  0  0  0  0
  7 16  1  6  0  0  0
  7  5  1  0  0  0  0
  8  3  1  6  0  0  0
  8  9  1  0  0  0  0
  8  6  1  0  0  0  0
  9  1  1  6  0  0  0
  9  7  1  0  0  0  0
 11 12  1  0  0  0  0
 11  2  1  0  0  0  0
 12 31  1  1  0  0  0
 12 14  1  0  0  0  0
 13  2  1  6  0  0  0
 13 15  1  0  0  0  0
 13  3  1  0  0  0  0
 15 14  1  6  0  0  0
 15  1  1  0  0  0  0
 16 22  1  0  0  0  0
 17 27  1  0  0  0  0
 18 24  1  0  0  0  0
 19 29  1  1  0  0  0
 19 25  1  0  0  0  0
 20 19  1  0  0  0  0
 21 20  1  0  0  0  0
 21 24  2  0  0  0  0
 22 27  2  0  0  0  0
 22 26  1  0  0  0  0
 23 25  1  0  0  0  0
 24 23  1  0  0  0  0
 26 18  2  0  0  0  0
 27 21  1  0  0  0  0
 28 29  1  0  0  0  0
 29 30  1  0  0  0  0
 32 31  1  0  0  0  0
 32 33  1  0  0  0  0
 33 34  1  0  0  0  0
M  END
>  <MODEL>
5

>  <REMARK>
 VINA RESULT:      -7.5      2.399      4.657
  Name = 
  6 active torsions:
  status: ('A' for Active; 'I' for Inactive)
    1  A    between atoms: C_3  and  C_24
    2  A    between atoms: C_7  and  N_15
    3  A    between atoms: C_8  and  C_17
    4  A    between atoms: C_8  and  C_18
    5  A    between atoms: C_24  and  C_25
    6  A    between atoms: C_25  and  C_27
                            x       y       z     vdW  Elec       q    Type
                         _______ _______ _______ _____ _____    ______ ____

>  <TORSDO>
F 6

$$$$
=
 OpenBabel10262423153D

 34 38  0  0  1  0  0  0  0  0999 V2000
  188.6000  177.4400  141.1540 C   0  0  0  0  0  0  0  0  0  0  0  0
  192.4770  177.0710  141.0460 C   0  0  0  0  0  2  0  0  0  0  0  0
  190.8640  176.7420  142.9710 C   0  0  0  0  0  2  0  0  0  0  0  0
  187.6370  177.7470  140.4670 O   0  0  0  0  0  0  0  0  0  0  0  0
  187.5710  176.9310  144.7400 N   0  0  0  0  0  2  0  0  0  0  0  0
  189.0390  176.9000  144.7760 C   0  0  1  0  0  3  0  0  0  0  0  0
  187.1770  177.1400  143.3400 C   0  0  2  0  0  3  0  0  0  0  0  0
  189.5190  177.3150  143.4080 C   0  0  2  0  0  3  0  0  0  0  0  0
  188.4190  176.8350  142.5200 C   0  0  2  0  0  3  0  0  0  0  0  0
  189.5460  177.8730  145.8220 C   0  0  0  0  0  1  0  0  0  0  0  0
  192.6060  177.6670  139.6360 C   0  0  0  0  0  2  0  0  0  0  0  0
  191.5630  177.1090  138.6550 C   0  0  2  0  0  3  0  0  0  0  0  0
  191.0300  176.7600  141.4350 C   0  0  1  0  0  3  0  0  0  0  0  0
  190.1210  177.3150  139.1480 C   0  0  0  0  0  2  0  0  0  0  0  0
  190.0150  177.6290  140.6460 C   0  0  1  0  0  3  0  0  0  0  0  0
  186.6900  178.5800  143.1600 C   0  0  0  0  0  2  0  0  0  0  0  0
  184.8620  178.3550  140.9930 F   0  0  0  0  0  0  0  0  0  0  0  0
  183.3040  179.0030  144.7950 C   0  0  0  0  0  3  0  0  0  0  0  0
  180.6090  178.2570  141.5790 C   0  0  1  0  0  3  0  0  0  0  0  0
  182.0570  178.6090  141.2100 C   0  0  0  0  0  2  0  0  0  0  0  0
  182.9610  178.6560  142.4140 C   0  0  0  0  0  0  0  0  0  0  0  0
  185.2100  178.6710  143.3370 C   0  0  0  0  0  0  0  0  0  0  0  0
  180.9580  178.9500  143.9560 C   0  0  0  0  0  2  0  0  0  0  0  0
  182.4380  178.9010  143.7030 C   0  0  0  0  0  0  0  0  0  0  0  0
  180.1630  179.2210  142.6820 C   0  0  0  0  0  2  0  0  0  0  0  0
  184.6840  178.8950  144.6130 C   0  0  0  0  0  3  0  0  0  0  0  0
  184.3500  178.5570  142.2340 C   0  0  0  0  0  0  0  0  0  0  0  0
  179.2020  179.7130  140.3380 C   0  0  0  0  0  1  0  0  0  0  0  0
  179.7310  178.3570  140.4060 N   0  0  0  0  0  0  0  0  0  0  0  0
  180.5410  178.2080  139.2050 C   0  0  0  0  0  1  0  0  0  0  0  0
  191.8000  175.6320  138.3560 C   0  0  0  0  0  2  0  0  0  0  0  0
  192.8720  175.4420  137.2900 C   0  0  0  0  0  2  0  0  0  0  0  0
  193.6860  174.1800  137.5320 C   0  0  0  0  0  2  0  0  0  0  0  0
  194.9250  174.4960  138.3480 C   0  0  0  0  0  1  0  0  0  0  0  0
  4  1  2  0  0  0  0
  5  6  1  0  0  0  0
  6 10  1  1  0  0  0
  7 16  1  1  0  0  0
  7  5  1  0  0  0  0
  8  3  1  6  0  0  0
  8  6  1  0  0  0  0
  9  1  1  6  0  0  0
  9  7  1  0  0  0  0
  9  8  1  0  0  0  0
 11  2  1  0  0  0  0
 12 31  1  1  0  0  0
 12 14  1  0  0  0  0
 12 11  1  0  0  0  0
 13  2  1  1  0  0  0
 13  3  1  0  0  0  0
 15 14  1  6  0  0  0
 15  1  1  0  0  0  0
 15 13  1  0  0  0  0
 16 22  1  0  0  0  0
 17 27  1  0  0  0  0
 19 29  1  6  0  0  0
 19 25  1  0  0  0  0
 20 19  1  0  0  0  0
 20 21  1  0  0  0  0
 21 24  1  0  0  0  0
 22 26  2  0  0  0  0
 24 23  1  0  0  0  0
 24 18  2  0  0  0  0
 25 23  1  0  0  0  0
 26 18  1  0  0  0  0
 27 21  2  0  0  0  0
 27 22  1  0  0  0  0
 28 29  1  0  0  0  0
 30 29  1  0  0  0  0
 32 33  1  0  0  0  0
 32 31  1  0  0  0  0
 33 34  1  0  0  0  0
M  END
>  <MODEL>
6

>  <REMARK>
 VINA RESULT:      -7.5      3.100      9.717
  Name = 
  6 active torsions:
  status: ('A' for Active; 'I' for Inactive)
    1  A    between atoms: C_3  and  C_24
    2  A    between atoms: C_7  and  N_15
    3  A    between atoms: C_8  and  C_17
    4  A    between atoms: C_8  and  C_18
    5  A    between atoms: C_24  and  C_25
    6  A    between atoms: C_25  and  C_27
                            x       y       z     vdW  Elec       q    Type
                         _______ _______ _______ _____ _____    ______ ____

>  <TORSDO>
F 6

$$$$
=
 OpenBabel10262423153D

 34 38  0  0  1  0  0  0  0  0999 V2000
  182.4470  179.3400  140.3730 C   0  0  0  0  0  0  0  0  0  0  0  0
  179.0980  178.5350  138.5530 C   0  0  0  0  0  2  0  0  0  0  0  0
  179.5990  178.7300  141.0280 C   0  0  0  0  0  2  0  0  0  0  0  0
  183.6320  179.5640  140.1680 O   0  0  0  0  0  0  0  0  0  0  0  0
  181.7730  179.0130  144.0620 N   0  0  0  0  0  2  0  0  0  0  0  0
  180.5200  178.5870  143.4250 C   0  0  1  0  0  3  0  0  0  0  0  0
  182.7050  179.3720  142.9850 C   0  0  2  0  0  3  0  0  0  0  0  0
  180.7940  178.4850  141.9460 C   0  0  2  0  0  3  0  0  0  0  0  0
  181.8480  179.5230  141.7400 C   0  0  2  0  0  3  0  0  0  0  0  0
  180.1030  177.2350  143.9700 C   0  0  0  0  0  1  0  0  0  0  0  0
  179.7540  178.3900  137.1710 C   0  0  0  0  0  2  0  0  0  0  0  0
  180.7630  179.5090  136.8700 C   0  0  2  0  0  3  0  0  0  0  0  0
  180.0370  179.1350  139.6020 C   0  0  1  0  0  3  0  0  0  0  0  0
  181.8690  179.6080  137.9340 C   0  0  0  0  0  2  0  0  0  0  0  0
  181.5300  178.8980  139.2520 C   0  0  1  0  0  3  0  0  0  0  0  0
  183.7630  178.2740  142.8430 C   0  0  0  0  0  2  0  0  0  0  0  0
  186.4350  177.3080  142.7180 F   0  0  0  0  0  0  0  0  0  0  0  0
  185.0250  178.6620  146.3890 C   0  0  0  0  0  3  0  0  0  0  0  0
  189.1330  177.5830  146.0470 C   0  0  1  0  0  3  0  0  0  0  0  0
  188.1950  177.1280  144.9200 C   0  0  0  0  0  2  0  0  0  0  0  0
  186.8200  177.7290  145.0410 C   0  0  0  0  0  0  0  0  0  0  0  0
  184.6710  178.2490  144.0290 C   0  0  0  0  0  0  0  0  0  0  0  0
  187.2070  178.2170  147.5090 C   0  0  0  0  0  2  0  0  0  0  0  0
  186.3280  178.1670  146.2910 C   0  0  0  0  0  0  0  0  0  0  0  0
  188.4260  177.3100  147.3780 C   0  0  0  0  0  2  0  0  0  0  0  0
  184.1980  178.6970  145.2650 C   0  0  0  0  0  3  0  0  0  0  0  0
  185.9810  177.7580  143.9160 C   0  0  0  0  0  0  0  0  0  0  0  0
  191.3080  177.6100  145.0930 C   0  0  0  0  0  1  0  0  0  0  0  0
  190.4170  176.8710  145.9780 N   0  0  0  0  0  0  0  0  0  0  0  0
  191.0520  176.9310  147.2870 C   0  0  0  0  0  1  0  0  0  0  0  0
  180.0770  180.8630  136.7120 C   0  0  0  0  0  2  0  0  0  0  0  0
  180.9100  181.9850  137.3210 C   0  0  0  0  0  2  0  0  0  0  0  0
  180.8320  183.2560  136.4890 C   0  0  0  0  0  2  0  0  0  0  0  0
  181.5380  184.3970  137.1970 C   0  0  0  0  0  1  0  0  0  0  0  0
  4  1  2  0  0  0  0
  6 10  1  1  0  0  0
  6  5  1  0  0  0  0
  7 16  1  6  0  0  0
  7  5  1  0  0  0  0
  8  3  1  6  0  0  0
  8  6  1  0  0  0  0
  9  1  1  6  0  0  0
  9  8  1  0  0  0  0
  9  7  1  0  0  0  0
 11  2  1  0  0  0  0
 12 31  1  1  0  0  0
 12 11  1  0  0  0  0
 12 14  1  0  0  0  0
 13  2  1  6  0  0  0
 13  3  1  0  0  0  0
 15 14  1  6  0  0  0
 15 13  1  0  0  0  0
 15  1  1  0  0  0  0
 16 22  1  0  0  0  0
 17 27  1  0  0  0  0
 19 29  1  1  0  0  0
 19 25  1  0  0  0  0
 20 21  1  0  0  0  0
 20 19  1  0  0  0  0
 21 24  2  0  0  0  0
 22 26  1  0  0  0  0
 24 18  1  0  0  0  0
 24 23  1  0  0  0  0
 25 23  1  0  0  0  0
 26 18  2  0  0  0  0
 27 22  2  0  0  0  0
 27 21  1  0  0  0  0
 28 29  1  0  0  0  0
 29 30  1  0  0  0  0
 31 32  1  0  0  0  0
 33 34  1  0  0  0  0
 33 32  1  0  0  0  0
M  END
>  <MODEL>
7

>  <REMARK>
 VINA RESULT:      -7.5      1.836      3.227
  Name = 
  6 active torsions:
  status: ('A' for Active; 'I' for Inactive)
    1  A    between atoms: C_3  and  C_24
    2  A    between atoms: C_7  and  N_15
    3  A    between atoms: C_8  and  C_17
    4  A    between atoms: C_8  and  C_18
    5  A    between atoms: C_24  and  C_25
    6  A    between atoms: C_25  and  C_27
                            x       y       z     vdW  Elec       q    Type
                         _______ _______ _______ _____ _____    ______ ____

>  <TORSDO>
F 6

$$$$
=
 OpenBabel10262423153D

 34 38  0  0  1  0  0  0  0  0999 V2000
  182.4110  176.5780  139.1120 C   0  0  0  0  0  0  0  0  0  0  0  0
  180.5620  176.4110  135.6870 C   0  0  0  0  0  2  0  0  0  0  0  0
  181.7670  178.3450  136.7930 C   0  0  0  0  0  2  0  0  0  0  0  0
  182.6780  175.9120  140.1020 O   0  0  0  0  0  0  0  0  0  0  0  0
  183.4720  180.1580  139.5880 N   0  0  0  0  0  2  0  0  0  0  0  0
  182.6840  180.1750  138.3500 C   0  0  1  0  0  3  0  0  0  0  0  0
  183.4910  178.7700  140.0690 C   0  0  2  0  0  3  0  0  0  0  0  0
  182.0460  178.8150  138.2180 C   0  0  2  0  0  3  0  0  0  0  0  0
  183.0400  177.9260  138.8900 C   0  0  2  0  0  3  0  0  0  0  0  0
  181.6130  181.2440  138.4400 C   0  0  0  0  0  1  0  0  0  0  0  0
  179.9690  175.0180  135.9480 C   0  0  0  0  0  2  0  0  0  0  0  0
  180.9940  174.0330  136.5320 C   0  0  2  0  0  3  0  0  0  0  0  0
  181.6320  176.8070  136.7070 C   0  0  1  0  0  3  0  0  0  0  0  0
  181.6330  174.5500  137.8320 C   0  0  0  0  0  2  0  0  0  0  0  0
  181.4590  176.0580  138.0550 C   0  0  1  0  0  3  0  0  0  0  0  0
  182.5620  178.6400  141.2790 C   0  0  0  0  0  2  0  0  0  0  0  0
  185.2580  177.7480  141.4220 F   0  0  0  0  0  0  0  0  0  0  0  0
  183.4320  178.9990  144.9440 C   0  0  0  0  0  3  0  0  0  0  0  0
  187.5820  178.0340  145.0210 C   0  0  1  0  0  3  0  0  0  0  0  0
  186.7810  177.5750  143.7950 C   0  0  0  0  0  2  0  0  0  0  0  0
  185.3840  178.1370  143.7790 C   0  0  0  0  0  0  0  0  0  0  0  0
  183.3400  178.6180  142.5530 C   0  0  0  0  0  0  0  0  0  0  0  0
  185.4960  178.5910  146.2810 C   0  0  0  0  0  2  0  0  0  0  0  0
  184.7520  178.5400  144.9770 C   0  0  0  0  0  0  0  0  0  0  0  0
  186.7480  177.7190  146.2660 C   0  0  0  0  0  2  0  0  0  0  0  0
  182.7270  179.0310  143.7400 C   0  0  0  0  0  3  0  0  0  0  0  0
  184.6670  178.1640  142.5720 C   0  0  0  0  0  0  0  0  0  0  0  0
  189.8970  178.2590  144.5380 C   0  0  0  0  0  1  0  0  0  0  0  0
  188.8860  177.3590  145.0770 N   0  0  0  0  0  0  0  0  0  0  0  0
  189.2530  177.1730  146.4740 C   0  0  0  0  0  1  0  0  0  0  0  0
  182.0850  173.6870  135.5240 C   0  0  0  0  0  2  0  0  0  0  0  0
  183.4480  173.5640  136.1960 C   0  0  0  0  0  2  0  0  0  0  0  0
  184.4660  174.5080  135.5750 C   0  0  0  0  0  2  0  0  0  0  0  0
  185.0420  175.4340  136.6290 C   0  0  0  0  0  1  0  0  0  0  0  0
  1  4  2  0  0  0  0
  2 11  1  0  0  0  0
  5  7  1  0  0  0  0
  6 10  1  1  0  0  0
  6  5  1  0  0  0  0
  7 16  1  1  0  0  0
  8  3  1  6  0  0  0
  8  6  1  0  0  0  0
  8  9  1  0  0  0  0
  9  1  1  1  0  0  0
  9  7  1  0  0  0  0
 11 12  1  0  0  0  0
 12 31  1  6  0  0  0
 12 14  1  0  0  0  0
 13  2  1  6  0  0  0
 13  3  1  0  0  0  0
 13 15  1  0  0  0  0
 15 14  1  6  0  0  0
 15  1  1  0  0  0  0
 16 22  1  0  0  0  0
 17 27  1  0  0  0  0
 18 24  1  0  0  0  0
 19 29  1  1  0  0  0
 19 25  1  0  0  0  0
 20 19  1  0  0  0  0
 21 20  1  0  0  0  0
 21 24  2  0  0  0  0
 22 27  2  0  0  0  0
 22 26  1  0  0  0  0
 24 23  1  0  0  0  0
 25 23  1  0  0  0  0
 26 18  2  0  0  0  0
 27 21  1  0  0  0  0
 28 29  1  0  0  0  0
 29 30  1  0  0  0  0
 31 32  1  0  0  0  0
 33 32  1  0  0  0  0
 33 34  1  0  0  0  0
M  END
>  <MODEL>
8

>  <REMARK>
 VINA RESULT:      -7.3      3.092      5.270
  Name = 
  6 active torsions:
  status: ('A' for Active; 'I' for Inactive)
    1  A    between atoms: C_3  and  C_24
    2  A    between atoms: C_7  and  N_15
    3  A    between atoms: C_8  and  C_17
    4  A    between atoms: C_8  and  C_18
    5  A    between atoms: C_24  and  C_25
    6  A    between atoms: C_25  and  C_27
                            x       y       z     vdW  Elec       q    Type
                         _______ _______ _______ _____ _____    ______ ____

>  <TORSDO>
F 6

$$$$
=
 OpenBabel10262423153D

 34 38  0  0  1  0  0  0  0  0999 V2000
  190.7290  176.7930  139.1460 C   0  0  0  0  0  0  0  0  0  0  0  0
  191.0970  175.7110  135.4220 C   0  0  0  0  0  2  0  0  0  0  0  0
  189.3150  177.1230  136.5380 C   0  0  0  0  0  2  0  0  0  0  0  0
  191.2460  176.6690  140.2470 O   0  0  0  0  0  0  0  0  0  0  0  0
  187.4530  178.6280  139.4150 N   0  0  0  0  0  2  0  0  0  0  0  0
  187.4850  178.1440  138.0290 C   0  0  1  0  0  3  0  0  0  0  0  0
  188.6980  178.1860  140.0560 C   0  0  2  0  0  3  0  0  0  0  0  0
  188.6670  177.2150  137.9170 C   0  0  2  0  0  3  0  0  0  0  0  0
  189.6190  177.7830  138.9170 C   0  0  2  0  0  3  0  0  0  0  0  0
  186.2050  177.3930  137.7190 C   0  0  0  0  0  1  0  0  0  0  0  0
  192.2500  174.7350  135.7030 C   0  0  0  0  0  2  0  0  0  0  0  0
  193.3160  175.3260  136.6390 C   0  0  2  0  0  3  0  0  0  0  0  0
  190.7720  176.6130  136.6150 C   0  0  1  0  0  3  0  0  0  0  0  0
  192.7290  175.7950  137.9800 C   0  0  0  0  0  2  0  0  0  0  0  0
  191.2050  175.9780  137.9620 C   0  0  1  0  0  3  0  0  0  0  0  0
  188.3940  177.0260  141.0080 C   0  0  0  0  0  2  0  0  0  0  0  0
  189.4120  176.7220  143.6460 F   0  0  0  0  0  0  0  0  0  0  0  0
  185.7020  178.5480  143.1890 C   0  0  0  0  0  3  0  0  0  0  0  0
  187.4590  178.4250  147.0700 C   0  0  1  0  0  3  0  0  0  0  0  0
  188.0610  177.5020  146.0000 C   0  0  0  0  0  2  0  0  0  0  0  0
  187.5000  177.7700  144.6300 C   0  0  0  0  0  0  0  0  0  0  0  0
  187.6610  177.5040  142.2180 C   0  0  0  0  0  0  0  0  0  0  0  0
  185.4660  178.9180  145.6420 C   0  0  0  0  0  2  0  0  0  0  0  0
  186.2290  178.3680  144.4710 C   0  0  0  0  0  0  0  0  0  0  0  0
  185.9340  178.3220  146.9670 C   0  0  0  0  0  2  0  0  0  0  0  0
  186.4120  178.1130  142.0680 C   0  0  0  0  0  3  0  0  0  0  0  0
  188.2050  177.3260  143.4990 C   0  0  0  0  0  0  0  0  0  0  0  0
  187.9300  176.5900  148.5020 C   0  0  0  0  0  1  0  0  0  0  0  0
  187.9220  178.0440  148.4110 N   0  0  0  0  0  0  0  0  0  0  0  0
  189.3170  178.4380  148.5490 C   0  0  0  0  0  1  0  0  0  0  0  0
  194.0760  176.4720  135.9790 C   0  0  0  0  0  2  0  0  0  0  0  0
  195.2650  175.9640  135.1730 C   0  0  0  0  0  2  0  0  0  0  0  0
  196.2830  175.2610  136.0580 C   0  0  0  0  0  2  0  0  0  0  0  0
  197.6830  175.4370  135.4990 C   0  0  0  0  0  1  0  0  0  0  0  0
  1  4  2  0  0  0  0
  2 11  1  0  0  0  0
  3 13  1  0  0  0  0
  5  7  1  0  0  0  0
  6 10  1  1  0  0  0
  6  5  1  0  0  0  0
  7 16  1  1  0  0  0
  8  3  1  6  0  0  0
  8  6  1  0  0  0  0
  8  9  1  0  0  0  0
  9  1  1  1  0  0  0
  9  7  1  0  0  0  0
 11 12  1  0  0  0  0
 12 31  1  6  0  0  0
 12 14  1  0  0  0  0
 13  2  1  6  0  0  0
 13 15  1  0  0  0  0
 15 14  1  6  0  0  0
 15  1  1  0  0  0  0
 16 22  1  0  0  0  0
 18 24  1  0  0  0  0
 19 29  1  1  0  0  0
 20 19  1  0  0  0  0
 21 20  1  0  0  0  0
 22 27  2  0  0  0  0
 23 25  1  0  0  0  0
 24 21  2  0  0  0  0
 24 23  1  0  0  0  0
 25 19  1  0  0  0  0
 26 22  1  0  0  0  0
 26 18  2  0  0  0  0
 27 17  1  0  0  0  0
 27 21  1  0  0  0  0
 29 28  1  0  0  0  0
 29 30  1  0  0  0  0
 32 31  1  0  0  0  0
 32 33  1  0  0  0  0
 34 33  1  0  0  0  0
M  END
>  <MODEL>
9

>  <REMARK>
 VINA RESULT:      -7.0      4.909      9.209
  Name = 
  6 active torsions:
  status: ('A' for Active; 'I' for Inactive)
    1  A    between atoms: C_3  and  C_24
    2  A    between atoms: C_7  and  N_15
    3  A    between atoms: C_8  and  C_17
    4  A    between atoms: C_8  and  C_18
    5  A    between atoms: C_24  and  C_25
    6  A    between atoms: C_25  and  C_27
                            x       y       z     vdW  Elec       q    Type
                         _______ _______ _______ _____ _____    ______ ____

>  <TORSDO>
F 6

$$$$
