=
 OpenBabel10262421333D

 32 37  0  0  1  0  0  0  0  0999 V2000
  189.0620  178.2630  138.4720 C   0  0  2  0  0  3  0  0  0  0  0  0
  188.2310  177.1920  142.5030 C   0  0  0  0  0  0  0  0  0  0  0  0
  183.9060  179.3570  142.2800 C   0  0  0  0  0  3  0  0  0  0  0  0
  183.7050  178.9990  143.6140 C   0  0  0  0  0  3  0  0  0  0  0  0
  189.6800  177.1330  140.6340 C   0  0  2  0  0  3  0  0  0  0  0  0
  187.5640  178.2200  140.4500 N   0  0  0  0  0  0  0  0  0  0  0  0
  189.3930  179.6050  138.4650 F   0  0  0  0  0  0  0  0  0  0  0  0
  185.0960  178.9980  141.6460 C   0  0  0  0  0  3  0  0  0  0  0  0
  187.2830  177.9070  141.7450 C   0  0  2  0  0  3  0  0  0  0  0  0
  186.0750  178.2830  142.3470 C   0  0  0  0  0  0  0  0  0  0  0  0
  186.8090  177.2230  144.4090 C   0  0  0  0  0  0  0  0  0  0  0  0
  191.1400  176.8910  138.7100 C   0  0  0  0  0  0  0  0  0  0  0  0
  188.7360  177.8420  139.8760 C   0  0  0  0  0  0  0  0  0  0  0  0
  190.9370  176.7020  140.0180 C   0  0  0  0  0  3  0  0  0  0  0  0
  190.1480  177.5040  137.9260 O   0  0  0  0  0  0  0  0  0  0  0  0
  184.6610  178.3060  144.2880 N   0  0  0  0  0  0  0  0  0  0  0  0
  185.8320  177.9390  143.6960 C   0  0  0  0  0  0  0  0  0  0  0  0
  189.4060  176.8230  141.9290 N   0  0  0  0  0  0  0  0  0  0  0  0
  187.9740  176.8720  143.7980 N   0  0  0  0  0  0  0  0  0  0  0  0
  192.3800  176.4320  138.0630 C   0  0  0  0  0  0  0  0  0  0  0  0
  193.5370  176.8060  138.5140 N   0  0  0  0  0  2  0  0  0  0  0  0
  192.2910  175.5870  136.9530 O   0  0  0  0  0  0  0  0  0  0  0  0
  191.8420  174.2430  137.0540 C   0  0  0  0  0  1  0  0  0  0  0  0
  186.5830  176.8170  145.8310 C   0  0  0  0  0  2  0  0  0  0  0  0
  191.3100  176.8090  146.5900 C   0  0  0  0  0  1  0  0  0  0  0  0
  188.8730  176.7270  146.9930 C   0  0  2  0  0  3  0  0  0  0  0  0
  187.4390  178.5010  147.5470 C   0  0  0  0  0  0  0  0  0  0  0  0
  188.4880  178.6810  148.3220 C   0  0  0  0  0  3  0  0  0  0  0  0
  189.5020  177.5940  148.0850 C   0  0  2  0  0  3  0  0  0  0  0  0
  190.0440  177.6370  146.6640 C   0  0  1  0  0  3  0  0  0  0  0  0
  186.2580  179.4060  147.5250 C   0  0  0  0  0  1  0  0  0  0  0  0
  187.6120  177.3870  146.6890 N   0  0  0  0  0  0  0  0  0  0  0  0
  1  7  1  1  0  0  0
  1 13  1  0  0  0  0
  2 19  1  0  0  0  0
  3  4  1  0  0  0  0
  4 16  2  0  0  0  0
  5 14  1  6  0  0  0
  5 18  1  0  0  0  0
  8  3  2  0  0  0  0
  8 10  1  0  0  0  0
  9  6  1  1  0  0  0
  9 10  1  0  0  0  0
  9  2  1  0  0  0  0
 10 17  2  0  0  0  0
 11 24  1  0  0  0  0
 12 14  2  0  0  0  0
 13  6  2  0  0  0  0
 13  5  1  0  0  0  0
 15  1  1  0  0  0  0
 15 12  1  0  0  0  0
 17 16  1  0  0  0  0
 17 11  1  0  0  0  0
 18  2  2  0  0  0  0
 19 11  2  0  0  0  0
 20 21  2  0  0  0  0
 20 12  1  0  0  0  0
 22 23  1  0  0  0  0
 22 20  1  0  0  0  0
 24 32  1  0  0  0  0
 26 32  1  6  0  0  0
 26 29  1  0  0  0  0
 27 28  2  0  0  0  0
 29 28  1  6  0  0  0
 30 25  1  1  0  0  0
 30 26  1  0  0  0  0
 30 29  1  0  0  0  0
 31 27  1  0  0  0  0
 32 27  1  0  0  0  0
M  END
>  <MODEL>
1

>  <REMARK>
 VINA RESULT:      -8.8      0.000      0.000
  Name = 
  4 active torsions:
  status: ('A' for Active; 'I' for Inactive)
    1  A    between atoms: C_1  and  O_10
    2  A    between atoms: C_1  and  C_19
    3  A    between atoms: C_16  and  C_27
    4  A    between atoms: C_27  and  N_32
                            x       y       z     vdW  Elec       q    Type
                         _______ _______ _______ _____ _____    ______ ____

>  <TORSDO>
F 4

$$$$
=
 OpenBabel10262421333D

 32 37  0  0  1  0  0  0  0  0999 V2000
  190.4510  177.0930  142.4630 C   0  0  2  0  0  3  0  0  0  0  0  0
  186.8100  178.3780  140.6810 C   0  0  0  0  0  0  0  0  0  0  0  0
  184.6610  178.5910  145.0150 C   0  0  0  0  0  3  0  0  0  0  0  0
  183.4890  178.9830  144.3670 C   0  0  0  0  0  3  0  0  0  0  0  0
  189.0800  177.7510  140.4590 C   0  0  2  0  0  3  0  0  0  0  0  0
  188.0880  177.8320  142.6270 N   0  0  0  0  0  0  0  0  0  0  0  0
  190.2970  175.7600  142.7930 F   0  0  0  0  0  0  0  0  0  0  0  0
  185.8070  178.3350  144.2610 C   0  0  0  0  0  3  0  0  0  0  0  0
  186.9050  178.2250  142.0790 C   0  0  2  0  0  3  0  0  0  0  0  0
  185.7750  178.4740  142.8690 C   0  0  0  0  0  0  0  0  0  0  0  0
  184.5260  179.0160  140.8540 C   0  0  0  0  0  0  0  0  0  0  0  0
  191.4440  177.2800  140.1750 C   0  0  0  0  0  0  0  0  0  0  0  0
  189.1780  177.6010  141.8500 C   0  0  0  0  0  0  0  0  0  0  0  0
  190.2560  177.5250  139.6140 C   0  0  0  0  0  3  0  0  0  0  0  0
  191.5660  177.2360  141.5740 O   0  0  0  0  0  0  0  0  0  0  0  0
  183.4650  179.1150  143.0140 N   0  0  0  0  0  0  0  0  0  0  0  0
  184.5680  178.8750  142.2510 C   0  0  0  0  0  0  0  0  0  0  0  0
  187.9000  178.1380  139.9060 N   0  0  0  0  0  0  0  0  0  0  0  0
  185.6390  178.7660  140.1120 N   0  0  0  0  0  0  0  0  0  0  0  0
  192.6460  177.0870  139.3470 C   0  0  0  0  0  0  0  0  0  0  0  0
  193.8290  177.2450  139.8530 N   0  0  0  0  0  2  0  0  0  0  0  0
  192.4910  176.7290  138.0040 O   0  0  0  0  0  0  0  0  0  0  0  0
  193.5180  176.0820  137.2660 C   0  0  0  0  0  1  0  0  0  0  0  0
  183.2760  179.4620  140.1630 C   0  0  0  0  0  2  0  0  0  0  0  0
  183.4450  175.1070  138.1780 C   0  0  0  0  0  1  0  0  0  0  0  0
  182.7140  177.4030  138.7310 C   0  0  2  0  0  3  0  0  0  0  0  0
  181.1440  178.0700  140.3430 C   0  0  0  0  0  0  0  0  0  0  0  0
  180.5720  177.0490  139.7410 C   0  0  0  0  0  3  0  0  0  0  0  0
  181.4690  176.5170  138.6560 C   0  0  2  0  0  3  0  0  0  0  0  0
  182.7680  175.9670  139.2250 C   0  0  1  0  0  3  0  0  0  0  0  0
  180.5280  178.8200  141.4720 C   0  0  0  0  0  1  0  0  0  0  0  0
  182.4440  178.3130  139.8340 N   0  0  0  0  0  0  0  0  0  0  0  0
  1  7  1  6  0  0  0
  4  3  1  0  0  0  0
  5 14  1  1  0  0  0
  5 13  1  0  0  0  0
  8  3  2  0  0  0  0
  9  2  1  6  0  0  0
  9  6  1  0  0  0  0
  9 10  1  0  0  0  0
 10  8  1  0  0  0  0
 11 17  1  0  0  0  0
 12 15  1  0  0  0  0
 13  1  1  0  0  0  0
 13  6  2  0  0  0  0
 14 12  2  0  0  0  0
 15  1  1  0  0  0  0
 16  4  2  0  0  0  0
 17 10  2  0  0  0  0
 17 16  1  0  0  0  0
 18  5  1  0  0  0  0
 18  2  2  0  0  0  0
 19  2  1  0  0  0  0
 19 11  2  0  0  0  0
 20 21  2  0  0  0  0
 20 12  1  0  0  0  0
 22 20  1  0  0  0  0
 23 22  1  0  0  0  0
 24 11  1  0  0  0  0
 26 30  1  0  0  0  0
 26 32  1  1  0  0  0
 27 31  1  0  0  0  0
 28 27  2  0  0  0  0
 29 26  1  0  0  0  0
 29 30  1  0  0  0  0
 29 28  1  1  0  0  0
 30 25  1  6  0  0  0
 32 24  1  0  0  0  0
 32 27  1  0  0  0  0
M  END
>  <MODEL>
2

>  <REMARK>
 VINA RESULT:      -8.6      2.834      5.898
  Name = 
  4 active torsions:
  status: ('A' for Active; 'I' for Inactive)
    1  A    between atoms: C_1  and  O_10
    2  A    between atoms: C_1  and  C_19
    3  A    between atoms: C_16  and  C_27
    4  A    between atoms: C_27  and  N_32
                            x       y       z     vdW  Elec       q    Type
                         _______ _______ _______ _____ _____    ______ ____

>  <TORSDO>
F 4

$$$$
=
 OpenBabel10262421333D

 32 37  0  0  1  0  0  0  0  0999 V2000
  183.7430  178.4110  144.7110 C   0  0  2  0  0  3  0  0  0  0  0  0
  186.2170  178.5690  141.2560 C   0  0  0  0  0  0  0  0  0  0  0  0
  190.0150  176.9620  143.7950 C   0  0  0  0  0  3  0  0  0  0  0  0
  190.7810  177.0630  142.6320 C   0  0  0  0  0  3  0  0  0  0  0  0
  184.0950  178.8560  142.2600 C   0  0  2  0  0  3  0  0  0  0  0  0
  185.9200  178.0620  143.5740 N   0  0  0  0  0  0  0  0  0  0  0  0
  184.0670  179.5010  145.4960 F   0  0  0  0  0  0  0  0  0  0  0  0
  188.6650  177.3140  143.7580 C   0  0  0  0  0  3  0  0  0  0  0  0
  186.7380  178.1230  142.4870 C   0  0  2  0  0  3  0  0  0  0  0  0
  188.0900  177.7600  142.5620 C   0  0  0  0  0  0  0  0  0  0  0  0
  188.3310  178.2940  140.2020 C   0  0  0  0  0  0  0  0  0  0  0  0
  181.8550  179.0130  143.1830 C   0  0  0  0  0  0  0  0  0  0  0  0
  184.6100  178.4100  143.4850 C   0  0  0  0  0  0  0  0  0  0  0  0
  182.6780  179.2130  142.1480 C   0  0  0  0  0  3  0  0  0  0  0  0
  182.3490  178.4640  144.3780 O   0  0  0  0  0  0  0  0  0  0  0  0
  190.2150  177.4980  141.4750 N   0  0  0  0  0  0  0  0  0  0  0  0
  188.8990  177.8460  141.4070 C   0  0  0  0  0  0  0  0  0  0  0  0
  184.9080  178.9240  141.1730 N   0  0  0  0  0  0  0  0  0  0  0  0
  187.0160  178.6410  140.1590 N   0  0  0  0  0  0  0  0  0  0  0  0
  180.4210  179.3290  143.0810 C   0  0  0  0  0  0  0  0  0  0  0  0
  179.5280  178.4070  143.2610 N   0  0  0  0  0  2  0  0  0  0  0  0
  180.0370  180.6410  142.7870 O   0  0  0  0  0  0  0  0  0  0  0  0
  179.2720  180.9700  141.6360 C   0  0  0  0  0  1  0  0  0  0  0  0
  189.1460  178.3760  138.9500 C   0  0  0  0  0  2  0  0  0  0  0  0
  186.3450  176.5210  135.5390 C   0  0  0  0  0  1  0  0  0  0  0  0
  187.6660  176.7550  137.6150 C   0  0  2  0  0  3  0  0  0  0  0  0
  189.9010  176.1390  137.9820 C   0  0  0  0  0  0  0  0  0  0  0  0
  189.3870  175.1130  137.3360 C   0  0  0  0  0  3  0  0  0  0  0  0
  187.9320  175.3610  137.0410 C   0  0  2  0  0  3  0  0  0  0  0  0
  187.7460  176.5510  136.1110 C   0  0  1  0  0  3  0  0  0  0  0  0
  191.3230  176.2190  138.4140 C   0  0  0  0  0  1  0  0  0  0  0  0
  188.9540  177.1800  138.1430 N   0  0  0  0  0  0  0  0  0  0  0  0
  1  7  1  1  0  0  0
  4  3  2  0  0  0  0
  5 14  1  6  0  0  0
  5 13  1  0  0  0  0
  8  3  1  0  0  0  0
  9  2  1  1  0  0  0
  9 10  1  0  0  0  0
  9  6  1  0  0  0  0
 10  8  2  0  0  0  0
 11 17  1  0  0  0  0
 12 15  1  0  0  0  0
 13  6  2  0  0  0  0
 13  1  1  0  0  0  0
 14 12  2  0  0  0  0
 15  1  1  0  0  0  0
 16  4  1  0  0  0  0
 17 16  2  0  0  0  0
 17 10  1  0  0  0  0
 18  2  2  0  0  0  0
 18  5  1  0  0  0  0
 19 11  2  0  0  0  0
 19  2  1  0  0  0  0
 20 12  1  0  0  0  0
 20 21  2  0  0  0  0
 22 20  1  0  0  0  0
 23 22  1  0  0  0  0
 24 11  1  0  0  0  0
 26 32  1  1  0  0  0
 27 32  1  0  0  0  0
 27 31  1  0  0  0  0
 28 27  2  0  0  0  0
 29 28  1  1  0  0  0
 29 26  1  0  0  0  0
 30 25  1  6  0  0  0
 30 29  1  0  0  0  0
 30 26  1  0  0  0  0
 32 24  1  0  0  0  0
M  END
>  <MODEL>
3

>  <REMARK>
 VINA RESULT:      -8.6      4.040      8.964
  Name = 
  4 active torsions:
  status: ('A' for Active; 'I' for Inactive)
    1  A    between atoms: C_1  and  O_10
    2  A    between atoms: C_1  and  C_19
    3  A    between atoms: C_16  and  C_27
    4  A    between atoms: C_27  and  N_32
                            x       y       z     vdW  Elec       q    Type
                         _______ _______ _______ _____ _____    ______ ____

>  <TORSDO>
F 4

$$$$
=
 OpenBabel10262421333D

 32 37  0  0  1  0  0  0  0  0999 V2000
  187.0370  177.8750  145.5310 C   0  0  2  0  0  3  0  0  0  0  0  0
  188.1980  177.8680  141.4400 C   0  0  0  0  0  0  0  0  0  0  0  0
  183.7480  179.2140  140.0830 C   0  0  0  0  0  3  0  0  0  0  0  0
  184.1840  179.1660  138.7580 C   0  0  0  0  0  3  0  0  0  0  0  0
  188.7560  177.5740  143.7190 C   0  0  0  0  0  0  0  0  0  0  0  0
  186.5430  178.2370  143.1260 N   0  0  0  0  0  0  0  0  0  0  0  0
  186.2930  176.7300  145.7470 F   0  0  0  0  0  0  0  0  0  0  0  0
  184.6410  178.9010  141.1090 C   0  0  0  0  0  3  0  0  0  0  0  0
  186.8840  178.2220  141.8080 C   0  0  0  0  0  0  0  0  0  0  0  0
  185.9600  178.5450  140.8050 C   0  0  0  0  0  0  0  0  0  0  0  0
  187.6850  178.1520  139.1350 C   0  0  0  0  0  0  0  0  0  0  0  0
  189.4420  177.4180  146.0430 C   0  0  0  0  0  0  0  0  0  0  0  0
  187.4510  177.9300  144.0890 C   0  0  0  0  0  0  0  0  0  0  0  0
  189.7490  177.2620  144.7510 C   0  0  0  0  0  3  0  0  0  0  0  0
  188.1670  177.8790  146.4120 O   0  0  0  0  0  0  0  0  0  0  0  0
  185.4670  178.8180  138.4710 N   0  0  0  0  0  0  0  0  0  0  0  0
  186.3620  178.5100  139.4510 C   0  0  0  0  0  0  0  0  0  0  0  0
  189.1010  177.5530  142.4050 N   0  0  0  0  0  0  0  0  0  0  0  0
  188.5590  177.8430  140.1310 N   0  0  0  0  0  0  0  0  0  0  0  0
  190.4350  177.1460  147.0950 C   0  0  0  0  0  0  0  0  0  0  0  0
  190.2620  177.5960  148.2980 N   0  0  0  0  0  2  0  0  0  0  0  0
  191.5710  176.3960  146.7750 O   0  0  0  0  0  0  0  0  0  0  0  0
  192.3560  175.7460  147.7640 C   0  0  0  0  0  1  0  0  0  0  0  0
  188.1570  178.1270  137.7170 C   0  0  0  0  0  2  0  0  0  0  0  0
  192.5920  176.4430  138.3700 C   0  0  0  0  0  1  0  0  0  0  0  0
  190.4340  177.0070  137.3050 C   0  0  2  0  0  3  0  0  0  0  0  0
  188.5140  175.6680  137.1320 C   0  0  0  0  0  0  0  0  0  0  0  0
  189.5020  174.8550  136.8210 C   0  0  0  0  0  3  0  0  0  0  0  0
  190.8150  175.5890  136.8750 C   0  0  2  0  0  3  0  0  0  0  0  0
  191.1260  176.0730  138.2830 C   0  0  1  0  0  3  0  0  0  0  0  0
  187.0850  175.2550  137.1850 C   0  0  0  0  0  1  0  0  0  0  0  0
  188.9910  176.9550  137.4830 N   0  0  0  0  0  0  0  0  0  0  0  0
  1  7  1  6  0  0  0
  1 15  1  0  0  0  0
  2  9  1  0  0  0  0
  2 18  2  0  0  0  0
  3  8  1  0  0  0  0
  4  3  2  0  0  0  0
  5 13  2  0  0  0  0
  5 14  1  0  0  0  0
  6 13  1  0  0  0  0
  9  6  2  0  0  0  0
 10  8  2  0  0  0  0
 10  9  1  0  0  0  0
 11 17  1  0  0  0  0
 11 19  2  0  0  0  0
 12 15  1  0  0  0  0
 12 20  1  0  0  0  0
 13  1  1  0  0  0  0
 14 12  2  0  0  0  0
 16  4  1  0  0  0  0
 16 17  2  0  0  0  0
 17 10  1  0  0  0  0
 18  5  1  0  0  0  0
 19  2  1  0  0  0  0
 20 21  2  0  0  0  0
 22 20  1  0  0  0  0
 22 23  1  0  0  0  0
 24 11  1  0  0  0  0
 26 32  1  1  0  0  0
 26 30  1  0  0  0  0
 27 31  1  0  0  0  0
 27 32  1  0  0  0  0
 28 27  2  0  0  0  0
 29 28  1  1  0  0  0
 29 26  1  0  0  0  0
 29 30  1  0  0  0  0
 30 25  1  6  0  0  0
 32 24  1  0  0  0  0
M  END
>  <MODEL>
4

>  <REMARK>
 VINA RESULT:      -8.4      3.274      7.455
  Name = 
  4 active torsions:
  status: ('A' for Active; 'I' for Inactive)
    1  A    between atoms: C_1  and  O_10
    2  A    between atoms: C_1  and  C_19
    3  A    between atoms: C_16  and  C_27
    4  A    between atoms: C_27  and  N_32
                            x       y       z     vdW  Elec       q    Type
                         _______ _______ _______ _____ _____    ______ ____

>  <TORSDO>
F 4

$$$$
=
 OpenBabel10262421333D

 32 37  0  0  1  0  0  0  0  0999 V2000
  187.4820  177.7230  146.2150 C   0  0  2  0  0  3  0  0  0  0  0  0
  185.9980  178.3210  142.2760 C   0  0  0  0  0  0  0  0  0  0  0  0
  181.5000  178.9260  143.9670 C   0  0  0  0  0  3  0  0  0  0  0  0
  181.0720  179.0860  142.6490 C   0  0  0  0  0  3  0  0  0  0  0  0
  187.8200  177.9240  143.7300 C   0  0  2  0  0  3  0  0  0  0  0  0
  185.6320  178.2110  144.6360 N   0  0  0  0  0  0  0  0  0  0  0  0
  187.1260  176.4430  146.5970 F   0  0  0  0  0  0  0  0  0  0  0  0
  182.8520  178.6910  144.2230 C   0  0  0  0  0  3  0  0  0  0  0  0
  185.1280  178.3850  143.3830 C   0  0  2  0  0  3  0  0  0  0  0  0
  183.7640  178.6210  143.1640 C   0  0  0  0  0  0  0  0  0  0  0  0
  184.1980  178.7200  140.7730 C   0  0  0  0  0  0  0  0  0  0  0  0
  189.7560  177.6810  145.1740 C   0  0  0  0  0  0  0  0  0  0  0  0
  186.9580  177.9910  144.8340 C   0  0  0  0  0  0  0  0  0  0  0  0
  189.2550  177.7090  143.9350 C   0  0  0  0  0  3  0  0  0  0  0  0
  188.9080  177.8570  146.2800 O   0  0  0  0  0  0  0  0  0  0  0  0
  181.9640  179.0150  141.6250 N   0  0  0  0  0  0  0  0  0  0  0  0
  183.2900  178.7900  141.8430 C   0  0  0  0  0  0  0  0  0  0  0  0
  187.3220  178.0920  142.4760 N   0  0  0  0  0  0  0  0  0  0  0  0
  185.5170  178.4890  141.0160 N   0  0  0  0  0  0  0  0  0  0  0  0
  191.2000  177.5040  145.4010 C   0  0  0  0  0  0  0  0  0  0  0  0
  192.0480  177.6920  144.4390 N   0  0  0  0  0  2  0  0  0  0  0  0
  191.6420  177.1280  146.6730 O   0  0  0  0  0  0  0  0  0  0  0  0
  192.0540  175.8020  146.9750 C   0  0  0  0  0  1  0  0  0  0  0  0
  183.7410  178.9190  139.3630 C   0  0  0  0  0  2  0  0  0  0  0  0
  187.7210  177.7470  136.9710 C   0  0  0  0  0  1  0  0  0  0  0  0
  185.3400  178.1400  137.5070 C   0  0  2  0  0  3  0  0  0  0  0  0
  183.7650  176.5950  138.3070 C   0  0  0  0  0  0  0  0  0  0  0  0
  184.3910  175.9480  137.3470 C   0  0  0  0  0  3  0  0  0  0  0  0
  185.4360  176.8310  136.7210 C   0  0  2  0  0  3  0  0  0  0  0  0
  186.5200  177.2070  137.7200 C   0  0  1  0  0  3  0  0  0  0  0  0
  182.6800  176.0030  139.1370 C   0  0  0  0  0  1  0  0  0  0  0  0
  184.3060  177.8900  138.5000 N   0  0  0  0  0  0  0  0  0  0  0  0
  1 15  1  0  0  0  0
  1  7  1  6  0  0  0
  2 18  2  0  0  0  0
  3  8  1  0  0  0  0
  4  3  2  0  0  0  0
  5 14  1  1  0  0  0
  5 13  1  0  0  0  0
  6 13  2  0  0  0  0
  9  2  1  6  0  0  0
  9  6  1  0  0  0  0
 10  9  1  0  0  0  0
 10  8  2  0  0  0  0
 11 19  2  0  0  0  0
 11 17  1  0  0  0  0
 12 20  1  0  0  0  0
 12 15  1  0  0  0  0
 13  1  1  0  0  0  0
 14 12  2  0  0  0  0
 16 17  2  0  0  0  0
 16  4  1  0  0  0  0
 17 10  1  0  0  0  0
 18  5  1  0  0  0  0
 19  2  1  0  0  0  0
 20 22  1  0  0  0  0
 21 20  2  0  0  0  0
 22 23  1  0  0  0  0
 24 11  1  0  0  0  0
 26 30  1  0  0  0  0
 26 32  1  1  0  0  0
 27 32  1  0  0  0  0
 27 31  1  0  0  0  0
 28 27  2  0  0  0  0
 29 28  1  1  0  0  0
 29 26  1  0  0  0  0
 29 30  1  0  0  0  0
 30 25  1  6  0  0  0
 32 24  1  0  0  0  0
M  END
>  <MODEL>
5

>  <REMARK>
 VINA RESULT:      -8.4      3.817      7.240
  Name = 
  4 active torsions:
  status: ('A' for Active; 'I' for Inactive)
    1  A    between atoms: C_1  and  O_10
    2  A    between atoms: C_1  and  C_19
    3  A    between atoms: C_16  and  C_27
    4  A    between atoms: C_27  and  N_32
                            x       y       z     vdW  Elec       q    Type
                         _______ _______ _______ _____ _____    ______ ____

>  <TORSDO>
F 4

$$$$
=
 OpenBabel10262421333D

 32 37  0  0  1  0  0  0  0  0999 V2000
  191.0730  176.8000  144.1200 C   0  0  2  0  0  3  0  0  0  0  0  0
  188.6100  177.7450  140.7860 C   0  0  0  0  0  0  0  0  0  0  0  0
  192.0260  176.2140  137.7150 C   0  0  0  0  0  3  0  0  0  0  0  0
  191.1810  176.5700  136.6630 C   0  0  0  0  0  3  0  0  0  0  0  0
  188.9200  177.6410  143.1280 C   0  0  0  0  0  0  0  0  0  0  0  0
  190.6490  176.8690  141.6770 N   0  0  0  0  0  0  0  0  0  0  0  0
  192.0330  177.7900  144.2140 F   0  0  0  0  0  0  0  0  0  0  0  0
  191.6050  176.4130  139.0300 C   0  0  0  0  0  3  0  0  0  0  0  0
  189.8870  177.1820  140.5920 C   0  0  0  0  0  0  0  0  0  0  0  0
  190.3440  176.9650  139.2850 C   0  0  0  0  0  0  0  0  0  0  0  0
  188.2500  177.8680  138.4380 C   0  0  0  0  0  0  0  0  0  0  0  0
  189.1040  177.4080  145.5370 C   0  0  0  0  0  0  0  0  0  0  0  0
  190.1900  177.0780  142.9390 C   0  0  0  0  0  0  0  0  0  0  0  0
  188.4080  177.8490  144.4850 C   0  0  0  0  0  3  0  0  0  0  0  0
  190.3280  176.7460  145.3430 O   0  0  0  0  0  0  0  0  0  0  0  0
  189.9580  177.1070  136.9190 N   0  0  0  0  0  0  0  0  0  0  0  0
  189.5180  177.3120  138.1920 C   0  0  0  0  0  0  0  0  0  0  0  0
  188.1580  177.9600  142.0490 N   0  0  0  0  0  0  0  0  0  0  0  0
  187.8340  178.0680  139.7180 N   0  0  0  0  0  0  0  0  0  0  0  0
  188.5910  177.5730  146.9070 C   0  0  0  0  0  0  0  0  0  0  0  0
  189.4000  177.8210  147.8890 N   0  0  0  0  0  2  0  0  0  0  0  0
  187.2160  177.4590  147.1330 O   0  0  0  0  0  0  0  0  0  0  0  0
  186.3730  178.5920  147.2880 C   0  0  0  0  0  1  0  0  0  0  0  0
  187.3350  178.2260  137.3110 C   0  0  0  0  0  2  0  0  0  0  0  0
  186.8490  173.5880  136.2250 C   0  0  0  0  0  1  0  0  0  0  0  0
  186.5090  176.0360  136.2490 C   0  0  2  0  0  3  0  0  0  0  0  0
  184.9790  177.2690  137.5330 C   0  0  0  0  0  0  0  0  0  0  0  0
  184.2740  176.2530  137.0820 C   0  0  0  0  0  3  0  0  0  0  0  0
  185.1320  175.3690  136.2170 C   0  0  2  0  0  3  0  0  0  0  0  0
  186.2680  174.7440  137.0120 C   0  0  1  0  0  3  0  0  0  0  0  0
  184.4330  178.3260  138.4280 C   0  0  0  0  0  1  0  0  0  0  0  0
  186.3330  177.1850  137.1240 N   0  0  0  0  0  0  0  0  0  0  0  0
  1  7  1  1  0  0  0
  1 15  1  0  0  0  0
  2 18  2  0  0  0  0
  3  8  1  0  0  0  0
  4 16  1  0  0  0  0
  4  3  2  0  0  0  0
  5 14  1  0  0  0  0
  6 13  1  0  0  0  0
  8 10  2  0  0  0  0
  9  2  1  0  0  0  0
  9  6  2  0  0  0  0
 10  9  1  0  0  0  0
 11 19  2  0  0  0  0
 12 20  1  0  0  0  0
 13  5  2  0  0  0  0
 13  1  1  0  0  0  0
 14 12  2  0  0  0  0
 15 12  1  0  0  0  0
 16 17  2  0  0  0  0
 17 11  1  0  0  0  0
 17 10  1  0  0  0  0
 18  5  1  0  0  0  0
 19  2  1  0  0  0  0
 20 22  1  0  0  0  0
 20 21  2  0  0  0  0
 22 23  1  0  0  0  0
 24 11  1  0  0  0  0
 26 30  1  0  0  0  0
 26 32  1  1  0  0  0
 27 31  1  0  0  0  0
 28 27  2  0  0  0  0
 29 26  1  0  0  0  0
 29 30  1  0  0  0  0
 29 28  1  1  0  0  0
 30 25  1  6  0  0  0
 32 24  1  0  0  0  0
 32 27  1  0  0  0  0
M  END
>  <MODEL>
6

>  <REMARK>
 VINA RESULT:      -8.3      3.597      8.438
  Name = 
  4 active torsions:
  status: ('A' for Active; 'I' for Inactive)
    1  A    between atoms: C_1  and  O_10
    2  A    between atoms: C_1  and  C_19
    3  A    between atoms: C_16  and  C_27
    4  A    between atoms: C_27  and  N_32
                            x       y       z     vdW  Elec       q    Type
                         _______ _______ _______ _____ _____    ______ ____

>  <TORSDO>
F 4

$$$$
=
 OpenBabel10262421333D

 32 37  0  0  1  0  0  0  0  0999 V2000
  182.8120  179.2950  144.1740 C   0  0  2  0  0  3  0  0  0  0  0  0
  186.5840  177.5220  143.3270 C   0  0  0  0  0  0  0  0  0  0  0  0
  187.8880  177.8630  147.9790 C   0  0  0  0  0  3  0  0  0  0  0  0
  189.1170  177.3020  147.6310 C   0  0  0  0  0  3  0  0  0  0  0  0
  184.4580  178.2450  142.5860 C   0  0  2  0  0  3  0  0  0  0  0  0
  185.0300  178.4460  144.8930 N   0  0  0  0  0  0  0  0  0  0  0  0
  183.0240  180.6510  144.3320 F   0  0  0  0  0  0  0  0  0  0  0  0
  186.9240  178.0670  146.9900 C   0  0  0  0  0  3  0  0  0  0  0  0
  186.2530  177.9000  144.6440 C   0  0  2  0  0  3  0  0  0  0  0  0
  187.1950  177.7080  145.6640 C   0  0  0  0  0  0  0  0  0  0  0  0
  188.7330  176.7790  144.0250 C   0  0  0  0  0  0  0  0  0  0  0  0
  182.2360  178.8120  141.7880 C   0  0  0  0  0  0  0  0  0  0  0  0
  184.1240  178.6190  143.8960 C   0  0  0  0  0  0  0  0  0  0  0  0
  183.4790  178.4080  141.5070 C   0  0  0  0  0  3  0  0  0  0  0  0
  181.8680  179.0830  143.1170 O   0  0  0  0  0  0  0  0  0  0  0  0
  189.3720  176.9570  146.3410 N   0  0  0  0  0  0  0  0  0  0  0  0
  188.4510  177.1420  145.3540 C   0  0  0  0  0  0  0  0  0  0  0  0
  185.6790  177.7040  142.3310 N   0  0  0  0  0  0  0  0  0  0  0  0
  187.7990  176.9780  143.0560 N   0  0  0  0  0  0  0  0  0  0  0  0
  181.2260  178.9460  140.7260 C   0  0  0  0  0  0  0  0  0  0  0  0
  181.5430  179.4520  139.5750 N   0  0  0  0  0  2  0  0  0  0  0  0
  179.9190  178.5190  140.9780 O   0  0  0  0  0  0  0  0  0  0  0  0
  179.5790  177.1460  141.1110 C   0  0  0  0  0  1  0  0  0  0  0  0
  190.0410  176.1540  143.6590 C   0  0  0  0  0  2  0  0  0  0  0  0
  189.4730  176.8620  138.9570 C   0  0  0  0  0  1  0  0  0  0  0  0
  190.5200  176.3800  141.1440 C   0  0  2  0  0  3  0  0  0  0  0  0
  191.5910  177.8810  142.5960 C   0  0  0  0  0  0  0  0  0  0  0  0
  192.0610  178.1930  141.4060 C   0  0  0  0  0  3  0  0  0  0  0  0
  191.4660  177.2910  140.3590 C   0  0  2  0  0  3  0  0  0  0  0  0
  189.9590  177.4760  140.2530 C   0  0  1  0  0  3  0  0  0  0  0  0
  191.9680  178.5890  143.8490 C   0  0  0  0  0  1  0  0  0  0  0  0
  190.6290  176.8440  142.5180 N   0  0  0  0  0  0  0  0  0  0  0  0
  1  7  1  6  0  0  0
  4  3  1  0  0  0  0
  5 14  1  1  0  0  0
  5 13  1  0  0  0  0
  8  3  2  0  0  0  0
  9  2  1  6  0  0  0
  9  6  1  0  0  0  0
  9 10  1  0  0  0  0
 10  8  1  0  0  0  0
 11 17  1  0  0  0  0
 12 15  1  0  0  0  0
 13  1  1  0  0  0  0
 13  6  2  0  0  0  0
 14 12  2  0  0  0  0
 15  1  1  0  0  0  0
 16  4  2  0  0  0  0
 17 10  2  0  0  0  0
 17 16  1  0  0  0  0
 18  5  1  0  0  0  0
 18  2  2  0  0  0  0
 19  2  1  0  0  0  0
 19 11  2  0  0  0  0
 20 22  1  0  0  0  0
 20 12  1  0  0  0  0
 21 20  2  0  0  0  0
 22 23  1  0  0  0  0
 24 11  1  0  0  0  0
 26 32  1  1  0  0  0
 27 31  1  0  0  0  0
 28 27  2  0  0  0  0
 29 26  1  0  0  0  0
 29 28  1  1  0  0  0
 30 25  1  6  0  0  0
 30 29  1  0  0  0  0
 30 26  1  0  0  0  0
 32 27  1  0  0  0  0
 32 24  1  0  0  0  0
M  END
>  <MODEL>
7

>  <REMARK>
 VINA RESULT:      -8.3      3.667      7.398
  Name = 
  4 active torsions:
  status: ('A' for Active; 'I' for Inactive)
    1  A    between atoms: C_1  and  O_10
    2  A    between atoms: C_1  and  C_19
    3  A    between atoms: C_16  and  C_27
    4  A    between atoms: C_27  and  N_32
                            x       y       z     vdW  Elec       q    Type
                         _______ _______ _______ _____ _____    ______ ____

>  <TORSDO>
F 4

$$$$
=
 OpenBabel10262421333D

 32 37  0  0  1  0  0  0  0  0999 V2000
  187.0690  177.8530  146.2090 C   0  0  2  0  0  3  0  0  0  0  0  0
  185.7340  178.2300  142.1890 C   0  0  0  0  0  0  0  0  0  0  0  0
  181.2150  179.1270  143.6800 C   0  0  0  0  0  3  0  0  0  0  0  0
  180.8350  179.2110  142.3400 C   0  0  0  0  0  3  0  0  0  0  0  0
  187.4920  177.8660  143.7290 C   0  0  2  0  0  3  0  0  0  0  0  0
  185.2900  178.3000  144.5380 N   0  0  0  0  0  0  0  0  0  0  0  0
  186.6480  176.6180  146.6660 F   0  0  0  0  0  0  0  0  0  0  0  0
  182.5470  178.8590  143.9990 C   0  0  0  0  0  3  0  0  0  0  0  0
  184.8340  178.4060  143.2590 C   0  0  2  0  0  3  0  0  0  0  0  0
  183.4880  178.6790  142.9780 C   0  0  0  0  0  0  0  0  0  0  0  0
  184.0000  178.5930  140.6020 C   0  0  0  0  0  0  0  0  0  0  0  0
  189.3710  177.6500  145.2510 C   0  0  0  0  0  0  0  0  0  0  0  0
  186.5990  178.0430  144.7960 C   0  0  0  0  0  0  0  0  0  0  0  0
  188.9090  177.6100  143.9970 C   0  0  0  0  0  3  0  0  0  0  0  0
  188.4960  177.9350  146.3130 O   0  0  0  0  0  0  0  0  0  0  0  0
  181.7550  179.0340  141.3550 N   0  0  0  0  0  0  0  0  0  0  0  0
  183.0630  178.7730  141.6340 C   0  0  0  0  0  0  0  0  0  0  0  0
  187.0410  177.9650  142.4500 N   0  0  0  0  0  0  0  0  0  0  0  0
  185.3000  178.3280  140.9050 N   0  0  0  0  0  0  0  0  0  0  0  0
  190.7970  177.4330  145.5400 C   0  0  0  0  0  0  0  0  0  0  0  0
  191.6850  177.5410  144.6000 N   0  0  0  0  0  2  0  0  0  0  0  0
  191.1820  177.1070  146.8440 O   0  0  0  0  0  0  0  0  0  0  0  0
  191.9580  175.9560  147.1430 C   0  0  0  0  0  1  0  0  0  0  0  0
  183.5970  178.7090  139.1670 C   0  0  0  0  0  2  0  0  0  0  0  0
  180.7560  174.9770  138.2020 C   0  0  0  0  0  1  0  0  0  0  0  0
  182.7090  176.3100  138.9240 C   0  0  2  0  0  3  0  0  0  0  0  0
  184.5980  176.9040  137.6650 C   0  0  0  0  0  0  0  0  0  0  0  0
  184.4130  175.6310  137.3860 C   0  0  0  0  0  3  0  0  0  0  0  0
  183.2260  175.1000  138.1440 C   0  0  2  0  0  3  0  0  0  0  0  0
  181.9390  175.7920  137.7210 C   0  0  1  0  0  3  0  0  0  0  0  0
  185.6810  177.7350  137.0730 C   0  0  0  0  0  1  0  0  0  0  0  0
  183.5940  177.3970  138.5350 N   0  0  0  0  0  0  0  0  0  0  0  0
  1 15  1  0  0  0  0
  1  7  1  6  0  0  0
  2 18  2  0  0  0  0
  3  8  1  0  0  0  0
  4  3  2  0  0  0  0
  5 14  1  1  0  0  0
  5 13  1  0  0  0  0
  6 13  2  0  0  0  0
  9  2  1  6  0  0  0
  9  6  1  0  0  0  0
 10  9  1  0  0  0  0
 10  8  2  0  0  0  0
 11 19  2  0  0  0  0
 11 17  1  0  0  0  0
 12 20  1  0  0  0  0
 12 15  1  0  0  0  0
 13  1  1  0  0  0  0
 14 12  2  0  0  0  0
 16 17  2  0  0  0  0
 16  4  1  0  0  0  0
 17 10  1  0  0  0  0
 18  5  1  0  0  0  0
 19  2  1  0  0  0  0
 20 22  1  0  0  0  0
 21 20  2  0  0  0  0
 22 23  1  0  0  0  0
 24 11  1  0  0  0  0
 26 32  1  6  0  0  0
 27 32  1  0  0  0  0
 28 27  2  0  0  0  0
 29 28  1  6  0  0  0
 29 26  1  0  0  0  0
 30 29  1  0  0  0  0
 30 25  1  1  0  0  0
 30 26  1  0  0  0  0
 31 27  1  0  0  0  0
 32 24  1  0  0  0  0
M  END
>  <MODEL>
8

>  <REMARK>
 VINA RESULT:      -8.3      4.183      7.668
  Name = 
  4 active torsions:
  status: ('A' for Active; 'I' for Inactive)
    1  A    between atoms: C_1  and  O_10
    2  A    between atoms: C_1  and  C_19
    3  A    between atoms: C_16  and  C_27
    4  A    between atoms: C_27  and  N_32
                            x       y       z     vdW  Elec       q    Type
                         _______ _______ _______ _____ _____    ______ ____

>  <TORSDO>
F 4

$$$$
=
 OpenBabel10262421333D

 32 37  0  0  1  0  0  0  0  0999 V2000
  183.6300  178.9140  140.5700 C   0  0  2  0  0  3  0  0  0  0  0  0
  186.8320  177.8610  143.1620 C   0  0  0  0  0  0  0  0  0  0  0  0
  189.9520  177.8760  139.4590 C   0  0  0  0  0  3  0  0  0  0  0  0
  190.9540  177.5040  140.3570 C   0  0  0  0  0  3  0  0  0  0  0  0
  184.5480  178.3930  142.8530 C   0  0  2  0  0  3  0  0  0  0  0  0
  186.0260  178.4200  140.9810 N   0  0  0  0  0  0  0  0  0  0  0  0
  183.2780  177.7750  139.8700 F   0  0  0  0  0  0  0  0  0  0  0  0
  188.6510  178.0660  139.9250 C   0  0  0  0  0  3  0  0  0  0  0  0
  187.0640  178.0620  141.7870 C   0  0  2  0  0  3  0  0  0  0  0  0
  188.3600  177.8830  141.2820 C   0  0  0  0  0  0  0  0  0  0  0  0
  189.1200  177.3210  143.5230 C   0  0  0  0  0  0  0  0  0  0  0  0
  182.2330  179.0900  142.6370 C   0  0  0  0  0  0  0  0  0  0  0  0
  184.7770  178.5970  141.4850 C   0  0  0  0  0  0  0  0  0  0  0  0
  183.2090  178.6030  143.4100 C   0  0  0  0  0  3  0  0  0  0  0  0
  182.4900  179.3980  141.2910 O   0  0  0  0  0  0  0  0  0  0  0  0
  190.6620  177.3280  141.6730 N   0  0  0  0  0  0  0  0  0  0  0  0
  189.4020  177.5070  142.1590 C   0  0  0  0  0  0  0  0  0  0  0  0
  185.5800  178.0310  143.6610 N   0  0  0  0  0  0  0  0  0  0  0  0
  187.8520  177.5010  143.9840 N   0  0  0  0  0  0  0  0  0  0  0  0
  180.8900  179.3440  143.1850 C   0  0  0  0  0  0  0  0  0  0  0  0
  180.3440  178.5050  144.0080 N   0  0  0  0  0  2  0  0  0  0  0  0
  180.2130  180.5060  142.8020 O   0  0  0  0  0  0  0  0  0  0  0  0
  179.1730  180.4950  141.8340 C   0  0  0  0  0  1  0  0  0  0  0  0
  190.1990  176.9470  144.4880 C   0  0  0  0  0  2  0  0  0  0  0  0
  186.4130  178.3170  147.0790 C   0  0  0  0  0  1  0  0  0  0  0  0
  188.7140  178.1760  146.1870 C   0  0  2  0  0  3  0  0  0  0  0  0
  190.5110  176.9180  147.0210 C   0  0  0  0  0  0  0  0  0  0  0  0
  189.9780  177.4670  148.0930 C   0  0  0  0  0  3  0  0  0  0  0  0
  188.8060  178.3270  147.7070 C   0  0  2  0  0  3  0  0  0  0  0  0
  187.6890  177.5020  147.0850 C   0  0  1  0  0  3  0  0  0  0  0  0
  191.6820  176.0000  147.0540 C   0  0  0  0  0  1  0  0  0  0  0  0
  189.7850  177.2500  145.8510 N   0  0  0  0  0  0  0  0  0  0  0  0
  1  7  1  1  0  0  0
  1 15  1  0  0  0  0
  1 13  1  0  0  0  0
  2 18  2  0  0  0  0
  2 19  1  0  0  0  0
  3  8  2  0  0  0  0
  3  4  1  0  0  0  0
  4 16  2  0  0  0  0
  5 14  1  1  0  0  0
  5 18  1  0  0  0  0
  6 13  2  0  0  0  0
  8 10  1  0  0  0  0
  9  6  1  6  0  0  0
  9  2  1  0  0  0  0
 10  9  1  0  0  0  0
 10 17  2  0  0  0  0
 11 19  2  0  0  0  0
 11 24  1  0  0  0  0
 12 20  1  0  0  0  0
 12 14  2  0  0  0  0
 13  5  1  0  0  0  0
 15 12  1  0  0  0  0
 16 17  1  0  0  0  0
 17 11  1  0  0  0  0
 20 21  2  0  0  0  0
 22 20  1  0  0  0  0
 23 22  1  0  0  0  0
 24 32  1  0  0  0  0
 26 32  1  1  0  0  0
 26 30  1  0  0  0  0
 26 29  1  0  0  0  0
 27 31  1  0  0  0  0
 27 28  2  0  0  0  0
 29 28  1  1  0  0  0
 30 25  1  6  0  0  0
 30 29  1  0  0  0  0
 32 27  1  0  0  0  0
M  END
>  <MODEL>
9

>  <REMARK>
 VINA RESULT:      -8.2      3.262      6.884
  Name = 
  4 active torsions:
  status: ('A' for Active; 'I' for Inactive)
    1  A    between atoms: C_1  and  O_10
    2  A    between atoms: C_1  and  C_19
    3  A    between atoms: C_16  and  C_27
    4  A    between atoms: C_27  and  N_32
                            x       y       z     vdW  Elec       q    Type
                         _______ _______ _______ _____ _____    ______ ____

>  <TORSDO>
F 4

$$$$
