=
 OpenBabel10262421513D

 30 33  0  0  1  0  0  0  0  0999 V2000
  187.4210  177.5800  144.0810 C   0  0  1  0  0  0  0  0  0  0  0  0
  188.8480  177.3470  144.6320 C   0  0  2  0  0  3  0  0  0  0  0  0
  187.1880  178.6770  147.7670 C   0  0  0  0  0  2  0  0  0  0  0  0
  184.5090  178.9080  144.1750 C   0  0  1  0  0  3  0  0  0  0  0  0
  187.5160  178.1450  146.3960 C   0  0  0  0  0  0  0  0  0  0  0  0
  189.7150  177.2280  147.1340 C   0  0  0  0  0  2  0  0  0  0  0  0
  184.8150  178.3040  142.8410 C   0  0  1  0  0  3  0  0  0  0  0  0
  188.6940  177.6070  146.0940 C   0  0  0  0  0  0  0  0  0  0  0  0
  186.7430  178.4510  145.1640 C   0  0  2  0  0  3  0  0  0  0  0  0
  183.5370  178.6060  142.0860 C   0  0  0  0  0  2  0  0  0  0  0  0
  183.0200  178.7190  144.2900 C   0  0  0  0  0  2  0  0  0  0  0  0
  189.5220  178.0330  148.4210 C   0  0  0  0  0  2  0  0  0  0  0  0
  188.0520  178.0130  148.8410 C   0  0  0  0  0  2  0  0  0  0  0  0
  187.3890  178.2460  142.6900 C   0  0  0  0  0  2  0  0  0  0  0  0
  186.0890  178.9500  142.2560 C   0  0  1  0  0  3  0  0  0  0  0  0
  182.4640  178.6530  142.9980 O   0  0  0  0  0  0  0  0  0  0  0  0
  186.7850  176.1940  143.9630 C   0  0  0  0  0  1  0  0  0  0  0  0
  185.2420  178.2130  145.3120 C   0  0  0  0  0  2  0  0  0  0  0  0
  186.0940  179.0120  140.7580 C   0  0  0  0  0  3  0  0  0  0  0  0
  187.0530  178.6080  140.1230 O   0  0  0  0  0  0  0  0  0  0  0  0
  189.9000  178.3050  144.0690 C   0  0  0  0  0  2  0  0  0  0  0  0
  191.2970  177.7280  144.2450 C   0  0  0  0  0  2  0  0  0  0  0  0
  191.5940  176.6690  143.1960 C   0  0  0  0  0  2  0  0  0  0  0  0
  191.6150  177.2920  141.8090 C   0  0  0  0  0  2  0  0  0  0  0  0
  190.4770  176.7460  140.9670 C   0  0  0  0  0  2  0  0  0  0  0  0
  190.2510  177.6180  139.7450 C   0  0  0  0  0  2  0  0  0  0  0  0
  189.5950  177.2780  137.3080 N   0  0  0  0  0  2  0  0  0  0  0  0
  189.1050  178.6420  137.1820 C   0  0  0  0  0  1  0  0  0  0  0  0
  190.1370  176.7640  138.5260 C   0  0  0  0  0  0  0  0  0  0  0  0
  190.5520  175.5770  138.5650 O   0  0  0  0  0  0  0  0  0  0  0  0
  1 17  1  6  0  0  0
  1  2  1  0  0  0  0
  1  9  1  0  0  0  0
  2 21  1  6  0  0  0
  2  8  1  0  0  0  0
  3 13  1  0  0  0  0
  4 11  1  1  0  0  0
  4 18  1  0  0  0  0
  5  3  1  0  0  0  0
  6 12  1  0  0  0  0
  7 10  1  6  0  0  0
  7  4  1  0  0  0  0
  8  5  2  0  0  0  0
  8  6  1  0  0  0  0
  9 18  1  1  0  0  0
  9  5  1  0  0  0  0
 10 16  1  0  0  0  0
 12 13  1  0  0  0  0
 14  1  1  0  0  0  0
 15 19  1  6  0  0  0
 15 14  1  0  0  0  0
 15  7  1  0  0  0  0
 16 11  1  0  0  0  0
 20 19  2  0  0  0  0
 21 22  1  0  0  0  0
 23 22  1  0  0  0  0
 24 23  1  0  0  0  0
 25 24  1  0  0  0  0
 26 25  1  0  0  0  0
 27 29  1  0  0  0  0
 28 27  1  0  0  0  0
 29 30  2  0  0  0  0
 29 26  1  0  0  0  0
M  END
>  <MODEL>
1

>  <REMARK>
 VINA RESULT:      -8.9      0.000      0.000
  Name = 
  8 active torsions:
  status: ('A' for Active; 'I' for Inactive)
    1  A    between atoms: C_1  and  C_5
    2  A    between atoms: C_1  and  C_22
    3  A    between atoms: C_2  and  C_18
    4  A    between atoms: C_2  and  C_22
    5  A    between atoms: C_11  and  C_25
    6  A    between atoms: C_14  and  C_18
    7  A    between atoms: C_14  and  C_20
    8  A    between atoms: C_20  and  C_28
                            x       y       z     vdW  Elec       q    Type
                         _______ _______ _______ _____ _____    ______ ____

>  <TORSDO>
F 8

$$$$
=
 OpenBabel10262421513D

 30 33  0  0  1  0  0  0  0  0999 V2000
  187.8000  177.5440  143.9580 C   0  0  1  0  0  0  0  0  0  0  0  0
  186.9160  177.6790  145.2220 C   0  0  2  0  0  3  0  0  0  0  0  0
  184.5410  179.1300  142.6520 C   0  0  0  0  0  2  0  0  0  0  0  0
  188.6040  178.2810  140.9480 C   0  0  1  0  0  3  0  0  0  0  0  0
  185.6760  178.4670  143.3870 C   0  0  0  0  0  0  0  0  0  0  0  0
  184.3120  178.1180  145.4470 C   0  0  0  0  0  2  0  0  0  0  0  0
  189.6950  177.5490  141.6640 C   0  0  1  0  0  3  0  0  0  0  0  0
  185.6030  178.1270  144.6720 C   0  0  0  0  0  0  0  0  0  0  0  0
  187.0820  178.4240  142.9080 C   0  0  2  0  0  3  0  0  0  0  0  0
  190.7540  177.4780  140.5840 C   0  0  0  0  0  2  0  0  0  0  0  0
  188.7810  177.8280  139.5230 C   0  0  0  0  0  2  0  0  0  0  0  0
  183.2810  179.0590  144.8200 C   0  0  0  0  0  2  0  0  0  0  0  0
  183.1960  178.8200  143.3130 C   0  0  0  0  0  2  0  0  0  0  0  0
  189.2670  177.9680  144.1730 C   0  0  0  0  0  2  0  0  0  0  0  0
  190.1040  178.3320  142.9310 C   0  0  1  0  0  3  0  0  0  0  0  0
  190.1250  177.4560  139.3240 O   0  0  0  0  0  0  0  0  0  0  0  0
  187.7790  176.0600  143.5900 C   0  0  0  0  0  1  0  0  0  0  0  0
  187.2210  177.9250  141.4720 C   0  0  0  0  0  2  0  0  0  0  0  0
  191.5460  178.1620  143.2980 C   0  0  0  0  0  3  0  0  0  0  0  0
  192.0780  178.9180  144.0940 O   0  0  0  0  0  0  0  0  0  0  0  0
  187.4140  178.7250  146.2230 C   0  0  0  0  0  2  0  0  0  0  0  0
  187.0030  178.3460  147.6380 C   0  0  0  0  0  2  0  0  0  0  0  0
  187.9170  177.2730  148.2110 C   0  0  0  0  0  2  0  0  0  0  0  0
  189.3700  177.5970  147.9000 C   0  0  0  0  0  2  0  0  0  0  0  0
  190.0690  176.3820  147.3180 C   0  0  0  0  0  2  0  0  0  0  0  0
  191.4340  176.7630  146.7730 C   0  0  0  0  0  2  0  0  0  0  0  0
  192.6450  174.7310  145.8310 N   0  0  0  0  0  2  0  0  0  0  0  0
  192.0110  174.8740  144.5300 C   0  0  0  0  0  1  0  0  0  0  0  0
  192.3770  175.6150  146.9210 C   0  0  0  0  0  0  0  0  0  0  0  0
  192.9670  175.4410  148.0180 O   0  0  0  0  0  0  0  0  0  0  0  0
  1 17  1  6  0  0  0
  1 14  1  0  0  0  0
  1  2  1  0  0  0  0
  2 21  1  1  0  0  0
  3 13  1  0  0  0  0
  3  5  1  0  0  0  0
  4 11  1  6  0  0  0
  4 18  1  0  0  0  0
  4  7  1  0  0  0  0
  5  8  2  0  0  0  0
  7 10  1  6  0  0  0
  7 15  1  0  0  0  0
  8  2  1  0  0  0  0
  8  6  1  0  0  0  0
  9 18  1  6  0  0  0
  9  5  1  0  0  0  0
  9  1  1  0  0  0  0
 12  6  1  0  0  0  0
 13 12  1  0  0  0  0
 15 19  1  1  0  0  0
 15 14  1  0  0  0  0
 16 11  1  0  0  0  0
 16 10  1  0  0  0  0
 19 20  2  0  0  0  0
 21 22  1  0  0  0  0
 22 23  1  0  0  0  0
 24 23  1  0  0  0  0
 25 24  1  0  0  0  0
 26 29  1  0  0  0  0
 26 25  1  0  0  0  0
 27 29  1  0  0  0  0
 28 27  1  0  0  0  0
 29 30  2  0  0  0  0
M  END
>  <MODEL>
2

>  <REMARK>
 VINA RESULT:      -8.6      3.005      6.109
  Name = 
  8 active torsions:
  status: ('A' for Active; 'I' for Inactive)
    1  A    between atoms: C_1  and  C_5
    2  A    between atoms: C_1  and  C_22
    3  A    between atoms: C_2  and  C_18
    4  A    between atoms: C_2  and  C_22
    5  A    between atoms: C_11  and  C_25
    6  A    between atoms: C_14  and  C_18
    7  A    between atoms: C_14  and  C_20
    8  A    between atoms: C_20  and  C_28
                            x       y       z     vdW  Elec       q    Type
                         _______ _______ _______ _____ _____    ______ ____

>  <TORSDO>
F 8

$$$$
=
 OpenBabel10262421513D

 30 33  0  0  1  0  0  0  0  0999 V2000
  188.0800  177.3020  143.5150 C   0  0  1  0  0  0  0  0  0  0  0  0
  189.5750  176.9390  143.3460 C   0  0  2  0  0  3  0  0  0  0  0  0
  189.5470  177.7120  147.0540 C   0  0  0  0  0  2  0  0  0  0  0  0
  185.6340  178.6600  145.0730 C   0  0  1  0  0  3  0  0  0  0  0  0
  189.2060  177.4320  145.6140 C   0  0  0  0  0  0  0  0  0  0  0  0
  191.4050  176.3430  145.1670 C   0  0  0  0  0  2  0  0  0  0  0  0
  185.2810  178.3030  143.6640 C   0  0  1  0  0  3  0  0  0  0  0  0
  190.0830  176.9300  144.7490 C   0  0  0  0  0  0  0  0  0  0  0  0
  188.0180  177.9770  144.9060 C   0  0  2  0  0  3  0  0  0  0  0  0
  183.8420  178.7680  143.5980 C   0  0  0  0  0  2  0  0  0  0  0  0
  184.3240  178.4890  145.7950 C   0  0  0  0  0  2  0  0  0  0  0  0
  191.8600  176.9040  146.5170 C   0  0  0  0  0  2  0  0  0  0  0  0
  190.7140  176.8430  147.5270 C   0  0  0  0  0  2  0  0  0  0  0  0
  187.5270  178.2120  142.3990 C   0  0  0  0  0  2  0  0  0  0  0  0
  186.2450  179.0150  142.6890 C   0  0  1  0  0  3  0  0  0  0  0  0
  183.2680  178.6730  144.8810 O   0  0  0  0  0  0  0  0  0  0  0  0
  187.3180  175.9770  143.4740 C   0  0  0  0  0  1  0  0  0  0  0  0
  186.7060  177.7510  145.6540 C   0  0  0  0  0  2  0  0  0  0  0  0
  185.6180  179.3490  141.3690 C   0  0  0  0  0  3  0  0  0  0  0  0
  186.0490  178.8630  140.3370 O   0  0  0  0  0  0  0  0  0  0  0  0
  190.3780  177.9580  142.5360 C   0  0  0  0  0  2  0  0  0  0  0  0
  191.1340  177.2690  141.4090 C   0  0  0  0  0  2  0  0  0  0  0  0
  190.1800  176.6660  140.3910 C   0  0  0  0  0  2  0  0  0  0  0  0
  190.2900  177.4010  139.0640 C   0  0  0  0  0  2  0  0  0  0  0  0
  189.1930  178.4420  138.9440 C   0  0  0  0  0  2  0  0  0  0  0  0
  189.1520  179.0140  137.5380 C   0  0  0  0  0  2  0  0  0  0  0  0
  188.0740  177.5410  135.7630 N   0  0  0  0  0  2  0  0  0  0  0  0
  189.3600  177.0280  135.3160 C   0  0  0  0  0  1  0  0  0  0  0  0
  187.9520  178.4980  136.8160 C   0  0  0  0  0  0  0  0  0  0  0  0
  186.8080  178.8940  137.1610 O   0  0  0  0  0  0  0  0  0  0  0  0
  1 17  1  1  0  0  0
  1  9  1  0  0  0  0
  2 21  1  6  0  0  0
  2  1  1  0  0  0  0
  2  8  1  0  0  0  0
  3 13  1  0  0  0  0
  4 18  1  1  0  0  0
  4 11  1  0  0  0  0
  5  3  1  0  0  0  0
  6 12  1  0  0  0  0
  7 10  1  6  0  0  0
  7  4  1  0  0  0  0
  8  6  1  0  0  0  0
  8  5  2  0  0  0  0
  9  5  1  0  0  0  0
  9 18  1  1  0  0  0
 10 16  1  0  0  0  0
 12 13  1  0  0  0  0
 14 15  1  0  0  0  0
 14  1  1  0  0  0  0
 15 19  1  6  0  0  0
 15  7  1  0  0  0  0
 16 11  1  0  0  0  0
 20 19  2  0  0  0  0
 22 21  1  0  0  0  0
 23 22  1  0  0  0  0
 24 23  1  0  0  0  0
 25 24  1  0  0  0  0
 26 25  1  0  0  0  0
 27 29  1  0  0  0  0
 28 27  1  0  0  0  0
 29 30  2  0  0  0  0
 29 26  1  0  0  0  0
M  END
>  <MODEL>
3

>  <REMARK>
 VINA RESULT:      -8.4      1.558      2.328
  Name = 
  8 active torsions:
  status: ('A' for Active; 'I' for Inactive)
    1  A    between atoms: C_1  and  C_5
    2  A    between atoms: C_1  and  C_22
    3  A    between atoms: C_2  and  C_18
    4  A    between atoms: C_2  and  C_22
    5  A    between atoms: C_11  and  C_25
    6  A    between atoms: C_14  and  C_18
    7  A    between atoms: C_14  and  C_20
    8  A    between atoms: C_20  and  C_28
                            x       y       z     vdW  Elec       q    Type
                         _______ _______ _______ _____ _____    ______ ____

>  <TORSDO>
F 8

$$$$
=
 OpenBabel10262421513D

 30 33  0  0  1  0  0  0  0  0999 V2000
  189.4310  178.0140  143.9190 C   0  0  1  0  0  0  0  0  0  0  0  0
  189.1870  177.9650  145.4470 C   0  0  2  0  0  3  0  0  0  0  0  0
  191.8930  175.3270  145.1710 C   0  0  0  0  0  2  0  0  0  0  0  0
  190.5060  176.7920  141.1620 C   0  0  1  0  0  3  0  0  0  0  0  0
  190.9000  176.4360  144.9400 C   0  0  0  0  0  0  0  0  0  0  0  0
  190.6620  176.9070  147.3790 C   0  0  0  0  0  2  0  0  0  0  0  0
  189.5800  177.9470  140.9480 C   0  0  1  0  0  3  0  0  0  0  0  0
  190.2660  177.0550  145.9340 C   0  0  0  0  0  0  0  0  0  0  0  0
  190.2570  176.7380  143.6340 C   0  0  2  0  0  3  0  0  0  0  0  0
  189.5640  178.0290  139.4360 C   0  0  0  0  0  2  0  0  0  0  0  0
  191.4500  176.9030  139.9950 C   0  0  0  0  0  2  0  0  0  0  0  0
  191.4130  175.5950  147.6180 C   0  0  0  0  0  2  0  0  0  0  0  0
  192.5100  175.4160  146.5680 C   0  0  0  0  0  2  0  0  0  0  0  0
  188.1370  178.0710  143.0810 C   0  0  0  0  0  2  0  0  0  0  0  0
  188.2140  177.6480  141.6020 C   0  0  1  0  0  3  0  0  0  0  0  0
  190.7960  177.5630  138.9370 O   0  0  0  0  0  0  0  0  0  0  0  0
  190.2250  179.2940  143.6620 C   0  0  0  0  0  1  0  0  0  0  0  0
  191.2520  176.8790  142.4850 C   0  0  0  0  0  2  0  0  0  0  0  0
  187.0600  178.2900  140.8930 C   0  0  0  0  0  3  0  0  0  0  0  0
  186.5720  179.3270  141.3130 O   0  0  0  0  0  0  0  0  0  0  0  0
  187.8310  177.3800  145.8450 C   0  0  0  0  0  2  0  0  0  0  0  0
  187.1610  178.2530  146.8960 C   0  0  0  0  0  2  0  0  0  0  0  0
  185.6640  178.3620  146.6520 C   0  0  0  0  0  2  0  0  0  0  0  0
  185.3930  179.1850  145.4020 C   0  0  0  0  0  2  0  0  0  0  0  0
  183.9670  178.9720  144.9280 C   0  0  0  0  0  2  0  0  0  0  0  0
  183.9480  178.5140  143.4810 C   0  0  0  0  0  2  0  0  0  0  0  0
  182.3560  178.5330  141.4950 N   0  0  0  0  0  2  0  0  0  0  0  0
  183.3460  177.9370  140.6120 C   0  0  0  0  0  1  0  0  0  0  0  0
  182.6250  178.8270  142.8670 C   0  0  0  0  0  0  0  0  0  0  0  0
  181.7200  179.3340  143.5790 O   0  0  0  0  0  0  0  0  0  0  0  0
  1 17  1  6  0  0  0
  1  2  1  0  0  0  0
  2 21  1  6  0  0  0
  2  8  1  0  0  0  0
  3 13  1  0  0  0  0
  4 11  1  6  0  0  0
  4 18  1  0  0  0  0
  5  3  1  0  0  0  0
  5  8  2  0  0  0  0
  6 12  1  0  0  0  0
  7 10  1  6  0  0  0
  7  4  1  0  0  0  0
  7 15  1  0  0  0  0
  8  6  1  0  0  0  0
  9 18  1  6  0  0  0
  9  1  1  0  0  0  0
  9  5  1  0  0  0  0
 13 12  1  0  0  0  0
 14  1  1  0  0  0  0
 15 19  1  6  0  0  0
 15 14  1  0  0  0  0
 16 10  1  0  0  0  0
 16 11  1  0  0  0  0
 19 20  2  0  0  0  0
 21 22  1  0  0  0  0
 23 22  1  0  0  0  0
 24 23  1  0  0  0  0
 25 24  1  0  0  0  0
 26 25  1  0  0  0  0
 27 29  1  0  0  0  0
 28 27  1  0  0  0  0
 29 26  1  0  0  0  0
 29 30  2  0  0  0  0
M  END
>  <MODEL>
4

>  <REMARK>
 VINA RESULT:      -8.3      2.095      5.979
  Name = 
  8 active torsions:
  status: ('A' for Active; 'I' for Inactive)
    1  A    between atoms: C_1  and  C_5
    2  A    between atoms: C_1  and  C_22
    3  A    between atoms: C_2  and  C_18
    4  A    between atoms: C_2  and  C_22
    5  A    between atoms: C_11  and  C_25
    6  A    between atoms: C_14  and  C_18
    7  A    between atoms: C_14  and  C_20
    8  A    between atoms: C_20  and  C_28
                            x       y       z     vdW  Elec       q    Type
                         _______ _______ _______ _____ _____    ______ ____

>  <TORSDO>
F 8

$$$$
=
 OpenBabel10262421513D

 30 33  0  0  1  0  0  0  0  0999 V2000
  187.9540  177.2480  143.5540 C   0  0  1  0  0  0  0  0  0  0  0  0
  189.4040  176.8240  143.2150 C   0  0  2  0  0  3  0  0  0  0  0  0
  189.8410  177.6190  146.8930 C   0  0  0  0  0  2  0  0  0  0  0  0
  185.7630  178.7120  145.3730 C   0  0  1  0  0  3  0  0  0  0  0  0
  189.3220  177.3450  145.5060 C   0  0  0  0  0  0  0  0  0  0  0  0
  191.4100  176.1660  144.8170 C   0  0  0  0  0  2  0  0  0  0  0  0
  185.2340  178.3610  144.0180 C   0  0  1  0  0  3  0  0  0  0  0  0
  190.0720  176.8030  144.5500 C   0  0  0  0  0  0  0  0  0  0  0  0
  188.0820  177.9320  144.9360 C   0  0  2  0  0  3  0  0  0  0  0  0
  183.8160  178.8840  144.1170 C   0  0  0  0  0  2  0  0  0  0  0  0
  184.5410  178.5980  146.2450 C   0  0  0  0  0  2  0  0  0  0  0  0
  192.0410  176.7160  146.0980 C   0  0  0  0  0  2  0  0  0  0  0  0
  191.0200  176.7070  147.2360 C   0  0  0  0  0  2  0  0  0  0  0  0
  187.3100  178.1730  142.5010 C   0  0  0  0  0  2  0  0  0  0  0  0
  186.1030  179.0280  142.9300 C   0  0  1  0  0  3  0  0  0  0  0  0
  183.3930  178.8190  145.4590 O   0  0  0  0  0  0  0  0  0  0  0  0
  187.1420  175.9540  143.6160 C   0  0  0  0  0  1  0  0  0  0  0  0
  186.8590  177.7640  145.8340 C   0  0  0  0  0  2  0  0  0  0  0  0
  185.3400  179.3800  141.6890 C   0  0  0  0  0  3  0  0  0  0  0  0
  185.8860  179.3600  140.5990 O   0  0  0  0  0  0  0  0  0  0  0  0
  190.1460  177.8060  142.3070 C   0  0  0  0  0  2  0  0  0  0  0  0
  190.5720  177.1210  141.0160 C   0  0  0  0  0  2  0  0  0  0  0  0
  189.6380  177.4730  139.8690 C   0  0  0  0  0  2  0  0  0  0  0  0
  189.7920  176.4700  138.7360 C   0  0  0  0  0  2  0  0  0  0  0  0
  191.2170  175.9510  138.6790 C   0  0  0  0  0  2  0  0  0  0  0  0
  191.9430  176.5180  137.4720 C   0  0  0  0  0  2  0  0  0  0  0  0
  194.2480  176.0900  136.4810 N   0  0  0  0  0  2  0  0  0  0  0  0
  193.7270  176.0380  135.1240 C   0  0  0  0  0  1  0  0  0  0  0  0
  193.4130  176.3080  137.6190 C   0  0  0  0  0  0  0  0  0  0  0  0
  193.9290  176.3510  138.7660 O   0  0  0  0  0  0  0  0  0  0  0  0
  1 17  1  1  0  0  0
  1  9  1  0  0  0  0
  2 21  1  6  0  0  0
  2  1  1  0  0  0  0
  2  8  1  0  0  0  0
  3 13  1  0  0  0  0
  4 18  1  1  0  0  0
  4 11  1  0  0  0  0
  5  3  1  0  0  0  0
  6 12  1  0  0  0  0
  7 10  1  1  0  0  0
  7  4  1  0  0  0  0
  8  6  1  0  0  0  0
  8  5  2  0  0  0  0
  9  5  1  0  0  0  0
  9 18  1  1  0  0  0
 10 16  1  0  0  0  0
 12 13  1  0  0  0  0
 14 15  1  0  0  0  0
 14  1  1  0  0  0  0
 15 19  1  6  0  0  0
 15  7  1  0  0  0  0
 16 11  1  0  0  0  0
 20 19  2  0  0  0  0
 22 21  1  0  0  0  0
 23 22  1  0  0  0  0
 24 23  1  0  0  0  0
 25 24  1  0  0  0  0
 26 29  1  0  0  0  0
 26 25  1  0  0  0  0
 27 29  1  0  0  0  0
 28 27  1  0  0  0  0
 29 30  2  0  0  0  0
M  END
>  <MODEL>
5

>  <REMARK>
 VINA RESULT:      -7.8      1.953      2.761
  Name = 
  8 active torsions:
  status: ('A' for Active; 'I' for Inactive)
    1  A    between atoms: C_1  and  C_5
    2  A    between atoms: C_1  and  C_22
    3  A    between atoms: C_2  and  C_18
    4  A    between atoms: C_2  and  C_22
    5  A    between atoms: C_11  and  C_25
    6  A    between atoms: C_14  and  C_18
    7  A    between atoms: C_14  and  C_20
    8  A    between atoms: C_20  and  C_28
                            x       y       z     vdW  Elec       q    Type
                         _______ _______ _______ _____ _____    ______ ____

>  <TORSDO>
F 8

$$$$
=
 OpenBabel10262421513D

 30 33  0  0  1  0  0  0  0  0999 V2000
  188.2010  177.2050  143.3780 C   0  0  1  0  0  0  0  0  0  0  0  0
  187.5280  177.5220  142.0200 C   0  0  2  0  0  3  0  0  0  0  0  0
  191.1630  177.7270  140.9700 C   0  0  0  0  0  2  0  0  0  0  0  0
  190.6820  177.2060  145.4010 C   0  0  1  0  0  3  0  0  0  0  0  0
  189.8560  177.5200  141.6900 C   0  0  0  0  0  0  0  0  0  0  0  0
  188.5390  177.5140  139.5700 C   0  0  0  0  0  2  0  0  0  0  0  0
  189.3870  176.9200  146.0920 C   0  0  1  0  0  3  0  0  0  0  0  0
  188.6790  177.5450  141.0690 C   0  0  0  0  0  0  0  0  0  0  0  0
  189.6790  177.6060  143.1630 C   0  0  2  0  0  3  0  0  0  0  0  0
  189.8530  176.7480  147.5230 C   0  0  0  0  0  2  0  0  0  0  0  0
  191.6720  176.4130  146.2130 C   0  0  0  0  0  2  0  0  0  0  0  0
  189.8050  178.0330  138.8840 C   0  0  0  0  0  2  0  0  0  0  0  0
  191.0430  177.3700  139.4880 C   0  0  0  0  0  2  0  0  0  0  0  0
  187.5640  177.9380  144.5770 C   0  0  0  0  0  2  0  0  0  0  0  0
  188.4030  178.0880  145.8610 C   0  0  1  0  0  3  0  0  0  0  0  0
  191.1740  176.2580  147.5200 O   0  0  0  0  0  0  0  0  0  0  0  0
  188.0290  175.7010  143.5900 C   0  0  0  0  0  1  0  0  0  0  0  0
  190.6790  176.7600  143.9470 C   0  0  0  0  0  2  0  0  0  0  0  0
  187.4490  178.2990  146.9960 C   0  0  0  0  0  3  0  0  0  0  0  0
  186.3540  178.7990  146.8020 O   0  0  0  0  0  0  0  0  0  0  0  0
  186.8230  178.8790  141.9750 C   0  0  0  0  0  2  0  0  0  0  0  0
  185.4320  178.7380  141.3750 C   0  0  0  0  0  2  0  0  0  0  0  0
  184.4710  178.0850  142.3560 C   0  0  0  0  0  2  0  0  0  0  0  0
  184.0560  179.0800  143.4300 C   0  0  0  0  0  2  0  0  0  0  0  0
  182.5610  179.0020  143.6750 C   0  0  0  0  0  2  0  0  0  0  0  0
  181.8050  178.9800  142.3580 C   0  0  0  0  0  2  0  0  0  0  0  0
  179.2880  178.7100  142.0930 N   0  0  0  0  0  2  0  0  0  0  0  0
  179.4330  177.4600  141.3640 C   0  0  0  0  0  1  0  0  0  0  0  0
  180.4080  179.4600  142.5680 C   0  0  0  0  0  0  0  0  0  0  0  0
  180.2120  180.5290  143.2000 O   0  0  0  0  0  0  0  0  0  0  0  0
  1 17  1  1  0  0  0
  1 14  1  0  0  0  0
  2 21  1  1  0  0  0
  2  1  1  0  0  0  0
  3  5  1  0  0  0  0
  4 18  1  6  0  0  0
  4  7  1  0  0  0  0
  4 11  1  0  0  0  0
  5  9  1  0  0  0  0
  6  8  1  0  0  0  0
  7 10  1  1  0  0  0
  8  5  2  0  0  0  0
  8  2  1  0  0  0  0
  9  1  1  0  0  0  0
  9 18  1  1  0  0  0
 11 16  1  0  0  0  0
 12 13  1  0  0  0  0
 12  6  1  0  0  0  0
 13  3  1  0  0  0  0
 14 15  1  0  0  0  0
 15  7  1  0  0  0  0
 15 19  1  1  0  0  0
 16 10  1  0  0  0  0
 20 19  2  0  0  0  0
 22 21  1  0  0  0  0
 22 23  1  0  0  0  0
 23 24  1  0  0  0  0
 24 25  1  0  0  0  0
 26 29  1  0  0  0  0
 26 25  1  0  0  0  0
 27 29  1  0  0  0  0
 28 27  1  0  0  0  0
 29 30  2  0  0  0  0
M  END
>  <MODEL>
6

>  <REMARK>
 VINA RESULT:      -7.7      3.216      7.549
  Name = 
  8 active torsions:
  status: ('A' for Active; 'I' for Inactive)
    1  A    between atoms: C_1  and  C_5
    2  A    between atoms: C_1  and  C_22
    3  A    between atoms: C_2  and  C_18
    4  A    between atoms: C_2  and  C_22
    5  A    between atoms: C_11  and  C_25
    6  A    between atoms: C_14  and  C_18
    7  A    between atoms: C_14  and  C_20
    8  A    between atoms: C_20  and  C_28
                            x       y       z     vdW  Elec       q    Type
                         _______ _______ _______ _____ _____    ______ ____

>  <TORSDO>
F 8

$$$$
=
 OpenBabel10262421513D

 30 33  0  0  1  0  0  0  0  0999 V2000
  187.1000  177.5220  144.9110 C   0  0  1  0  0  0  0  0  0  0  0  0
  185.7250  177.8980  144.3060 C   0  0  2  0  0  3  0  0  0  0  0  0
  187.9320  178.6040  141.3080 C   0  0  0  0  0  2  0  0  0  0  0  0
  190.3000  177.5940  144.9830 C   0  0  1  0  0  3  0  0  0  0  0  0
  187.3520  178.1840  142.6340 C   0  0  0  0  0  0  0  0  0  0  0  0
  185.0100  178.2450  141.7780 C   0  0  0  0  0  2  0  0  0  0  0  0
  189.7140  177.1000  146.2680 C   0  0  1  0  0  3  0  0  0  0  0  0
  186.0430  178.1410  142.8680 C   0  0  0  0  0  0  0  0  0  0  0  0
  188.1200  178.1030  143.9040 C   0  0  2  0  0  3  0  0  0  0  0  0
  190.9670  176.8380  147.0760 C   0  0  0  0  0  2  0  0  0  0  0  0
  191.5990  176.8370  144.9000 C   0  0  0  0  0  2  0  0  0  0  0  0
  185.5690  178.9660  140.5490 C   0  0  0  0  0  2  0  0  0  0  0  0
  186.9320  178.3860  140.1710 C   0  0  0  0  0  2  0  0  0  0  0  0
  187.3200  178.0570  146.3410 C   0  0  0  0  0  2  0  0  0  0  0  0
  188.7680  178.1700  146.8550 C   0  0  1  0  0  3  0  0  0  0  0  0
  192.0170  176.4980  146.2010 O   0  0  0  0  0  0  0  0  0  0  0  0
  187.1330  175.9940  144.9610 C   0  0  0  0  0  1  0  0  0  0  0  0
  189.4110  177.2980  143.7850 C   0  0  0  0  0  2  0  0  0  0  0  0
  188.7130  178.1600  148.3530 C   0  0  0  0  0  3  0  0  0  0  0  0
  187.6490  178.0210  148.9340 O   0  0  0  0  0  0  0  0  0  0  0  0
  185.1080  179.1670  144.8970 C   0  0  0  0  0  2  0  0  0  0  0  0
  183.6210  178.9690  145.1500 C   0  0  0  0  0  2  0  0  0  0  0  0
  182.7950  179.3720  143.9390 C   0  0  0  0  0  2  0  0  0  0  0  0
  181.4170  178.7320  144.0030 C   0  0  0  0  0  2  0  0  0  0  0  0
  180.5650  179.1920  142.8350 C   0  0  0  0  0  2  0  0  0  0  0  0
  180.7000  178.2340  141.6660 C   0  0  0  0  0  2  0  0  0  0  0  0
  181.9150  178.3550  139.4310 N   0  0  0  0  0  2  0  0  0  0  0  0
  182.3690  176.9760  139.5290 C   0  0  0  0  0  1  0  0  0  0  0  0
  181.1260  178.9800  140.4450 C   0  0  0  0  0  0  0  0  0  0  0  0
  180.7590  180.1730  140.2930 O   0  0  0  0  0  0  0  0  0  0  0  0
  1 17  1  1  0  0  0
  1 14  1  0  0  0  0
  2 21  1  1  0  0  0
  2  1  1  0  0  0  0
  3  5  1  0  0  0  0
  4 18  1  6  0  0  0
  4  7  1  0  0  0  0
  5  8  2  0  0  0  0
  5  9  1  0  0  0  0
  6  8  1  0  0  0  0
  7 15  1  0  0  0  0
  7 10  1  1  0  0  0
  8  2  1  0  0  0  0
  9 18  1  6  0  0  0
  9  1  1  0  0  0  0
 11  4  1  0  0  0  0
 11 16  1  0  0  0  0
 12  6  1  0  0  0  0
 13 12  1  0  0  0  0
 13  3  1  0  0  0  0
 14 15  1  0  0  0  0
 15 19  1  1  0  0  0
 16 10  1  0  0  0  0
 19 20  2  0  0  0  0
 21 22  1  0  0  0  0
 23 24  1  0  0  0  0
 23 22  1  0  0  0  0
 25 24  1  0  0  0  0
 26 25  1  0  0  0  0
 27 28  1  0  0  0  0
 27 29  1  0  0  0  0
 29 26  1  0  0  0  0
 30 29  2  0  0  0  0
M  END
>  <MODEL>
7

>  <REMARK>
 VINA RESULT:      -7.4      2.948      7.430
  Name = 
  8 active torsions:
  status: ('A' for Active; 'I' for Inactive)
    1  A    between atoms: C_1  and  C_5
    2  A    between atoms: C_1  and  C_22
    3  A    between atoms: C_2  and  C_18
    4  A    between atoms: C_2  and  C_22
    5  A    between atoms: C_11  and  C_25
    6  A    between atoms: C_14  and  C_18
    7  A    between atoms: C_14  and  C_20
    8  A    between atoms: C_20  and  C_28
                            x       y       z     vdW  Elec       q    Type
                         _______ _______ _______ _____ _____    ______ ____

>  <TORSDO>
F 8

$$$$
=
 OpenBabel10262421513D

 30 33  0  0  1  0  0  0  0  0999 V2000
  189.1780  177.9090  143.0210 C   0  0  1  0  0  0  0  0  0  0  0  0
  188.4880  178.1800  141.6620 C   0  0  2  0  0  3  0  0  0  0  0  0
  185.4270  178.0490  143.8910 C   0  0  0  0  0  2  0  0  0  0  0  0
  189.1880  176.9330  146.0700 C   0  0  1  0  0  3  0  0  0  0  0  0
  186.8180  178.0930  143.3140 C   0  0  0  0  0  0  0  0  0  0  0  0
  186.0260  179.0040  141.1310 C   0  0  0  0  0  2  0  0  0  0  0  0
  190.5690  177.0590  145.5100 C   0  0  1  0  0  3  0  0  0  0  0  0
  187.0630  178.4070  142.0450 C   0  0  0  0  0  0  0  0  0  0  0  0
  188.0160  177.4840  143.9490 C   0  0  2  0  0  3  0  0  0  0  0  0
  191.4040  176.6450  146.7040 C   0  0  0  0  0  2  0  0  0  0  0  0
  189.3870  177.2750  147.5230 C   0  0  0  0  0  2  0  0  0  0  0  0
  184.6100  178.6630  141.6010 C   0  0  0  0  0  2  0  0  0  0  0  0
  184.4690  178.9400  143.0980 C   0  0  0  0  0  2  0  0  0  0  0  0
  190.2940  176.8460  142.9550 C   0  0  0  0  0  2  0  0  0  0  0  0
  190.7120  176.1550  144.2660 C   0  0  1  0  0  3  0  0  0  0  0  0
  190.7150  176.9800  147.8860 O   0  0  0  0  0  0  0  0  0  0  0  0
  189.8070  179.2370  143.4440 C   0  0  0  0  0  1  0  0  0  0  0  0
  188.2020  177.8840  145.4100 C   0  0  0  0  0  2  0  0  0  0  0  0
  192.1000  175.6260  144.0700 C   0  0  0  0  0  3  0  0  0  0  0  0
  192.3690  174.4690  144.3480 O   0  0  0  0  0  0  0  0  0  0  0  0
  188.5550  177.0070  140.6820 C   0  0  0  0  0  2  0  0  0  0  0  0
  188.3540  177.4930  139.2540 C   0  0  0  0  0  2  0  0  0  0  0  0
  189.6810  177.8270  138.5920 C   0  0  0  0  0  2  0  0  0  0  0  0
  189.7070  177.2990  137.1650 C   0  0  0  0  0  2  0  0  0  0  0  0
  190.9720  176.5000  136.9200 C   0  0  0  0  0  2  0  0  0  0  0  0
  191.5840  176.0520  138.2360 C   0  0  0  0  0  2  0  0  0  0  0  0
  193.5600  177.1310  139.4250 N   0  0  0  0  0  2  0  0  0  0  0  0
  192.7530  177.4910  140.5800 C   0  0  0  0  0  1  0  0  0  0  0  0
  193.0210  176.4520  138.2890 C   0  0  0  0  0  0  0  0  0  0  0  0
  193.7770  176.1620  137.3270 O   0  0  0  0  0  0  0  0  0  0  0  0
  1 17  1  1  0  0  0
  1  9  1  0  0  0  0
  2 21  1  6  0  0  0
  2  8  1  0  0  0  0
  2  1  1  0  0  0  0
  4 18  1  6  0  0  0
  4 11  1  0  0  0  0
  5  3  1  0  0  0  0
  5  9  1  0  0  0  0
  6 12  1  0  0  0  0
  6  8  1  0  0  0  0
  7  4  1  0  0  0  0
  7 10  1  1  0  0  0
  8  5  2  0  0  0  0
  9 18  1  1  0  0  0
 10 16  1  0  0  0  0
 11 16  1  0  0  0  0
 12 13  1  0  0  0  0
 13  3  1  0  0  0  0
 14  1  1  0  0  0  0
 14 15  1  0  0  0  0
 15 19  1  6  0  0  0
 15  7  1  0  0  0  0
 19 20  2  0  0  0  0
 22 21  1  0  0  0  0
 23 22  1  0  0  0  0
 24 23  1  0  0  0  0
 25 24  1  0  0  0  0
 25 26  1  0  0  0  0
 26 29  1  0  0  0  0
 27 28  1  0  0  0  0
 29 27  1  0  0  0  0
 30 29  2  0  0  0  0
M  END
>  <MODEL>
8

>  <REMARK>
 VINA RESULT:      -7.3      2.808      5.556
  Name = 
  8 active torsions:
  status: ('A' for Active; 'I' for Inactive)
    1  A    between atoms: C_1  and  C_5
    2  A    between atoms: C_1  and  C_22
    3  A    between atoms: C_2  and  C_18
    4  A    between atoms: C_2  and  C_22
    5  A    between atoms: C_11  and  C_25
    6  A    between atoms: C_14  and  C_18
    7  A    between atoms: C_14  and  C_20
    8  A    between atoms: C_20  and  C_28
                            x       y       z     vdW  Elec       q    Type
                         _______ _______ _______ _____ _____    ______ ____

>  <TORSDO>
F 8

$$$$
=
 OpenBabel10262421513D

 30 33  0  0  1  0  0  0  0  0999 V2000
  184.7210  178.7210  142.8430 C   0  0  1  0  0  0  0  0  0  0  0  0
  183.7900  178.8120  141.6090 C   0  0  2  0  0  3  0  0  0  0  0  0
  181.1730  178.6260  144.3430 C   0  0  0  0  0  2  0  0  0  0  0  0
  185.3360  178.0220  145.9060 C   0  0  1  0  0  3  0  0  0  0  0  0
  182.4370  178.7340  143.5300 C   0  0  0  0  0  0  0  0  0  0  0  0
  181.2050  179.3790  141.4590 C   0  0  0  0  0  2  0  0  0  0  0  0
  186.5850  178.2120  145.1050 C   0  0  1  0  0  3  0  0  0  0  0  0
  182.4340  178.9530  142.2180 C   0  0  0  0  0  0  0  0  0  0  0  0
  183.7770  178.2840  143.9880 C   0  0  2  0  0  3  0  0  0  0  0  0
  187.6450  177.9760  146.1610 C   0  0  0  0  0  2  0  0  0  0  0  0
  185.7420  178.5060  147.2720 C   0  0  0  0  0  2  0  0  0  0  0  0
  179.9270  178.9650  142.1930 C   0  0  0  0  0  2  0  0  0  0  0  0
  180.0140  179.3610  143.6670 C   0  0  0  0  0  2  0  0  0  0  0  0
  185.9070  177.7510  142.6600 C   0  0  0  0  0  2  0  0  0  0  0  0
  186.6040  177.2160  143.9250 C   0  0  1  0  0  3  0  0  0  0  0  0
  187.1340  178.3550  147.4180 O   0  0  0  0  0  0  0  0  0  0  0  0
  185.2800  180.1280  143.0510 C   0  0  0  0  0  1  0  0  0  0  0  0
  184.1660  178.8260  145.3610 C   0  0  0  0  0  2  0  0  0  0  0  0
  187.9840  176.7890  143.5270 C   0  0  0  0  0  3  0  0  0  0  0  0
  188.2110  175.6310  143.2180 O   0  0  0  0  0  0  0  0  0  0  0  0
  183.8050  177.5670  140.7210 C   0  0  0  0  0  2  0  0  0  0  0  0
  183.7150  177.9570  139.2530 C   0  0  0  0  0  2  0  0  0  0  0  0
  185.0430  178.4890  138.7400 C   0  0  0  0  0  2  0  0  0  0  0  0
  185.4800  177.7160  137.5050 C   0  0  0  0  0  2  0  0  0  0  0  0
  186.9780  177.4760  137.5340 C   0  0  0  0  0  2  0  0  0  0  0  0
  187.5570  177.8780  138.8790 C   0  0  0  0  0  2  0  0  0  0  0  0
  190.0580  177.9290  139.3530 N   0  0  0  0  0  2  0  0  0  0  0  0
  189.9750  176.7950  140.2600 C   0  0  0  0  0  1  0  0  0  0  0  0
  188.9130  178.4710  138.6900 C   0  0  0  0  0  0  0  0  0  0  0  0
  189.0560  179.4480  137.9110 O   0  0  0  0  0  0  0  0  0  0  0  0
  1 17  1  1  0  0  0
  1  9  1  0  0  0  0
  2 21  1  1  0  0  0
  2  8  1  0  0  0  0
  2  1  1  0  0  0  0
  4 18  1  6  0  0  0
  4 11  1  0  0  0  0
  5  9  1  0  0  0  0
  5  3  1  0  0  0  0
  6 12  1  0  0  0  0
  6  8  1  0  0  0  0
  7  4  1  0  0  0  0
  7 10  1  1  0  0  0
  8  5  2  0  0  0  0
  9 18  1  1  0  0  0
 10 16  1  0  0  0  0
 11 16  1  0  0  0  0
 12 13  1  0  0  0  0
 13  3  1  0  0  0  0
 14  1  1  0  0  0  0
 14 15  1  0  0  0  0
 15 19  1  6  0  0  0
 15  7  1  0  0  0  0
 20 19  2  0  0  0  0
 22 21  1  0  0  0  0
 23 22  1  0  0  0  0
 24 25  1  0  0  0  0
 24 23  1  0  0  0  0
 25 26  1  0  0  0  0
 27 28  1  0  0  0  0
 29 26  1  0  0  0  0
 29 27  1  0  0  0  0
 30 29  2  0  0  0  0
M  END
>  <MODEL>
9

>  <REMARK>
 VINA RESULT:      -7.3      2.363      5.847
  Name = 
  8 active torsions:
  status: ('A' for Active; 'I' for Inactive)
    1  A    between atoms: C_1  and  C_5
    2  A    between atoms: C_1  and  C_22
    3  A    between atoms: C_2  and  C_18
    4  A    between atoms: C_2  and  C_22
    5  A    between atoms: C_11  and  C_25
    6  A    between atoms: C_14  and  C_18
    7  A    between atoms: C_14  and  C_20
    8  A    between atoms: C_20  and  C_28
                            x       y       z     vdW  Elec       q    Type
                         _______ _______ _______ _____ _____    ______ ____

>  <TORSDO>
F 8

$$$$
