=
 OpenBabel10252414563D

 34 38  0  0  1  0  0  0  0  0999 V2000
  190.2970  175.9400  137.4740 C   0  0  0  0  0  0  0  0  0  0  0  0
  192.4140  176.4250  138.7880 C   0  0  2  0  0  3  0  0  0  0  0  0
  190.1120  177.2620  139.5170 C   0  0  0  0  0  0  0  0  0  0  0  0
  190.2930  178.5710  143.1680 C   0  0  0  0  0  1  0  0  0  0  0  0
  193.1100  176.6410  137.5980 O   0  0  0  0  0  1  0  0  0  0  0  0
  192.1060  177.3390  141.0890 C   0  0  0  0  0  2  0  0  0  0  0  0
  190.9160  176.5780  138.5700 C   0  0  0  0  0  0  0  0  0  0  0  0
  189.7200  177.8610  141.9410 C   0  0  1  0  0  0  0  0  0  0  0  0
  188.7250  177.4170  139.2990 C   0  0  0  0  0  0  0  0  0  0  0  0
  188.9130  176.0630  137.2920 C   0  0  0  0  0  3  0  0  0  0  0  0
  192.9690  177.3760  139.8430 C   0  0  0  0  0  2  0  0  0  0  0  0
  188.5190  178.6830  141.4860 C   0  0  0  0  0  2  0  0  0  0  0  0
  187.9110  178.1350  140.2630 N   0  0  0  0  0  0  0  0  0  0  0  0
  190.7170  177.8850  140.7570 C   0  0  2  0  0  3  0  0  0  0  0  0
  188.1410  176.7950  138.1890 C   0  0  0  0  0  3  0  0  0  0  0  0
  184.2340  178.5610  140.9440 C   0  0  0  0  0  0  0  0  0  0  0  0
  183.7400  178.3000  139.6300 N   0  0  0  0  0  2  0  0  0  0  0  0
  186.5310  178.4630  140.0090 C   0  0  0  0  0  0  0  0  0  0  0  0
  184.5840  178.5950  138.4770 C   0  0  0  0  0  2  0  0  0  0  0  0
  185.6570  178.9960  141.1230 C   0  0  0  0  0  2  0  0  0  0  0  0
  186.0150  178.2600  138.7850 C   0  0  0  0  0  3  0  0  0  0  0  0
  183.4780  178.4340  141.9420 O   0  0  0  0  0  0  0  0  0  0  0  0
  191.0650  173.7590  136.5790 C   0  0  0  0  0  1  0  0  0  0  0  0
  191.0640  175.1810  136.5820 O   0  0  0  0  0  0  0  0  0  0  0  0
  189.2400  176.5600  142.2580 O   0  0  0  0  0  0  0  0  0  0  0  0
  188.8250  176.4920  143.5970 C   0  0  0  0  0  2  0  0  0  0  0  0
  187.3100  176.4090  143.6460 C   0  0  0  0  0  2  0  0  0  0  0  0
  184.8890  178.6730  145.4930 C   0  0  0  0  0  2  0  0  0  0  0  0
  186.7870  177.0760  144.9040 C   0  0  0  0  0  3  0  0  0  0  0  0
  186.0270  178.3420  144.5240 C   0  0  0  0  0  2  0  0  0  0  0  0
  186.6080  178.8920  147.3630 C   0  0  0  0  0  2  0  0  0  0  0  0
  187.5640  177.7130  147.2280 C   0  0  0  0  0  2  0  0  0  0  0  0
  187.9730  177.4630  145.7790 C   0  0  0  0  0  2  0  0  0  0  0  0
  185.2010  178.4550  146.9770 C   0  0  0  0  0  2  0  0  0  0  0  0
  1  7  1  0  0  0  0
  2  5  1  6  0  0  0
  2 11  1  0  0  0  0
  3 14  1  0  0  0  0
  7  2  1  0  0  0  0
  7  3  2  0  0  0  0
  8 25  1  0  0  0  0
  8  4  1  1  0  0  0
  9  3  1  0  0  0  0
  9 13  1  0  0  0  0
 10  1  2  0  0  0  0
 10 15  1  0  0  0  0
 11  6  1  0  0  0  0
 12  8  1  0  0  0  0
 13 12  1  0  0  0  0
 14  6  1  1  0  0  0
 14  8  1  0  0  0  0
 15  9  2  0  0  0  0
 16 20  1  0  0  0  0
 16 22  2  0  0  0  0
 17 16  1  0  0  0  0
 18 13  1  0  0  0  0
 18 20  1  0  0  0  0
 19 21  1  0  0  0  0
 19 17  1  0  0  0  0
 21 18  2  0  0  0  0
 23 24  1  0  0  0  0
 24  1  1  0  0  0  0
 25 26  1  0  0  0  0
 26 27  1  0  0  0  0
 27 29  1  0  0  0  0
 28 34  1  0  0  0  0
 29 33  1  0  0  0  0
 30 29  1  0  0  0  0
 30 28  1  0  0  0  0
 32 31  1  0  0  0  0
 33 32  1  0  0  0  0
 34 31  1  0  0  0  0
M  END
>  <MODEL>
1

>  <REMARK>
 VINA RESULT:      -8.8      0.000      0.000
  Name = 
  6 active torsions:
  status: ('A' for Active; 'I' for Inactive)
    1  A    between atoms: C_1  and  O_19
    2  A    between atoms: C_3  and  C_13
    3  A    between atoms: C_3  and  C_17
    4  A    between atoms: C_12  and  N_28
    5  A    between atoms: C_17  and  O_29
    6  A    between atoms: C_18  and  O_29
                            x       y       z     vdW  Elec       q    Type
                         _______ _______ _______ _____ _____    ______ ____

>  <TORSDO>
F 6

$$$$
=
 OpenBabel10252414563D

 34 38  0  0  1  0  0  0  0  0999 V2000
  185.6490  177.4580  137.4300 C   0  0  0  0  0  0  0  0  0  0  0  0
  188.1550  177.7780  137.1770 C   0  0  2  0  0  3  0  0  0  0  0  0
  186.9140  178.2560  139.3600 C   0  0  0  0  0  0  0  0  0  0  0  0
  189.4700  178.6960  142.2490 C   0  0  0  0  0  1  0  0  0  0  0  0
  187.9640  178.3130  135.9020 O   0  0  0  0  0  1  0  0  0  0  0  0
  189.4490  178.1120  139.2840 C   0  0  0  0  0  2  0  0  0  0  0  0
  186.8760  177.8680  137.9960 C   0  0  0  0  0  0  0  0  0  0  0  0
  188.1910  178.2480  141.5410 C   0  0  1  0  0  0  0  0  0  0  0  0
  185.7200  178.3560  140.1080 C   0  0  0  0  0  0  0  0  0  0  0  0
  184.4790  177.5190  138.1970 C   0  0  0  0  0  3  0  0  0  0  0  0
  189.3350  178.4980  137.8240 C   0  0  0  0  0  2  0  0  0  0  0  0
  187.0530  179.0640  142.1450 C   0  0  0  0  0  2  0  0  0  0  0  0
  185.7640  178.7710  141.4990 N   0  0  0  0  0  0  0  0  0  0  0  0
  188.2180  178.6180  140.0370 C   0  0  2  0  0  3  0  0  0  0  0  0
  184.5140  177.9660  139.5140 C   0  0  0  0  0  3  0  0  0  0  0  0
  183.5490  179.1790  144.5140 C   0  0  0  0  0  0  0  0  0  0  0  0
  182.3070  178.7960  143.9210 N   0  0  0  0  0  2  0  0  0  0  0  0
  184.5700  179.0480  142.2550 C   0  0  0  0  0  0  0  0  0  0  0  0
  182.1010  179.0080  142.4930 C   0  0  0  0  0  2  0  0  0  0  0  0
  184.6660  179.6570  143.6370 C   0  0  0  0  0  2  0  0  0  0  0  0
  183.3700  178.7300  141.7410 C   0  0  0  0  0  3  0  0  0  0  0  0
  183.7000  179.1230  145.7620 O   0  0  0  0  0  0  0  0  0  0  0  0
  184.4470  177.0510  135.3010 C   0  0  0  0  0  1  0  0  0  0  0  0
  185.6110  176.9830  136.1140 O   0  0  0  0  0  0  0  0  0  0  0  0
  187.9000  176.8790  141.7880 O   0  0  0  0  0  0  0  0  0  0  0  0
  188.3180  176.5020  143.0740 C   0  0  0  0  0  2  0  0  0  0  0  0
  187.1500  176.6270  144.0350 C   0  0  0  0  0  2  0  0  0  0  0  0
  186.8290  178.2580  147.4470 C   0  0  0  0  0  2  0  0  0  0  0  0
  187.6500  176.9210  145.4360 C   0  0  0  0  0  3  0  0  0  0  0  0
  187.0300  178.2250  145.9290 C   0  0  0  0  0  2  0  0  0  0  0  0
  189.3490  178.0110  147.7400 C   0  0  0  0  0  2  0  0  0  0  0  0
  189.8060  176.9340  146.7630 C   0  0  0  0  0  2  0  0  0  0  0  0
  189.1640  177.0890  145.3870 C   0  0  0  0  0  2  0  0  0  0  0  0
  187.9690  177.6600  148.2770 C   0  0  0  0  0  2  0  0  0  0  0  0
  1  7  2  0  0  0  0
  1 10  1  0  0  0  0
  2  5  1  6  0  0  0
  2 11  1  0  0  0  0
  2  7  1  0  0  0  0
  3 14  1  0  0  0  0
  3  9  2  0  0  0  0
  7  3  1  0  0  0  0
  8 25  1  0  0  0  0
  8 12  1  0  0  0  0
  8  4  1  1  0  0  0
  9 13  1  0  0  0  0
 10 15  2  0  0  0  0
 11  6  1  0  0  0  0
 13 12  1  0  0  0  0
 13 18  1  0  0  0  0
 14  6  1  6  0  0  0
 14  8  1  0  0  0  0
 15  9  1  0  0  0  0
 16 22  2  0  0  0  0
 17 16  1  0  0  0  0
 18 20  1  0  0  0  0
 19 17  1  0  0  0  0
 20 16  1  0  0  0  0
 21 18  2  0  0  0  0
 21 19  1  0  0  0  0
 23 24  1  0  0  0  0
 24  1  1  0  0  0  0
 25 26  1  0  0  0  0
 26 27  1  0  0  0  0
 27 29  1  0  0  0  0
 28 34  1  0  0  0  0
 29 30  1  0  0  0  0
 30 28  1  0  0  0  0
 31 34  1  0  0  0  0
 32 31  1  0  0  0  0
 33 29  1  0  0  0  0
 33 32  1  0  0  0  0
M  END
>  <MODEL>
2

>  <REMARK>
 VINA RESULT:      -8.3      2.359      3.609
  Name = 
  6 active torsions:
  status: ('A' for Active; 'I' for Inactive)
    1  A    between atoms: C_1  and  O_19
    2  A    between atoms: C_3  and  C_13
    3  A    between atoms: C_3  and  C_17
    4  A    between atoms: C_12  and  N_28
    5  A    between atoms: C_17  and  O_29
    6  A    between atoms: C_18  and  O_29
                            x       y       z     vdW  Elec       q    Type
                         _______ _______ _______ _____ _____    ______ ____

>  <TORSDO>
F 6

$$$$
=
 OpenBabel10252414563D

 34 38  0  0  1  0  0  0  0  0999 V2000
  189.0830  175.6990  136.6790 C   0  0  0  0  0  0  0  0  0  0  0  0
  191.5510  175.8410  137.2560 C   0  0  2  0  0  3  0  0  0  0  0  0
  189.7300  176.9090  138.6980 C   0  0  0  0  0  0  0  0  0  0  0  0
  191.2240  177.9650  142.1220 C   0  0  0  0  0  1  0  0  0  0  0  0
  191.8600  176.0410  135.9100 O   0  0  0  0  0  1  0  0  0  0  0  0
  192.1080  176.6470  139.5510 C   0  0  0  0  0  2  0  0  0  0  0  0
  190.0960  176.1890  137.5310 C   0  0  0  0  0  0  0  0  0  0  0  0
  190.2040  177.4050  141.1300 C   0  0  1  0  0  0  0  0  0  0  0  0
  188.3790  177.2460  138.9360 C   0  0  0  0  0  0  0  0  0  0  0  0
  187.7420  176.0010  136.9510 C   0  0  0  0  0  3  0  0  0  0  0  0
  192.5320  176.6520  138.0960 C   0  0  0  0  0  2  0  0  0  0  0  0
  189.0440  178.3930  141.0970 C   0  0  0  0  0  2  0  0  0  0  0  0
  188.0140  177.9990  140.1220 N   0  0  0  0  0  0  0  0  0  0  0  0
  190.7720  177.3780  139.6900 C   0  0  2  0  0  3  0  0  0  0  0  0
  187.3970  176.7670  138.0600 C   0  0  0  0  0  3  0  0  0  0  0  0
  184.7360  178.6170  141.8660 C   0  0  0  0  0  0  0  0  0  0  0  0
  183.8940  178.7060  140.7150 N   0  0  0  0  0  2  0  0  0  0  0  0
  186.6820  178.5080  140.3280 C   0  0  0  0  0  0  0  0  0  0  0  0
  184.4580  179.1680  139.4510 C   0  0  0  0  0  2  0  0  0  0  0  0
  186.2070  178.8610  141.7210 C   0  0  0  0  0  2  0  0  0  0  0  0
  185.8510  178.6350  139.2810 C   0  0  0  0  0  3  0  0  0  0  0  0
  184.2440  178.3440  142.9920 O   0  0  0  0  0  0  0  0  0  0  0  0
  188.9410  173.5800  135.4000 C   0  0  0  0  0  1  0  0  0  0  0  0
  189.4210  174.9060  135.5750 O   0  0  0  0  0  0  0  0  0  0  0  0
  189.6770  176.1560  141.5610 O   0  0  0  0  0  0  0  0  0  0  0  0
  189.6410  176.0830  142.9620 C   0  0  0  0  0  2  0  0  0  0  0  0
  188.2240  176.3430  143.4380 C   0  0  0  0  0  2  0  0  0  0  0  0
  186.6500  177.9800  146.4800 C   0  0  0  0  0  2  0  0  0  0  0  0
  188.2260  176.7420  144.9010 C   0  0  0  0  0  3  0  0  0  0  0  0
  187.3080  177.9450  145.0970 C   0  0  0  0  0  2  0  0  0  0  0  0
  188.9690  178.1330  147.5270 C   0  0  0  0  0  2  0  0  0  0  0  0
  189.8490  177.1190  146.8070 C   0  0  0  0  0  2  0  0  0  0  0  0
  189.6430  177.1420  145.2960 C   0  0  0  0  0  2  0  0  0  0  0  0
  187.5550  177.5840  147.6510 C   0  0  0  0  0  2  0  0  0  0  0  0
  1 10  2  0  0  0  0
  1  7  1  0  0  0  0
  2  5  1  6  0  0  0
  2  7  1  0  0  0  0
  2 11  1  0  0  0  0
  3  9  1  0  0  0  0
  3 14  1  0  0  0  0
  7  3  2  0  0  0  0
  8 25  1  0  0  0  0
  8  4  1  1  0  0  0
  9 13  1  0  0  0  0
 10 15  1  0  0  0  0
 11  6  1  0  0  0  0
 12  8  1  0  0  0  0
 13 18  1  0  0  0  0
 13 12  1  0  0  0  0
 14  6  1  1  0  0  0
 14  8  1  0  0  0  0
 15  9  2  0  0  0  0
 16 22  2  0  0  0  0
 17 16  1  0  0  0  0
 18 20  1  0  0  0  0
 19 17  1  0  0  0  0
 20 16  1  0  0  0  0
 21 19  1  0  0  0  0
 21 18  2  0  0  0  0
 23 24  1  0  0  0  0
 24  1  1  0  0  0  0
 25 26  1  0  0  0  0
 26 27  1  0  0  0  0
 27 29  1  0  0  0  0
 28 34  1  0  0  0  0
 29 30  1  0  0  0  0
 29 33  1  0  0  0  0
 30 28  1  0  0  0  0
 31 34  1  0  0  0  0
 32 31  1  0  0  0  0
 33 32  1  0  0  0  0
M  END
>  <MODEL>
3

>  <REMARK>
 VINA RESULT:      -8.2      1.163      1.511
  Name = 
  6 active torsions:
  status: ('A' for Active; 'I' for Inactive)
    1  A    between atoms: C_1  and  O_19
    2  A    between atoms: C_3  and  C_13
    3  A    between atoms: C_3  and  C_17
    4  A    between atoms: C_12  and  N_28
    5  A    between atoms: C_17  and  O_29
    6  A    between atoms: C_18  and  O_29
                            x       y       z     vdW  Elec       q    Type
                         _______ _______ _______ _____ _____    ______ ____

>  <TORSDO>
F 6

$$$$
=
 OpenBabel10252414563D

 34 38  0  0  1  0  0  0  0  0999 V2000
  185.7680  174.2560  137.2140 C   0  0  0  0  0  0  0  0  0  0  0  0
  187.0520  176.4160  136.8540 C   0  0  2  0  0  3  0  0  0  0  0  0
  184.6390  176.3660  137.6930 C   0  0  0  0  0  0  0  0  0  0  0  0
  183.6490  179.8690  139.0400 C   0  0  0  0  0  1  0  0  0  0  0  0
  187.6040  175.8990  135.6810 O   0  0  0  0  0  1  0  0  0  0  0  0
  186.0370  178.4820  137.8160 C   0  0  0  0  0  2  0  0  0  0  0  0
  185.7820  175.6670  137.2260 C   0  0  0  0  0  0  0  0  0  0  0  0
  183.7290  178.3440  138.9760 C   0  0  1  0  0  0  0  0  0  0  0  0
  183.4560  175.6650  138.0180 C   0  0  0  0  0  0  0  0  0  0  0  0
  184.6030  173.5710  137.5820 C   0  0  0  0  0  3  0  0  0  0  0  0
  186.8330  177.9130  136.6590 C   0  0  0  0  0  2  0  0  0  0  0  0
  182.3280  177.8510  138.6330 C   0  0  0  0  0  2  0  0  0  0  0  0
  182.2840  176.3880  138.4770 N   0  0  0  0  0  0  0  0  0  0  0  0
  184.6340  177.8740  137.8100 C   0  0  2  0  0  3  0  0  0  0  0  0
  183.4630  174.2660  137.9730 C   0  0  0  0  0  3  0  0  0  0  0  0
  179.6750  174.1830  140.0590 C   0  0  0  0  0  0  0  0  0  0  0  0
  178.9620  173.8130  138.8770 N   0  0  0  0  0  2  0  0  0  0  0  0
  181.0090  175.7440  138.6620 C   0  0  0  0  0  0  0  0  0  0  0  0
  178.9450  174.7230  137.7380 C   0  0  0  0  0  2  0  0  0  0  0  0
  180.5070  175.4290  140.0550 C   0  0  0  0  0  2  0  0  0  0  0  0
  180.2810  175.3900  137.5890 C   0  0  0  0  0  3  0  0  0  0  0  0
  179.5970  173.4740  141.0950 O   0  0  0  0  0  0  0  0  0  0  0  0
  186.8900  172.4050  136.0030 C   0  0  0  0  0  1  0  0  0  0  0  0
  186.9200  173.5490  136.8460 O   0  0  0  0  0  0  0  0  0  0  0  0
  184.0760  177.7780  140.2330 O   0  0  0  0  0  0  0  0  0  0  0  0
  184.5860  178.7570  141.1000 C   0  0  0  0  0  2  0  0  0  0  0  0
  183.9070  178.6300  142.4510 C   0  0  0  0  0  2  0  0  0  0  0  0
  185.2760  178.6310  145.9900 C   0  0  0  0  0  2  0  0  0  0  0  0
  184.9080  178.1970  143.5040 C   0  0  0  0  0  3  0  0  0  0  0  0
  184.9440  179.2340  144.6220 C   0  0  0  0  0  2  0  0  0  0  0  0
  187.5270  177.8780  145.0600 C   0  0  0  0  0  2  0  0  0  0  0  0
  187.2610  177.2790  143.6840 C   0  0  0  0  0  2  0  0  0  0  0  0
  186.2880  178.1220  142.8640 C   0  0  0  0  0  2  0  0  0  0  0  0
  186.3660  177.5550  145.9900 C   0  0  0  0  0  2  0  0  0  0  0  0
  1  7  2  0  0  0  0
  1 10  1  0  0  0  0
  2  5  1  6  0  0  0
  2  7  1  0  0  0  0
  3 14  1  0  0  0  0
  3  9  2  0  0  0  0
  7  3  1  0  0  0  0
  8  4  1  1  0  0  0
  8 25  1  0  0  0  0
  9 13  1  0  0  0  0
 10 15  2  0  0  0  0
 11  2  1  0  0  0  0
 11  6  1  0  0  0  0
 12  8  1  0  0  0  0
 13 12  1  0  0  0  0
 13 18  1  0  0  0  0
 14  6  1  1  0  0  0
 14  8  1  0  0  0  0
 15  9  1  0  0  0  0
 16 22  2  0  0  0  0
 17 16  1  0  0  0  0
 18 20  1  0  0  0  0
 19 17  1  0  0  0  0
 20 16  1  0  0  0  0
 21 19  1  0  0  0  0
 21 18  2  0  0  0  0
 23 24  1  0  0  0  0
 24  1  1  0  0  0  0
 25 26  1  0  0  0  0
 26 27  1  0  0  0  0
 27 29  1  0  0  0  0
 28 34  1  0  0  0  0
 29 30  1  0  0  0  0
 30 28  1  0  0  0  0
 31 34  1  0  0  0  0
 32 31  1  0  0  0  0
 33 29  1  0  0  0  0
 33 32  1  0  0  0  0
M  END
>  <MODEL>
4

>  <REMARK>
 VINA RESULT:      -7.8      3.525      5.510
  Name = 
  6 active torsions:
  status: ('A' for Active; 'I' for Inactive)
    1  A    between atoms: C_1  and  O_19
    2  A    between atoms: C_3  and  C_13
    3  A    between atoms: C_3  and  C_17
    4  A    between atoms: C_12  and  N_28
    5  A    between atoms: C_17  and  O_29
    6  A    between atoms: C_18  and  O_29
                            x       y       z     vdW  Elec       q    Type
                         _______ _______ _______ _____ _____    ______ ____

>  <TORSDO>
F 6

$$$$
=
 OpenBabel10252414563D

 34 38  0  0  1  0  0  0  0  0999 V2000
  186.6850  177.5220  144.7720 C   0  0  0  0  0  0  0  0  0  0  0  0
  184.4410  178.5870  145.2960 C   0  0  2  0  0  3  0  0  0  0  0  0
  185.3950  178.4670  142.9280 C   0  0  0  0  0  0  0  0  0  0  0  0
  182.6280  179.3600  140.3560 C   0  0  0  0  0  1  0  0  0  0  0  0
  184.9770  179.1620  146.4490 O   0  0  0  0  0  1  0  0  0  0  0  0
  182.9670  179.0830  143.3450 C   0  0  0  0  0  2  0  0  0  0  0  0
  185.5450  178.2180  144.3170 C   0  0  0  0  0  0  0  0  0  0  0  0
  183.8300  178.6260  140.9500 C   0  0  1  0  0  0  0  0  0  0  0  0
  186.4320  178.1390  142.0270 C   0  0  0  0  0  0  0  0  0  0  0  0
  187.6870  177.1620  143.8610 C   0  0  0  0  0  3  0  0  0  0  0  0
  183.4180  179.5570  144.7120 C   0  0  0  0  0  2  0  0  0  0  0  0
  185.0350  179.0090  140.0980 C   0  0  0  0  0  2  0  0  0  0  0  0
  186.2800  178.4130  140.6090 N   0  0  0  0  0  0  0  0  0  0  0  0
  184.1500  179.1290  142.3790 C   0  0  2  0  0  3  0  0  0  0  0  0
  187.5630  177.4710  142.5100 C   0  0  0  0  0  3  0  0  0  0  0  0
  188.1940  177.0440  137.6720 C   0  0  0  0  0  0  0  0  0  0  0  0
  189.5170  177.1940  138.1890 N   0  0  0  0  0  2  0  0  0  0  0  0
  187.3660  178.2530  139.6760 C   0  0  0  0  0  0  0  0  0  0  0  0
  189.7920  178.2500  139.1570 C   0  0  0  0  0  2  0  0  0  0  0  0
  187.0850  177.8790  138.2370 C   0  0  0  0  0  2  0  0  0  0  0  0
  188.6330  178.4020  140.0990 C   0  0  0  0  0  3  0  0  0  0  0  0
  187.9640  176.2260  136.7440 O   0  0  0  0  0  0  0  0  0  0  0  0
  187.9490  177.5030  146.9050 C   0  0  0  0  0  1  0  0  0  0  0  0
  186.8030  177.1850  146.1260 O   0  0  0  0  0  0  0  0  0  0  0  0
  183.6870  177.2140  140.8600 O   0  0  0  0  0  0  0  0  0  0  0  0
  182.4850  176.8720  140.2190 C   0  0  0  0  0  2  0  0  0  0  0  0
  182.6780  175.5730  139.4590 C   0  0  0  0  0  2  0  0  0  0  0  0
  183.2970  177.4980  136.2470 C   0  0  0  0  0  2  0  0  0  0  0  0
  183.4330  175.8260  138.1680 C   0  0  0  0  0  3  0  0  0  0  0  0
  182.5280  176.5710  137.1920 C   0  0  0  0  0  2  0  0  0  0  0  0
  184.5320  175.4650  135.3320 C   0  0  0  0  0  2  0  0  0  0  0  0
  184.9370  174.6150  136.5300 C   0  0  0  0  0  2  0  0  0  0  0  0
  183.8130  174.4840  137.5540 C   0  0  0  0  0  2  0  0  0  0  0  0
  184.6140  176.9400  135.7010 C   0  0  0  0  0  2  0  0  0  0  0  0
  1 24  1  0  0  0  0
  2  5  1  1  0  0  0
  3  7  2  0  0  0  0
  6 11  1  0  0  0  0
  7  1  1  0  0  0  0
  7  2  1  0  0  0  0
  8  4  1  6  0  0  0
  8 14  1  0  0  0  0
  9 15  2  0  0  0  0
  9  3  1  0  0  0  0
 10  1  2  0  0  0  0
 11  2  1  0  0  0  0
 12 13  1  0  0  0  0
 12  8  1  0  0  0  0
 13  9  1  0  0  0  0
 14  3  1  0  0  0  0
 14  6  1  1  0  0  0
 15 10  1  0  0  0  0
 16 17  1  0  0  0  0
 16 20  1  0  0  0  0
 17 19  1  0  0  0  0
 18 21  2  0  0  0  0
 18 13  1  0  0  0  0
 19 21  1  0  0  0  0
 20 18  1  0  0  0  0
 22 16  2  0  0  0  0
 24 23  1  0  0  0  0
 25  8  1  0  0  0  0
 26 25  1  0  0  0  0
 27 26  1  0  0  0  0
 28 30  1  0  0  0  0
 29 27  1  0  0  0  0
 30 29  1  0  0  0  0
 31 34  1  0  0  0  0
 31 32  1  0  0  0  0
 32 33  1  0  0  0  0
 33 29  1  0  0  0  0
 34 28  1  0  0  0  0
M  END
>  <MODEL>
5

>  <REMARK>
 VINA RESULT:      -7.8      2.517      7.960
  Name = 
  6 active torsions:
  status: ('A' for Active; 'I' for Inactive)
    1  A    between atoms: C_1  and  O_19
    2  A    between atoms: C_3  and  C_13
    3  A    between atoms: C_3  and  C_17
    4  A    between atoms: C_12  and  N_28
    5  A    between atoms: C_17  and  O_29
    6  A    between atoms: C_18  and  O_29
                            x       y       z     vdW  Elec       q    Type
                         _______ _______ _______ _____ _____    ______ ____

>  <TORSDO>
F 6

$$$$
=
 OpenBabel10252414563D

 34 38  0  0  1  0  0  0  0  0999 V2000
  186.6090  177.6000  144.6150 C   0  0  0  0  0  0  0  0  0  0  0  0
  184.3170  178.5450  145.1620 C   0  0  2  0  0  3  0  0  0  0  0  0
  185.2440  178.4580  142.7830 C   0  0  0  0  0  0  0  0  0  0  0  0
  182.3970  179.1760  140.2430 C   0  0  0  0  0  1  0  0  0  0  0  0
  184.8360  179.1570  146.3040 O   0  0  0  0  0  1  0  0  0  0  0  0
  182.7910  178.9420  143.2290 C   0  0  0  0  0  2  0  0  0  0  0  0
  185.4260  178.2290  144.1710 C   0  0  0  0  0  0  0  0  0  0  0  0
  183.6470  178.5150  140.8250 C   0  0  1  0  0  0  0  0  0  0  0  0
  186.2860  178.1810  141.8690 C   0  0  0  0  0  0  0  0  0  0  0  0
  187.6170  177.2890  143.6930 C   0  0  0  0  0  3  0  0  0  0  0  0
  183.2340  179.4510  144.5860 C   0  0  0  0  0  2  0  0  0  0  0  0
  184.8170  178.9570  139.9540 C   0  0  0  0  0  2  0  0  0  0  0  0
  186.1000  178.4350  140.4520 N   0  0  0  0  0  0  0  0  0  0  0  0
  183.9580  179.0470  142.2460 C   0  0  2  0  0  3  0  0  0  0  0  0
  187.4590  177.5800  142.3420 C   0  0  0  0  0  3  0  0  0  0  0  0
  188.0110  177.2090  137.4500 C   0  0  0  0  0  0  0  0  0  0  0  0
  189.3350  177.3600  137.9620 N   0  0  0  0  0  2  0  0  0  0  0  0
  187.1800  178.3270  139.5050 C   0  0  0  0  0  0  0  0  0  0  0  0
  189.6010  178.3830  138.9670 C   0  0  0  0  0  2  0  0  0  0  0  0
  186.8930  178.0040  138.0550 C   0  0  0  0  0  2  0  0  0  0  0  0
  188.4480  178.4800  139.9230 C   0  0  0  0  0  3  0  0  0  0  0  0
  187.7860  176.4220  136.4940 O   0  0  0  0  0  0  0  0  0  0  0  0
  187.9710  177.5090  146.6850 C   0  0  0  0  0  1  0  0  0  0  0  0
  186.7640  177.2810  145.9700 O   0  0  0  0  0  0  0  0  0  0  0  0
  183.5800  177.0960  140.7470 O   0  0  0  0  0  0  0  0  0  0  0  0
  182.6590  176.6910  139.7690 C   0  0  0  0  0  2  0  0  0  0  0  0
  183.3770  176.5370  138.4410 C   0  0  0  0  0  2  0  0  0  0  0  0
  185.2290  173.3880  137.4120 C   0  0  0  0  0  2  0  0  0  0  0  0
  183.4220  175.0770  138.0330 C   0  0  0  0  0  3  0  0  0  0  0  0
  184.6980  174.8130  137.2400 C   0  0  0  0  0  2  0  0  0  0  0  0
  183.0580  172.5070  136.4060 C   0  0  0  0  0  2  0  0  0  0  0  0
  181.9210  173.2900  137.0510 C   0  0  0  0  0  2  0  0  0  0  0  0
  182.2230  174.7830  137.1400 C   0  0  0  0  0  2  0  0  0  0  0  0
  184.1660  172.2850  137.4260 C   0  0  0  0  0  2  0  0  0  0  0  0
  1 24  1  0  0  0  0
  2  5  1  1  0  0  0
  3  7  2  0  0  0  0
  6 11  1  0  0  0  0
  7  1  1  0  0  0  0
  7  2  1  0  0  0  0
  8  4  1  6  0  0  0
  8 14  1  0  0  0  0
  9 15  2  0  0  0  0
  9  3  1  0  0  0  0
 10  1  2  0  0  0  0
 11  2  1  0  0  0  0
 12 13  1  0  0  0  0
 12  8  1  0  0  0  0
 13  9  1  0  0  0  0
 14  3  1  0  0  0  0
 14  6  1  1  0  0  0
 15 10  1  0  0  0  0
 16 17  1  0  0  0  0
 16 20  1  0  0  0  0
 17 19  1  0  0  0  0
 18 21  2  0  0  0  0
 18 13  1  0  0  0  0
 19 21  1  0  0  0  0
 20 18  1  0  0  0  0
 22 16  2  0  0  0  0
 24 23  1  0  0  0  0
 25  8  1  0  0  0  0
 26 25  1  0  0  0  0
 27 26  1  0  0  0  0
 28 34  1  0  0  0  0
 29 27  1  0  0  0  0
 30 28  1  0  0  0  0
 30 29  1  0  0  0  0
 31 32  1  0  0  0  0
 31 34  1  0  0  0  0
 32 33  1  0  0  0  0
 33 29  1  0  0  0  0
M  END
>  <MODEL>
6

>  <REMARK>
 VINA RESULT:      -7.8      3.011      8.086
  Name = 
  6 active torsions:
  status: ('A' for Active; 'I' for Inactive)
    1  A    between atoms: C_1  and  O_19
    2  A    between atoms: C_3  and  C_13
    3  A    between atoms: C_3  and  C_17
    4  A    between atoms: C_12  and  N_28
    5  A    between atoms: C_17  and  O_29
    6  A    between atoms: C_18  and  O_29
                            x       y       z     vdW  Elec       q    Type
                         _______ _______ _______ _____ _____    ______ ____

>  <TORSDO>
F 6

$$$$
=
 OpenBabel10252414563D

 34 38  0  0  1  0  0  0  0  0999 V2000
  191.9140  174.6440  137.4330 C   0  0  0  0  0  0  0  0  0  0  0  0
  193.2570  176.0900  139.0290 C   0  0  2  0  0  3  0  0  0  0  0  0
  190.7450  176.3920  138.6710 C   0  0  0  0  0  0  0  0  0  0  0  0
  189.2990  178.7080  141.4310 C   0  0  0  0  0  1  0  0  0  0  0  0
  194.3060  176.1410  138.1100 O   0  0  0  0  0  1  0  0  0  0  0  0
  191.9470  177.5070  140.6100 C   0  0  0  0  0  2  0  0  0  0  0  0
  191.9520  175.7270  138.3370 C   0  0  0  0  0  0  0  0  0  0  0  0
  189.3650  177.5340  140.4540 C   0  0  1  0  0  0  0  0  0  0  0  0
  189.5410  176.0630  138.0100 C   0  0  0  0  0  0  0  0  0  0  0  0
  190.7040  174.2970  136.8180 C   0  0  0  0  0  3  0  0  0  0  0  0
  193.1990  177.4280  139.7590 C   0  0  0  0  0  2  0  0  0  0  0  0
  188.3070  177.7970  139.3890 C   0  0  0  0  0  2  0  0  0  0  0  0
  188.3120  176.7610  138.3430 N   0  0  0  0  0  0  0  0  0  0  0  0
  190.7180  177.5000  139.7010 C   0  0  2  0  0  3  0  0  0  0  0  0
  189.5370  175.0010  137.0990 C   0  0  0  0  0  3  0  0  0  0  0  0
  185.8030  175.0690  136.1050 C   0  0  0  0  0  0  0  0  0  0  0  0
  185.2510  176.2320  135.4840 N   0  0  0  0  0  2  0  0  0  0  0  0
  187.0980  176.5820  137.5880 C   0  0  0  0  0  0  0  0  0  0  0  0
  185.2520  177.4980  136.2080 C   0  0  0  0  0  2  0  0  0  0  0  0
  186.4980  175.2020  137.4260 C   0  0  0  0  0  2  0  0  0  0  0  0
  186.5210  177.6410  136.9970 C   0  0  0  0  0  3  0  0  0  0  0  0
  185.6970  173.9440  135.5520 O   0  0  0  0  0  0  0  0  0  0  0  0
  193.5200  173.6180  135.8460 C   0  0  0  0  0  1  0  0  0  0  0  0
  193.0800  173.9150  137.1650 O   0  0  0  0  0  0  0  0  0  0  0  0
  189.0290  176.3030  141.0820 O   0  0  0  0  0  0  0  0  0  0  0  0
  189.2550  176.3680  142.4660 C   0  0  0  0  0  2  0  0  0  0  0  0
  187.9200  176.4050  143.1870 C   0  0  0  0  0  2  0  0  0  0  0  0
  186.7530  177.8740  146.4870 C   0  0  0  0  0  2  0  0  0  0  0  0
  188.1220  176.7530  144.6500 C   0  0  0  0  0  3  0  0  0  0  0  0
  187.2040  177.9120  145.0240 C   0  0  0  0  0  2  0  0  0  0  0  0
  189.1940  178.0770  147.1950 C   0  0  0  0  0  2  0  0  0  0  0  0
  189.9920  177.1220  146.3150 C   0  0  0  0  0  2  0  0  0  0  0  0
  189.5670  177.1900  144.8510 C   0  0  0  0  0  2  0  0  0  0  0  0
  187.8300  177.4720  147.4980 C   0  0  0  0  0  2  0  0  0  0  0  0
  1  7  1  0  0  0  0
  2  5  1  6  0  0  0
  2 11  1  0  0  0  0
  3 14  1  0  0  0  0
  7  3  2  0  0  0  0
  7  2  1  0  0  0  0
  8 25  1  0  0  0  0
  8  4  1  1  0  0  0
  9 13  1  0  0  0  0
  9  3  1  0  0  0  0
 10 15  1  0  0  0  0
 10  1  2  0  0  0  0
 11  6  1  0  0  0  0
 12  8  1  0  0  0  0
 13 12  1  0  0  0  0
 14  8  1  0  0  0  0
 14  6  1  1  0  0  0
 15  9  2  0  0  0  0
 16 20  1  0  0  0  0
 17 16  1  0  0  0  0
 17 19  1  0  0  0  0
 18 13  1  0  0  0  0
 19 21  1  0  0  0  0
 20 18  1  0  0  0  0
 21 18  2  0  0  0  0
 22 16  2  0  0  0  0
 23 24  1  0  0  0  0
 24  1  1  0  0  0  0
 25 26  1  0  0  0  0
 26 27  1  0  0  0  0
 27 29  1  0  0  0  0
 28 34  1  0  0  0  0
 29 33  1  0  0  0  0
 29 30  1  0  0  0  0
 30 28  1  0  0  0  0
 31 34  1  0  0  0  0
 32 31  1  0  0  0  0
 33 32  1  0  0  0  0
M  END
>  <MODEL>
7

>  <REMARK>
 VINA RESULT:      -7.1      2.096      2.843
  Name = 
  6 active torsions:
  status: ('A' for Active; 'I' for Inactive)
    1  A    between atoms: C_1  and  O_19
    2  A    between atoms: C_3  and  C_13
    3  A    between atoms: C_3  and  C_17
    4  A    between atoms: C_12  and  N_28
    5  A    between atoms: C_17  and  O_29
    6  A    between atoms: C_18  and  O_29
                            x       y       z     vdW  Elec       q    Type
                         _______ _______ _______ _____ _____    ______ ____

>  <TORSDO>
F 6

$$$$
=
 OpenBabel10252414563D

 34 38  0  0  1  0  0  0  0  0999 V2000
  187.8120  173.2890  136.1430 C   0  0  0  0  0  0  0  0  0  0  0  0
  190.0730  174.3900  135.7960 C   0  0  2  0  0  3  0  0  0  0  0  0
  188.0040  175.6900  136.5430 C   0  0  0  0  0  0  0  0  0  0  0  0
  189.0510  179.2130  137.7910 C   0  0  0  0  0  1  0  0  0  0  0  0
  190.2810  173.6160  134.6530 O   0  0  0  0  0  1  0  0  0  0  0  0
  190.3260  176.7080  136.6820 C   0  0  0  0  0  2  0  0  0  0  0  0
  188.5920  174.4660  136.1320 C   0  0  0  0  0  0  0  0  0  0  0  0
  188.2890  177.8880  137.7560 C   0  0  1  0  0  0  0  0  0  0  0  0
  186.6230  175.7570  136.8350 C   0  0  0  0  0  0  0  0  0  0  0  0
  186.4540  173.3610  136.4790 C   0  0  0  0  0  3  0  0  0  0  0  0
  190.7090  175.7570  135.5660 C   0  0  0  0  0  2  0  0  0  0  0  0
  186.8530  178.2240  137.3690 C   0  0  0  0  0  2  0  0  0  0  0  0
  186.0240  177.0160  137.2370 N   0  0  0  0  0  0  0  0  0  0  0  0
  188.8190  176.9610  136.6340 C   0  0  2  0  0  3  0  0  0  0  0  0
  185.8680  174.5780  136.8140 C   0  0  0  0  0  3  0  0  0  0  0  0
  182.6070  176.6800  138.7800 C   0  0  0  0  0  0  0  0  0  0  0  0
  181.8300  176.6740  137.5820 N   0  0  0  0  0  2  0  0  0  0  0  0
  184.5990  177.1760  137.3840 C   0  0  0  0  0  0  0  0  0  0  0  0
  182.3300  177.3710  136.4020 C   0  0  0  0  0  2  0  0  0  0  0  0
  183.9820  177.2760  138.7620 C   0  0  0  0  0  2  0  0  0  0  0  0
  183.8170  177.1990  136.2920 C   0  0  0  0  0  3  0  0  0  0  0  0
  182.1380  176.1960  139.8430 O   0  0  0  0  0  0  0  0  0  0  0  0
  187.6550  170.8560  135.6940 C   0  0  0  0  0  1  0  0  0  0  0  0
  188.4010  172.0580  135.8320 O   0  0  0  0  0  0  0  0  0  0  0  0
  188.2440  177.2700  139.0350 O   0  0  0  0  0  0  0  0  0  0  0  0
  188.9710  178.0130  139.9780 C   0  0  0  0  0  2  0  0  0  0  0  0
  188.2110  178.0320  141.2910 C   0  0  0  0  0  2  0  0  0  0  0  0
  191.6520  177.5010  142.8030 C   0  0  0  0  0  2  0  0  0  0  0  0
  189.1790  178.0210  142.4590 C   0  0  0  0  0  3  0  0  0  0  0  0
  190.3350  177.0760  142.1470 C   0  0  0  0  0  2  0  0  0  0  0  0
  190.5470  177.2360  145.0850 C   0  0  0  0  0  2  0  0  0  0  0  0
  189.1670  177.8750  144.9870 C   0  0  0  0  0  2  0  0  0  0  0  0
  188.4480  177.5050  143.6930 C   0  0  0  0  0  2  0  0  0  0  0  0
  191.5360  178.0250  144.2370 C   0  0  0  0  0  2  0  0  0  0  0  0
  1 10  1  0  0  0  0
  2  5  1  6  0  0  0
  2  7  1  0  0  0  0
  3 14  1  0  0  0  0
  3  9  2  0  0  0  0
  7  1  2  0  0  0  0
  7  3  1  0  0  0  0
  8  4  1  1  0  0  0
  8 25  1  0  0  0  0
  9 13  1  0  0  0  0
 10 15  2  0  0  0  0
 11  2  1  0  0  0  0
 11  6  1  0  0  0  0
 12  8  1  0  0  0  0
 13 12  1  0  0  0  0
 13 18  1  0  0  0  0
 14  6  1  1  0  0  0
 14  8  1  0  0  0  0
 15  9  1  0  0  0  0
 16 22  2  0  0  0  0
 17 16  1  0  0  0  0
 18 20  1  0  0  0  0
 19 17  1  0  0  0  0
 20 16  1  0  0  0  0
 21 19  1  0  0  0  0
 21 18  2  0  0  0  0
 23 24  1  0  0  0  0
 24  1  1  0  0  0  0
 25 26  1  0  0  0  0
 26 27  1  0  0  0  0
 27 29  1  0  0  0  0
 28 34  1  0  0  0  0
 29 33  1  0  0  0  0
 30 29  1  0  0  0  0
 30 28  1  0  0  0  0
 32 31  1  0  0  0  0
 33 32  1  0  0  0  0
 34 31  1  0  0  0  0
M  END
>  <MODEL>
8

>  <REMARK>
 VINA RESULT:      -7.1      2.547      4.253
  Name = 
  6 active torsions:
  status: ('A' for Active; 'I' for Inactive)
    1  A    between atoms: C_1  and  O_19
    2  A    between atoms: C_3  and  C_13
    3  A    between atoms: C_3  and  C_17
    4  A    between atoms: C_12  and  N_28
    5  A    between atoms: C_17  and  O_29
    6  A    between atoms: C_18  and  O_29
                            x       y       z     vdW  Elec       q    Type
                         _______ _______ _______ _____ _____    ______ ____

>  <TORSDO>
F 6

$$$$
=
 OpenBabel10252414563D

 34 38  0  0  1  0  0  0  0  0999 V2000
  187.2640  177.5380  144.4180 C   0  0  0  0  0  0  0  0  0  0  0  0
  185.0690  178.5330  145.2160 C   0  0  2  0  0  3  0  0  0  0  0  0
  185.7230  178.4300  142.7480 C   0  0  0  0  0  0  0  0  0  0  0  0
  182.6290  179.2180  140.5400 C   0  0  0  0  0  1  0  0  0  0  0  0
  185.7250  179.1320  146.2930 O   0  0  0  0  0  1  0  0  0  0  0  0
  183.3470  178.9690  143.4640 C   0  0  0  0  0  2  0  0  0  0  0  0
  186.0530  178.1950  144.1080 C   0  0  0  0  0  0  0  0  0  0  0  0
  183.9200  178.5270  140.9810 C   0  0  1  0  0  0  0  0  0  0  0  0
  186.6500  178.1320  141.7250 C   0  0  0  0  0  0  0  0  0  0  0  0
  188.1550  177.2060  143.3900 C   0  0  0  0  0  3  0  0  0  0  0  0
  183.9500  179.4650  144.7630 C   0  0  0  0  0  2  0  0  0  0  0  0
  184.9960  178.9440  139.9850 C   0  0  0  0  0  2  0  0  0  0  0  0
  186.3140  178.3930  140.3370 N   0  0  0  0  0  0  0  0  0  0  0  0
  184.3990  179.0490  142.3580 C   0  0  2  0  0  3  0  0  0  0  0  0
  187.8540  177.5030  142.0650 C   0  0  0  0  0  3  0  0  0  0  0  0
  187.9480  176.9970  137.2470 C   0  0  0  0  0  0  0  0  0  0  0  0
  189.3080  177.2910  137.5720 N   0  0  0  0  0  2  0  0  0  0  0  0
  187.2790  178.2620  139.2760 C   0  0  0  0  0  0  0  0  0  0  0  0
  189.6070  178.4290  138.4340 C   0  0  0  0  0  2  0  0  0  0  0  0
  186.8500  177.7710  137.9100 C   0  0  0  0  0  2  0  0  0  0  0  0
  188.5710  178.5450  139.5150 C   0  0  0  0  0  3  0  0  0  0  0  0
  187.6760  176.1020  136.4050 O   0  0  0  0  0  0  0  0  0  0  0  0
  188.7670  177.6070  146.3890 C   0  0  0  0  0  1  0  0  0  0  0  0
  187.5610  177.2130  145.7470 O   0  0  0  0  0  0  0  0  0  0  0  0
  183.8130  177.1110  140.9110 O   0  0  0  0  0  0  0  0  0  0  0  0
  182.6780  176.7290  140.1780 C   0  0  0  0  0  2  0  0  0  0  0  0
  183.1190  176.0500  138.8950 C   0  0  0  0  0  2  0  0  0  0  0  0
  180.7780  176.2180  135.9120 C   0  0  0  0  0  2  0  0  0  0  0  0
  181.9120  175.5810  138.1060 C   0  0  0  0  0  3  0  0  0  0  0  0
  181.4240  176.7140  137.2090 C   0  0  0  0  0  2  0  0  0  0  0  0
  179.0090  175.0220  137.3050 C   0  0  0  0  0  2  0  0  0  0  0  0
  179.7390  174.3280  138.4490 C   0  0  0  0  0  2  0  0  0  0  0  0
  180.8010  175.2200  139.0850 C   0  0  0  0  0  2  0  0  0  0  0  0
  179.8740  174.9890  136.0530 C   0  0  0  0  0  2  0  0  0  0  0  0
  1 24  1  0  0  0  0
  2  5  1  1  0  0  0
  3  7  2  0  0  0  0
  6 11  1  0  0  0  0
  7  1  1  0  0  0  0
  7  2  1  0  0  0  0
  8  4  1  6  0  0  0
  8 14  1  0  0  0  0
  9 15  2  0  0  0  0
  9  3  1  0  0  0  0
 10  1  2  0  0  0  0
 11  2  1  0  0  0  0
 12 13  1  0  0  0  0
 12  8  1  0  0  0  0
 13  9  1  0  0  0  0
 14  3  1  0  0  0  0
 14  6  1  1  0  0  0
 15 10  1  0  0  0  0
 16 17  1  0  0  0  0
 16 20  1  0  0  0  0
 17 19  1  0  0  0  0
 18 21  2  0  0  0  0
 18 13  1  0  0  0  0
 19 21  1  0  0  0  0
 20 18  1  0  0  0  0
 22 16  2  0  0  0  0
 24 23  1  0  0  0  0
 25  8  1  0  0  0  0
 26 25  1  0  0  0  0
 27 26  1  0  0  0  0
 28 34  1  0  0  0  0
 28 30  1  0  0  0  0
 29 27  1  0  0  0  0
 29 33  1  0  0  0  0
 30 29  1  0  0  0  0
 31 32  1  0  0  0  0
 32 33  1  0  0  0  0
 34 31  1  0  0  0  0
M  END
>  <MODEL>
9

>  <REMARK>
 VINA RESULT:      -7.0      3.110      7.971
  Name = 
  6 active torsions:
  status: ('A' for Active; 'I' for Inactive)
    1  A    between atoms: C_1  and  O_19
    2  A    between atoms: C_3  and  C_13
    3  A    between atoms: C_3  and  C_17
    4  A    between atoms: C_12  and  N_28
    5  A    between atoms: C_17  and  O_29
    6  A    between atoms: C_18  and  O_29
                            x       y       z     vdW  Elec       q    Type
                         _______ _______ _______ _____ _____    ______ ____

>  <TORSDO>
F 6

$$$$
