=
 OpenBabel10262423183D

 34 37  0  0  1  0  0  0  0  0999 V2000
  188.3600  177.8390  144.2940 C   0  0  1  0  0  0  0  0  0  0  0  0
  190.4070  177.4370  147.3980 C   0  0  0  0  0  2  0  0  0  0  0  0
  188.0790  177.2710  147.0480 C   0  0  0  0  0  2  0  0  0  0  0  0
  188.4970  176.4720  144.0320 O   0  0  0  0  0  1  0  0  0  0  0  0
  185.8700  178.4350  144.2210 C   0  0  0  0  0  3  0  0  0  0  0  0
  184.5260  178.2980  146.2310 C   0  0  0  0  0  3  0  0  0  0  0  0
  184.6340  178.5650  144.8630 C   0  0  0  0  0  3  0  0  0  0  0  0
  186.8850  177.7740  146.3130 C   0  0  0  0  0  0  0  0  0  0  0  0
  187.0120  178.0560  144.9480 C   0  0  0  0  0  0  0  0  0  0  0  0
  185.6500  177.8940  146.9550 C   0  0  0  0  0  3  0  0  0  0  0  0
  190.9570  176.2780  146.5740 C   0  0  0  0  0  2  0  0  0  0  0  0
  191.5700  176.7990  145.2780 C   0  0  2  0  0  3  0  0  0  0  0  0
  189.2660  178.0740  146.7300 N   0  0  2  0  0  0  0  0  0  0  0  0
  190.9310  178.0980  144.7770 C   0  0  0  0  0  2  0  0  0  0  0  0
  189.4840  178.3110  145.2670 C   0  0  1  0  0  3  0  0  0  0  0  0
  188.4420  178.6330  142.9770 C   0  0  0  0  0  2  0  0  0  0  0  0
  188.0130  177.8270  141.7560 C   0  0  0  0  0  2  0  0  0  0  0  0
  188.1290  178.6680  140.4960 C   0  0  0  0  0  2  0  0  0  0  0  0
  187.6650  177.8900  139.2720 C   0  0  0  0  0  2  0  0  0  0  0  0
  184.6710  177.1570  136.8180 C   0  0  1  0  0  3  0  0  0  0  0  0
  184.2440  178.0880  137.9580 C   0  0  0  0  0  2  0  0  0  0  0  0
  185.3170  178.1530  139.0510 C   0  0  1  0  0  3  0  0  0  0  0  0
  186.8440  178.4030  137.1210 C   0  0  0  0  0  2  0  0  0  0  0  0
  186.6280  178.6280  138.5610 N   0  0  0  0  0  0  0  0  0  0  0  0
  186.1950  177.1090  136.6270 C   0  0  0  0  0  2  0  0  0  0  0  0
  184.0730  175.7630  137.0080 C   0  0  1  0  0  3  0  0  0  0  0  0
  183.3110  175.3260  135.7710 C   0  0  0  0  0  1  0  0  0  0  0  0
  185.0670  174.8260  137.3100 O   0  0  0  0  0  1  0  0  0  0  0  0
  184.8370  178.9950  140.2310 C   0  0  0  0  0  2  0  0  0  0  0  0
  183.8920  178.2220  141.1370 C   0  0  0  0  0  1  0  0  0  0  0  0
  191.5150  175.5170  143.9910 S   0  0  0  0  0  0  0  0  0  0  0  0
  191.8650  176.7100  142.6600 C   0  0  0  0  0  2  0  0  0  0  0  0
  190.9830  176.4410  141.4510 C   0  0  0  0  0  2  0  0  0  0  0  0
  191.4420  177.2720  140.2670 C   0  0  0  0  0  1  0  0  0  0  0  0
  1  4  1  6  0  0  0
  1  9  1  0  0  0  0
  1 15  1  0  0  0  0
  5  7  2  0  0  0  0
  5  9  1  0  0  0  0
  6 10  2  0  0  0  0
  7  6  1  0  0  0  0
  8 10  1  0  0  0  0
  8  3  1  0  0  0  0
  9  8  2  0  0  0  0
 11  2  1  0  0  0  0
 12 31  1  6  0  0  0
 12 11  1  0  0  0  0
 13  3  1  6  0  0  0
 13  2  1  0  0  0  0
 14 12  1  0  0  0  0
 15 14  1  6  0  0  0
 15 13  1  0  0  0  0
 16  1  1  0  0  0  0
 17 16  1  0  0  0  0
 18 17  1  0  0  0  0
 19 18  1  0  0  0  0
 20 26  1  1  0  0  0
 20 21  1  0  0  0  0
 21 22  1  0  0  0  0
 22 29  1  1  0  0  0
 23 24  1  0  0  0  0
 24 22  1  0  0  0  0
 24 19  1  0  0  0  0
 25 20  1  0  0  0  0
 25 23  1  0  0  0  0
 26 27  1  6  0  0  0
 26 28  1  0  0  0  0
 29 30  1  0  0  0  0
 32 31  1  0  0  0  0
 33 32  1  0  0  0  0
 34 33  1  0  0  0  0
M  END
>  <MODEL>
1

>  <REMARK>
 VINA RESULT:      -7.1      0.000      0.000
  Name = 
  10 active torsions:
  status: ('A' for Active; 'I' for Inactive)
    1  A    between atoms: C_1  and  C_8
    2  A    between atoms: C_3  and  C_13
    3  A    between atoms: C_4  and  C_16
    4  A    between atoms: C_6  and  N_28
    5  A    between atoms: C_6  and  C_30
    6  A    between atoms: C_7  and  C_11
    7  A    between atoms: C_8  and  C_18
    8  A    between atoms: C_13  and  S_27
    9  A    between atoms: C_18  and  C_30
   10  A    between atoms: C_25  and  S_27
                            x       y       z     vdW  Elec       q    Type
                         _______ _______ _______ _____ _____    ______ ____

>  <TORSDO>
F 10

$$$$
=
 OpenBabel10262423183D

 34 37  0  0  1  0  0  0  0  0999 V2000
  188.3690  177.8100  144.3410 C   0  0  1  0  0  0  0  0  0  0  0  0
  190.3760  177.3750  147.4680 C   0  0  0  0  0  2  0  0  0  0  0  0
  188.0510  177.2280  147.0880 C   0  0  0  0  0  2  0  0  0  0  0  0
  188.5010  176.4440  144.0730 O   0  0  0  0  0  1  0  0  0  0  0  0
  185.8850  178.4240  144.2420 C   0  0  0  0  0  3  0  0  0  0  0  0
  184.5150  178.2840  146.2350 C   0  0  0  0  0  3  0  0  0  0  0  0
  184.6420  178.5590  144.8700 C   0  0  0  0  0  3  0  0  0  0  0  0
  186.8700  177.7430  146.3430 C   0  0  0  0  0  0  0  0  0  0  0  0
  187.0160  178.0330  144.9800 C   0  0  0  0  0  0  0  0  0  0  0  0
  185.6280  177.8680  146.9700 C   0  0  0  0  0  3  0  0  0  0  0  0
  190.9280  176.2180  146.6430 C   0  0  0  0  0  2  0  0  0  0  0  0
  191.5610  176.7420  145.3580 C   0  0  2  0  0  3  0  0  0  0  0  0
  189.2480  178.0250  146.7900 N   0  0  2  0  0  0  0  0  0  0  0  0
  190.9370  178.0490  144.8580 C   0  0  0  0  0  2  0  0  0  0  0  0
  189.4850  178.2690  145.3310 C   0  0  1  0  0  3  0  0  0  0  0  0
  188.4740  178.6120  143.0310 C   0  0  0  0  0  2  0  0  0  0  0  0
  187.9960  177.8370  141.8070 C   0  0  0  0  0  2  0  0  0  0  0  0
  188.0950  178.6990  140.5600 C   0  0  0  0  0  2  0  0  0  0  0  0
  188.1830  177.8410  139.3050 C   0  0  0  0  0  2  0  0  0  0  0  0
  188.1540  177.5090  135.3800 C   0  0  1  0  0  3  0  0  0  0  0  0
  186.7600  177.8440  135.9220 C   0  0  0  0  0  2  0  0  0  0  0  0
  186.7120  177.7030  137.4480 C   0  0  1  0  0  3  0  0  0  0  0  0
  188.8460  178.9500  137.3320 C   0  0  0  0  0  2  0  0  0  0  0  0
  187.6800  178.5740  138.1490 N   0  0  0  0  0  0  0  0  0  0  0  0
  189.2760  177.8340  136.3780 C   0  0  0  0  0  2  0  0  0  0  0  0
  188.2130  176.0560  134.9050 C   0  0  1  0  0  3  0  0  0  0  0  0
  188.9670  175.1900  135.8980 C   0  0  0  0  0  1  0  0  0  0  0  0
  186.9290  175.5410  134.7040 O   0  0  0  0  0  1  0  0  0  0  0  0
  185.2950  177.9320  137.9680 C   0  0  0  0  0  2  0  0  0  0  0  0
  184.2430  177.3650  137.0280 C   0  0  0  0  0  1  0  0  0  0  0  0
  191.5130  175.4690  144.0620 S   0  0  0  0  0  0  0  0  0  0  0  0
  191.9330  176.6590  142.7500 C   0  0  0  0  0  2  0  0  0  0  0  0
  191.0410  176.4590  141.5350 C   0  0  0  0  0  2  0  0  0  0  0  0
  191.5250  177.3120  140.3770 C   0  0  0  0  0  1  0  0  0  0  0  0
  1  4  1  6  0  0  0
  1  9  1  0  0  0  0
  1 15  1  0  0  0  0
  5  7  2  0  0  0  0
  5  9  1  0  0  0  0
  6 10  2  0  0  0  0
  7  6  1  0  0  0  0
  8 10  1  0  0  0  0
  8  3  1  0  0  0  0
  9  8  2  0  0  0  0
 11  2  1  0  0  0  0
 12 31  1  6  0  0  0
 12 11  1  0  0  0  0
 13  3  1  6  0  0  0
 13  2  1  0  0  0  0
 14 12  1  0  0  0  0
 15 14  1  6  0  0  0
 15 13  1  0  0  0  0
 16  1  1  0  0  0  0
 17 16  1  0  0  0  0
 18 17  1  0  0  0  0
 19 18  1  0  0  0  0
 20 26  1  1  0  0  0
 20 21  1  0  0  0  0
 20 25  1  0  0  0  0
 21 22  1  0  0  0  0
 22 29  1  1  0  0  0
 22 24  1  0  0  0  0
 23 24  1  0  0  0  0
 24 19  1  0  0  0  0
 25 23  1  0  0  0  0
 26 27  1  1  0  0  0
 28 26  1  0  0  0  0
 30 29  1  0  0  0  0
 32 31  1  0  0  0  0
 33 32  1  0  0  0  0
 34 33  1  0  0  0  0
M  END
>  <MODEL>
2

>  <REMARK>
 VINA RESULT:      -7.1      1.243      1.988
  Name = 
  10 active torsions:
  status: ('A' for Active; 'I' for Inactive)
    1  A    between atoms: C_1  and  C_8
    2  A    between atoms: C_3  and  C_13
    3  A    between atoms: C_4  and  C_16
    4  A    between atoms: C_6  and  N_28
    5  A    between atoms: C_6  and  C_30
    6  A    between atoms: C_7  and  C_11
    7  A    between atoms: C_8  and  C_18
    8  A    between atoms: C_13  and  S_27
    9  A    between atoms: C_18  and  C_30
   10  A    between atoms: C_25  and  S_27
                            x       y       z     vdW  Elec       q    Type
                         _______ _______ _______ _____ _____    ______ ____

>  <TORSDO>
F 10

$$$$
=
 OpenBabel10262423183D

 34 37  0  0  1  0  0  0  0  0999 V2000
  188.4980  177.3900  144.1430 C   0  0  1  0  0  0  0  0  0  0  0  0
  185.5220  177.9280  146.3450 C   0  0  0  0  0  2  0  0  0  0  0  0
  187.8320  177.9560  146.8300 C   0  0  0  0  0  2  0  0  0  0  0  0
  188.5380  178.7610  143.8700 O   0  0  0  0  0  1  0  0  0  0  0  0
  190.8190  176.6500  144.9340 C   0  0  0  0  0  3  0  0  0  0  0  0
  191.3830  176.7190  147.2880 C   0  0  0  0  0  3  0  0  0  0  0  0
  191.7430  176.4520  145.9640 C   0  0  0  0  0  3  0  0  0  0  0  0
  189.1760  177.3810  146.5510 C   0  0  0  0  0  0  0  0  0  0  0  0
  189.5180  177.0990  145.2230 C   0  0  0  0  0  0  0  0  0  0  0  0
  190.1010  177.1920  147.5810 C   0  0  0  0  0  3  0  0  0  0  0  0
  185.3610  179.1120  145.3980 C   0  0  0  0  0  2  0  0  0  0  0  0
  185.2100  178.6210  143.9620 C   0  0  2  0  0  3  0  0  0  0  0  0
  186.7870  177.2220  146.1070 N   0  0  2  0  0  0  0  0  0  0  0  0
  185.9090  177.2840  143.6960 C   0  0  0  0  0  2  0  0  0  0  0  0
  187.0800  176.9900  144.6560 C   0  0  1  0  0  3  0  0  0  0  0  0
  188.8350  176.5950  142.8680 C   0  0  0  0  0  2  0  0  0  0  0  0
  188.9480  177.4670  141.6230 C   0  0  0  0  0  2  0  0  0  0  0  0
  190.3890  177.5270  141.1440 C   0  0  0  0  0  2  0  0  0  0  0  0
  190.6760  176.4300  140.1280 C   0  0  0  0  0  2  0  0  0  0  0  0
  191.2210  175.2050  136.4230 C   0  0  1  0  0  3  0  0  0  0  0  0
  190.1860  176.3330  136.4910 C   0  0  0  0  0  2  0  0  0  0  0  0
  189.7740  176.6190  137.9400 C   0  0  1  0  0  3  0  0  0  0  0  0
  192.2130  176.5110  138.3400 C   0  0  0  0  0  2  0  0  0  0  0  0
  190.9070  177.0060  138.8080 N   0  0  0  0  0  0  0  0  0  0  0  0
  192.1130  175.1390  137.6720 C   0  0  0  0  0  2  0  0  0  0  0  0
  190.5410  173.8670  136.1330 C   0  0  1  0  0  3  0  0  0  0  0  0
  191.5350  172.8630  135.5760 C   0  0  0  0  0  1  0  0  0  0  0  0
  189.9370  173.3490  137.2820 O   0  0  0  0  0  1  0  0  0  0  0  0
  188.6650  177.6660  137.9910 C   0  0  0  0  0  2  0  0  0  0  0  0
  189.0480  178.9400  137.2550 C   0  0  0  0  0  1  0  0  0  0  0  0
  185.7830  179.8900  142.7940 S   0  0  0  0  0  0  0  0  0  0  0  0
  185.6930  178.7540  141.3740 C   0  0  0  0  0  2  0  0  0  0  0  0
  184.4370  179.0100  140.5570 C   0  0  0  0  0  2  0  0  0  0  0  0
  183.4100  177.9230  140.8130 C   0  0  0  0  0  1  0  0  0  0  0  0
  1  4  1  6  0  0  0
  1 15  1  0  0  0  0
  1  9  1  0  0  0  0
  5  9  2  0  0  0  0
  5  7  1  0  0  0  0
  6 10  1  0  0  0  0
  7  6  2  0  0  0  0
  8  3  1  0  0  0  0
  8 10  2  0  0  0  0
  9  8  1  0  0  0  0
 11  2  1  0  0  0  0
 12 31  1  6  0  0  0
 12 11  1  0  0  0  0
 13  2  1  6  0  0  0
 13  3  1  0  0  0  0
 14 12  1  0  0  0  0
 15 14  1  6  0  0  0
 15 13  1  0  0  0  0
 16  1  1  0  0  0  0
 17 16  1  0  0  0  0
 18 17  1  0  0  0  0
 19 18  1  0  0  0  0
 20 26  1  1  0  0  0
 20 21  1  0  0  0  0
 20 25  1  0  0  0  0
 21 22  1  0  0  0  0
 22 29  1  6  0  0  0
 22 24  1  0  0  0  0
 23 24  1  0  0  0  0
 24 19  1  0  0  0  0
 25 23  1  0  0  0  0
 26 27  1  1  0  0  0
 26 28  1  0  0  0  0
 30 29  1  0  0  0  0
 32 31  1  0  0  0  0
 33 34  1  0  0  0  0
 33 32  1  0  0  0  0
M  END
>  <MODEL>
3

>  <REMARK>
 VINA RESULT:      -6.9      2.830      5.370
  Name = 
  10 active torsions:
  status: ('A' for Active; 'I' for Inactive)
    1  A    between atoms: C_1  and  C_8
    2  A    between atoms: C_3  and  C_13
    3  A    between atoms: C_4  and  C_16
    4  A    between atoms: C_6  and  N_28
    5  A    between atoms: C_6  and  C_30
    6  A    between atoms: C_7  and  C_11
    7  A    between atoms: C_8  and  C_18
    8  A    between atoms: C_13  and  S_27
    9  A    between atoms: C_18  and  C_30
   10  A    between atoms: C_25  and  S_27
                            x       y       z     vdW  Elec       q    Type
                         _______ _______ _______ _____ _____    ______ ____

>  <TORSDO>
F 10

$$$$
=
 OpenBabel10262423183D

 34 37  0  0  1  0  0  0  0  0999 V2000
  184.0950  178.6590  140.8390 C   0  0  1  0  0  0  0  0  0  0  0  0
  182.1930  179.0020  137.6360 C   0  0  0  0  0  2  0  0  0  0  0  0
  184.3780  178.2200  138.0620 C   0  0  0  0  0  2  0  0  0  0  0  0
  183.6000  177.3600  140.9880 O   0  0  0  0  0  1  0  0  0  0  0  0
  186.6460  178.5880  141.0530 C   0  0  0  0  0  3  0  0  0  0  0  0
  188.0240  178.2410  139.0920 C   0  0  0  0  0  3  0  0  0  0  0  0
  187.9090  178.4370  140.4710 C   0  0  0  0  0  3  0  0  0  0  0  0
  185.6170  178.3490  138.8780 C   0  0  0  0  0  0  0  0  0  0  0  0
  185.4880  178.5640  140.2560 C   0  0  0  0  0  0  0  0  0  0  0  0
  186.8770  178.1880  138.2960 C   0  0  0  0  0  3  0  0  0  0  0  0
  181.3200  177.9730  138.3460 C   0  0  0  0  0  2  0  0  0  0  0  0
  180.7870  178.5480  139.6550 C   0  0  2  0  0  3  0  0  0  0  0  0
  183.4180  179.2790  138.3950 N   0  0  2  0  0  0  0  0  0  0  0  0
  181.7050  179.6040  140.2790 C   0  0  0  0  0  2  0  0  0  0  0  0
  183.1850  179.4680  139.8630 C   0  0  1  0  0  3  0  0  0  0  0  0
  184.1420  179.3610  142.2090 C   0  0  0  0  0  2  0  0  0  0  0  0
  183.8660  178.4220  143.3790 C   0  0  0  0  0  2  0  0  0  0  0  0
  184.4960  178.9610  144.6530 C   0  0  0  0  0  2  0  0  0  0  0  0
  186.0160  178.9060  144.5780 C   0  0  0  0  0  2  0  0  0  0  0  0
  189.3810  176.8810  144.8930 C   0  0  1  0  0  3  0  0  0  0  0  0
  188.7500  177.1320  146.2670 C   0  0  0  0  0  2  0  0  0  0  0  0
  187.6010  178.1430  146.1710 C   0  0  1  0  0  3  0  0  0  0  0  0
  186.9520  176.7710  144.2170 C   0  0  0  0  0  2  0  0  0  0  0  0
  186.5180  177.7180  145.2590 N   0  0  0  0  0  0  0  0  0  0  0  0
  188.3800  177.0420  143.7390 C   0  0  0  0  0  2  0  0  0  0  0  0
  190.6210  177.7530  144.7020 C   0  0  1  0  0  3  0  0  0  0  0  0
  191.6710  177.0320  143.8760 C   0  0  0  0  0  1  0  0  0  0  0  0
  190.2920  178.9700  144.0960 O   0  0  0  0  0  1  0  0  0  0  0  0
  187.0510  178.4690  147.5580 C   0  0  0  0  0  2  0  0  0  0  0  0
  187.9320  177.9150  148.6660 C   0  0  0  0  0  1  0  0  0  0  0  0
  180.4410  177.2150  140.8390 S   0  0  0  0  0  0  0  0  0  0  0  0
  179.5620  178.3310  141.9780 C   0  0  0  0  0  2  0  0  0  0  0  0
  180.1440  178.2370  143.3800 C   0  0  0  0  0  2  0  0  0  0  0  0
  179.2920  179.0230  144.3590 C   0  0  0  0  0  1  0  0  0  0  0  0
  1  4  1  1  0  0  0
  1 16  1  0  0  0  0
  2 11  1  0  0  0  0
  3 13  1  0  0  0  0
  3  8  1  0  0  0  0
  6  7  2  0  0  0  0
  7  5  1  0  0  0  0
  8  9  1  0  0  0  0
  9  1  1  0  0  0  0
  9  5  2  0  0  0  0
 10  8  2  0  0  0  0
 10  6  1  0  0  0  0
 11 12  1  0  0  0  0
 12 14  1  0  0  0  0
 12 31  1  1  0  0  0
 13  2  1  6  0  0  0
 13 15  1  0  0  0  0
 15 14  1  6  0  0  0
 15  1  1  0  0  0  0
 16 17  1  0  0  0  0
 17 18  1  0  0  0  0
 19 18  1  0  0  0  0
 19 24  1  0  0  0  0
 20 26  1  6  0  0  0
 20 21  1  0  0  0  0
 22 21  1  0  0  0  0
 22 29  1  1  0  0  0
 23 24  1  0  0  0  0
 24 22  1  0  0  0  0
 25 23  1  0  0  0  0
 25 20  1  0  0  0  0
 26 27  1  6  0  0  0
 28 26  1  0  0  0  0
 29 30  1  0  0  0  0
 31 32  1  0  0  0  0
 32 33  1  0  0  0  0
 33 34  1  0  0  0  0
M  END
>  <MODEL>
4

>  <REMARK>
 VINA RESULT:      -6.9      3.053      8.951
  Name = 
  10 active torsions:
  status: ('A' for Active; 'I' for Inactive)
    1  A    between atoms: C_1  and  C_8
    2  A    between atoms: C_3  and  C_13
    3  A    between atoms: C_4  and  C_16
    4  A    between atoms: C_6  and  N_28
    5  A    between atoms: C_6  and  C_30
    6  A    between atoms: C_7  and  C_11
    7  A    between atoms: C_8  and  C_18
    8  A    between atoms: C_13  and  S_27
    9  A    between atoms: C_18  and  C_30
   10  A    between atoms: C_25  and  S_27
                            x       y       z     vdW  Elec       q    Type
                         _______ _______ _______ _____ _____    ______ ____

>  <TORSDO>
F 10

$$$$
=
 OpenBabel10262423183D

 34 37  0  0  1  0  0  0  0  0999 V2000
  183.6110  178.3460  138.7930 C   0  0  1  0  0  0  0  0  0  0  0  0
  180.2730  178.2170  137.1120 C   0  0  0  0  0  2  0  0  0  0  0  0
  182.3100  177.1460  136.5900 C   0  0  0  0  0  2  0  0  0  0  0  0
  183.2440  177.2590  139.5940 O   0  0  0  0  0  1  0  0  0  0  0  0
  185.8580  177.8160  137.6830 C   0  0  0  0  0  3  0  0  0  0  0  0
  185.9210  176.6960  135.5360 C   0  0  0  0  0  3  0  0  0  0  0  0
  186.5880  177.2650  136.6250 C   0  0  0  0  0  3  0  0  0  0  0  0
  183.7970  177.2300  136.5620 C   0  0  0  0  0  0  0  0  0  0  0  0
  184.4520  177.8200  137.6500 C   0  0  0  0  0  0  0  0  0  0  0  0
  184.5240  176.6700  135.5090 C   0  0  0  0  0  3  0  0  0  0  0  0
  179.9060  177.6090  138.4610 C   0  0  0  0  0  2  0  0  0  0  0  0
  180.1950  178.6020  139.5820 C   0  0  2  0  0  3  0  0  0  0  0  0
  181.7210  178.4280  136.9960 N   0  0  2  0  0  0  0  0  0  0  0  0
  181.3340  179.5750  139.2590 C   0  0  0  0  0  2  0  0  0  0  0  0
  182.3370  179.0380  138.2170 C   0  0  1  0  0  3  0  0  0  0  0  0
  184.4230  179.3560  139.6250 C   0  0  0  0  0  2  0  0  0  0  0  0
  184.9030  178.7950  140.9590 C   0  0  0  0  0  2  0  0  0  0  0  0
  186.4070  178.5820  140.9350 C   0  0  0  0  0  2  0  0  0  0  0  0
  187.0080  178.7550  142.3240 C   0  0  0  0  0  2  0  0  0  0  0  0
  188.2460  176.9660  145.6090 C   0  0  1  0  0  3  0  0  0  0  0  0
  186.7530  177.3040  145.6860 C   0  0  0  0  0  2  0  0  0  0  0  0
  186.3360  178.2330  144.5390 C   0  0  1  0  0  3  0  0  0  0  0  0
  187.6640  176.6540  143.1740 C   0  0  0  0  0  2  0  0  0  0  0  0
  186.5920  177.6650  143.1990 N   0  0  0  0  0  0  0  0  0  0  0  0
  188.7830  176.9640  144.1700 C   0  0  0  0  0  2  0  0  0  0  0  0
  189.0540  177.8890  146.5210 C   0  0  1  0  0  3  0  0  0  0  0  0
  188.3740  178.0530  147.8680 C   0  0  0  0  0  1  0  0  0  0  0  0
  190.3540  177.4070  146.7000 O   0  0  0  0  0  1  0  0  0  0  0  0
  184.8750  178.6510  144.6860 C   0  0  0  0  0  2  0  0  0  0  0  0
  184.4180  178.6330  146.1360 C   0  0  0  0  0  1  0  0  0  0  0  0
  180.5210  177.7250  141.1390 S   0  0  0  0  0  0  0  0  0  0  0  0
  181.2080  179.2090  141.9390 C   0  0  0  0  0  2  0  0  0  0  0  0
  181.3210  179.0090  143.4410 C   0  0  0  0  0  2  0  0  0  0  0  0
  180.0910  178.2980  143.9730 C   0  0  0  0  0  1  0  0  0  0  0  0
  1  4  1  1  0  0  0
  1 16  1  0  0  0  0
  2 11  1  0  0  0  0
  6  7  1  0  0  0  0
  7  5  2  0  0  0  0
  8  3  1  0  0  0  0
  8  9  2  0  0  0  0
  9  5  1  0  0  0  0
  9  1  1  0  0  0  0
 10  6  2  0  0  0  0
 10  8  1  0  0  0  0
 11 12  1  0  0  0  0
 12 31  1  1  0  0  0
 13  3  1  1  0  0  0
 13  2  1  0  0  0  0
 13 15  1  0  0  0  0
 14 12  1  0  0  0  0
 15  1  1  0  0  0  0
 15 14  1  1  0  0  0
 16 17  1  0  0  0  0
 18 17  1  0  0  0  0
 18 19  1  0  0  0  0
 19 24  1  0  0  0  0
 20 21  1  0  0  0  0
 20 26  1  1  0  0  0
 22 29  1  6  0  0  0
 22 21  1  0  0  0  0
 23 24  1  0  0  0  0
 23 25  1  0  0  0  0
 24 22  1  0  0  0  0
 25 20  1  0  0  0  0
 26 28  1  0  0  0  0
 26 27  1  1  0  0  0
 29 30  1  0  0  0  0
 31 32  1  0  0  0  0
 32 33  1  0  0  0  0
 33 34  1  0  0  0  0
M  END
>  <MODEL>
5

>  <REMARK>
 VINA RESULT:      -6.8      3.195      9.480
  Name = 
  10 active torsions:
  status: ('A' for Active; 'I' for Inactive)
    1  A    between atoms: C_1  and  C_8
    2  A    between atoms: C_3  and  C_13
    3  A    between atoms: C_4  and  C_16
    4  A    between atoms: C_6  and  N_28
    5  A    between atoms: C_6  and  C_30
    6  A    between atoms: C_7  and  C_11
    7  A    between atoms: C_8  and  C_18
    8  A    between atoms: C_13  and  S_27
    9  A    between atoms: C_18  and  C_30
   10  A    between atoms: C_25  and  S_27
                            x       y       z     vdW  Elec       q    Type
                         _______ _______ _______ _____ _____    ______ ____

>  <TORSDO>
F 10

$$$$
=
 OpenBabel10262423183D

 34 37  0  0  1  0  0  0  0  0999 V2000
  189.1470  177.4790  138.1670 C   0  0  1  0  0  0  0  0  0  0  0  0
  188.0630  177.2600  134.5940 C   0  0  0  0  0  2  0  0  0  0  0  0
  189.9070  176.3040  135.7120 C   0  0  0  0  0  2  0  0  0  0  0  0
  188.3790  176.3480  138.4640 O   0  0  0  0  0  1  0  0  0  0  0  0
  191.5290  177.0930  139.0250 C   0  0  0  0  0  3  0  0  0  0  0  0
  193.1860  176.0570  137.5940 C   0  0  0  0  0  3  0  0  0  0  0  0
  192.8280  176.6160  138.8250 C   0  0  0  0  0  3  0  0  0  0  0  0
  190.9490  176.4560  136.7660 C   0  0  0  0  0  0  0  0  0  0  0  0
  190.5820  177.0350  137.9870 C   0  0  0  0  0  0  0  0  0  0  0  0
  192.2430  175.9690  136.5660 C   0  0  0  0  0  3  0  0  0  0  0  0
  186.8720  176.5870  135.2670 C   0  0  0  0  0  2  0  0  0  0  0  0
  186.2050  177.5510  136.2430 C   0  0  2  0  0  3  0  0  0  0  0  0
  189.1330  177.5410  135.5580 N   0  0  2  0  0  0  0  0  0  0  0  0
  187.1670  178.5860  136.8350 C   0  0  0  0  0  2  0  0  0  0  0  0
  188.6430  178.1330  136.8430 C   0  0  1  0  0  3  0  0  0  0  0  0
  189.0480  178.4940  139.3210 C   0  0  0  0  0  2  0  0  0  0  0  0
  188.1820  178.0110  140.4790 C   0  0  0  0  0  2  0  0  0  0  0  0
  189.0120  177.8830  141.7460 C   0  0  0  0  0  2  0  0  0  0  0  0
  188.2600  178.4290  142.9520 C   0  0  0  0  0  2  0  0  0  0  0  0
  188.8790  176.8770  146.5200 C   0  0  1  0  0  3  0  0  0  0  0  0
  187.3840  177.0790  146.2510 C   0  0  0  0  0  2  0  0  0  0  0  0
  187.1580  177.9260  144.9930 C   0  0  1  0  0  3  0  0  0  0  0  0
  188.8810  176.4280  144.0370 C   0  0  0  0  0  2  0  0  0  0  0  0
  187.7510  177.3370  143.7730 N   0  0  0  0  0  0  0  0  0  0  0  0
  189.7210  176.8740  145.2350 C   0  0  0  0  0  2  0  0  0  0  0  0
  189.3870  177.9020  147.5350 C   0  0  1  0  0  3  0  0  0  0  0  0
  188.3680  178.1240  148.6380 C   0  0  0  0  0  1  0  0  0  0  0  0
  190.6060  177.5000  148.0890 O   0  0  0  0  0  1  0  0  0  0  0  0
  185.6720  178.2120  144.7940 C   0  0  0  0  0  2  0  0  0  0  0  0
  185.0130  178.7220  146.0660 C   0  0  0  0  0  1  0  0  0  0  0  0
  185.3580  176.6320  137.5620 S   0  0  0  0  0  0  0  0  0  0  0  0
  184.0620  177.8990  137.7380 C   0  0  0  0  0  2  0  0  0  0  0  0
  183.9220  178.3290  139.1890 C   0  0  0  0  0  2  0  0  0  0  0  0
  183.1040  177.3150  139.9650 C   0  0  0  0  0  1  0  0  0  0  0  0
  1  4  1  1  0  0  0
  1 16  1  0  0  0  0
  2 11  1  0  0  0  0
  3  8  1  0  0  0  0
  6  7  2  0  0  0  0
  7  5  1  0  0  0  0
  8  9  1  0  0  0  0
  9  1  1  0  0  0  0
  9  5  2  0  0  0  0
 10  8  2  0  0  0  0
 10  6  1  0  0  0  0
 11 12  1  0  0  0  0
 12 14  1  0  0  0  0
 12 31  1  1  0  0  0
 13  2  1  6  0  0  0
 13  3  1  0  0  0  0
 13 15  1  0  0  0  0
 15 14  1  6  0  0  0
 15  1  1  0  0  0  0
 16 17  1  0  0  0  0
 17 18  1  0  0  0  0
 18 19  1  0  0  0  0
 19 24  1  0  0  0  0
 20 26  1  1  0  0  0
 21 20  1  0  0  0  0
 22 29  1  6  0  0  0
 22 21  1  0  0  0  0
 23 25  1  0  0  0  0
 24 23  1  0  0  0  0
 24 22  1  0  0  0  0
 25 20  1  0  0  0  0
 26 28  1  0  0  0  0
 26 27  1  1  0  0  0
 29 30  1  0  0  0  0
 31 32  1  0  0  0  0
 32 33  1  0  0  0  0
 33 34  1  0  0  0  0
M  END
>  <MODEL>
6

>  <REMARK>
 VINA RESULT:      -6.7      2.718      9.117
  Name = 
  10 active torsions:
  status: ('A' for Active; 'I' for Inactive)
    1  A    between atoms: C_1  and  C_8
    2  A    between atoms: C_3  and  C_13
    3  A    between atoms: C_4  and  C_16
    4  A    between atoms: C_6  and  N_28
    5  A    between atoms: C_6  and  C_30
    6  A    between atoms: C_7  and  C_11
    7  A    between atoms: C_8  and  C_18
    8  A    between atoms: C_13  and  S_27
    9  A    between atoms: C_18  and  C_30
   10  A    between atoms: C_25  and  S_27
                            x       y       z     vdW  Elec       q    Type
                         _______ _______ _______ _____ _____    ______ ____

>  <TORSDO>
F 10

$$$$
=
 OpenBabel10262423183D

 34 37  0  0  1  0  0  0  0  0999 V2000
  188.2740  177.7030  141.9050 C   0  0  1  0  0  0  0  0  0  0  0  0
  191.1080  175.6460  143.2210 C   0  0  0  0  0  2  0  0  0  0  0  0
  190.8800  176.8600  141.2100 C   0  0  0  0  0  2  0  0  0  0  0  0
  188.8120  178.8340  142.5280 O   0  0  0  0  0  1  0  0  0  0  0  0
  187.8550  178.2530  139.4390 C   0  0  0  0  0  3  0  0  0  0  0  0
  189.5900  177.8690  137.7940 C   0  0  0  0  0  3  0  0  0  0  0  0
  188.3040  178.3120  138.1160 C   0  0  0  0  0  3  0  0  0  0  0  0
  189.9760  177.3100  140.1150 C   0  0  0  0  0  0  0  0  0  0  0  0
  188.6830  177.7320  140.4490 C   0  0  0  0  0  0  0  0  0  0  0  0
  190.4300  177.3760  138.7950 C   0  0  0  0  0  3  0  0  0  0  0  0
  191.0670  176.7390  144.2830 C   0  0  0  0  0  2  0  0  0  0  0  0
  189.7060  176.7530  144.9720 C   0  0  2  0  0  3  0  0  0  0  0  0
  190.1850  175.9380  142.1170 N   0  0  2  0  0  0  0  0  0  0  0  0
  188.5640  176.2550  144.0810 C   0  0  0  0  0  2  0  0  0  0  0  0
  188.8370  176.4090  142.5700 C   0  0  1  0  0  3  0  0  0  0  0  0
  186.7380  177.7240  142.0240 C   0  0  0  0  0  2  0  0  0  0  0  0
  186.2190  178.7970  142.9730 C   0  0  0  0  0  2  0  0  0  0  0  0
  184.7070  178.9150  142.8670 C   0  0  0  0  0  2  0  0  0  0  0  0
  184.1790  178.1330  141.6730 C   0  0  0  0  0  2  0  0  0  0  0  0
  182.6880  178.0320  138.0270 C   0  0  1  0  0  3  0  0  0  0  0  0
  181.6870  178.6270  139.0230 C   0  0  0  0  0  2  0  0  0  0  0  0
  182.1530  178.4160  140.4690 C   0  0  1  0  0  3  0  0  0  0  0  0
  184.3260  179.1810  139.5650 C   0  0  0  0  0  2  0  0  0  0  0  0
  183.4730  179.0190  140.7550 N   0  0  0  0  0  0  0  0  0  0  0  0
  184.1330  178.0540  138.5490 C   0  0  0  0  0  2  0  0  0  0  0  0
  182.2550  176.6290  137.6000 C   0  0  1  0  0  3  0  0  0  0  0  0
  183.0520  175.5670  138.3340 C   0  0  0  0  0  1  0  0  0  0  0  0
  180.8880  176.4360  137.8220 O   0  0  0  0  0  1  0  0  0  0  0  0
  181.1000  178.9140  141.4550 C   0  0  0  0  0  2  0  0  0  0  0  0
  180.0150  177.8770  141.7030 C   0  0  0  0  0  1  0  0  0  0  0  0
  189.3400  178.4100  145.6200 S   0  0  0  0  0  0  0  0  0  0  0  0
  187.7070  177.9050  146.2470 C   0  0  0  0  0  2  0  0  0  0  0  0
  187.6720  177.9610  147.7650 C   0  0  0  0  0  2  0  0  0  0  0  0
  189.0550  178.2510  148.3160 C   0  0  0  0  0  1  0  0  0  0  0  0
  1 16  1  0  0  0  0
  1  4  1  1  0  0  0
  1 15  1  0  0  0  0
  2 11  1  0  0  0  0
  5  9  1  0  0  0  0
  6  7  1  0  0  0  0
  6 10  2  0  0  0  0
  7  5  2  0  0  0  0
  8  9  2  0  0  0  0
  8  3  1  0  0  0  0
  9  1  1  0  0  0  0
 10  8  1  0  0  0  0
 11 12  1  0  0  0  0
 12 31  1  6  0  0  0
 13  3  1  6  0  0  0
 13 15  1  0  0  0  0
 13  2  1  0  0  0  0
 14 12  1  0  0  0  0
 15 14  1  1  0  0  0
 16 17  1  0  0  0  0
 18 17  1  0  0  0  0
 19 18  1  0  0  0  0
 20 26  1  1  0  0  0
 20 25  1  0  0  0  0
 20 21  1  0  0  0  0
 21 22  1  0  0  0  0
 22 24  1  0  0  0  0
 22 29  1  1  0  0  0
 23 24  1  0  0  0  0
 24 19  1  0  0  0  0
 25 23  1  0  0  0  0
 26 28  1  0  0  0  0
 26 27  1  1  0  0  0
 29 30  1  0  0  0  0
 31 32  1  0  0  0  0
 32 33  1  0  0  0  0
 33 34  1  0  0  0  0
M  END
>  <MODEL>
7

>  <REMARK>
 VINA RESULT:      -6.5      2.242      4.912
  Name = 
  10 active torsions:
  status: ('A' for Active; 'I' for Inactive)
    1  A    between atoms: C_1  and  C_8
    2  A    between atoms: C_3  and  C_13
    3  A    between atoms: C_4  and  C_16
    4  A    between atoms: C_6  and  N_28
    5  A    between atoms: C_6  and  C_30
    6  A    between atoms: C_7  and  C_11
    7  A    between atoms: C_8  and  C_18
    8  A    between atoms: C_13  and  S_27
    9  A    between atoms: C_18  and  C_30
   10  A    between atoms: C_25  and  S_27
                            x       y       z     vdW  Elec       q    Type
                         _______ _______ _______ _____ _____    ______ ____

>  <TORSDO>
F 10

$$$$
=
 OpenBabel10262423183D

 34 37  0  0  1  0  0  0  0  0999 V2000
  189.2560  176.7460  137.3280 C   0  0  1  0  0  0  0  0  0  0  0  0
  189.6030  173.2470  136.0510 C   0  0  0  0  0  2  0  0  0  0  0  0
  187.8180  174.7830  135.8910 C   0  0  0  0  0  2  0  0  0  0  0  0
  189.7830  177.2320  136.1270 O   0  0  0  0  0  1  0  0  0  0  0  0
  187.0420  177.9480  137.7900 C   0  0  0  0  0  3  0  0  0  0  0  0
  184.9620  177.0370  136.9470 C   0  0  0  0  0  3  0  0  0  0  0  0
  185.6540  178.0320  137.6450 C   0  0  0  0  0  3  0  0  0  0  0  0
  187.0460  175.8770  136.5430 C   0  0  0  0  0  0  0  0  0  0  0  0
  187.7480  176.8560  137.2550 C   0  0  0  0  0  0  0  0  0  0  0  0
  185.6600  175.9630  136.3880 C   0  0  0  0  0  3  0  0  0  0  0  0
  190.7070  173.9260  135.2490 C   0  0  0  0  0  2  0  0  0  0  0  0
  191.7420  174.5370  136.1880 C   0  0  2  0  0  3  0  0  0  0  0  0
  188.8160  174.2260  136.8120 N   0  0  2  0  0  0  0  0  0  0  0  0
  191.1660  174.9520  137.5460 C   0  0  0  0  0  2  0  0  0  0  0  0
  189.6520  175.2490  137.5180 C   0  0  1  0  0  3  0  0  0  0  0  0
  189.7910  177.5800  138.5070 C   0  0  0  0  0  2  0  0  0  0  0  0
  189.4310  177.0010  139.8710 C   0  0  0  0  0  2  0  0  0  0  0  0
  190.3490  177.5600  140.9450 C   0  0  0  0  0  2  0  0  0  0  0  0
  189.5540  178.0330  142.1540 C   0  0  0  0  0  2  0  0  0  0  0  0
  186.9380  177.1640  144.9690 C   0  0  1  0  0  3  0  0  0  0  0  0
  186.2410  177.5510  143.6600 C   0  0  0  0  0  2  0  0  0  0  0  0
  187.2380  178.1470  142.6590 C   0  0  1  0  0  3  0  0  0  0  0  0
  188.6290  176.2220  143.3510 C   0  0  0  0  0  2  0  0  0  0  0  0
  188.3460  177.2310  142.3150 N   0  0  0  0  0  0  0  0  0  0  0  0
  188.4050  176.7580  144.7660 C   0  0  0  0  0  2  0  0  0  0  0  0
  186.7890  178.2770  146.0070 C   0  0  1  0  0  3  0  0  0  0  0  0
  185.3310  178.6590  146.1880 C   0  0  0  0  0  1  0  0  0  0  0  0
  187.3350  177.8940  147.2360 O   0  0  0  0  0  1  0  0  0  0  0  0
  186.5180  178.6290  141.4010 C   0  0  0  0  0  2  0  0  0  0  0  0
  185.0170  178.7510  141.6130 C   0  0  0  0  0  1  0  0  0  0  0  0
  192.5770  175.9380  135.3890 S   0  0  0  0  0  0  0  0  0  0  0  0
  194.0340  175.8070  136.4720 C   0  0  0  0  0  2  0  0  0  0  0  0
  195.3160  175.9700  135.6720 C   0  0  0  0  0  2  0  0  0  0  0  0
  195.3230  177.3040  134.9490 C   0  0  0  0  0  1  0  0  0  0  0  0
  1  4  1  6  0  0  0
  1 15  1  0  0  0  0
  1 16  1  0  0  0  0
  2 13  1  0  0  0  0
  3  8  1  0  0  0  0
  6  7  2  0  0  0  0
  7  5  1  0  0  0  0
  8  9  1  0  0  0  0
  9  1  1  0  0  0  0
  9  5  2  0  0  0  0
 10  8  2  0  0  0  0
 10  6  1  0  0  0  0
 11  2  1  0  0  0  0
 11 12  1  0  0  0  0
 12 31  1  6  0  0  0
 12 14  1  0  0  0  0
 13  3  1  6  0  0  0
 13 15  1  0  0  0  0
 15 14  1  6  0  0  0
 16 17  1  0  0  0  0
 17 18  1  0  0  0  0
 18 19  1  0  0  0  0
 19 24  1  0  0  0  0
 20 26  1  1  0  0  0
 21 20  1  0  0  0  0
 22 29  1  6  0  0  0
 22 21  1  0  0  0  0
 23 25  1  0  0  0  0
 24 22  1  0  0  0  0
 24 23  1  0  0  0  0
 25 20  1  0  0  0  0
 26 27  1  1  0  0  0
 26 28  1  0  0  0  0
 29 30  1  0  0  0  0
 31 32  1  0  0  0  0
 33 32  1  0  0  0  0
 34 33  1  0  0  0  0
M  END
>  <MODEL>
8

>  <REMARK>
 VINA RESULT:      -6.5      3.568      8.010
  Name = 
  10 active torsions:
  status: ('A' for Active; 'I' for Inactive)
    1  A    between atoms: C_1  and  C_8
    2  A    between atoms: C_3  and  C_13
    3  A    between atoms: C_4  and  C_16
    4  A    between atoms: C_6  and  N_28
    5  A    between atoms: C_6  and  C_30
    6  A    between atoms: C_7  and  C_11
    7  A    between atoms: C_8  and  C_18
    8  A    between atoms: C_13  and  S_27
    9  A    between atoms: C_18  and  C_30
   10  A    between atoms: C_25  and  S_27
                            x       y       z     vdW  Elec       q    Type
                         _______ _______ _______ _____ _____    ______ ____

>  <TORSDO>
F 10

$$$$
=
 OpenBabel10262423183D

 34 37  0  0  1  0  0  0  0  0999 V2000
  187.8360  178.0870  143.5420 C   0  0  1  0  0  0  0  0  0  0  0  0
  191.0620  177.5850  145.3670 C   0  0  0  0  0  2  0  0  0  0  0  0
  188.8270  177.2920  146.0660 C   0  0  0  0  0  2  0  0  0  0  0  0
  187.8770  176.7560  143.1130 O   0  0  0  0  0  1  0  0  0  0  0  0
  185.5610  178.5190  144.6350 C   0  0  0  0  0  3  0  0  0  0  0  0
  185.2570  178.1410  147.0080 C   0  0  0  0  0  3  0  0  0  0  0  0
  184.7380  178.5180  145.7660 C   0  0  0  0  0  3  0  0  0  0  0  0
  187.4190  177.7690  145.9880 C   0  0  0  0  0  0  0  0  0  0  0  0
  186.9170  178.1630  144.7410 C   0  0  0  0  0  0  0  0  0  0  0  0
  186.5970  177.7570  147.1180 C   0  0  0  0  0  3  0  0  0  0  0  0
  191.2160  176.5320  144.2750 C   0  0  0  0  0  2  0  0  0  0  0  0
  191.1740  177.1900  142.8990 C   0  0  2  0  0  3  0  0  0  0  0  0
  189.7270  178.1940  145.3370 N   0  0  2  0  0  0  0  0  0  0  0  0
  190.3460  178.4780  142.8630 C   0  0  0  0  0  2  0  0  0  0  0  0
  189.2640  178.5570  143.9600 C   0  0  1  0  0  3  0  0  0  0  0  0
  187.3030  178.9830  142.4090 C   0  0  0  0  0  2  0  0  0  0  0  0
  186.5720  178.2090  141.3180 C   0  0  0  0  0  2  0  0  0  0  0  0
  185.3300  178.9630  140.8720 C   0  0  0  0  0  2  0  0  0  0  0  0
  184.0730  178.3600  141.4820 C   0  0  0  0  0  2  0  0  0  0  0  0
  180.9400  176.9890  139.5260 C   0  0  1  0  0  3  0  0  0  0  0  0
  180.5300  178.0160  140.5870 C   0  0  0  0  0  2  0  0  0  0  0  0
  181.7000  178.3410  141.5230 C   0  0  1  0  0  3  0  0  0  0  0  0
  182.9660  178.4870  139.4030 C   0  0  0  0  0  2  0  0  0  0  0  0
  182.8830  178.8810  140.8190 N   0  0  0  0  0  0  0  0  0  0  0  0
  182.4280  177.0760  139.1560 C   0  0  0  0  0  2  0  0  0  0  0  0
  180.5380  175.5780  139.9580 C   0  0  1  0  0  3  0  0  0  0  0  0
  179.1780  175.5830  140.6330 C   0  0  0  0  0  1  0  0  0  0  0  0
  180.5240  174.7030  138.8680 O   0  0  0  0  0  1  0  0  0  0  0  0
  181.2530  179.2810  142.6410 C   0  0  0  0  0  2  0  0  0  0  0  0
  180.6330  178.5260  143.8070 C   0  0  0  0  0  1  0  0  0  0  0  0
  190.5840  176.0100  141.6500 S   0  0  0  0  0  0  0  0  0  0  0  0
  190.7540  177.2170  140.2970 C   0  0  0  0  0  2  0  0  0  0  0  0
  189.5560  177.1520  139.3630 C   0  0  0  0  0  2  0  0  0  0  0  0
  189.2180  178.5350  138.8390 C   0  0  0  0  0  1  0  0  0  0  0  0
  1  4  1  6  0  0  0
  1 15  1  0  0  0  0
  1  9  1  0  0  0  0
  5  9  2  0  0  0  0
  5  7  1  0  0  0  0
  6 10  1  0  0  0  0
  7  6  2  0  0  0  0
  8  3  1  0  0  0  0
  8 10  2  0  0  0  0
  9  8  1  0  0  0  0
 11  2  1  0  0  0  0
 12 31  1  6  0  0  0
 12 11  1  0  0  0  0
 13  2  1  6  0  0  0
 13  3  1  0  0  0  0
 14 12  1  0  0  0  0
 15 14  1  6  0  0  0
 15 13  1  0  0  0  0
 16  1  1  0  0  0  0
 17 16  1  0  0  0  0
 18 17  1  0  0  0  0
 18 19  1  0  0  0  0
 20 26  1  1  0  0  0
 20 21  1  0  0  0  0
 21 22  1  0  0  0  0
 22 29  1  1  0  0  0
 23 24  1  0  0  0  0
 24 19  1  0  0  0  0
 24 22  1  0  0  0  0
 25 23  1  0  0  0  0
 25 20  1  0  0  0  0
 26 27  1  6  0  0  0
 28 26  1  0  0  0  0
 29 30  1  0  0  0  0
 32 31  1  0  0  0  0
 33 32  1  0  0  0  0
 34 33  1  0  0  0  0
M  END
>  <MODEL>
9

>  <REMARK>
 VINA RESULT:      -6.5      2.381      3.133
  Name = 
  10 active torsions:
  status: ('A' for Active; 'I' for Inactive)
    1  A    between atoms: C_1  and  C_8
    2  A    between atoms: C_3  and  C_13
    3  A    between atoms: C_4  and  C_16
    4  A    between atoms: C_6  and  N_28
    5  A    between atoms: C_6  and  C_30
    6  A    between atoms: C_7  and  C_11
    7  A    between atoms: C_8  and  C_18
    8  A    between atoms: C_13  and  S_27
    9  A    between atoms: C_18  and  C_30
   10  A    between atoms: C_25  and  S_27
                            x       y       z     vdW  Elec       q    Type
                         _______ _______ _______ _____ _____    ______ ____

>  <TORSDO>
F 10

$$$$
