=
 OpenBabel10262420523D

 28 30  0  0  1  0  0  0  0  0999 V2000
  189.4970  176.2800  144.2100 C   0  0  1  0  0  3  0  0  0  0  0  0
  185.0750  178.9930  142.9220 C   0  0  0  0  0  3  0  0  0  0  0  0
  188.4450  178.6060  148.1470 O   0  0  0  0  0  1  0  0  0  0  0  0
  184.1960  178.5160  145.1400 C   0  0  0  0  0  0  0  0  0  0  0  0
  186.6970  178.3110  144.7010 C   0  0  2  0  0  3  0  0  0  0  0  0
  182.6950  179.1260  143.3340 C   0  0  0  0  0  0  0  0  0  0  0  0
  185.2970  178.6410  144.2590 C   0  0  0  0  0  0  0  0  0  0  0  0
  185.7590  177.6800  146.9530 C   0  0  0  0  0  2  0  0  0  0  0  0
  182.9040  178.7740  144.6710 C   0  0  0  0  0  3  0  0  0  0  0  0
  189.1560  177.7370  146.1120 C   0  0  0  0  0  0  0  0  0  0  0  0
  187.0420  176.8930  144.2320 C   0  0  0  0  0  2  0  0  0  0  0  0
  184.3780  178.2370  146.6100 C   0  0  0  0  0  2  0  0  0  0  0  0
  188.1980  178.2560  146.8250 C   0  0  0  0  0  0  0  0  0  0  0  0
  190.0190  177.1940  145.3010 C   0  0  0  0  0  0  0  0  0  0  0  0
  181.0720  179.4380  142.7570 Cl  0  0  0  0  0  0  0  0  0  0  0  0
  183.7790  179.2380  142.4620 C   0  0  0  0  0  3  0  0  0  0  0  0
  186.8300  178.4910  146.2340 C   0  0  1  0  0  3  0  0  0  0  0  0
  188.3320  176.8970  143.4180 C   0  0  0  0  0  2  0  0  0  0  0  0
  190.5900  175.7370  143.2800 C   0  0  1  0  0  3  0  0  0  0  0  0
  190.4970  174.3460  143.1970 O   0  0  0  0  0  1  0  0  0  0  0  0
  190.5210  176.3510  141.8840 C   0  0  0  0  0  2  0  0  0  0  0  0
  191.4750  178.4930  142.2940 O   0  0  0  0  0  1  0  0  0  0  0  0
  191.7030  177.2790  141.6400 C   0  0  2  0  0  3  0  0  0  0  0  0
  191.8870  177.5230  140.1450 C   0  0  2  0  0  3  0  0  0  0  0  0
  190.9290  176.6590  139.3440 C   0  0  0  0  0  1  0  0  0  0  0  0
  193.1950  177.2150  139.7690 O   0  0  0  0  0  1  0  0  0  0  0  0
  191.4700  177.5010  145.4900 C   0  0  0  0  0  2  0  0  0  0  0  0
  191.9750  176.7780  146.5710 O   0  0  0  0  0  1  0  0  0  0  0  0
  1 19  1  6  0  0  0
  1 14  1  0  0  0  0
  2  7  1  0  0  0  0
  4 12  1  0  0  0  0
  5 11  1  1  0  0  0
  5 17  1  0  0  0  0
  6  9  2  0  0  0  0
  7  5  1  0  0  0  0
  7  4  2  0  0  0  0
  9  4  1  0  0  0  0
 10 13  2  0  0  0  0
 12  8  1  0  0  0  0
 13  3  1  0  0  0  0
 14 27  1  0  0  0  0
 14 10  2  0  0  0  0
 15  6  1  0  0  0  0
 16  2  2  0  0  0  0
 16  6  1  0  0  0  0
 17 13  1  0  0  0  0
 17  8  1  1  0  0  0
 18  1  1  0  0  0  0
 18 11  1  0  0  0  0
 19 20  1  6  0  0  0
 21 19  1  0  0  0  0
 23 21  1  0  0  0  0
 23 22  1  1  0  0  0
 24 25  1  6  0  0  0
 24 23  1  0  0  0  0
 26 24  1  0  0  0  0
 27 28  1  0  0  0  0
M  END
>  <MODEL>
1

>  <REMARK>
 VINA RESULT:      -8.3      0.000      0.000
  Name = 
  5 active torsions:
  status: ('A' for Active; 'I' for Inactive)
    1  A    between atoms: C_1  and  C_2
    2  A    between atoms: C_2  and  C_3
    3  A    between atoms: C_3  and  C_11
    4  A    between atoms: C_6  and  C_11
    5  A    between atoms: C_19  and  C_21
                            x       y       z     vdW  Elec       q    Type
                         _______ _______ _______ _____ _____    ______ ____

>  <TORSDO>
F 5

$$$$
=
 OpenBabel10262420523D

 28 30  0  0  1  0  0  0  0  0999 V2000
  184.2760  179.3120  140.6490 C   0  0  1  0  0  3  0  0  0  0  0  0
  187.9560  176.7880  143.5930 C   0  0  0  0  0  3  0  0  0  0  0  0
  182.1060  178.5930  144.7460 O   0  0  0  0  0  1  0  0  0  0  0  0
  187.2290  178.0820  145.5210 C   0  0  0  0  0  0  0  0  0  0  0  0
  185.7010  177.8690  143.4940 C   0  0  2  0  0  3  0  0  0  0  0  0
  189.4240  177.0480  145.4980 C   0  0  0  0  0  0  0  0  0  0  0  0
  186.9730  177.5520  144.2330 C   0  0  0  0  0  0  0  0  0  0  0  0
  185.0200  179.3240  145.4340 C   0  0  0  0  0  2  0  0  0  0  0  0
  188.4500  177.8130  146.1470 C   0  0  0  0  0  3  0  0  0  0  0  0
  183.0510  178.6360  142.6230 C   0  0  0  0  0  0  0  0  0  0  0  0
  185.9780  178.9980  142.4950 C   0  0  0  0  0  2  0  0  0  0  0  0
  186.1770  178.8270  146.3010 C   0  0  0  0  0  2  0  0  0  0  0  0
  183.2100  178.4940  143.9080 C   0  0  0  0  0  0  0  0  0  0  0  0
  183.0310  178.7780  141.3290 C   0  0  0  0  0  0  0  0  0  0  0  0
  190.9510  176.7250  146.2890 Cl  0  0  0  0  0  0  0  0  0  0  0  0
  189.1760  176.5340  144.2240 C   0  0  0  0  0  3  0  0  0  0  0  0
  184.5700  178.2120  144.4960 C   0  0  1  0  0  3  0  0  0  0  0  0
  185.5570  178.5830  141.0880 C   0  0  0  0  0  2  0  0  0  0  0  0
  184.1640  179.3890  139.1200 C   0  0  1  0  0  3  0  0  0  0  0  0
  184.1640  180.7240  138.7100 O   0  0  0  0  0  1  0  0  0  0  0  0
  185.2820  178.6250  138.4170 C   0  0  0  0  0  2  0  0  0  0  0  0
  183.7950  176.7740  138.2440 O   0  0  0  0  0  1  0  0  0  0  0  0
  184.7140  177.5360  137.5180 C   0  0  2  0  0  3  0  0  0  0  0  0
  185.8330  176.6400  136.9970 C   0  0  2  0  0  3  0  0  0  0  0  0
  187.1790  177.1140  137.5170 C   0  0  0  0  0  1  0  0  0  0  0  0
  185.8550  176.6640  135.6020 O   0  0  0  0  0  1  0  0  0  0  0  0
  181.7860  178.4080  140.5880 C   0  0  0  0  0  2  0  0  0  0  0  0
  180.7820  179.3410  140.8440 O   0  0  0  0  0  1  0  0  0  0  0  0
  1 19  1  6  0  0  0
  1 18  1  0  0  0  0
  1 14  1  0  0  0  0
  2 16  2  0  0  0  0
  2  7  1  0  0  0  0
  4  9  1  0  0  0  0
  4 12  1  0  0  0  0
  5 11  1  6  0  0  0
  5  7  1  0  0  0  0
  5 17  1  0  0  0  0
  6  9  2  0  0  0  0
  6 15  1  0  0  0  0
  7  4  2  0  0  0  0
  8 12  1  0  0  0  0
 10 13  2  0  0  0  0
 13 17  1  0  0  0  0
 13  3  1  0  0  0  0
 14 10  2  0  0  0  0
 16  6  1  0  0  0  0
 17  8  1  6  0  0  0
 18 11  1  0  0  0  0
 19 20  1  1  0  0  0
 21 19  1  0  0  0  0
 23 22  1  1  0  0  0
 23 21  1  0  0  0  0
 24 25  1  1  0  0  0
 24 23  1  0  0  0  0
 26 24  1  0  0  0  0
 27 28  1  0  0  0  0
 27 14  1  0  0  0  0
M  END
>  <MODEL>
2

>  <REMARK>
 VINA RESULT:      -8.2      4.759      6.944
  Name = 
  5 active torsions:
  status: ('A' for Active; 'I' for Inactive)
    1  A    between atoms: C_1  and  C_2
    2  A    between atoms: C_2  and  C_3
    3  A    between atoms: C_3  and  C_11
    4  A    between atoms: C_6  and  C_11
    5  A    between atoms: C_19  and  C_21
                            x       y       z     vdW  Elec       q    Type
                         _______ _______ _______ _____ _____    ______ ____

>  <TORSDO>
F 5

$$$$
=
 OpenBabel10262420523D

 28 30  0  0  1  0  0  0  0  0999 V2000
  190.6850  176.5790  140.0100 C   0  0  1  0  0  3  0  0  0  0  0  0
  186.2740  178.8010  142.0540 C   0  0  0  0  0  3  0  0  0  0  0  0
  192.0780  178.1280  144.2140 O   0  0  0  0  0  1  0  0  0  0  0  0
  186.8770  177.8830  144.2250 C   0  0  0  0  0  0  0  0  0  0  0  0
  188.6500  178.1000  142.4080 C   0  0  2  0  0  3  0  0  0  0  0  0
  184.5860  178.5340  143.7660 C   0  0  0  0  0  0  0  0  0  0  0  0
  187.2480  178.2900  142.9210 C   0  0  0  0  0  0  0  0  0  0  0  0
  189.2300  177.0180  144.6080 C   0  0  0  0  0  2  0  0  0  0  0  0
  185.5490  178.0220  144.6400 C   0  0  0  0  0  3  0  0  0  0  0  0
  191.4840  177.6770  142.0130 C   0  0  0  0  0  0  0  0  0  0  0  0
  188.6940  176.8290  141.5510 C   0  0  0  0  0  2  0  0  0  0  0  0
  187.8940  177.4190  145.2350 C   0  0  0  0  0  2  0  0  0  0  0  0
  191.1120  177.9440  143.2320 C   0  0  0  0  0  0  0  0  0  0  0  0
  191.7220  177.3860  140.7660 C   0  0  0  0  0  0  0  0  0  0  0  0
  182.9250  178.6960  144.2950 Cl  0  0  0  0  0  0  0  0  0  0  0  0
  184.9480  178.9260  142.4760 C   0  0  0  0  0  3  0  0  0  0  0  0
  189.6520  178.0690  143.5890 C   0  0  1  0  0  3  0  0  0  0  0  0
  189.2610  177.1350  140.1680 C   0  0  0  0  0  2  0  0  0  0  0  0
  191.0400  176.3390  138.5360 C   0  0  1  0  0  3  0  0  0  0  0  0
  190.8390  174.9950  138.2110 O   0  0  0  0  0  1  0  0  0  0  0  0
  190.2370  177.2310  137.5940 C   0  0  0  0  0  2  0  0  0  0  0  0
  190.1500  176.8030  135.2540 O   0  0  0  0  0  1  0  0  0  0  0  0
  189.6020  176.4120  136.4790 C   0  0  2  0  0  3  0  0  0  0  0  0
  188.0910  176.6200  136.4600 C   0  0  2  0  0  3  0  0  0  0  0  0
  187.7490  178.0570  136.8160 C   0  0  0  0  0  1  0  0  0  0  0  0
  187.4800  175.7690  137.3820 O   0  0  0  0  0  1  0  0  0  0  0  0
  192.9980  177.8640  140.1510 C   0  0  0  0  0  2  0  0  0  0  0  0
  193.9510  176.8460  140.1770 O   0  0  0  0  0  1  0  0  0  0  0  0
  1 19  1  6  0  0  0
  1 18  1  0  0  0  0
  1 14  1  0  0  0  0
  2 16  2  0  0  0  0
  2  7  1  0  0  0  0
  4  9  1  0  0  0  0
  4 12  1  0  0  0  0
  5 11  1  1  0  0  0
  5  7  1  0  0  0  0
  5 17  1  0  0  0  0
  6 15  1  0  0  0  0
  6  9  2  0  0  0  0
  7  4  2  0  0  0  0
  8 12  1  0  0  0  0
 10 13  2  0  0  0  0
 13 17  1  0  0  0  0
 13  3  1  0  0  0  0
 14 10  2  0  0  0  0
 16  6  1  0  0  0  0
 17  8  1  1  0  0  0
 18 11  1  0  0  0  0
 19 20  1  6  0  0  0
 21 19  1  0  0  0  0
 23 22  1  6  0  0  0
 23 21  1  0  0  0  0
 24 23  1  0  0  0  0
 24 25  1  1  0  0  0
 24 26  1  0  0  0  0
 27 28  1  0  0  0  0
 27 14  1  0  0  0  0
M  END
>  <MODEL>
3

>  <REMARK>
 VINA RESULT:      -8.1      2.489      4.419
  Name = 
  5 active torsions:
  status: ('A' for Active; 'I' for Inactive)
    1  A    between atoms: C_1  and  C_2
    2  A    between atoms: C_2  and  C_3
    3  A    between atoms: C_3  and  C_11
    4  A    between atoms: C_6  and  C_11
    5  A    between atoms: C_19  and  C_21
                            x       y       z     vdW  Elec       q    Type
                         _______ _______ _______ _____ _____    ______ ____

>  <TORSDO>
F 5

$$$$
=
 OpenBabel10262420523D

 28 30  0  0  1  0  0  0  0  0999 V2000
  186.6310  178.6220  139.3240 C   0  0  1  0  0  3  0  0  0  0  0  0
  187.4220  177.1270  144.3960 C   0  0  0  0  0  3  0  0  0  0  0  0
  182.2890  178.3380  141.0800 O   0  0  0  0  0  1  0  0  0  0  0  0
  185.6260  178.6270  145.0660 C   0  0  0  0  0  0  0  0  0  0  0  0
  185.8070  177.8770  142.6380 C   0  0  2  0  0  3  0  0  0  0  0  0
  187.2760  177.8930  146.6860 C   0  0  0  0  0  0  0  0  0  0  0  0
  186.2720  177.8570  144.0680 C   0  0  0  0  0  0  0  0  0  0  0  0
  184.0410  179.5420  143.3120 C   0  0  0  0  0  2  0  0  0  0  0  0
  186.1290  178.6260  146.3710 C   0  0  0  0  0  3  0  0  0  0  0  0
  184.3990  178.1400  140.1250 C   0  0  0  0  0  0  0  0  0  0  0  0
  186.6920  178.8460  141.8440 C   0  0  0  0  0  2  0  0  0  0  0  0
  184.3330  179.3520  144.8000 C   0  0  0  0  0  2  0  0  0  0  0  0
  183.6700  178.2390  141.1990 C   0  0  0  0  0  0  0  0  0  0  0  0
  185.2380  178.0560  139.1330 C   0  0  0  0  0  0  0  0  0  0  0  0
  187.9000  177.9080  148.3210 Cl  0  0  0  0  0  0  0  0  0  0  0  0
  187.9200  177.1430  145.7010 C   0  0  0  0  0  3  0  0  0  0  0  0
  184.3020  178.2380  142.5690 C   0  0  1  0  0  3  0  0  0  0  0  0
  187.2940  178.1480  140.6290 C   0  0  0  0  0  2  0  0  0  0  0  0
  187.5540  178.4230  138.1150 C   0  0  1  0  0  3  0  0  0  0  0  0
  187.2640  179.3730  137.1340 O   0  0  0  0  0  1  0  0  0  0  0  0
  189.0300  178.4940  138.4940 C   0  0  0  0  0  2  0  0  0  0  0  0
  188.9440  176.5560  137.1140 O   0  0  0  0  0  1  0  0  0  0  0  0
  189.7920  177.2960  137.9420 C   0  0  2  0  0  3  0  0  0  0  0  0
  190.2980  176.4180  139.0820 C   0  0  2  0  0  3  0  0  0  0  0  0
  191.1400  177.2340  140.0480 C   0  0  0  0  0  1  0  0  0  0  0  0
  191.0770  175.3770  138.5740 O   0  0  0  0  0  1  0  0  0  0  0  0
  184.7820  177.4090  137.8640 C   0  0  0  0  0  2  0  0  0  0  0  0
  183.7730  176.4850  138.1340 O   0  0  0  0  0  1  0  0  0  0  0  0
  1 19  1  6  0  0  0
  1 18  1  0  0  0  0
  2 16  1  0  0  0  0
  3 13  1  0  0  0  0
  4  9  2  0  0  0  0
  5 11  1  6  0  0  0
  5  7  1  0  0  0  0
  6 15  1  0  0  0  0
  7  2  2  0  0  0  0
  7  4  1  0  0  0  0
  8 12  1  0  0  0  0
  9  6  1  0  0  0  0
 10 13  2  0  0  0  0
 12  4  1  0  0  0  0
 13 17  1  0  0  0  0
 14  1  1  0  0  0  0
 14 10  2  0  0  0  0
 16  6  2  0  0  0  0
 17  5  1  0  0  0  0
 17  8  1  6  0  0  0
 18 11  1  0  0  0  0
 19 20  1  6  0  0  0
 19 21  1  0  0  0  0
 23 22  1  6  0  0  0
 23 21  1  0  0  0  0
 23 24  1  0  0  0  0
 24 25  1  1  0  0  0
 26 24  1  0  0  0  0
 27 28  1  0  0  0  0
 27 14  1  0  0  0  0
M  END
>  <MODEL>
4

>  <REMARK>
 VINA RESULT:      -8.0      3.961      5.934
  Name = 
  5 active torsions:
  status: ('A' for Active; 'I' for Inactive)
    1  A    between atoms: C_1  and  C_2
    2  A    between atoms: C_2  and  C_3
    3  A    between atoms: C_3  and  C_11
    4  A    between atoms: C_6  and  C_11
    5  A    between atoms: C_19  and  C_21
                            x       y       z     vdW  Elec       q    Type
                         _______ _______ _______ _____ _____    ______ ____

>  <TORSDO>
F 5

$$$$
=
 OpenBabel10262420523D

 28 30  0  0  1  0  0  0  0  0999 V2000
  183.5150  177.9330  140.8270 C   0  0  1  0  0  3  0  0  0  0  0  0
  185.7200  179.0250  145.5730 C   0  0  0  0  0  3  0  0  0  0  0  0
  188.0540  178.5620  139.8160 O   0  0  0  0  0  1  0  0  0  0  0  0
  187.6460  177.6830  144.9320 C   0  0  0  0  0  0  0  0  0  0  0  0
  186.0600  178.5560  143.1390 C   0  0  2  0  0  3  0  0  0  0  0  0
  187.1980  178.1400  147.2720 C   0  0  0  0  0  0  0  0  0  0  0  0
  186.5050  178.4410  144.5720 C   0  0  0  0  0  0  0  0  0  0  0  0
  187.9740  177.0470  142.4990 C   0  0  0  0  0  2  0  0  0  0  0  0
  187.9890  177.5520  146.2810 C   0  0  0  0  0  3  0  0  0  0  0  0
  185.7730  178.5960  140.2610 C   0  0  0  0  0  0  0  0  0  0  0  0
  184.9300  177.5500  142.8900 C   0  0  0  0  0  2  0  0  0  0  0  0
  188.5840  177.1140  143.8990 C   0  0  0  0  0  2  0  0  0  0  0  0
  186.9920  178.5080  140.7100 C   0  0  0  0  0  0  0  0  0  0  0  0
  184.5120  178.6520  139.9400 C   0  0  0  0  0  0  0  0  0  0  0  0
  187.6340  177.9610  148.9580 Cl  0  0  0  0  0  0  0  0  0  0  0  0
  186.0670  178.8780  146.9180 C   0  0  0  0  0  3  0  0  0  0  0  0
  187.2660  178.3600  142.1860 C   0  0  1  0  0  3  0  0  0  0  0  0
  183.7030  178.2540  142.3200 C   0  0  0  0  0  2  0  0  0  0  0  0
  182.0550  178.1080  140.3890 C   0  0  1  0  0  3  0  0  0  0  0  0
  181.4610  176.8580  140.2020 O   0  0  0  0  0  1  0  0  0  0  0  0
  181.2440  178.9290  141.3880 C   0  0  0  0  0  2  0  0  0  0  0  0
  179.0390  178.9180  140.4900 O   0  0  0  0  0  1  0  0  0  0  0  0
  179.8270  178.3860  141.5140 C   0  0  2  0  0  3  0  0  0  0  0  0
  179.2350  178.7570  142.8700 C   0  0  2  0  0  3  0  0  0  0  0  0
  179.6640  180.1580  143.2710 C   0  0  0  0  0  1  0  0  0  0  0  0
  179.6680  177.8560  143.8440 O   0  0  0  0  0  1  0  0  0  0  0  0
  184.1190  179.4200  138.7180 C   0  0  0  0  0  2  0  0  0  0  0  0
  184.0640  180.7830  139.0070 O   0  0  0  0  0  1  0  0  0  0  0  0
  1 19  1  6  0  0  0
  1 18  1  0  0  0  0
  2 16  1  0  0  0  0
  3 13  1  0  0  0  0
  4  9  2  0  0  0  0
  5 11  1  6  0  0  0
  5  7  1  0  0  0  0
  6 15  1  0  0  0  0
  7  4  1  0  0  0  0
  7  2  2  0  0  0  0
  8 12  1  0  0  0  0
  9  6  1  0  0  0  0
 10 13  2  0  0  0  0
 12  4  1  0  0  0  0
 13 17  1  0  0  0  0
 14 10  2  0  0  0  0
 14  1  1  0  0  0  0
 16  6  2  0  0  0  0
 17  8  1  6  0  0  0
 17  5  1  0  0  0  0
 18 11  1  0  0  0  0
 19 20  1  1  0  0  0
 19 21  1  0  0  0  0
 21 23  1  0  0  0  0
 23 22  1  6  0  0  0
 23 24  1  0  0  0  0
 24 25  1  1  0  0  0
 24 26  1  0  0  0  0
 27 28  1  0  0  0  0
 27 14  1  0  0  0  0
M  END
>  <MODEL>
5

>  <REMARK>
 VINA RESULT:      -7.9      4.711      8.249
  Name = 
  5 active torsions:
  status: ('A' for Active; 'I' for Inactive)
    1  A    between atoms: C_1  and  C_2
    2  A    between atoms: C_2  and  C_3
    3  A    between atoms: C_3  and  C_11
    4  A    between atoms: C_6  and  C_11
    5  A    between atoms: C_19  and  C_21
                            x       y       z     vdW  Elec       q    Type
                         _______ _______ _______ _____ _____    ______ ____

>  <TORSDO>
F 5

$$$$
=
 OpenBabel10262420523D

 28 30  0  0  1  0  0  0  0  0999 V2000
  185.4090  177.9300  143.5760 C   0  0  1  0  0  3  0  0  0  0  0  0
  189.7770  177.8010  146.6560 C   0  0  0  0  0  3  0  0  0  0  0  0
  188.9390  178.1660  140.4940 O   0  0  0  0  0  1  0  0  0  0  0  0
  190.8440  176.3770  144.9960 C   0  0  0  0  0  0  0  0  0  0  0  0
  188.8130  177.7710  144.3460 C   0  0  2  0  0  3  0  0  0  0  0  0
  191.6680  176.4270  147.2780 C   0  0  0  0  0  0  0  0  0  0  0  0
  189.8520  177.3270  145.3400 C   0  0  0  0  0  0  0  0  0  0  0  0
  189.8370  176.1850  142.6770 C   0  0  0  0  0  2  0  0  0  0  0  0
  191.7530  175.9460  145.9680 C   0  0  0  0  0  3  0  0  0  0  0  0
  187.2060  178.4000  142.0250 C   0  0  0  0  0  0  0  0  0  0  0  0
  187.5220  176.9820  144.5950 C   0  0  0  0  0  2  0  0  0  0  0  0
  191.0390  175.9040  143.5790 C   0  0  0  0  0  2  0  0  0  0  0  0
  188.4450  178.0750  141.7890 C   0  0  0  0  0  0  0  0  0  0  0  0
  185.9870  178.6750  142.3890 C   0  0  0  0  0  0  0  0  0  0  0  0
  192.8060  175.8730  148.4870 Cl  0  0  0  0  0  0  0  0  0  0  0  0
  190.6830  177.3550  147.6210 C   0  0  0  0  0  3  0  0  0  0  0  0
  189.3520  177.6120  142.9020 C   0  0  1  0  0  3  0  0  0  0  0  0
  186.3450  177.9310  144.7960 C   0  0  0  0  0  2  0  0  0  0  0  0
  183.9870  178.3680  143.9520 C   0  0  1  0  0  3  0  0  0  0  0  0
  184.0100  179.6650  144.4700 O   0  0  0  0  0  1  0  0  0  0  0  0
  183.0260  178.2940  142.7690 C   0  0  0  0  0  2  0  0  0  0  0  0
  180.9770  178.3280  143.9820 O   0  0  0  0  0  1  0  0  0  0  0  0
  181.7410  179.0550  143.0650 C   0  0  2  0  0  3  0  0  0  0  0  0
  180.9430  179.2700  141.7820 C   0  0  2  0  0  3  0  0  0  0  0  0
  179.6560  178.4650  141.8160 C   0  0  0  0  0  1  0  0  0  0  0  0
  181.6970  178.8690  140.6780 O   0  0  0  0  0  1  0  0  0  0  0  0
  185.2260  179.7070  141.6180 C   0  0  0  0  0  2  0  0  0  0  0  0
  185.2330  179.3900  140.2600 O   0  0  0  0  0  1  0  0  0  0  0  0
  1 19  1  1  0  0  0
  1 18  1  0  0  0  0
  2 16  1  0  0  0  0
  3 13  1  0  0  0  0
  4  7  1  0  0  0  0
  4  9  2  0  0  0  0
  5 11  1  6  0  0  0
  5  7  1  0  0  0  0
  6 16  2  0  0  0  0
  6 15  1  0  0  0  0
  7  2  2  0  0  0  0
  8 12  1  0  0  0  0
  9  6  1  0  0  0  0
 10 14  2  0  0  0  0
 11 18  1  0  0  0  0
 12  4  1  0  0  0  0
 13 10  2  0  0  0  0
 13 17  1  0  0  0  0
 14  1  1  0  0  0  0
 17  8  1  6  0  0  0
 17  5  1  0  0  0  0
 19 20  1  6  0  0  0
 21 23  1  0  0  0  0
 21 19  1  0  0  0  0
 23 22  1  1  0  0  0
 24 25  1  1  0  0  0
 24 23  1  0  0  0  0
 26 24  1  0  0  0  0
 27 14  1  0  0  0  0
 28 27  1  0  0  0  0
M  END
>  <MODEL>
6

>  <REMARK>
 VINA RESULT:      -7.9      4.216      7.997
  Name = 
  5 active torsions:
  status: ('A' for Active; 'I' for Inactive)
    1  A    between atoms: C_1  and  C_2
    2  A    between atoms: C_2  and  C_3
    3  A    between atoms: C_3  and  C_11
    4  A    between atoms: C_6  and  C_11
    5  A    between atoms: C_19  and  C_21
                            x       y       z     vdW  Elec       q    Type
                         _______ _______ _______ _____ _____    ______ ____

>  <TORSDO>
F 5

$$$$
=
 OpenBabel10262420523D

 28 30  0  0  1  0  0  0  0  0999 V2000
  185.8970  178.6390  143.7960 C   0  0  1  0  0  3  0  0  0  0  0  0
  189.6320  176.5010  140.6240 C   0  0  0  0  0  3  0  0  0  0  0  0
  189.3860  177.5900  146.7520 O   0  0  0  0  0  1  0  0  0  0  0  0
  191.3300  177.6630  141.9230 C   0  0  0  0  0  0  0  0  0  0  0  0
  189.0050  177.3140  142.9060 C   0  0  2  0  0  3  0  0  0  0  0  0
  191.8230  176.8920  139.6760 C   0  0  0  0  0  0  0  0  0  0  0  0
  190.0210  177.1320  141.8110 C   0  0  0  0  0  0  0  0  0  0  0  0
  190.7240  178.6410  144.1830 C   0  0  0  0  0  2  0  0  0  0  0  0
  192.2230  177.5250  140.8560 C   0  0  0  0  0  3  0  0  0  0  0  0
  187.5390  177.7850  145.3550 C   0  0  0  0  0  0  0  0  0  0  0  0
  188.0890  178.4870  142.5410 C   0  0  0  0  0  2  0  0  0  0  0  0
  191.8390  178.2640  143.2070 C   0  0  0  0  0  2  0  0  0  0  0  0
  188.8270  177.6360  145.4810 C   0  0  0  0  0  0  0  0  0  0  0  0
  186.2740  177.9500  145.0920 C   0  0  0  0  0  0  0  0  0  0  0  0
  192.9490  176.7330  138.3460 Cl  0  0  0  0  0  0  0  0  0  0  0  0
  190.5300  176.3780  139.5610 C   0  0  0  0  0  3  0  0  0  0  0  0
  189.7150  177.5020  144.2700 C   0  0  1  0  0  3  0  0  0  0  0  0
  186.6260  178.0550  142.5740 C   0  0  0  0  0  2  0  0  0  0  0  0
  184.3830  178.7330  143.5610 C   0  0  1  0  0  3  0  0  0  0  0  0
  183.9810  180.0700  143.5810 O   0  0  0  0  0  1  0  0  0  0  0  0
  183.9580  178.0780  142.2490 C   0  0  0  0  0  2  0  0  0  0  0  0
  181.7870  178.4500  141.3470 O   0  0  0  0  0  1  0  0  0  0  0  0
  183.0640  179.0090  141.4420 C   0  0  2  0  0  3  0  0  0  0  0  0
  183.6410  179.2210  140.0460 C   0  0  2  0  0  3  0  0  0  0  0  0
  183.7030  177.9050  139.2910 C   0  0  0  0  0  1  0  0  0  0  0  0
  184.9300  179.7490  140.1370 O   0  0  0  0  0  1  0  0  0  0  0  0
  185.2680  177.4520  146.0800 C   0  0  0  0  0  2  0  0  0  0  0  0
  184.9120  178.4760  146.9570 O   0  0  0  0  0  1  0  0  0  0  0  0
  1 19  1  6  0  0  0
  1 14  1  0  0  0  0
  2  7  1  0  0  0  0
  4 12  1  0  0  0  0
  5 11  1  6  0  0  0
  5 17  1  0  0  0  0
  6  9  2  0  0  0  0
  7  4  2  0  0  0  0
  7  5  1  0  0  0  0
  9  4  1  0  0  0  0
 10 13  2  0  0  0  0
 11 18  1  0  0  0  0
 12  8  1  0  0  0  0
 13  3  1  0  0  0  0
 14 10  2  0  0  0  0
 14 27  1  0  0  0  0
 15  6  1  0  0  0  0
 16  6  1  0  0  0  0
 16  2  2  0  0  0  0
 17  8  1  6  0  0  0
 17 13  1  0  0  0  0
 18  1  1  0  0  0  0
 19 20  1  6  0  0  0
 21 19  1  0  0  0  0
 23 22  1  6  0  0  0
 23 21  1  0  0  0  0
 24 25  1  1  0  0  0
 24 26  1  0  0  0  0
 24 23  1  0  0  0  0
 27 28  1  0  0  0  0
M  END
>  <MODEL>
7

>  <REMARK>
 VINA RESULT:      -7.7      3.850      6.995
  Name = 
  5 active torsions:
  status: ('A' for Active; 'I' for Inactive)
    1  A    between atoms: C_1  and  C_2
    2  A    between atoms: C_2  and  C_3
    3  A    between atoms: C_3  and  C_11
    4  A    between atoms: C_6  and  C_11
    5  A    between atoms: C_19  and  C_21
                            x       y       z     vdW  Elec       q    Type
                         _______ _______ _______ _____ _____    ______ ____

>  <TORSDO>
F 5

$$$$
=
 OpenBabel10262420523D

 28 30  0  0  1  0  0  0  0  0999 V2000
  187.0450  178.5450  142.6610 C   0  0  1  0  0  3  0  0  0  0  0  0
  190.4990  175.9920  145.8450 C   0  0  0  0  0  3  0  0  0  0  0  0
  184.7890  178.3060  146.7680 O   0  0  0  0  0  1  0  0  0  0  0  0
  189.8520  177.4820  147.6570 C   0  0  0  0  0  0  0  0  0  0  0  0
  188.3310  177.2250  145.6290 C   0  0  2  0  0  3  0  0  0  0  0  0
  191.9630  176.2900  147.7460 C   0  0  0  0  0  0  0  0  0  0  0  0
  189.5690  176.8740  146.4100 C   0  0  0  0  0  0  0  0  0  0  0  0
  187.7420  178.8720  147.4420 C   0  0  0  0  0  2  0  0  0  0  0  0
  191.0440  177.1720  148.3200 C   0  0  0  0  0  3  0  0  0  0  0  0
  185.7540  178.1150  144.6630 C   0  0  0  0  0  0  0  0  0  0  0  0
  188.7010  178.2500  144.5510 C   0  0  0  0  0  2  0  0  0  0  0  0
  188.8510  178.3600  148.3620 C   0  0  0  0  0  2  0  0  0  0  0  0
  185.8900  178.0610  145.9570 C   0  0  0  0  0  0  0  0  0  0  0  0
  185.7570  178.1580  143.3610 C   0  0  0  0  0  0  0  0  0  0  0  0
  193.4550  175.9180  148.5830 Cl  0  0  0  0  0  0  0  0  0  0  0  0
  191.6900  175.6990  146.5120 C   0  0  0  0  0  3  0  0  0  0  0  0
  187.2200  177.7260  146.5850 C   0  0  1  0  0  3  0  0  0  0  0  0
  188.2640  177.7600  143.1740 C   0  0  0  0  0  2  0  0  0  0  0  0
  186.9530  178.5110  141.1300 C   0  0  1  0  0  3  0  0  0  0  0  0
  186.1060  179.5280  140.6820 O   0  0  0  0  0  1  0  0  0  0  0  0
  188.3200  178.6370  140.4640 C   0  0  0  0  0  2  0  0  0  0  0  0
  189.7340  176.8780  139.7080 O   0  0  0  0  0  1  0  0  0  0  0  0
  188.5290  177.5310  139.4380 C   0  0  2  0  0  3  0  0  0  0  0  0
  188.5590  178.1120  138.0280 C   0  0  2  0  0  3  0  0  0  0  0  0
  189.5530  177.3570  137.1630 C   0  0  0  0  0  1  0  0  0  0  0  0
  188.9310  179.4570  138.0740 O   0  0  0  0  0  1  0  0  0  0  0  0
  184.4950  177.8240  142.6320 C   0  0  0  0  0  2  0  0  0  0  0  0
  183.4540  178.6350  143.0830 O   0  0  0  0  0  1  0  0  0  0  0  0
  1 19  1  6  0  0  0
  1 18  1  0  0  0  0
  1 14  1  0  0  0  0
  2  7  2  0  0  0  0
  2 16  1  0  0  0  0
  4  9  2  0  0  0  0
  4 12  1  0  0  0  0
  5 11  1  6  0  0  0
  5  7  1  0  0  0  0
  5 17  1  0  0  0  0
  6  9  1  0  0  0  0
  6 15  1  0  0  0  0
  7  4  1  0  0  0  0
  8 12  1  0  0  0  0
 10 13  2  0  0  0  0
 13 17  1  0  0  0  0
 13  3  1  0  0  0  0
 14 10  2  0  0  0  0
 16  6  2  0  0  0  0
 17  8  1  6  0  0  0
 18 11  1  0  0  0  0
 19 20  1  6  0  0  0
 21 19  1  0  0  0  0
 23 22  1  1  0  0  0
 23 21  1  0  0  0  0
 24 25  1  6  0  0  0
 24 26  1  0  0  0  0
 24 23  1  0  0  0  0
 27 28  1  0  0  0  0
 27 14  1  0  0  0  0
M  END
>  <MODEL>
8

>  <REMARK>
 VINA RESULT:      -7.4      3.878      6.042
  Name = 
  5 active torsions:
  status: ('A' for Active; 'I' for Inactive)
    1  A    between atoms: C_1  and  C_2
    2  A    between atoms: C_2  and  C_3
    3  A    between atoms: C_3  and  C_11
    4  A    between atoms: C_6  and  C_11
    5  A    between atoms: C_19  and  C_21
                            x       y       z     vdW  Elec       q    Type
                         _______ _______ _______ _____ _____    ______ ____

>  <TORSDO>
F 5

$$$$
=
 OpenBabel10262420523D

 28 30  0  0  1  0  0  0  0  0999 V2000
  188.0860  176.9610  144.0960 C   0  0  1  0  0  3  0  0  0  0  0  0
  184.3870  179.2460  140.9850 C   0  0  0  0  0  3  0  0  0  0  0  0
  185.4250  179.3580  147.1260 O   0  0  0  0  0  1  0  0  0  0  0  0
  182.7300  178.7930  142.7080 C   0  0  0  0  0  0  0  0  0  0  0  0
  185.2070  178.7750  143.3020 C   0  0  2  0  0  3  0  0  0  0  0  0
  182.0360  179.2000  140.4190 C   0  0  0  0  0  0  0  0  0  0  0  0
  184.0810  178.9700  142.3230 C   0  0  0  0  0  0  0  0  0  0  0  0
  183.4920  178.1650  145.0440 C   0  0  0  0  0  2  0  0  0  0  0  0
  181.7180  178.9240  141.7520 C   0  0  0  0  0  3  0  0  0  0  0  0
  186.9340  178.4650  145.6020 C   0  0  0  0  0  0  0  0  0  0  0  0
  185.7930  177.3710  143.1090 C   0  0  0  0  0  2  0  0  0  0  0  0
  182.3300  178.5930  144.1470 C   0  0  0  0  0  2  0  0  0  0  0  0
  185.7430  178.9330  145.8430 C   0  0  0  0  0  0  0  0  0  0  0  0
  188.0770  177.9610  145.2360 C   0  0  0  0  0  0  0  0  0  0  0  0
  180.7600  179.3530  139.2300 Cl  0  0  0  0  0  0  0  0  0  0  0  0
  183.3690  179.3640  140.0370 C   0  0  0  0  0  3  0  0  0  0  0  0
  184.7110  179.0300  144.7470 C   0  0  1  0  0  3  0  0  0  0  0  0
  187.2970  177.4470  142.8690 C   0  0  0  0  0  2  0  0  0  0  0  0
  189.4880  176.4710  143.7110 C   0  0  1  0  0  3  0  0  0  0  0  0
  189.4010  175.2270  143.0820 O   0  0  0  0  0  1  0  0  0  0  0  0
  190.2230  177.4620  142.8130 C   0  0  0  0  0  2  0  0  0  0  0  0
  192.4200  177.0460  141.9960 O   0  0  0  0  0  1  0  0  0  0  0  0
  191.0750  176.7330  141.7820 C   0  0  2  0  0  3  0  0  0  0  0  0
  190.6660  177.1420  140.3700 C   0  0  2  0  0  3  0  0  0  0  0  0
  189.3440  177.8890  140.3950 C   0  0  0  0  0  1  0  0  0  0  0  0
  190.5300  176.0090  139.5660 O   0  0  0  0  0  1  0  0  0  0  0  0
  189.3140  178.3940  145.9570 C   0  0  0  0  0  2  0  0  0  0  0  0
  189.2140  178.0730  147.3110 O   0  0  0  0  0  1  0  0  0  0  0  0
  1 19  1  6  0  0  0
  1 14  1  0  0  0  0
  2  7  1  0  0  0  0
  4 12  1  0  0  0  0
  5 11  1  1  0  0  0
  5 17  1  0  0  0  0
  6  9  2  0  0  0  0
  7  4  2  0  0  0  0
  7  5  1  0  0  0  0
  9  4  1  0  0  0  0
 10 13  2  0  0  0  0
 12  8  1  0  0  0  0
 13  3  1  0  0  0  0
 14 10  2  0  0  0  0
 14 27  1  0  0  0  0
 15  6  1  0  0  0  0
 16  6  1  0  0  0  0
 16  2  2  0  0  0  0
 17  8  1  1  0  0  0
 17 13  1  0  0  0  0
 18 11  1  0  0  0  0
 18  1  1  0  0  0  0
 19 20  1  6  0  0  0
 21 19  1  0  0  0  0
 23 22  1  1  0  0  0
 23 21  1  0  0  0  0
 24 25  1  1  0  0  0
 24 23  1  0  0  0  0
 26 24  1  0  0  0  0
 27 28  1  0  0  0  0
M  END
>  <MODEL>
9

>  <REMARK>
 VINA RESULT:      -7.1      1.688      2.408
  Name = 
  5 active torsions:
  status: ('A' for Active; 'I' for Inactive)
    1  A    between atoms: C_1  and  C_2
    2  A    between atoms: C_2  and  C_3
    3  A    between atoms: C_3  and  C_11
    4  A    between atoms: C_6  and  C_11
    5  A    between atoms: C_19  and  C_21
                            x       y       z     vdW  Elec       q    Type
                         _______ _______ _______ _____ _____    ______ ____

>  <TORSDO>
F 5

$$$$
