=
 OpenBabel10262421053D

 32 35  0  0  1  0  0  0  0  0999 V2000
  190.5310  177.3640  141.0340 C   0  0  1  0  0  3  0  0  0  0  0  0
  188.7650  176.5320  139.2570 C   0  0  0  0  0  2  0  0  0  0  0  0
  192.0160  177.3220  141.3930 C   0  0  0  0  0  2  0  0  0  0  0  0
  190.1790  176.9940  139.5650 C   0  0  2  0  0  0  0  0  0  0  0  0
  189.7640  175.5350  136.8060 C   0  0  0  0  0  2  0  0  0  0  0  0
  188.7070  177.7930  136.5180 N   0  0  0  0  0  0  0  0  0  0  0  0
  191.3150  176.7150  138.5170 C   0  0  2  0  0  3  0  0  0  0  0  0
  189.6150  176.7890  135.9430 C   0  0  0  0  0  2  0  0  0  0  0  0
  191.0850  175.4920  137.5880 C   0  0  2  0  0  3  0  0  0  0  0  0
  192.7100  176.6610  139.1490 C   0  0  0  0  0  2  0  0  0  0  0  0
  189.1150  177.9980  139.0760 C   0  0  1  0  0  3  0  0  0  0  0  0
  192.8810  177.7180  140.2170 C   0  0  0  0  0  2  0  0  0  0  0  0
  189.3630  178.5060  137.6300 C   0  0  0  0  0  2  0  0  0  0  0  0
  192.9240  174.0100  136.9290 N   0  0  0  0  0  2  0  0  0  0  0  0
  192.0050  174.0940  135.7880 C   0  0  0  0  0  2  0  0  0  0  0  0
  192.2450  175.2760  136.6130 C   0  0  1  0  0  3  0  0  0  0  0  0
  186.4220  178.4680  137.1480 C   0  0  0  0  0  1  0  0  0  0  0  0
  187.3400  177.3060  136.7880 C   0  0  1  0  0  3  0  0  0  0  0  0
  186.0780  175.3070  135.9810 C   0  0  0  0  0  1  0  0  0  0  0  0
  186.7620  176.5970  135.5670 C   0  0  0  0  0  2  0  0  0  0  0  0
  190.5550  175.6830  142.8710 C   0  0  0  0  0  1  0  0  0  0  0  0
  189.6870  176.7060  142.1460 C   0  0  1  0  0  3  0  0  0  0  0  0
  189.0680  177.6790  143.0790 N   0  0  0  0  0  0  0  0  0  0  0  0
  189.1950  177.9420  145.5330 C   0  0  0  0  0  1  0  0  0  0  0  0
  189.9460  178.0120  144.2170 C   0  0  2  0  0  3  0  0  0  0  0  0
  190.5690  179.2570  144.0640 O   0  0  0  0  0  1  0  0  0  0  0  0
  187.8650  177.0800  143.6580 C   0  0  0  0  0  2  0  0  0  0  0  0
  186.5960  177.6660  143.0350 C   0  0  1  0  0  3  0  0  0  0  0  0
  185.6750  178.2910  144.0740 C   0  0  0  0  0  2  0  0  0  0  0  0
  185.8490  177.6690  145.2950 F   0  0  0  0  0  0  0  0  0  0  0  0
  185.4740  178.9380  140.9680 S   0  0  0  0  0  1  0  0  0  0  0  0
  186.9130  178.6000  141.9530 N   0  0  0  0  0  2  0  0  0  0  0  0
  1  3  1  0  0  0  0
  1 22  1  1  0  0  0
  4  2  1  1  0  0  0
  4  1  1  0  0  0  0
  6 18  1  0  0  0  0
  6 13  1  0  0  0  0
  7 10  1  1  0  0  0
  7  4  1  0  0  0  0
  8  6  1  0  0  0  0
  8  5  1  0  0  0  0
  9  5  1  6  0  0  0
  9  7  1  0  0  0  0
 10 12  1  0  0  0  0
 11 13  1  6  0  0  0
 11  2  1  0  0  0  0
 11  4  1  0  0  0  0
 12  3  1  0  0  0  0
 15 14  1  0  0  0  0
 16 15  1  6  0  0  0
 16 14  1  0  0  0  0
 16  9  1  0  0  0  0
 18 17  1  6  0  0  0
 20 19  1  0  0  0  0
 20 18  1  0  0  0  0
 22 21  1  1  0  0  0
 22 23  1  0  0  0  0
 23 27  1  0  0  0  0
 23 25  1  0  0  0  0
 25 24  1  1  0  0  0
 26 25  1  0  0  0  0
 28 27  1  1  0  0  0
 28 29  1  0  0  0  0
 29 30  1  0  0  0  0
 31 32  1  0  0  0  0
 32 28  1  0  0  0  0
M  END
>  <MODEL>
1

>  <REMARK>
 VINA RESULT:      -6.0      0.000      0.000
  Name = 
  10 active torsions:
  status: ('A' for Active; 'I' for Inactive)
    1  A    between atoms: C_1  and  C_27
    2  A    between atoms: C_3  and  C_7
    3  A    between atoms: C_7  and  C_20
    4  A    between atoms: C_7  and  N_26
    5  A    between atoms: N_10  and  C_12
    6  A    between atoms: C_12  and  C_31
    7  A    between atoms: N_16  and  C_20
    8  A    between atoms: N_16  and  C_22
    9  A    between atoms: N_16  and  C_27
   10  A    between atoms: C_18  and  C_29
                            x       y       z     vdW  Elec       q    Type
                         _______ _______ _______ _____ _____    ______ ____

>  <TORSDO>
F 10

$$$$
=
 OpenBabel10262421053D

 32 35  0  0  1  0  0  0  0  0999 V2000
  190.4880  176.8020  142.1760 C   0  0  1  0  0  3  0  0  0  0  0  0
  188.5540  178.3930  143.0140 C   0  0  0  0  0  2  0  0  0  0  0  0
  191.6820  175.9770  142.6510 C   0  0  0  0  0  2  0  0  0  0  0  0
  189.4620  177.2030  143.2750 C   0  0  2  0  0  0  0  0  0  0  0  0
  188.0110  178.4230  145.7890 C   0  0  0  0  0  2  0  0  0  0  0  0
  186.2130  177.2240  144.5120 N   0  0  0  0  0  0  0  0  0  0  0  0
  189.6200  176.6770  144.7460 C   0  0  2  0  0  3  0  0  0  0  0  0
  186.8350  177.4460  145.8270 C   0  0  0  0  0  2  0  0  0  0  0  0
  189.3780  177.7260  145.8640 C   0  0  2  0  0  3  0  0  0  0  0  0
  190.9400  175.9340  144.9750 C   0  0  0  0  0  2  0  0  0  0  0  0
  188.0490  176.9990  142.6890 C   0  0  1  0  0  3  0  0  0  0  0  0
  191.3040  175.0610  143.7940 C   0  0  0  0  0  2  0  0  0  0  0  0
  187.0570  176.3420  143.6850 C   0  0  0  0  0  2  0  0  0  0  0  0
  190.7010  177.8100  147.9270 N   0  0  0  0  0  2  0  0  0  0  0  0
  189.3200  178.1560  148.2840 C   0  0  0  0  0  2  0  0  0  0  0  0
  189.5710  177.1390  147.2640 C   0  0  1  0  0  3  0  0  0  0  0  0
  184.8480  178.0890  142.6520 C   0  0  0  0  0  1  0  0  0  0  0  0
  185.7210  178.4470  143.8480 C   0  0  1  0  0  3  0  0  0  0  0  0
  183.4300  178.9110  144.7270 C   0  0  0  0  0  1  0  0  0  0  0  0
  184.8960  179.2960  144.8090 C   0  0  0  0  0  2  0  0  0  0  0  0
  192.4640  178.0300  141.2900 C   0  0  0  0  0  1  0  0  0  0  0  0
  190.9460  177.9100  141.2050 C   0  0  1  0  0  3  0  0  0  0  0  0
  190.4760  177.7140  139.8120 N   0  0  0  0  0  0  0  0  0  0  0  0
  188.1380  177.2210  139.1810 C   0  0  0  0  0  1  0  0  0  0  0  0
  189.1390  178.2910  139.5770 C   0  0  2  0  0  3  0  0  0  0  0  0
  189.1600  179.3270  138.6350 O   0  0  0  0  0  1  0  0  0  0  0  0
  190.3510  176.2810  139.5510 C   0  0  0  0  0  2  0  0  0  0  0  0
  190.9040  175.9150  138.1720 C   0  0  1  0  0  3  0  0  0  0  0  0
  192.2210  176.6180  137.8700 C   0  0  0  0  0  2  0  0  0  0  0  0
  193.2260  176.0990  138.6640 F   0  0  0  0  0  0  0  0  0  0  0  0
  190.0380  173.9170  136.6210 S   0  0  0  0  0  1  0  0  0  0  0  0
  191.0080  174.4640  138.0030 N   0  0  0  0  0  2  0  0  0  0  0  0
  1 22  1  1  0  0  0
  1  3  1  0  0  0  0
  1  4  1  0  0  0  0
  3 12  1  0  0  0  0
  4  2  1  1  0  0  0
  4  7  1  0  0  0  0
  5  8  1  0  0  0  0
  6  8  1  0  0  0  0
  7 10  1  6  0  0  0
  7  9  1  0  0  0  0
  9  5  1  1  0  0  0
  9 16  1  0  0  0  0
 11  2  1  1  0  0  0
 11  4  1  0  0  0  0
 11 13  1  0  0  0  0
 12 10  1  0  0  0  0
 13  6  1  0  0  0  0
 14 15  1  0  0  0  0
 16 14  1  0  0  0  0
 16 15  1  1  0  0  0
 18 17  1  6  0  0  0
 18  6  1  0  0  0  0
 18 20  1  0  0  0  0
 19 20  1  0  0  0  0
 22 21  1  6  0  0  0
 23 22  1  0  0  0  0
 25 24  1  6  0  0  0
 25 23  1  0  0  0  0
 26 25  1  0  0  0  0
 27 23  1  0  0  0  0
 28 29  1  1  0  0  0
 28 27  1  0  0  0  0
 29 30  1  0  0  0  0
 31 32  1  0  0  0  0
 32 28  1  0  0  0  0
M  END
>  <MODEL>
2

>  <REMARK>
 VINA RESULT:      -5.1      3.197      7.419
  Name = 
  10 active torsions:
  status: ('A' for Active; 'I' for Inactive)
    1  A    between atoms: C_1  and  C_27
    2  A    between atoms: C_3  and  C_7
    3  A    between atoms: C_7  and  C_20
    4  A    between atoms: C_7  and  N_26
    5  A    between atoms: N_10  and  C_12
    6  A    between atoms: C_12  and  C_31
    7  A    between atoms: N_16  and  C_20
    8  A    between atoms: N_16  and  C_22
    9  A    between atoms: N_16  and  C_27
   10  A    between atoms: C_18  and  C_29
                            x       y       z     vdW  Elec       q    Type
                         _______ _______ _______ _____ _____    ______ ____

>  <TORSDO>
F 10

$$$$
=
 OpenBabel10262421053D

 32 35  0  0  1  0  0  0  0  0999 V2000
  183.3680  178.4380  143.0860 C   0  0  1  0  0  3  0  0  0  0  0  0
  183.9950  178.5570  140.5230 C   0  0  0  0  0  2  0  0  0  0  0  0
  182.3330  178.8950  144.1120 C   0  0  0  0  0  2  0  0  0  0  0  0
  182.9210  178.5060  141.5970 C   0  0  2  0  0  0  0  0  0  0  0  0
  181.9830  179.4290  138.7370 C   0  0  0  0  0  2  0  0  0  0  0  0
  182.3930  176.9620  138.5270 N   0  0  0  0  0  0  0  0  0  0  0  0
  181.4510  178.9140  141.2220 C   0  0  2  0  0  3  0  0  0  0  0  0
  181.4680  178.0730  138.2540 C   0  0  0  0  0  2  0  0  0  0  0  0
  181.3120  179.9040  140.0350 C   0  0  2  0  0  3  0  0  0  0  0  0
  180.6400  179.3970  142.4290 C   0  0  0  0  0  2  0  0  0  0  0  0
  183.4030  177.2130  140.9080 C   0  0  1  0  0  3  0  0  0  0  0  0
  180.9260  178.5700  143.6630 C   0  0  0  0  0  2  0  0  0  0  0  0
  182.3480  176.5910  139.9550 C   0  0  0  0  0  2  0  0  0  0  0  0
  179.6340  181.6920  140.0360 N   0  0  0  0  0  2  0  0  0  0  0  0
  179.7720  181.2280  138.6500 C   0  0  0  0  0  2  0  0  0  0  0  0
  179.8530  180.2660  139.7470 C   0  0  1  0  0  3  0  0  0  0  0  0
  184.4250  175.7740  137.7990 C   0  0  0  0  0  1  0  0  0  0  0  0
  183.7420  177.1270  137.9510 C   0  0  1  0  0  3  0  0  0  0  0  0
  184.2230  176.8550  135.5160 C   0  0  0  0  0  1  0  0  0  0  0  0
  183.6730  177.7880  136.5780 C   0  0  0  0  0  2  0  0  0  0  0  0
  184.5850  180.4420  143.9240 C   0  0  0  0  0  1  0  0  0  0  0  0
  184.7590  179.0100  143.4280 C   0  0  1  0  0  3  0  0  0  0  0  0
  185.5300  178.1760  144.3830 N   0  0  0  0  0  0  0  0  0  0  0  0
  186.7270  178.3360  146.5390 C   0  0  0  0  0  1  0  0  0  0  0  0
  185.4730  178.6930  145.7630 C   0  0  2  0  0  3  0  0  0  0  0  0
  184.3260  178.2700  146.4460 O   0  0  0  0  0  1  0  0  0  0  0  0
  186.9410  178.1980  144.0000 C   0  0  0  0  0  2  0  0  0  0  0  0
  187.2160  177.2520  142.8290 C   0  0  1  0  0  3  0  0  0  0  0  0
  187.9420  177.9420  141.6830 C   0  0  0  0  0  2  0  0  0  0  0  0
  187.2430  179.0670  141.2910 F   0  0  0  0  0  0  0  0  0  0  0  0
  189.6490  176.1460  142.8980 S   0  0  0  0  0  1  0  0  0  0  0  0
  187.9160  176.0440  143.2700 N   0  0  0  0  0  2  0  0  0  0  0  0
  1 22  1  6  0  0  0
  1  3  1  0  0  0  0
  2 11  1  0  0  0  0
  4  2  1  6  0  0  0
  4  1  1  0  0  0  0
  6 13  1  0  0  0  0
  7  4  1  0  0  0  0
  7 10  1  1  0  0  0
  8  6  1  0  0  0  0
  8  5  1  0  0  0  0
  9  5  1  6  0  0  0
  9  7  1  0  0  0  0
 10 12  1  0  0  0  0
 11 13  1  6  0  0  0
 11  4  1  0  0  0  0
 12  3  1  0  0  0  0
 15 14  1  0  0  0  0
 16 15  1  6  0  0  0
 16  9  1  0  0  0  0
 16 14  1  0  0  0  0
 18 17  1  6  0  0  0
 18  6  1  0  0  0  0
 19 20  1  0  0  0  0
 20 18  1  0  0  0  0
 22 21  1  1  0  0  0
 22 23  1  0  0  0  0
 23 25  1  0  0  0  0
 25 26  1  0  0  0  0
 25 24  1  1  0  0  0
 27 23  1  0  0  0  0
 28 29  1  6  0  0  0
 28 32  1  0  0  0  0
 28 27  1  0  0  0  0
 30 29  1  0  0  0  0
 31 32  1  0  0  0  0
M  END
>  <MODEL>
3

>  <REMARK>
 VINA RESULT:      -5.1      4.502      7.963
  Name = 
  10 active torsions:
  status: ('A' for Active; 'I' for Inactive)
    1  A    between atoms: C_1  and  C_27
    2  A    between atoms: C_3  and  C_7
    3  A    between atoms: C_7  and  C_20
    4  A    between atoms: C_7  and  N_26
    5  A    between atoms: N_10  and  C_12
    6  A    between atoms: C_12  and  C_31
    7  A    between atoms: N_16  and  C_20
    8  A    between atoms: N_16  and  C_22
    9  A    between atoms: N_16  and  C_27
   10  A    between atoms: C_18  and  C_29
                            x       y       z     vdW  Elec       q    Type
                         _______ _______ _______ _____ _____    ______ ____

>  <TORSDO>
F 10

$$$$
=
 OpenBabel10262421053D

 32 35  0  0  1  0  0  0  0  0999 V2000
  184.3550  177.3330  137.6220 C   0  0  1  0  0  3  0  0  0  0  0  0
  186.7940  176.3770  137.2900 C   0  0  0  0  0  2  0  0  0  0  0  0
  183.4560  178.0700  138.6130 C   0  0  0  0  0  2  0  0  0  0  0  0
  185.8840  177.4380  137.8870 C   0  0  2  0  0  0  0  0  0  0  0  0
  188.7870  177.2580  139.0930 C   0  0  0  0  0  2  0  0  0  0  0  0
  189.0840  178.2820  136.8210 N   0  0  0  0  0  0  0  0  0  0  0  0
  186.4340  178.3480  139.0420 C   0  0  2  0  0  3  0  0  0  0  0  0
  189.4160  178.3690  138.2520 C   0  0  0  0  0  2  0  0  0  0  0  0
  187.5690  177.7290  139.9020 C   0  0  2  0  0  3  0  0  0  0  0  0
  185.3260  178.9150  139.9350 C   0  0  0  0  0  2  0  0  0  0  0  0
  186.5760  177.6720  136.5270 C   0  0  1  0  0  3  0  0  0  0  0  0
  184.1150  179.3300  139.1280 C   0  0  0  0  0  2  0  0  0  0  0  0
  187.7020  178.7390  136.5830 C   0  0  0  0  0  2  0  0  0  0  0  0
  187.6700  178.0990  142.3240 N   0  0  0  0  0  2  0  0  0  0  0  0
  189.0530  178.0210  141.8400 C   0  0  0  0  0  2  0  0  0  0  0  0
  188.0340  178.6690  141.0170 C   0  0  1  0  0  3  0  0  0  0  0  0
  189.5440  177.1790  134.6660 C   0  0  0  0  0  1  0  0  0  0  0  0
  189.4570  177.0070  136.1780 C   0  0  1  0  0  3  0  0  0  0  0  0
  190.7620  175.0190  136.9400 C   0  0  0  0  0  1  0  0  0  0  0  0
  190.8080  176.5140  136.6850 C   0  0  0  0  0  2  0  0  0  0  0  0
  182.6070  175.6730  138.2440 C   0  0  0  0  0  1  0  0  0  0  0  0
  183.7900  175.9300  137.3170 C   0  0  1  0  0  3  0  0  0  0  0  0
  183.4390  175.7250  135.8900 N   0  0  0  0  0  0  0  0  0  0  0  0
  181.2940  175.2980  134.7390 C   0  0  0  0  0  1  0  0  0  0  0  0
  182.1190  176.2850  135.5430 C   0  0  2  0  0  3  0  0  0  0  0  0
  182.2180  177.5130  134.8760 O   0  0  0  0  0  1  0  0  0  0  0  0
  183.3510  174.2890  135.6250 C   0  0  0  0  0  2  0  0  0  0  0  0
  184.6470  173.5710  136.0100 C   0  0  1  0  0  3  0  0  0  0  0  0
  184.4240  172.5010  137.0700 C   0  0  0  0  0  2  0  0  0  0  0  0
  185.0940  172.8390  138.2300 F   0  0  0  0  0  0  0  0  0  0  0  0
  187.0430  173.5210  134.8240 S   0  0  0  0  0  1  0  0  0  0  0  0
  185.3340  173.0380  134.8320 N   0  0  0  0  0  2  0  0  0  0  0  0
  1 22  1  1  0  0  0
  1  4  1  0  0  0  0
  1  3  1  0  0  0  0
  3 12  1  0  0  0  0
  4  2  1  1  0  0  0
  4  7  1  0  0  0  0
  6  8  1  0  0  0  0
  7  9  1  0  0  0  0
  7 10  1  1  0  0  0
  8  5  1  0  0  0  0
  9  5  1  6  0  0  0
  9 16  1  0  0  0  0
 11 13  1  1  0  0  0
 11  2  1  0  0  0  0
 11  4  1  0  0  0  0
 12 10  1  0  0  0  0
 13  6  1  0  0  0  0
 15 14  1  0  0  0  0
 16 15  1  1  0  0  0
 16 14  1  0  0  0  0
 18 17  1  6  0  0  0
 18 20  1  0  0  0  0
 18  6  1  0  0  0  0
 20 19  1  0  0  0  0
 22 21  1  1  0  0  0
 23 22  1  0  0  0  0
 25 24  1  6  0  0  0
 25 23  1  0  0  0  0
 26 25  1  0  0  0  0
 27 23  1  0  0  0  0
 28 27  1  6  0  0  0
 28 29  1  0  0  0  0
 29 30  1  0  0  0  0
 31 32  1  0  0  0  0
 32 28  1  0  0  0  0
M  END
>  <MODEL>
4

>  <REMARK>
 VINA RESULT:      -4.5      4.049      7.539
  Name = 
  10 active torsions:
  status: ('A' for Active; 'I' for Inactive)
    1  A    between atoms: C_1  and  C_27
    2  A    between atoms: C_3  and  C_7
    3  A    between atoms: C_7  and  C_20
    4  A    between atoms: C_7  and  N_26
    5  A    between atoms: N_10  and  C_12
    6  A    between atoms: C_12  and  C_31
    7  A    between atoms: N_16  and  C_20
    8  A    between atoms: N_16  and  C_22
    9  A    between atoms: N_16  and  C_27
   10  A    between atoms: C_18  and  C_29
                            x       y       z     vdW  Elec       q    Type
                         _______ _______ _______ _____ _____    ______ ____

>  <TORSDO>
F 10

$$$$
=
 OpenBabel10262421053D

 32 35  0  0  1  0  0  0  0  0999 V2000
  184.9570  177.2530  136.8920 C   0  0  1  0  0  3  0  0  0  0  0  0
  183.4310  176.9960  139.0320 C   0  0  0  0  0  2  0  0  0  0  0  0
  185.2270  176.6680  135.5070 C   0  0  0  0  0  2  0  0  0  0  0  0
  183.5810  176.8910  137.5240 C   0  0  2  0  0  0  0  0  0  0  0  0
  181.0980  175.4170  138.7770 C   0  0  0  0  0  2  0  0  0  0  0  0
  180.5450  177.8620  138.9110 N   0  0  0  0  0  0  0  0  0  0  0  0
  182.5200  176.0700  136.7090 C   0  0  2  0  0  3  0  0  0  0  0  0
  180.0700  176.5220  138.5300 C   0  0  0  0  0  2  0  0  0  0  0  0
  181.7970  174.9420  137.4940 C   0  0  2  0  0  3  0  0  0  0  0  0
  183.0670  175.5390  135.3800 C   0  0  0  0  0  2  0  0  0  0  0  0
  183.0150  178.1730  138.1690 C   0  0  1  0  0  3  0  0  0  0  0  0
  183.9560  176.5550  134.6960 C   0  0  0  0  0  2  0  0  0  0  0  0
  181.4980  178.3760  137.9100 C   0  0  0  0  0  2  0  0  0  0  0  0
  181.2430  172.7840  136.4700 N   0  0  0  0  0  2  0  0  0  0  0  0
  180.1550  173.1150  137.3980 C   0  0  0  0  0  2  0  0  0  0  0  0
  180.7950  174.1780  136.6260 C   0  0  1  0  0  3  0  0  0  0  0  0
  181.1340  179.4560  140.6950 C   0  0  0  0  0  1  0  0  0  0  0  0
  180.9650  177.9880  140.3200 C   0  0  1  0  0  3  0  0  0  0  0  0
  179.7090  178.2640  142.4610 C   0  0  0  0  0  1  0  0  0  0  0  0
  179.9330  177.3680  141.2570 C   0  0  0  0  0  2  0  0  0  0  0  0
  187.1480  176.1010  137.1550 C   0  0  0  0  0  1  0  0  0  0  0  0
  186.2010  177.1120  137.7930 C   0  0  1  0  0  3  0  0  0  0  0  0
  186.8740  178.4010  138.0870 N   0  0  0  0  0  0  0  0  0  0  0  0
  189.1300  179.0020  137.2750 C   0  0  0  0  0  1  0  0  0  0  0  0
  187.6530  178.9100  136.9410 C   0  0  2  0  0  3  0  0  0  0  0  0
  187.1710  180.1370  136.4690 O   0  0  0  0  0  1  0  0  0  0  0  0
  187.8350  178.1980  139.1710 C   0  0  0  0  0  2  0  0  0  0  0  0
  187.1530  178.2660  140.5390 C   0  0  1  0  0  3  0  0  0  0  0  0
  188.1300  178.5980  141.6590 C   0  0  0  0  0  2  0  0  0  0  0  0
  188.5260  177.4400  142.2990 F   0  0  0  0  0  0  0  0  0  0  0  0
  185.0080  178.9670  141.9740 S   0  0  0  0  0  1  0  0  0  0  0  0
  186.0090  179.1810  140.5230 N   0  0  0  0  0  2  0  0  0  0  0  0
  1  4  1  0  0  0  0
  1 22  1  1  0  0  0
  3  1  1  0  0  0  0
  4 11  1  0  0  0  0
  4  2  1  1  0  0  0
  6 18  1  0  0  0  0
  7 10  1  6  0  0  0
  7  9  1  0  0  0  0
  7  4  1  0  0  0  0
  8  5  1  0  0  0  0
  8  6  1  0  0  0  0
  9  5  1  1  0  0  0
 11 13  1  6  0  0  0
 11  2  1  0  0  0  0
 12 10  1  0  0  0  0
 12  3  1  0  0  0  0
 13  6  1  0  0  0  0
 14 16  1  0  0  0  0
 14 15  1  0  0  0  0
 16 15  1  1  0  0  0
 16  9  1  0  0  0  0
 18 17  1  1  0  0  0
 18 20  1  0  0  0  0
 20 19  1  0  0  0  0
 22 21  1  6  0  0  0
 22 23  1  0  0  0  0
 23 27  1  0  0  0  0
 25 24  1  1  0  0  0
 25 23  1  0  0  0  0
 26 25  1  0  0  0  0
 28 27  1  6  0  0  0
 28 29  1  0  0  0  0
 29 30  1  0  0  0  0
 32 28  1  0  0  0  0
 32 31  1  0  0  0  0
M  END
>  <MODEL>
5

>  <REMARK>
 VINA RESULT:      -4.4      4.560      7.882
  Name = 
  10 active torsions:
  status: ('A' for Active; 'I' for Inactive)
    1  A    between atoms: C_1  and  C_27
    2  A    between atoms: C_3  and  C_7
    3  A    between atoms: C_7  and  C_20
    4  A    between atoms: C_7  and  N_26
    5  A    between atoms: N_10  and  C_12
    6  A    between atoms: C_12  and  C_31
    7  A    between atoms: N_16  and  C_20
    8  A    between atoms: N_16  and  C_22
    9  A    between atoms: N_16  and  C_27
   10  A    between atoms: C_18  and  C_29
                            x       y       z     vdW  Elec       q    Type
                         _______ _______ _______ _____ _____    ______ ____

>  <TORSDO>
F 10

$$$$
=
 OpenBabel10262421053D

 32 35  0  0  1  0  0  0  0  0999 V2000
  190.3910  176.9890  138.7800 C   0  0  1  0  0  3  0  0  0  0  0  0
  189.8830  176.2580  141.2660 C   0  0  0  0  0  2  0  0  0  0  0  0
  189.7990  177.7220  137.5780 C   0  0  0  0  0  2  0  0  0  0  0  0
  189.7080  177.2730  140.1490 C   0  0  2  0  0  0  0  0  0  0  0  0
  187.6990  177.5030  142.5620 C   0  0  0  0  0  2  0  0  0  0  0  0
  189.8940  178.3310  143.4560 N   0  0  0  0  0  0  0  0  0  0  0  0
  188.5620  178.3400  140.2650 C   0  0  2  0  0  3  0  0  0  0  0  0
  188.4500  178.5870  143.3380 C   0  0  0  0  0  2  0  0  0  0  0  0
  187.3410  177.9230  141.1290 C   0  0  2  0  0  3  0  0  0  0  0  0
  188.1050  178.8740  138.9030 C   0  0  0  0  0  2  0  0  0  0  0  0
  190.8260  177.4450  141.1990 C   0  0  1  0  0  3  0  0  0  0  0  0
  189.2720  179.0860  137.9650 C   0  0  0  0  0  2  0  0  0  0  0  0
  190.5760  178.6210  142.1800 C   0  0  0  0  0  2  0  0  0  0  0  0
  185.0420  178.5140  140.5140 N   0  0  0  0  0  2  0  0  0  0  0  0
  185.1260  178.5640  141.9780 C   0  0  0  0  0  2  0  0  0  0  0  0
  186.2620  179.0070  141.1730 C   0  0  1  0  0  3  0  0  0  0  0  0
  191.6810  177.0710  144.5920 C   0  0  0  0  0  1  0  0  0  0  0  0
  190.2420  177.0440  144.0900 C   0  0  1  0  0  3  0  0  0  0  0  0
  189.9090  177.3320  146.5490 C   0  0  0  0  0  1  0  0  0  0  0  0
  189.3250  176.7520  145.2740 C   0  0  0  0  0  2  0  0  0  0  0  0
  189.7720  175.1110  137.2680 C   0  0  0  0  0  1  0  0  0  0  0  0
  190.6740  175.5140  138.4300 C   0  0  1  0  0  3  0  0  0  0  0  0
  192.1040  175.2300  138.1530 N   0  0  0  0  0  0  0  0  0  0  0  0
  193.5510  176.7310  136.8270 C   0  0  0  0  0  1  0  0  0  0  0  0
  192.9410  176.4440  138.1860 C   0  0  2  0  0  3  0  0  0  0  0  0
  193.9300  176.3860  139.1750 O   0  0  0  0  0  1  0  0  0  0  0  0
  192.2270  174.6900  136.8000 C   0  0  0  0  0  2  0  0  0  0  0  0
  192.9200  173.3260  136.8050 C   0  0  1  0  0  3  0  0  0  0  0  0
  192.3890  172.4010  135.7180 C   0  0  0  0  0  2  0  0  0  0  0  0
  191.0100  172.4710  135.6710 F   0  0  0  0  0  0  0  0  0  0  0  0
  195.1260  173.0090  138.2830 S   0  0  0  0  0  1  0  0  0  0  0  0
  194.3760  173.4650  136.7390 N   0  0  0  0  0  2  0  0  0  0  0  0
  1 22  1  6  0  0  0
  1  4  1  0  0  0  0
  3 12  1  0  0  0  0
  3  1  1  0  0  0  0
  4  7  1  0  0  0  0
  4 11  1  0  0  0  0
  4  2  1  1  0  0  0
  5  8  1  0  0  0  0
  6 18  1  0  0  0  0
  7 10  1  6  0  0  0
  7  9  1  0  0  0  0
  8  6  1  0  0  0  0
  9 16  1  0  0  0  0
  9  5  1  1  0  0  0
 11  2  1  1  0  0  0
 11 13  1  0  0  0  0
 12 10  1  0  0  0  0
 13  6  1  0  0  0  0
 14 16  1  0  0  0  0
 14 15  1  0  0  0  0
 16 15  1  1  0  0  0
 18 17  1  1  0  0  0
 18 20  1  0  0  0  0
 20 19  1  0  0  0  0
 22 21  1  6  0  0  0
 23 25  1  0  0  0  0
 23 22  1  0  0  0  0
 25 24  1  6  0  0  0
 25 26  1  0  0  0  0
 27 28  1  0  0  0  0
 27 23  1  0  0  0  0
 28 29  1  6  0  0  0
 30 29  1  0  0  0  0
 32 28  1  0  0  0  0
 32 31  1  0  0  0  0
M  END
>  <MODEL>
6

>  <REMARK>
 VINA RESULT:      -4.2      3.678      7.782
  Name = 
  10 active torsions:
  status: ('A' for Active; 'I' for Inactive)
    1  A    between atoms: C_1  and  C_27
    2  A    between atoms: C_3  and  C_7
    3  A    between atoms: C_7  and  C_20
    4  A    between atoms: C_7  and  N_26
    5  A    between atoms: N_10  and  C_12
    6  A    between atoms: C_12  and  C_31
    7  A    between atoms: N_16  and  C_20
    8  A    between atoms: N_16  and  C_22
    9  A    between atoms: N_16  and  C_27
   10  A    between atoms: C_18  and  C_29
                            x       y       z     vdW  Elec       q    Type
                         _______ _______ _______ _____ _____    ______ ____

>  <TORSDO>
F 10

$$$$
=
 OpenBabel10262421053D

 32 35  0  0  1  0  0  0  0  0999 V2000
  190.3560  177.3630  140.7610 C   0  0  1  0  0  3  0  0  0  0  0  0
  188.9630  176.2840  138.7930 C   0  0  0  0  0  2  0  0  0  0  0  0
  191.7640  177.4710  141.3440 C   0  0  0  0  0  2  0  0  0  0  0  0
  190.2700  176.8850  139.2830 C   0  0  2  0  0  0  0  0  0  0  0  0
  190.4120  175.2480  136.5970 C   0  0  0  0  0  2  0  0  0  0  0  0
  189.2400  177.3860  136.0000 N   0  0  0  0  0  0  0  0  0  0  0  0
  191.5760  176.6500  138.4420 C   0  0  2  0  0  3  0  0  0  0  0  0
  190.3040  176.4350  135.6400 C   0  0  0  0  0  2  0  0  0  0  0  0
  191.5930  175.3630  137.5740 C   0  0  2  0  0  3  0  0  0  0  0  0
  192.8530  176.7530  139.2820 C   0  0  0  0  0  2  0  0  0  0  0  0
  189.2210  177.7630  138.5700 C   0  0  1  0  0  3  0  0  0  0  0  0
  192.7700  177.8780  140.2910 C   0  0  0  0  0  2  0  0  0  0  0  0
  189.6550  178.2120  137.1490 C   0  0  0  0  0  2  0  0  0  0  0  0
  193.6320  174.0270  137.3180 N   0  0  0  0  0  2  0  0  0  0  0  0
  192.9000  173.9460  136.0490 C   0  0  0  0  0  2  0  0  0  0  0  0
  192.9050  175.1980  136.8030 C   0  0  1  0  0  3  0  0  0  0  0  0
  186.8300  177.8890  136.0870 C   0  0  0  0  0  1  0  0  0  0  0  0
  187.8910  176.7950  136.0900 C   0  0  1  0  0  3  0  0  0  0  0  0
  186.9190  174.6040  135.3850 C   0  0  0  0  0  1  0  0  0  0  0  0
  187.6220  175.8630  134.9120 C   0  0  0  0  0  2  0  0  0  0  0  0
  190.1760  175.6280  142.5370 C   0  0  0  0  0  1  0  0  0  0  0  0
  189.4010  176.6940  141.7710 C   0  0  1  0  0  3  0  0  0  0  0  0
  188.7240  177.6540  142.6780 N   0  0  0  0  0  0  0  0  0  0  0  0
  186.5460  178.8010  142.8990 C   0  0  0  0  0  1  0  0  0  0  0  0
  187.7110  178.4730  141.9840 C   0  0  2  0  0  3  0  0  0  0  0  0
  187.2620  177.8780  140.7990 O   0  0  0  0  0  1  0  0  0  0  0  0
  189.7160  178.5940  143.1990 C   0  0  0  0  0  2  0  0  0  0  0  0
  189.9450  178.3870  144.6980 C   0  0  1  0  0  3  0  0  0  0  0  0
  188.8890  177.4870  145.3270 C   0  0  0  0  0  2  0  0  0  0  0  0
  187.9600  178.2530  146.0040 F   0  0  0  0  0  0  0  0  0  0  0  0
  191.3060  176.7530  146.3190 S   0  0  0  0  0  1  0  0  0  0  0  0
  191.3020  177.9100  144.9720 N   0  0  0  0  0  2  0  0  0  0  0  0
  1  3  1  0  0  0  0
  1 22  1  1  0  0  0
  4  2  1  1  0  0  0
  4  1  1  0  0  0  0
  6 18  1  0  0  0  0
  6 13  1  0  0  0  0
  7 10  1  1  0  0  0
  7  4  1  0  0  0  0
  8  6  1  0  0  0  0
  8  5  1  0  0  0  0
  9  5  1  6  0  0  0
  9  7  1  0  0  0  0
 10 12  1  0  0  0  0
 11 13  1  6  0  0  0
 11  2  1  0  0  0  0
 11  4  1  0  0  0  0
 12  3  1  0  0  0  0
 15 14  1  0  0  0  0
 16 15  1  6  0  0  0
 16 14  1  0  0  0  0
 16  9  1  0  0  0  0
 18 17  1  6  0  0  0
 20 19  1  0  0  0  0
 20 18  1  0  0  0  0
 22 21  1  1  0  0  0
 22 23  1  0  0  0  0
 23 27  1  0  0  0  0
 25 23  1  0  0  0  0
 25 24  1  1  0  0  0
 26 25  1  0  0  0  0
 28 27  1  6  0  0  0
 28 32  1  0  0  0  0
 28 29  1  0  0  0  0
 29 30  1  0  0  0  0
 32 31  1  0  0  0  0
M  END
>  <MODEL>
7

>  <REMARK>
 VINA RESULT:      -4.2      1.962      2.471
  Name = 
  10 active torsions:
  status: ('A' for Active; 'I' for Inactive)
    1  A    between atoms: C_1  and  C_27
    2  A    between atoms: C_3  and  C_7
    3  A    between atoms: C_7  and  C_20
    4  A    between atoms: C_7  and  N_26
    5  A    between atoms: N_10  and  C_12
    6  A    between atoms: C_12  and  C_31
    7  A    between atoms: N_16  and  C_20
    8  A    between atoms: N_16  and  C_22
    9  A    between atoms: N_16  and  C_27
   10  A    between atoms: C_18  and  C_29
                            x       y       z     vdW  Elec       q    Type
                         _______ _______ _______ _____ _____    ______ ____

>  <TORSDO>
F 10

$$$$
=
 OpenBabel10262421053D

 32 35  0  0  1  0  0  0  0  0999 V2000
  184.2790  177.4900  137.7790 C   0  0  1  0  0  3  0  0  0  0  0  0
  186.6970  176.5510  137.2830 C   0  0  0  0  0  2  0  0  0  0  0  0
  183.4290  178.1680  138.8510 C   0  0  0  0  0  2  0  0  0  0  0  0
  185.8190  177.5760  137.9810 C   0  0  2  0  0  0  0  0  0  0  0  0
  188.7710  177.3190  139.0450 C   0  0  0  0  0  2  0  0  0  0  0  0
  188.9730  178.4750  136.8260 N   0  0  0  0  0  0  0  0  0  0  0  0
  186.4240  178.4150  139.1630 C   0  0  2  0  0  3  0  0  0  0  0  0
  189.3680  178.4760  138.2440 C   0  0  0  0  0  2  0  0  0  0  0  0
  187.5920  177.7430  139.9340 C   0  0  2  0  0  3  0  0  0  0  0  0
  185.3580  178.9300  140.1360 C   0  0  0  0  0  2  0  0  0  0  0  0
  186.4520  177.8890  136.6090 C   0  0  1  0  0  3  0  0  0  0  0  0
  184.1150  179.3950  139.4090 C   0  0  0  0  0  2  0  0  0  0  0  0
  187.5830  178.9480  136.6780 C   0  0  0  0  0  2  0  0  0  0  0  0
  187.8090  177.9650  142.3660 N   0  0  0  0  0  2  0  0  0  0  0  0
  189.1680  177.9200  141.8130 C   0  0  0  0  0  2  0  0  0  0  0  0
  188.1110  178.6140  141.0800 C   0  0  1  0  0  3  0  0  0  0  0  0
  189.4110  177.5190  134.5980 C   0  0  0  0  0  1  0  0  0  0  0  0
  189.3110  177.2400  136.0930 C   0  0  1  0  0  3  0  0  0  0  0  0
  190.8850  175.3060  135.9470 C   0  0  0  0  0  1  0  0  0  0  0  0
  190.6440  176.6710  136.5660 C   0  0  0  0  0  2  0  0  0  0  0  0
  182.9520  175.5640  138.6330 C   0  0  0  0  0  1  0  0  0  0  0  0
  183.6950  176.1090  137.4170 C   0  0  1  0  0  3  0  0  0  0  0  0
  182.8460  176.1200  136.2000 N   0  0  0  0  0  0  0  0  0  0  0  0
  182.2460  174.1690  134.8060 C   0  0  0  0  0  1  0  0  0  0  0  0
  183.3200  175.1780  135.1680 C   0  0  2  0  0  3  0  0  0  0  0  0
  184.5070  174.5330  135.5360 O   0  0  0  0  0  1  0  0  0  0  0  0
  182.9050  177.4490  135.5930 C   0  0  0  0  0  2  0  0  0  0  0  0
  181.5270  178.1150  135.5750 C   0  0  1  0  0  3  0  0  0  0  0  0
  180.4430  177.2200  136.1610 C   0  0  0  0  0  2  0  0  0  0  0  0
  180.2080  177.5650  137.4780 F   0  0  0  0  0  0  0  0  0  0  0  0
  180.4050  180.5380  135.4500 S   0  0  0  0  0  1  0  0  0  0  0  0
  181.5580  179.4290  136.2190 N   0  0  0  0  0  2  0  0  0  0  0  0
  1 22  1  1  0  0  0
  1  4  1  0  0  0  0
  1  3  1  0  0  0  0
  3 12  1  0  0  0  0
  4  2  1  1  0  0  0
  4  7  1  0  0  0  0
  6  8  1  0  0  0  0
  7  9  1  0  0  0  0
  7 10  1  1  0  0  0
  8  5  1  0  0  0  0
  9  5  1  6  0  0  0
  9 16  1  0  0  0  0
 11 13  1  1  0  0  0
 11  2  1  0  0  0  0
 11  4  1  0  0  0  0
 12 10  1  0  0  0  0
 13  6  1  0  0  0  0
 15 14  1  0  0  0  0
 16 15  1  6  0  0  0
 16 14  1  0  0  0  0
 18 17  1  6  0  0  0
 18 20  1  0  0  0  0
 18  6  1  0  0  0  0
 19 20  1  0  0  0  0
 22 21  1  1  0  0  0
 23 22  1  0  0  0  0
 25 24  1  1  0  0  0
 25 26  1  0  0  0  0
 25 23  1  0  0  0  0
 27 23  1  0  0  0  0
 28 27  1  1  0  0  0
 28 29  1  0  0  0  0
 28 32  1  0  0  0  0
 29 30  1  0  0  0  0
 31 32  1  0  0  0  0
M  END
>  <MODEL>
8

>  <REMARK>
 VINA RESULT:      -4.1      4.224      7.432
  Name = 
  10 active torsions:
  status: ('A' for Active; 'I' for Inactive)
    1  A    between atoms: C_1  and  C_27
    2  A    between atoms: C_3  and  C_7
    3  A    between atoms: C_7  and  C_20
    4  A    between atoms: C_7  and  N_26
    5  A    between atoms: N_10  and  C_12
    6  A    between atoms: C_12  and  C_31
    7  A    between atoms: N_16  and  C_20
    8  A    between atoms: N_16  and  C_22
    9  A    between atoms: N_16  and  C_27
   10  A    between atoms: C_18  and  C_29
                            x       y       z     vdW  Elec       q    Type
                         _______ _______ _______ _____ _____    ______ ____

>  <TORSDO>
F 10

$$$$
=
 OpenBabel10262421053D

 32 35  0  0  1  0  0  0  0  0999 V2000
  183.2430  178.0070  139.1360 C   0  0  1  0  0  3  0  0  0  0  0  0
  182.0300  175.7060  138.6830 C   0  0  0  0  0  2  0  0  0  0  0  0
  184.5980  178.7100  139.0590 C   0  0  0  0  0  2  0  0  0  0  0  0
  183.1070  176.7050  138.2960 C   0  0  2  0  0  0  0  0  0  0  0  0
  183.4010  173.8100  137.0950 C   0  0  0  0  0  2  0  0  0  0  0  0
  181.4870  174.8470  135.8440 N   0  0  0  0  0  0  0  0  0  0  0  0
  184.2720  176.2390  137.3510 C   0  0  2  0  0  3  0  0  0  0  0  0
  182.7470  174.0930  135.7420 C   0  0  0  0  0  2  0  0  0  0  0  0
  184.6010  174.7220  137.3890 C   0  0  2  0  0  3  0  0  0  0  0  0
  185.5450  177.0740  137.5160 C   0  0  0  0  0  2  0  0  0  0  0  0
  181.7250  176.7360  137.6110 C   0  0  1  0  0  3  0  0  0  0  0  0
  185.2320  178.5430  137.6960 C   0  0  0  0  0  2  0  0  0  0  0  0
  181.7580  176.2680  136.1320 C   0  0  0  0  0  2  0  0  0  0  0  0
  186.8900  173.8530  137.2540 N   0  0  0  0  0  2  0  0  0  0  0  0
  186.0280  172.9190  136.5210 C   0  0  0  0  0  2  0  0  0  0  0  0
  185.7580  174.3540  136.4580 C   0  0  1  0  0  3  0  0  0  0  0  0
  179.1080  174.8950  136.4840 C   0  0  0  0  0  1  0  0  0  0  0  0
  180.4540  174.2090  136.6840 C   0  0  1  0  0  3  0  0  0  0  0  0
  180.3420  171.8840  137.5890 C   0  0  0  0  0  1  0  0  0  0  0  0
  180.2990  172.7330  136.3320 C   0  0  0  0  0  2  0  0  0  0  0  0
  183.9500  177.8820  141.5200 C   0  0  0  0  0  1  0  0  0  0  0  0
  182.7410  177.9570  140.5940 C   0  0  1  0  0  3  0  0  0  0  0  0
  181.8310  179.0740  140.9500 N   0  0  0  0  0  0  0  0  0  0  0  0
  179.7760  177.9350  141.7180 C   0  0  0  0  0  1  0  0  0  0  0  0
  180.9820  178.7650  142.1170 C   0  0  2  0  0  3  0  0  0  0  0  0
  180.5890  179.9150  142.8120 O   0  0  0  0  0  1  0  0  0  0  0  0
  180.9150  179.3130  139.8350 C   0  0  0  0  0  2  0  0  0  0  0  0
  180.7940  180.8060  139.5250 C   0  0  1  0  0  3  0  0  0  0  0  0
  181.5600  181.2020  138.2700 C   0  0  0  0  0  2  0  0  0  0  0  0
  181.5440  180.1630  137.3590 F   0  0  0  0  0  0  0  0  0  0  0  0
  179.2180  182.7060  138.4960 S   0  0  0  0  0  1  0  0  0  0  0  0
  179.3930  181.2290  139.4650 N   0  0  0  0  0  2  0  0  0  0  0  0
  1 22  1  1  0  0  0
  3  1  1  0  0  0  0
  4  2  1  1  0  0  0
  4  1  1  0  0  0  0
  6 13  1  0  0  0  0
  6 18  1  0  0  0  0
  7  9  1  0  0  0  0
  7 10  1  1  0  0  0
  7  4  1  0  0  0  0
  8  6  1  0  0  0  0
  8  5  1  0  0  0  0
  9  5  1  6  0  0  0
 10 12  1  0  0  0  0
 11 13  1  6  0  0  0
 11  4  1  0  0  0  0
 11  2  1  0  0  0  0
 12  3  1  0  0  0  0
 15 14  1  0  0  0  0
 16 15  1  6  0  0  0
 16 14  1  0  0  0  0
 16  9  1  0  0  0  0
 18 17  1  6  0  0  0
 20 18  1  0  0  0  0
 20 19  1  0  0  0  0
 22 23  1  0  0  0  0
 22 21  1  1  0  0  0
 23 25  1  0  0  0  0
 25 24  1  6  0  0  0
 25 26  1  0  0  0  0
 27 23  1  0  0  0  0
 28 29  1  6  0  0  0
 28 27  1  0  0  0  0
 30 29  1  0  0  0  0
 31 32  1  0  0  0  0
 32 28  1  0  0  0  0
M  END
>  <MODEL>
9

>  <REMARK>
 VINA RESULT:      -4.1      5.792      7.727
  Name = 
  10 active torsions:
  status: ('A' for Active; 'I' for Inactive)
    1  A    between atoms: C_1  and  C_27
    2  A    between atoms: C_3  and  C_7
    3  A    between atoms: C_7  and  C_20
    4  A    between atoms: C_7  and  N_26
    5  A    between atoms: N_10  and  C_12
    6  A    between atoms: C_12  and  C_31
    7  A    between atoms: N_16  and  C_20
    8  A    between atoms: N_16  and  C_22
    9  A    between atoms: N_16  and  C_27
   10  A    between atoms: C_18  and  C_29
                            x       y       z     vdW  Elec       q    Type
                         _______ _______ _______ _____ _____    ______ ____

>  <TORSDO>
F 10

$$$$
