=
 OpenBabel10262420123D

 27 31  0  0  1  0  0  0  0  0999 V2000
  185.5430  178.6250  141.5980 N   0  0  0  0  0  2  0  0  0  0  0  0
  185.5100  178.6870  144.1120 C   0  0  0  0  0  0  0  0  0  0  0  0
  187.2500  177.1120  143.4210 N   0  0  0  0  0  2  0  0  0  0  0  0
  186.9760  178.7450  148.0090 C   0  0  0  0  0  3  0  0  0  0  0  0
  188.5190  177.9650  149.6500 F   0  0  0  0  0  0  0  0  0  0  0  0
  184.9770  179.4810  145.0850 N   0  0  0  0  0  0  0  0  0  0  0  0
  188.6560  177.0960  147.4340 C   0  0  0  0  0  3  0  0  0  0  0  0
  191.1840  177.2230  139.9920 Cl  0  0  0  0  0  0  0  0  0  0  0  0
  188.1800  177.0620  146.1210 C   0  0  0  0  0  3  0  0  0  0  0  0
  189.5340  177.5570  140.4720 C   0  0  0  0  0  0  0  0  0  0  0  0
  187.0940  177.8680  145.7440 C   0  0  0  0  0  0  0  0  0  0  0  0
  184.8510  178.6030  142.8290 N   0  0  0  0  0  0  0  0  0  0  0  0
  188.0550  177.9350  148.3770 C   0  0  0  0  0  0  0  0  0  0  0  0
  186.4960  178.7130  146.6960 C   0  0  0  0  0  0  0  0  0  0  0  0
  186.9190  178.3340  141.3170 C   0  0  0  0  0  0  0  0  0  0  0  0
  186.6020  177.8710  144.4320 C   0  0  0  0  0  0  0  0  0  0  0  0
  188.9790  176.9330  141.7190 C   0  0  0  0  0  2  0  0  0  0  0  0
  185.4570  179.5010  146.3300 N   0  0  0  0  0  0  0  0  0  0  0  0
  188.7470  178.2880  139.6790 C   0  0  0  0  0  3  0  0  0  0  0  0
  187.3590  178.5860  140.0780 C   0  0  0  0  0  3  0  0  0  0  0  0
  187.9050  177.8280  142.3480 C   0  0  2  0  0  3  0  0  0  0  0  0
  180.6000  178.6460  142.6290 C   0  0  0  0  0  3  0  0  0  0  0  0
  183.4090  178.6390  142.7670 C   0  0  0  0  0  0  0  0  0  0  0  0
  182.6340  178.6720  143.9400 C   0  0  0  0  0  3  0  0  0  0  0  0
  181.2390  178.6790  143.8700 C   0  0  0  0  0  3  0  0  0  0  0  0
  181.3580  178.6020  141.4560 C   0  0  0  0  0  3  0  0  0  0  0  0
  182.7540  178.5940  141.5260 C   0  0  0  0  0  3  0  0  0  0  0  0
  1 12  1  0  0  0  0
  2 16  2  0  0  0  0
  2  6  1  0  0  0  0
  3 16  1  0  0  0  0
  4 13  1  0  0  0  0
  6 18  2  0  0  0  0
  7 13  2  0  0  0  0
  8 10  1  0  0  0  0
  9  7  1  0  0  0  0
 10 17  1  0  0  0  0
 11  9  2  0  0  0  0
 11 14  1  0  0  0  0
 12  2  1  0  0  0  0
 13  5  1  0  0  0  0
 14  4  2  0  0  0  0
 15  1  1  0  0  0  0
 15 21  1  0  0  0  0
 16 11  1  0  0  0  0
 18 14  1  0  0  0  0
 19 20  1  0  0  0  0
 19 10  2  0  0  0  0
 20 15  2  0  0  0  0
 21 17  1  6  0  0  0
 21  3  1  0  0  0  0
 22 25  1  0  0  0  0
 23 12  1  0  0  0  0
 23 24  1  0  0  0  0
 25 24  2  0  0  0  0
 26 27  1  0  0  0  0
 26 22  2  0  0  0  0
 27 23  2  0  0  0  0
M  END
>  <MODEL>
1

>  <REMARK>
 VINA RESULT:     -10.1      0.000      0.000
  Name = 
  1 active torsions:
  status: ('A' for Active; 'I' for Inactive)
    1  A    between atoms: C_9  and  N_15
                            x       y       z     vdW  Elec       q    Type
                         _______ _______ _______ _____ _____    ______ ____

>  <TORSDO>
F 1

$$$$
=
 OpenBabel10262420123D

 27 31  0  0  1  0  0  0  0  0999 V2000
  186.4980  178.5990  139.9810 N   0  0  0  0  0  2  0  0  0  0  0  0
  185.7180  178.7440  142.3670 C   0  0  0  0  0  0  0  0  0  0  0  0
  187.5730  177.1520  142.2790 N   0  0  0  0  0  2  0  0  0  0  0  0
  185.9550  178.9340  146.5200 C   0  0  0  0  0  3  0  0  0  0  0  0
  186.9330  178.2130  148.5710 F   0  0  0  0  0  0  0  0  0  0  0  0
  184.9240  179.5670  143.1110 N   0  0  0  0  0  0  0  0  0  0  0  0
  187.7180  177.2720  146.5270 C   0  0  0  0  0  3  0  0  0  0  0  0
  192.3510  177.1610  140.1770 Cl  0  0  0  0  0  0  0  0  0  0  0  0
  187.6550  177.1940  145.1330 C   0  0  0  0  0  3  0  0  0  0  0  0
  190.6350  177.5060  140.1320 C   0  0  0  0  0  0  0  0  0  0  0  0
  186.7370  177.9830  144.4230 C   0  0  0  0  0  0  0  0  0  0  0  0
  185.4700  178.6160  140.9500 N   0  0  0  0  0  0  0  0  0  0  0  0
  186.8690  178.1400  147.2200 C   0  0  0  0  0  0  0  0  0  0  0  0
  185.8880  178.8580  145.1260 C   0  0  0  0  0  0  0  0  0  0  0  0
  187.8930  178.3030  140.1330 C   0  0  0  0  0  0  0  0  0  0  0  0
  186.6590  177.9410  143.0250 C   0  0  0  0  0  0  0  0  0  0  0  0
  189.7290  176.9210  141.1760 C   0  0  0  0  0  2  0  0  0  0  0  0
  185.0110  179.6300  144.4420 N   0  0  0  0  0  0  0  0  0  0  0  0
  190.1260  178.2070  139.1170 C   0  0  0  0  0  3  0  0  0  0  0  0
  188.6840  178.5150  139.0740 C   0  0  0  0  0  3  0  0  0  0  0  0
  188.5230  177.8330  141.4270 C   0  0  2  0  0  3  0  0  0  0  0  0
  181.4880  178.6740  139.4510 C   0  0  0  0  0  3  0  0  0  0  0  0
  184.1130  178.6450  140.4600 C   0  0  0  0  0  0  0  0  0  0  0  0
  183.1280  177.7990  141.0000 C   0  0  0  0  0  3  0  0  0  0  0  0
  181.8230  177.8170  140.5010 C   0  0  0  0  0  3  0  0  0  0  0  0
  182.4590  179.5120  138.8960 C   0  0  0  0  0  3  0  0  0  0  0  0
  183.7640  179.4940  139.3960 C   0  0  0  0  0  3  0  0  0  0  0  0
  1 15  1  0  0  0  0
  1 12  1  0  0  0  0
  2 16  2  0  0  0  0
  2  6  1  0  0  0  0
  3 16  1  0  0  0  0
  4 13  1  0  0  0  0
  6 18  2  0  0  0  0
  7 13  2  0  0  0  0
  9  7  1  0  0  0  0
 10  8  1  0  0  0  0
 10 17  1  0  0  0  0
 11 14  1  0  0  0  0
 11  9  2  0  0  0  0
 12  2  1  0  0  0  0
 13  5  1  0  0  0  0
 14  4  2  0  0  0  0
 15 21  1  0  0  0  0
 16 11  1  0  0  0  0
 18 14  1  0  0  0  0
 19 10  2  0  0  0  0
 20 19  1  0  0  0  0
 20 15  2  0  0  0  0
 21 17  1  6  0  0  0
 21  3  1  0  0  0  0
 22 25  1  0  0  0  0
 23 12  1  0  0  0  0
 23 24  1  0  0  0  0
 25 24  2  0  0  0  0
 26 27  1  0  0  0  0
 26 22  2  0  0  0  0
 27 23  2  0  0  0  0
M  END
>  <MODEL>
2

>  <REMARK>
 VINA RESULT:      -9.6      1.522      1.973
  Name = 
  1 active torsions:
  status: ('A' for Active; 'I' for Inactive)
    1  A    between atoms: C_9  and  N_15
                            x       y       z     vdW  Elec       q    Type
                         _______ _______ _______ _____ _____    ______ ____

>  <TORSDO>
F 1

$$$$
=
 OpenBabel10262420123D

 27 31  0  0  1  0  0  0  0  0999 V2000
  187.5890  178.2760  141.9440 N   0  0  0  0  0  2  0  0  0  0  0  0
  188.4950  177.7510  144.2310 C   0  0  0  0  0  0  0  0  0  0  0  0
  189.5460  176.2220  142.6360 N   0  0  0  0  0  2  0  0  0  0  0  0
  191.2760  176.7530  147.1650 C   0  0  0  0  0  3  0  0  0  0  0  0
  193.1460  175.4650  147.8890 F   0  0  0  0  0  0  0  0  0  0  0  0
  188.5090  178.3410  145.4610 N   0  0  0  0  0  0  0  0  0  0  0  0
  192.3010  175.1310  145.6850 C   0  0  0  0  0  3  0  0  0  0  0  0
  191.8940  176.7550  138.0050 Cl  0  0  0  0  0  0  0  0  0  0  0  0
  191.3780  175.4520  144.6860 C   0  0  0  0  0  3  0  0  0  0  0  0
  190.6250  177.1250  139.1530 C   0  0  0  0  0  0  0  0  0  0  0  0
  190.3930  176.4230  144.9230 C   0  0  0  0  0  0  0  0  0  0  0  0
  187.4060  178.0330  143.3230 N   0  0  0  0  0  0  0  0  0  0  0  0
  192.2500  175.7790  146.9230 C   0  0  0  0  0  0  0  0  0  0  0  0
  190.3490  177.0760  146.1690 C   0  0  0  0  0  0  0  0  0  0  0  0
  188.6890  177.9290  141.0920 C   0  0  0  0  0  0  0  0  0  0  0  0
  189.4630  176.7810  143.9390 C   0  0  0  0  0  0  0  0  0  0  0  0
  190.4650  176.2810  140.3850 C   0  0  0  0  0  2  0  0  0  0  0  0
  189.4080  178.0230  146.3940 N   0  0  0  0  0  0  0  0  0  0  0  0
  189.7470  178.0920  138.8820 C   0  0  0  0  0  3  0  0  0  0  0  0
  188.6800  178.4200  139.8470 C   0  0  0  0  0  3  0  0  0  0  0  0
  189.8770  177.1030  141.5380 C   0  0  2  0  0  3  0  0  0  0  0  0
  183.4980  178.6460  144.8900 C   0  0  0  0  0  3  0  0  0  0  0  0
  186.0750  178.2210  143.8480 C   0  0  0  0  0  0  0  0  0  0  0  0
  184.9790  178.4210  142.9900 C   0  0  0  0  0  3  0  0  0  0  0  0
  183.6980  178.6280  143.5080 C   0  0  0  0  0  3  0  0  0  0  0  0
  184.5790  178.4600  145.7550 C   0  0  0  0  0  3  0  0  0  0  0  0
  185.8600  178.2530  145.2360 C   0  0  0  0  0  3  0  0  0  0  0  0
  1 12  1  0  0  0  0
  2  6  1  0  0  0  0
  3 16  1  0  0  0  0
  6 18  2  0  0  0  0
  7 13  2  0  0  0  0
  8 10  1  0  0  0  0
  9 11  2  0  0  0  0
  9  7  1  0  0  0  0
 10 17  1  0  0  0  0
 11 14  1  0  0  0  0
 12 23  1  0  0  0  0
 12  2  1  0  0  0  0
 13  4  1  0  0  0  0
 13  5  1  0  0  0  0
 14 18  1  0  0  0  0
 14  4  2  0  0  0  0
 15 21  1  0  0  0  0
 15  1  1  0  0  0  0
 16  2  2  0  0  0  0
 16 11  1  0  0  0  0
 19 10  2  0  0  0  0
 19 20  1  0  0  0  0
 20 15  2  0  0  0  0
 21 17  1  6  0  0  0
 21  3  1  0  0  0  0
 22 26  1  0  0  0  0
 23 27  1  0  0  0  0
 24 25  1  0  0  0  0
 24 23  2  0  0  0  0
 25 22  2  0  0  0  0
 27 26  2  0  0  0  0
M  END
>  <MODEL>
3

>  <REMARK>
 VINA RESULT:      -9.6      2.466      3.471
  Name = 
  1 active torsions:
  status: ('A' for Active; 'I' for Inactive)
    1  A    between atoms: C_9  and  N_15
                            x       y       z     vdW  Elec       q    Type
                         _______ _______ _______ _____ _____    ______ ____

>  <TORSDO>
F 1

$$$$
=
 OpenBabel10262420123D

 27 31  0  0  1  0  0  0  0  0999 V2000
  184.5880  178.2660  140.9740 N   0  0  0  0  0  2  0  0  0  0  0  0
  186.3310  177.9330  142.7560 C   0  0  0  0  0  0  0  0  0  0  0  0
  184.5910  179.3910  143.6690 N   0  0  0  0  0  2  0  0  0  0  0  0
  187.9260  177.3010  146.5500 C   0  0  0  0  0  3  0  0  0  0  0  0
  187.9240  177.7380  148.8930 F   0  0  0  0  0  0  0  0  0  0  0  0
  187.3850  177.0960  142.9790 N   0  0  0  0  0  0  0  0  0  0  0  0
  186.3090  178.8250  147.5170 C   0  0  0  0  0  3  0  0  0  0  0  0
  179.3760  179.2590  143.8390 Cl  0  0  0  0  0  0  0  0  0  0  0  0
  185.7590  179.0510  146.2530 C   0  0  0  0  0  3  0  0  0  0  0  0
  180.9080  179.0420  143.0200 C   0  0  0  0  0  0  0  0  0  0  0  0
  186.2920  178.4050  145.1260 C   0  0  0  0  0  0  0  0  0  0  0  0
  185.9350  178.2230  141.3970 N   0  0  0  0  0  0  0  0  0  0  0  0
  187.3920  177.9540  147.6660 C   0  0  0  0  0  0  0  0  0  0  0  0
  187.3790  177.5250  145.2830 C   0  0  0  0  0  0  0  0  0  0  0  0
  183.3920  178.4460  141.7450 C   0  0  0  0  0  0  0  0  0  0  0  0
  185.7540  178.5950  143.8470 C   0  0  0  0  0  0  0  0  0  0  0  0
  182.1660  179.5800  143.6370 C   0  0  0  0  0  2  0  0  0  0  0  0
  187.8860  176.8910  144.1990 N   0  0  0  0  0  0  0  0  0  0  0  0
  180.9380  178.4870  141.8070 C   0  0  0  0  0  3  0  0  0  0  0  0
  182.2230  178.2880  141.1110 C   0  0  0  0  0  3  0  0  0  0  0  0
  183.3790  178.7340  143.2310 C   0  0  2  0  0  3  0  0  0  0  0  0
  188.9360  178.5090  138.3940 C   0  0  0  0  0  3  0  0  0  0  0  0
  186.9450  178.3400  140.3720 C   0  0  0  0  0  0  0  0  0  0  0  0
  186.6180  178.1930  139.0120 C   0  0  0  0  0  3  0  0  0  0  0  0
  187.6080  178.2810  138.0300 C   0  0  0  0  0  3  0  0  0  0  0  0
  189.2770  178.6460  139.7420 C   0  0  0  0  0  3  0  0  0  0  0  0
  188.2870  178.5580  140.7250 C   0  0  0  0  0  3  0  0  0  0  0  0
  1 12  1  0  0  0  0
  1 15  1  0  0  0  0
  2  6  2  0  0  0  0
  2 16  1  0  0  0  0
  3 16  1  0  0  0  0
  4 13  2  0  0  0  0
  6 18  1  0  0  0  0
  7 13  1  0  0  0  0
  9  7  2  0  0  0  0
 10 17  1  0  0  0  0
 10  8  1  0  0  0  0
 11 14  1  0  0  0  0
 11  9  1  0  0  0  0
 12  2  1  0  0  0  0
 13  5  1  0  0  0  0
 14  4  1  0  0  0  0
 15 21  1  0  0  0  0
 16 11  2  0  0  0  0
 18 14  2  0  0  0  0
 19 10  2  0  0  0  0
 20 15  2  0  0  0  0
 20 19  1  0  0  0  0
 21 17  1  6  0  0  0
 21  3  1  0  0  0  0
 22 26  1  0  0  0  0
 23 27  1  0  0  0  0
 23 12  1  0  0  0  0
 24 23  2  0  0  0  0
 25 22  2  0  0  0  0
 25 24  1  0  0  0  0
 26 27  2  0  0  0  0
M  END
>  <MODEL>
4

>  <REMARK>
 VINA RESULT:      -9.1      2.655      5.545
  Name = 
  1 active torsions:
  status: ('A' for Active; 'I' for Inactive)
    1  A    between atoms: C_9  and  N_15
                            x       y       z     vdW  Elec       q    Type
                         _______ _______ _______ _____ _____    ______ ____

>  <TORSDO>
F 1

$$$$
=
 OpenBabel10262420123D

 27 31  0  0  1  0  0  0  0  0999 V2000
  188.4150  177.3370  141.9050 N   0  0  0  0  0  2  0  0  0  0  0  0
  190.3480  176.5340  143.2990 C   0  0  0  0  0  0  0  0  0  0  0  0
  189.0880  178.1580  144.6250 N   0  0  0  0  0  2  0  0  0  0  0  0
  192.4300  175.2530  146.6700 C   0  0  0  0  0  3  0  0  0  0  0  0
  192.9120  175.4370  148.9970 F   0  0  0  0  0  0  0  0  0  0  0  0
  191.2530  175.5130  143.2590 N   0  0  0  0  0  0  0  0  0  0  0  0
  191.3110  176.9160  148.0310 C   0  0  0  0  0  3  0  0  0  0  0  0
  184.0460  178.8820  145.7630 Cl  0  0  0  0  0  0  0  0  0  0  0  0
  190.6020  177.3610  146.9120 C   0  0  0  0  0  3  0  0  0  0  0  0
  185.3480  178.4990  144.6570 C   0  0  0  0  0  0  0  0  0  0  0  0
  190.8060  176.7560  145.6620 C   0  0  0  0  0  0  0  0  0  0  0  0
  189.7830  177.0260  142.0630 N   0  0  0  0  0  0  0  0  0  0  0  0
  192.2250  175.8650  147.9100 C   0  0  0  0  0  0  0  0  0  0  0  0
  191.7230  175.6950  145.5480 C   0  0  0  0  0  0  0  0  0  0  0  0
  187.4230  177.6320  142.8980 C   0  0  0  0  0  0  0  0  0  0  0  0
  190.0990  177.1650  144.5240 C   0  0  0  0  0  0  0  0  0  0  0  0
  186.7710  178.7510  145.0640 C   0  0  0  0  0  2  0  0  0  0  0  0
  191.9110  175.1020  144.3450 N   0  0  0  0  0  0  0  0  0  0  0  0
  185.0670  178.0750  143.4230 C   0  0  0  0  0  3  0  0  0  0  0  0
  186.1540  177.7390  142.4860 C   0  0  0  0  0  3  0  0  0  0  0  0
  187.7200  177.7620  144.3770 C   0  0  2  0  0  3  0  0  0  0  0  0
  192.2410  177.1280  138.5900 C   0  0  0  0  0  3  0  0  0  0  0  0
  190.6060  177.0780  140.8780 C   0  0  0  0  0  0  0  0  0  0  0  0
  190.0970  176.6920  139.6250 C   0  0  0  0  0  3  0  0  0  0  0  0
  190.9090  176.7210  138.4880 C   0  0  0  0  0  3  0  0  0  0  0  0
  192.7630  177.5030  139.8310 C   0  0  0  0  0  3  0  0  0  0  0  0
  191.9510  177.4740  140.9680 C   0  0  0  0  0  3  0  0  0  0  0  0
  1 12  1  0  0  0  0
  1 15  1  0  0  0  0
  2 16  1  0  0  0  0
  4 13  2  0  0  0  0
  6  2  2  0  0  0  0
  6 18  1  0  0  0  0
  9  7  2  0  0  0  0
 10 17  1  0  0  0  0
 10  8  1  0  0  0  0
 11  9  1  0  0  0  0
 12  2  1  0  0  0  0
 13  7  1  0  0  0  0
 13  5  1  0  0  0  0
 14 11  1  0  0  0  0
 14  4  1  0  0  0  0
 15 21  1  0  0  0  0
 16  3  1  0  0  0  0
 16 11  2  0  0  0  0
 18 14  2  0  0  0  0
 19 10  2  0  0  0  0
 20 15  2  0  0  0  0
 20 19  1  0  0  0  0
 21  3  1  0  0  0  0
 21 17  1  6  0  0  0
 22 26  1  0  0  0  0
 23 27  1  0  0  0  0
 23 12  1  0  0  0  0
 24 23  2  0  0  0  0
 25 22  2  0  0  0  0
 25 24  1  0  0  0  0
 26 27  2  0  0  0  0
M  END
>  <MODEL>
5

>  <REMARK>
 VINA RESULT:      -9.1      3.352      6.635
  Name = 
  1 active torsions:
  status: ('A' for Active; 'I' for Inactive)
    1  A    between atoms: C_9  and  N_15
                            x       y       z     vdW  Elec       q    Type
                         _______ _______ _______ _____ _____    ______ ____

>  <TORSDO>
F 1

$$$$
=
 OpenBabel10262420123D

 27 31  0  0  1  0  0  0  0  0999 V2000
  188.5950  177.7770  145.8170 N   0  0  0  0  0  2  0  0  0  0  0  0
  190.2210  177.4510  143.9260 C   0  0  0  0  0  0  0  0  0  0  0  0
  188.0030  176.7980  143.1300 N   0  0  0  0  0  2  0  0  0  0  0  0
  191.7070  177.5030  140.0370 C   0  0  0  0  0  3  0  0  0  0  0  0
  191.3960  177.1530  137.7000 F   0  0  0  0  0  0  0  0  0  0  0  0
  191.5010  177.8230  143.6340 N   0  0  0  0  0  0  0  0  0  0  0  0
  189.5730  176.7420  139.1790 C   0  0  0  0  0  3  0  0  0  0  0  0
  183.2420  178.9330  143.2920 Cl  0  0  0  0  0  0  0  0  0  0  0  0
  189.0540  176.7180  140.4760 C   0  0  0  0  0  3  0  0  0  0  0  0
  184.7850  178.5240  144.0110 C   0  0  0  0  0  0  0  0  0  0  0  0
  189.8620  177.0830  141.5650 C   0  0  0  0  0  0  0  0  0  0  0  0
  189.8260  177.3070  145.3090 N   0  0  0  0  0  0  0  0  0  0  0  0
  190.8970  177.1320  138.9590 C   0  0  0  0  0  0  0  0  0  0  0  0
  191.1930  177.4800  141.3360 C   0  0  0  0  0  0  0  0  0  0  0  0
  187.3780  178.0890  145.1240 C   0  0  0  0  0  0  0  0  0  0  0  0
  189.3700  177.0870  142.8760 C   0  0  0  0  0  0  0  0  0  0  0  0
  185.6990  177.5570  143.3170 C   0  0  0  0  0  2  0  0  0  0  0  0
  191.9690  177.8450  142.3840 N   0  0  0  0  0  0  0  0  0  0  0  0
  185.1000  178.9980  145.2190 C   0  0  0  0  0  3  0  0  0  0  0  0
  186.4010  178.6710  145.8300 C   0  0  0  0  0  3  0  0  0  0  0  0
  187.1660  177.8610  143.6420 C   0  0  2  0  0  3  0  0  0  0  0  0
  192.6640  175.8030  148.1010 C   0  0  0  0  0  3  0  0  0  0  0  0
  190.7720  176.7870  146.2680 C   0  0  0  0  0  0  0  0  0  0  0  0
  190.8740  177.3390  147.5570 C   0  0  0  0  0  3  0  0  0  0  0  0
  191.8120  176.8470  148.4680 C   0  0  0  0  0  3  0  0  0  0  0  0
  192.5800  175.2530  146.8190 C   0  0  0  0  0  3  0  0  0  0  0  0
  191.6430  175.7450  145.9070 C   0  0  0  0  0  3  0  0  0  0  0  0
  2 12  1  0  0  0  0
  3 21  1  0  0  0  0
  4 14  1  0  0  0  0
  5 13  1  0  0  0  0
  6  2  1  0  0  0  0
  7  9  2  0  0  0  0
  8 10  1  0  0  0  0
  9 11  1  0  0  0  0
 10 19  2  0  0  0  0
 11 16  1  0  0  0  0
 12  1  1  0  0  0  0
 12 23  1  0  0  0  0
 13  7  1  0  0  0  0
 13  4  2  0  0  0  0
 14 11  2  0  0  0  0
 14 18  1  0  0  0  0
 15  1  1  0  0  0  0
 15 20  2  0  0  0  0
 16  3  1  0  0  0  0
 16  2  2  0  0  0  0
 17 10  1  0  0  0  0
 18  6  2  0  0  0  0
 19 20  1  0  0  0  0
 21 17  1  1  0  0  0
 21 15  1  0  0  0  0
 22 25  1  0  0  0  0
 23 24  1  0  0  0  0
 24 25  2  0  0  0  0
 26 22  2  0  0  0  0
 27 23  2  0  0  0  0
 27 26  1  0  0  0  0
M  END
>  <MODEL>
6

>  <REMARK>
 VINA RESULT:      -9.0      3.833      7.905
  Name = 
  1 active torsions:
  status: ('A' for Active; 'I' for Inactive)
    1  A    between atoms: C_9  and  N_15
                            x       y       z     vdW  Elec       q    Type
                         _______ _______ _______ _____ _____    ______ ____

>  <TORSDO>
F 1

$$$$
=
 OpenBabel10262420123D

 27 31  0  0  1  0  0  0  0  0999 V2000
  190.1980  177.4700  141.7660 N   0  0  0  0  0  2  0  0  0  0  0  0
  187.7970  178.1470  141.4460 C   0  0  0  0  0  0  0  0  0  0  0  0
  187.9580  176.9240  143.5580 N   0  0  0  0  0  2  0  0  0  0  0  0
  183.9940  179.5310  142.4260 C   0  0  0  0  0  3  0  0  0  0  0  0
  182.1340  179.5850  143.9150 F   0  0  0  0  0  0  0  0  0  0  0  0
  187.0990  179.0030  140.6450 N   0  0  0  0  0  0  0  0  0  0  0  0
  184.0260  178.2520  144.4840 C   0  0  0  0  0  3  0  0  0  0  0  0
  191.1030  177.1330  147.7190 Cl  0  0  0  0  0  0  0  0  0  0  0  0
  185.3030  177.7770  144.1740 C   0  0  0  0  0  3  0  0  0  0  0  0
  190.8080  177.1630  145.9930 C   0  0  0  0  0  0  0  0  0  0  0  0
  185.9330  178.1720  142.9840 C   0  0  0  0  0  0  0  0  0  0  0  0
  189.0400  177.5870  140.9660 N   0  0  0  0  0  0  0  0  0  0  0  0
  183.3720  179.1270  143.6110 C   0  0  0  0  0  0  0  0  0  0  0  0
  185.2710  179.0570  142.1120 C   0  0  0  0  0  0  0  0  0  0  0  0
  190.3260  177.4630  143.1950 C   0  0  0  0  0  0  0  0  0  0  0  0
  187.2190  177.7280  142.6500 C   0  0  0  0  0  0  0  0  0  0  0  0
  189.4660  176.7530  145.4580 C   0  0  0  0  0  2  0  0  0  0  0  0
  185.8830  179.4500  140.9690 N   0  0  0  0  0  0  0  0  0  0  0  0
  191.8040  177.4570  145.1550 C   0  0  0  0  0  3  0  0  0  0  0  0
  191.5650  177.4970  143.7000 C   0  0  0  0  0  3  0  0  0  0  0  0
  189.1510  177.4860  144.1490 C   0  0  2  0  0  3  0  0  0  0  0  0
  189.4580  176.5420  136.8620 C   0  0  0  0  0  3  0  0  0  0  0  0
  189.1770  177.2540  139.5680 C   0  0  0  0  0  0  0  0  0  0  0  0
  188.0480  177.1260  138.7400 C   0  0  0  0  0  3  0  0  0  0  0  0
  188.1890  176.7760  137.3940 C   0  0  0  0  0  3  0  0  0  0  0  0
  190.5880  176.6550  137.6760 C   0  0  0  0  0  3  0  0  0  0  0  0
  190.4470  177.0050  139.0220 C   0  0  0  0  0  3  0  0  0  0  0  0
  1 15  1  0  0  0  0
  2 16  1  0  0  0  0
  3 21  1  0  0  0  0
  4 13  2  0  0  0  0
  6 18  1  0  0  0  0
  6  2  2  0  0  0  0
  9  7  2  0  0  0  0
 10  8  1  0  0  0  0
 11  9  1  0  0  0  0
 12  2  1  0  0  0  0
 12  1  1  0  0  0  0
 13  5  1  0  0  0  0
 13  7  1  0  0  0  0
 14  4  1  0  0  0  0
 14 11  1  0  0  0  0
 15 20  2  0  0  0  0
 15 21  1  0  0  0  0
 16 11  2  0  0  0  0
 16  3  1  0  0  0  0
 17 10  1  0  0  0  0
 18 14  2  0  0  0  0
 19 10  2  0  0  0  0
 20 19  1  0  0  0  0
 21 17  1  1  0  0  0
 22 25  2  0  0  0  0
 22 26  1  0  0  0  0
 23 12  1  0  0  0  0
 24 23  2  0  0  0  0
 25 24  1  0  0  0  0
 26 27  2  0  0  0  0
 27 23  1  0  0  0  0
M  END
>  <MODEL>
7

>  <REMARK>
 VINA RESULT:      -8.7      3.163      6.202
  Name = 
  1 active torsions:
  status: ('A' for Active; 'I' for Inactive)
    1  A    between atoms: C_9  and  N_15
                            x       y       z     vdW  Elec       q    Type
                         _______ _______ _______ _____ _____    ______ ____

>  <TORSDO>
F 1

$$$$
=
 OpenBabel10262420123D

 27 31  0  0  1  0  0  0  0  0999 V2000
  188.4500  177.3810  143.0310 N   0  0  0  0  0  2  0  0  0  0  0  0
  186.0290  178.0220  142.7980 C   0  0  0  0  0  0  0  0  0  0  0  0
  187.2430  178.9630  140.8940 N   0  0  0  0  0  2  0  0  0  0  0  0
  182.3710  178.7460  140.9460 C   0  0  0  0  0  3  0  0  0  0  0  0
  181.1160  179.6220  139.1180 F   0  0  0  0  0  0  0  0  0  0  0  0
  184.8390  177.6510  143.3520 N   0  0  0  0  0  0  0  0  0  0  0  0
  183.4930  179.8010  139.0740 C   0  0  0  0  0  3  0  0  0  0  0  0
  190.7020  177.1240  137.4430 Cl  0  0  0  0  0  0  0  0  0  0  0  0
  184.7310  179.5670  139.6780 C   0  0  0  0  0  3  0  0  0  0  0  0
  190.0550  177.2730  139.0630 C   0  0  0  0  0  0  0  0  0  0  0  0
  184.7970  178.9240  140.9240 C   0  0  0  0  0  0  0  0  0  0  0  0
  187.2430  177.8790  143.5690 N   0  0  0  0  0  0  0  0  0  0  0  0
  182.3150  179.3930  139.7070 C   0  0  0  0  0  0  0  0  0  0  0  0
  183.6080  178.5110  141.5540 C   0  0  0  0  0  0  0  0  0  0  0  0
  188.8790  177.3010  141.6650 C   0  0  0  0  0  0  0  0  0  0  0  0
  186.0210  178.6580  141.5500 C   0  0  0  0  0  0  0  0  0  0  0  0
  189.0160  178.3160  139.3590 C   0  0  0  0  0  2  0  0  0  0  0  0
  183.6700  177.8780  142.7500 N   0  0  0  0  0  0  0  0  0  0  0  0
  190.5570  176.5260  140.0490 C   0  0  0  0  0  3  0  0  0  0  0  0
  190.0130  176.6350  141.4160 C   0  0  0  0  0  3  0  0  0  0  0  0
  188.0950  177.8630  140.4980 C   0  0  2  0  0  3  0  0  0  0  0  0
  187.1040  178.5380  147.7710 C   0  0  0  0  0  3  0  0  0  0  0  0
  187.2120  178.1180  144.9930 C   0  0  0  0  0  0  0  0  0  0  0  0
  188.2510  177.6660  145.8260 C   0  0  0  0  0  3  0  0  0  0  0  0
  188.1980  177.8790  147.2060 C   0  0  0  0  0  3  0  0  0  0  0  0
  186.0600  178.9820  146.9560 C   0  0  0  0  0  3  0  0  0  0  0  0
  186.1130  178.7690  145.5760 C   0  0  0  0  0  3  0  0  0  0  0  0
  1 12  1  0  0  0  0
  2  6  1  0  0  0  0
  2 12  1  0  0  0  0
  3 16  1  0  0  0  0
  4 14  1  0  0  0  0
  5 13  1  0  0  0  0
  7  9  2  0  0  0  0
  7 13  1  0  0  0  0
  8 10  1  0  0  0  0
  9 11  1  0  0  0  0
 10 17  1  0  0  0  0
 10 19  2  0  0  0  0
 11 16  1  0  0  0  0
 11 14  2  0  0  0  0
 12 23  1  0  0  0  0
 13  4  2  0  0  0  0
 14 18  1  0  0  0  0
 15  1  1  0  0  0  0
 16  2  2  0  0  0  0
 18  6  2  0  0  0  0
 19 20  1  0  0  0  0
 20 15  2  0  0  0  0
 21 17  1  6  0  0  0
 21  3  1  0  0  0  0
 21 15  1  0  0  0  0
 23 27  2  0  0  0  0
 23 24  1  0  0  0  0
 24 25  2  0  0  0  0
 25 22  1  0  0  0  0
 26 22  2  0  0  0  0
 27 26  1  0  0  0  0
M  END
>  <MODEL>
8

>  <REMARK>
 VINA RESULT:      -8.6      2.972      5.939
  Name = 
  1 active torsions:
  status: ('A' for Active; 'I' for Inactive)
    1  A    between atoms: C_9  and  N_15
                            x       y       z     vdW  Elec       q    Type
                         _______ _______ _______ _____ _____    ______ ____

>  <TORSDO>
F 1

$$$$
=
 OpenBabel10262420123D

 27 31  0  0  1  0  0  0  0  0999 V2000
  190.1370  177.6400  143.2370 N   0  0  0  0  0  2  0  0  0  0  0  0
  188.2140  178.1390  141.6950 C   0  0  0  0  0  0  0  0  0  0  0  0
  187.3070  177.1000  143.7160 N   0  0  0  0  0  2  0  0  0  0  0  0
  184.4160  179.3590  140.5020 C   0  0  0  0  0  3  0  0  0  0  0  0
  182.0580  179.4170  140.8500 F   0  0  0  0  0  0  0  0  0  0  0  0
  188.0010  178.8840  140.5720 N   0  0  0  0  0  0  0  0  0  0  0  0
  183.4250  178.2530  142.4180 C   0  0  0  0  0  3  0  0  0  0  0  0
  187.9300  177.8350  148.8460 Cl  0  0  0  0  0  0  0  0  0  0  0  0
  184.6910  177.8340  142.8360 C   0  0  0  0  0  3  0  0  0  0  0  0
  188.5420  177.7090  147.2110 C   0  0  0  0  0  0  0  0  0  0  0  0
  185.8290  178.1720  142.0860 C   0  0  0  0  0  0  0  0  0  0  0  0
  189.5370  177.6210  141.9590 N   0  0  0  0  0  0  0  0  0  0  0  0
  183.2870  179.0130  141.2520 C   0  0  0  0  0  0  0  0  0  0  0  0
  185.6840  178.9410  140.9170 C   0  0  0  0  0  0  0  0  0  0  0  0
  189.5290  177.7550  144.5320 C   0  0  0  0  0  0  0  0  0  0  0  0
  187.1140  177.7830  142.4850 C   0  0  0  0  0  0  0  0  0  0  0  0
  187.6570  177.1760  146.1220 C   0  0  0  0  0  2  0  0  0  0  0  0
  186.7820  179.2790  140.2000 N   0  0  0  0  0  0  0  0  0  0  0  0
  189.8210  177.9970  146.9570 C   0  0  0  0  0  3  0  0  0  0  0  0
  190.3450  177.9060  145.5820 C   0  0  0  0  0  3  0  0  0  0  0  0
  188.0330  177.7810  144.7640 C   0  0  2  0  0  3  0  0  0  0  0  0
  191.9400  176.3830  138.6720 C   0  0  0  0  0  3  0  0  0  0  0  0
  190.3620  177.1860  140.8570 C   0  0  0  0  0  0  0  0  0  0  0  0
  191.7310  177.5030  140.8080 C   0  0  0  0  0  3  0  0  0  0  0  0
  192.5150  177.1000  139.7240 C   0  0  0  0  0  3  0  0  0  0  0  0
  190.5790  176.0710  138.7030 C   0  0  0  0  0  3  0  0  0  0  0  0
  189.7940  176.4740  139.7880 C   0  0  0  0  0  3  0  0  0  0  0  0
  1 15  1  0  0  0  0
  2 12  1  0  0  0  0
  2 16  1  0  0  0  0
  3 21  1  0  0  0  0
  4 14  1  0  0  0  0
  4 13  2  0  0  0  0
  5 13  1  0  0  0  0
  6  2  2  0  0  0  0
  7  9  2  0  0  0  0
 10  8  1  0  0  0  0
 11 16  2  0  0  0  0
 11  9  1  0  0  0  0
 12  1  1  0  0  0  0
 13  7  1  0  0  0  0
 14 11  1  0  0  0  0
 15 21  1  0  0  0  0
 15 20  2  0  0  0  0
 16  3  1  0  0  0  0
 17 10  1  0  0  0  0
 18  6  1  0  0  0  0
 18 14  2  0  0  0  0
 19 10  2  0  0  0  0
 20 19  1  0  0  0  0
 21 17  1  1  0  0  0
 22 26  2  0  0  0  0
 22 25  1  0  0  0  0
 23 12  1  0  0  0  0
 24 23  1  0  0  0  0
 25 24  2  0  0  0  0
 26 27  1  0  0  0  0
 27 23  2  0  0  0  0
M  END
>  <MODEL>
9

>  <REMARK>
 VINA RESULT:      -8.3      3.365      7.190
  Name = 
  1 active torsions:
  status: ('A' for Active; 'I' for Inactive)
    1  A    between atoms: C_9  and  N_15
                            x       y       z     vdW  Elec       q    Type
                         _______ _______ _______ _____ _____    ______ ____

>  <TORSDO>
F 1

$$$$
