=
 OpenBabel10262421063D

 32 35  0  0  1  0  0  0  0  0999 V2000
  188.6910  178.7550  139.2700 N   0  0  1  0  0  0  0  0  0  0  0  0
  188.8640  176.9020  140.7920 C   0  0  1  0  0  3  0  0  0  0  0  0
  190.1690  175.0360  137.4560 C   0  0  2  0  0  3  0  0  0  0  0  0
  187.7070  178.3580  138.2440 C   0  0  0  0  0  2  0  0  0  0  0  0
  188.3040  178.2950  140.6150 C   0  0  2  0  0  3  0  0  0  0  0  0
  188.4810  177.3390  143.3080 C   0  0  0  0  0  2  0  0  0  0  0  0
  191.0670  173.8880  137.0240 C   0  0  0  0  0  1  0  0  0  0  0  0
  190.1490  176.9240  139.9770 C   0  0  1  0  0  3  0  0  0  0  0  0
  186.9590  177.4310  143.2660 C   0  0  1  0  0  3  0  0  0  0  0  0
  188.7010  174.8510  137.0450 C   0  0  1  0  0  3  0  0  0  0  0  0
  188.3380  177.3570  137.2940 C   0  0  2  0  0  3  0  0  0  0  0  0
  189.0170  176.3950  142.2380 C   0  0  0  0  0  2  0  0  0  0  0  0
  186.8030  178.3510  140.9010 C   0  0  0  0  0  2  0  0  0  0  0  0
  187.8600  175.9520  137.6840 C   0  0  0  0  0  2  0  0  0  0  0  0
  190.7440  176.4130  137.0890 C   0  0  1  0  0  3  0  0  0  0  0  0
  191.0020  176.5110  135.6610 N   0  0  0  0  0  1  0  0  0  0  0  0
  189.9480  178.0580  138.9560 C   0  0  1  0  0  3  0  0  0  0  0  0
  186.4840  177.5930  144.7020 C   0  0  0  0  0  1  0  0  0  0  0  0
  189.8200  177.5610  137.5250 C   0  0  2  0  0  3  0  0  0  0  0  0
  186.5110  178.6100  142.3760 C   0  0  1  0  0  3  0  0  0  0  0  0
  185.0410  178.8730  142.4900 C   0  0  0  0  0  3  0  0  0  0  0  0
  184.1820  178.3340  141.6260 C   0  0  0  0  0  3  0  0  0  0  0  0
  182.7250  178.6090  141.7570 C   0  0  0  0  0  1  0  0  0  0  0  0
  188.4760  174.8150  135.5350 C   0  0  0  0  0  2  0  0  0  0  0  0
  187.7090  172.7510  135.6580 C   0  0  0  0  0  1  0  0  0  0  0  0
  187.3640  174.0330  135.2300 O   0  0  0  0  0  0  0  0  0  0  0  0
  191.4320  177.1220  140.8070 C   0  0  1  0  0  3  0  0  0  0  0  0
  193.7790  176.9720  140.3730 O   0  0  0  0  0  1  0  0  0  0  0  0
  192.5880  177.5210  139.9010 C   0  0  0  0  0  2  0  0  0  0  0  0
  191.2500  178.1250  141.9440 C   0  0  0  0  0  2  0  0  0  0  0  0
  191.9540  177.7070  143.0730 O   0  0  0  0  0  0  0  0  0  0  0  0
  191.7390  178.7170  144.0100 C   0  0  0  0  0  1  0  0  0  0  0  0
  1  4  1  6  0  0  0
  1  5  1  0  0  0  0
  2 12  1  1  0  0  0
  3  7  1  6  0  0  0
  5  2  1  0  0  0  0
  5 13  1  6  0  0  0
  8  2  1  0  0  0  0
  8 27  1  1  0  0  0
  9  6  1  0  0  0  0
  9 18  1  1  0  0  0
 10 24  1  6  0  0  0
 10  3  1  0  0  0  0
 10 14  1  0  0  0  0
 11 19  1  0  0  0  0
 11 14  1  1  0  0  0
 11  4  1  0  0  0  0
 12  6  1  0  0  0  0
 13 20  1  0  0  0  0
 15 16  1  6  0  0  0
 15  3  1  0  0  0  0
 15 19  1  0  0  0  0
 17  1  1  0  0  0  0
 17  8  1  0  0  0  0
 19 17  1  0  0  0  0
 20 21  1  0  0  0  0
 20  9  1  0  0  0  0
 22 23  1  0  0  0  0
 22 21  2  0  0  0  0
 26 24  1  0  0  0  0
 26 25  1  0  0  0  0
 27 30  1  0  0  0  0
 29 28  1  0  0  0  0
 29 27  1  0  0  0  0
 30 31  1  0  0  0  0
 31 32  1  0  0  0  0
M  END
>  <MODEL>
1

>  <REMARK>
 VINA RESULT:      -6.7      0.000      0.000
  Name = 
  7 active torsions:
  status: ('A' for Active; 'I' for Inactive)
    1  A    between atoms: C_10  and  C_28
    2  A    between atoms: O_11  and  C_12
    3  A    between atoms: C_12  and  C_28
    4  A    between atoms: C_14  and  C_29
    5  A    between atoms: C_15  and  C_19
    6  A    between atoms: C_19  and  O_26
    7  A    between atoms: C_28  and  C_32
                            x       y       z     vdW  Elec       q    Type
                         _______ _______ _______ _____ _____    ______ ____

>  <TORSDO>
F 7

$$$$
=
 OpenBabel10262421063D

 32 35  0  0  1  0  0  0  0  0999 V2000
  188.1930  178.8500  138.9680 N   0  0  1  0  0  0  0  0  0  0  0  0
  188.4970  177.1300  140.6190 C   0  0  1  0  0  3  0  0  0  0  0  0
  189.8150  175.0800  137.3980 C   0  0  2  0  0  3  0  0  0  0  0  0
  187.2060  178.3280  138.0030 C   0  0  0  0  0  2  0  0  0  0  0  0
  187.8630  178.4770  140.3540 C   0  0  2  0  0  3  0  0  0  0  0  0
  188.1530  177.7400  143.1050 C   0  0  0  0  0  2  0  0  0  0  0  0
  190.7600  173.9490  137.0290 C   0  0  0  0  0  1  0  0  0  0  0  0
  189.7590  177.1530  139.7700 C   0  0  1  0  0  3  0  0  0  0  0  0
  186.6290  177.7530  143.0990 C   0  0  1  0  0  3  0  0  0  0  0  0
  188.3490  174.7930  137.0440 C   0  0  1  0  0  3  0  0  0  0  0  0
  187.8640  177.2890  137.1130 C   0  0  2  0  0  3  0  0  0  0  0  0
  188.7110  176.7440  142.0940 C   0  0  0  0  0  2  0  0  0  0  0  0
  186.3680  178.4800  140.6770 C   0  0  0  0  0  2  0  0  0  0  0  0
  187.4690  175.8970  137.6220 C   0  0  0  0  0  2  0  0  0  0  0  0
  190.3090  176.4520  136.9130 C   0  0  1  0  0  3  0  0  0  0  0  0
  190.5280  176.4520  135.4740 N   0  0  0  0  0  1  0  0  0  0  0  0
  189.4750  178.1940  138.6720 C   0  0  1  0  0  3  0  0  0  0  0  0
  186.1810  178.0010  144.5310 C   0  0  0  0  0  1  0  0  0  0  0  0
  189.3390  177.5830  137.2870 C   0  0  2  0  0  3  0  0  0  0  0  0
  186.0990  178.8370  142.1360 C   0  0  1  0  0  3  0  0  0  0  0  0
  184.6200  179.0340  142.2710 C   0  0  0  0  0  3  0  0  0  0  0  0
  183.7720  178.4190  141.4500 C   0  0  0  0  0  3  0  0  0  0  0  0
  182.3060  178.6300  141.6020 C   0  0  0  0  0  1  0  0  0  0  0  0
  188.0900  174.6300  135.5480 C   0  0  0  0  0  2  0  0  0  0  0  0
  187.4410  172.5460  135.8650 C   0  0  0  0  0  1  0  0  0  0  0  0
  187.0180  173.7640  135.3340 O   0  0  0  0  0  0  0  0  0  0  0  0
  191.0500  177.4770  140.5450 C   0  0  1  0  0  3  0  0  0  0  0  0
  192.0090  177.0370  142.6930 O   0  0  0  0  0  1  0  0  0  0  0  0
  191.2590  176.4660  141.6650 C   0  0  0  0  0  2  0  0  0  0  0  0
  192.2780  177.5580  139.6400 C   0  0  0  0  0  2  0  0  0  0  0  0
  192.6100  176.2910  139.1630 O   0  0  0  0  0  0  0  0  0  0  0  0
  193.4680  176.5360  138.0920 C   0  0  0  0  0  1  0  0  0  0  0  0
  1  4  1  6  0  0  0
  1  5  1  0  0  0  0
  2 12  1  1  0  0  0
  3  7  1  6  0  0  0
  5  2  1  0  0  0  0
  5 13  1  6  0  0  0
  8 27  1  1  0  0  0
  8  2  1  0  0  0  0
  9  6  1  0  0  0  0
  9 18  1  1  0  0  0
 10 24  1  6  0  0  0
 10  3  1  0  0  0  0
 10 14  1  0  0  0  0
 11 19  1  0  0  0  0
 11 14  1  1  0  0  0
 11  4  1  0  0  0  0
 12  6  1  0  0  0  0
 13 20  1  0  0  0  0
 15 16  1  6  0  0  0
 15 19  1  0  0  0  0
 15  3  1  0  0  0  0
 17  1  1  0  0  0  0
 17  8  1  0  0  0  0
 19 17  1  0  0  0  0
 20 21  1  0  0  0  0
 20  9  1  0  0  0  0
 22 23  1  0  0  0  0
 22 21  2  0  0  0  0
 26 24  1  0  0  0  0
 26 25  1  0  0  0  0
 27 29  1  0  0  0  0
 29 28  1  0  0  0  0
 30 27  1  0  0  0  0
 31 30  1  0  0  0  0
 32 31  1  0  0  0  0
M  END
>  <MODEL>
2

>  <REMARK>
 VINA RESULT:      -6.1      0.861      1.660
  Name = 
  7 active torsions:
  status: ('A' for Active; 'I' for Inactive)
    1  A    between atoms: C_10  and  C_28
    2  A    between atoms: O_11  and  C_12
    3  A    between atoms: C_12  and  C_28
    4  A    between atoms: C_14  and  C_29
    5  A    between atoms: C_15  and  C_19
    6  A    between atoms: C_19  and  O_26
    7  A    between atoms: C_28  and  C_32
                            x       y       z     vdW  Elec       q    Type
                         _______ _______ _______ _____ _____    ______ ____

>  <TORSDO>
F 7

$$$$
=
 OpenBabel10262421063D

 32 35  0  0  1  0  0  0  0  0999 V2000
  182.3780  176.4210  135.9670 N   0  0  1  0  0  0  0  0  0  0  0  0
  182.6870  175.9100  138.2950 C   0  0  1  0  0  3  0  0  0  0  0  0
  186.5680  176.4070  137.2900 C   0  0  2  0  0  3  0  0  0  0  0  0
  183.0620  175.3520  135.2130 C   0  0  0  0  0  2  0  0  0  0  0  0
  181.6880  175.9040  137.1600 C   0  0  2  0  0  3  0  0  0  0  0  0
  180.5970  175.7370  139.8020 C   0  0  0  0  0  2  0  0  0  0  0  0
  187.8990  176.8140  137.9010 C   0  0  0  0  0  1  0  0  0  0  0  0
  183.5760  177.1060  137.9840 C   0  0  1  0  0  3  0  0  0  0  0  0
  180.1370  174.3570  139.3480 C   0  0  1  0  0  3  0  0  0  0  0  0
  186.5590  174.9710  136.7460 C   0  0  1  0  0  3  0  0  0  0  0  0
  184.5630  175.5600  135.2820 C   0  0  2  0  0  3  0  0  0  0  0  0
  182.1140  175.8780  139.7240 C   0  0  0  0  0  2  0  0  0  0  0  0
  181.0380  174.5310  136.9770 C   0  0  0  0  0  2  0  0  0  0  0  0
  185.1370  174.6010  136.3330 C   0  0  0  0  0  2  0  0  0  0  0  0
  186.0250  177.4460  136.2980 C   0  0  1  0  0  3  0  0  0  0  0  0
  186.9840  177.7100  135.2360 N   0  0  0  0  0  1  0  0  0  0  0  0
  183.4200  177.3290  136.4700 C   0  0  1  0  0  3  0  0  0  0  0  0
  178.9320  173.9870  140.2000 C   0  0  0  0  0  1  0  0  0  0  0  0
  184.6830  177.0150  135.6840 C   0  0  2  0  0  3  0  0  0  0  0  0
  179.7930  174.3690  137.8430 C   0  0  1  0  0  3  0  0  0  0  0  0
  179.1240  173.1000  137.4100 C   0  0  0  0  0  3  0  0  0  0  0  0
  179.8330  172.0910  136.9080 C   0  0  0  0  0  3  0  0  0  0  0  0
  179.1480  170.8400  136.4830 C   0  0  0  0  0  1  0  0  0  0  0  0
  187.5290  174.7360  135.5910 C   0  0  0  0  0  2  0  0  0  0  0  0
  188.7000  173.2730  136.7550 C   0  0  0  0  0  1  0  0  0  0  0  0
  187.9580  173.4090  135.5820 O   0  0  0  0  0  0  0  0  0  0  0  0
  183.2450  178.3780  138.7870 C   0  0  1  0  0  3  0  0  0  0  0  0
  184.3910  180.4630  139.0380 O   0  0  0  0  0  1  0  0  0  0  0  0
  184.5260  179.0860  139.2050 C   0  0  0  0  0  2  0  0  0  0  0  0
  182.3130  179.3260  138.0340 C   0  0  0  0  0  2  0  0  0  0  0  0
  180.9900  179.1060  138.4160 O   0  0  0  0  0  0  0  0  0  0  0  0
  180.8900  179.6970  139.6750 C   0  0  0  0  0  1  0  0  0  0  0  0
  1  4  1  1  0  0  0
  1 17  1  0  0  0  0
  1  5  1  0  0  0  0
  2 12  1  1  0  0  0
  3  7  1  6  0  0  0
  5 13  1  6  0  0  0
  5  2  1  0  0  0  0
  8  2  1  0  0  0  0
  8 27  1  1  0  0  0
  9  6  1  0  0  0  0
  9 18  1  1  0  0  0
 10 24  1  6  0  0  0
 10  3  1  0  0  0  0
 11  4  1  1  0  0  0
 11 19  1  0  0  0  0
 11 14  1  0  0  0  0
 12  6  1  0  0  0  0
 13 20  1  0  0  0  0
 14 10  1  0  0  0  0
 15 16  1  6  0  0  0
 15  3  1  0  0  0  0
 17  8  1  0  0  0  0
 19 15  1  0  0  0  0
 19 17  1  0  0  0  0
 20  9  1  0  0  0  0
 21 20  1  0  0  0  0
 22 21  2  0  0  0  0
 23 22  1  0  0  0  0
 26 24  1  0  0  0  0
 26 25  1  0  0  0  0
 27 29  1  0  0  0  0
 28 29  1  0  0  0  0
 30 31  1  0  0  0  0
 30 27  1  0  0  0  0
 31 32  1  0  0  0  0
M  END
>  <MODEL>
3

>  <REMARK>
 VINA RESULT:      -5.8      5.041      7.464
  Name = 
  7 active torsions:
  status: ('A' for Active; 'I' for Inactive)
    1  A    between atoms: C_10  and  C_28
    2  A    between atoms: O_11  and  C_12
    3  A    between atoms: C_12  and  C_28
    4  A    between atoms: C_14  and  C_29
    5  A    between atoms: C_15  and  C_19
    6  A    between atoms: C_19  and  O_26
    7  A    between atoms: C_28  and  C_32
                            x       y       z     vdW  Elec       q    Type
                         _______ _______ _______ _____ _____    ______ ____

>  <TORSDO>
F 7

$$$$
=
 OpenBabel10262421063D

 32 35  0  0  1  0  0  0  0  0999 V2000
  183.6060  176.3370  136.1310 N   0  0  1  0  0  0  0  0  0  0  0  0
  183.9850  174.4680  137.5930 C   0  0  1  0  0  3  0  0  0  0  0  0
  180.9510  176.1890  139.6290 C   0  0  2  0  0  3  0  0  0  0  0  0
  183.8790  177.5490  136.9290 C   0  0  0  0  0  2  0  0  0  0  0  0
  184.5540  175.2510  136.4320 C   0  0  2  0  0  3  0  0  0  0  0  0
  185.6350  172.6310  136.8350 C   0  0  0  0  0  2  0  0  0  0  0  0
  179.8180  175.8320  140.5770 C   0  0  0  0  0  1  0  0  0  0  0  0
  182.4800  174.5750  137.3970 C   0  0  1  0  0  3  0  0  0  0  0  0
  186.9260  173.3870  137.1290 C   0  0  1  0  0  3  0  0  0  0  0  0
  181.9750  177.1580  140.2360 C   0  0  1  0  0  3  0  0  0  0  0  0
  182.7340  177.7940  137.8920 C   0  0  2  0  0  3  0  0  0  0  0  0
  184.5160  173.0350  137.7890 C   0  0  0  0  0  2  0  0  0  0  0  0
  185.9880  175.7110  136.6980 C   0  0  0  0  0  2  0  0  0  0  0  0
  183.1570  177.3000  139.2820 C   0  0  0  0  0  2  0  0  0  0  0  0
  180.4530  176.6100  138.2380 C   0  0  1  0  0  3  0  0  0  0  0  0
  179.5260  177.7280  138.3270 N   0  0  0  0  0  1  0  0  0  0  0  0
  182.2840  175.8400  136.5410 C   0  0  1  0  0  3  0  0  0  0  0  0
  188.0750  172.4330  136.8430 C   0  0  0  0  0  1  0  0  0  0  0  0
  181.6090  176.9740  137.2940 C   0  0  2  0  0  3  0  0  0  0  0  0
  187.0130  174.6650  136.2680 C   0  0  1  0  0  3  0  0  0  0  0  0
  188.3610  175.3130  136.3590 C   0  0  0  0  0  3  0  0  0  0  0  0
  188.5620  176.3620  137.1540 C   0  0  0  0  0  3  0  0  0  0  0  0
  189.9090  176.9910  137.2290 C   0  0  0  0  0  1  0  0  0  0  0  0
  181.4020  178.5300  140.5870 C   0  0  0  0  0  2  0  0  0  0  0  0
  180.8050  178.9830  142.6610 C   0  0  0  0  0  1  0  0  0  0  0  0
  181.9090  178.9680  141.8090 O   0  0  0  0  0  0  0  0  0  0  0  0
  181.8260  173.3390  136.7500 C   0  0  1  0  0  3  0  0  0  0  0  0
  180.4690  171.7880  137.9640 O   0  0  0  0  0  1  0  0  0  0  0  0
  180.4760  173.0610  137.3940 C   0  0  0  0  0  2  0  0  0  0  0  0
  181.6990  173.4660  135.2330 C   0  0  0  0  0  2  0  0  0  0  0  0
  182.7870  172.8610  134.6050 O   0  0  0  0  0  0  0  0  0  0  0  0
  182.6150  171.4990  134.8480 C   0  0  0  0  0  1  0  0  0  0  0  0
  1  5  1  0  0  0  0
  1 17  1  0  0  0  0
  1  4  1  1  0  0  0
  2 12  1  6  0  0  0
  3 10  1  0  0  0  0
  3  7  1  1  0  0  0
  5 13  1  1  0  0  0
  5  2  1  0  0  0  0
  6  9  1  0  0  0  0
  6 12  1  0  0  0  0
  8 27  1  6  0  0  0
  8  2  1  0  0  0  0
  9 18  1  6  0  0  0
 10 24  1  6  0  0  0
 11  4  1  6  0  0  0
 11 14  1  0  0  0  0
 14 10  1  0  0  0  0
 15 16  1  1  0  0  0
 15  3  1  0  0  0  0
 17 19  1  0  0  0  0
 17  8  1  0  0  0  0
 19 11  1  0  0  0  0
 19 15  1  0  0  0  0
 20 21  1  0  0  0  0
 20 13  1  0  0  0  0
 20  9  1  0  0  0  0
 21 22  2  0  0  0  0
 22 23  1  0  0  0  0
 24 26  1  0  0  0  0
 26 25  1  0  0  0  0
 27 29  1  0  0  0  0
 29 28  1  0  0  0  0
 30 27  1  0  0  0  0
 31 32  1  0  0  0  0
 31 30  1  0  0  0  0
M  END
>  <MODEL>
4

>  <REMARK>
 VINA RESULT:      -5.5      4.826      9.452
  Name = 
  7 active torsions:
  status: ('A' for Active; 'I' for Inactive)
    1  A    between atoms: C_10  and  C_28
    2  A    between atoms: O_11  and  C_12
    3  A    between atoms: C_12  and  C_28
    4  A    between atoms: C_14  and  C_29
    5  A    between atoms: C_15  and  C_19
    6  A    between atoms: C_19  and  O_26
    7  A    between atoms: C_28  and  C_32
                            x       y       z     vdW  Elec       q    Type
                         _______ _______ _______ _____ _____    ______ ____

>  <TORSDO>
F 7

$$$$
=
 OpenBabel10262421063D

 32 35  0  0  1  0  0  0  0  0999 V2000
  191.1270  177.5590  138.8970 N   0  0  1  0  0  0  0  0  0  0  0  0
  189.4550  175.8630  138.5690 C   0  0  1  0  0  3  0  0  0  0  0  0
  188.3540  177.0550  142.2670 C   0  0  2  0  0  3  0  0  0  0  0  0
  191.9340  177.1270  140.0540 C   0  0  0  0  0  2  0  0  0  0  0  0
  190.7510  176.4290  138.0310 C   0  0  2  0  0  3  0  0  0  0  0  0
  189.2610  174.7640  136.2400 C   0  0  0  0  0  2  0  0  0  0  0  0
  187.1290  177.1320  143.1630 C   0  0  0  0  0  1  0  0  0  0  0  0
  188.7430  177.0800  139.1420 C   0  0  1  0  0  3  0  0  0  0  0  0
  190.4700  173.8430  136.3520 C   0  0  1  0  0  3  0  0  0  0  0  0
  189.4690  176.1630  142.8330 C   0  0  1  0  0  3  0  0  0  0  0  0
  191.1490  177.3490  141.3330 C   0  0  2  0  0  3  0  0  0  0  0  0
  188.6150  175.0120  137.5990 C   0  0  0  0  0  2  0  0  0  0  0  0
  191.8280  175.3530  137.8830 C   0  0  0  0  0  2  0  0  0  0  0  0
  190.5630  176.0030  141.7810 C   0  0  0  0  0  2  0  0  0  0  0  0
  188.8430  178.4370  141.8070 C   0  0  1  0  0  3  0  0  0  0  0  0
  189.1280  179.3000  142.9430 N   0  0  0  0  0  1  0  0  0  0  0  0
  189.8640  178.0950  139.4260 C   0  0  1  0  0  3  0  0  0  0  0  0
  190.5010  172.9940  135.0900 C   0  0  0  0  0  1  0  0  0  0  0  0
  190.0870  178.3420  140.9090 C   0  0  2  0  0  3  0  0  0  0  0  0
  191.7650  174.6660  136.5210 C   0  0  1  0  0  3  0  0  0  0  0  0
  192.9920  173.8130  136.4070 C   0  0  0  0  0  3  0  0  0  0  0  0
  193.9320  173.8400  137.3500 C   0  0  0  0  0  3  0  0  0  0  0  0
  195.1430  172.9850  137.2160 C   0  0  0  0  0  1  0  0  0  0  0  0
  190.0620  176.6640  144.1480 C   0  0  0  0  0  2  0  0  0  0  0  0
  191.6810  176.5310  145.6400 C   0  0  0  0  0  1  0  0  0  0  0  0
  191.2840  176.0410  144.3960 O   0  0  0  0  0  0  0  0  0  0  0  0
  187.6510  177.6730  138.2310 C   0  0  1  0  0  3  0  0  0  0  0  0
  185.6630  179.0020  138.2890 O   0  0  0  0  0  1  0  0  0  0  0  0
  186.4950  178.1990  139.0690 C   0  0  0  0  0  2  0  0  0  0  0  0
  188.1880  178.7520  137.2930 C   0  0  0  0  0  2  0  0  0  0  0  0
  188.5430  178.1930  136.0660 O   0  0  0  0  0  0  0  0  0  0  0  0
  187.3270  177.9430  135.4330 C   0  0  0  0  0  1  0  0  0  0  0  0
  1 17  1  0  0  0  0
  1  4  1  1  0  0  0
  2 12  1  6  0  0  0
  2  8  1  0  0  0  0
  3 10  1  0  0  0  0
  3  7  1  1  0  0  0
  5 13  1  1  0  0  0
  5  2  1  0  0  0  0
  5  1  1  0  0  0  0
  6  9  1  0  0  0  0
  6 12  1  0  0  0  0
  8 27  1  6  0  0  0
  8 17  1  0  0  0  0
  9 18  1  6  0  0  0
  9 20  1  0  0  0  0
 10 24  1  1  0  0  0
 11  4  1  6  0  0  0
 11 14  1  0  0  0  0
 14 10  1  0  0  0  0
 15  3  1  0  0  0  0
 15 16  1  1  0  0  0
 17 19  1  0  0  0  0
 19 11  1  0  0  0  0
 19 15  1  0  0  0  0
 20 13  1  0  0  0  0
 21 20  1  0  0  0  0
 21 22  2  0  0  0  0
 23 22  1  0  0  0  0
 24 26  1  0  0  0  0
 26 25  1  0  0  0  0
 27 29  1  0  0  0  0
 28 29  1  0  0  0  0
 30 27  1  0  0  0  0
 31 30  1  0  0  0  0
 32 31  1  0  0  0  0
M  END
>  <MODEL>
5

>  <REMARK>
 VINA RESULT:      -5.3      2.232      7.590
  Name = 
  7 active torsions:
  status: ('A' for Active; 'I' for Inactive)
    1  A    between atoms: C_10  and  C_28
    2  A    between atoms: O_11  and  C_12
    3  A    between atoms: C_12  and  C_28
    4  A    between atoms: C_14  and  C_29
    5  A    between atoms: C_15  and  C_19
    6  A    between atoms: C_19  and  O_26
    7  A    between atoms: C_28  and  C_32
                            x       y       z     vdW  Elec       q    Type
                         _______ _______ _______ _____ _____    ______ ____

>  <TORSDO>
F 7

$$$$
=
 OpenBabel10262421063D

 32 35  0  0  1  0  0  0  0  0999 V2000
  183.5900  178.6020  137.8760 N   0  0  1  0  0  0  0  0  0  0  0  0
  183.0130  176.3220  138.3730 C   0  0  1  0  0  3  0  0  0  0  0  0
  180.9180  178.1080  141.3290 C   0  0  2  0  0  3  0  0  0  0  0  0
  184.3160  179.1130  139.0550 C   0  0  0  0  0  2  0  0  0  0  0  0
  183.9430  177.2050  137.5710 C   0  0  2  0  0  3  0  0  0  0  0  0
  183.7340  174.4820  136.7100 C   0  0  0  0  0  2  0  0  0  0  0  0
  179.6850  177.8960  142.1910 C   0  0  0  0  0  1  0  0  0  0  0  0
  181.7250  177.1290  138.4450 C   0  0  1  0  0  3  0  0  0  0  0  0
  185.2030  174.4150  137.1100 C   0  0  1  0  0  3  0  0  0  0  0  0
  182.2220  178.1890  142.1360 C   0  0  1  0  0  3  0  0  0  0  0  0
  183.3340  179.3800  140.1810 C   0  0  2  0  0  3  0  0  0  0  0  0
  182.8470  174.8700  137.8880 C   0  0  0  0  0  2  0  0  0  0  0  0
  185.4130  176.8520  137.8050 C   0  0  0  0  0  2  0  0  0  0  0  0
  183.4060  178.2120  141.1730 C   0  0  0  0  0  2  0  0  0  0  0  0
  180.7480  179.2510  140.3160 C   0  0  1  0  0  3  0  0  0  0  0  0
  180.4030  180.4970  140.9830 N   0  0  0  0  0  1  0  0  0  0  0  0
  182.1610  178.5880  138.2210 C   0  0  1  0  0  3  0  0  0  0  0  0
  185.8330  173.2900  136.3030 C   0  0  0  0  0  1  0  0  0  0  0  0
  182.0060  179.4570  139.4580 C   0  0  2  0  0  3  0  0  0  0  0  0
  185.8990  175.7680  136.8480 C   0  0  1  0  0  3  0  0  0  0  0  0
  187.3860  175.6770  137.0130 C   0  0  0  0  0  3  0  0  0  0  0  0
  188.0820  176.7000  137.5010 C   0  0  0  0  0  3  0  0  0  0  0  0
  189.5590  176.5890  137.6560 C   0  0  0  0  0  1  0  0  0  0  0  0
  182.2900  179.3770  143.0930 C   0  0  0  0  0  2  0  0  0  0  0  0
  183.9820  179.3440  144.5070 C   0  0  0  0  0  1  0  0  0  0  0  0
  182.6520  178.9490  144.3700 O   0  0  0  0  0  0  0  0  0  0  0  0
  180.6380  176.6950  137.4430 C   0  0  1  0  0  3  0  0  0  0  0  0
  179.5740  175.6280  139.3010 O   0  0  0  0  0  1  0  0  0  0  0  0
  179.3330  176.4110  138.1720 C   0  0  0  0  0  2  0  0  0  0  0  0
  180.4330  177.7100  136.3200 C   0  0  0  0  0  2  0  0  0  0  0  0
  181.1290  177.3140  135.1790 O   0  0  0  0  0  0  0  0  0  0  0  0
  181.5440  178.5090  134.5940 C   0  0  0  0  0  1  0  0  0  0  0  0
  1 17  1  0  0  0  0
  1  4  1  1  0  0  0
  2 12  1  6  0  0  0
  2  8  1  0  0  0  0
  3 10  1  0  0  0  0
  3  7  1  1  0  0  0
  5 13  1  1  0  0  0
  5  1  1  0  0  0  0
  5  2  1  0  0  0  0
  6  9  1  0  0  0  0
  6 12  1  0  0  0  0
  8 27  1  6  0  0  0
  9 18  1  6  0  0  0
 10 24  1  6  0  0  0
 11  4  1  6  0  0  0
 11 14  1  0  0  0  0
 14 10  1  0  0  0  0
 15 16  1  1  0  0  0
 15  3  1  0  0  0  0
 17  8  1  0  0  0  0
 17 19  1  0  0  0  0
 19 11  1  0  0  0  0
 19 15  1  0  0  0  0
 20 21  1  0  0  0  0
 20  9  1  0  0  0  0
 20 13  1  0  0  0  0
 21 22  2  0  0  0  0
 22 23  1  0  0  0  0
 24 26  1  0  0  0  0
 26 25  1  0  0  0  0
 27 29  1  0  0  0  0
 29 28  1  0  0  0  0
 30 27  1  0  0  0  0
 31 30  1  0  0  0  0
 32 31  1  0  0  0  0
M  END
>  <MODEL>
6

>  <REMARK>
 VINA RESULT:      -5.2      4.486      9.543
  Name = 
  7 active torsions:
  status: ('A' for Active; 'I' for Inactive)
    1  A    between atoms: C_10  and  C_28
    2  A    between atoms: O_11  and  C_12
    3  A    between atoms: C_12  and  C_28
    4  A    between atoms: C_14  and  C_29
    5  A    between atoms: C_15  and  C_19
    6  A    between atoms: C_19  and  O_26
    7  A    between atoms: C_28  and  C_32
                            x       y       z     vdW  Elec       q    Type
                         _______ _______ _______ _____ _____    ______ ____

>  <TORSDO>
F 7

$$$$
=
 OpenBabel10262421063D

 32 35  0  0  1  0  0  0  0  0999 V2000
  185.4420  176.2480  135.1610 N   0  0  1  0  0  0  0  0  0  0  0  0
  184.6500  175.4810  137.2970 C   0  0  1  0  0  3  0  0  0  0  0  0
  187.7350  177.7400  138.6000 C   0  0  2  0  0  3  0  0  0  0  0  0
  186.8160  175.7300  135.0180 C   0  0  0  0  0  2  0  0  0  0  0  0
  184.5460  175.2720  135.8040 C   0  0  2  0  0  3  0  0  0  0  0  0
  182.4310  174.1640  137.3830 C   0  0  0  0  0  2  0  0  0  0  0  0
  188.1760  178.5430  139.8130 C   0  0  0  0  0  1  0  0  0  0  0  0
  184.9100  176.9740  137.4340 C   0  0  1  0  0  3  0  0  0  0  0  0
  182.9680  172.8320  136.8720 C   0  0  1  0  0  3  0  0  0  0  0  0
  188.6680  176.5650  138.2730 C   0  0  1  0  0  3  0  0  0  0  0  0
  187.7580  176.5310  135.8970 C   0  0  2  0  0  3  0  0  0  0  0  0
  183.4920  174.9400  138.1560 C   0  0  0  0  0  2  0  0  0  0  0  0
  184.8000  173.8170  135.4090 C   0  0  0  0  0  2  0  0  0  0  0  0
  188.0400  175.7200  137.1690 C   0  0  0  0  0  2  0  0  0  0  0  0
  187.4070  178.6240  137.3870 C   0  0  1  0  0  3  0  0  0  0  0  0
  188.5390  179.4630  137.0260 N   0  0  0  0  0  1  0  0  0  0  0  0
  185.5070  177.3950  136.0800 C   0  0  1  0  0  3  0  0  0  0  0  0
  181.8200  171.8360  136.9320 C   0  0  0  0  0  1  0  0  0  0  0  0
  186.9710  177.7960  136.1680 C   0  0  2  0  0  3  0  0  0  0  0  0
  183.5210  172.9850  135.4390 C   0  0  1  0  0  3  0  0  0  0  0  0
  183.8480  171.6610  134.8190 C   0  0  0  0  0  3  0  0  0  0  0  0
  184.8980  170.9540  135.2320 C   0  0  0  0  0  3  0  0  0  0  0  0
  185.2050  169.6410  134.6020 C   0  0  0  0  0  1  0  0  0  0  0  0
  190.0850  176.9840  137.8860 C   0  0  0  0  0  2  0  0  0  0  0  0
  192.1590  176.2360  137.8390 C   0  0  0  0  0  1  0  0  0  0  0  0
  191.0210  176.2810  138.6430 O   0  0  0  0  0  0  0  0  0  0  0  0
  183.6700  177.8120  137.7990 C   0  0  1  0  0  3  0  0  0  0  0  0
  182.9840  179.7500  139.0220 O   0  0  0  0  0  1  0  0  0  0  0  0
  184.0170  178.8250  138.8800 C   0  0  0  0  0  2  0  0  0  0  0  0
  183.0420  178.4950  136.5850 C   0  0  0  0  0  2  0  0  0  0  0  0
  181.7820  177.9570  136.3270 O   0  0  0  0  0  0  0  0  0  0  0  0
  181.0660  179.0080  135.7570 C   0  0  0  0  0  1  0  0  0  0  0  0
  1  4  1  1  0  0  0
  1  5  1  0  0  0  0
  1 17  1  0  0  0  0
  2  8  1  0  0  0  0
  2 12  1  1  0  0  0
  3  7  1  1  0  0  0
  5 13  1  1  0  0  0
  5  2  1  0  0  0  0
  6 12  1  0  0  0  0
  8 27  1  6  0  0  0
  9 18  1  6  0  0  0
  9  6  1  0  0  0  0
 10 24  1  6  0  0  0
 10  3  1  0  0  0  0
 11  4  1  6  0  0  0
 11 19  1  0  0  0  0
 11 14  1  0  0  0  0
 13 20  1  0  0  0  0
 14 10  1  0  0  0  0
 15 16  1  6  0  0  0
 15  3  1  0  0  0  0
 17 19  1  0  0  0  0
 17  8  1  0  0  0  0
 19 15  1  0  0  0  0
 20  9  1  0  0  0  0
 21 22  2  0  0  0  0
 21 20  1  0  0  0  0
 23 22  1  0  0  0  0
 24 26  1  0  0  0  0
 25 26  1  0  0  0  0
 27 29  1  0  0  0  0
 29 28  1  0  0  0  0
 30 27  1  0  0  0  0
 31 30  1  0  0  0  0
 32 31  1  0  0  0  0
M  END
>  <MODEL>
7

>  <REMARK>
 VINA RESULT:      -5.2      3.941      7.682
  Name = 
  7 active torsions:
  status: ('A' for Active; 'I' for Inactive)
    1  A    between atoms: C_10  and  C_28
    2  A    between atoms: O_11  and  C_12
    3  A    between atoms: C_12  and  C_28
    4  A    between atoms: C_14  and  C_29
    5  A    between atoms: C_15  and  C_19
    6  A    between atoms: C_19  and  O_26
    7  A    between atoms: C_28  and  C_32
                            x       y       z     vdW  Elec       q    Type
                         _______ _______ _______ _____ _____    ______ ____

>  <TORSDO>
F 7

$$$$
=
 OpenBabel10262421063D

 32 35  0  0  1  0  0  0  0  0999 V2000
  190.2940  177.3770  137.8600 N   0  0  1  0  0  0  0  0  0  0  0  0
  188.5620  175.7140  137.9680 C   0  0  1  0  0  3  0  0  0  0  0  0
  187.7970  177.5750  141.4700 C   0  0  2  0  0  3  0  0  0  0  0  0
  191.1840  177.1240  139.0110 C   0  0  0  0  0  2  0  0  0  0  0  0
  189.8210  176.1280  137.2410 C   0  0  2  0  0  3  0  0  0  0  0  0
  188.1500  174.2330  135.8920 C   0  0  0  0  0  2  0  0  0  0  0  0
  186.6520  177.8530  142.4300 C   0  0  0  0  0  1  0  0  0  0  0  0
  187.9280  177.0380  138.3690 C   0  0  1  0  0  3  0  0  0  0  0  0
  189.3430  173.3010  136.0720 C   0  0  1  0  0  3  0  0  0  0  0  0
  188.9340  176.7540  142.0970 C   0  0  1  0  0  3  0  0  0  0  0  0
  190.5120  177.5950  140.2870 C   0  0  2  0  0  3  0  0  0  0  0  0
  187.6250  174.7390  137.2320 C   0  0  0  0  0  2  0  0  0  0  0  0
  190.8570  175.0030  137.2020 C   0  0  0  0  0  2  0  0  0  0  0  0
  189.9330  176.3710  141.0090 C   0  0  0  0  0  2  0  0  0  0  0  0
  188.2790  178.8350  140.7360 C   0  0  1  0  0  3  0  0  0  0  0  0
  188.6760  179.8720  141.6770 N   0  0  0  0  0  1  0  0  0  0  0  0
  189.0920  178.0440  138.3830 C   0  0  1  0  0  3  0  0  0  0  0  0
  189.2490  172.2440  134.9820 C   0  0  0  0  0  1  0  0  0  0  0  0
  189.4420  178.5380  139.7760 C   0  0  2  0  0  3  0  0  0  0  0  0
  190.6660  174.0910  135.9930 C   0  0  1  0  0  3  0  0  0  0  0  0
  191.8590  173.1870  135.9380 C   0  0  0  0  0  3  0  0  0  0  0  0
  193.0140  173.5450  136.4930 C   0  0  0  0  0  3  0  0  0  0  0  0
  194.1870  172.6310  136.4260 C   0  0  0  0  0  1  0  0  0  0  0  0
  189.6440  177.4540  143.2540 C   0  0  0  0  0  2  0  0  0  0  0  0
  188.9780  177.7100  145.3400 C   0  0  0  0  0  1  0  0  0  0  0  0
  189.4430  176.7520  144.4410 O   0  0  0  0  0  0  0  0  0  0  0  0
  186.7790  177.5030  137.4550 C   0  0  1  0  0  3  0  0  0  0  0  0
  185.4460  179.2530  138.3970 O   0  0  0  0  0  1  0  0  0  0  0  0
  185.5570  177.8670  138.2870 C   0  0  0  0  0  2  0  0  0  0  0  0
  187.1850  178.6570  136.5380 C   0  0  0  0  0  2  0  0  0  0  0  0
  187.5420  178.1710  135.2810 O   0  0  0  0  0  0  0  0  0  0  0  0
  186.4280  177.4480  134.8580 C   0  0  0  0  0  1  0  0  0  0  0  0
  1 17  1  0  0  0  0
  1  4  1  1  0  0  0
  2 12  1  6  0  0  0
  2  8  1  0  0  0  0
  3 10  1  0  0  0  0
  3  7  1  1  0  0  0
  5 13  1  1  0  0  0
  5  1  1  0  0  0  0
  5  2  1  0  0  0  0
  6  9  1  0  0  0  0
  6 12  1  0  0  0  0
  8 27  1  6  0  0  0
  8 17  1  0  0  0  0
  9 18  1  6  0  0  0
 10 24  1  1  0  0  0
 11  4  1  6  0  0  0
 11 14  1  0  0  0  0
 14 10  1  0  0  0  0
 15  3  1  0  0  0  0
 15 16  1  1  0  0  0
 17 19  1  0  0  0  0
 19 11  1  0  0  0  0
 19 15  1  0  0  0  0
 20  9  1  0  0  0  0
 20 13  1  0  0  0  0
 21 20  1  0  0  0  0
 21 22  2  0  0  0  0
 23 22  1  0  0  0  0
 24 26  1  0  0  0  0
 26 25  1  0  0  0  0
 27 29  1  0  0  0  0
 29 28  1  0  0  0  0
 30 27  1  0  0  0  0
 31 30  1  0  0  0  0
 32 31  1  0  0  0  0
M  END
>  <MODEL>
8

>  <REMARK>
 VINA RESULT:      -5.2      2.136      7.592
  Name = 
  7 active torsions:
  status: ('A' for Active; 'I' for Inactive)
    1  A    between atoms: C_10  and  C_28
    2  A    between atoms: O_11  and  C_12
    3  A    between atoms: C_12  and  C_28
    4  A    between atoms: C_14  and  C_29
    5  A    between atoms: C_15  and  C_19
    6  A    between atoms: C_19  and  O_26
    7  A    between atoms: C_28  and  C_32
                            x       y       z     vdW  Elec       q    Type
                         _______ _______ _______ _____ _____    ______ ____

>  <TORSDO>
F 7

$$$$
=
 OpenBabel10262421063D

 32 35  0  0  1  0  0  0  0  0999 V2000
  188.4050  178.7860  138.9300 N   0  0  1  0  0  0  0  0  0  0  0  0
  189.2420  176.9010  140.1640 C   0  0  1  0  0  3  0  0  0  0  0  0
  189.5010  175.3250  136.4540 C   0  0  2  0  0  3  0  0  0  0  0  0
  187.1700  178.3280  138.2610 C   0  0  0  0  0  2  0  0  0  0  0  0
  188.5360  178.2320  140.2880 C   0  0  2  0  0  3  0  0  0  0  0  0
  189.6950  177.1900  142.6900 C   0  0  0  0  0  2  0  0  0  0  0  0
  190.2970  174.2990  135.6640 C   0  0  0  0  0  1  0  0  0  0  0  0
  190.1690  177.0950  138.9730 C   0  0  1  0  0  3  0  0  0  0  0  0
  188.2470  177.1190  143.1620 C   0  0  1  0  0  3  0  0  0  0  0  0
  188.0030  175.0010  136.5410 C   0  0  1  0  0  3  0  0  0  0  0  0
  187.5280  177.4410  137.0840 C   0  0  2  0  0  3  0  0  0  0  0  0
  189.9180  176.3540  141.4350 C   0  0  0  0  0  2  0  0  0  0  0  0
  187.2210  178.1150  141.0590 C   0  0  0  0  0  2  0  0  0  0  0  0
  187.3350  175.9780  137.5040 C   0  0  0  0  0  2  0  0  0  0  0  0
  189.7960  176.7700  136.0220 C   0  0  1  0  0  3  0  0  0  0  0  0
  189.5470  176.9540  134.6000 N   0  0  0  0  0  1  0  0  0  0  0  0
  189.5370  178.2410  138.1650 C   0  0  1  0  0  3  0  0  0  0  0  0
  188.2720  177.1710  144.6820 C   0  0  0  0  0  1  0  0  0  0  0  0
  188.9780  177.7930  136.8240 C   0  0  2  0  0  3  0  0  0  0  0  0
  187.4240  178.2790  142.5630 C   0  0  1  0  0  3  0  0  0  0  0  0
  186.0610  178.3780  143.1770 C   0  0  0  0  0  3  0  0  0  0  0  0
  184.9890  178.6180  142.4260 C   0  0  0  0  0  3  0  0  0  0  0  0
  183.6440  178.7120  143.0570 C   0  0  0  0  0  1  0  0  0  0  0  0
  187.2850  175.0040  135.1930 C   0  0  0  0  0  2  0  0  0  0  0  0
  185.5040  173.8480  134.5950 C   0  0  0  0  0  1  0  0  0  0  0  0
  186.8660  173.7150  134.8660 O   0  0  0  0  0  0  0  0  0  0  0  0
  191.6340  177.3940  139.3420 C   0  0  1  0  0  3  0  0  0  0  0  0
  193.1280  177.3950  141.2110 O   0  0  0  0  0  1  0  0  0  0  0  0
  191.7850  177.5070  140.8520 C   0  0  0  0  0  2  0  0  0  0  0  0
  192.6090  176.3680  138.7660 C   0  0  0  0  0  2  0  0  0  0  0  0
  193.5480  176.9990  137.9520 O   0  0  0  0  0  0  0  0  0  0  0  0
  193.4650  176.3210  136.7370 C   0  0  0  0  0  1  0  0  0  0  0  0
  1  4  1  6  0  0  0
  1  5  1  0  0  0  0
  2  5  1  0  0  0  0
  2 12  1  1  0  0  0
  3  7  1  6  0  0  0
  3 10  1  0  0  0  0
  5 13  1  6  0  0  0
  6  9  1  0  0  0  0
  8 27  1  1  0  0  0
  8  2  1  0  0  0  0
  9 18  1  1  0  0  0
 10 24  1  6  0  0  0
 10 14  1  0  0  0  0
 11 14  1  1  0  0  0
 11  4  1  0  0  0  0
 12  6  1  0  0  0  0
 13 20  1  0  0  0  0
 15 16  1  6  0  0  0
 15  3  1  0  0  0  0
 15 19  1  0  0  0  0
 17  1  1  0  0  0  0
 17  8  1  0  0  0  0
 19 11  1  0  0  0  0
 19 17  1  0  0  0  0
 20  9  1  0  0  0  0
 20 21  1  0  0  0  0
 22 23  1  0  0  0  0
 22 21  2  0  0  0  0
 25 26  1  0  0  0  0
 26 24  1  0  0  0  0
 27 29  1  0  0  0  0
 29 28  1  0  0  0  0
 30 27  1  0  0  0  0
 31 30  1  0  0  0  0
 32 31  1  0  0  0  0
M  END
>  <MODEL>
9

>  <REMARK>
 VINA RESULT:      -5.1      1.281      2.176
  Name = 
  7 active torsions:
  status: ('A' for Active; 'I' for Inactive)
    1  A    between atoms: C_10  and  C_28
    2  A    between atoms: O_11  and  C_12
    3  A    between atoms: C_12  and  C_28
    4  A    between atoms: C_14  and  C_29
    5  A    between atoms: C_15  and  C_19
    6  A    between atoms: C_19  and  O_26
    7  A    between atoms: C_28  and  C_32
                            x       y       z     vdW  Elec       q    Type
                         _______ _______ _______ _____ _____    ______ ____

>  <TORSDO>
F 7

$$$$
