=
 OpenBabel10262423193D

 34 37  0  0  0  0  0  0  0  0999 V2000
  185.1810  178.2300  142.8990 C   0  0  0  0  0  0  0  0  0  0  0  0
  181.5150  179.2390  143.2500 C   0  0  0  0  0  3  0  0  0  0  0  0
  180.6190  178.0820  141.1150 C   0  0  0  0  0  0  0  0  0  0  0  0
  183.3090  178.9260  144.8430 N   0  0  0  0  0  0  0  0  0  0  0  0
  186.8190  177.8770  144.7160 C   0  0  0  0  0  3  0  0  0  0  0  0
  186.1630  178.2410  147.0150 C   0  0  0  0  0  3  0  0  0  0  0  0
  181.2210  176.0680  139.6410 C   0  0  0  0  0  1  0  0  0  0  0  0
  187.1340  177.8880  146.0770 C   0  0  0  0  0  3  0  0  0  0  0  0
  184.5600  178.5810  145.2330 C   0  0  0  0  0  0  0  0  0  0  0  0
  185.5310  178.2120  144.2720 C   0  0  0  0  0  0  0  0  0  0  0  0
  184.8790  178.5880  146.5930 C   0  0  0  0  0  3  0  0  0  0  0  0
  180.9670  178.7120  142.1970 C   0  0  0  0  0  0  0  0  0  0  0  0
  179.1690  177.9440  140.7950 C   0  0  0  0  0  1  0  0  0  0  0  0
  181.6450  177.2710  140.4090 C   0  0  0  0  0  0  0  0  0  0  0  0
  182.9580  177.5640  140.4220 C   0  0  0  0  0  3  0  0  0  0  0  0
  182.9320  178.9430  143.5400 C   0  0  0  0  0  0  0  0  0  0  0  0
  183.5660  178.7850  141.0610 C   0  0  0  0  0  2  0  0  0  0  0  0
  183.8790  178.6180  142.5300 C   0  0  0  0  0  0  0  0  0  0  0  0
  186.0720  177.8930  141.8640 O   0  0  0  0  0  0  0  0  0  0  0  0
  187.0230  178.7760  141.2830 C   0  0  0  0  0  2  0  0  0  0  0  0
  188.0310  177.9900  140.4560 C   0  0  0  0  0  2  0  0  0  0  0  0
  191.6980  177.3100  141.1220 C   0  0  0  0  0  3  0  0  0  0  0  0
  189.4400  178.1570  142.5350 C   0  0  0  0  0  3  0  0  0  0  0  0
  191.7910  177.5820  142.4910 C   0  0  0  0  0  3  0  0  0  0  0  0
  190.6620  178.0020  143.1990 C   0  0  0  0  0  0  0  0  0  0  0  0
  189.3410  177.8700  141.1670 C   0  0  0  0  0  0  0  0  0  0  0  0
  190.4740  177.4520  140.4610 C   0  0  0  0  0  3  0  0  0  0  0  0
  190.7560  178.2630  144.6640 C   0  0  0  0  0  2  0  0  0  0  0  0
  191.3570  176.7680  146.6250 C   0  0  0  0  0  0  0  0  0  0  0  0
  190.3410  177.1460  147.2700 O   0  0  0  0  0  0  0  0  0  0  0  0
  191.6000  177.2620  145.3060 N   0  0  0  0  0  2  0  0  0  0  0  0
  192.2910  175.8110  147.2230 C   0  0  0  0  0  0  0  0  0  0  0  0
  192.8500  176.0680  148.3220 O   0  0  0  0  0  0  0  0  0  0  0  0
  192.5560  174.6400  146.5960 F   0  0  0  0  0  0  0  0  0  0  0  0
  1 10  1  0  0  0  0
  2 16  1  0  0  0  0
  3 12  2  0  0  0  0
  4  9  1  0  0  0  0
  5  8  1  0  0  0  0
  7 14  1  0  0  0  0
  8  6  2  0  0  0  0
  9 11  2  0  0  0  0
 10  5  2  0  0  0  0
 10  9  1  0  0  0  0
 11  6  1  0  0  0  0
 12  2  2  0  0  0  0
 13  3  1  0  0  0  0
 14 15  2  0  0  0  0
 14  3  1  0  0  0  0
 15 17  1  0  0  0  0
 16  4  2  0  0  0  0
 17 18  1  0  0  0  0
 18  1  2  0  0  0  0
 18 16  1  0  0  0  0
 19  1  1  0  0  0  0
 20 19  1  0  0  0  0
 21 26  1  0  0  0  0
 21 20  1  0  0  0  0
 22 24  1  0  0  0  0
 23 25  1  0  0  0  0
 24 25  2  0  0  0  0
 25 28  1  0  0  0  0
 26 23  2  0  0  0  0
 27 22  2  0  0  0  0
 27 26  1  0  0  0  0
 28 31  1  0  0  0  0
 29 32  1  0  0  0  0
 29 30  2  0  0  0  0
 31 29  1  0  0  0  0
 32 33  2  0  0  0  0
 34 32  1  0  0  0  0
M  END
>  <MODEL>
1

>  <REMARK>
 VINA RESULT:     -10.3      0.000      0.000
  Name = 
  7 active torsions:
  status: ('A' for Active; 'I' for Inactive)
    1  A    between atoms: C_1  and  O_9
    2  A    between atoms: C_7  and  C_11
    3  A    between atoms: C_8  and  O_9
    4  A    between atoms: C_8  and  C_18
    5  A    between atoms: C_18  and  C_30
    6  A    between atoms: C_26  and  C_28
    7  A    between atoms: C_26  and  N_29
                            x       y       z     vdW  Elec       q    Type
                         _______ _______ _______ _____ _____    ______ ____

>  <TORSDO>
F 7

$$$$
=
 OpenBabel10262423193D

 34 37  0  0  0  0  0  0  0  0999 V2000
  187.8960  177.1230  144.8230 C   0  0  0  0  0  0  0  0  0  0  0  0
  191.5270  176.6940  143.7240 C   0  0  0  0  0  3  0  0  0  0  0  0
  191.1990  177.1870  141.2040 C   0  0  0  0  0  0  0  0  0  0  0  0
  190.4910  177.3080  145.8220 N   0  0  0  0  0  0  0  0  0  0  0  0
  187.0770  177.8640  147.0350 C   0  0  0  0  0  3  0  0  0  0  0  0
  188.6540  178.3420  148.8050 C   0  0  0  0  0  3  0  0  0  0  0  0
  189.5970  178.5330  139.7160 C   0  0  0  0  0  1  0  0  0  0  0  0
  187.3380  178.2620  148.3490 C   0  0  0  0  0  3  0  0  0  0  0  0
  189.4530  177.6200  146.6360 C   0  0  0  0  0  0  0  0  0  0  0  0
  188.1240  177.5480  146.1560 C   0  0  0  0  0  0  0  0  0  0  0  0
  189.7100  178.0210  147.9490 C   0  0  0  0  0  3  0  0  0  0  0  0
  191.4700  176.9080  142.4440 C   0  0  0  0  0  0  0  0  0  0  0  0
  192.3240  177.3730  140.2440 C   0  0  0  0  0  1  0  0  0  0  0  0
  189.8150  177.6060  140.8610 C   0  0  0  0  0  0  0  0  0  0  0  0
  188.7270  177.1900  141.5330 C   0  0  0  0  0  3  0  0  0  0  0  0
  190.3140  176.9110  144.5370 C   0  0  0  0  0  0  0  0  0  0  0  0
  188.7340  176.1830  142.6550 C   0  0  0  0  0  2  0  0  0  0  0  0
  188.9980  176.7830  144.0160 C   0  0  0  0  0  0  0  0  0  0  0  0
  186.6160  177.0060  144.2520 O   0  0  0  0  0  0  0  0  0  0  0  0
  185.9460  178.0310  143.5280 C   0  0  0  0  0  2  0  0  0  0  0  0
  184.9190  178.7160  144.4210 C   0  0  0  0  0  2  0  0  0  0  0  0
  181.1600  178.7010  143.9540 C   0  0  0  0  0  3  0  0  0  0  0  0
  183.4610  178.8600  142.3740 C   0  0  0  0  0  3  0  0  0  0  0  0
  181.0480  178.7830  142.5620 C   0  0  0  0  0  3  0  0  0  0  0  0
  182.1990  178.8600  141.7710 C   0  0  0  0  0  0  0  0  0  0  0  0
  183.5750  178.7610  143.7680 C   0  0  0  0  0  0  0  0  0  0  0  0
  182.4220  178.6870  144.5550 C   0  0  0  0  0  3  0  0  0  0  0  0
  182.0790  178.9180  140.2860 C   0  0  0  0  0  2  0  0  0  0  0  0
  184.2680  178.9820  139.0040 C   0  0  0  0  0  0  0  0  0  0  0  0
  184.2720  180.2430  139.0050 O   0  0  0  0  0  0  0  0  0  0  0  0
  183.2190  178.2630  139.6580 N   0  0  0  0  0  2  0  0  0  0  0  0
  185.3450  178.2450  138.3400 C   0  0  0  0  0  0  0  0  0  0  0  0
  186.5330  178.6610  138.3980 O   0  0  0  0  0  0  0  0  0  0  0  0
  185.0690  177.1070  137.6580 F   0  0  0  0  0  0  0  0  0  0  0  0
  1 10  1  0  0  0  0
  2 16  1  0  0  0  0
  3 12  2  0  0  0  0
  4  9  1  0  0  0  0
  5  8  1  0  0  0  0
  7 14  1  0  0  0  0
  8  6  2  0  0  0  0
  9 11  2  0  0  0  0
 10  9  1  0  0  0  0
 10  5  2  0  0  0  0
 11  6  1  0  0  0  0
 12  2  2  0  0  0  0
 13  3  1  0  0  0  0
 14  3  1  0  0  0  0
 14 15  2  0  0  0  0
 15 17  1  0  0  0  0
 16  4  2  0  0  0  0
 17 18  1  0  0  0  0
 18 16  1  0  0  0  0
 18  1  2  0  0  0  0
 19  1  1  0  0  0  0
 20 19  1  0  0  0  0
 20 21  1  0  0  0  0
 22 27  1  0  0  0  0
 23 26  1  0  0  0  0
 24 22  2  0  0  0  0
 25 23  2  0  0  0  0
 25 24  1  0  0  0  0
 26 21  1  0  0  0  0
 26 27  2  0  0  0  0
 28 25  1  0  0  0  0
 29 30  2  0  0  0  0
 29 31  1  0  0  0  0
 31 28  1  0  0  0  0
 32 33  2  0  0  0  0
 32 29  1  0  0  0  0
 34 32  1  0  0  0  0
M  END
>  <MODEL>
2

>  <REMARK>
 VINA RESULT:      -9.9      3.110      8.263
  Name = 
  7 active torsions:
  status: ('A' for Active; 'I' for Inactive)
    1  A    between atoms: C_1  and  O_9
    2  A    between atoms: C_7  and  C_11
    3  A    between atoms: C_8  and  O_9
    4  A    between atoms: C_8  and  C_18
    5  A    between atoms: C_18  and  C_30
    6  A    between atoms: C_26  and  C_28
    7  A    between atoms: C_26  and  N_29
                            x       y       z     vdW  Elec       q    Type
                         _______ _______ _______ _____ _____    ______ ____

>  <TORSDO>
F 7

$$$$
=
 OpenBabel10262423193D

 34 37  0  0  0  0  0  0  0  0999 V2000
  185.4980  178.1950  143.1100 C   0  0  0  0  0  0  0  0  0  0  0  0
  181.8710  179.3550  143.3910 C   0  0  0  0  0  3  0  0  0  0  0  0
  180.9710  178.2400  141.2350 C   0  0  0  0  0  0  0  0  0  0  0  0
  183.6180  178.9630  145.0180 N   0  0  0  0  0  0  0  0  0  0  0  0
  187.0840  177.7700  144.9590 C   0  0  0  0  0  3  0  0  0  0  0  0
  186.3970  178.1560  147.2450 C   0  0  0  0  0  3  0  0  0  0  0  0
  181.5180  176.2060  139.7680 C   0  0  0  0  0  1  0  0  0  0  0  0
  187.3710  177.7640  146.3260 C   0  0  0  0  0  3  0  0  0  0  0  0
  184.8460  178.5670  145.4320 C   0  0  0  0  0  0  0  0  0  0  0  0
  185.8200  178.1590  144.4900 C   0  0  0  0  0  0  0  0  0  0  0  0
  185.1370  178.5570  146.7990 C   0  0  0  0  0  3  0  0  0  0  0  0
  181.3230  178.8530  142.3260 C   0  0  0  0  0  0  0  0  0  0  0  0
  179.5230  178.1630  140.8860 C   0  0  0  0  0  1  0  0  0  0  0  0
  181.9760  177.3890  140.5480 C   0  0  0  0  0  0  0  0  0  0  0  0
  183.2990  177.6270  140.5880 C   0  0  0  0  0  3  0  0  0  0  0  0
  183.2680  178.9990  143.7080 C   0  0  0  0  0  0  0  0  0  0  0  0
  183.9450  178.8200  141.2420 C   0  0  0  0  0  2  0  0  0  0  0  0
  184.2210  178.6380  142.7170 C   0  0  0  0  0  0  0  0  0  0  0  0
  186.3950  177.8220  142.0920 O   0  0  0  0  0  0  0  0  0  0  0  0
  187.2600  178.7130  141.3990 C   0  0  0  0  0  2  0  0  0  0  0  0
  187.3670  178.3050  139.9350 C   0  0  0  0  0  2  0  0  0  0  0  0
  190.1870  176.5640  138.1000 C   0  0  0  0  0  3  0  0  0  0  0  0
  189.7480  177.7930  140.5720 C   0  0  0  0  0  3  0  0  0  0  0  0
  191.2120  176.6080  139.0510 C   0  0  0  0  0  3  0  0  0  0  0  0
  190.9920  177.2200  140.2890 C   0  0  0  0  0  0  0  0  0  0  0  0
  188.7140  177.7350  139.6270 C   0  0  0  0  0  0  0  0  0  0  0  0
  188.9390  177.1240  138.3890 C   0  0  0  0  0  3  0  0  0  0  0  0
  192.0770  177.2410  141.3120 C   0  0  0  0  0  2  0  0  0  0  0  0
  191.4590  176.9960  143.7610 C   0  0  0  0  0  0  0  0  0  0  0  0
  191.8540  175.7980  143.7770 O   0  0  0  0  0  0  0  0  0  0  0  0
  191.5770  177.7800  142.5710 N   0  0  0  0  0  2  0  0  0  0  0  0
  190.8860  177.5960  144.9680 C   0  0  0  0  0  0  0  0  0  0  0  0
  190.9900  177.0130  146.0800 O   0  0  0  0  0  0  0  0  0  0  0  0
  190.2410  178.7850  144.8950 F   0  0  0  0  0  0  0  0  0  0  0  0
  1 10  1  0  0  0  0
  2 16  1  0  0  0  0
  3 12  2  0  0  0  0
  4  9  1  0  0  0  0
  5  8  1  0  0  0  0
  7 14  1  0  0  0  0
  8  6  2  0  0  0  0
  9 11  2  0  0  0  0
 10  5  2  0  0  0  0
 10  9  1  0  0  0  0
 11  6  1  0  0  0  0
 12  2  2  0  0  0  0
 13  3  1  0  0  0  0
 14 15  2  0  0  0  0
 14  3  1  0  0  0  0
 15 17  1  0  0  0  0
 16  4  2  0  0  0  0
 17 18  1  0  0  0  0
 18  1  2  0  0  0  0
 18 16  1  0  0  0  0
 19  1  1  0  0  0  0
 20 19  1  0  0  0  0
 21 20  1  0  0  0  0
 22 27  2  0  0  0  0
 22 24  1  0  0  0  0
 24 25  2  0  0  0  0
 25 23  1  0  0  0  0
 25 28  1  0  0  0  0
 26 21  1  0  0  0  0
 26 23  2  0  0  0  0
 27 26  1  0  0  0  0
 28 31  1  0  0  0  0
 29 30  2  0  0  0  0
 29 32  1  0  0  0  0
 31 29  1  0  0  0  0
 32 33  2  0  0  0  0
 34 32  1  0  0  0  0
M  END
>  <MODEL>
3

>  <REMARK>
 VINA RESULT:      -9.8      1.488      2.050
  Name = 
  7 active torsions:
  status: ('A' for Active; 'I' for Inactive)
    1  A    between atoms: C_1  and  O_9
    2  A    between atoms: C_7  and  C_11
    3  A    between atoms: C_8  and  O_9
    4  A    between atoms: C_8  and  C_18
    5  A    between atoms: C_18  and  C_30
    6  A    between atoms: C_26  and  C_28
    7  A    between atoms: C_26  and  N_29
                            x       y       z     vdW  Elec       q    Type
                         _______ _______ _______ _____ _____    ______ ____

>  <TORSDO>
F 7

$$$$
=
 OpenBabel10262423193D

 34 37  0  0  0  0  0  0  0  0999 V2000
  187.6860  178.2770  140.3800 C   0  0  0  0  0  0  0  0  0  0  0  0
  188.0330  178.1780  136.5780 C   0  0  0  0  0  3  0  0  0  0  0  0
  190.1500  176.6940  136.4510 C   0  0  0  0  0  0  0  0  0  0  0  0
  186.1500  178.4930  138.0640 N   0  0  0  0  0  0  0  0  0  0  0  0
  185.6030  178.5220  141.6890 C   0  0  0  0  0  3  0  0  0  0  0  0
  183.4890  178.7990  140.5470 C   0  0  0  0  0  3  0  0  0  0  0  0
  191.2900  174.8710  137.8540 C   0  0  0  0  0  1  0  0  0  0  0  0
  184.2180  178.6980  141.7330 C   0  0  0  0  0  3  0  0  0  0  0  0
  185.5310  178.5550  139.2680 C   0  0  0  0  0  0  0  0  0  0  0  0
  186.2800  178.4370  140.4630 C   0  0  0  0  0  0  0  0  0  0  0  0
  184.1450  178.7290  139.3170 C   0  0  0  0  0  3  0  0  0  0  0  0
  189.0990  177.4560  136.4040 C   0  0  0  0  0  0  0  0  0  0  0  0
  190.6810  176.1180  135.1830 C   0  0  0  0  0  1  0  0  0  0  0  0
  190.5940  176.1850  137.7750 C   0  0  0  0  0  0  0  0  0  0  0  0
  190.4020  176.8530  138.9270 C   0  0  0  0  0  3  0  0  0  0  0  0
  187.4910  178.3280  137.9430 C   0  0  0  0  0  0  0  0  0  0  0  0
  189.8060  178.2320  139.0400 C   0  0  0  0  0  2  0  0  0  0  0  0
  188.2970  178.2440  139.1120 C   0  0  0  0  0  0  0  0  0  0  0  0
  188.5240  178.1620  141.5040 O   0  0  0  0  0  0  0  0  0  0  0  0
  188.8500  176.9420  142.1590 C   0  0  0  0  0  2  0  0  0  0  0  0
  190.2460  177.0300  142.7620 C   0  0  0  0  0  2  0  0  0  0  0  0
  191.3080  176.7630  146.3890 C   0  0  0  0  0  3  0  0  0  0  0  0
  188.9890  177.3060  144.9250 C   0  0  0  0  0  3  0  0  0  0  0  0
  190.1030  177.0080  147.0540 C   0  0  0  0  0  3  0  0  0  0  0  0
  188.9420  177.2770  146.3230 C   0  0  0  0  0  0  0  0  0  0  0  0
  190.1920  177.0450  144.2560 C   0  0  0  0  0  0  0  0  0  0  0  0
  191.3520  176.7790  144.9910 C   0  0  0  0  0  3  0  0  0  0  0  0
  187.6510  177.5090  147.0330 C   0  0  0  0  0  2  0  0  0  0  0  0
  185.7040  178.9940  146.3670 C   0  0  0  0  0  0  0  0  0  0  0  0
  185.8000  179.6580  147.4350 O   0  0  0  0  0  0  0  0  0  0  0  0
  186.6210  177.9320  146.0920 N   0  0  0  0  0  2  0  0  0  0  0  0
  184.6560  179.3140  145.3950 C   0  0  0  0  0  0  0  0  0  0  0  0
  183.5120  178.7990  145.4990 O   0  0  0  0  0  0  0  0  0  0  0  0
  184.9140  180.1720  144.3780 F   0  0  0  0  0  0  0  0  0  0  0  0
  1 10  1  0  0  0  0
  1 19  1  0  0  0  0
  2 16  1  0  0  0  0
  3 14  1  0  0  0  0
  4  9  1  0  0  0  0
  5  8  1  0  0  0  0
  6  8  2  0  0  0  0
  9 11  2  0  0  0  0
  9 10  1  0  0  0  0
 10  5  2  0  0  0  0
 11  6  1  0  0  0  0
 12  3  2  0  0  0  0
 12  2  2  0  0  0  0
 13  3  1  0  0  0  0
 14  7  1  0  0  0  0
 14 15  2  0  0  0  0
 15 17  1  0  0  0  0
 16  4  2  0  0  0  0
 16 18  1  0  0  0  0
 17 18  1  0  0  0  0
 18  1  2  0  0  0  0
 19 20  1  0  0  0  0
 20 21  1  0  0  0  0
 21 26  1  0  0  0  0
 22 24  1  0  0  0  0
 23 25  1  0  0  0  0
 25 28  1  0  0  0  0
 25 24  2  0  0  0  0
 26 23  2  0  0  0  0
 26 27  1  0  0  0  0
 27 22  2  0  0  0  0
 29 30  2  0  0  0  0
 31 29  1  0  0  0  0
 31 28  1  0  0  0  0
 32 33  2  0  0  0  0
 32 29  1  0  0  0  0
 34 32  1  0  0  0  0
M  END
>  <MODEL>
4

>  <REMARK>
 VINA RESULT:      -9.6      3.284      6.896
  Name = 
  7 active torsions:
  status: ('A' for Active; 'I' for Inactive)
    1  A    between atoms: C_1  and  O_9
    2  A    between atoms: C_7  and  C_11
    3  A    between atoms: C_8  and  O_9
    4  A    between atoms: C_8  and  C_18
    5  A    between atoms: C_18  and  C_30
    6  A    between atoms: C_26  and  C_28
    7  A    between atoms: C_26  and  N_29
                            x       y       z     vdW  Elec       q    Type
                         _______ _______ _______ _____ _____    ______ ____

>  <TORSDO>
F 7

$$$$
=
 OpenBabel10262423193D

 34 37  0  0  0  0  0  0  0  0999 V2000
  187.8780  177.1680  145.1650 C   0  0  0  0  0  0  0  0  0  0  0  0
  191.2740  176.5490  143.5320 C   0  0  0  0  0  3  0  0  0  0  0  0
  190.6100  177.1220  141.0970 C   0  0  0  0  0  0  0  0  0  0  0  0
  190.5980  177.1730  145.7700 N   0  0  0  0  0  0  0  0  0  0  0  0
  187.4420  177.9010  147.4850 C   0  0  0  0  0  3  0  0  0  0  0  0
  189.2890  178.2400  149.0080 C   0  0  0  0  0  3  0  0  0  0  0  0
  188.8940  178.5980  139.8840 C   0  0  0  0  0  1  0  0  0  0  0  0
  187.9170  178.2510  148.7510 C   0  0  0  0  0  3  0  0  0  0  0  0
  189.7130  177.5260  146.7340 C   0  0  0  0  0  0  0  0  0  0  0  0
  188.3260  177.5450  146.4560 C   0  0  0  0  0  0  0  0  0  0  0  0
  190.1850  177.8780  148.0010 C   0  0  0  0  0  3  0  0  0  0  0  0
  191.0420  176.7970  142.2790 C   0  0  0  0  0  0  0  0  0  0  0  0
  191.5910  177.2640  139.9840 C   0  0  0  0  0  1  0  0  0  0  0  0
  189.2190  177.6320  140.9690 C   0  0  0  0  0  0  0  0  0  0  0  0
  188.2190  177.2650  141.7900 C   0  0  0  0  0  3  0  0  0  0  0  0
  190.2100  176.8180  144.5200 C   0  0  0  0  0  0  0  0  0  0  0  0
  188.3270  176.2320  142.8820 C   0  0  0  0  0  2  0  0  0  0  0  0
  188.8250  176.7810  144.1980 C   0  0  0  0  0  0  0  0  0  0  0  0
  186.5230  177.1410  144.7880 O   0  0  0  0  0  0  0  0  0  0  0  0
  185.6390  178.2550  144.8340 C   0  0  0  0  0  2  0  0  0  0  0  0
  185.4580  178.8360  143.4380 C   0  0  0  0  0  2  0  0  0  0  0  0
  181.6780  178.9910  143.6410 C   0  0  0  0  0  3  0  0  0  0  0  0
  183.6530  178.6490  141.6930 C   0  0  0  0  0  3  0  0  0  0  0  0
  181.3150  178.7860  142.3060 C   0  0  0  0  0  3  0  0  0  0  0  0
  182.3020  178.6120  141.3320 C   0  0  0  0  0  0  0  0  0  0  0  0
  184.0190  178.8380  143.0330 C   0  0  0  0  0  0  0  0  0  0  0  0
  183.0280  179.0140  144.0040 C   0  0  0  0  0  3  0  0  0  0  0  0
  181.9130  178.3640  139.9130 C   0  0  0  0  0  2  0  0  0  0  0  0
  182.2210  180.6220  138.7960 C   0  0  0  0  0  0  0  0  0  0  0  0
  183.4750  180.4870  138.7900 O   0  0  0  0  0  0  0  0  0  0  0  0
  181.3850  179.5810  139.3110 N   0  0  0  0  0  2  0  0  0  0  0  0
  181.6110  181.8430  138.2660 C   0  0  0  0  0  0  0  0  0  0  0  0
  180.4670  181.8090  137.7400 O   0  0  0  0  0  0  0  0  0  0  0  0
  182.2770  183.0210  138.3410 F   0  0  0  0  0  0  0  0  0  0  0  0
  1 10  1  0  0  0  0
  2 16  1  0  0  0  0
  3 12  2  0  0  0  0
  4  9  1  0  0  0  0
  5  8  1  0  0  0  0
  7 14  1  0  0  0  0
  8  6  2  0  0  0  0
  9 11  2  0  0  0  0
 10  9  1  0  0  0  0
 10  5  2  0  0  0  0
 11  6  1  0  0  0  0
 12  2  2  0  0  0  0
 13  3  1  0  0  0  0
 14  3  1  0  0  0  0
 14 15  2  0  0  0  0
 15 17  1  0  0  0  0
 16  4  2  0  0  0  0
 17 18  1  0  0  0  0
 18 16  1  0  0  0  0
 18  1  2  0  0  0  0
 19 20  1  0  0  0  0
 19  1  1  0  0  0  0
 21 20  1  0  0  0  0
 22 27  1  0  0  0  0
 23 26  1  0  0  0  0
 24 22  2  0  0  0  0
 25 23  2  0  0  0  0
 25 24  1  0  0  0  0
 26 21  1  0  0  0  0
 26 27  2  0  0  0  0
 28 25  1  0  0  0  0
 29 31  1  0  0  0  0
 30 29  2  0  0  0  0
 31 28  1  0  0  0  0
 32 34  1  0  0  0  0
 32 29  1  0  0  0  0
 33 32  2  0  0  0  0
M  END
>  <MODEL>
5

>  <REMARK>
 VINA RESULT:      -9.5      3.702      8.901
  Name = 
  7 active torsions:
  status: ('A' for Active; 'I' for Inactive)
    1  A    between atoms: C_1  and  O_9
    2  A    between atoms: C_7  and  C_11
    3  A    between atoms: C_8  and  O_9
    4  A    between atoms: C_8  and  C_18
    5  A    between atoms: C_18  and  C_30
    6  A    between atoms: C_26  and  C_28
    7  A    between atoms: C_26  and  N_29
                            x       y       z     vdW  Elec       q    Type
                         _______ _______ _______ _____ _____    ______ ____

>  <TORSDO>
F 7

$$$$
=
 OpenBabel10262423193D

 34 37  0  0  0  0  0  0  0  0999 V2000
  187.1700  178.2930  143.7590 C   0  0  0  0  0  0  0  0  0  0  0  0
  183.5680  179.1290  144.7080 C   0  0  0  0  0  3  0  0  0  0  0  0
  182.4710  178.6410  142.4150 C   0  0  0  0  0  0  0  0  0  0  0  0
  185.4850  178.3750  145.9770 N   0  0  0  0  0  0  0  0  0  0  0  0
  188.9510  177.4350  145.2440 C   0  0  0  0  0  3  0  0  0  0  0  0
  188.5010  177.1040  147.5970 C   0  0  0  0  0  3  0  0  0  0  0  0
  182.9070  177.1510  140.3700 C   0  0  0  0  0  1  0  0  0  0  0  0
  189.3820  177.0480  146.5150 C   0  0  0  0  0  3  0  0  0  0  0  0
  186.7590  177.9410  146.1380 C   0  0  0  0  0  0  0  0  0  0  0  0
  187.6360  177.8760  145.0310 C   0  0  0  0  0  0  0  0  0  0  0  0
  187.1920  177.5510  147.4080 C   0  0  0  0  0  3  0  0  0  0  0  0
  182.9220  178.9290  143.5990 C   0  0  0  0  0  0  0  0  0  0  0  0
  180.9970  178.5920  142.1970 C   0  0  0  0  0  1  0  0  0  0  0  0
  183.4170  178.0800  141.4160 C   0  0  0  0  0  0  0  0  0  0  0  0
  184.7310  178.3660  141.4000 C   0  0  0  0  0  3  0  0  0  0  0  0
  184.9980  178.7700  144.7740 C   0  0  0  0  0  0  0  0  0  0  0  0
  185.4150  179.3500  142.3120 C   0  0  0  0  0  2  0  0  0  0  0  0
  185.8490  178.7630  143.6350 C   0  0  0  0  0  0  0  0  0  0  0  0
  187.9630  178.2790  142.5970 O   0  0  0  0  0  0  0  0  0  0  0  0
  188.4460  177.1080  141.9490 C   0  0  0  0  0  2  0  0  0  0  0  0
  189.8440  177.3540  141.3980 C   0  0  0  0  0  2  0  0  0  0  0  0
  189.0160  178.6020  137.9180 C   0  0  0  0  0  3  0  0  0  0  0  0
  190.5540  176.5930  139.1060 C   0  0  0  0  0  3  0  0  0  0  0  0
  189.7300  177.7030  137.1190 C   0  0  0  0  0  3  0  0  0  0  0  0
  190.4970  176.6960  137.7130 C   0  0  0  0  0  0  0  0  0  0  0  0
  189.8260  177.4820  139.9090 C   0  0  0  0  0  0  0  0  0  0  0  0
  189.0620  178.4890  139.3110 C   0  0  0  0  0  3  0  0  0  0  0  0
  191.2350  175.7210  136.8590 C   0  0  0  0  0  2  0  0  0  0  0  0
  193.6490  175.4350  137.5860 C   0  0  0  0  0  0  0  0  0  0  0  0
  194.0090  176.4330  136.9050 O   0  0  0  0  0  0  0  0  0  0  0  0
  192.2730  175.0510  137.6330 N   0  0  0  0  0  2  0  0  0  0  0  0
  194.6400  174.6680  138.3440 C   0  0  0  0  0  0  0  0  0  0  0  0
  195.4310  175.2510  139.1330 O   0  0  0  0  0  0  0  0  0  0  0  0
  194.7100  173.3220  138.2020 F   0  0  0  0  0  0  0  0  0  0  0  0
  1 10  1  0  0  0  0
  2 16  1  0  0  0  0
  3 12  2  0  0  0  0
  4  9  1  0  0  0  0
  5  8  1  0  0  0  0
  7 14  1  0  0  0  0
  8  6  2  0  0  0  0
  9 11  2  0  0  0  0
 10  5  2  0  0  0  0
 10  9  1  0  0  0  0
 11  6  1  0  0  0  0
 12  2  2  0  0  0  0
 13  3  1  0  0  0  0
 14  3  1  0  0  0  0
 15 14  2  0  0  0  0
 15 17  1  0  0  0  0
 16  4  2  0  0  0  0
 17 18  1  0  0  0  0
 18  1  2  0  0  0  0
 18 16  1  0  0  0  0
 19  1  1  0  0  0  0
 20 19  1  0  0  0  0
 21 20  1  0  0  0  0
 22 27  1  0  0  0  0
 23 26  1  0  0  0  0
 24 25  1  0  0  0  0
 24 22  2  0  0  0  0
 25 23  2  0  0  0  0
 26 21  1  0  0  0  0
 27 26  2  0  0  0  0
 28 31  1  0  0  0  0
 28 25  1  0  0  0  0
 29 31  1  0  0  0  0
 29 32  1  0  0  0  0
 30 29  2  0  0  0  0
 32 33  2  0  0  0  0
 34 32  1  0  0  0  0
M  END
>  <MODEL>
6

>  <REMARK>
 VINA RESULT:      -9.3      3.656      4.903
  Name = 
  7 active torsions:
  status: ('A' for Active; 'I' for Inactive)
    1  A    between atoms: C_1  and  O_9
    2  A    between atoms: C_7  and  C_11
    3  A    between atoms: C_8  and  O_9
    4  A    between atoms: C_8  and  C_18
    5  A    between atoms: C_18  and  C_30
    6  A    between atoms: C_26  and  C_28
    7  A    between atoms: C_26  and  N_29
                            x       y       z     vdW  Elec       q    Type
                         _______ _______ _______ _____ _____    ______ ____

>  <TORSDO>
F 7

$$$$
=
 OpenBabel10262423193D

 34 37  0  0  0  0  0  0  0  0999 V2000
  186.7360  178.0420  143.3190 C   0  0  0  0  0  0  0  0  0  0  0  0
  183.2470  179.3750  144.1170 C   0  0  0  0  0  3  0  0  0  0  0  0
  182.0710  178.6270  141.9370 C   0  0  0  0  0  0  0  0  0  0  0  0
  185.1030  178.6550  145.4930 N   0  0  0  0  0  0  0  0  0  0  0  0
  188.4490  177.2690  144.9260 C   0  0  0  0  0  3  0  0  0  0  0  0
  188.0070  177.3760  147.3010 C   0  0  0  0  0  3  0  0  0  0  0  0
  182.3260  176.7860  140.1660 C   0  0  0  0  0  1  0  0  0  0  0  0
  188.8600  177.0560  146.2440 C   0  0  0  0  0  3  0  0  0  0  0  0
  186.3300  178.1290  145.7240 C   0  0  0  0  0  0  0  0  0  0  0  0
  187.1800  177.7960  144.6430 C   0  0  0  0  0  0  0  0  0  0  0  0
  186.7450  177.9130  147.0410 C   0  0  0  0  0  3  0  0  0  0  0  0
  182.5680  179.0600  143.0570 C   0  0  0  0  0  0  0  0  0  0  0  0
  180.5960  178.6890  141.7290 C   0  0  0  0  0  1  0  0  0  0  0  0
  182.9420  177.8190  141.0440 C   0  0  0  0  0  0  0  0  0  0  0  0
  184.2770  177.9670  140.9810 C   0  0  0  0  0  3  0  0  0  0  0  0
  184.6370  178.8930  144.2410 C   0  0  0  0  0  0  0  0  0  0  0  0
  185.0690  179.0150  141.7180 C   0  0  0  0  0  2  0  0  0  0  0  0
  185.4650  178.6140  143.1190 C   0  0  0  0  0  0  0  0  0  0  0  0
  187.5040  177.7600  142.1760 O   0  0  0  0  0  0  0  0  0  0  0  0
  188.6630  178.4790  141.7710 C   0  0  0  0  0  2  0  0  0  0  0  0
  189.7860  177.5090  141.4250 C   0  0  0  0  0  2  0  0  0  0  0  0
  191.1830  176.5090  138.0490 C   0  0  0  0  0  3  0  0  0  0  0  0
  189.0140  177.9470  139.0700 C   0  0  0  0  0  3  0  0  0  0  0  0
  190.2710  177.1110  137.1770 C   0  0  0  0  0  3  0  0  0  0  0  0
  189.1870  177.8330  137.6860 C   0  0  0  0  0  0  0  0  0  0  0  0
  189.9360  177.3580  139.9450 C   0  0  0  0  0  0  0  0  0  0  0  0
  191.0170  176.6340  139.4320 C   0  0  0  0  0  3  0  0  0  0  0  0
  188.2320  178.4990  136.7550 C   0  0  0  0  0  2  0  0  0  0  0  0
  185.8320  177.9700  137.3870 C   0  0  0  0  0  0  0  0  0  0  0  0
  185.7840  178.9570  138.1710 O   0  0  0  0  0  0  0  0  0  0  0  0
  187.0140  177.7100  136.6250 N   0  0  0  0  0  2  0  0  0  0  0  0
  184.6710  177.0890  137.2450 C   0  0  0  0  0  0  0  0  0  0  0  0
  183.6210  177.5020  136.6860 O   0  0  0  0  0  0  0  0  0  0  0  0
  184.7220  175.8180  137.7150 F   0  0  0  0  0  0  0  0  0  0  0  0
  1 10  1  0  0  0  0
  2 16  1  0  0  0  0
  3 12  2  0  0  0  0
  4  9  1  0  0  0  0
  5  8  1  0  0  0  0
  7 14  1  0  0  0  0
  8  6  2  0  0  0  0
  9 11  2  0  0  0  0
 10  5  2  0  0  0  0
 10  9  1  0  0  0  0
 11  6  1  0  0  0  0
 12  2  2  0  0  0  0
 13  3  1  0  0  0  0
 14  3  1  0  0  0  0
 15 14  2  0  0  0  0
 15 17  1  0  0  0  0
 16  4  2  0  0  0  0
 17 18  1  0  0  0  0
 18  1  2  0  0  0  0
 18 16  1  0  0  0  0
 19  1  1  0  0  0  0
 20 19  1  0  0  0  0
 21 20  1  0  0  0  0
 22 27  1  0  0  0  0
 23 26  1  0  0  0  0
 24 25  1  0  0  0  0
 24 22  2  0  0  0  0
 25 23  2  0  0  0  0
 26 21  1  0  0  0  0
 27 26  2  0  0  0  0
 28 25  1  0  0  0  0
 29 30  2  0  0  0  0
 31 28  1  0  0  0  0
 31 29  1  0  0  0  0
 32 29  1  0  0  0  0
 32 34  1  0  0  0  0
 33 32  2  0  0  0  0
M  END
>  <MODEL>
7

>  <REMARK>
 VINA RESULT:      -9.3      3.321      5.610
  Name = 
  7 active torsions:
  status: ('A' for Active; 'I' for Inactive)
    1  A    between atoms: C_1  and  O_9
    2  A    between atoms: C_7  and  C_11
    3  A    between atoms: C_8  and  O_9
    4  A    between atoms: C_8  and  C_18
    5  A    between atoms: C_18  and  C_30
    6  A    between atoms: C_26  and  C_28
    7  A    between atoms: C_26  and  N_29
                            x       y       z     vdW  Elec       q    Type
                         _______ _______ _______ _____ _____    ______ ____

>  <TORSDO>
F 7

$$$$
=
 OpenBabel10262423193D

 34 37  0  0  0  0  0  0  0  0999 V2000
  187.8930  177.1730  145.1090 C   0  0  0  0  0  0  0  0  0  0  0  0
  191.3300  176.5360  143.5720 C   0  0  0  0  0  3  0  0  0  0  0  0
  190.7380  177.1160  141.1200 C   0  0  0  0  0  0  0  0  0  0  0  0
  190.5950  177.1610  145.7910 N   0  0  0  0  0  0  0  0  0  0  0  0
  187.3950  177.9060  147.4170 C   0  0  0  0  0  3  0  0  0  0  0  0
  189.2010  178.2330  148.9920 C   0  0  0  0  0  3  0  0  0  0  0  0
  189.0660  178.6030  139.8610 C   0  0  0  0  0  1  0  0  0  0  0  0
  187.8370  178.2510  148.6960 C   0  0  0  0  0  3  0  0  0  0  0  0
  189.6850  177.5180  146.7290 C   0  0  0  0  0  0  0  0  0  0  0  0
  188.3060  177.5460  146.4120 C   0  0  0  0  0  0  0  0  0  0  0  0
  190.1230  177.8660  148.0100 C   0  0  0  0  0  3  0  0  0  0  0  0
  191.1350  176.7870  142.3130 C   0  0  0  0  0  0  0  0  0  0  0  0
  191.7510  177.2530  140.0350 C   0  0  0  0  0  1  0  0  0  0  0  0
  189.3550  177.6340  140.9530 C   0  0  0  0  0  0  0  0  0  0  0  0
  188.3290  177.2720  141.7450 C   0  0  0  0  0  3  0  0  0  0  0  0
  190.2400  176.8100  144.5290 C   0  0  0  0  0  0  0  0  0  0  0  0
  188.4010  176.2380  142.8380 C   0  0  0  0  0  2  0  0  0  0  0  0
  188.8650  176.7820  144.1690 C   0  0  0  0  0  0  0  0  0  0  0  0
  186.5490  177.1540  144.6940 O   0  0  0  0  0  0  0  0  0  0  0  0
  185.6920  178.2890  144.6460 C   0  0  0  0  0  2  0  0  0  0  0  0
  185.3270  178.6080  143.2020 C   0  0  0  0  0  2  0  0  0  0  0  0
  181.6350  178.9300  143.9840 C   0  0  0  0  0  3  0  0  0  0  0  0
  183.2730  178.5720  141.7480 C   0  0  0  0  0  3  0  0  0  0  0  0
  181.0640  178.7940  142.7150 C   0  0  0  0  0  3  0  0  0  0  0  0
  181.8830  178.6120  141.5960 C   0  0  0  0  0  0  0  0  0  0  0  0
  183.8460  178.6920  143.0220 C   0  0  0  0  0  0  0  0  0  0  0  0
  183.0230  178.8770  144.1380 C   0  0  0  0  0  3  0  0  0  0  0  0
  181.2720  178.4370  140.2470 C   0  0  0  0  0  2  0  0  0  0  0  0
  182.2880  176.4580  139.0240 C   0  0  0  0  0  0  0  0  0  0  0  0
  181.4330  175.6710  139.5160 O   0  0  0  0  0  0  0  0  0  0  0  0
  182.2380  177.8560  139.3230 N   0  0  0  0  0  2  0  0  0  0  0  0
  183.3320  175.9450  138.1350 C   0  0  0  0  0  0  0  0  0  0  0  0
  183.8860  176.7050  137.2970 O   0  0  0  0  0  0  0  0  0  0  0  0
  183.7090  174.6450  138.2110 F   0  0  0  0  0  0  0  0  0  0  0  0
  1 10  1  0  0  0  0
  2 16  1  0  0  0  0
  3 12  2  0  0  0  0
  4  9  1  0  0  0  0
  5  8  1  0  0  0  0
  7 14  1  0  0  0  0
  8  6  2  0  0  0  0
  9 11  2  0  0  0  0
 10  9  1  0  0  0  0
 10  5  2  0  0  0  0
 11  6  1  0  0  0  0
 12  2  2  0  0  0  0
 13  3  1  0  0  0  0
 14  3  1  0  0  0  0
 14 15  2  0  0  0  0
 15 17  1  0  0  0  0
 16  4  2  0  0  0  0
 17 18  1  0  0  0  0
 18 16  1  0  0  0  0
 18  1  2  0  0  0  0
 19  1  1  0  0  0  0
 20 19  1  0  0  0  0
 21 20  1  0  0  0  0
 22 27  1  0  0  0  0
 23 26  1  0  0  0  0
 24 22  2  0  0  0  0
 25 23  2  0  0  0  0
 25 24  1  0  0  0  0
 26 21  1  0  0  0  0
 26 27  2  0  0  0  0
 28 25  1  0  0  0  0
 29 31  1  0  0  0  0
 29 30  2  0  0  0  0
 31 28  1  0  0  0  0
 32 34  1  0  0  0  0
 32 29  1  0  0  0  0
 33 32  2  0  0  0  0
M  END
>  <MODEL>
8

>  <REMARK>
 VINA RESULT:      -9.3      3.076      8.480
  Name = 
  7 active torsions:
  status: ('A' for Active; 'I' for Inactive)
    1  A    between atoms: C_1  and  O_9
    2  A    between atoms: C_7  and  C_11
    3  A    between atoms: C_8  and  O_9
    4  A    between atoms: C_8  and  C_18
    5  A    between atoms: C_18  and  C_30
    6  A    between atoms: C_26  and  C_28
    7  A    between atoms: C_26  and  N_29
                            x       y       z     vdW  Elec       q    Type
                         _______ _______ _______ _____ _____    ______ ____

>  <TORSDO>
F 7

$$$$
=
 OpenBabel10262423193D

 34 37  0  0  0  0  0  0  0  0999 V2000
  189.0900  178.2580  141.2850 C   0  0  0  0  0  0  0  0  0  0  0  0
  192.0270  176.7040  143.1660 C   0  0  0  0  0  3  0  0  0  0  0  0
  191.0610  176.8960  145.5590 C   0  0  0  0  0  0  0  0  0  0  0  0
  191.1920  176.4680  140.9070 N   0  0  0  0  0  0  0  0  0  0  0  0
  188.3700  177.7780  138.9690 C   0  0  0  0  0  3  0  0  0  0  0  0
  189.6230  176.2100  137.6190 C   0  0  0  0  0  3  0  0  0  0  0  0
  188.7550  176.9640  146.6860 C   0  0  0  0  0  1  0  0  0  0  0  0
  188.5570  177.0990  137.7620 C   0  0  0  0  0  3  0  0  0  0  0  0
  190.3230  176.6810  139.8890 C   0  0  0  0  0  0  0  0  0  0  0  0
  189.2380  177.5740  140.0520 C   0  0  0  0  0  0  0  0  0  0  0  0
  190.5050  176.0020  138.6810 C   0  0  0  0  0  3  0  0  0  0  0  0
  191.6440  176.7690  144.4050 C   0  0  0  0  0  0  0  0  0  0  0  0
  191.6800  176.2560  146.7550 C   0  0  0  0  0  1  0  0  0  0  0  0
  189.6650  177.4040  145.5920 C   0  0  0  0  0  0  0  0  0  0  0  0
  189.1640  178.2540  144.6780 C   0  0  0  0  0  3  0  0  0  0  0  0
  191.0770  177.0930  142.1050 C   0  0  0  0  0  0  0  0  0  0  0  0
  189.9510  178.8810  143.5560 C   0  0  0  0  0  2  0  0  0  0  0  0
  190.0280  178.0320  142.3090 C   0  0  0  0  0  0  0  0  0  0  0  0
  188.0560  179.1750  141.5460 O   0  0  0  0  0  0  0  0  0  0  0  0
  186.6720  178.8510  141.6110 C   0  0  0  0  0  2  0  0  0  0  0  0
  186.4310  177.8010  142.6880 C   0  0  0  0  0  2  0  0  0  0  0  0
  184.6540  178.6330  145.9280 C   0  0  0  0  0  3  0  0  0  0  0  0
  184.1060  178.6270  143.1870 C   0  0  0  0  0  3  0  0  0  0  0  0
  183.3860  179.0030  145.4680 C   0  0  0  0  0  3  0  0  0  0  0  0
  183.1110  178.9970  144.0970 C   0  0  0  0  0  0  0  0  0  0  0  0
  185.3720  178.2410  143.6480 C   0  0  0  0  0  0  0  0  0  0  0  0
  185.6450  178.2500  145.0190 C   0  0  0  0  0  3  0  0  0  0  0  0
  181.7490  179.3630  143.6100 C   0  0  0  0  0  2  0  0  0  0  0  0
  180.4500  178.1650  141.7890 C   0  0  0  0  0  0  0  0  0  0  0  0
  179.5210  177.8780  142.5920 O   0  0  0  0  0  0  0  0  0  0  0  0
  181.5720  178.9350  142.2280 N   0  0  0  0  0  2  0  0  0  0  0  0
  180.3790  177.7180  140.3960 C   0  0  0  0  0  0  0  0  0  0  0  0
  180.7390  178.4830  139.4620 O   0  0  0  0  0  0  0  0  0  0  0  0
  179.9270  176.4740  140.1040 F   0  0  0  0  0  0  0  0  0  0  0  0
  1 19  1  0  0  0  0
  1 18  1  0  0  0  0
  2 12  2  0  0  0  0
  3 14  1  0  0  0  0
  3 13  1  0  0  0  0
  4 16  1  0  0  0  0
  5 10  1  0  0  0  0
  6  8  1  0  0  0  0
  6 11  2  0  0  0  0
  8  5  2  0  0  0  0
  9 10  1  0  0  0  0
  9  4  2  0  0  0  0
 10  1  2  0  0  0  0
 11  9  1  0  0  0  0
 12  3  2  0  0  0  0
 14  7  1  0  0  0  0
 15 14  2  0  0  0  0
 16 18  2  0  0  0  0
 16  2  1  0  0  0  0
 17 15  1  0  0  0  0
 18 17  1  0  0  0  0
 19 20  1  0  0  0  0
 20 21  1  0  0  0  0
 21 26  1  0  0  0  0
 23 26  2  0  0  0  0
 23 25  1  0  0  0  0
 24 22  1  0  0  0  0
 25 24  2  0  0  0  0
 26 27  1  0  0  0  0
 27 22  2  0  0  0  0
 28 25  1  0  0  0  0
 29 31  1  0  0  0  0
 29 30  2  0  0  0  0
 31 28  1  0  0  0  0
 32 29  1  0  0  0  0
 33 32  2  0  0  0  0
 34 32  1  0  0  0  0
M  END
>  <MODEL>
9

>  <REMARK>
 VINA RESULT:      -9.2      3.446      9.269
  Name = 
  7 active torsions:
  status: ('A' for Active; 'I' for Inactive)
    1  A    between atoms: C_1  and  O_9
    2  A    between atoms: C_7  and  C_11
    3  A    between atoms: C_8  and  O_9
    4  A    between atoms: C_8  and  C_18
    5  A    between atoms: C_18  and  C_30
    6  A    between atoms: C_26  and  C_28
    7  A    between atoms: C_26  and  N_29
                            x       y       z     vdW  Elec       q    Type
                         _______ _______ _______ _____ _____    ______ ____

>  <TORSDO>
F 7

$$$$
