=
 OpenBabel10252415093D

 34 37  0  0  1  0  0  0  0  0999 V2000
  189.7430  177.7530  141.2050 C   0  0  2  0  0  3  0  0  0  0  0  0
  187.5390  178.6960  141.7370 N   0  0  0  0  0  0  0  0  0  0  0  0
  188.3080  178.6450  139.5130 O   0  0  0  0  0  1  0  0  0  0  0  0
  189.8120  177.2800  142.6650 C   0  0  1  0  0  3  0  0  0  0  0  0
  187.5240  177.9710  142.8920 O   0  0  0  0  0  0  0  0  0  0  0  0
  188.8020  178.1150  143.4620 C   0  0  1  0  0  3  0  0  0  0  0  0
  188.2950  177.9420  140.7220 C   0  0  1  0  0  3  0  0  0  0  0  0
  190.0090  177.1310  146.9150 C   0  0  0  0  0  0  0  0  0  0  0  0
  188.8120  177.0850  147.6350 C   0  0  0  0  0  3  0  0  0  0  0  0
  188.7900  177.7660  144.9180 C   0  0  0  0  0  0  0  0  0  0  0  0
  187.6010  177.3720  146.9990 C   0  0  0  0  0  3  0  0  0  0  0  0
  189.9970  177.4670  145.5580 C   0  0  0  0  0  3  0  0  0  0  0  0
  187.5890  177.7100  145.6420 C   0  0  0  0  0  3  0  0  0  0  0  0
  191.5240  176.7700  147.7130 Cl  0  0  0  0  0  0  0  0  0  0  0  0
  190.6790  175.3050  143.1810 C   0  0  0  0  0  1  0  0  0  0  0  0
  189.4970  175.9180  142.7610 O   0  0  0  0  0  0  0  0  0  0  0  0
  190.6180  176.9410  140.2460 C   0  0  0  0  0  2  0  0  0  0  0  0
  192.0840  177.3600  140.2880 C   0  0  0  0  0  2  0  0  0  0  0  0
  192.7910  176.9370  139.0140 C   0  0  0  0  0  2  0  0  0  0  0  0
  191.7950  176.3480  138.0310 C   0  0  0  0  0  2  0  0  0  0  0  0
  193.2640  174.4080  137.6380 C   0  0  0  0  0  2  0  0  0  0  0  0
  192.5320  175.5550  136.9740 C   0  0  0  0  0  3  0  0  0  0  0  0
  191.9590  174.1540  136.9140 C   0  0  0  0  0  2  0  0  0  0  0  0
  186.1500  178.7760  141.3020 C   0  0  0  0  0  2  0  0  0  0  0  0
  185.2170  178.3130  142.4130 C   0  0  0  0  0  2  0  0  0  0  0  0
  183.7520  178.4940  142.0390 C   0  0  0  0  0  2  0  0  0  0  0  0
  183.5080  178.1250  140.5830 C   0  0  0  0  0  2  0  0  0  0  0  0
  184.1970  180.3210  138.9600 O   0  0  0  0  0  0  0  0  0  0  0  0
  182.5320  179.0280  139.9880 N   0  0  0  0  0  0  0  0  0  0  0  0
  182.9680  180.1080  139.1410 C   0  0  0  0  0  0  0  0  0  0  0  0
  180.6410  181.0000  139.1430 C   0  0  0  0  0  2  0  0  0  0  0  0
  180.1770  179.5950  139.4940 C   0  0  0  0  0  2  0  0  0  0  0  0
  181.1560  178.9690  140.4820 C   0  0  0  0  0  2  0  0  0  0  0  0
  181.9690  180.9400  138.3980 C   0  0  0  0  0  2  0  0  0  0  0  0
  1 17  1  6  0  0  0
  1  4  1  0  0  0  0
  2  5  1  0  0  0  0
  4 16  1  6  0  0  0
  4  6  1  0  0  0  0
  5  6  1  0  0  0  0
  6 10  1  1  0  0  0
  7  3  1  6  0  0  0
  7  1  1  0  0  0  0
  7  2  1  0  0  0  0
  8  9  1  0  0  0  0
  8 14  1  0  0  0  0
 10 12  1  0  0  0  0
 10 13  2  0  0  0  0
 11  9  2  0  0  0  0
 12  8  2  0  0  0  0
 13 11  1  0  0  0  0
 16 15  1  0  0  0  0
 17 18  1  0  0  0  0
 19 18  1  0  0  0  0
 20 19  1  0  0  0  0
 22 21  1  0  0  0  0
 22 20  1  0  0  0  0
 23 22  1  0  0  0  0
 23 21  1  0  0  0  0
 24  2  1  0  0  0  0
 24 25  1  0  0  0  0
 26 25  1  0  0  0  0
 27 26  1  0  0  0  0
 28 30  2  0  0  0  0
 29 33  1  0  0  0  0
 29 27  1  0  0  0  0
 30 29  1  0  0  0  0
 31 32  1  0  0  0  0
 32 33  1  0  0  0  0
 34 30  1  0  0  0  0
 34 31  1  0  0  0  0
M  END
>  <MODEL>
1

>  <REMARK>
 VINA RESULT:      -7.8      0.000      0.000
  Name = 
  12 active torsions:
  status: ('A' for Active; 'I' for Inactive)
    1  A    between atoms: C_2  and  C_15
    2  A    between atoms: C_2  and  C_25
    3  A    between atoms: C_3  and  N_13
    4  A    between atoms: C_3  and  C_17
    5  A    between atoms: C_4  and  C_15
    6  A    between atoms: N_5  and  C_18
    7  A    between atoms: C_6  and  C_9
    8  A    between atoms: C_9  and  C_25
    9  A    between atoms: C_12  and  C_28
   10  A    between atoms: C_17  and  C_29
   11  A    between atoms: C_18  and  C_29
   12  A    between atoms: C_21  and  O_32
                            x       y       z     vdW  Elec       q    Type
                         _______ _______ _______ _____ _____    ______ ____

>  <TORSDO>
F 12

$$$$
=
 OpenBabel10252415093D

 34 37  0  0  1  0  0  0  0  0999 V2000
  189.9670  177.7570  142.4700 C   0  0  2  0  0  3  0  0  0  0  0  0
  189.4940  178.1630  140.0950 N   0  0  0  0  0  0  0  0  0  0  0  0
  191.6770  177.6390  140.8030 O   0  0  0  0  0  1  0  0  0  0  0  0
  188.4490  177.8010  142.7040 C   0  0  1  0  0  3  0  0  0  0  0  0
  188.1830  177.8600  140.3190 O   0  0  0  0  0  0  0  0  0  0  0  0
  187.8240  178.5250  141.5060 C   0  0  1  0  0  3  0  0  0  0  0  0
  190.3210  177.3730  141.0240 C   0  0  1  0  0  3  0  0  0  0  0  0
  184.3770  178.8930  143.0320 C   0  0  0  0  0  0  0  0  0  0  0  0
  183.5590  178.8850  141.8990 C   0  0  0  0  0  3  0  0  0  0  0  0
  186.3370  178.6580  141.6260 C   0  0  0  0  0  0  0  0  0  0  0  0
  184.1260  178.7590  140.6270 C   0  0  0  0  0  3  0  0  0  0  0  0
  185.7630  178.7750  142.8960 C   0  0  0  0  0  3  0  0  0  0  0  0
  185.5130  178.6430  140.4910 C   0  0  0  0  0  3  0  0  0  0  0  0
  183.6650  179.0510  144.6230 Cl  0  0  0  0  0  0  0  0  0  0  0  0
  187.4750  176.4110  144.1330 C   0  0  0  0  0  1  0  0  0  0  0  0
  187.9250  176.5060  142.8150 O   0  0  0  0  0  0  0  0  0  0  0  0
  190.7370  176.9660  143.5310 C   0  0  0  0  0  2  0  0  0  0  0  0
  190.8400  177.7070  144.8590 C   0  0  0  0  0  2  0  0  0  0  0  0
  191.5100  176.8320  145.9020 C   0  0  0  0  0  2  0  0  0  0  0  0
  190.6580  176.7650  147.1570 C   0  0  0  0  0  2  0  0  0  0  0  0
  188.2790  177.0170  147.7540 C   0  0  0  0  0  2  0  0  0  0  0  0
  189.4290  177.6310  146.9830 C   0  0  0  0  0  3  0  0  0  0  0  0
  189.0280  178.2010  148.3290 C   0  0  0  0  0  2  0  0  0  0  0  0
  189.7770  177.7120  138.7380 C   0  0  0  0  0  2  0  0  0  0  0  0
  189.0510  178.5860  137.7240 C   0  0  0  0  0  2  0  0  0  0  0  0
  188.3970  177.7590  136.6250 C   0  0  0  0  0  2  0  0  0  0  0  0
  188.1760  176.3230  137.0770 C   0  0  0  0  0  2  0  0  0  0  0  0
  187.1290  173.7130  136.9450 O   0  0  0  0  0  0  0  0  0  0  0  0
  186.7520  176.0200  137.1240 N   0  0  0  0  0  0  0  0  0  0  0  0
  186.3020  174.6530  137.0850 C   0  0  0  0  0  0  0  0  0  0  0  0
  183.9600  175.4700  136.8380 C   0  0  0  0  0  2  0  0  0  0  0  0
  184.4230  176.7740  137.4680 C   0  0  0  0  0  2  0  0  0  0  0  0
  185.8110  177.1260  136.9430 C   0  0  0  0  0  2  0  0  0  0  0  0
  184.8560  174.3240  137.2940 C   0  0  0  0  0  2  0  0  0  0  0  0
  1  4  1  0  0  0  0
  1 17  1  1  0  0  0
  2  5  1  0  0  0  0
  2  7  1  0  0  0  0
  4 16  1  6  0  0  0
  5  6  1  0  0  0  0
  6 10  1  1  0  0  0
  6  4  1  0  0  0  0
  7  3  1  6  0  0  0
  7  1  1  0  0  0  0
  8 14  1  0  0  0  0
  9  8  2  0  0  0  0
 10 12  2  0  0  0  0
 11  9  1  0  0  0  0
 12  8  1  0  0  0  0
 13 11  2  0  0  0  0
 13 10  1  0  0  0  0
 16 15  1  0  0  0  0
 17 18  1  0  0  0  0
 18 19  1  0  0  0  0
 19 20  1  0  0  0  0
 21 23  1  0  0  0  0
 22 20  1  0  0  0  0
 22 21  1  0  0  0  0
 22 23  1  0  0  0  0
 24  2  1  0  0  0  0
 25 24  1  0  0  0  0
 26 27  1  0  0  0  0
 26 25  1  0  0  0  0
 27 29  1  0  0  0  0
 28 30  2  0  0  0  0
 30 29  1  0  0  0  0
 30 34  1  0  0  0  0
 31 34  1  0  0  0  0
 31 32  1  0  0  0  0
 33 29  1  0  0  0  0
 33 32  1  0  0  0  0
M  END
>  <MODEL>
2

>  <REMARK>
 VINA RESULT:      -7.8      3.122      6.414
  Name = 
  12 active torsions:
  status: ('A' for Active; 'I' for Inactive)
    1  A    between atoms: C_2  and  C_15
    2  A    between atoms: C_2  and  C_25
    3  A    between atoms: C_3  and  N_13
    4  A    between atoms: C_3  and  C_17
    5  A    between atoms: C_4  and  C_15
    6  A    between atoms: N_5  and  C_18
    7  A    between atoms: C_6  and  C_9
    8  A    between atoms: C_9  and  C_25
    9  A    between atoms: C_12  and  C_28
   10  A    between atoms: C_17  and  C_29
   11  A    between atoms: C_18  and  C_29
   12  A    between atoms: C_21  and  O_32
                            x       y       z     vdW  Elec       q    Type
                         _______ _______ _______ _____ _____    ______ ____

>  <TORSDO>
F 12

$$$$
=
 OpenBabel10252415093D

 34 37  0  0  1  0  0  0  0  0999 V2000
  189.5690  177.6130  141.2510 C   0  0  2  0  0  3  0  0  0  0  0  0
  187.4470  178.6830  141.8690 N   0  0  0  0  0  0  0  0  0  0  0  0
  188.0960  178.5370  139.6110 O   0  0  0  0  0  1  0  0  0  0  0  0
  189.6890  177.1730  142.7190 C   0  0  1  0  0  3  0  0  0  0  0  0
  187.4550  177.9880  143.0430 O   0  0  0  0  0  0  0  0  0  0  0  0
  188.7670  178.0790  143.5430 C   0  0  1  0  0  3  0  0  0  0  0  0
  188.1100  177.8650  140.8380 C   0  0  1  0  0  3  0  0  0  0  0  0
  190.1070  177.1560  146.9640 C   0  0  0  0  0  0  0  0  0  0  0  0
  188.9420  177.1550  147.7370 C   0  0  0  0  0  3  0  0  0  0  0  0
  188.8130  177.7670  145.0070 C   0  0  0  0  0  0  0  0  0  0  0  0
  187.7100  177.4540  147.1480 C   0  0  0  0  0  3  0  0  0  0  0  0
  190.0410  177.4580  145.6000 C   0  0  0  0  0  3  0  0  0  0  0  0
  187.6450  177.7580  145.7840 C   0  0  0  0  0  3  0  0  0  0  0  0
  191.6470  176.7800  147.7030 Cl  0  0  0  0  0  0  0  0  0  0  0  0
  190.4920  175.1580  143.1840 C   0  0  0  0  0  1  0  0  0  0  0  0
  189.3110  175.8320  142.8680 O   0  0  0  0  0  0  0  0  0  0  0  0
  190.3510  176.7320  140.2730 C   0  0  0  0  0  2  0  0  0  0  0  0
  191.5940  177.4220  139.7230 C   0  0  0  0  0  2  0  0  0  0  0  0
  192.2550  176.5560  138.6670 C   0  0  0  0  0  2  0  0  0  0  0  0
  191.2120  175.7310  137.9350 C   0  0  0  0  0  2  0  0  0  0  0  0
  190.0070  175.6060  135.7870 C   0  0  0  0  0  2  0  0  0  0  0  0
  190.6250  176.5450  136.8010 C   0  0  0  0  0  3  0  0  0  0  0  0
  189.1240  176.3430  136.7710 C   0  0  0  0  0  2  0  0  0  0  0  0
  186.0430  178.8250  141.5030 C   0  0  0  0  0  2  0  0  0  0  0  0
  185.1550  178.1150  142.5160 C   0  0  0  0  0  2  0  0  0  0  0  0
  183.8860  178.9040  142.8120 C   0  0  0  0  0  2  0  0  0  0  0  0
  182.8630  178.7340  141.6980 C   0  0  0  0  0  2  0  0  0  0  0  0
  180.5840  179.2960  140.1430 O   0  0  0  0  0  0  0  0  0  0  0  0
  181.5110  178.7980  142.2380 N   0  0  0  0  0  0  0  0  0  0  0  0
  180.3960  179.0580  141.3660 C   0  0  0  0  0  0  0  0  0  0  0  0
  178.9310  179.2910  143.3690 C   0  0  0  0  0  2  0  0  0  0  0  0
  179.9520  178.4560  144.1250 C   0  0  0  0  0  2  0  0  0  0  0  0
  181.3570  178.8580  143.6930 C   0  0  0  0  0  2  0  0  0  0  0  0
  178.9920  178.9660  141.8810 C   0  0  0  0  0  2  0  0  0  0  0  0
  1 17  1  6  0  0  0
  1  4  1  0  0  0  0
  2  5  1  0  0  0  0
  4 16  1  6  0  0  0
  4  6  1  0  0  0  0
  5  6  1  0  0  0  0
  6 10  1  1  0  0  0
  7  3  1  6  0  0  0
  7  1  1  0  0  0  0
  7  2  1  0  0  0  0
  8 14  1  0  0  0  0
  8  9  1  0  0  0  0
 10 12  1  0  0  0  0
 10 13  2  0  0  0  0
 11  9  2  0  0  0  0
 12  8  2  0  0  0  0
 13 11  1  0  0  0  0
 16 15  1  0  0  0  0
 18 17  1  0  0  0  0
 19 18  1  0  0  0  0
 20 19  1  0  0  0  0
 21 23  1  0  0  0  0
 21 22  1  0  0  0  0
 22 20  1  0  0  0  0
 23 22  1  0  0  0  0
 24  2  1  0  0  0  0
 24 25  1  0  0  0  0
 25 26  1  0  0  0  0
 27 29  1  0  0  0  0
 27 26  1  0  0  0  0
 28 30  2  0  0  0  0
 29 33  1  0  0  0  0
 30 34  1  0  0  0  0
 30 29  1  0  0  0  0
 31 32  1  0  0  0  0
 33 32  1  0  0  0  0
 34 31  1  0  0  0  0
M  END
>  <MODEL>
3

>  <REMARK>
 VINA RESULT:      -7.5      1.625      2.131
  Name = 
  12 active torsions:
  status: ('A' for Active; 'I' for Inactive)
    1  A    between atoms: C_2  and  C_15
    2  A    between atoms: C_2  and  C_25
    3  A    between atoms: C_3  and  N_13
    4  A    between atoms: C_3  and  C_17
    5  A    between atoms: C_4  and  C_15
    6  A    between atoms: N_5  and  C_18
    7  A    between atoms: C_6  and  C_9
    8  A    between atoms: C_9  and  C_25
    9  A    between atoms: C_12  and  C_28
   10  A    between atoms: C_17  and  C_29
   11  A    between atoms: C_18  and  C_29
   12  A    between atoms: C_21  and  O_32
                            x       y       z     vdW  Elec       q    Type
                         _______ _______ _______ _____ _____    ______ ____

>  <TORSDO>
F 12

$$$$
=
 OpenBabel10252415093D

 34 37  0  0  1  0  0  0  0  0999 V2000
  189.5170  176.3950  142.7340 C   0  0  2  0  0  3  0  0  0  0  0  0
  187.3720  177.4940  142.2640 N   0  0  0  0  0  0  0  0  0  0  0  0
  187.8780  176.7500  144.4390 O   0  0  0  0  0  1  0  0  0  0  0  0
  189.9420  176.7800  141.3090 C   0  0  1  0  0  3  0  0  0  0  0  0
  187.9290  178.0790  141.1650 O   0  0  0  0  0  0  0  0  0  0  0  0
  188.6640  177.0700  140.5140 C   0  0  1  0  0  3  0  0  0  0  0  0
  188.4210  177.3230  143.2840 C   0  0  1  0  0  3  0  0  0  0  0  0
  189.5520  176.7450  136.8460 C   0  0  0  0  0  0  0  0  0  0  0  0
  189.4950  178.0750  136.4190 C   0  0  0  0  0  3  0  0  0  0  0  0
  188.9430  177.4360  139.0890 C   0  0  0  0  0  0  0  0  0  0  0  0
  189.1680  179.0880  137.3240 C   0  0  0  0  0  3  0  0  0  0  0  0
  189.2800  176.4270  138.1810 C   0  0  0  0  0  3  0  0  0  0  0  0
  188.8940  178.7700  138.6580 C   0  0  0  0  0  3  0  0  0  0  0  0
  189.9630  175.4790  135.7120 Cl  0  0  0  0  0  0  0  0  0  0  0  0
  191.9540  177.5000  140.7100 C   0  0  0  0  0  1  0  0  0  0  0  0
  190.7700  177.9110  141.3260 O   0  0  0  0  0  0  0  0  0  0  0  0
  190.6890  176.1770  143.6960 C   0  0  0  0  0  2  0  0  0  0  0  0
  190.7520  177.2310  144.7950 C   0  0  0  0  0  2  0  0  0  0  0  0
  191.5940  176.7340  145.9560 C   0  0  0  0  0  2  0  0  0  0  0  0
  190.7710  176.7150  147.2320 C   0  0  0  0  0  2  0  0  0  0  0  0
  188.4060  177.0180  147.8600 C   0  0  0  0  0  2  0  0  0  0  0  0
  189.5550  177.6010  147.0640 C   0  0  0  0  0  3  0  0  0  0  0  0
  189.1850  178.1950  148.4080 C   0  0  0  0  0  2  0  0  0  0  0  0
  186.3970  178.4530  142.7700 C   0  0  0  0  0  2  0  0  0  0  0  0
  185.0080  178.1320  142.2360 C   0  0  0  0  0  2  0  0  0  0  0  0
  184.5930  179.0820  141.1210 C   0  0  0  0  0  2  0  0  0  0  0  0
  183.4890  178.4750  140.2660 C   0  0  0  0  0  2  0  0  0  0  0  0
  182.5890  175.9850  139.3080 O   0  0  0  0  0  0  0  0  0  0  0  0
  184.0600  177.8000  139.1070 N   0  0  0  0  0  0  0  0  0  0  0  0
  183.5160  176.5440  138.6620 C   0  0  0  0  0  0  0  0  0  0  0  0
  185.4260  176.3210  137.0760 C   0  0  0  0  0  2  0  0  0  0  0  0
  185.5750  177.8320  137.1550 C   0  0  0  0  0  2  0  0  0  0  0  0
  185.3370  178.2920  138.5890 C   0  0  0  0  0  2  0  0  0  0  0  0
  183.9870  175.9240  137.3820 C   0  0  0  0  0  2  0  0  0  0  0  0
  1  7  1  0  0  0  0
  1 17  1  1  0  0  0
  2 24  1  0  0  0  0
  2  7  1  0  0  0  0
  4 16  1  1  0  0  0
  4  1  1  0  0  0  0
  5  2  1  0  0  0  0
  6 10  1  6  0  0  0
  6  5  1  0  0  0  0
  6  4  1  0  0  0  0
  7  3  1  1  0  0  0
  8 12  1  0  0  0  0
  9  8  2  0  0  0  0
  9 11  1  0  0  0  0
 11 13  2  0  0  0  0
 12 10  2  0  0  0  0
 13 10  1  0  0  0  0
 14  8  1  0  0  0  0
 15 16  1  0  0  0  0
 17 18  1  0  0  0  0
 18 19  1  0  0  0  0
 19 20  1  0  0  0  0
 21 23  1  0  0  0  0
 22 20  1  0  0  0  0
 22 21  1  0  0  0  0
 22 23  1  0  0  0  0
 25 24  1  0  0  0  0
 26 25  1  0  0  0  0
 27 26  1  0  0  0  0
 29 27  1  0  0  0  0
 30 29  1  0  0  0  0
 30 28  2  0  0  0  0
 31 32  1  0  0  0  0
 31 34  1  0  0  0  0
 32 33  1  0  0  0  0
 33 29  1  0  0  0  0
 34 30  1  0  0  0  0
M  END
>  <MODEL>
4

>  <REMARK>
 VINA RESULT:      -7.5      3.056      6.536
  Name = 
  12 active torsions:
  status: ('A' for Active; 'I' for Inactive)
    1  A    between atoms: C_2  and  C_15
    2  A    between atoms: C_2  and  C_25
    3  A    between atoms: C_3  and  N_13
    4  A    between atoms: C_3  and  C_17
    5  A    between atoms: C_4  and  C_15
    6  A    between atoms: N_5  and  C_18
    7  A    between atoms: C_6  and  C_9
    8  A    between atoms: C_9  and  C_25
    9  A    between atoms: C_12  and  C_28
   10  A    between atoms: C_17  and  C_29
   11  A    between atoms: C_18  and  C_29
   12  A    between atoms: C_21  and  O_32
                            x       y       z     vdW  Elec       q    Type
                         _______ _______ _______ _____ _____    ______ ____

>  <TORSDO>
F 12

$$$$
=
 OpenBabel10252415093D

 34 37  0  0  1  0  0  0  0  0999 V2000
  188.7580  178.2570  141.8810 C   0  0  2  0  0  3  0  0  0  0  0  0
  187.4790  178.5070  139.8010 N   0  0  0  0  0  0  0  0  0  0  0  0
  189.7980  178.1160  139.7330 O   0  0  0  0  0  1  0  0  0  0  0  0
  187.4120  178.2510  142.6220 C   0  0  1  0  0  3  0  0  0  0  0  0
  186.3430  178.1630  140.4740 O   0  0  0  0  0  0  0  0  0  0  0  0
  186.3740  178.8800  141.6850 C   0  0  1  0  0  3  0  0  0  0  0  0
  188.6180  177.8070  140.4180 C   0  0  1  0  0  3  0  0  0  0  0  0
  182.6190  178.6200  142.1150 C   0  0  0  0  0  0  0  0  0  0  0  0
  182.4450  179.1060  143.4150 C   0  0  0  0  0  3  0  0  0  0  0  0
  185.0120  178.9570  142.3050 C   0  0  0  0  0  0  0  0  0  0  0  0
  183.5520  179.5230  144.1600 C   0  0  0  0  0  3  0  0  0  0  0  0
  183.9010  178.5500  141.5600 C   0  0  0  0  0  3  0  0  0  0  0  0
  184.8330  179.4510  143.6060 C   0  0  0  0  0  3  0  0  0  0  0  0
  181.2330  178.1000  141.1840 Cl  0  0  0  0  0  0  0  0  0  0  0  0
  186.9040  176.9510  144.3460 C   0  0  0  0  0  1  0  0  0  0  0  0
  187.0340  176.9430  142.9570 O   0  0  0  0  0  0  0  0  0  0  0  0
  189.8890  177.5590  142.6420 C   0  0  0  0  0  2  0  0  0  0  0  0
  190.4810  178.4290  143.7450 C   0  0  0  0  0  2  0  0  0  0  0  0
  190.5960  177.6400  145.0360 C   0  0  0  0  0  2  0  0  0  0  0  0
  189.4400  177.9760  145.9610 C   0  0  0  0  0  2  0  0  0  0  0  0
  189.1310  178.1950  148.3980 C   0  0  0  0  0  2  0  0  0  0  0  0
  189.6420  177.2910  147.2960 C   0  0  0  0  0  3  0  0  0  0  0  0
  188.2910  177.0260  147.9280 C   0  0  0  0  0  2  0  0  0  0  0  0
  187.3060  177.9920  138.4480 C   0  0  0  0  0  2  0  0  0  0  0  0
  185.9660  178.4340  137.8770 C   0  0  0  0  0  2  0  0  0  0  0  0
  185.0410  177.2530  137.6150 C   0  0  0  0  0  2  0  0  0  0  0  0
  185.4210  176.5340  136.3280 C   0  0  0  0  0  2  0  0  0  0  0  0
  188.0430  175.6690  135.7750 O   0  0  0  0  0  0  0  0  0  0  0  0
  185.9090  175.1920  136.6220 N   0  0  0  0  0  0  0  0  0  0  0  0
  187.2760  174.8420  136.3390 C   0  0  0  0  0  0  0  0  0  0  0  0
  186.7350  172.4650  136.8550 C   0  0  0  0  0  2  0  0  0  0  0  0
  185.5640  172.9830  137.6750 C   0  0  0  0  0  2  0  0  0  0  0  0
  184.9220  174.1630  136.9530 C   0  0  0  0  0  2  0  0  0  0  0  0
  187.8290  173.5230  136.7830 C   0  0  0  0  0  2  0  0  0  0  0  0
  1  4  1  0  0  0  0
  1 17  1  1  0  0  0
  2  7  1  0  0  0  0
  2  5  1  0  0  0  0
  4 16  1  6  0  0  0
  5  6  1  0  0  0  0
  6 10  1  1  0  0  0
  6  4  1  0  0  0  0
  7  3  1  6  0  0  0
  7  1  1  0  0  0  0
  8  9  1  0  0  0  0
  9 11  2  0  0  0  0
 10 13  2  0  0  0  0
 12  8  2  0  0  0  0
 12 10  1  0  0  0  0
 13 11  1  0  0  0  0
 14  8  1  0  0  0  0
 16 15  1  0  0  0  0
 17 18  1  0  0  0  0
 18 19  1  0  0  0  0
 19 20  1  0  0  0  0
 20 22  1  0  0  0  0
 22 23  1  0  0  0  0
 22 21  1  0  0  0  0
 23 21  1  0  0  0  0
 24  2  1  0  0  0  0
 25 24  1  0  0  0  0
 26 25  1  0  0  0  0
 27 29  1  0  0  0  0
 27 26  1  0  0  0  0
 28 30  2  0  0  0  0
 29 33  1  0  0  0  0
 30 29  1  0  0  0  0
 30 34  1  0  0  0  0
 31 32  1  0  0  0  0
 33 32  1  0  0  0  0
 34 31  1  0  0  0  0
M  END
>  <MODEL>
5

>  <REMARK>
 VINA RESULT:      -7.5      3.625      6.781
  Name = 
  12 active torsions:
  status: ('A' for Active; 'I' for Inactive)
    1  A    between atoms: C_2  and  C_15
    2  A    between atoms: C_2  and  C_25
    3  A    between atoms: C_3  and  N_13
    4  A    between atoms: C_3  and  C_17
    5  A    between atoms: C_4  and  C_15
    6  A    between atoms: N_5  and  C_18
    7  A    between atoms: C_6  and  C_9
    8  A    between atoms: C_9  and  C_25
    9  A    between atoms: C_12  and  C_28
   10  A    between atoms: C_17  and  C_29
   11  A    between atoms: C_18  and  C_29
   12  A    between atoms: C_21  and  O_32
                            x       y       z     vdW  Elec       q    Type
                         _______ _______ _______ _____ _____    ______ ____

>  <TORSDO>
F 12

$$$$
=
 OpenBabel10252415093D

 34 37  0  0  1  0  0  0  0  0999 V2000
  184.6720  178.9070  142.0430 C   0  0  2  0  0  3  0  0  0  0  0  0
  186.1810  178.6510  140.1230 N   0  0  0  0  0  0  0  0  0  0  0  0
  186.9930  178.4060  142.3180 O   0  0  0  0  0  1  0  0  0  0  0  0
  183.5160  178.9620  141.0320 C   0  0  1  0  0  3  0  0  0  0  0  0
  185.1050  178.3760  139.3310 O   0  0  0  0  0  0  0  0  0  0  0  0
  184.1190  179.3210  139.6690 C   0  0  1  0  0  3  0  0  0  0  0  0
  185.8970  178.1640  141.4840 C   0  0  1  0  0  3  0  0  0  0  0  0
  181.2820  180.6860  137.5620 C   0  0  0  0  0  0  0  0  0  0  0  0
  181.1170  179.6730  136.6120 C   0  0  0  0  0  3  0  0  0  0  0  0
  183.0830  179.4330  138.5930 C   0  0  0  0  0  0  0  0  0  0  0  0
  181.9300  178.5360  136.6530 C   0  0  0  0  0  3  0  0  0  0  0  0
  182.2610  180.5630  138.5530 C   0  0  0  0  0  3  0  0  0  0  0  0
  182.9100  178.4150  137.6430 C   0  0  0  0  0  3  0  0  0  0  0  0
  180.2630  182.1070  137.5100 Cl  0  0  0  0  0  0  0  0  0  0  0  0
  181.5060  178.0290  141.1320 C   0  0  0  0  0  1  0  0  0  0  0  0
  182.8580  177.7270  140.9610 O   0  0  0  0  0  0  0  0  0  0  0  0
  184.2520  178.4510  143.4430 C   0  0  0  0  0  2  0  0  0  0  0  0
  184.4090  179.5470  144.4910 C   0  0  0  0  0  2  0  0  0  0  0  0
  184.4540  178.9450  145.8830 C   0  0  0  0  0  2  0  0  0  0  0  0
  185.8800  178.9360  146.4050 C   0  0  0  0  0  2  0  0  0  0  0  0
  187.7510  177.6590  145.4320 C   0  0  0  0  0  2  0  0  0  0  0  0
  186.4730  177.5540  146.2380 C   0  0  0  0  0  3  0  0  0  0  0  0
  187.8170  177.5030  146.9370 C   0  0  0  0  0  2  0  0  0  0  0  0
  187.2820  177.8650  139.5800 C   0  0  0  0  0  2  0  0  0  0  0  0
  188.5540  178.7000  139.5190 C   0  0  0  0  0  2  0  0  0  0  0  0
  189.7660  177.9290  140.0250 C   0  0  0  0  0  2  0  0  0  0  0  0
  189.3710  176.9360  141.1100 C   0  0  0  0  0  2  0  0  0  0  0  0
  190.1820  174.8800  142.8530 O   0  0  0  0  0  0  0  0  0  0  0  0
  190.1570  177.1620  142.3150 N   0  0  0  0  0  0  0  0  0  0  0  0
  190.5600  176.0500  143.1340 C   0  0  0  0  0  0  0  0  0  0  0  0
  191.3690  177.6580  144.8580 C   0  0  0  0  0  2  0  0  0  0  0  0
  191.4760  178.6880  143.7440 C   0  0  0  0  0  2  0  0  0  0  0  0
  190.2900  178.5380  142.7980 C   0  0  0  0  0  2  0  0  0  0  0  0
  191.5010  176.2530  144.2820 C   0  0  0  0  0  2  0  0  0  0  0  0
  1 17  1  1  0  0  0
  2  7  1  0  0  0  0
  4 16  1  6  0  0  0
  4  1  1  0  0  0  0
  5  6  1  0  0  0  0
  5  2  1  0  0  0  0
  6 10  1  6  0  0  0
  6  4  1  0  0  0  0
  7  1  1  0  0  0  0
  7  3  1  1  0  0  0
  8 12  1  0  0  0  0
  9 11  1  0  0  0  0
  9  8  2  0  0  0  0
 11 13  2  0  0  0  0
 12 10  2  0  0  0  0
 13 10  1  0  0  0  0
 14  8  1  0  0  0  0
 16 15  1  0  0  0  0
 17 18  1  0  0  0  0
 18 19  1  0  0  0  0
 19 20  1  0  0  0  0
 21 22  1  0  0  0  0
 21 23  1  0  0  0  0
 22 20  1  0  0  0  0
 22 23  1  0  0  0  0
 24  2  1  0  0  0  0
 25 24  1  0  0  0  0
 25 26  1  0  0  0  0
 26 27  1  0  0  0  0
 27 29  1  0  0  0  0
 28 30  2  0  0  0  0
 29 33  1  0  0  0  0
 29 30  1  0  0  0  0
 30 34  1  0  0  0  0
 32 31  1  0  0  0  0
 33 32  1  0  0  0  0
 34 31  1  0  0  0  0
M  END
>  <MODEL>
6

>  <REMARK>
 VINA RESULT:      -7.4      3.591      9.307
  Name = 
  12 active torsions:
  status: ('A' for Active; 'I' for Inactive)
    1  A    between atoms: C_2  and  C_15
    2  A    between atoms: C_2  and  C_25
    3  A    between atoms: C_3  and  N_13
    4  A    between atoms: C_3  and  C_17
    5  A    between atoms: C_4  and  C_15
    6  A    between atoms: N_5  and  C_18
    7  A    between atoms: C_6  and  C_9
    8  A    between atoms: C_9  and  C_25
    9  A    between atoms: C_12  and  C_28
   10  A    between atoms: C_17  and  C_29
   11  A    between atoms: C_18  and  C_29
   12  A    between atoms: C_21  and  O_32
                            x       y       z     vdW  Elec       q    Type
                         _______ _______ _______ _____ _____    ______ ____

>  <TORSDO>
F 12

$$$$
=
 OpenBabel10252415093D

 34 37  0  0  1  0  0  0  0  0999 V2000
  189.6250  176.4040  142.7770 C   0  0  2  0  0  3  0  0  0  0  0  0
  187.4960  177.5250  142.2900 N   0  0  0  0  0  0  0  0  0  0  0  0
  187.9790  176.7800  144.4690 O   0  0  0  0  0  1  0  0  0  0  0  0
  190.0640  176.7810  141.3540 C   0  0  1  0  0  3  0  0  0  0  0  0
  188.0660  178.1020  141.1930 O   0  0  0  0  0  0  0  0  0  0  0  0
  188.7940  177.0840  140.5490 C   0  0  1  0  0  3  0  0  0  0  0  0
  188.5360  177.3450  143.3170 C   0  0  1  0  0  3  0  0  0  0  0  0
  190.0890  176.8570  136.9970 C   0  0  0  0  0  0  0  0  0  0  0  0
  189.6760  178.0820  136.4630 C   0  0  0  0  0  3  0  0  0  0  0  0
  189.0870  177.4430  139.1250 C   0  0  0  0  0  0  0  0  0  0  0  0
  188.9740  178.9920  137.2590 C   0  0  0  0  0  3  0  0  0  0  0  0
  189.7980  176.5410  138.3270 C   0  0  0  0  0  3  0  0  0  0  0  0
  188.6820  178.6740  138.5890 C   0  0  0  0  0  3  0  0  0  0  0  0
  190.9680  175.7210  135.9990 Cl  0  0  0  0  0  0  0  0  0  0  0  0
  192.1150  177.4550  140.8420 C   0  0  0  0  0  1  0  0  0  0  0  0
  190.9040  177.9030  141.3730 O   0  0  0  0  0  0  0  0  0  0  0  0
  190.7880  176.1750  143.7460 C   0  0  0  0  0  2  0  0  0  0  0  0
  190.8010  177.1750  144.8970 C   0  0  0  0  0  2  0  0  0  0  0  0
  191.5440  176.6000  146.0880 C   0  0  0  0  0  2  0  0  0  0  0  0
  190.7110  176.7490  147.3480 C   0  0  0  0  0  2  0  0  0  0  0  0
  188.3050  177.1070  147.7500 C   0  0  0  0  0  2  0  0  0  0  0  0
  189.5390  177.6690  147.0770 C   0  0  0  0  0  3  0  0  0  0  0  0
  189.0560  178.2570  148.3870 C   0  0  0  0  0  2  0  0  0  0  0  0
  186.5280  178.4960  142.7870 C   0  0  0  0  0  2  0  0  0  0  0  0
  185.1360  177.8810  142.8380 C   0  0  0  0  0  2  0  0  0  0  0  0
  184.1050  178.7480  142.1260 C   0  0  0  0  0  2  0  0  0  0  0  0
  183.5780  178.0570  140.8760 C   0  0  0  0  0  2  0  0  0  0  0  0
  184.3190  180.1070  139.0940 O   0  0  0  0  0  0  0  0  0  0  0  0
  182.6220  178.9150  140.1890 N   0  0  0  0  0  0  0  0  0  0  0  0
  183.0840  179.9180  139.2650 C   0  0  0  0  0  0  0  0  0  0  0  0
  180.7650  180.8240  139.1460 C   0  0  0  0  0  2  0  0  0  0  0  0
  180.2830  179.4560  139.6000 C   0  0  0  0  0  2  0  0  0  0  0  0
  181.2350  178.9070  140.6570 C   0  0  0  0  0  2  0  0  0  0  0  0
  182.1080  180.6940  138.4360 C   0  0  0  0  0  2  0  0  0  0  0  0
  1  7  1  0  0  0  0
  1 17  1  1  0  0  0
  2 24  1  0  0  0  0
  2  7  1  0  0  0  0
  4 16  1  1  0  0  0
  4  1  1  0  0  0  0
  5  2  1  0  0  0  0
  6 10  1  6  0  0  0
  6  5  1  0  0  0  0
  6  4  1  0  0  0  0
  7  3  1  1  0  0  0
  8 12  1  0  0  0  0
  9  8  2  0  0  0  0
  9 11  1  0  0  0  0
 11 13  2  0  0  0  0
 12 10  2  0  0  0  0
 13 10  1  0  0  0  0
 14  8  1  0  0  0  0
 15 16  1  0  0  0  0
 17 18  1  0  0  0  0
 18 19  1  0  0  0  0
 19 20  1  0  0  0  0
 21 23  1  0  0  0  0
 22 20  1  0  0  0  0
 22 21  1  0  0  0  0
 22 23  1  0  0  0  0
 24 25  1  0  0  0  0
 26 25  1  0  0  0  0
 27 26  1  0  0  0  0
 28 30  2  0  0  0  0
 29 33  1  0  0  0  0
 29 27  1  0  0  0  0
 30 29  1  0  0  0  0
 31 32  1  0  0  0  0
 32 33  1  0  0  0  0
 34 31  1  0  0  0  0
 34 30  1  0  0  0  0
M  END
>  <MODEL>
7

>  <REMARK>
 VINA RESULT:      -7.3      2.527      6.096
  Name = 
  12 active torsions:
  status: ('A' for Active; 'I' for Inactive)
    1  A    between atoms: C_2  and  C_15
    2  A    between atoms: C_2  and  C_25
    3  A    between atoms: C_3  and  N_13
    4  A    between atoms: C_3  and  C_17
    5  A    between atoms: C_4  and  C_15
    6  A    between atoms: N_5  and  C_18
    7  A    between atoms: C_6  and  C_9
    8  A    between atoms: C_9  and  C_25
    9  A    between atoms: C_12  and  C_28
   10  A    between atoms: C_17  and  C_29
   11  A    between atoms: C_18  and  C_29
   12  A    between atoms: C_21  and  O_32
                            x       y       z     vdW  Elec       q    Type
                         _______ _______ _______ _____ _____    ______ ____

>  <TORSDO>
F 12

$$$$
=
 OpenBabel10252415093D

 34 37  0  0  1  0  0  0  0  0999 V2000
  184.3560  178.5410  143.9000 C   0  0  2  0  0  3  0  0  0  0  0  0
  186.1990  178.1350  142.3290 N   0  0  0  0  0  0  0  0  0  0  0  0
  184.0890  178.8160  141.5400 O   0  0  0  0  0  1  0  0  0  0  0  0
  185.3820  178.3760  145.0310 C   0  0  1  0  0  3  0  0  0  0  0  0
  187.0890  178.3320  143.3440 O   0  0  0  0  0  0  0  0  0  0  0  0
  186.5850  177.6230  144.4500 C   0  0  1  0  0  3  0  0  0  0  0  0
  185.0130  178.9730  142.5780 C   0  0  1  0  0  3  0  0  0  0  0  0
  190.0080  177.1270  145.9950 C   0  0  0  0  0  0  0  0  0  0  0  0
  189.6860  176.8900  147.3350 C   0  0  0  0  0  3  0  0  0  0  0  0
  187.6540  177.3740  145.4690 C   0  0  0  0  0  0  0  0  0  0  0  0
  188.3490  176.8880  147.7440 C   0  0  0  0  0  3  0  0  0  0  0  0
  188.9920  177.3650  145.0630 C   0  0  0  0  0  3  0  0  0  0  0  0
  187.3340  177.1280  146.8120 C   0  0  0  0  0  3  0  0  0  0  0  0
  191.6810  177.1270  145.4850 Cl  0  0  0  0  0  0  0  0  0  0  0  0
  185.6710  179.5180  146.9120 C   0  0  0  0  0  1  0  0  0  0  0  0
  185.7840  179.6250  145.5240 O   0  0  0  0  0  0  0  0  0  0  0  0
  183.1310  179.3740  144.2880 C   0  0  0  0  0  2  0  0  0  0  0  0
  181.8200  178.6250  144.0800 C   0  0  0  0  0  2  0  0  0  0  0  0
  180.9320  179.3760  143.1050 C   0  0  0  0  0  2  0  0  0  0  0  0
  179.7840  178.4910  142.6510 C   0  0  0  0  0  2  0  0  0  0  0  0
  180.8210  177.5570  140.6190 C   0  0  0  0  0  2  0  0  0  0  0  0
  179.7280  178.4670  141.1390 C   0  0  0  0  0  3  0  0  0  0  0  0
  179.3900  177.0640  140.6770 C   0  0  0  0  0  2  0  0  0  0  0  0
  186.8580  178.6270  141.1260 C   0  0  0  0  0  2  0  0  0  0  0  0
  188.3710  178.5800  141.2900 C   0  0  0  0  0  2  0  0  0  0  0  0
  189.0410  177.7930  140.1720 C   0  0  0  0  0  2  0  0  0  0  0  0
  189.0630  178.5910  138.8760 C   0  0  0  0  0  2  0  0  0  0  0  0
  187.5300  179.7650  136.8260 O   0  0  0  0  0  0  0  0  0  0  0  0
  188.4320  177.8330  137.8030 N   0  0  0  0  0  0  0  0  0  0  0  0
  187.6940  178.5160  136.7730 C   0  0  0  0  0  0  0  0  0  0  0  0
  186.8980  176.3090  135.9320 C   0  0  0  0  0  2  0  0  0  0  0  0
  188.1120  175.6920  136.6100 C   0  0  0  0  0  2  0  0  0  0  0  0
  188.3480  176.3800  137.9510 C   0  0  0  0  0  2  0  0  0  0  0  0
  187.1800  177.7650  135.5830 C   0  0  0  0  0  2  0  0  0  0  0  0
  1 17  1  1  0  0  0
  1  4  1  0  0  0  0
  2  7  1  0  0  0  0
  2  5  1  0  0  0  0
  4 16  1  6  0  0  0
  5  6  1  0  0  0  0
  6  4  1  0  0  0  0
  6 10  1  1  0  0  0
  7  3  1  6  0  0  0
  7  1  1  0  0  0  0
  8  9  1  0  0  0  0
  9 11  2  0  0  0  0
 10 13  2  0  0  0  0
 12 10  1  0  0  0  0
 12  8  2  0  0  0  0
 13 11  1  0  0  0  0
 14  8  1  0  0  0  0
 16 15  1  0  0  0  0
 18 17  1  0  0  0  0
 19 18  1  0  0  0  0
 20 19  1  0  0  0  0
 21 23  1  0  0  0  0
 21 22  1  0  0  0  0
 22 20  1  0  0  0  0
 23 22  1  0  0  0  0
 24 25  1  0  0  0  0
 24  2  1  0  0  0  0
 26 25  1  0  0  0  0
 27 26  1  0  0  0  0
 29 33  1  0  0  0  0
 29 27  1  0  0  0  0
 30 28  2  0  0  0  0
 30 29  1  0  0  0  0
 31 32  1  0  0  0  0
 32 33  1  0  0  0  0
 34 31  1  0  0  0  0
 34 30  1  0  0  0  0
M  END
>  <MODEL>
8

>  <REMARK>
 VINA RESULT:      -7.3      2.684      7.123
  Name = 
  12 active torsions:
  status: ('A' for Active; 'I' for Inactive)
    1  A    between atoms: C_2  and  C_15
    2  A    between atoms: C_2  and  C_25
    3  A    between atoms: C_3  and  N_13
    4  A    between atoms: C_3  and  C_17
    5  A    between atoms: C_4  and  C_15
    6  A    between atoms: N_5  and  C_18
    7  A    between atoms: C_6  and  C_9
    8  A    between atoms: C_9  and  C_25
    9  A    between atoms: C_12  and  C_28
   10  A    between atoms: C_17  and  C_29
   11  A    between atoms: C_18  and  C_29
   12  A    between atoms: C_21  and  O_32
                            x       y       z     vdW  Elec       q    Type
                         _______ _______ _______ _____ _____    ______ ____

>  <TORSDO>
F 12

$$$$
=
 OpenBabel10252415093D

 34 37  0  0  1  0  0  0  0  0999 V2000
  184.3760  178.5390  143.8400 C   0  0  2  0  0  3  0  0  0  0  0  0
  186.2360  178.1370  142.2880 N   0  0  0  0  0  0  0  0  0  0  0  0
  184.1340  178.8180  141.4780 O   0  0  0  0  0  1  0  0  0  0  0  0
  185.3890  178.3720  144.9820 C   0  0  1  0  0  3  0  0  0  0  0  0
  187.1140  178.3320  143.3130 O   0  0  0  0  0  0  0  0  0  0  0  0
  186.5990  177.6210  144.4130 C   0  0  1  0  0  3  0  0  0  0  0  0
  185.0470  178.9730  142.5260 C   0  0  1  0  0  3  0  0  0  0  0  0
  190.0040  177.1160  145.9920 C   0  0  0  0  0  0  0  0  0  0  0  0
  189.6680  176.8830  147.3290 C   0  0  0  0  0  3  0  0  0  0  0  0
  187.6570  177.3700  145.4420 C   0  0  0  0  0  0  0  0  0  0  0  0
  188.3280  176.8870  147.7250 C   0  0  0  0  0  3  0  0  0  0  0  0
  188.9990  177.3550  145.0500 C   0  0  0  0  0  3  0  0  0  0  0  0
  187.3230  177.1280  146.7830 C   0  0  0  0  0  3  0  0  0  0  0  0
  191.6830  177.1090  145.4980 Cl  0  0  0  0  0  0  0  0  0  0  0  0
  185.5900  179.5350  146.8610 C   0  0  0  0  0  1  0  0  0  0  0  0
  185.7860  179.6210  145.4820 O   0  0  0  0  0  0  0  0  0  0  0  0
  183.1470  179.3710  144.2160 C   0  0  0  0  0  2  0  0  0  0  0  0
  181.8400  178.6070  144.0350 C   0  0  0  0  0  2  0  0  0  0  0  0
  180.8830  179.3970  143.1610 C   0  0  0  0  0  2  0  0  0  0  0  0
  180.0010  178.4540  142.3620 C   0  0  0  0  0  2  0  0  0  0  0  0
  180.0890  176.8490  140.4930 C   0  0  0  0  0  2  0  0  0  0  0  0
  180.6640  178.1390  141.0380 C   0  0  0  0  0  3  0  0  0  0  0  0
  179.6210  178.1780  139.9400 C   0  0  0  0  0  2  0  0  0  0  0  0
  186.9080  178.6310  141.0930 C   0  0  0  0  0  2  0  0  0  0  0  0
  188.4130  178.4370  141.2100 C   0  0  0  0  0  2  0  0  0  0  0  0
  188.9660  177.5770  140.0810 C   0  0  0  0  0  2  0  0  0  0  0  0
  190.3320  177.0110  140.4420 C   0  0  0  0  0  2  0  0  0  0  0  0
  193.0510  177.4650  139.8690 O   0  0  0  0  0  0  0  0  0  0  0  0
  191.0020  176.5060  139.2510 N   0  0  0  0  0  0  0  0  0  0  0  0
  192.4060  176.7550  139.0510 C   0  0  0  0  0  0  0  0  0  0  0  0
  192.2030  175.8360  136.7430 C   0  0  0  0  0  2  0  0  0  0  0  0
  190.9670  175.0920  137.2240 C   0  0  0  0  0  2  0  0  0  0  0  0
  190.1690  175.9880  138.1650 C   0  0  0  0  0  2  0  0  0  0  0  0
  193.1370  176.1070  137.9160 C   0  0  0  0  0  2  0  0  0  0  0  0
  1 17  1  1  0  0  0
  1  4  1  0  0  0  0
  2  7  1  0  0  0  0
  2  5  1  0  0  0  0
  4 16  1  6  0  0  0
  5  6  1  0  0  0  0
  6  4  1  0  0  0  0
  6 10  1  1  0  0  0
  7  3  1  6  0  0  0
  7  1  1  0  0  0  0
  8  9  1  0  0  0  0
  9 11  2  0  0  0  0
 10 13  2  0  0  0  0
 12 10  1  0  0  0  0
 12  8  2  0  0  0  0
 13 11  1  0  0  0  0
 14  8  1  0  0  0  0
 16 15  1  0  0  0  0
 18 17  1  0  0  0  0
 19 18  1  0  0  0  0
 20 19  1  0  0  0  0
 21 22  1  0  0  0  0
 22 20  1  0  0  0  0
 23 21  1  0  0  0  0
 23 22  1  0  0  0  0
 24 25  1  0  0  0  0
 24  2  1  0  0  0  0
 26 27  1  0  0  0  0
 26 25  1  0  0  0  0
 29 27  1  0  0  0  0
 30 29  1  0  0  0  0
 30 28  2  0  0  0  0
 31 32  1  0  0  0  0
 31 34  1  0  0  0  0
 32 33  1  0  0  0  0
 33 29  1  0  0  0  0
 34 30  1  0  0  0  0
M  END
>  <MODEL>
9

>  <REMARK>
 VINA RESULT:      -7.2      2.082      8.002
  Name = 
  12 active torsions:
  status: ('A' for Active; 'I' for Inactive)
    1  A    between atoms: C_2  and  C_15
    2  A    between atoms: C_2  and  C_25
    3  A    between atoms: C_3  and  N_13
    4  A    between atoms: C_3  and  C_17
    5  A    between atoms: C_4  and  C_15
    6  A    between atoms: N_5  and  C_18
    7  A    between atoms: C_6  and  C_9
    8  A    between atoms: C_9  and  C_25
    9  A    between atoms: C_12  and  C_28
   10  A    between atoms: C_17  and  C_29
   11  A    between atoms: C_18  and  C_29
   12  A    between atoms: C_21  and  O_32
                            x       y       z     vdW  Elec       q    Type
                         _______ _______ _______ _____ _____    ______ ____

>  <TORSDO>
F 12

$$$$
