=
 OpenBabel10262423293D

 34 38  0  0  1  0  0  0  0  0999 V2000
  184.3920  178.1410  141.6710 C   0  0  0  0  0  0  0  0  0  0  0  0
  184.3860  177.8890  139.0710 C   0  0  0  0  0  0  0  0  0  0  0  0
  182.1650  177.0750  140.0230 C   0  0  0  0  0  2  0  0  0  0  0  0
  183.5560  179.1900  144.2030 C   0  0  0  0  0  2  0  0  0  0  0  0
  185.1790  178.0180  142.7540 C   0  0  0  0  0  3  0  0  0  0  0  0
  182.5640  178.9820  143.0980 C   0  0  0  0  0  0  0  0  0  0  0  0
  180.4680  179.8000  142.0660 C   0  0  0  0  0  2  0  0  0  0  0  0
  181.1310  179.3380  143.3540 C   0  0  0  0  0  2  0  0  0  0  0  0
  184.6730  178.2520  144.0760 N   0  0  0  0  0  0  0  0  0  0  0  0
  181.9450  178.1850  140.9200 N   0  0  0  0  0  0  0  0  0  0  0  0
  182.9490  178.4730  141.9070 C   0  0  0  0  0  0  0  0  0  0  0  0
  180.5710  178.6830  141.0330 C   0  0  0  0  0  2  0  0  0  0  0  0
  185.1070  177.9970  137.8750 C   0  0  0  0  0  3  0  0  0  0  0  0
  186.4690  178.3080  137.8680 C   0  0  0  0  0  0  0  0  0  0  0  0
  187.1270  178.5070  139.0770 C   0  0  0  0  0  3  0  0  0  0  0  0
  183.0180  177.5000  138.9390 N   0  0  0  0  0  2  0  0  0  0  0  0
  186.4250  178.4170  140.2760 C   0  0  0  0  0  3  0  0  0  0  0  0
  185.0460  178.1160  140.3170 C   0  0  0  0  0  0  0  0  0  0  0  0
  186.2630  178.8510  147.5100 C   0  0  0  0  0  2  0  0  0  0  0  0
  186.9830  177.7280  144.8060 C   0  0  0  0  0  2  0  0  0  0  0  0
  188.4270  178.1720  148.2580 O   0  0  0  0  0  1  0  0  0  0  0  0
  187.4510  177.9010  147.2970 C   0  0  2  0  0  3  0  0  0  0  0  0
  188.0370  178.0270  145.8860 C   0  0  1  0  0  3  0  0  0  0  0  0
  185.5350  178.0170  145.2410 C   0  0  1  0  0  3  0  0  0  0  0  0
  185.5080  179.1930  146.2220 C   0  0  0  0  0  2  0  0  0  0  0  0
  190.3210  177.4270  145.0540 C   0  0  0  0  0  0  0  0  0  0  0  0
  189.2050  177.1020  145.7130 C   0  0  0  0  0  3  0  0  0  0  0  0
  190.4890  178.7820  144.4410 C   0  0  0  0  0  1  0  0  0  0  0  0
  191.4080  176.4410  144.9380 C   0  0  0  0  0  0  0  0  0  0  0  0
  192.0010  176.0250  145.9670 O   0  0  0  0  0  1  0  0  0  0  0  0
  191.7930  175.9590  143.6900 O   0  0  0  0  0  0  0  0  0  0  0  0
  187.2010  178.4130  136.6450 N   0  0  0  0  0  2  0  0  0  0  0  0
  188.6530  178.4740  136.5960 C   0  0  0  0  0  2  0  0  0  0  0  0
  189.2040  177.1090  136.2410 C   0  0  0  0  0  1  0  0  0  0  0  0
  1 11  1  0  0  0  0
  1  5  2  0  0  0  0
  2 18  1  0  0  0  0
  3 10  1  0  0  0  0
  5  9  1  0  0  0  0
  6  8  1  0  0  0  0
  6  4  1  0  0  0  0
  7  8  1  0  0  0  0
  9  4  1  0  0  0  0
 10 12  1  0  0  0  0
 10 11  1  0  0  0  0
 11  6  2  0  0  0  0
 12  7  1  0  0  0  0
 13  2  2  0  0  0  0
 14 13  1  0  0  0  0
 14 15  2  0  0  0  0
 15 17  1  0  0  0  0
 16  2  1  0  0  0  0
 16  3  1  0  0  0  0
 17 18  2  0  0  0  0
 18  1  1  0  0  0  0
 20 24  1  0  0  0  0
 20 23  1  0  0  0  0
 22 19  1  0  0  0  0
 22 21  1  1  0  0  0
 23 27  1  1  0  0  0
 23 22  1  0  0  0  0
 24  9  1  6  0  0  0
 24 25  1  0  0  0  0
 25 19  1  0  0  0  0
 26 27  2  0  0  0  0
 28 26  1  0  0  0  0
 29 26  1  0  0  0  0
 29 30  1  0  0  0  0
 31 29  2  0  0  0  0
 32 14  1  0  0  0  0
 33 32  1  0  0  0  0
 34 33  1  0  0  0  0
M  END
>  <MODEL>
1

>  <REMARK>
 VINA RESULT:      -9.2      0.000      0.000
  Name = 
  5 active torsions:
  status: ('A' for Active; 'I' for Inactive)
    1  A    between atoms: N_3  and  C_13
    2  A    between atoms: N_3  and  C_25
    3  A    between atoms: C_7  and  C_11
    4  A    between atoms: N_18  and  C_30
    5  A    between atoms: C_26  and  C_28
                            x       y       z     vdW  Elec       q    Type
                         _______ _______ _______ _____ _____    ______ ____

>  <TORSDO>
F 5

$$$$
=
 OpenBabel10262423293D

 34 38  0  0  1  0  0  0  0  0999 V2000
  188.8150  177.9040  142.9310 C   0  0  0  0  0  0  0  0  0  0  0  0
  191.1150  177.5630  141.7400 C   0  0  0  0  0  0  0  0  0  0  0  0
  191.4740  178.6440  144.0220 C   0  0  0  0  0  2  0  0  0  0  0  0
  186.8180  177.4810  144.9420 C   0  0  0  0  0  2  0  0  0  0  0  0
  187.5340  178.2420  142.7020 C   0  0  0  0  0  3  0  0  0  0  0  0
  188.2750  177.4670  145.2980 C   0  0  0  0  0  0  0  0  0  0  0  0
  189.9930  176.5060  146.7990 C   0  0  0  0  0  2  0  0  0  0  0  0
  188.6540  177.2250  146.7270 C   0  0  0  0  0  2  0  0  0  0  0  0
  186.5820  178.3290  143.7720 N   0  0  0  0  0  0  0  0  0  0  0  0
  190.5960  177.7720  144.7660 N   0  0  0  0  0  0  0  0  0  0  0  0
  189.2210  177.6810  144.3570 C   0  0  0  0  0  0  0  0  0  0  0  0
  191.0450  177.3580  146.0980 C   0  0  0  0  0  2  0  0  0  0  0  0
  191.7960  177.1650  140.5830 C   0  0  0  0  0  3  0  0  0  0  0  0
  191.1100  176.8160  139.4160 C   0  0  0  0  0  0  0  0  0  0  0  0
  189.7210  176.8730  139.4010 C   0  0  0  0  0  3  0  0  0  0  0  0
  191.9380  177.9570  142.8390 N   0  0  0  0  0  2  0  0  0  0  0  0
  189.0260  177.2540  140.5460 C   0  0  0  0  0  3  0  0  0  0  0  0
  189.6880  177.6020  141.7440 C   0  0  0  0  0  0  0  0  0  0  0  0
  182.8230  178.8490  144.3030 C   0  0  0  0  0  2  0  0  0  0  0  0
  184.7950  178.4500  142.0580 C   0  0  0  0  0  2  0  0  0  0  0  0
  181.1390  179.1520  142.6380 O   0  0  0  0  0  1  0  0  0  0  0  0
  182.5160  179.2430  142.8510 C   0  0  2  0  0  3  0  0  0  0  0  0
  183.2740  178.3650  141.8490 C   0  0  1  0  0  3  0  0  0  0  0  0
  185.2150  178.7920  143.4990 C   0  0  1  0  0  3  0  0  0  0  0  0
  184.2030  178.2110  144.4910 C   0  0  0  0  0  2  0  0  0  0  0  0
  182.6730  177.8860  139.4660 C   0  0  0  0  0  0  0  0  0  0  0  0
  182.9410  178.7590  140.4410 C   0  0  0  0  0  3  0  0  0  0  0  0
  182.6720  176.4130  139.7280 C   0  0  0  0  0  1  0  0  0  0  0  0
  182.3620  178.3800  138.1140 C   0  0  0  0  0  0  0  0  0  0  0  0
  181.8820  179.5330  137.9530 O   0  0  0  0  0  1  0  0  0  0  0  0
  182.5940  177.5790  137.0000 O   0  0  0  0  0  0  0  0  0  0  0  0
  191.8080  176.4140  138.2360 N   0  0  0  0  0  2  0  0  0  0  0  0
  193.2580  176.4300  138.1310 C   0  0  0  0  0  2  0  0  0  0  0  0
  193.7530  175.0440  137.7740 C   0  0  0  0  0  1  0  0  0  0  0  0
  1 11  1  0  0  0  0
  2 18  1  0  0  0  0
  2 16  1  0  0  0  0
  3 10  1  0  0  0  0
  4  6  1  0  0  0  0
  5  1  2  0  0  0  0
  5  9  1  0  0  0  0
  6  8  1  0  0  0  0
  8  7  1  0  0  0  0
  9  4  1  0  0  0  0
 10 12  1  0  0  0  0
 11 10  1  0  0  0  0
 11  6  2  0  0  0  0
 12  7  1  0  0  0  0
 13  2  2  0  0  0  0
 14 13  1  0  0  0  0
 15 14  2  0  0  0  0
 15 17  1  0  0  0  0
 16  3  1  0  0  0  0
 17 18  2  0  0  0  0
 18  1  1  0  0  0  0
 19 25  1  0  0  0  0
 22 21  1  6  0  0  0
 22 19  1  0  0  0  0
 23 27  1  6  0  0  0
 23 20  1  0  0  0  0
 23 22  1  0  0  0  0
 24 20  1  6  0  0  0
 24  9  1  0  0  0  0
 24 25  1  0  0  0  0
 26 28  1  0  0  0  0
 26 27  2  0  0  0  0
 29 26  1  0  0  0  0
 30 29  1  0  0  0  0
 31 29  2  0  0  0  0
 32 14  1  0  0  0  0
 33 32  1  0  0  0  0
 34 33  1  0  0  0  0
M  END
>  <MODEL>
2

>  <REMARK>
 VINA RESULT:      -9.0      4.313      7.508
  Name = 
  5 active torsions:
  status: ('A' for Active; 'I' for Inactive)
    1  A    between atoms: N_3  and  C_13
    2  A    between atoms: N_3  and  C_25
    3  A    between atoms: C_7  and  C_11
    4  A    between atoms: N_18  and  C_30
    5  A    between atoms: C_26  and  C_28
                            x       y       z     vdW  Elec       q    Type
                         _______ _______ _______ _____ _____    ______ ____

>  <TORSDO>
F 5

$$$$
=
 OpenBabel10262423293D

 34 38  0  0  1  0  0  0  0  0999 V2000
  190.1720  176.7590  139.0290 C   0  0  0  0  0  0  0  0  0  0  0  0
  191.2540  175.8960  136.8140 C   0  0  0  0  0  0  0  0  0  0  0  0
  188.7830  175.2660  136.8720 C   0  0  0  0  0  2  0  0  0  0  0  0
  188.4230  178.3560  140.6410 C   0  0  0  0  0  2  0  0  0  0  0  0
  190.4120  176.9210  140.3420 C   0  0  0  0  0  3  0  0  0  0  0  0
  187.9820  177.8610  139.2960 C   0  0  0  0  0  0  0  0  0  0  0  0
  186.5940  178.3480  137.3040 C   0  0  0  0  0  2  0  0  0  0  0  0
  186.6080  178.2260  138.8210 C   0  0  0  0  0  2  0  0  0  0  0  0
  189.4120  177.4480  141.2250 N   0  0  0  0  0  0  0  0  0  0  0  0
  188.2890  176.5510  137.3080 N   0  0  0  0  0  0  0  0  0  0  0  0
  188.7970  177.0960  138.5370 C   0  0  0  0  0  0  0  0  0  0  0  0
  187.0400  177.0220  136.7010 C   0  0  0  0  0  2  0  0  0  0  0  0
  192.4210  175.7370  136.0550 C   0  0  0  0  0  3  0  0  0  0  0  0
  193.6760  176.0770  136.5670 C   0  0  0  0  0  0  0  0  0  0  0  0
  193.7710  176.5770  137.8600 C   0  0  0  0  0  3  0  0  0  0  0  0
  190.0460  175.4460  136.1970 N   0  0  0  0  0  2  0  0  0  0  0  0
  192.6200  176.7540  138.6250 C   0  0  0  0  0  3  0  0  0  0  0  0
  191.3360  176.4310  138.1350 C   0  0  0  0  0  0  0  0  0  0  0  0
  190.9230  176.5280  144.6240 C   0  0  0  0  0  2  0  0  0  0  0  0
  188.3590  177.6110  143.4630 C   0  0  0  0  0  2  0  0  0  0  0  0
  189.9700  176.8650  146.7870 O   0  0  0  0  0  1  0  0  0  0  0  0
  189.8960  177.3020  145.4630 C   0  0  2  0  0  3  0  0  0  0  0  0
  188.4720  177.1320  144.9210 C   0  0  1  0  0  3  0  0  0  0  0  0
  189.6750  177.5220  142.6680 C   0  0  1  0  0  3  0  0  0  0  0  0
  190.5060  176.3360  143.1620 C   0  0  0  0  0  2  0  0  0  0  0  0
  186.2550  178.2060  145.3720 C   0  0  0  0  0  0  0  0  0  0  0  0
  187.4890  177.8820  145.7700 C   0  0  0  0  0  3  0  0  0  0  0  0
  185.7530  177.8130  144.0180 C   0  0  0  0  0  1  0  0  0  0  0  0
  185.3700  178.9500  146.2830 C   0  0  0  0  0  0  0  0  0  0  0  0
  185.8450  179.5400  147.2890 O   0  0  0  0  0  1  0  0  0  0  0  0
  184.0010  179.0090  146.0440 O   0  0  0  0  0  0  0  0  0  0  0  0
  194.8640  175.9090  135.7910 N   0  0  0  0  0  2  0  0  0  0  0  0
  195.1420  176.6840  134.5940 C   0  0  0  0  0  2  0  0  0  0  0  0
  195.8290  177.9780  134.9780 C   0  0  0  0  0  1  0  0  0  0  0  0
  1  5  2  0  0  0  0
  2 18  1  0  0  0  0
  3 10  1  0  0  0  0
  4  9  1  0  0  0  0
  5  9  1  0  0  0  0
  6  4  1  0  0  0  0
  7  8  1  0  0  0  0
  8  6  1  0  0  0  0
 10 11  1  0  0  0  0
 11  1  1  0  0  0  0
 11  6  2  0  0  0  0
 12  7  1  0  0  0  0
 12 10  1  0  0  0  0
 13 14  1  0  0  0  0
 13  2  2  0  0  0  0
 14 15  2  0  0  0  0
 15 17  1  0  0  0  0
 16  2  1  0  0  0  0
 16  3  1  0  0  0  0
 18 17  2  0  0  0  0
 18  1  1  0  0  0  0
 19 22  1  0  0  0  0
 20 23  1  0  0  0  0
 22 21  1  1  0  0  0
 23 22  1  0  0  0  0
 23 27  1  1  0  0  0
 24  9  1  6  0  0  0
 24 25  1  0  0  0  0
 24 20  1  0  0  0  0
 25 19  1  0  0  0  0
 26 27  2  0  0  0  0
 26 29  1  0  0  0  0
 28 26  1  0  0  0  0
 29 30  1  0  0  0  0
 31 29  2  0  0  0  0
 32 14  1  0  0  0  0
 33 34  1  0  0  0  0
 33 32  1  0  0  0  0
M  END
>  <MODEL>
3

>  <REMARK>
 VINA RESULT:      -8.9      3.379      6.434
  Name = 
  5 active torsions:
  status: ('A' for Active; 'I' for Inactive)
    1  A    between atoms: N_3  and  C_13
    2  A    between atoms: N_3  and  C_25
    3  A    between atoms: C_7  and  C_11
    4  A    between atoms: N_18  and  C_30
    5  A    between atoms: C_26  and  C_28
                            x       y       z     vdW  Elec       q    Type
                         _______ _______ _______ _____ _____    ______ ____

>  <TORSDO>
F 5

$$$$
=
 OpenBabel10262423293D

 34 38  0  0  1  0  0  0  0  0999 V2000
  185.2540  178.5390  142.3790 C   0  0  0  0  0  0  0  0  0  0  0  0
  185.1440  178.5800  144.9890 C   0  0  0  0  0  0  0  0  0  0  0  0
  183.2880  180.0370  144.0220 C   0  0  0  0  0  2  0  0  0  0  0  0
  184.3390  177.9560  139.7270 C   0  0  0  0  0  2  0  0  0  0  0  0
  186.1160  178.5290  141.3470 C   0  0  0  0  0  3  0  0  0  0  0  0
  183.3670  178.3390  140.8030 C   0  0  0  0  0  0  0  0  0  0  0  0
  181.0660  178.0400  141.6650 C   0  0  0  0  0  2  0  0  0  0  0  0
  181.9110  178.4050  140.4540 C   0  0  0  0  0  2  0  0  0  0  0  0
  185.6550  178.5440  139.9880 N   0  0  0  0  0  0  0  0  0  0  0  0
  182.8400  179.1010  143.0180 N   0  0  0  0  0  0  0  0  0  0  0  0
  183.7940  178.6290  142.0520 C   0  0  0  0  0  0  0  0  0  0  0  0
  181.3930  179.0030  142.8000 C   0  0  0  0  0  2  0  0  0  0  0  0
  185.7290  178.1880  146.1990 C   0  0  0  0  0  3  0  0  0  0  0  0
  186.9560  177.5210  146.2350 C   0  0  0  0  0  0  0  0  0  0  0  0
  187.6160  177.2460  145.0430 C   0  0  0  0  0  3  0  0  0  0  0  0
  183.9230  179.3140  145.0980 N   0  0  0  0  0  2  0  0  0  0  0  0
  187.0440  177.6160  143.8280 C   0  0  0  0  0  3  0  0  0  0  0  0
  185.8010  178.2810  143.7560 C   0  0  0  0  0  0  0  0  0  0  0  0
  187.0340  178.2460  136.4260 C   0  0  0  0  0  2  0  0  0  0  0  0
  187.9620  177.9790  139.2820 C   0  0  0  0  0  2  0  0  0  0  0  0
  189.2980  177.8860  135.7600 O   0  0  0  0  0  1  0  0  0  0  0  0
  188.5140  178.3290  136.8270 C   0  0  2  0  0  3  0  0  0  0  0  0
  188.8100  177.5080  138.0880 C   0  0  1  0  0  3  0  0  0  0  0  0
  186.6220  178.6270  138.8870 C   0  0  1  0  0  3  0  0  0  0  0  0
  186.0890  177.9850  137.6040 C   0  0  0  0  0  2  0  0  0  0  0  0
  191.1260  176.5810  138.3040 C   0  0  0  0  0  0  0  0  0  0  0  0
  190.2640  177.5930  138.4450 C   0  0  0  0  0  3  0  0  0  0  0  0
  190.6850  175.2640  137.7480 C   0  0  0  0  0  1  0  0  0  0  0  0
  192.5340  176.7680  138.6910 C   0  0  0  0  0  0  0  0  0  0  0  0
  192.8300  177.1280  139.8610 O   0  0  0  0  0  1  0  0  0  0  0  0
  193.5530  176.5520  137.7680 O   0  0  0  0  0  0  0  0  0  0  0  0
  187.5520  177.1270  147.4730 N   0  0  0  0  0  2  0  0  0  0  0  0
  187.9480  178.0780  148.4980 C   0  0  0  0  0  2  0  0  0  0  0  0
  189.4520  178.2530  148.4710 C   0  0  0  0  0  1  0  0  0  0  0  0
  1 18  1  0  0  0  0
  2 16  1  0  0  0  0
  2 13  1  0  0  0  0
  3 16  1  0  0  0  0
  4  9  1  0  0  0  0
  4  6  1  0  0  0  0
  5  1  2  0  0  0  0
  6 11  2  0  0  0  0
  7 12  1  0  0  0  0
  8  6  1  0  0  0  0
  8  7  1  0  0  0  0
  9  5  1  0  0  0  0
 10  3  1  0  0  0  0
 11  1  1  0  0  0  0
 11 10  1  0  0  0  0
 12 10  1  0  0  0  0
 13 14  2  0  0  0  0
 14 32  1  0  0  0  0
 15 14  1  0  0  0  0
 17 15  2  0  0  0  0
 18 17  1  0  0  0  0
 18  2  2  0  0  0  0
 19 22  1  0  0  0  0
 19 25  1  0  0  0  0
 22 21  1  6  0  0  0
 22 23  1  0  0  0  0
 23 27  1  1  0  0  0
 23 20  1  0  0  0  0
 24 25  1  6  0  0  0
 24 20  1  0  0  0  0
 24  9  1  0  0  0  0
 26 27  2  0  0  0  0
 26 29  1  0  0  0  0
 28 26  1  0  0  0  0
 29 30  1  0  0  0  0
 31 29  2  0  0  0  0
 32 33  1  0  0  0  0
 34 33  1  0  0  0  0
M  END
>  <MODEL>
4

>  <REMARK>
 VINA RESULT:      -8.7      2.653      7.019
  Name = 
  5 active torsions:
  status: ('A' for Active; 'I' for Inactive)
    1  A    between atoms: N_3  and  C_13
    2  A    between atoms: N_3  and  C_25
    3  A    between atoms: C_7  and  C_11
    4  A    between atoms: N_18  and  C_30
    5  A    between atoms: C_26  and  C_28
                            x       y       z     vdW  Elec       q    Type
                         _______ _______ _______ _____ _____    ______ ____

>  <TORSDO>
F 5

$$$$
=
 OpenBabel10262423293D

 34 38  0  0  1  0  0  0  0  0999 V2000
  188.3390  177.9560  139.9660 C   0  0  0  0  0  0  0  0  0  0  0  0
  186.5810  178.6290  138.1540 C   0  0  0  0  0  0  0  0  0  0  0  0
  188.9370  179.0030  137.2540 C   0  0  0  0  0  2  0  0  0  0  0  0
  190.4670  176.4130  141.1050 C   0  0  0  0  0  2  0  0  0  0  0  0
  188.5760  177.9940  141.2890 C   0  0  0  0  0  3  0  0  0  0  0  0
  190.4220  176.6790  139.6300 C   0  0  0  0  0  0  0  0  0  0  0  0
  190.9800  175.7950  137.3860 C   0  0  0  0  0  2  0  0  0  0  0  0
  191.5150  176.1160  138.7730 C   0  0  0  0  0  2  0  0  0  0  0  0
  189.7990  177.4870  141.8430 N   0  0  0  0  0  0  0  0  0  0  0  0
  189.4900  177.7420  137.6900 N   0  0  0  0  0  0  0  0  0  0  0  0
  189.4290  177.4190  139.0890 C   0  0  0  0  0  0  0  0  0  0  0  0
  190.4140  177.0700  136.7710 C   0  0  0  0  0  2  0  0  0  0  0  0
  185.2300  178.8060  137.8320 C   0  0  0  0  0  3  0  0  0  0  0  0
  184.2250  178.6670  138.7930 C   0  0  0  0  0  0  0  0  0  0  0  0
  184.5740  178.3530  140.1010 C   0  0  0  0  0  3  0  0  0  0  0  0
  187.5090  178.8670  137.0950 N   0  0  0  0  0  2  0  0  0  0  0  0
  185.9120  178.1600  140.4390 C   0  0  0  0  0  3  0  0  0  0  0  0
  186.9500  178.2820  139.4890 C   0  0  0  0  0  0  0  0  0  0  0  0
  191.4180  176.8160  145.2500 C   0  0  0  0  0  2  0  0  0  0  0  0
  188.7550  177.6190  144.0870 C   0  0  0  0  0  2  0  0  0  0  0  0
  190.4550  177.1280  147.4130 O   0  0  0  0  0  1  0  0  0  0  0  0
  190.3290  177.5160  146.0770 C   0  0  2  0  0  3  0  0  0  0  0  0
  188.9230  177.1970  145.5570 C   0  0  1  0  0  3  0  0  0  0  0  0
  190.0660  177.6290  143.2800 C   0  0  1  0  0  3  0  0  0  0  0  0
  191.0090  176.5410  143.8000 C   0  0  0  0  0  2  0  0  0  0  0  0
  186.6080  178.0310  146.0190 C   0  0  0  0  0  0  0  0  0  0  0  0
  187.8810  177.8780  146.3940 C   0  0  0  0  0  3  0  0  0  0  0  0
  186.1210  177.5030  144.7060 C   0  0  0  0  0  1  0  0  0  0  0  0
  185.6660  178.7210  146.9160 C   0  0  0  0  0  0  0  0  0  0  0  0
  184.4600  178.3620  146.9690 O   0  0  0  0  0  0  0  0  0  0  0  0
  186.0960  179.7770  147.7130 O   0  0  0  0  0  1  0  0  0  0  0  0
  182.8480  178.8530  138.4600 N   0  0  0  0  0  2  0  0  0  0  0  0
  181.9640  179.7290  139.2120 C   0  0  0  0  0  2  0  0  0  0  0  0
  181.7950  181.0360  138.4660 C   0  0  0  0  0  1  0  0  0  0  0  0
  1  5  2  0  0  0  0
  2 18  1  0  0  0  0
  3 10  1  0  0  0  0
  4  9  1  0  0  0  0
  5  9  1  0  0  0  0
  6  4  1  0  0  0  0
  7  8  1  0  0  0  0
  8  6  1  0  0  0  0
 10 11  1  0  0  0  0
 11  6  2  0  0  0  0
 11  1  1  0  0  0  0
 12  7  1  0  0  0  0
 12 10  1  0  0  0  0
 13  2  2  0  0  0  0
 13 14  1  0  0  0  0
 14 15  2  0  0  0  0
 15 17  1  0  0  0  0
 16  3  1  0  0  0  0
 16  2  1  0  0  0  0
 18  1  1  0  0  0  0
 18 17  2  0  0  0  0
 19 22  1  0  0  0  0
 20 23  1  0  0  0  0
 22 21  1  1  0  0  0
 23 22  1  0  0  0  0
 23 27  1  1  0  0  0
 24  9  1  6  0  0  0
 24 25  1  0  0  0  0
 24 20  1  0  0  0  0
 25 19  1  0  0  0  0
 26 27  2  0  0  0  0
 26 29  1  0  0  0  0
 28 26  1  0  0  0  0
 29 30  2  0  0  0  0
 29 31  1  0  0  0  0
 32 14  1  0  0  0  0
 32 33  1  0  0  0  0
 34 33  1  0  0  0  0
M  END
>  <MODEL>
5

>  <REMARK>
 VINA RESULT:      -8.3      2.253      6.237
  Name = 
  5 active torsions:
  status: ('A' for Active; 'I' for Inactive)
    1  A    between atoms: N_3  and  C_13
    2  A    between atoms: N_3  and  C_25
    3  A    between atoms: C_7  and  C_11
    4  A    between atoms: N_18  and  C_30
    5  A    between atoms: C_26  and  C_28
                            x       y       z     vdW  Elec       q    Type
                         _______ _______ _______ _____ _____    ______ ____

>  <TORSDO>
F 5

$$$$
=
 OpenBabel10262423293D

 34 38  0  0  1  0  0  0  0  0999 V2000
  188.3260  177.3640  140.5860 C   0  0  0  0  0  0  0  0  0  0  0  0
  189.7910  176.8300  138.4910 C   0  0  0  0  0  0  0  0  0  0  0  0
  187.3380  176.3710  137.9700 C   0  0  0  0  0  2  0  0  0  0  0  0
  186.3490  178.7710  142.1100 C   0  0  0  0  0  2  0  0  0  0  0  0
  188.3090  177.2770  141.9280 C   0  0  0  0  0  3  0  0  0  0  0  0
  186.1640  178.5510  140.6380 C   0  0  0  0  0  0  0  0  0  0  0  0
  185.2110  179.4730  138.5480 C   0  0  0  0  0  2  0  0  0  0  0  0
  184.9230  179.0870  139.9910 C   0  0  0  0  0  2  0  0  0  0  0  0
  187.1730  177.7090  142.6910 N   0  0  0  0  0  0  0  0  0  0  0  0
  186.8110  177.5910  138.5350 N   0  0  0  0  0  0  0  0  0  0  0  0
  187.0860  177.8760  139.9170 C   0  0  0  0  0  0  0  0  0  0  0  0
  185.7220  178.2450  137.8040 C   0  0  0  0  0  2  0  0  0  0  0  0
  191.0780  176.7260  137.9480 C   0  0  0  0  0  3  0  0  0  0  0  0
  192.2190  176.8840  138.7390 C   0  0  0  0  0  0  0  0  0  0  0  0
  192.0750  177.1430  140.0970 C   0  0  0  0  0  3  0  0  0  0  0  0
  188.7140  176.5790  137.5870 N   0  0  0  0  0  2  0  0  0  0  0  0
  190.8040  177.2620  140.6530 C   0  0  0  0  0  3  0  0  0  0  0  0
  189.6310  177.1190  139.8800 C   0  0  0  0  0  0  0  0  0  0  0  0
  186.2440  178.3270  146.3560 C   0  0  0  0  0  2  0  0  0  0  0  0
  188.5780  177.3700  144.7040 C   0  0  0  0  0  2  0  0  0  0  0  0
  187.5390  177.8200  148.2970 O   0  0  0  0  0  1  0  0  0  0  0  0
  187.3930  177.4960  146.9470 C   0  0  2  0  0  3  0  0  0  0  0  0
  188.7090  177.7250  146.1950 C   0  0  1  0  0  3  0  0  0  0  0  0
  187.1500  177.5120  144.1450 C   0  0  1  0  0  3  0  0  0  0  0  0
  186.4160  178.6450  144.8670 C   0  0  0  0  0  2  0  0  0  0  0  0
  191.0430  176.8240  146.2880 C   0  0  0  0  0  0  0  0  0  0  0  0
  189.8150  176.9160  146.8050 C   0  0  0  0  0  3  0  0  0  0  0  0
  191.4110  177.5590  145.0380 C   0  0  0  0  0  1  0  0  0  0  0  0
  192.0560  175.9970  146.9650 C   0  0  0  0  0  0  0  0  0  0  0  0
  192.4740  174.9380  146.4270 O   0  0  0  0  0  0  0  0  0  0  0  0
  192.5590  176.3740  148.2060 O   0  0  0  0  0  1  0  0  0  0  0  0
  193.5310  176.7730  138.1810 N   0  0  0  0  0  2  0  0  0  0  0  0
  193.9350  175.6700  137.3250 C   0  0  0  0  0  2  0  0  0  0  0  0
  194.6710  174.6350  138.1490 C   0  0  0  0  0  1  0  0  0  0  0  0
  1  5  2  0  0  0  0
  2 18  1  0  0  0  0
  3 10  1  0  0  0  0
  4  9  1  0  0  0  0
  5  9  1  0  0  0  0
  6  4  1  0  0  0  0
  7  8  1  0  0  0  0
  8  6  1  0  0  0  0
 10 11  1  0  0  0  0
 11  1  1  0  0  0  0
 11  6  2  0  0  0  0
 12 10  1  0  0  0  0
 12  7  1  0  0  0  0
 13  2  2  0  0  0  0
 13 14  1  0  0  0  0
 14 15  2  0  0  0  0
 15 17  1  0  0  0  0
 16  3  1  0  0  0  0
 16  2  1  0  0  0  0
 18  1  1  0  0  0  0
 18 17  2  0  0  0  0
 19 22  1  0  0  0  0
 20 23  1  0  0  0  0
 22 21  1  1  0  0  0
 23 27  1  1  0  0  0
 23 22  1  0  0  0  0
 24  9  1  6  0  0  0
 24 20  1  0  0  0  0
 24 25  1  0  0  0  0
 25 19  1  0  0  0  0
 26 27  2  0  0  0  0
 26 29  1  0  0  0  0
 28 26  1  0  0  0  0
 29 31  1  0  0  0  0
 30 29  2  0  0  0  0
 32 14  1  0  0  0  0
 33 34  1  0  0  0  0
 33 32  1  0  0  0  0
M  END
>  <MODEL>
6

>  <REMARK>
 VINA RESULT:      -8.2      2.730      4.292
  Name = 
  5 active torsions:
  status: ('A' for Active; 'I' for Inactive)
    1  A    between atoms: N_3  and  C_13
    2  A    between atoms: N_3  and  C_25
    3  A    between atoms: C_7  and  C_11
    4  A    between atoms: N_18  and  C_30
    5  A    between atoms: C_26  and  C_28
                            x       y       z     vdW  Elec       q    Type
                         _______ _______ _______ _____ _____    ______ ____

>  <TORSDO>
F 5

$$$$
=
 OpenBabel10262423293D

 34 38  0  0  1  0  0  0  0  0999 V2000
  188.4150  177.5260  143.4890 C   0  0  0  0  0  0  0  0  0  0  0  0
  190.4990  176.5020  144.6850 C   0  0  0  0  0  0  0  0  0  0  0  0
  190.1800  175.4000  142.4070 C   0  0  0  0  0  2  0  0  0  0  0  0
  187.0150  179.0040  141.4720 C   0  0  0  0  0  2  0  0  0  0  0  0
  187.1690  177.9790  143.7160 C   0  0  0  0  0  3  0  0  0  0  0  0
  188.2200  178.1840  141.1200 C   0  0  0  0  0  0  0  0  0  0  0  0
  190.1800  177.9900  139.6200 C   0  0  0  0  0  2  0  0  0  0  0  0
  188.6700  178.1620  139.6910 C   0  0  0  0  0  2  0  0  0  0  0  0
  186.3370  178.4460  142.6440 N   0  0  0  0  0  0  0  0  0  0  0  0
  189.9540  176.6140  141.6590 N   0  0  0  0  0  0  0  0  0  0  0  0
  188.8760  177.4730  142.0640 C   0  0  0  0  0  0  0  0  0  0  0  0
  190.5600  176.6940  140.3270 C   0  0  0  0  0  2  0  0  0  0  0  0
  191.2840  176.4460  145.8430 C   0  0  0  0  0  3  0  0  0  0  0  0
  190.9180  177.1280  147.0070 C   0  0  0  0  0  0  0  0  0  0  0  0
  189.7440  177.8720  147.0190 C   0  0  0  0  0  3  0  0  0  0  0  0
  190.9510  175.7050  143.5890 N   0  0  0  0  0  2  0  0  0  0  0  0
  188.9570  177.9500  145.8730 C   0  0  0  0  0  3  0  0  0  0  0  0
  189.3030  177.2830  144.6780 C   0  0  0  0  0  0  0  0  0  0  0  0
  183.0520  178.8270  144.5790 C   0  0  0  0  0  2  0  0  0  0  0  0
  184.0250  178.4400  141.7510 C   0  0  0  0  0  2  0  0  0  0  0  0
  180.8440  179.0090  143.6890 O   0  0  0  0  0  1  0  0  0  0  0  0
  182.1900  179.1630  143.3530 C   0  0  2  0  0  3  0  0  0  0  0  0
  182.5460  178.2860  142.1470 C   0  0  1  0  0  3  0  0  0  0  0  0
  184.9500  178.8440  142.9140 C   0  0  1  0  0  3  0  0  0  0  0  0
  184.4280  178.2530  144.2270 C   0  0  0  0  0  2  0  0  0  0  0  0
  181.5090  177.8220  139.9160 C   0  0  0  0  0  0  0  0  0  0  0  0
  181.6770  178.6230  140.9720 C   0  0  0  0  0  3  0  0  0  0  0  0
  182.1840  176.4880  139.8440 C   0  0  0  0  0  1  0  0  0  0  0  0
  180.6360  178.2510  138.8110 C   0  0  0  0  0  0  0  0  0  0  0  0
  179.4000  178.3990  138.9980 O   0  0  0  0  0  1  0  0  0  0  0  0
  181.1660  178.4970  137.5480 O   0  0  0  0  0  0  0  0  0  0  0  0
  191.7210  177.0650  148.1880 N   0  0  0  0  0  2  0  0  0  0  0  0
  192.7190  176.0320  148.4110 C   0  0  0  0  0  2  0  0  0  0  0  0
  193.5550  176.3920  149.6210 C   0  0  0  0  0  1  0  0  0  0  0  0
  1  5  2  0  0  0  0
  1 18  1  0  0  0  0
  2 13  1  0  0  0  0
  3 16  1  0  0  0  0
  4  9  1  0  0  0  0
  6  4  1  0  0  0  0
  6 11  2  0  0  0  0
  7  8  1  0  0  0  0
  7 12  1  0  0  0  0
  8  6  1  0  0  0  0
  9 24  1  0  0  0  0
  9  5  1  0  0  0  0
 10 11  1  0  0  0  0
 10  3  1  0  0  0  0
 11  1  1  0  0  0  0
 12 10  1  0  0  0  0
 13 14  2  0  0  0  0
 14 15  1  0  0  0  0
 14 32  1  0  0  0  0
 16  2  1  0  0  0  0
 17 15  2  0  0  0  0
 18  2  2  0  0  0  0
 18 17  1  0  0  0  0
 20 23  1  0  0  0  0
 22 21  1  1  0  0  0
 22 19  1  0  0  0  0
 23 27  1  6  0  0  0
 23 22  1  0  0  0  0
 24 20  1  6  0  0  0
 24 25  1  0  0  0  0
 25 19  1  0  0  0  0
 26 27  2  0  0  0  0
 28 26  1  0  0  0  0
 29 30  1  0  0  0  0
 29 26  1  0  0  0  0
 31 29  2  0  0  0  0
 32 33  1  0  0  0  0
 33 34  1  0  0  0  0
M  END
>  <MODEL>
7

>  <REMARK>
 VINA RESULT:      -7.9      4.473      8.739
  Name = 
  5 active torsions:
  status: ('A' for Active; 'I' for Inactive)
    1  A    between atoms: N_3  and  C_13
    2  A    between atoms: N_3  and  C_25
    3  A    between atoms: C_7  and  C_11
    4  A    between atoms: N_18  and  C_30
    5  A    between atoms: C_26  and  C_28
                            x       y       z     vdW  Elec       q    Type
                         _______ _______ _______ _____ _____    ______ ____

>  <TORSDO>
F 5

$$$$
=
 OpenBabel10262423293D

 34 38  0  0  1  0  0  0  0  0999 V2000
  187.1760  177.8050  144.4020 C   0  0  0  0  0  0  0  0  0  0  0  0
  184.7730  178.2760  145.3130 C   0  0  0  0  0  0  0  0  0  0  0  0
  186.0650  176.8420  146.9800 C   0  0  0  0  0  2  0  0  0  0  0  0
  190.0370  177.9540  144.3600 C   0  0  0  0  0  2  0  0  0  0  0  0
  187.8560  177.5370  143.2740 C   0  0  0  0  0  3  0  0  0  0  0  0
  189.2960  177.8780  145.6610 C   0  0  0  0  0  0  0  0  0  0  0  0
  189.2940  178.5510  148.0430 C   0  0  0  0  0  2  0  0  0  0  0  0
  190.0900  177.8840  146.9320 C   0  0  0  0  0  2  0  0  0  0  0  0
  189.2720  177.3050  143.2920 N   0  0  0  0  0  0  0  0  0  0  0  0
  187.2900  177.6070  146.9520 N   0  0  0  0  0  0  0  0  0  0  0  0
  187.9470  177.7930  145.6870 C   0  0  0  0  0  0  0  0  0  0  0  0
  187.9830  177.7970  148.2290 C   0  0  0  0  0  2  0  0  0  0  0  0
  183.5110  178.8350  145.0760 C   0  0  0  0  0  3  0  0  0  0  0  0
  183.1750  179.3780  143.8330 C   0  0  0  0  0  0  0  0  0  0  0  0
  184.1110  179.3560  142.8050 C   0  0  0  0  0  3  0  0  0  0  0  0
  184.9620  177.6950  146.6040 N   0  0  0  0  0  2  0  0  0  0  0  0
  185.3760  178.8160  143.0260 C   0  0  0  0  0  3  0  0  0  0  0  0
  185.7510  178.2700  144.2720 C   0  0  0  0  0  0  0  0  0  0  0  0
  192.0820  177.1270  140.6940 C   0  0  0  0  0  2  0  0  0  0  0  0
  189.0700  177.1490  140.8270 C   0  0  0  0  0  2  0  0  0  0  0  0
  191.8760  176.7890  138.3390 O   0  0  0  0  0  1  0  0  0  0  0  0
  191.1980  176.6150  139.5470 C   0  0  2  0  0  3  0  0  0  0  0  0
  189.8420  177.3290  139.5080 C   0  0  1  0  0  3  0  0  0  0  0  0
  189.9670  176.9220  142.0570 C   0  0  1  0  0  3  0  0  0  0  0  0
  191.2900  177.6740  141.8860 C   0  0  0  0  0  2  0  0  0  0  0  0
  188.6370  177.5700  137.3270 C   0  0  0  0  0  0  0  0  0  0  0  0
  189.0090  176.8220  138.3700 C   0  0  0  0  0  3  0  0  0  0  0  0
  189.0550  179.0030  137.2180 C   0  0  0  0  0  1  0  0  0  0  0  0
  187.8120  176.9740  136.2630 C   0  0  0  0  0  0  0  0  0  0  0  0
  186.7430  177.5310  135.9000 O   0  0  0  0  0  1  0  0  0  0  0  0
  188.2040  175.7890  135.6480 O   0  0  0  0  0  0  0  0  0  0  0  0
  181.8840  179.9440  143.5940 N   0  0  0  0  0  2  0  0  0  0  0  0
  180.8110  179.2150  142.9400 C   0  0  0  0  0  2  0  0  0  0  0  0
  180.0530  178.4010  143.9680 C   0  0  0  0  0  1  0  0  0  0  0  0
  1 11  1  0  0  0  0
  2 16  1  0  0  0  0
  4  6  1  0  0  0  0
  5  9  1  0  0  0  0
  5  1  2  0  0  0  0
  6 11  2  0  0  0  0
  6  8  1  0  0  0  0
  7 12  1  0  0  0  0
  8  7  1  0  0  0  0
  9  4  1  0  0  0  0
 10  3  1  0  0  0  0
 10 12  1  0  0  0  0
 11 10  1  0  0  0  0
 13  2  1  0  0  0  0
 14 13  2  0  0  0  0
 15 17  2  0  0  0  0
 15 14  1  0  0  0  0
 16  3  1  0  0  0  0
 17 18  1  0  0  0  0
 18  1  1  0  0  0  0
 18  2  2  0  0  0  0
 19 25  1  0  0  0  0
 22 21  1  6  0  0  0
 22 19  1  0  0  0  0
 23 27  1  6  0  0  0
 23 22  1  0  0  0  0
 23 20  1  0  0  0  0
 24 20  1  6  0  0  0
 24  9  1  0  0  0  0
 25 24  1  0  0  0  0
 26 27  2  0  0  0  0
 28 26  1  0  0  0  0
 29 26  1  0  0  0  0
 30 29  1  0  0  0  0
 31 29  2  0  0  0  0
 32 14  1  0  0  0  0
 33 32  1  0  0  0  0
 33 34  1  0  0  0  0
M  END
>  <MODEL>
8

>  <REMARK>
 VINA RESULT:      -7.8      3.421      7.856
  Name = 
  5 active torsions:
  status: ('A' for Active; 'I' for Inactive)
    1  A    between atoms: N_3  and  C_13
    2  A    between atoms: N_3  and  C_25
    3  A    between atoms: C_7  and  C_11
    4  A    between atoms: N_18  and  C_30
    5  A    between atoms: C_26  and  C_28
                            x       y       z     vdW  Elec       q    Type
                         _______ _______ _______ _____ _____    ______ ____

>  <TORSDO>
F 5

$$$$
=
 OpenBabel10262423293D

 34 38  0  0  1  0  0  0  0  0999 V2000
  186.0290  178.0290  142.7500 C   0  0  0  0  0  0  0  0  0  0  0  0
  187.5280  177.5490  144.8350 C   0  0  0  0  0  0  0  0  0  0  0  0
  188.3530  176.1860  142.8440 C   0  0  0  0  0  2  0  0  0  0  0  0
  185.4310  179.0020  140.1220 C   0  0  0  0  0  2  0  0  0  0  0  0
  184.7560  178.2530  142.3790 C   0  0  0  0  0  3  0  0  0  0  0  0
  186.7690  178.3990  140.4260 C   0  0  0  0  0  0  0  0  0  0  0  0
  189.1870  178.4380  139.8920 C   0  0  0  0  0  2  0  0  0  0  0  0
  187.7810  178.3220  139.3230 C   0  0  0  0  0  2  0  0  0  0  0  0
  184.4020  178.4420  141.0010 N   0  0  0  0  0  0  0  0  0  0  0  0
  188.3050  177.2530  141.8730 N   0  0  0  0  0  0  0  0  0  0  0  0
  187.0530  177.9250  141.6600 C   0  0  0  0  0  0  0  0  0  0  0  0
  189.4020  177.3160  140.9010 C   0  0  0  0  0  2  0  0  0  0  0  0
  187.7490  177.7610  146.2020 C   0  0  0  0  0  3  0  0  0  0  0  0
  186.8370  178.4710  146.9870 C   0  0  0  0  0  0  0  0  0  0  0  0
  185.6810  178.9730  146.4020 C   0  0  0  0  0  3  0  0  0  0  0  0
  188.5040  176.7490  144.1650 N   0  0  0  0  0  2  0  0  0  0  0  0
  185.4490  178.7830  145.0410 C   0  0  0  0  0  3  0  0  0  0  0  0
  186.3550  178.0800  144.2170 C   0  0  0  0  0  0  0  0  0  0  0  0
  180.8510  177.4010  140.0070 C   0  0  0  0  0  2  0  0  0  0  0  0
  182.8320  179.6130  139.4820 C   0  0  0  0  0  2  0  0  0  0  0  0
  179.2810  178.6310  138.6930 O   0  0  0  0  0  1  0  0  0  0  0  0
  180.4330  178.7780  139.4680 C   0  0  2  0  0  3  0  0  0  0  0  0
  181.5510  179.4340  138.6500 C   0  0  1  0  0  3  0  0  0  0  0  0
  182.9910  178.5910  140.6220 C   0  0  1  0  0  3  0  0  0  0  0  0
  182.3620  177.2550  140.2180 C   0  0  0  0  0  2  0  0  0  0  0  0
  180.8060  180.9970  136.8420 C   0  0  0  0  0  0  0  0  0  0  0  0
  181.1080  180.7660  138.1220 C   0  0  0  0  0  3  0  0  0  0  0  0
  180.8740  179.9030  135.8230 C   0  0  0  0  0  1  0  0  0  0  0  0
  180.3860  182.3460  136.4270 C   0  0  0  0  0  0  0  0  0  0  0  0
  179.5570  182.9950  137.1180 O   0  0  0  0  0  1  0  0  0  0  0  0
  180.8990  182.9190  135.2670 O   0  0  0  0  0  0  0  0  0  0  0  0
  187.0650  178.6810  148.3820 N   0  0  0  0  0  2  0  0  0  0  0  0
  187.9910  177.8770  149.1620 C   0  0  0  0  0  2  0  0  0  0  0  0
  189.4130  178.2530  148.8020 C   0  0  0  0  0  1  0  0  0  0  0  0
  1 18  1  0  0  0  0
  2 13  1  0  0  0  0
  3 16  1  0  0  0  0
  4  6  1  0  0  0  0
  4  9  1  0  0  0  0
  5  1  2  0  0  0  0
  6 11  2  0  0  0  0
  7 12  1  0  0  0  0
  8  7  1  0  0  0  0
  8  6  1  0  0  0  0
  9  5  1  0  0  0  0
 10  3  1  0  0  0  0
 11 10  1  0  0  0  0
 11  1  1  0  0  0  0
 12 10  1  0  0  0  0
 13 14  2  0  0  0  0
 14 32  1  0  0  0  0
 15 14  1  0  0  0  0
 16  2  1  0  0  0  0
 17 15  2  0  0  0  0
 18  2  2  0  0  0  0
 18 17  1  0  0  0  0
 19 25  1  0  0  0  0
 22 21  1  6  0  0  0
 22 19  1  0  0  0  0
 23 27  1  1  0  0  0
 23 22  1  0  0  0  0
 23 20  1  0  0  0  0
 24 20  1  6  0  0  0
 24  9  1  0  0  0  0
 25 24  1  0  0  0  0
 26 27  2  0  0  0  0
 28 26  1  0  0  0  0
 29 26  1  0  0  0  0
 29 30  1  0  0  0  0
 31 29  2  0  0  0  0
 32 33  1  0  0  0  0
 34 33  1  0  0  0  0
M  END
>  <MODEL>
9

>  <REMARK>
 VINA RESULT:      -7.7      5.037      9.432
  Name = 
  5 active torsions:
  status: ('A' for Active; 'I' for Inactive)
    1  A    between atoms: N_3  and  C_13
    2  A    between atoms: N_3  and  C_25
    3  A    between atoms: C_7  and  C_11
    4  A    between atoms: N_18  and  C_30
    5  A    between atoms: C_26  and  C_28
                            x       y       z     vdW  Elec       q    Type
                         _______ _______ _______ _____ _____    ______ ____

>  <TORSDO>
F 5

$$$$
