=
 OpenBabel10262422123D

 43 48  0  0  1  0  0  0  0  0999 V2000
  188.2390  177.8910  148.1650 C   0  0  0  0  0  0  0  0  0  0  0  0
  186.7310  178.3070  143.3140 C   0  0  2  0  0  3  0  0  0  0  0  0
  188.9780  177.6170  141.7980 C   0  0  0  0  0  0  0  0  0  0  0  0
  186.9050  178.1700  146.1590 C   0  0  0  0  0  0  0  0  0  0  0  0
  189.2570  177.3000  147.4140 C   0  0  0  0  0  3  0  0  0  0  0  0
  188.3870  178.0410  149.5030 F   0  0  0  0  0  0  0  0  0  0  0  0
  187.9510  177.6050  145.3890 C   0  0  0  0  0  0  0  0  0  0  0  0
  187.0680  178.3270  147.5400 C   0  0  0  0  0  3  0  0  0  0  0  0
  189.1100  177.1490  146.0330 C   0  0  0  0  0  3  0  0  0  0  0  0
  188.9850  177.4630  143.1900 O   0  0  0  0  0  0  0  0  0  0  0  0
  187.7610  177.3580  143.9160 C   0  0  2  0  0  3  0  0  0  0  0  0
  185.4340  178.1750  144.1030 C   0  0  0  0  0  2  0  0  0  0  0  0
  186.5590  177.9410  141.8390 C   0  0  2  0  0  3  0  0  0  0  0  0
  187.8600  177.8520  141.1690 N   0  0  0  0  0  0  0  0  0  0  0  0
  185.6530  178.7130  145.5150 C   0  0  0  0  0  2  0  0  0  0  0  0
  190.2700  177.5170  141.0510 C   0  0  1  0  0  3  0  0  0  0  0  0
  191.4270  177.5890  142.0310 C   0  0  0  0  0  1  0  0  0  0  0  0
  190.3350  176.2740  140.2900 N   0  0  0  0  0  2  0  0  0  0  0  0
  190.6160  176.2280  138.8910 C   0  0  0  0  0  0  0  0  0  0  0  0
  192.1470  176.5410  138.3970 S   0  0  0  0  0  0  0  0  0  0  0  0
  189.5690  175.9020  137.9600 N   0  0  0  0  0  2  0  0  0  0  0  0
  188.2290  176.4790  137.8930 C   0  0  1  0  0  3  0  0  0  0  0  0
  187.3750  179.5420  136.3260 C   0  0  0  0  0  2  0  0  0  0  0  0
  188.2860  177.8960  137.7890 O   0  0  0  0  0  0  0  0  0  0  0  0
  187.4560  176.0060  136.6440 C   0  0  2  0  0  3  0  0  0  0  0  0
  187.0330  177.2060  136.0080 O   0  0  0  0  0  0  0  0  0  0  0  0
  187.5500  178.2840  136.6930 C   0  0  0  0  0  0  0  0  0  0  0  0
  186.4010  173.7780  137.1880 C   0  0  0  0  0  3  0  0  0  0  0  0
  186.2780  175.1660  137.0180 C   0  0  0  0  0  0  0  0  0  0  0  0
  182.7390  175.6240  137.8340 F   0  0  0  0  0  0  0  0  0  0  0  0
  184.0570  173.6370  137.7790 C   0  0  0  0  0  3  0  0  0  0  0  0
  183.9320  175.0180  137.6080 C   0  0  0  0  0  0  0  0  0  0  0  0
  185.2910  173.0160  137.5660 C   0  0  0  0  0  3  0  0  0  0  0  0
  185.0410  175.7810  137.2330 C   0  0  0  0  0  3  0  0  0  0  0  0
  185.6970  178.9810  141.1370 C   0  0  0  0  0  2  0  0  0  0  0  0
  182.8980  179.0700  138.6100 C   0  0  0  0  0  2  0  0  0  0  0  0
  181.9520  178.9500  139.8090 C   0  0  0  0  0  0  0  0  0  0  0  0
  181.3950  180.1860  140.0760 F   0  0  0  0  0  0  0  0  0  0  0  0
  183.7470  177.5880  140.6970 O   0  0  0  0  0  0  0  0  0  0  0  0
  184.3170  179.3810  139.0690 C   0  0  0  0  0  2  0  0  0  0  0  0
  184.7930  178.3350  140.0930 C   0  0  1  0  0  3  0  0  0  0  0  0
  180.9440  178.0580  139.4940 F   0  0  0  0  0  0  0  0  0  0  0  0
  182.6970  178.4580  141.0560 C   0  0  0  0  0  2  0  0  0  0  0  0
  1  6  1  0  0  0  0
  2 11  1  0  0  0  0
  2 12  1  1  0  0  0
  3 10  1  0  0  0  0
  4  8  2  0  0  0  0
  5  1  2  0  0  0  0
  7  9  2  0  0  0  0
  7  4  1  0  0  0  0
  8  1  1  0  0  0  0
  9  5  1  0  0  0  0
 11 10  1  6  0  0  0
 11  7  1  0  0  0  0
 12 15  1  0  0  0  0
 13 35  1  6  0  0  0
 13  2  1  0  0  0  0
 14  3  2  0  0  0  0
 14 13  1  0  0  0  0
 15  4  1  0  0  0  0
 16  3  1  0  0  0  0
 16 17  1  1  0  0  0
 18 16  1  0  0  0  0
 19 18  1  0  0  0  0
 20 19  2  0  0  0  0
 21 19  1  0  0  0  0
 22 21  1  6  0  0  0
 23 27  2  0  0  0  0
 24 22  1  0  0  0  0
 25 29  1  1  0  0  0
 25 22  1  0  0  0  0
 26 25  1  0  0  0  0
 26 27  1  0  0  0  0
 27 24  1  0  0  0  0
 28 33  1  0  0  0  0
 29 28  2  0  0  0  0
 29 34  1  0  0  0  0
 32 31  1  0  0  0  0
 32 30  1  0  0  0  0
 33 31  2  0  0  0  0
 34 32  2  0  0  0  0
 36 40  1  0  0  0  0
 36 37  1  0  0  0  0
 37 38  1  0  0  0  0
 37 43  1  0  0  0  0
 39 43  1  0  0  0  0
 40 41  1  0  0  0  0
 41 39  1  0  0  0  0
 41 35  1  1  0  0  0
 42 37  1  0  0  0  0
M  END
>  <MODEL>
1

>  <REMARK>
 VINA RESULT:      -9.6      0.000      0.000
  Name = 
  8 active torsions:
  status: ('A' for Active; 'I' for Inactive)
    1  A    between atoms: C_1  and  C_34
    2  A    between atoms: C_1  and  C_35
    3  A    between atoms: C_2  and  N_6
    4  A    between atoms: C_2  and  C_13
    5  A    between atoms: N_3  and  C_4
    6  A    between atoms: N_3  and  C_12
    7  A    between atoms: N_6  and  C_12
    8  A    between atoms: C_14  and  C_22
                            x       y       z     vdW  Elec       q    Type
                         _______ _______ _______ _____ _____    ______ ____

>  <TORSDO>
F 8

$$$$
=
 OpenBabel10262422123D

 43 48  0  0  1  0  0  0  0  0999 V2000
  188.2640  178.0070  147.9490 C   0  0  0  0  0  0  0  0  0  0  0  0
  185.6950  178.5260  143.5760 C   0  0  2  0  0  3  0  0  0  0  0  0
  187.6010  178.1260  141.5690 C   0  0  0  0  0  0  0  0  0  0  0  0
  186.5030  178.2620  146.3010 C   0  0  0  0  0  0  0  0  0  0  0  0
  189.1350  177.5520  146.9560 C   0  0  0  0  0  3  0  0  0  0  0  0
  188.6900  178.1030  149.2310 F   0  0  0  0  0  0  0  0  0  0  0  0
  187.3950  177.8370  145.2870 C   0  0  0  0  0  0  0  0  0  0  0  0
  186.9530  178.3640  147.6220 C   0  0  0  0  0  3  0  0  0  0  0  0
  188.7000  177.4590  145.6320 C   0  0  0  0  0  3  0  0  0  0  0  0
  187.9260  177.9020  142.9120 O   0  0  0  0  0  0  0  0  0  0  0  0
  186.9050  177.6480  143.8750 C   0  0  2  0  0  3  0  0  0  0  0  0
  184.6190  178.2340  144.6150 C   0  0  0  0  0  2  0  0  0  0  0  0
  185.2320  178.2200  142.1510 C   0  0  2  0  0  3  0  0  0  0  0  0
  186.3570  178.2870  141.2130 N   0  0  0  0  0  0  0  0  0  0  0  0
  185.1000  178.7180  145.9810 C   0  0  0  0  0  2  0  0  0  0  0  0
  188.7000  178.1840  140.5560 C   0  0  1  0  0  3  0  0  0  0  0  0
  189.9360  177.5020  141.1130 C   0  0  0  0  0  1  0  0  0  0  0  0
  188.2930  177.5430  139.3100 N   0  0  0  0  0  2  0  0  0  0  0  0
  187.8930  178.2740  138.1510 C   0  0  0  0  0  0  0  0  0  0  0  0
  189.0550  178.9960  137.2500 S   0  0  0  0  0  0  0  0  0  0  0  0
  186.5010  178.3490  137.7950 N   0  0  0  0  0  2  0  0  0  0  0  0
  185.7740  177.4900  136.8640 C   0  0  1  0  0  3  0  0  0  0  0  0
  187.1760  174.8290  134.9860 C   0  0  0  0  0  2  0  0  0  0  0  0
  186.6380  176.9830  135.8550 O   0  0  0  0  0  0  0  0  0  0  0  0
  185.1840  176.2470  137.5610 C   0  0  2  0  0  3  0  0  0  0  0  0
  185.6670  175.1450  136.8030 O   0  0  0  0  0  0  0  0  0  0  0  0
  186.5240  175.6110  135.8300 C   0  0  0  0  0  0  0  0  0  0  0  0
  182.9800  176.8080  136.4630 C   0  0  0  0  0  3  0  0  0  0  0  0
  183.6890  176.2770  137.5520 C   0  0  0  0  0  0  0  0  0  0  0  0
  180.9160  175.1880  139.6800 F   0  0  0  0  0  0  0  0  0  0  0  0
  180.8870  176.2580  137.5490 C   0  0  0  0  0  3  0  0  0  0  0  0
  181.5910  175.7310  138.6350 C   0  0  0  0  0  0  0  0  0  0  0  0
  181.5830  176.8000  136.4630 C   0  0  0  0  0  3  0  0  0  0  0  0
  182.9880  175.7360  138.6350 C   0  0  0  0  0  3  0  0  0  0  0  0
  184.1560  179.2100  141.7250 C   0  0  0  0  0  2  0  0  0  0  0  0
  182.1170  179.7190  138.5930 C   0  0  0  0  0  2  0  0  0  0  0  0
  180.9220  179.9180  139.5290 C   0  0  0  0  0  0  0  0  0  0  0  0
  180.6310  181.2660  139.6190 F   0  0  0  0  0  0  0  0  0  0  0  0
  182.0830  178.2640  140.8630 O   0  0  0  0  0  0  0  0  0  0  0  0
  183.4260  179.7380  139.3740 C   0  0  0  0  0  2  0  0  0  0  0  0
  183.3880  178.7000  140.5110 C   0  0  1  0  0  3  0  0  0  0  0  0
  179.8290  179.2550  139.0030 F   0  0  0  0  0  0  0  0  0  0  0  0
  181.2190  179.3770  140.9320 C   0  0  0  0  0  2  0  0  0  0  0  0
  1  6  1  0  0  0  0
  2 11  1  0  0  0  0
  2 12  1  1  0  0  0
  3 10  1  0  0  0  0
  4  8  2  0  0  0  0
  5  1  2  0  0  0  0
  7  9  2  0  0  0  0
  7  4  1  0  0  0  0
  8  1  1  0  0  0  0
  9  5  1  0  0  0  0
 11 10  1  6  0  0  0
 11  7  1  0  0  0  0
 12 15  1  0  0  0  0
 13 35  1  6  0  0  0
 13  2  1  0  0  0  0
 14  3  2  0  0  0  0
 14 13  1  0  0  0  0
 15  4  1  0  0  0  0
 16 17  1  1  0  0  0
 16  3  1  0  0  0  0
 18 16  1  0  0  0  0
 19 18  1  0  0  0  0
 20 19  2  0  0  0  0
 21 19  1  0  0  0  0
 22 25  1  0  0  0  0
 22 21  1  1  0  0  0
 23 27  2  0  0  0  0
 24 22  1  0  0  0  0
 25 29  1  6  0  0  0
 26 25  1  0  0  0  0
 27 24  1  0  0  0  0
 27 26  1  0  0  0  0
 28 33  2  0  0  0  0
 28 29  1  0  0  0  0
 29 34  2  0  0  0  0
 31 32  2  0  0  0  0
 32 34  1  0  0  0  0
 32 30  1  0  0  0  0
 33 31  1  0  0  0  0
 36 40  1  0  0  0  0
 36 37  1  0  0  0  0
 37 38  1  0  0  0  0
 37 43  1  0  0  0  0
 39 43  1  0  0  0  0
 40 41  1  0  0  0  0
 41 39  1  0  0  0  0
 41 35  1  1  0  0  0
 42 37  1  0  0  0  0
M  END
>  <MODEL>
2

>  <REMARK>
 VINA RESULT:      -9.5      1.728      2.401
  Name = 
  8 active torsions:
  status: ('A' for Active; 'I' for Inactive)
    1  A    between atoms: C_1  and  C_34
    2  A    between atoms: C_1  and  C_35
    3  A    between atoms: C_2  and  N_6
    4  A    between atoms: C_2  and  C_13
    5  A    between atoms: N_3  and  C_4
    6  A    between atoms: N_3  and  C_12
    7  A    between atoms: N_6  and  C_12
    8  A    between atoms: C_14  and  C_22
                            x       y       z     vdW  Elec       q    Type
                         _______ _______ _______ _____ _____    ______ ____

>  <TORSDO>
F 8

$$$$
=
 OpenBabel10262422123D

 43 48  0  0  1  0  0  0  0  0999 V2000
  181.7950  179.1460  140.0210 C   0  0  0  0  0  0  0  0  0  0  0  0
  186.1870  178.1110  142.3930 C   0  0  2  0  0  3  0  0  0  0  0  0
  188.1220  178.1440  140.3740 C   0  0  0  0  0  0  0  0  0  0  0  0
  183.4860  178.7290  141.7090 C   0  0  0  0  0  0  0  0  0  0  0  0
  182.7920  179.4190  139.0810 C   0  0  0  0  0  3  0  0  0  0  0  0
  180.4910  179.2170  139.6630 F   0  0  0  0  0  0  0  0  0  0  0  0
  184.4990  178.9700  140.7480 C   0  0  0  0  0  0  0  0  0  0  0  0
  182.1410  178.8000  141.3300 C   0  0  0  0  0  3  0  0  0  0  0  0
  184.1380  179.3400  139.4460 C   0  0  0  0  0  3  0  0  0  0  0  0
  186.8080  178.5440  140.1050 O   0  0  0  0  0  0  0  0  0  0  0  0
  185.9480  178.9750  141.1590 C   0  0  2  0  0  3  0  0  0  0  0  0
  185.2610  178.5920  143.5040 C   0  0  0  0  0  2  0  0  0  0  0  0
  187.6640  178.2290  142.7700 C   0  0  2  0  0  3  0  0  0  0  0  0
  188.5210  177.9840  141.6050 N   0  0  0  0  0  0  0  0  0  0  0  0
  183.8160  178.2890  143.1140 C   0  0  0  0  0  2  0  0  0  0  0  0
  189.0540  177.8980  139.2300 C   0  0  1  0  0  3  0  0  0  0  0  0
  190.3420  177.2860  139.7510 C   0  0  0  0  0  1  0  0  0  0  0  0
  188.4430  177.0140  138.2430 N   0  0  0  0  0  2  0  0  0  0  0  0
  187.9750  177.4670  136.9730 C   0  0  0  0  0  0  0  0  0  0  0  0
  189.0750  177.7050  135.7810 S   0  0  0  0  0  0  0  0  0  0  0  0
  186.5700  177.6890  136.7630 N   0  0  0  0  0  2  0  0  0  0  0  0
  185.5970  176.7550  136.2030 C   0  0  1  0  0  3  0  0  0  0  0  0
  186.3430  173.5780  134.8180 C   0  0  0  0  0  2  0  0  0  0  0  0
  186.1950  175.9240  135.2170 O   0  0  0  0  0  0  0  0  0  0  0  0
  185.0370  175.7910  137.2690 C   0  0  2  0  0  3  0  0  0  0  0  0
  185.2550  174.4930  136.7300 O   0  0  0  0  0  0  0  0  0  0  0  0
  185.9470  174.6100  135.5440 C   0  0  0  0  0  0  0  0  0  0  0  0
  182.7730  176.6220  136.5200 C   0  0  0  0  0  3  0  0  0  0  0  0
  183.5790  176.0250  137.5020 C   0  0  0  0  0  0  0  0  0  0  0  0
  181.0850  175.3780  140.1020 F   0  0  0  0  0  0  0  0  0  0  0  0
  180.8390  176.3910  137.9580 C   0  0  0  0  0  3  0  0  0  0  0  0
  181.6400  175.7990  138.9380 C   0  0  0  0  0  0  0  0  0  0  0  0
  181.4060  176.8060  136.7490 C   0  0  0  0  0  3  0  0  0  0  0  0
  183.0050  175.6120  138.7090 C   0  0  0  0  0  3  0  0  0  0  0  0
  188.0060  177.2330  143.8690 C   0  0  0  0  0  2  0  0  0  0  0  0
  189.8470  177.1850  147.1610 C   0  0  0  0  0  2  0  0  0  0  0  0
  188.4640  177.1400  147.8150 C   0  0  0  0  0  0  0  0  0  0  0  0
  188.2020  175.8530  148.2450 F   0  0  0  0  0  0  0  0  0  0  0  0
  187.8640  178.5320  145.9260 O   0  0  0  0  0  0  0  0  0  0  0  0
  189.7470  176.9260  145.6630 C   0  0  0  0  0  2  0  0  0  0  0  0
  188.7550  177.9080  145.0120 C   0  0  1  0  0  3  0  0  0  0  0  0
  188.4580  177.9900  148.9050 F   0  0  0  0  0  0  0  0  0  0  0  0
  187.3700  177.5690  146.8300 C   0  0  0  0  0  2  0  0  0  0  0  0
  1  8  1  0  0  0  0
  2 13  1  0  0  0  0
  2 12  1  1  0  0  0
  3 14  2  0  0  0  0
  4 15  1  0  0  0  0
  5  9  1  0  0  0  0
  5  1  2  0  0  0  0
  6  1  1  0  0  0  0
  7 11  1  0  0  0  0
  7  4  1  0  0  0  0
  8  4  2  0  0  0  0
  9  7  2  0  0  0  0
 10  3  1  0  0  0  0
 11 10  1  6  0  0  0
 11  2  1  0  0  0  0
 13 35  1  1  0  0  0
 14 13  1  0  0  0  0
 15 12  1  0  0  0  0
 16 17  1  1  0  0  0
 16  3  1  0  0  0  0
 18 16  1  0  0  0  0
 19 18  1  0  0  0  0
 20 19  2  0  0  0  0
 21 19  1  0  0  0  0
 22 21  1  1  0  0  0
 22 25  1  0  0  0  0
 23 27  2  0  0  0  0
 24 27  1  0  0  0  0
 24 22  1  0  0  0  0
 25 29  1  6  0  0  0
 26 25  1  0  0  0  0
 27 26  1  0  0  0  0
 28 33  2  0  0  0  0
 28 29  1  0  0  0  0
 29 34  2  0  0  0  0
 31 32  2  0  0  0  0
 32 30  1  0  0  0  0
 33 31  1  0  0  0  0
 34 32  1  0  0  0  0
 36 37  1  0  0  0  0
 37 38  1  0  0  0  0
 37 42  1  0  0  0  0
 39 43  1  0  0  0  0
 40 36  1  0  0  0  0
 41 35  1  6  0  0  0
 41 40  1  0  0  0  0
 41 39  1  0  0  0  0
 43 37  1  0  0  0  0
M  END
>  <MODEL>
3

>  <REMARK>
 VINA RESULT:      -9.4      1.890      6.183
  Name = 
  8 active torsions:
  status: ('A' for Active; 'I' for Inactive)
    1  A    between atoms: C_1  and  C_34
    2  A    between atoms: C_1  and  C_35
    3  A    between atoms: C_2  and  N_6
    4  A    between atoms: C_2  and  C_13
    5  A    between atoms: N_3  and  C_4
    6  A    between atoms: N_3  and  C_12
    7  A    between atoms: N_6  and  C_12
    8  A    between atoms: C_14  and  C_22
                            x       y       z     vdW  Elec       q    Type
                         _______ _______ _______ _____ _____    ______ ____

>  <TORSDO>
F 8

$$$$
=
 OpenBabel10262422123D

 43 48  0  0  1  0  0  0  0  0999 V2000
  188.1530  177.8340  148.2150 C   0  0  0  0  0  0  0  0  0  0  0  0
  186.7330  178.3520  143.3470 C   0  0  2  0  0  3  0  0  0  0  0  0
  189.0110  177.7050  141.8580 C   0  0  0  0  0  0  0  0  0  0  0  0
  186.8550  178.1520  146.1920 C   0  0  0  0  0  0  0  0  0  0  0  0
  189.1870  177.2640  147.4700 C   0  0  0  0  0  3  0  0  0  0  0  0
  188.2750  177.9560  149.5590 F   0  0  0  0  0  0  0  0  0  0  0  0
  187.9180  177.6090  145.4290 C   0  0  0  0  0  0  0  0  0  0  0  0
  186.9920  178.2790  147.5780 C   0  0  0  0  0  3  0  0  0  0  0  0
  189.0670  177.1440  146.0830 C   0  0  0  0  0  3  0  0  0  0  0  0
  188.9920  177.5190  143.2460 O   0  0  0  0  0  0  0  0  0  0  0  0
  187.7560  177.3930  143.9470 C   0  0  2  0  0  3  0  0  0  0  0  0
  185.4220  178.1960  144.1090 C   0  0  0  0  0  2  0  0  0  0  0  0
  186.5890  178.0170  141.8620 C   0  0  2  0  0  3  0  0  0  0  0  0
  187.9040  177.9480  141.2140 N   0  0  0  0  0  0  0  0  0  0  0  0
  185.6120  178.7040  145.5370 C   0  0  0  0  0  2  0  0  0  0  0  0
  190.3170  177.6260  141.1330 C   0  0  1  0  0  3  0  0  0  0  0  0
  191.4210  177.2880  142.1180 C   0  0  0  0  0  1  0  0  0  0  0  0
  190.2640  176.6230  140.0760 N   0  0  0  0  0  2  0  0  0  0  0  0
  190.7270  176.8640  138.7470 C   0  0  0  0  0  0  0  0  0  0  0  0
  192.2670  176.4440  138.3750 S   0  0  0  0  0  0  0  0  0  0  0  0
  189.8450  177.4490  137.7740 N   0  0  0  0  0  2  0  0  0  0  0  0
  189.1300  176.7670  136.6980 C   0  0  1  0  0  3  0  0  0  0  0  0
  190.4800  174.2530  134.5940 C   0  0  0  0  0  2  0  0  0  0  0  0
  190.0280  176.3210  135.6900 O   0  0  0  0  0  0  0  0  0  0  0  0
  188.4080  175.4970  137.1960 C   0  0  2  0  0  3  0  0  0  0  0  0
  188.8690  174.4620  136.3370 O   0  0  0  0  0  0  0  0  0  0  0  0
  189.8240  174.9750  135.4860 C   0  0  0  0  0  0  0  0  0  0  0  0
  186.3300  176.8900  136.8490 C   0  0  0  0  0  3  0  0  0  0  0  0
  186.9230  175.6420  137.0950 C   0  0  0  0  0  0  0  0  0  0  0  0
  183.9520  173.5060  137.2050 F   0  0  0  0  0  0  0  0  0  0  0  0
  184.1400  175.8570  136.8560 C   0  0  0  0  0  3  0  0  0  0  0  0
  184.7290  174.6140  137.1040 C   0  0  0  0  0  0  0  0  0  0  0  0
  184.9410  176.9960  136.7310 C   0  0  0  0  0  3  0  0  0  0  0  0
  186.1170  174.5060  137.2190 C   0  0  0  0  0  3  0  0  0  0  0  0
  185.7360  179.0690  141.1670 C   0  0  0  0  0  2  0  0  0  0  0  0
  182.6680  179.1370  138.9730 C   0  0  0  0  0  2  0  0  0  0  0  0
  181.8700  178.9250  140.2630 C   0  0  0  0  0  0  0  0  0  0  0  0
  181.2970  180.1230  140.6470 F   0  0  0  0  0  0  0  0  0  0  0  0
  183.8060  177.6100  140.8830 O   0  0  0  0  0  0  0  0  0  0  0  0
  184.1170  179.4920  139.2860 C   0  0  0  0  0  2  0  0  0  0  0  0
  184.7470  178.4270  140.2010 C   0  0  1  0  0  3  0  0  0  0  0  0
  180.8690  178.0030  140.0220 F   0  0  0  0  0  0  0  0  0  0  0  0
  182.7690  178.4160  141.3960 C   0  0  0  0  0  2  0  0  0  0  0  0
  1  6  1  0  0  0  0
  2 11  1  0  0  0  0
  2 12  1  1  0  0  0
  3 10  1  0  0  0  0
  4  8  2  0  0  0  0
  5  1  2  0  0  0  0
  7  9  2  0  0  0  0
  7  4  1  0  0  0  0
  8  1  1  0  0  0  0
  9  5  1  0  0  0  0
 11 10  1  6  0  0  0
 11  7  1  0  0  0  0
 12 15  1  0  0  0  0
 13 35  1  6  0  0  0
 13  2  1  0  0  0  0
 14  3  2  0  0  0  0
 14 13  1  0  0  0  0
 15  4  1  0  0  0  0
 16  3  1  0  0  0  0
 16 17  1  1  0  0  0
 18 16  1  0  0  0  0
 19 18  1  0  0  0  0
 20 19  2  0  0  0  0
 21 19  1  0  0  0  0
 22 25  1  0  0  0  0
 22 21  1  1  0  0  0
 23 27  2  0  0  0  0
 24 22  1  0  0  0  0
 25 29  1  6  0  0  0
 26 25  1  0  0  0  0
 27 24  1  0  0  0  0
 27 26  1  0  0  0  0
 28 29  1  0  0  0  0
 29 34  2  0  0  0  0
 31 32  2  0  0  0  0
 32 30  1  0  0  0  0
 32 34  1  0  0  0  0
 33 28  2  0  0  0  0
 33 31  1  0  0  0  0
 36 40  1  0  0  0  0
 36 37  1  0  0  0  0
 37 38  1  0  0  0  0
 37 43  1  0  0  0  0
 39 43  1  0  0  0  0
 40 41  1  0  0  0  0
 41 39  1  0  0  0  0
 41 35  1  1  0  0  0
 42 37  1  0  0  0  0
M  END
>  <MODEL>
4

>  <REMARK>
 VINA RESULT:      -9.4      1.249      1.743
  Name = 
  8 active torsions:
  status: ('A' for Active; 'I' for Inactive)
    1  A    between atoms: C_1  and  C_34
    2  A    between atoms: C_1  and  C_35
    3  A    between atoms: C_2  and  N_6
    4  A    between atoms: C_2  and  C_13
    5  A    between atoms: N_3  and  C_4
    6  A    between atoms: N_3  and  C_12
    7  A    between atoms: N_6  and  C_12
    8  A    between atoms: C_14  and  C_22
                            x       y       z     vdW  Elec       q    Type
                         _______ _______ _______ _____ _____    ______ ____

>  <TORSDO>
F 8

$$$$
=
 OpenBabel10262422123D

 43 48  0  0  1  0  0  0  0  0999 V2000
  187.9710  177.8820  148.1390 C   0  0  0  0  0  0  0  0  0  0  0  0
  186.4640  178.4890  143.3070 C   0  0  2  0  0  3  0  0  0  0  0  0
  188.7020  177.8280  141.7650 C   0  0  0  0  0  0  0  0  0  0  0  0
  186.6390  178.2480  146.1460 C   0  0  0  0  0  0  0  0  0  0  0  0
  188.9810  177.3070  147.3660 C   0  0  0  0  0  3  0  0  0  0  0  0
  188.1210  177.9830  149.4820 F   0  0  0  0  0  0  0  0  0  0  0  0
  187.6780  177.6990  145.3550 C   0  0  0  0  0  0  0  0  0  0  0  0
  186.8040  178.3530  147.5310 C   0  0  0  0  0  3  0  0  0  0  0  0
  188.8320  177.2080  145.9800 C   0  0  0  0  0  3  0  0  0  0  0  0
  188.7080  177.6240  143.1510 O   0  0  0  0  0  0  0  0  0  0  0  0
  187.4830  177.5070  143.8740 C   0  0  2  0  0  3  0  0  0  0  0  0
  185.1660  178.3430  144.0930 C   0  0  0  0  0  2  0  0  0  0  0  0
  186.2860  178.1770  141.8210 C   0  0  2  0  0  3  0  0  0  0  0  0
  187.5860  178.0980  141.1460 N   0  0  0  0  0  0  0  0  0  0  0  0
  185.3920  178.8270  145.5240 C   0  0  0  0  0  2  0  0  0  0  0  0
  189.9920  177.7400  141.0140 C   0  0  1  0  0  3  0  0  0  0  0  0
  191.1100  177.3710  141.9710 C   0  0  0  0  0  1  0  0  0  0  0  0
  189.9030  176.7530  139.9430 N   0  0  0  0  0  2  0  0  0  0  0  0
  190.2700  177.0320  138.5920 C   0  0  0  0  0  0  0  0  0  0  0  0
  189.2920  178.0070  137.7080 S   0  0  0  0  0  0  0  0  0  0  0  0
  191.4760  176.4710  138.0460 N   0  0  0  0  0  2  0  0  0  0  0  0
  191.7710  175.0600  137.8080 C   0  0  1  0  0  3  0  0  0  0  0  0
  189.9320  172.8940  135.6870 C   0  0  0  0  0  2  0  0  0  0  0  0
  190.5930  174.3420  137.4610 O   0  0  0  0  0  0  0  0  0  0  0  0
  192.7370  174.8610  136.6220 C   0  0  2  0  0  3  0  0  0  0  0  0
  192.0700  173.9430  135.7650 O   0  0  0  0  0  0  0  0  0  0  0  0
  190.8190  173.6780  136.2770 C   0  0  0  0  0  0  0  0  0  0  0  0
  194.8010  173.4560  136.2460 C   0  0  0  0  0  3  0  0  0  0  0  0
  194.0470  174.3000  137.0760 C   0  0  0  0  0  0  0  0  0  0  0  0
  196.2560  174.5180  139.9870 F   0  0  0  0  0  0  0  0  0  0  0  0
  196.5240  173.3200  137.9430 C   0  0  0  0  0  3  0  0  0  0  0  0
  195.7730  174.1580  138.7700 C   0  0  0  0  0  0  0  0  0  0  0  0
  196.0360  172.9660  136.6800 C   0  0  0  0  0  3  0  0  0  0  0  0
  194.5400  174.6510  138.3370 C   0  0  0  0  0  3  0  0  0  0  0  0
  185.4360  179.2520  141.1570 C   0  0  0  0  0  2  0  0  0  0  0  0
  182.3660  179.3560  138.9680 C   0  0  0  0  0  2  0  0  0  0  0  0
  181.5790  179.0030  140.2330 C   0  0  0  0  0  0  0  0  0  0  0  0
  180.9520  180.1380  140.7120 F   0  0  0  0  0  0  0  0  0  0  0  0
  183.5750  177.7320  140.7500 O   0  0  0  0  0  0  0  0  0  0  0  0
  183.7970  179.7520  139.3120 C   0  0  0  0  0  2  0  0  0  0  0  0
  184.4760  178.6450  140.1400 C   0  0  1  0  0  3  0  0  0  0  0  0
  180.6220  178.0580  139.9140 F   0  0  0  0  0  0  0  0  0  0  0  0
  182.5020  178.4460  141.3230 C   0  0  0  0  0  2  0  0  0  0  0  0
  1  6  1  0  0  0  0
  2 11  1  0  0  0  0
  2 12  1  1  0  0  0
  3 10  1  0  0  0  0
  4  8  2  0  0  0  0
  5  1  2  0  0  0  0
  7  9  2  0  0  0  0
  7  4  1  0  0  0  0
  8  1  1  0  0  0  0
  9  5  1  0  0  0  0
 11 10  1  6  0  0  0
 11  7  1  0  0  0  0
 12 15  1  0  0  0  0
 13 35  1  6  0  0  0
 13  2  1  0  0  0  0
 14  3  2  0  0  0  0
 14 13  1  0  0  0  0
 15  4  1  0  0  0  0
 16  3  1  0  0  0  0
 16 17  1  1  0  0  0
 18 16  1  0  0  0  0
 19 18  1  0  0  0  0
 20 19  2  0  0  0  0
 21 19  1  0  0  0  0
 22 21  1  6  0  0  0
 23 27  2  0  0  0  0
 24 22  1  0  0  0  0
 25 29  1  1  0  0  0
 25 22  1  0  0  0  0
 26 27  1  0  0  0  0
 26 25  1  0  0  0  0
 27 24  1  0  0  0  0
 28 33  2  0  0  0  0
 28 29  1  0  0  0  0
 29 34  2  0  0  0  0
 31 32  2  0  0  0  0
 32 30  1  0  0  0  0
 33 31  1  0  0  0  0
 34 32  1  0  0  0  0
 36 40  1  0  0  0  0
 36 37  1  0  0  0  0
 37 38  1  0  0  0  0
 37 43  1  0  0  0  0
 39 43  1  0  0  0  0
 40 41  1  0  0  0  0
 41 39  1  0  0  0  0
 41 35  1  1  0  0  0
 42 37  1  0  0  0  0
M  END
>  <MODEL>
5

>  <REMARK>
 VINA RESULT:      -9.2      3.310      4.894
  Name = 
  8 active torsions:
  status: ('A' for Active; 'I' for Inactive)
    1  A    between atoms: C_1  and  C_34
    2  A    between atoms: C_1  and  C_35
    3  A    between atoms: C_2  and  N_6
    4  A    between atoms: C_2  and  C_13
    5  A    between atoms: N_3  and  C_4
    6  A    between atoms: N_3  and  C_12
    7  A    between atoms: N_6  and  C_12
    8  A    between atoms: C_14  and  C_22
                            x       y       z     vdW  Elec       q    Type
                         _______ _______ _______ _____ _____    ______ ____

>  <TORSDO>
F 8

$$$$
=
 OpenBabel10262422123D

 43 48  0  0  1  0  0  0  0  0999 V2000
  188.1250  177.9170  147.9020 C   0  0  0  0  0  0  0  0  0  0  0  0
  185.7590  178.5230  143.4280 C   0  0  2  0  0  3  0  0  0  0  0  0
  187.7290  178.0460  141.5000 C   0  0  0  0  0  0  0  0  0  0  0  0
  186.4440  178.2350  146.1840 C   0  0  0  0  0  0  0  0  0  0  0  0
  189.0180  177.4270  146.9470 C   0  0  0  0  0  3  0  0  0  0  0  0
  188.5020  178.0000  149.2010 F   0  0  0  0  0  0  0  0  0  0  0  0
  187.3600  177.7730  145.2070 C   0  0  0  0  0  0  0  0  0  0  0  0
  186.8430  178.3230  147.5210 C   0  0  0  0  0  3  0  0  0  0  0  0
  188.6340  177.3470  145.6060 C   0  0  0  0  0  3  0  0  0  0  0  0
  187.9900  177.8130  142.8560 O   0  0  0  0  0  0  0  0  0  0  0  0
  186.9210  177.6000  143.7760 C   0  0  2  0  0  3  0  0  0  0  0  0
  184.6310  178.2750  144.4210 C   0  0  0  0  0  2  0  0  0  0  0  0
  185.3430  178.2310  141.9850 C   0  0  2  0  0  3  0  0  0  0  0  0
  186.5070  178.2530  141.0930 N   0  0  0  0  0  0  0  0  0  0  0  0
  185.0740  178.7430  145.8060 C   0  0  0  0  0  2  0  0  0  0  0  0
  188.8700  178.0590  140.5330 C   0  0  1  0  0  3  0  0  0  0  0  0
  190.1110  177.5030  141.2080 C   0  0  0  0  0  1  0  0  0  0  0  0
  188.5530  177.2760  139.3440 N   0  0  0  0  0  2  0  0  0  0  0  0
  188.1110  177.8600  138.1190 C   0  0  0  0  0  0  0  0  0  0  0  0
  189.0560  179.0020  137.4200 S   0  0  0  0  0  0  0  0  0  0  0  0
  186.8720  177.4330  137.5260 N   0  0  0  0  0  2  0  0  0  0  0  0
  186.6770  176.3650  136.5490 C   0  0  1  0  0  3  0  0  0  0  0  0
  189.2560  174.5330  134.9480 C   0  0  0  0  0  2  0  0  0  0  0  0
  187.7890  176.2680  135.6680 O   0  0  0  0  0  0  0  0  0  0  0  0
  186.5620  174.9800  137.2180 C   0  0  2  0  0  3  0  0  0  0  0  0
  187.5400  174.1810  136.5630 O   0  0  0  0  0  0  0  0  0  0  0  0
  188.2460  174.9700  135.6810 C   0  0  0  0  0  0  0  0  0  0  0  0
  184.1560  175.1530  136.4740 C   0  0  0  0  0  3  0  0  0  0  0  0
  185.1980  174.3970  137.0330 C   0  0  0  0  0  0  0  0  0  0  0  0
  183.4960  171.1960  137.5430 F   0  0  0  0  0  0  0  0  0  0  0  0
  182.6720  173.2470  136.6480 C   0  0  0  0  0  3  0  0  0  0  0  0
  183.7080  172.4940  137.2080 C   0  0  0  0  0  0  0  0  0  0  0  0
  182.8960  174.5790  136.2840 C   0  0  0  0  0  3  0  0  0  0  0  0
  184.9690  173.0660  137.3950 C   0  0  0  0  0  3  0  0  0  0  0  0
  184.3250  179.2600  141.5140 C   0  0  0  0  0  2  0  0  0  0  0  0
  182.4290  177.0810  139.0890 C   0  0  0  0  0  2  0  0  0  0  0  0
  182.3960  178.3080  138.1740 C   0  0  0  0  0  0  0  0  0  0  0  0
  183.3330  178.1540  137.1690 F   0  0  0  0  0  0  0  0  0  0  0  0
  182.2370  179.4930  140.2800 O   0  0  0  0  0  0  0  0  0  0  0  0
  183.3990  177.2930  140.2440 C   0  0  0  0  0  2  0  0  0  0  0  0
  183.0560  178.5870  141.0050 C   0  0  1  0  0  3  0  0  0  0  0  0
  181.1390  178.4090  137.6070 F   0  0  0  0  0  0  0  0  0  0  0  0
  182.7070  179.5910  138.9530 C   0  0  0  0  0  2  0  0  0  0  0  0
  1  6  1  0  0  0  0
  2 11  1  0  0  0  0
  2 12  1  1  0  0  0
  3 10  1  0  0  0  0
  4  8  2  0  0  0  0
  5  1  2  0  0  0  0
  7  9  2  0  0  0  0
  7  4  1  0  0  0  0
  8  1  1  0  0  0  0
  9  5  1  0  0  0  0
 11 10  1  6  0  0  0
 11  7  1  0  0  0  0
 12 15  1  0  0  0  0
 13 35  1  6  0  0  0
 13  2  1  0  0  0  0
 14  3  2  0  0  0  0
 14 13  1  0  0  0  0
 15  4  1  0  0  0  0
 16 17  1  1  0  0  0
 16  3  1  0  0  0  0
 18 16  1  0  0  0  0
 19 18  1  0  0  0  0
 20 19  2  0  0  0  0
 21 19  1  0  0  0  0
 22 25  1  0  0  0  0
 22 21  1  1  0  0  0
 23 27  2  0  0  0  0
 24 27  1  0  0  0  0
 24 22  1  0  0  0  0
 25 29  1  6  0  0  0
 26 25  1  0  0  0  0
 27 26  1  0  0  0  0
 28 29  1  0  0  0  0
 29 34  2  0  0  0  0
 31 32  2  0  0  0  0
 32 34  1  0  0  0  0
 32 30  1  0  0  0  0
 33 28  2  0  0  0  0
 33 31  1  0  0  0  0
 36 40  1  0  0  0  0
 37 43  1  0  0  0  0
 37 36  1  0  0  0  0
 38 37  1  0  0  0  0
 39 41  1  0  0  0  0
 40 41  1  0  0  0  0
 41 35  1  6  0  0  0
 42 37  1  0  0  0  0
 43 39  1  0  0  0  0
M  END
>  <MODEL>
6

>  <REMARK>
 VINA RESULT:      -9.2      1.718      2.325
  Name = 
  8 active torsions:
  status: ('A' for Active; 'I' for Inactive)
    1  A    between atoms: C_1  and  C_34
    2  A    between atoms: C_1  and  C_35
    3  A    between atoms: C_2  and  N_6
    4  A    between atoms: C_2  and  C_13
    5  A    between atoms: N_3  and  C_4
    6  A    between atoms: N_3  and  C_12
    7  A    between atoms: N_6  and  C_12
    8  A    between atoms: C_14  and  C_22
                            x       y       z     vdW  Elec       q    Type
                         _______ _______ _______ _____ _____    ______ ____

>  <TORSDO>
F 8

$$$$
=
 OpenBabel10262422123D

 43 48  0  0  1  0  0  0  0  0999 V2000
  191.1960  176.4360  147.0910 C   0  0  0  0  0  0  0  0  0  0  0  0
  189.2750  177.3730  142.4630 C   0  0  2  0  0  3  0  0  0  0  0  0
  186.6000  178.0530  142.9160 C   0  0  0  0  0  0  0  0  0  0  0  0
  190.9470  176.8250  144.7100 C   0  0  0  0  0  0  0  0  0  0  0  0
  189.9510  177.0260  147.3230 C   0  0  0  0  0  3  0  0  0  0  0  0
  191.9240  175.9610  148.1300 F   0  0  0  0  0  0  0  0  0  0  0  0
  189.6690  177.3910  144.9400 C   0  0  0  0  0  0  0  0  0  0  0  0
  191.6900  176.3330  145.7880 C   0  0  0  0  0  3  0  0  0  0  0  0
  189.1950  177.5100  146.2530 C   0  0  0  0  0  3  0  0  0  0  0  0
  187.4810  177.8810  143.9910 O   0  0  0  0  0  0  0  0  0  0  0  0
  188.8910  177.9960  143.8000 C   0  0  2  0  0  3  0  0  0  0  0  0
  190.7820  177.5110  142.2820 C   0  0  0  0  0  2  0  0  0  0  0  0
  188.4860  178.0910  141.3660 C   0  0  2  0  0  3  0  0  0  0  0  0
  187.0580  178.1380  141.6980 N   0  0  0  0  0  0  0  0  0  0  0  0
  191.4900  176.6370  143.3140 C   0  0  0  0  0  2  0  0  0  0  0  0
  185.1310  178.1300  143.1880 C   0  0  1  0  0  3  0  0  0  0  0  0
  184.9010  178.7950  144.5330 C   0  0  0  0  0  1  0  0  0  0  0  0
  184.4470  178.8760  142.1380 N   0  0  0  0  0  2  0  0  0  0  0  0
  183.1460  178.5350  141.6580 C   0  0  0  0  0  0  0  0  0  0  0  0
  181.8470  178.9820  142.5520 S   0  0  0  0  0  0  0  0  0  0  0  0
  183.0040  177.8270  140.4140 N   0  0  0  0  0  2  0  0  0  0  0  0
  183.2600  178.3350  139.0680 C   0  0  1  0  0  3  0  0  0  0  0  0
  184.2870  176.3910  136.2870 C   0  0  0  0  0  2  0  0  0  0  0  0
  184.2030  177.5210  138.3850 O   0  0  0  0  0  0  0  0  0  0  0  0
  181.9910  178.3200  138.1910 C   0  0  2  0  0  3  0  0  0  0  0  0
  182.3710  177.6010  137.0240 O   0  0  0  0  0  0  0  0  0  0  0  0
  183.6580  177.1360  137.1810 C   0  0  0  0  0  0  0  0  0  0  0  0
  181.7820  180.7820  138.7100 C   0  0  0  0  0  3  0  0  0  0  0  0
  181.5570  179.7060  137.8370 C   0  0  0  0  0  0  0  0  0  0  0  0
  179.9800  181.4460  135.0290 F   0  0  0  0  0  0  0  0  0  0  0  0
  180.7810  182.2970  137.1070 C   0  0  0  0  0  3  0  0  0  0  0  0
  180.5550  181.2260  136.2390 C   0  0  0  0  0  0  0  0  0  0  0  0
  181.3930  182.0740  138.3450 C   0  0  0  0  0  3  0  0  0  0  0  0
  180.9460  179.9350  136.6000 C   0  0  0  0  0  3  0  0  0  0  0  0
  188.6730  177.3790  140.0340 C   0  0  0  0  0  2  0  0  0  0  0  0
  187.5950  178.3940  136.5650 C   0  0  0  0  0  2  0  0  0  0  0  0
  188.7790  177.5620  136.0660 C   0  0  0  0  0  0  0  0  0  0  0  0
  188.3140  176.3570  135.5710 F   0  0  0  0  0  0  0  0  0  0  0  0
  189.8050  178.3570  138.1110 O   0  0  0  0  0  0  0  0  0  0  0  0
  187.3280  178.1260  138.0410 C   0  0  0  0  0  2  0  0  0  0  0  0
  188.6040  178.3610  138.8700 C   0  0  1  0  0  3  0  0  0  0  0  0
  189.4140  178.2520  135.0510 F   0  0  0  0  0  0  0  0  0  0  0  0
  189.7780  177.2840  137.1960 C   0  0  0  0  0  2  0  0  0  0  0  0
  1  5  1  0  0  0  0
  1  6  1  0  0  0  0
  2 12  1  6  0  0  0
  2 11  1  0  0  0  0
  3 16  1  0  0  0  0
  3 10  1  0  0  0  0
  4  7  2  0  0  0  0
  4  8  1  0  0  0  0
  7  9  1  0  0  0  0
  8  1  2  0  0  0  0
  9  5  2  0  0  0  0
 11 10  1  1  0  0  0
 11  7  1  0  0  0  0
 12 15  1  0  0  0  0
 13 35  1  6  0  0  0
 13 14  1  0  0  0  0
 13  2  1  0  0  0  0
 14  3  2  0  0  0  0
 15  4  1  0  0  0  0
 16 17  1  1  0  0  0
 18 16  1  0  0  0  0
 19 18  1  0  0  0  0
 19 20  2  0  0  0  0
 21 19  1  0  0  0  0
 22 21  1  1  0  0  0
 23 27  2  0  0  0  0
 24 22  1  0  0  0  0
 25 29  1  6  0  0  0
 25 22  1  0  0  0  0
 26 27  1  0  0  0  0
 26 25  1  0  0  0  0
 27 24  1  0  0  0  0
 29 28  2  0  0  0  0
 30 32  1  0  0  0  0
 31 33  2  0  0  0  0
 32 34  2  0  0  0  0
 32 31  1  0  0  0  0
 33 28  1  0  0  0  0
 34 29  1  0  0  0  0
 36 40  1  0  0  0  0
 37 36  1  0  0  0  0
 37 43  1  0  0  0  0
 38 37  1  0  0  0  0
 39 41  1  0  0  0  0
 40 41  1  0  0  0  0
 41 35  1  1  0  0  0
 42 37  1  0  0  0  0
 43 39  1  0  0  0  0
M  END
>  <MODEL>
7

>  <REMARK>
 VINA RESULT:      -9.2      3.236      6.013
  Name = 
  8 active torsions:
  status: ('A' for Active; 'I' for Inactive)
    1  A    between atoms: C_1  and  C_34
    2  A    between atoms: C_1  and  C_35
    3  A    between atoms: C_2  and  N_6
    4  A    between atoms: C_2  and  C_13
    5  A    between atoms: N_3  and  C_4
    6  A    between atoms: N_3  and  C_12
    7  A    between atoms: N_6  and  C_12
    8  A    between atoms: C_14  and  C_22
                            x       y       z     vdW  Elec       q    Type
                         _______ _______ _______ _____ _____    ______ ____

>  <TORSDO>
F 8

$$$$
=
 OpenBabel10262422123D

 43 48  0  0  1  0  0  0  0  0999 V2000
  188.1910  178.0080  147.9290 C   0  0  0  0  0  0  0  0  0  0  0  0
  185.6600  178.5130  143.5330 C   0  0  2  0  0  3  0  0  0  0  0  0
  187.5820  178.1040  141.5430 C   0  0  0  0  0  0  0  0  0  0  0  0
  186.4440  178.2580  146.2650 C   0  0  0  0  0  0  0  0  0  0  0  0
  189.0700  177.5480  146.9450 C   0  0  0  0  0  3  0  0  0  0  0  0
  188.6070  178.1080  149.2140 F   0  0  0  0  0  0  0  0  0  0  0  0
  187.3450  177.8280  145.2600 C   0  0  0  0  0  0  0  0  0  0  0  0
  186.8830  178.3640  147.5890 C   0  0  0  0  0  3  0  0  0  0  0  0
  188.6460  177.4510  145.6180 C   0  0  0  0  0  3  0  0  0  0  0  0
  187.8960  177.8850  142.8890 O   0  0  0  0  0  0  0  0  0  0  0  0
  186.8660  177.6350  143.8450 C   0  0  2  0  0  3  0  0  0  0  0  0
  184.5740  178.2260  144.5630 C   0  0  0  0  0  2  0  0  0  0  0  0
  185.2080  178.2020  142.1050 C   0  0  2  0  0  3  0  0  0  0  0  0
  186.3410  178.2640  141.1760 N   0  0  0  0  0  0  0  0  0  0  0  0
  185.0440  178.7140  145.9320 C   0  0  0  0  0  2  0  0  0  0  0  0
  188.6900  178.1570  140.5390 C   0  0  1  0  0  3  0  0  0  0  0  0
  189.9440  177.5470  141.1380 C   0  0  0  0  0  1  0  0  0  0  0  0
  188.3200  177.4460  139.3200 N   0  0  0  0  0  2  0  0  0  0  0  0
  187.9380  178.1090  138.1140 C   0  0  0  0  0  0  0  0  0  0  0  0
  189.1010  178.8730  137.2480 S   0  0  0  0  0  0  0  0  0  0  0  0
  186.5660  178.0840  137.6860 N   0  0  0  0  0  2  0  0  0  0  0  0
  185.7550  176.9100  137.3720 C   0  0  1  0  0  3  0  0  0  0  0  0
  182.7760  176.9120  135.4510 C   0  0  0  0  0  2  0  0  0  0  0  0
  184.3950  177.2680  137.1630 O   0  0  0  0  0  0  0  0  0  0  0  0
  186.2060  176.2270  136.0640 C   0  0  2  0  0  3  0  0  0  0  0  0
  185.0240  176.1440  135.2760 O   0  0  0  0  0  0  0  0  0  0  0  0
  183.9960  176.7770  135.9400 C   0  0  0  0  0  0  0  0  0  0  0  0
  185.9720  173.7140  136.1500 C   0  0  0  0  0  3  0  0  0  0  0  0
  186.7590  174.8630  136.3250 C   0  0  0  0  0  0  0  0  0  0  0  0
  189.9410  173.3440  137.3110 F   0  0  0  0  0  0  0  0  0  0  0  0
  187.8560  172.3230  136.7690 C   0  0  0  0  0  3  0  0  0  0  0  0
  188.6400  173.4660  136.9470 C   0  0  0  0  0  0  0  0  0  0  0  0
  186.5200  172.4470  136.3740 C   0  0  0  0  0  3  0  0  0  0  0  0
  188.0940  174.7320  136.7210 C   0  0  0  0  0  3  0  0  0  0  0  0
  184.1370  179.1920  141.6660 C   0  0  0  0  0  2  0  0  0  0  0  0
  182.1210  179.6910  138.5180 C   0  0  0  0  0  2  0  0  0  0  0  0
  180.9180  179.8910  139.4440 C   0  0  0  0  0  0  0  0  0  0  0  0
  180.6260  181.2390  139.5290 F   0  0  0  0  0  0  0  0  0  0  0  0
  182.0720  178.2410  140.7920 O   0  0  0  0  0  0  0  0  0  0  0  0
  183.4230  179.7130  139.3080 C   0  0  0  0  0  2  0  0  0  0  0  0
  183.3790  178.6780  140.4480 C   0  0  1  0  0  3  0  0  0  0  0  0
  179.8300  179.2250  138.9120 F   0  0  0  0  0  0  0  0  0  0  0  0
  181.2060  179.3540  140.8510 C   0  0  0  0  0  2  0  0  0  0  0  0
  1  6  1  0  0  0  0
  2 11  1  0  0  0  0
  2 12  1  1  0  0  0
  3 10  1  0  0  0  0
  4  8  2  0  0  0  0
  5  1  2  0  0  0  0
  7  9  2  0  0  0  0
  7  4  1  0  0  0  0
  8  1  1  0  0  0  0
  9  5  1  0  0  0  0
 11 10  1  6  0  0  0
 11  7  1  0  0  0  0
 12 15  1  0  0  0  0
 13 35  1  6  0  0  0
 13  2  1  0  0  0  0
 14  3  2  0  0  0  0
 14 13  1  0  0  0  0
 15  4  1  0  0  0  0
 16 17  1  1  0  0  0
 16  3  1  0  0  0  0
 18 16  1  0  0  0  0
 19 18  1  0  0  0  0
 20 19  2  0  0  0  0
 21 19  1  0  0  0  0
 22 21  1  6  0  0  0
 23 27  2  0  0  0  0
 24 22  1  0  0  0  0
 25 29  1  1  0  0  0
 25 22  1  0  0  0  0
 26 27  1  0  0  0  0
 26 25  1  0  0  0  0
 27 24  1  0  0  0  0
 28 29  2  0  0  0  0
 28 33  1  0  0  0  0
 29 34  1  0  0  0  0
 31 32  1  0  0  0  0
 32 30  1  0  0  0  0
 33 31  2  0  0  0  0
 34 32  2  0  0  0  0
 36 40  1  0  0  0  0
 36 37  1  0  0  0  0
 37 38  1  0  0  0  0
 37 43  1  0  0  0  0
 39 43  1  0  0  0  0
 40 41  1  0  0  0  0
 41 39  1  0  0  0  0
 41 35  1  1  0  0  0
 42 37  1  0  0  0  0
M  END
>  <MODEL>
8

>  <REMARK>
 VINA RESULT:      -9.1      1.997      2.540
  Name = 
  8 active torsions:
  status: ('A' for Active; 'I' for Inactive)
    1  A    between atoms: C_1  and  C_34
    2  A    between atoms: C_1  and  C_35
    3  A    between atoms: C_2  and  N_6
    4  A    between atoms: C_2  and  C_13
    5  A    between atoms: N_3  and  C_4
    6  A    between atoms: N_3  and  C_12
    7  A    between atoms: N_6  and  C_12
    8  A    between atoms: C_14  and  C_22
                            x       y       z     vdW  Elec       q    Type
                         _______ _______ _______ _____ _____    ______ ____

>  <TORSDO>
F 8

$$$$
=
 OpenBabel10262422123D

 43 48  0  0  1  0  0  0  0  0999 V2000
  189.8230  173.0370  135.8430 C   0  0  0  0  0  0  0  0  0  0  0  0
  186.6690  176.7600  137.3200 C   0  0  2  0  0  3  0  0  0  0  0  0
  187.9640  177.9910  139.4720 C   0  0  0  0  0  0  0  0  0  0  0  0
  187.9940  174.6250  135.9660 C   0  0  0  0  0  0  0  0  0  0  0  0
  190.5670  173.8170  136.7310 C   0  0  0  0  0  3  0  0  0  0  0  0
  190.3460  171.8900  135.3480 F   0  0  0  0  0  0  0  0  0  0  0  0
  188.7320  175.3980  136.8950 C   0  0  0  0  0  0  0  0  0  0  0  0
  188.5390  173.4380  135.4640 C   0  0  0  0  0  3  0  0  0  0  0  0
  190.0270  174.9970  137.2480 C   0  0  0  0  0  3  0  0  0  0  0  0
  188.6190  177.0130  138.7130 O   0  0  0  0  0  0  0  0  0  0  0  0
  188.1910  176.7160  137.3850 C   0  0  2  0  0  3  0  0  0  0  0  0
  186.2380  176.4430  135.8930 C   0  0  0  0  0  2  0  0  0  0  0  0
  186.2180  178.1500  137.7720 C   0  0  2  0  0  3  0  0  0  0  0  0
  186.8450  178.5110  139.0480 N   0  0  0  0  0  0  0  0  0  0  0  0
  186.5800  174.9880  135.5800 C   0  0  0  0  0  2  0  0  0  0  0  0
  188.5620  178.4200  140.7740 C   0  0  1  0  0  3  0  0  0  0  0  0
  187.4590  178.8920  141.7050 C   0  0  0  0  0  1  0  0  0  0  0  0
  189.3030  177.3250  141.3910 N   0  0  0  0  0  2  0  0  0  0  0  0
  190.6730  177.4300  141.7780 C   0  0  0  0  0  0  0  0  0  0  0  0
  191.8180  177.3470  140.6080 S   0  0  0  0  0  0  0  0  0  0  0  0
  191.0160  177.6170  143.1620 N   0  0  0  0  0  2  0  0  0  0  0  0
  190.5130  176.8670  144.3100 C   0  0  1  0  0  3  0  0  0  0  0  0
  192.5020  175.4290  146.8680 C   0  0  0  0  0  2  0  0  0  0  0  0
  191.4800  175.9340  144.7750 O   0  0  0  0  0  0  0  0  0  0  0  0
  190.2130  177.7830  145.5150 C   0  0  2  0  0  3  0  0  0  0  0  0
  190.9420  177.2090  146.5930 O   0  0  0  0  0  0  0  0  0  0  0  0
  191.6810  176.1460  146.1200 C   0  0  0  0  0  0  0  0  0  0  0  0
  188.2910  178.0190  147.1350 C   0  0  0  0  0  3  0  0  0  0  0  0
  188.7510  177.8120  145.8250 C   0  0  0  0  0  0  0  0  0  0  0  0
  185.5670  177.5830  144.0330 F   0  0  0  0  0  0  0  0  0  0  0  0
  186.0010  177.9190  146.3530 C   0  0  0  0  0  3  0  0  0  0  0  0
  186.4580  177.7100  145.0490 C   0  0  0  0  0  0  0  0  0  0  0  0
  186.9190  178.0710  147.3980 C   0  0  0  0  0  3  0  0  0  0  0  0
  187.8290  177.6610  144.7850 C   0  0  0  0  0  3  0  0  0  0  0  0
  184.7040  178.1870  137.9230 C   0  0  0  0  0  2  0  0  0  0  0  0
  182.5320  178.3370  141.0040 C   0  0  0  0  0  2  0  0  0  0  0  0
  181.5250  179.0910  140.1300 C   0  0  0  0  0  0  0  0  0  0  0  0
  180.5000  178.2350  139.7720 F   0  0  0  0  0  0  0  0  0  0  0  0
  183.5370  179.9690  139.1060 O   0  0  0  0  0  0  0  0  0  0  0  0
  183.6290  177.7120  140.1500 C   0  0  0  0  0  2  0  0  0  0  0  0
  184.2990  178.7810  139.2670 C   0  0  1  0  0  3  0  0  0  0  0  0
  181.0020  180.1430  140.8580 F   0  0  0  0  0  0  0  0  0  0  0  0
  182.1900  179.6320  138.8580 C   0  0  0  0  0  2  0  0  0  0  0  0
  1  5  1  0  0  0  0
  2 12  1  6  0  0  0
  2 11  1  0  0  0  0
  2 13  1  0  0  0  0
  3 16  1  0  0  0  0
  4  7  2  0  0  0  0
  5  9  2  0  0  0  0
  6  1  1  0  0  0  0
  7  9  1  0  0  0  0
  8  1  2  0  0  0  0
  8  4  1  0  0  0  0
 10  3  1  0  0  0  0
 11  7  1  1  0  0  0
 11 10  1  0  0  0  0
 13 35  1  1  0  0  0
 13 14  1  0  0  0  0
 14  3  2  0  0  0  0
 15 12  1  0  0  0  0
 15  4  1  0  0  0  0
 16 18  1  0  0  0  0
 16 17  1  1  0  0  0
 18 19  1  0  0  0  0
 19 21  1  0  0  0  0
 20 19  2  0  0  0  0
 22 21  1  6  0  0  0
 22 24  1  0  0  0  0
 22 25  1  0  0  0  0
 24 27  1  0  0  0  0
 25 29  1  1  0  0  0
 25 26  1  0  0  0  0
 27 26  1  0  0  0  0
 27 23  2  0  0  0  0
 28 33  1  0  0  0  0
 29 28  2  0  0  0  0
 30 32  1  0  0  0  0
 31 33  2  0  0  0  0
 32 31  1  0  0  0  0
 34 32  2  0  0  0  0
 34 29  1  0  0  0  0
 37 42  1  0  0  0  0
 37 36  1  0  0  0  0
 38 37  1  0  0  0  0
 39 41  1  0  0  0  0
 40 36  1  0  0  0  0
 41 35  1  6  0  0  0
 41 40  1  0  0  0  0
 43 39  1  0  0  0  0
 43 37  1  0  0  0  0
M  END
>  <MODEL>
9

>  <REMARK>
 VINA RESULT:      -9.1      2.543      7.844
  Name = 
  8 active torsions:
  status: ('A' for Active; 'I' for Inactive)
    1  A    between atoms: C_1  and  C_34
    2  A    between atoms: C_1  and  C_35
    3  A    between atoms: C_2  and  N_6
    4  A    between atoms: C_2  and  C_13
    5  A    between atoms: N_3  and  C_4
    6  A    between atoms: N_3  and  C_12
    7  A    between atoms: N_6  and  C_12
    8  A    between atoms: C_14  and  C_22
                            x       y       z     vdW  Elec       q    Type
                         _______ _______ _______ _____ _____    ______ ____

>  <TORSDO>
F 8

$$$$
