=
 OpenBabel10262420103D

 27 31  0  0  1  0  0  0  0  0999 V2000
  189.3970  176.8940  140.6960 N   0  0  0  0  0  0  0  0  0  0  0  0
  187.6660  178.0230  141.9750 C   0  0  0  0  0  0  0  0  0  0  0  0
  187.2110  178.7120  139.6180 N   0  0  0  0  0  2  0  0  0  0  0  0
  183.6240  178.4630  142.6170 N   0  0  0  0  0  0  0  0  0  0  0  0
  181.8620  179.1590  141.0630 C   0  0  0  0  0  1  0  0  0  0  0  0
  187.1660  177.7380  143.2730 C   0  0  0  0  0  3  0  0  0  0  0  0
  184.3030  178.9190  140.5720 C   0  0  0  0  0  0  0  0  0  0  0  0
  189.5920  178.0970  136.7750 C   0  0  0  0  0  2  0  0  0  0  0  0
  184.2440  179.3120  139.1330 C   0  0  0  0  0  1  0  0  0  0  0  0
  189.1020  176.7350  136.3410 C   0  0  0  0  0  2  0  0  0  0  0  0
  185.4220  178.5520  141.2900 C   0  0  0  0  0  0  0  0  0  0  0  0
  189.1360  177.9470  141.6670 C   0  0  1  0  0  3  0  0  0  0  0  0
  183.2410  178.8550  141.4070 N   0  0  0  0  0  0  0  0  0  0  0  0
  184.9550  178.2770  142.5500 C   0  0  0  0  0  0  0  0  0  0  0  0
  189.0600  176.9440  139.4410 C   0  0  0  0  0  0  0  0  0  0  0  0
  186.7710  178.4140  140.9500 C   0  0  0  0  0  0  0  0  0  0  0  0
  188.5780  178.6500  137.7060 C   0  0  0  0  0  3  0  0  0  0  0  0
  185.7980  177.8590  143.5720 C   0  0  0  0  0  3  0  0  0  0  0  0
  189.4870  175.6860  137.3330 C   0  0  0  0  0  3  0  0  0  0  0  0
  189.4520  175.8210  138.6280 N   0  0  0  0  0  0  0  0  0  0  0  0
  188.3090  178.1260  138.9010 C   0  0  0  0  0  0  0  0  0  0  0  0
  191.7140  177.4700  145.0790 C   0  0  0  0  0  3  0  0  0  0  0  0
  190.0230  177.7970  142.8700 C   0  0  0  0  0  0  0  0  0  0  0  0
  190.3960  176.5140  143.2870 C   0  0  0  0  0  3  0  0  0  0  0  0
  191.2380  176.3500  144.3900 C   0  0  0  0  0  3  0  0  0  0  0  0
  191.3510  178.7540  144.6630 C   0  0  0  0  0  3  0  0  0  0  0  0
  190.5090  178.9180  143.5600 C   0  0  0  0  0  3  0  0  0  0  0  0
  1 12  1  0  0  0  0
  2  6  1  0  0  0  0
  3 16  1  0  0  0  0
  5 13  1  0  0  0  0
  6 18  2  0  0  0  0
  7 11  2  0  0  0  0
  7 13  1  0  0  0  0
  8 17  1  0  0  0  0
  9  7  1  0  0  0  0
 10  8  1  0  0  0  0
 10 19  1  0  0  0  0
 11 14  1  0  0  0  0
 12  2  1  0  0  0  0
 12 23  1  1  0  0  0
 13  4  1  0  0  0  0
 14  4  2  0  0  0  0
 14 18  1  0  0  0  0
 15  1  2  0  0  0  0
 16 11  1  0  0  0  0
 16  2  2  0  0  0  0
 17 21  2  0  0  0  0
 19 20  2  0  0  0  0
 20 15  1  0  0  0  0
 21 15  1  0  0  0  0
 21  3  1  0  0  0  0
 23 24  2  0  0  0  0
 23 27  1  0  0  0  0
 24 25  1  0  0  0  0
 25 22  2  0  0  0  0
 26 22  1  0  0  0  0
 27 26  2  0  0  0  0
M  END
>  <MODEL>
1

>  <REMARK>
 VINA RESULT:      -8.4      0.000      0.000
  Name = 
  1 active torsions:
  status: ('A' for Active; 'I' for Inactive)
    1  A    between atoms: C_9  and  C_15
                            x       y       z     vdW  Elec       q    Type
                         _______ _______ _______ _____ _____    ______ ____

>  <TORSDO>
F 1

$$$$
=
 OpenBabel10262420103D

 27 31  0  0  1  0  0  0  0  0999 V2000
  187.0470  178.6260  141.6490 N   0  0  0  0  0  0  0  0  0  0  0  0
  187.4110  177.7030  143.8680 C   0  0  0  0  0  0  0  0  0  0  0  0
  189.0990  176.5290  142.4500 N   0  0  0  0  0  2  0  0  0  0  0  0
  190.0610  177.2180  146.9800 N   0  0  0  0  0  0  0  0  0  0  0  0
  192.2620  176.1420  147.0050 C   0  0  0  0  0  1  0  0  0  0  0  0
  187.0450  178.2230  145.1380 C   0  0  0  0  0  3  0  0  0  0  0  0
  190.7200  176.3880  145.0500 C   0  0  0  0  0  0  0  0  0  0  0  0
  189.1120  176.6630  138.6930 C   0  0  0  0  0  2  0  0  0  0  0  0
  191.5870  175.7090  144.0420 C   0  0  0  0  0  1  0  0  0  0  0  0
  189.9800  177.8850  138.4990 C   0  0  0  0  0  2  0  0  0  0  0  0
  189.4760  176.9440  144.8380 C   0  0  0  0  0  0  0  0  0  0  0  0
  186.4790  177.7820  142.6910 C   0  0  1  0  0  3  0  0  0  0  0  0
  191.0360  176.5720  146.3510 N   0  0  0  0  0  0  0  0  0  0  0  0
  189.1060  177.4470  146.0600 C   0  0  0  0  0  0  0  0  0  0  0  0
  188.0710  178.3080  140.9150 C   0  0  0  0  0  0  0  0  0  0  0  0
  188.6670  177.0710  143.7060 C   0  0  0  0  0  0  0  0  0  0  0  0
  189.2310  176.2650  140.1180 C   0  0  0  0  0  3  0  0  0  0  0  0
  187.8960  178.1020  146.2500 C   0  0  0  0  0  3  0  0  0  0  0  0
  189.2440  179.1290  138.8760 C   0  0  0  0  0  3  0  0  0  0  0  0
  188.4530  179.2590  139.9010 N   0  0  0  0  0  0  0  0  0  0  0  0
  188.7880  177.0080  141.1310 C   0  0  0  0  0  0  0  0  0  0  0  0
  182.4460  178.9700  143.6070 C   0  0  0  0  0  3  0  0  0  0  0  0
  185.0790  178.2140  143.0240 C   0  0  0  0  0  0  0  0  0  0  0  0
  184.1310  178.3080  142.0000 C   0  0  0  0  0  3  0  0  0  0  0  0
  182.8180  178.6870  142.2890 C   0  0  0  0  0  3  0  0  0  0  0  0
  183.3860  178.8720  144.6350 C   0  0  0  0  0  3  0  0  0  0  0  0
  184.7000  178.4920  144.3460 C   0  0  0  0  0  3  0  0  0  0  0  0
  1 12  1  0  0  0  0
  2  6  1  0  0  0  0
  3 16  1  0  0  0  0
  6 18  2  0  0  0  0
  7 13  1  0  0  0  0
  8 17  1  0  0  0  0
  9  7  1  0  0  0  0
 10  8  1  0  0  0  0
 10 19  1  0  0  0  0
 11  7  2  0  0  0  0
 11 14  1  0  0  0  0
 12 23  1  1  0  0  0
 12  2  1  0  0  0  0
 13  4  1  0  0  0  0
 13  5  1  0  0  0  0
 14 18  1  0  0  0  0
 14  4  2  0  0  0  0
 15 21  1  0  0  0  0
 15  1  2  0  0  0  0
 16  2  2  0  0  0  0
 16 11  1  0  0  0  0
 17 21  2  0  0  0  0
 19 20  2  0  0  0  0
 20 15  1  0  0  0  0
 21  3  1  0  0  0  0
 22 26  1  0  0  0  0
 23 27  1  0  0  0  0
 24 25  1  0  0  0  0
 24 23  2  0  0  0  0
 25 22  2  0  0  0  0
 27 26  2  0  0  0  0
M  END
>  <MODEL>
2

>  <REMARK>
 VINA RESULT:      -7.9      2.347      6.068
  Name = 
  1 active torsions:
  status: ('A' for Active; 'I' for Inactive)
    1  A    between atoms: C_9  and  C_15
                            x       y       z     vdW  Elec       q    Type
                         _______ _______ _______ _____ _____    ______ ____

>  <TORSDO>
F 1

$$$$
=
 OpenBabel10262420103D

 27 31  0  0  1  0  0  0  0  0999 V2000
  189.8080  178.1900  141.3660 N   0  0  0  0  0  0  0  0  0  0  0  0
  187.3910  178.0120  141.1880 C   0  0  0  0  0  0  0  0  0  0  0  0
  187.8840  177.1500  143.4790 N   0  0  0  0  0  0  0  0  0  0  0  0
  183.7510  179.2040  142.6950 N   0  0  0  0  0  0  0  0  0  0  0  0
  182.8380  178.9540  144.9550 C   0  0  0  0  0  1  0  0  0  0  0  0
  186.4940  178.6750  140.3090 C   0  0  0  0  0  3  0  0  0  0  0  0
  185.0750  178.1920  144.1340 C   0  0  0  0  0  0  0  0  0  0  0  0
  191.3500  176.3570  144.7000 C   0  0  0  0  0  2  0  0  0  0  0  0
  185.5590  177.6120  145.4220 C   0  0  0  0  0  1  0  0  0  0  0  0
  191.7240  177.7090  145.2610 C   0  0  0  0  0  2  0  0  0  0  0  0
  185.7540  178.2370  142.9340 C   0  0  0  0  0  0  0  0  0  0  0  0
  188.7160  177.4880  140.7070 C   0  0  1  0  0  3  0  0  0  0  0  0
  183.8730  178.7830  143.9490 N   0  0  0  0  0  0  0  0  0  0  0  0
  184.8970  178.8740  142.0720 C   0  0  0  0  0  0  0  0  0  0  0  0
  190.1240  178.0570  142.6190 C   0  0  0  0  0  0  0  0  0  0  0  0
  187.0250  177.8100  142.5390 C   0  0  0  0  0  0  0  0  0  0  0  0
  189.8910  176.3820  144.4340 C   0  0  0  0  0  2  0  0  0  0  0  0
  185.2350  179.1180  140.7470 C   0  0  0  0  0  3  0  0  0  0  0  0
  191.9710  178.6940  144.1660 C   0  0  0  0  0  3  0  0  0  0  0  0
  191.2710  178.8020  143.0730 N   0  0  0  0  0  0  0  0  0  0  0  0
  189.3210  177.1610  143.5160 C   0  0  0  0  0  0  0  0  0  0  0  0
  189.2770  177.5730  136.4410 C   0  0  0  0  0  3  0  0  0  0  0  0
  188.8940  177.5020  139.2150 C   0  0  0  0  0  0  0  0  0  0  0  0
  189.0790  178.7250  138.5620 C   0  0  0  0  0  3  0  0  0  0  0  0
  189.2690  178.7620  137.1770 C   0  0  0  0  0  3  0  0  0  0  0  0
  189.0990  176.3480  137.0890 C   0  0  0  0  0  3  0  0  0  0  0  0
  188.9100  176.3110  138.4730 C   0  0  0  0  0  3  0  0  0  0  0  0
  1 15  2  0  0  0  0
  2 16  2  0  0  0  0
  3 21  2  0  0  0  0
  4 13  1  0  0  0  0
  6 18  2  0  0  0  0
  6  2  1  0  0  0  0
  7  9  1  0  0  0  0
  8 10  1  0  0  0  0
 11  7  2  0  0  0  0
 12 23  1  6  0  0  0
 12  2  1  0  0  0  0
 12  1  1  0  0  0  0
 13  7  1  0  0  0  0
 13  5  1  0  0  0  0
 14  4  2  0  0  0  0
 14 11  1  0  0  0  0
 15 20  1  0  0  0  0
 15 21  1  0  0  0  0
 16 11  1  0  0  0  0
 16  3  1  0  0  0  0
 17  8  1  0  0  0  0
 18 14  1  0  0  0  0
 19 10  1  0  0  0  0
 20 19  2  0  0  0  0
 21 17  1  0  0  0  0
 22 26  2  0  0  0  0
 22 25  1  0  0  0  0
 24 23  1  0  0  0  0
 25 24  2  0  0  0  0
 26 27  1  0  0  0  0
 27 23  2  0  0  0  0
M  END
>  <MODEL>
3

>  <REMARK>
 VINA RESULT:      -7.4      1.443      5.297
  Name = 
  1 active torsions:
  status: ('A' for Active; 'I' for Inactive)
    1  A    between atoms: C_9  and  C_15
                            x       y       z     vdW  Elec       q    Type
                         _______ _______ _______ _____ _____    ______ ____

>  <TORSDO>
F 1

$$$$
=
 OpenBabel10262420103D

 27 31  0  0  1  0  0  0  0  0999 V2000
  186.2970  178.6530  141.6570 N   0  0  0  0  0  0  0  0  0  0  0  0
  185.9040  178.2390  144.0200 C   0  0  0  0  0  0  0  0  0  0  0  0
  188.0600  177.0660  143.5610 N   0  0  0  0  0  2  0  0  0  0  0  0
  187.2920  178.7510  147.8610 N   0  0  0  0  0  0  0  0  0  0  0  0
  189.4040  178.0250  148.8690 C   0  0  0  0  0  1  0  0  0  0  0  0
  185.0740  178.9370  144.9370 C   0  0  0  0  0  3  0  0  0  0  0  0
  188.6510  177.6650  146.5100 C   0  0  0  0  0  0  0  0  0  0  0  0
  189.4070  176.4690  140.1020 C   0  0  0  0  0  2  0  0  0  0  0  0
  189.8630  176.9340  146.0370 C   0  0  0  0  0  1  0  0  0  0  0  0
  190.2040  177.7410  139.9310 C   0  0  0  0  0  2  0  0  0  0  0  0
  187.5300  177.9850  145.7730 C   0  0  0  0  0  0  0  0  0  0  0  0
  185.4510  177.9540  142.6140 C   0  0  1  0  0  3  0  0  0  0  0  0
  188.4680  178.1410  147.7620 N   0  0  0  0  0  0  0  0  0  0  0  0
  186.7160  178.6580  146.6480 C   0  0  0  0  0  0  0  0  0  0  0  0
  187.5350  178.3470  141.4020 C   0  0  0  0  0  0  0  0  0  0  0  0
  187.1730  177.7740  144.4380 C   0  0  0  0  0  0  0  0  0  0  0  0
  189.0350  176.3760  141.5360 C   0  0  0  0  0  3  0  0  0  0  0  0
  185.4780  179.1580  146.2650 C   0  0  0  0  0  3  0  0  0  0  0  0
  189.3030  178.9170  139.7410 C   0  0  0  0  0  3  0  0  0  0  0  0
  188.1900  179.1280  140.3840 N   0  0  0  0  0  0  0  0  0  0  0  0
  188.2110  177.2300  142.1420 C   0  0  0  0  0  0  0  0  0  0  0  0
  181.2880  178.7080  141.8280 C   0  0  0  0  0  3  0  0  0  0  0  0
  184.0000  178.2380  142.3510 C   0  0  0  0  0  0  0  0  0  0  0  0
  183.4760  177.9890  141.0780 C   0  0  0  0  0  3  0  0  0  0  0  0
  182.1230  178.2260  140.8160 C   0  0  0  0  0  3  0  0  0  0  0  0
  181.8040  178.9520  143.1040 C   0  0  0  0  0  3  0  0  0  0  0  0
  183.1570  178.7160  143.3660 C   0  0  0  0  0  3  0  0  0  0  0  0
  1 12  1  0  0  0  0
  2 16  2  0  0  0  0
  2  6  1  0  0  0  0
  3 16  1  0  0  0  0
  6 18  2  0  0  0  0
  7 13  1  0  0  0  0
  8 17  1  0  0  0  0
  9  7  1  0  0  0  0
 10  8  1  0  0  0  0
 11  7  2  0  0  0  0
 11 14  1  0  0  0  0
 12 23  1  1  0  0  0
 12  2  1  0  0  0  0
 13  4  1  0  0  0  0
 13  5  1  0  0  0  0
 14  4  2  0  0  0  0
 15  1  2  0  0  0  0
 15 21  1  0  0  0  0
 16 11  1  0  0  0  0
 17 21  2  0  0  0  0
 18 14  1  0  0  0  0
 19 10  1  0  0  0  0
 19 20  2  0  0  0  0
 20 15  1  0  0  0  0
 21  3  1  0  0  0  0
 22 26  1  0  0  0  0
 23 27  1  0  0  0  0
 24 23  2  0  0  0  0
 25 24  1  0  0  0  0
 25 22  2  0  0  0  0
 26 27  2  0  0  0  0
M  END
>  <MODEL>
4

>  <REMARK>
 VINA RESULT:      -7.3      2.710      6.261
  Name = 
  1 active torsions:
  status: ('A' for Active; 'I' for Inactive)
    1  A    between atoms: C_9  and  C_15
                            x       y       z     vdW  Elec       q    Type
                         _______ _______ _______ _____ _____    ______ ____

>  <TORSDO>
F 1

$$$$
=
 OpenBabel10262420103D

 27 31  0  0  1  0  0  0  0  0999 V2000
  188.6110  177.7350  139.8350 N   0  0  0  0  0  0  0  0  0  0  0  0
  190.8290  176.7720  139.5820 C   0  0  0  0  0  0  0  0  0  0  0  0
  189.5660  175.8810  137.6210 N   0  0  0  0  0  2  0  0  0  0  0  0
  194.1900  176.4930  137.2230 N   0  0  0  0  0  0  0  0  0  0  0  0
  194.4180  175.7020  134.9160 C   0  0  0  0  0  1  0  0  0  0  0  0
  192.0670  177.1870  140.1410 C   0  0  0  0  0  3  0  0  0  0  0  0
  192.3180  175.8350  136.2690 C   0  0  0  0  0  0  0  0  0  0  0  0
  185.8370  176.1740  137.2420 C   0  0  0  0  0  2  0  0  0  0  0  0
  191.3890  175.3140  135.2230 C   0  0  0  0  0  1  0  0  0  0  0  0
  185.7710  177.5030  136.5250 C   0  0  0  0  0  2  0  0  0  0  0  0
  191.9910  176.2380  137.5460 C   0  0  0  0  0  0  0  0  0  0  0  0
  189.5610  176.7830  140.3920 C   0  0  1  0  0  3  0  0  0  0  0  0
  193.6510  176.0020  136.1130 N   0  0  0  0  0  0  0  0  0  0  0  0
  193.1800  176.6390  138.1010 C   0  0  0  0  0  0  0  0  0  0  0  0
  187.9810  177.5790  138.7090 C   0  0  0  0  0  0  0  0  0  0  0  0
  190.7830  176.3110  138.2450 C   0  0  0  0  0  0  0  0  0  0  0  0
  187.2540  175.7340  137.2180 C   0  0  0  0  0  3  0  0  0  0  0  0
  193.2590  177.1280  139.3990 C   0  0  0  0  0  3  0  0  0  0  0  0
  186.1040  178.6280  137.4500 C   0  0  0  0  0  3  0  0  0  0  0  0
  187.0420  178.6130  138.3520 N   0  0  0  0  0  0  0  0  0  0  0  0
  188.2360  176.3720  137.8550 C   0  0  0  0  0  0  0  0  0  0  0  0
  190.1810  177.4360  144.6000 C   0  0  0  0  0  3  0  0  0  0  0  0
  189.7560  177.0200  141.8620 C   0  0  0  0  0  0  0  0  0  0  0  0
  190.3030  176.0030  142.6520 C   0  0  0  0  0  3  0  0  0  0  0  0
  190.5130  176.2080  144.0180 C   0  0  0  0  0  3  0  0  0  0  0  0
  189.6410  178.4580  143.8160 C   0  0  0  0  0  3  0  0  0  0  0  0
  189.4310  178.2530  142.4490 C   0  0  0  0  0  3  0  0  0  0  0  0
  1 12  1  0  0  0  0
  2  6  1  0  0  0  0
  2 12  1  0  0  0  0
  3 21  1  0  0  0  0
  3 16  1  0  0  0  0
  4 14  2  0  0  0  0
  5 13  1  0  0  0  0
  7 11  2  0  0  0  0
  9  7  1  0  0  0  0
 10  8  1  0  0  0  0
 10 19  1  0  0  0  0
 11 14  1  0  0  0  0
 11 16  1  0  0  0  0
 12 23  1  1  0  0  0
 13  7  1  0  0  0  0
 13  4  1  0  0  0  0
 14 18  1  0  0  0  0
 15  1  2  0  0  0  0
 16  2  2  0  0  0  0
 17  8  1  0  0  0  0
 17 21  2  0  0  0  0
 18  6  2  0  0  0  0
 19 20  2  0  0  0  0
 20 15  1  0  0  0  0
 21 15  1  0  0  0  0
 23 27  2  0  0  0  0
 23 24  1  0  0  0  0
 24 25  2  0  0  0  0
 25 22  1  0  0  0  0
 26 22  2  0  0  0  0
 27 26  1  0  0  0  0
M  END
>  <MODEL>
5

>  <REMARK>
 VINA RESULT:      -7.3      2.725      6.359
  Name = 
  1 active torsions:
  status: ('A' for Active; 'I' for Inactive)
    1  A    between atoms: C_9  and  C_15
                            x       y       z     vdW  Elec       q    Type
                         _______ _______ _______ _____ _____    ______ ____

>  <TORSDO>
F 1

$$$$
=
 OpenBabel10262420103D

 27 31  0  0  1  0  0  0  0  0999 V2000
  184.3220  179.5390  140.4730 N   0  0  0  0  0  0  0  0  0  0  0  0
  186.3890  178.3530  139.9980 C   0  0  0  0  0  0  0  0  0  0  0  0
  184.9520  177.8610  138.0160 N   0  0  0  0  0  2  0  0  0  0  0  0
  189.5990  177.9540  137.4520 N   0  0  0  0  0  0  0  0  0  0  0  0
  189.6400  177.4230  135.0610 C   0  0  0  0  0  1  0  0  0  0  0  0
  187.6900  178.5460  140.5360 C   0  0  0  0  0  3  0  0  0  0  0  0
  187.6240  177.6460  136.5270 C   0  0  0  0  0  0  0  0  0  0  0  0
  181.2780  178.6450  137.8670 C   0  0  0  0  0  2  0  0  0  0  0  0
  186.5990  177.3690  135.4780 C   0  0  0  0  0  1  0  0  0  0  0  0
  181.3540  180.0470  137.3100 C   0  0  0  0  0  2  0  0  0  0  0  0
  187.3990  177.9300  137.8580 C   0  0  0  0  0  0  0  0  0  0  0  0
  185.1640  178.4190  140.8680 C   0  0  1  0  0  3  0  0  0  0  0  0
  188.9610  177.6680  136.3230 N   0  0  0  0  0  0  0  0  0  0  0  0
  188.6490  178.1160  138.3920 C   0  0  0  0  0  0  0  0  0  0  0  0
  183.6350  179.5960  139.3710 C   0  0  0  0  0  0  0  0  0  0  0  0
  186.2360  178.0630  138.6220 C   0  0  0  0  0  0  0  0  0  0  0  0
  182.6270  178.0430  137.7200 C   0  0  0  0  0  3  0  0  0  0  0  0
  188.8360  178.4320  139.7310 C   0  0  0  0  0  3  0  0  0  0  0  0
  181.8590  181.0050  138.3380 C   0  0  0  0  0  3  0  0  0  0  0  0
  182.8210  180.7700  139.1830 N   0  0  0  0  0  0  0  0  0  0  0  0
  183.7040  178.4770  138.3730 C   0  0  0  0  0  0  0  0  0  0  0  0
  185.8940  178.5200  145.1080 C   0  0  0  0  0  3  0  0  0  0  0  0
  185.4420  178.4540  142.3440 C   0  0  0  0  0  0  0  0  0  0  0  0
  184.7070  179.3240  143.1570 C   0  0  0  0  0  3  0  0  0  0  0  0
  184.9330  179.3590  144.5360 C   0  0  0  0  0  3  0  0  0  0  0  0
  186.6270  177.6450  144.3030 C   0  0  0  0  0  3  0  0  0  0  0  0
  186.4010  177.6100  142.9240 C   0  0  0  0  0  3  0  0  0  0  0  0
  1 12  1  0  0  0  0
  2  6  1  0  0  0  0
  2 12  1  0  0  0  0
  3 21  1  0  0  0  0
  3 16  1  0  0  0  0
  4 14  2  0  0  0  0
  5 13  1  0  0  0  0
  7 11  2  0  0  0  0
  9  7  1  0  0  0  0
 10  8  1  0  0  0  0
 10 19  1  0  0  0  0
 11 14  1  0  0  0  0
 11 16  1  0  0  0  0
 12 23  1  1  0  0  0
 13  7  1  0  0  0  0
 13  4  1  0  0  0  0
 14 18  1  0  0  0  0
 15  1  2  0  0  0  0
 16  2  2  0  0  0  0
 17  8  1  0  0  0  0
 17 21  2  0  0  0  0
 18  6  2  0  0  0  0
 19 20  2  0  0  0  0
 20 15  1  0  0  0  0
 21 15  1  0  0  0  0
 23 27  2  0  0  0  0
 23 24  1  0  0  0  0
 24 25  2  0  0  0  0
 25 22  1  0  0  0  0
 26 22  2  0  0  0  0
 27 26  1  0  0  0  0
M  END
>  <MODEL>
6

>  <REMARK>
 VINA RESULT:      -7.2      2.633      6.098
  Name = 
  1 active torsions:
  status: ('A' for Active; 'I' for Inactive)
    1  A    between atoms: C_9  and  C_15
                            x       y       z     vdW  Elec       q    Type
                         _______ _______ _______ _____ _____    ______ ____

>  <TORSDO>
F 1

$$$$
=
 OpenBabel10262420103D

 27 31  0  0  1  0  0  0  0  0999 V2000
  191.1960  177.3730  140.7440 N   0  0  0  0  0  0  0  0  0  0  0  0
  189.2530  177.2570  139.2880 C   0  0  0  0  0  0  0  0  0  0  0  0
  188.2800  177.1850  141.5880 N   0  0  0  0  0  0  0  0  0  0  0  0
  185.7320  179.0480  138.1290 N   0  0  0  0  0  0  0  0  0  0  0  0
  183.7520  179.6060  139.4580 C   0  0  0  0  0  1  0  0  0  0  0  0
  189.1170  177.6300  137.9250 C   0  0  0  0  0  3  0  0  0  0  0  0
  185.8540  178.5130  140.2620 C   0  0  0  0  0  0  0  0  0  0  0  0
  190.3320  176.6850  144.6980 C   0  0  0  0  0  2  0  0  0  0  0  0
  185.4560  178.3720  141.6940 C   0  0  0  0  0  1  0  0  0  0  0  0
  190.6500  178.1290  145.0110 C   0  0  0  0  0  2  0  0  0  0  0  0
  187.0460  178.1250  139.6870 C   0  0  0  0  0  0  0  0  0  0  0  0
  190.4790  176.5430  139.7870 C   0  0  1  0  0  3  0  0  0  0  0  0
  185.0900  179.0620  139.2910 N   0  0  0  0  0  0  0  0  0  0  0  0
  186.9280  178.4770  138.3660 C   0  0  0  0  0  0  0  0  0  0  0  0
  190.7770  177.6510  141.9430 C   0  0  0  0  0  0  0  0  0  0  0  0
  188.2050  177.5330  140.1980 C   0  0  0  0  0  0  0  0  0  0  0  0
  189.2700  176.6870  143.6610 C   0  0  0  0  0  2  0  0  0  0  0  0
  187.9480  178.2510  137.4510 C   0  0  0  0  0  3  0  0  0  0  0  0
  191.6430  178.6800  144.0400 C   0  0  0  0  0  3  0  0  0  0  0  0
  191.6550  178.4510  142.7590 N   0  0  0  0  0  0  0  0  0  0  0  0
  189.4490  177.1420  142.4220 C   0  0  0  0  0  0  0  0  0  0  0  0
  193.1760  175.1420  136.7400 C   0  0  0  0  0  3  0  0  0  0  0  0
  191.4020  176.0520  138.7080 C   0  0  0  0  0  0  0  0  0  0  0  0
  192.6210  176.7080  138.5020 C   0  0  0  0  0  3  0  0  0  0  0  0
  193.5060  176.2560  137.5190 C   0  0  0  0  0  3  0  0  0  0  0  0
  191.9640  174.4790  136.9460 C   0  0  0  0  0  3  0  0  0  0  0  0
  191.0790  174.9300  137.9290 C   0  0  0  0  0  3  0  0  0  0  0  0
  1 15  2  0  0  0  0
  2 12  1  0  0  0  0
  2 16  2  0  0  0  0
  3 21  2  0  0  0  0
  4 14  2  0  0  0  0
  4 13  1  0  0  0  0
  6  2  1  0  0  0  0
  7  9  1  0  0  0  0
  8 10  1  0  0  0  0
 11 16  1  0  0  0  0
 11  7  2  0  0  0  0
 12 23  1  6  0  0  0
 12  1  1  0  0  0  0
 13  5  1  0  0  0  0
 13  7  1  0  0  0  0
 14 11  1  0  0  0  0
 15 21  1  0  0  0  0
 15 20  1  0  0  0  0
 16  3  1  0  0  0  0
 17  8  1  0  0  0  0
 18  6  2  0  0  0  0
 18 14  1  0  0  0  0
 19 10  1  0  0  0  0
 20 19  2  0  0  0  0
 21 17  1  0  0  0  0
 22 26  2  0  0  0  0
 22 25  1  0  0  0  0
 24 23  1  0  0  0  0
 25 24  2  0  0  0  0
 26 27  1  0  0  0  0
 27 23  2  0  0  0  0
M  END
>  <MODEL>
7

>  <REMARK>
 VINA RESULT:      -7.1      1.971      5.396
  Name = 
  1 active torsions:
  status: ('A' for Active; 'I' for Inactive)
    1  A    between atoms: C_9  and  C_15
                            x       y       z     vdW  Elec       q    Type
                         _______ _______ _______ _____ _____    ______ ____

>  <TORSDO>
F 1

$$$$
=
 OpenBabel10262420103D

 27 31  0  0  1  0  0  0  0  0999 V2000
  183.2570  179.1420  143.2400 N   0  0  0  0  0  0  0  0  0  0  0  0
  185.1880  178.3610  141.9860 C   0  0  0  0  0  0  0  0  0  0  0  0
  183.2450  177.6870  140.5690 N   0  0  0  0  0  0  0  0  0  0  0  0
  187.3280  178.6290  138.4800 N   0  0  0  0  0  0  0  0  0  0  0  0
  186.6150  178.1940  136.1780 C   0  0  0  0  0  1  0  0  0  0  0  0
  186.5460  178.7660  142.0680 C   0  0  0  0  0  3  0  0  0  0  0  0
  185.2290  178.0030  138.2520 C   0  0  0  0  0  0  0  0  0  0  0  0
  179.6750  177.8060  141.7420 C   0  0  0  0  0  2  0  0  0  0  0  0
  183.9590  177.5820  137.5900 C   0  0  0  0  0  1  0  0  0  0  0  0
  179.3320  179.2170  141.3260 C   0  0  0  0  0  2  0  0  0  0  0  0
  185.4400  178.1970  139.6010 C   0  0  0  0  0  0  0  0  0  0  0  0
  184.3480  178.1780  143.2210 C   0  0  1  0  0  3  0  0  0  0  0  0
  186.3900  178.2710  137.6120 N   0  0  0  0  0  0  0  0  0  0  0  0
  186.7530  178.5860  139.6970 C   0  0  0  0  0  0  0  0  0  0  0  0
  182.2290  179.1120  142.4440 C   0  0  0  0  0  0  0  0  0  0  0  0
  184.6110  178.0950  140.7210 C   0  0  0  0  0  0  0  0  0  0  0  0
  180.9640  177.4600  141.0930 C   0  0  0  0  0  2  0  0  0  0  0  0
  187.3430  178.8860  140.9170 C   0  0  0  0  0  3  0  0  0  0  0  0
  180.0080  180.2150  142.2080 C   0  0  0  0  0  3  0  0  0  0  0  0
  181.2280  180.1270  142.6520 N   0  0  0  0  0  0  0  0  0  0  0  0
  182.1200  178.0580  141.3820 C   0  0  0  0  0  0  0  0  0  0  0  0
  186.4850  178.2710  146.9550 C   0  0  0  0  0  3  0  0  0  0  0  0
  185.1140  178.2130  144.5130 C   0  0  0  0  0  0  0  0  0  0  0  0
  184.6200  178.9720  145.5790 C   0  0  0  0  0  3  0  0  0  0  0  0
  185.3040  179.0030  146.7970 C   0  0  0  0  0  3  0  0  0  0  0  0
  186.9800  177.5060  145.8960 C   0  0  0  0  0  3  0  0  0  0  0  0
  186.2960  177.4750  144.6780 C   0  0  0  0  0  3  0  0  0  0  0  0
  2  6  1  0  0  0  0
  2 12  1  0  0  0  0
  3 16  1  0  0  0  0
  3 21  2  0  0  0  0
  4 14  2  0  0  0  0
  5 13  1  0  0  0  0
  7 11  2  0  0  0  0
  9  7  1  0  0  0  0
 10  8  1  0  0  0  0
 10 19  1  0  0  0  0
 11 14  1  0  0  0  0
 11 16  1  0  0  0  0
 12  1  1  0  0  0  0
 12 23  1  1  0  0  0
 13  7  1  0  0  0  0
 13  4  1  0  0  0  0
 14 18  1  0  0  0  0
 15 20  1  0  0  0  0
 15  1  2  0  0  0  0
 16  2  2  0  0  0  0
 17 21  1  0  0  0  0
 17  8  1  0  0  0  0
 18  6  2  0  0  0  0
 19 20  2  0  0  0  0
 21 15  1  0  0  0  0
 23 27  2  0  0  0  0
 23 24  1  0  0  0  0
 24 25  2  0  0  0  0
 25 22  1  0  0  0  0
 26 22  2  0  0  0  0
 27 26  1  0  0  0  0
M  END
>  <MODEL>
8

>  <REMARK>
 VINA RESULT:      -7.0      2.809      6.391
  Name = 
  1 active torsions:
  status: ('A' for Active; 'I' for Inactive)
    1  A    between atoms: C_9  and  C_15
                            x       y       z     vdW  Elec       q    Type
                         _______ _______ _______ _____ _____    ______ ____

>  <TORSDO>
F 1

$$$$
=
 OpenBabel10262420103D

 27 31  0  0  1  0  0  0  0  0999 V2000
  187.2620  177.2680  143.0030 N   0  0  0  0  0  0  0  0  0  0  0  0
  186.1580  178.2490  141.0730 C   0  0  0  0  0  0  0  0  0  0  0  0
  188.5890  178.4720  140.5460 N   0  0  0  0  0  0  0  0  0  0  0  0
  185.5540  178.0480  137.0060 N   0  0  0  0  0  0  0  0  0  0  0  0
  187.1800  178.1650  135.1780 C   0  0  0  0  0  1  0  0  0  0  0  0
  184.8270  178.0840  140.6080 C   0  0  0  0  0  3  0  0  0  0  0  0
  187.6510  178.2960  137.6310 C   0  0  0  0  0  0  0  0  0  0  0  0
  191.3240  177.8630  143.0530 C   0  0  0  0  0  2  0  0  0  0  0  0
  189.1330  178.4440  137.5300 C   0  0  0  0  0  1  0  0  0  0  0  0
  191.5350  176.3840  142.8240 C   0  0  0  0  0  2  0  0  0  0  0  0
  186.8960  178.2530  138.7840 C   0  0  0  0  0  0  0  0  0  0  0  0
  186.4640  178.3940  142.5380 C   0  0  1  0  0  3  0  0  0  0  0  0
  186.8070  178.1710  136.5830 N   0  0  0  0  0  0  0  0  0  0  0  0
  185.6040  178.0960  138.3500 C   0  0  0  0  0  0  0  0  0  0  0  0
  188.5050  177.0600  142.6860 C   0  0  0  0  0  0  0  0  0  0  0  0
  187.2230  178.3100  140.1420 C   0  0  0  0  0  0  0  0  0  0  0  0
  190.4810  178.3610  141.9380 C   0  0  0  0  0  2  0  0  0  0  0  0
  184.5370  178.0010  139.2350 C   0  0  0  0  0  3  0  0  0  0  0  0
  190.3960  175.5890  143.3720 C   0  0  0  0  0  3  0  0  0  0  0  0
  189.1380  175.9140  143.2890 N   0  0  0  0  0  0  0  0  0  0  0  0
  189.2160  177.9890  141.7450 C   0  0  0  0  0  0  0  0  0  0  0  0
  183.0560  179.0030  145.0930 C   0  0  0  0  0  3  0  0  0  0  0  0
  185.2610  178.5940  143.4150 C   0  0  0  0  0  0  0  0  0  0  0  0
  185.3890  178.4260  144.7980 C   0  0  0  0  0  3  0  0  0  0  0  0
  184.2880  178.6280  145.6360 C   0  0  0  0  0  3  0  0  0  0  0  0
  182.9230  179.1790  143.7140 C   0  0  0  0  0  3  0  0  0  0  0  0
  184.0230  178.9770  142.8760 C   0  0  0  0  0  3  0  0  0  0  0  0
  2 12  1  0  0  0  0
  3 21  2  0  0  0  0
  4 14  2  0  0  0  0
  5 13  1  0  0  0  0
  6  2  1  0  0  0  0
  7 11  2  0  0  0  0
  9  7  1  0  0  0  0
 10  8  1  0  0  0  0
 10 19  1  0  0  0  0
 11 16  1  0  0  0  0
 12  1  1  0  0  0  0
 12 23  1  1  0  0  0
 13  4  1  0  0  0  0
 13  7  1  0  0  0  0
 14 11  1  0  0  0  0
 14 18  1  0  0  0  0
 15  1  2  0  0  0  0
 15 20  1  0  0  0  0
 16  3  1  0  0  0  0
 16  2  2  0  0  0  0
 17  8  1  0  0  0  0
 18  6  2  0  0  0  0
 20 19  2  0  0  0  0
 21 17  1  0  0  0  0
 21 15  1  0  0  0  0
 22 25  1  0  0  0  0
 23 24  1  0  0  0  0
 24 25  2  0  0  0  0
 26 22  2  0  0  0  0
 27 23  2  0  0  0  0
 27 26  1  0  0  0  0
M  END
>  <MODEL>
9

>  <REMARK>
 VINA RESULT:      -6.7      1.982      5.307
  Name = 
  1 active torsions:
  status: ('A' for Active; 'I' for Inactive)
    1  A    between atoms: C_9  and  C_15
                            x       y       z     vdW  Elec       q    Type
                         _______ _______ _______ _____ _____    ______ ____

>  <TORSDO>
F 1

$$$$
