=
 OpenBabel10262419553D

 25 28  0  0  1  0  0  0  0  0999 V2000
  187.0690  178.1890  142.1490 C   0  0  0  0  0  0  0  0  0  0  0  0
  188.1760  178.0050  141.3080 C   0  0  0  0  0  0  0  0  0  0  0  0
  185.7410  178.9070  140.3000 N   0  0  0  0  0  0  0  0  0  0  0  0
  186.9740  177.9860  143.5360 C   0  0  0  0  0  0  0  0  0  0  0  0
  190.7120  177.5790  141.1860 C   0  0  2  0  0  3  0  0  0  0  0  0
  186.4020  177.7050  146.2570 C   0  0  0  0  0  3  0  0  0  0  0  0
  186.7780  178.7240  139.4800 N   0  0  0  0  0  0  0  0  0  0  0  0
  185.7070  178.2850  144.0370 C   0  0  0  0  0  0  0  0  0  0  0  0
  185.3970  178.1530  145.3890 C   0  0  0  0  0  3  0  0  0  0  0  0
  189.1090  178.0580  138.9200 C   0  0  2  0  0  3  0  0  0  0  0  0
  188.6680  178.2930  137.4830 C   0  0  0  0  0  1  0  0  0  0  0  0
  189.4200  177.5450  141.8600 N   0  0  0  0  0  2  0  0  0  0  0  0
  187.6850  177.3990  145.7660 C   0  0  0  0  0  3  0  0  0  0  0  0
  185.8740  178.6410  141.6170 C   0  0  0  0  0  0  0  0  0  0  0  0
  184.6850  178.8030  142.7990 S   0  0  0  0  0  0  0  0  0  0  0  0
  189.6520  176.6420  139.0470 C   0  0  0  0  0  2  0  0  0  0  0  0
  187.9780  177.5380  144.4000 C   0  0  0  0  0  3  0  0  0  0  0  0
  190.7990  176.5530  140.0530 C   0  0  0  0  0  2  0  0  0  0  0  0
  187.9960  178.2740  139.9200 C   0  0  0  0  0  0  0  0  0  0  0  0
  191.8500  177.3990  142.1900 C   0  0  0  0  0  2  0  0  0  0  0  0
  191.4640  176.8680  144.6250 C   0  0  0  0  0  0  0  0  0  0  0  0
  191.0890  177.2650  145.8670 F   0  0  0  0  0  0  0  0  0  0  0  0
  191.8230  175.6740  144.4440 O   0  0  0  0  0  0  0  0  0  0  0  0
  191.2340  179.2110  143.8060 C   0  0  0  0  0  1  0  0  0  0  0  0
  191.4600  177.8020  143.5380 N   0  0  0  0  0  0  0  0  0  0  0  0
  1  4  1  0  0  0  0
  2 12  1  0  0  0  0
  2  1  1  0  0  0  0
  3 14  1  0  0  0  0
  4  8  2  0  0  0  0
  4 17  1  0  0  0  0
  5 12  1  0  0  0  0
  5 20  1  1  0  0  0
  7 19  1  0  0  0  0
  7  3  2  0  0  0  0
  8  9  1  0  0  0  0
  9  6  2  0  0  0  0
 10 11  1  6  0  0  0
 10 16  1  0  0  0  0
 10 19  1  0  0  0  0
 13  6  1  0  0  0  0
 14  1  2  0  0  0  0
 14 15  1  0  0  0  0
 15  8  1  0  0  0  0
 16 18  1  0  0  0  0
 17 13  2  0  0  0  0
 18  5  1  0  0  0  0
 19  2  2  0  0  0  0
 20 25  1  0  0  0  0
 21 22  1  0  0  0  0
 23 21  2  0  0  0  0
 25 24  1  0  0  0  0
 25 21  1  0  0  0  0
M  END
>  <MODEL>
1

>  <REMARK>
 VINA RESULT:      -9.7      0.000      0.000
  Name = 
  2 active torsions:
  status: ('A' for Active; 'I' for Inactive)
    1  A    between atoms: C_6  and  C_15
    2  A    between atoms: C_15  and  N_25
                            x       y       z     vdW  Elec       q    Type
                         _______ _______ _______ _____ _____    ______ ____

>  <TORSDO>
F 2

$$$$
=
 OpenBabel10262419553D

 25 28  0  0  1  0  0  0  0  0999 V2000
  187.0860  177.8990  145.2420 C   0  0  0  0  0  0  0  0  0  0  0  0
  188.3170  177.5040  144.6970 C   0  0  0  0  0  0  0  0  0  0  0  0
  187.9680  177.7120  147.4530 N   0  0  0  0  0  0  0  0  0  0  0  0
  185.8930  178.2270  144.5760 C   0  0  0  0  0  0  0  0  0  0  0  0
  189.5610  176.7400  142.5760 C   0  0  2  0  0  3  0  0  0  0  0  0
  183.3650  178.9390  143.6210 C   0  0  0  0  0  3  0  0  0  0  0  0
  189.1520  177.3500  146.9530 N   0  0  0  0  0  0  0  0  0  0  0  0
  184.8630  178.5650  145.4550 C   0  0  0  0  0  0  0  0  0  0  0  0
  183.5950  178.9230  145.0040 C   0  0  0  0  0  3  0  0  0  0  0  0
  190.7610  176.8580  145.1210 C   0  0  2  0  0  3  0  0  0  0  0  0
  191.7730  176.7370  146.2500 C   0  0  0  0  0  1  0  0  0  0  0  0
  188.4620  177.3990  143.2710 N   0  0  0  0  0  2  0  0  0  0  0  0
  184.3940  178.6010  142.7230 C   0  0  0  0  0  3  0  0  0  0  0  0
  186.9450  177.9890  146.6160 C   0  0  0  0  0  0  0  0  0  0  0  0
  185.3900  178.4660  147.0550 S   0  0  0  0  0  0  0  0  0  0  0  0
  191.2600  177.8870  144.1160 C   0  0  0  0  0  2  0  0  0  0  0  0
  185.6660  178.2430  143.1970 C   0  0  0  0  0  3  0  0  0  0  0  0
  190.8670  177.5300  142.6840 C   0  0  0  0  0  2  0  0  0  0  0  0
  189.3810  177.2390  145.6060 C   0  0  0  0  0  0  0  0  0  0  0  0
  189.1910  176.4680  141.1180 C   0  0  0  0  0  2  0  0  0  0  0  0
  189.7210  178.0010  139.1860 C   0  0  0  0  0  0  0  0  0  0  0  0
  189.5020  179.1580  138.5140 F   0  0  0  0  0  0  0  0  0  0  0  0
  190.5850  177.1920  138.7540 O   0  0  0  0  0  0  0  0  0  0  0  0
  187.8480  178.5480  140.7380 C   0  0  0  0  0  1  0  0  0  0  0  0
  188.9690  177.7010  140.3700 N   0  0  0  0  0  0  0  0  0  0  0  0
  1 14  1  0  0  0  0
  2  1  2  0  0  0  0
  2 19  1  0  0  0  0
  4  1  1  0  0  0  0
  4  8  1  0  0  0  0
  5 20  1  6  0  0  0
  5 18  1  0  0  0  0
  5 12  1  0  0  0  0
  6  9  1  0  0  0  0
  7  3  1  0  0  0  0
  8 15  1  0  0  0  0
  9  8  2  0  0  0  0
 10 19  1  0  0  0  0
 10 11  1  1  0  0  0
 12  2  1  0  0  0  0
 13 17  1  0  0  0  0
 13  6  2  0  0  0  0
 14 15  1  0  0  0  0
 14  3  2  0  0  0  0
 16 10  1  0  0  0  0
 17  4  2  0  0  0  0
 18 16  1  0  0  0  0
 19  7  2  0  0  0  0
 21 25  1  0  0  0  0
 22 21  1  0  0  0  0
 23 21  2  0  0  0  0
 25 24  1  0  0  0  0
 25 20  1  0  0  0  0
M  END
>  <MODEL>
2

>  <REMARK>
 VINA RESULT:      -9.4      2.824      5.027
  Name = 
  2 active torsions:
  status: ('A' for Active; 'I' for Inactive)
    1  A    between atoms: C_6  and  C_15
    2  A    between atoms: C_15  and  N_25
                            x       y       z     vdW  Elec       q    Type
                         _______ _______ _______ _____ _____    ______ ____

>  <TORSDO>
F 2

$$$$
=
 OpenBabel10262419553D

 25 28  0  0  1  0  0  0  0  0999 V2000
  185.1800  178.3070  144.4370 C   0  0  0  0  0  0  0  0  0  0  0  0
  186.4390  177.8670  144.8700 C   0  0  0  0  0  0  0  0  0  0  0  0
  184.5150  178.7300  146.6910 N   0  0  0  0  0  0  0  0  0  0  0  0
  184.6770  178.3840  143.1270 C   0  0  0  0  0  0  0  0  0  0  0  0
  188.6260  176.6790  144.2080 C   0  0  2  0  0  3  0  0  0  0  0  0
  183.3380  178.6780  140.6920 C   0  0  0  0  0  3  0  0  0  0  0  0
  185.7140  178.3300  147.1220 N   0  0  0  0  0  0  0  0  0  0  0  0
  183.3680  178.8650  143.0820 C   0  0  0  0  0  0  0  0  0  0  0  0
  182.6790  179.0200  141.8810 C   0  0  0  0  0  3  0  0  0  0  0  0
  188.0410  177.5010  146.8380 C   0  0  2  0  0  3  0  0  0  0  0  0
  188.1420  177.7270  148.3390 C   0  0  0  0  0  1  0  0  0  0  0  0
  187.4070  177.4200  143.9060 N   0  0  0  0  0  2  0  0  0  0  0  0
  184.6580  178.1920  140.7220 C   0  0  0  0  0  3  0  0  0  0  0  0
  184.2460  178.7270  145.3680 C   0  0  0  0  0  0  0  0  0  0  0  0
  182.8030  179.1990  144.6360 S   0  0  0  0  0  0  0  0  0  0  0  0
  189.1510  178.2770  146.1430 C   0  0  0  0  0  2  0  0  0  0  0  0
  185.3360  178.0430  141.9420 C   0  0  0  0  0  3  0  0  0  0  0  0
  189.6730  177.5520  144.9040 C   0  0  0  0  0  2  0  0  0  0  0  0
  186.6990  177.9030  146.2710 C   0  0  0  0  0  0  0  0  0  0  0  0
  189.1900  176.0310  142.9440 C   0  0  0  0  0  2  0  0  0  0  0  0
  191.2750  177.1790  142.1100 C   0  0  0  0  0  0  0  0  0  0  0  0
  191.8660  178.0940  141.3020 F   0  0  0  0  0  0  0  0  0  0  0  0
  191.9910  176.4820  142.8770 O   0  0  0  0  0  0  0  0  0  0  0  0
  189.0710  177.6700  141.0530 C   0  0  0  0  0  1  0  0  0  0  0  0
  189.8530  177.0020  142.0790 N   0  0  0  0  0  0  0  0  0  0  0  0
  1  2  2  0  0  0  0
  1 14  1  0  0  0  0
  2 19  1  0  0  0  0
  3  7  1  0  0  0  0
  4  1  1  0  0  0  0
  5 20  1  6  0  0  0
  5 18  1  0  0  0  0
  6 13  2  0  0  0  0
  6  9  1  0  0  0  0
  8  4  1  0  0  0  0
  8 15  1  0  0  0  0
  9  8  2  0  0  0  0
 10 11  1  1  0  0  0
 12  5  1  0  0  0  0
 12  2  1  0  0  0  0
 13 17  1  0  0  0  0
 14  3  2  0  0  0  0
 15 14  1  0  0  0  0
 16 10  1  0  0  0  0
 17  4  2  0  0  0  0
 18 16  1  0  0  0  0
 19 10  1  0  0  0  0
 19  7  2  0  0  0  0
 21 23  2  0  0  0  0
 22 21  1  0  0  0  0
 24 25  1  0  0  0  0
 25 21  1  0  0  0  0
 25 20  1  0  0  0  0
M  END
>  <MODEL>
3

>  <REMARK>
 VINA RESULT:      -9.0      2.695      5.140
  Name = 
  2 active torsions:
  status: ('A' for Active; 'I' for Inactive)
    1  A    between atoms: C_6  and  C_15
    2  A    between atoms: C_15  and  N_25
                            x       y       z     vdW  Elec       q    Type
                         _______ _______ _______ _____ _____    ______ ____

>  <TORSDO>
F 2

$$$$
=
 OpenBabel10262419553D

 25 28  0  0  1  0  0  0  0  0999 V2000
  186.2650  178.4990  141.9570 C   0  0  0  0  0  0  0  0  0  0  0  0
  187.6520  178.2860  141.9580 C   0  0  0  0  0  0  0  0  0  0  0  0
  186.2310  178.4790  139.5700 N   0  0  0  0  0  0  0  0  0  0  0  0
  185.3970  178.6530  143.0510 C   0  0  0  0  0  0  0  0  0  0  0  0
  189.8040  178.2680  143.3720 C   0  0  2  0  0  3  0  0  0  0  0  0
  183.3790  179.0030  144.9520 C   0  0  0  0  0  3  0  0  0  0  0  0
  187.5480  178.2610  139.5500 N   0  0  0  0  0  0  0  0  0  0  0  0
  184.0740  178.8590  142.6610 C   0  0  0  0  0  0  0  0  0  0  0  0
  183.0500  179.0360  143.5900 C   0  0  0  0  0  3  0  0  0  0  0  0
  189.7750  177.8670  140.5850 C   0  0  2  0  0  3  0  0  0  0  0  0
  190.2310  177.6410  139.1510 C   0  0  0  0  0  1  0  0  0  0  0  0
  188.3570  178.1990  143.2080 N   0  0  0  0  0  2  0  0  0  0  0  0
  184.7090  178.7960  145.3600 C   0  0  0  0  0  3  0  0  0  0  0  0
  185.5900  178.5920  140.7530 C   0  0  0  0  0  0  0  0  0  0  0  0
  183.9420  178.8590  140.9790 S   0  0  0  0  0  0  0  0  0  0  0  0
  190.1320  176.6430  141.4160 C   0  0  0  0  0  2  0  0  0  0  0  0
  185.7270  178.6190  144.4090 C   0  0  0  0  0  3  0  0  0  0  0  0
  190.5040  177.0100  142.8520 C   0  0  0  0  0  2  0  0  0  0  0  0
  188.2950  178.1500  140.6940 C   0  0  0  0  0  0  0  0  0  0  0  0
  190.1680  178.5480  144.8300 C   0  0  0  0  0  2  0  0  0  0  0  0
  190.8500  176.7300  146.4410 C   0  0  0  0  0  0  0  0  0  0  0  0
  190.5170  175.6850  147.2380 F   0  0  0  0  0  0  0  0  0  0  0  0
  192.0560  177.0870  146.3650 O   0  0  0  0  0  0  0  0  0  0  0  0
  188.4370  177.1280  145.9540 C   0  0  0  0  0  1  0  0  0  0  0  0
  189.8370  177.4260  145.7020 N   0  0  0  0  0  0  0  0  0  0  0  0
  1  2  1  0  0  0  0
  1  4  1  0  0  0  0
  2 12  1  0  0  0  0
  3 14  1  0  0  0  0
  4 17  1  0  0  0  0
  5 20  1  1  0  0  0
  6 13  1  0  0  0  0
  7  3  2  0  0  0  0
  7 19  1  0  0  0  0
  8  4  2  0  0  0  0
  8  9  1  0  0  0  0
  9  6  2  0  0  0  0
 10 11  1  6  0  0  0
 10 19  1  0  0  0  0
 10 16  1  0  0  0  0
 12  5  1  0  0  0  0
 14 15  1  0  0  0  0
 14  1  2  0  0  0  0
 15  8  1  0  0  0  0
 16 18  1  0  0  0  0
 17 13  2  0  0  0  0
 18  5  1  0  0  0  0
 19  2  2  0  0  0  0
 20 25  1  0  0  0  0
 21 22  1  0  0  0  0
 23 21  2  0  0  0  0
 25 24  1  0  0  0  0
 25 21  1  0  0  0  0
M  END
>  <MODEL>
4

>  <REMARK>
 VINA RESULT:      -8.9      1.603      2.348
  Name = 
  2 active torsions:
  status: ('A' for Active; 'I' for Inactive)
    1  A    between atoms: C_6  and  C_15
    2  A    between atoms: C_15  and  N_25
                            x       y       z     vdW  Elec       q    Type
                         _______ _______ _______ _____ _____    ______ ____

>  <TORSDO>
F 2

$$$$
=
 OpenBabel10262419553D

 25 28  0  0  1  0  0  0  0  0999 V2000
  187.7700  177.8080  145.6860 C   0  0  0  0  0  0  0  0  0  0  0  0
  187.0310  178.2220  144.5680 C   0  0  0  0  0  0  0  0  0  0  0  0
  185.8980  178.2080  147.1130 N   0  0  0  0  0  0  0  0  0  0  0  0
  189.1040  177.3690  145.7470 C   0  0  0  0  0  0  0  0  0  0  0  0
  187.1190  178.8830  142.0810 C   0  0  2  0  0  3  0  0  0  0  0  0
  191.6940  176.4590  146.2650 C   0  0  0  0  0  3  0  0  0  0  0  0
  185.1730  178.5900  146.0590 N   0  0  0  0  0  0  0  0  0  0  0  0
  189.5050  177.0480  147.0440 C   0  0  0  0  0  0  0  0  0  0  0  0
  190.7910  176.5930  147.3280 C   0  0  0  0  0  3  0  0  0  0  0  0
  184.7780  179.0210  143.6420 C   0  0  2  0  0  3  0  0  0  0  0  0
  183.3440  179.2790  144.0790 C   0  0  0  0  0  1  0  0  0  0  0  0
  187.6470  178.2240  143.2700 N   0  0  0  0  0  2  0  0  0  0  0  0
  191.3040  176.7790  144.9510 C   0  0  0  0  0  3  0  0  0  0  0  0
  187.1780  177.8160  146.9370 C   0  0  0  0  0  0  0  0  0  0  0  0
  188.2420  177.2960  148.1350 S   0  0  0  0  0  0  0  0  0  0  0  0
  184.7820  177.9450  142.5650 C   0  0  0  0  0  2  0  0  0  0  0  0
  190.0040  177.2370  144.6850 C   0  0  0  0  0  3  0  0  0  0  0  0
  185.8820  178.1710  141.5290 C   0  0  0  0  0  2  0  0  0  0  0  0
  185.6770  178.6090  144.7850 C   0  0  0  0  0  0  0  0  0  0  0  0
  188.2050  179.0240  141.0150 C   0  0  0  0  0  2  0  0  0  0  0  0
  188.0220  177.5660  138.9650 C   0  0  0  0  0  0  0  0  0  0  0  0
  188.2580  176.3850  138.3410 F   0  0  0  0  0  0  0  0  0  0  0  0
  187.4290  178.4850  138.3390 O   0  0  0  0  0  0  0  0  0  0  0  0
  189.3040  176.7740  140.9510 C   0  0  0  0  0  1  0  0  0  0  0  0
  188.4540  177.7670  140.3170 N   0  0  0  0  0  0  0  0  0  0  0  0
  1  4  1  0  0  0  0
  1 14  2  0  0  0  0
  2 19  2  0  0  0  0
  2  1  1  0  0  0  0
  4  8  1  0  0  0  0
  5 20  1  6  0  0  0
  5 12  1  0  0  0  0
  6  9  1  0  0  0  0
  7  3  2  0  0  0  0
  8  9  2  0  0  0  0
  8 15  1  0  0  0  0
 10 11  1  1  0  0  0
 10 19  1  0  0  0  0
 12  2  1  0  0  0  0
 13  6  2  0  0  0  0
 14  3  1  0  0  0  0
 14 15  1  0  0  0  0
 16 10  1  0  0  0  0
 17 13  1  0  0  0  0
 17  4  2  0  0  0  0
 18  5  1  0  0  0  0
 18 16  1  0  0  0  0
 19  7  1  0  0  0  0
 21 25  1  0  0  0  0
 22 21  1  0  0  0  0
 23 21  2  0  0  0  0
 25 24  1  0  0  0  0
 25 20  1  0  0  0  0
M  END
>  <MODEL>
5

>  <REMARK>
 VINA RESULT:      -8.9      3.442      5.552
  Name = 
  2 active torsions:
  status: ('A' for Active; 'I' for Inactive)
    1  A    between atoms: C_6  and  C_15
    2  A    between atoms: C_15  and  N_25
                            x       y       z     vdW  Elec       q    Type
                         _______ _______ _______ _____ _____    ______ ____

>  <TORSDO>
F 2

$$$$
=
 OpenBabel10262419553D

 25 28  0  0  1  0  0  0  0  0999 V2000
  187.7070  178.0130  142.0050 C   0  0  0  0  0  0  0  0  0  0  0  0
  186.9350  178.0250  143.1760 C   0  0  0  0  0  0  0  0  0  0  0  0
  185.8130  178.6750  140.7110 N   0  0  0  0  0  0  0  0  0  0  0  0
  189.0660  177.6930  141.8490 C   0  0  0  0  0  0  0  0  0  0  0  0
  186.8280  177.3690  145.6640 C   0  0  2  0  0  3  0  0  0  0  0  0
  191.7110  177.1270  141.1460 C   0  0  0  0  0  3  0  0  0  0  0  0
  185.0650  178.7080  141.8170 N   0  0  0  0  0  0  0  0  0  0  0  0
  189.4900  177.7820  140.5230 C   0  0  0  0  0  0  0  0  0  0  0  0
  190.8030  177.5050  140.1470 C   0  0  0  0  0  3  0  0  0  0  0  0
  184.6630  178.5010  144.2630 C   0  0  2  0  0  3  0  0  0  0  0  0
  183.2800  179.0370  143.9250 C   0  0  0  0  0  1  0  0  0  0  0  0
  187.5430  177.6770  144.4310 N   0  0  0  0  0  2  0  0  0  0  0  0
  191.2980  177.0330  142.4880 C   0  0  0  0  0  3  0  0  0  0  0  0
  187.1180  178.3390  140.7960 C   0  0  0  0  0  0  0  0  0  0  0  0
  188.2150  178.2490  139.5210 S   0  0  0  0  0  0  0  0  0  0  0  0
  185.2980  179.3970  145.3170 C   0  0  0  0  0  2  0  0  0  0  0  0
  189.9700  177.3160  142.8470 C   0  0  0  0  0  3  0  0  0  0  0  0
  186.1830  178.6120  146.2830 C   0  0  0  0  0  2  0  0  0  0  0  0
  185.5670  178.4050  143.0560 C   0  0  0  0  0  0  0  0  0  0  0  0
  187.7470  176.6620  146.6590 C   0  0  0  0  0  2  0  0  0  0  0  0
  188.7990  178.1170  148.4310 C   0  0  0  0  0  0  0  0  0  0  0  0
  189.8080  178.9290  148.8350 F   0  0  0  0  0  0  0  0  0  0  0  0
  187.8480  177.8780  149.2210 O   0  0  0  0  0  0  0  0  0  0  0  0
  190.0180  177.6600  146.3050 C   0  0  0  0  0  1  0  0  0  0  0  0
  188.8240  177.5320  147.1230 N   0  0  0  0  0  0  0  0  0  0  0  0
  1  2  2  0  0  0  0
  2 12  1  0  0  0  0
  3 14  2  0  0  0  0
  3  7  1  0  0  0  0
  4  1  1  0  0  0  0
  4 17  1  0  0  0  0
  5 18  1  0  0  0  0
  5 20  1  1  0  0  0
  6 13  1  0  0  0  0
  7 19  2  0  0  0  0
  8  4  2  0  0  0  0
  9  8  1  0  0  0  0
  9  6  2  0  0  0  0
 10 11  1  6  0  0  0
 10 16  1  0  0  0  0
 12  5  1  0  0  0  0
 13 17  2  0  0  0  0
 14  1  1  0  0  0  0
 15  8  1  0  0  0  0
 15 14  1  0  0  0  0
 16 18  1  0  0  0  0
 19  2  1  0  0  0  0
 19 10  1  0  0  0  0
 20 25  1  0  0  0  0
 21 22  1  0  0  0  0
 21 23  2  0  0  0  0
 24 25  1  0  0  0  0
 25 21  1  0  0  0  0
M  END
>  <MODEL>
6

>  <REMARK>
 VINA RESULT:      -8.2      2.466      5.194
  Name = 
  2 active torsions:
  status: ('A' for Active; 'I' for Inactive)
    1  A    between atoms: C_6  and  C_15
    2  A    between atoms: C_15  and  N_25
                            x       y       z     vdW  Elec       q    Type
                         _______ _______ _______ _____ _____    ______ ____

>  <TORSDO>
F 2

$$$$
=
 OpenBabel10262419553D

 25 28  0  0  1  0  0  0  0  0999 V2000
  186.5290  178.3540  142.1440 C   0  0  0  0  0  0  0  0  0  0  0  0
  187.9160  178.1500  142.1990 C   0  0  0  0  0  0  0  0  0  0  0  0
  186.5760  178.2540  139.7600 N   0  0  0  0  0  0  0  0  0  0  0  0
  185.6240  178.5390  143.2030 C   0  0  0  0  0  0  0  0  0  0  0  0
  190.0190  178.1930  143.6840 C   0  0  2  0  0  3  0  0  0  0  0  0
  183.5410  178.9400  145.0220 C   0  0  0  0  0  3  0  0  0  0  0  0
  187.8940  178.0440  139.7910 N   0  0  0  0  0  0  0  0  0  0  0  0
  184.3140  178.7240  142.7630 C   0  0  0  0  0  0  0  0  0  0  0  0
  183.2580  178.9260  143.6500 C   0  0  0  0  0  3  0  0  0  0  0  0
  190.0870  177.6980  140.9120 C   0  0  2  0  0  3  0  0  0  0  0  0
  190.5910  177.4280  139.5030 C   0  0  0  0  0  1  0  0  0  0  0  0
  188.5790  178.1090  143.4740 N   0  0  0  0  0  2  0  0  0  0  0  0
  184.8580  178.7550  145.4810 C   0  0  0  0  0  3  0  0  0  0  0  0
  185.8950  178.4030  140.9160 C   0  0  0  0  0  0  0  0  0  0  0  0
  184.2390  178.6680  141.0780 S   0  0  0  0  0  0  0  0  0  0  0  0
  190.4210  176.5050  141.7960 C   0  0  0  0  0  2  0  0  0  0  0  0
  185.9090  178.5530  144.5720 C   0  0  0  0  0  3  0  0  0  0  0  0
  190.7430  176.9220  143.2300 C   0  0  0  0  0  2  0  0  0  0  0  0
  188.6020  177.9760  140.9620 C   0  0  0  0  0  0  0  0  0  0  0  0
  190.3330  178.5230  145.1430 C   0  0  0  0  0  2  0  0  0  0  0  0
  189.4350  176.8230  146.7760 C   0  0  0  0  0  0  0  0  0  0  0  0
  189.6170  175.7090  147.5270 F   0  0  0  0  0  0  0  0  0  0  0  0
  188.3190  177.4080  146.8040 O   0  0  0  0  0  0  0  0  0  0  0  0
  191.7030  176.5260  145.7840 C   0  0  0  0  0  1  0  0  0  0  0  0
  190.4980  177.3210  145.9540 N   0  0  0  0  0  0  0  0  0  0  0  0
  1  2  1  0  0  0  0
  1  4  1  0  0  0  0
  2 12  1  0  0  0  0
  3  7  2  0  0  0  0
  3 14  1  0  0  0  0
  4 17  1  0  0  0  0
  5 20  1  1  0  0  0
  6 13  1  0  0  0  0
  7 19  1  0  0  0  0
  8  4  2  0  0  0  0
  8  9  1  0  0  0  0
  9  6  2  0  0  0  0
 10 11  1  6  0  0  0
 10 19  1  0  0  0  0
 10 16  1  0  0  0  0
 12  5  1  0  0  0  0
 14 15  1  0  0  0  0
 14  1  2  0  0  0  0
 15  8  1  0  0  0  0
 16 18  1  0  0  0  0
 17 13  2  0  0  0  0
 18  5  1  0  0  0  0
 19  2  2  0  0  0  0
 20 25  1  0  0  0  0
 21 23  2  0  0  0  0
 21 22  1  0  0  0  0
 24 25  1  0  0  0  0
 25 21  1  0  0  0  0
M  END
>  <MODEL>
7

>  <REMARK>
 VINA RESULT:      -8.1      1.838      2.535
  Name = 
  2 active torsions:
  status: ('A' for Active; 'I' for Inactive)
    1  A    between atoms: C_6  and  C_15
    2  A    between atoms: C_15  and  N_25
                            x       y       z     vdW  Elec       q    Type
                         _______ _______ _______ _____ _____    ______ ____

>  <TORSDO>
F 2

$$$$
=
 OpenBabel10262419553D

 25 28  0  0  1  0  0  0  0  0999 V2000
  188.0550  177.5160  141.8400 C   0  0  0  0  0  0  0  0  0  0  0  0
  188.3420  177.5380  140.4670 C   0  0  0  0  0  0  0  0  0  0  0  0
  190.0500  176.2780  142.2710 N   0  0  0  0  0  0  0  0  0  0  0  0
  186.9510  178.0620  142.5170 C   0  0  0  0  0  0  0  0  0  0  0  0
  187.4440  178.0540  138.1100 C   0  0  2  0  0  3  0  0  0  0  0  0
  184.9260  178.9990  144.1990 C   0  0  0  0  0  3  0  0  0  0  0  0
  190.3490  176.3010  140.9700 N   0  0  0  0  0  0  0  0  0  0  0  0
  186.9990  177.8330  143.8930 C   0  0  0  0  0  0  0  0  0  0  0  0
  186.0010  178.2900  144.7520 C   0  0  0  0  0  3  0  0  0  0  0  0
  189.9790  176.9260  138.5910 C   0  0  2  0  0  3  0  0  0  0  0  0
  191.3520  176.3070  138.3750 C   0  0  0  0  0  1  0  0  0  0  0  0
  187.4360  178.1900  139.5610 N   0  0  0  0  0  2  0  0  0  0  0  0
  184.8640  179.2370  142.8140 C   0  0  0  0  0  3  0  0  0  0  0  0
  188.9230  176.8800  142.7090 C   0  0  0  0  0  0  0  0  0  0  0  0
  188.3830  176.9610  144.3030 S   0  0  0  0  0  0  0  0  0  0  0  0
  189.9900  178.3540  138.0660 C   0  0  0  0  0  2  0  0  0  0  0  0
  185.8790  178.7690  141.9640 C   0  0  0  0  0  3  0  0  0  0  0  0
  188.6430  178.7590  137.4710 C   0  0  0  0  0  2  0  0  0  0  0  0
  189.5490  176.9130  140.0410 C   0  0  0  0  0  0  0  0  0  0  0  0
  186.1240  178.5460  137.5160 C   0  0  0  0  0  2  0  0  0  0  0  0
  184.1410  178.8820  139.0380 C   0  0  0  0  0  0  0  0  0  0  0  0
  183.0780  178.3720  139.7080 F   0  0  0  0  0  0  0  0  0  0  0  0
  184.3840  180.1150  139.1170 O   0  0  0  0  0  0  0  0  0  0  0  0
  184.5590  176.6520  138.0040 C   0  0  0  0  0  1  0  0  0  0  0  0
  184.9690  178.0250  138.2400 N   0  0  0  0  0  0  0  0  0  0  0  0
  1  4  1  0  0  0  0
  1 14  2  0  0  0  0
  2  1  1  0  0  0  0
  3 14  1  0  0  0  0
  4  8  1  0  0  0  0
  5 20  1  6  0  0  0
  5 12  1  0  0  0  0
  6  9  1  0  0  0  0
  7  3  2  0  0  0  0
  8 15  1  0  0  0  0
  8  9  2  0  0  0  0
 10 11  1  1  0  0  0
 10 19  1  0  0  0  0
 12  2  1  0  0  0  0
 13  6  2  0  0  0  0
 14 15  1  0  0  0  0
 16 10  1  0  0  0  0
 17  4  2  0  0  0  0
 17 13  1  0  0  0  0
 18 16  1  0  0  0  0
 18  5  1  0  0  0  0
 19  2  2  0  0  0  0
 19  7  1  0  0  0  0
 20 25  1  0  0  0  0
 21 23  2  0  0  0  0
 21 22  1  0  0  0  0
 24 25  1  0  0  0  0
 25 21  1  0  0  0  0
M  END
>  <MODEL>
8

>  <REMARK>
 VINA RESULT:      -8.0      3.409      5.309
  Name = 
  2 active torsions:
  status: ('A' for Active; 'I' for Inactive)
    1  A    between atoms: C_6  and  C_15
    2  A    between atoms: C_15  and  N_25
                            x       y       z     vdW  Elec       q    Type
                         _______ _______ _______ _____ _____    ______ ____

>  <TORSDO>
F 2

$$$$
=
 OpenBabel10262419553D

 25 28  0  0  1  0  0  0  0  0999 V2000
  186.3290  178.1920  145.0450 C   0  0  0  0  0  0  0  0  0  0  0  0
  185.4290  178.4320  143.9960 C   0  0  0  0  0  0  0  0  0  0  0  0
  184.6620  178.7750  146.6520 N   0  0  0  0  0  0  0  0  0  0  0  0
  187.6710  177.7800  144.9770 C   0  0  0  0  0  0  0  0  0  0  0  0
  185.1500  178.7280  141.4530 C   0  0  2  0  0  3  0  0  0  0  0  0
  190.3350  176.9800  145.2450 C   0  0  0  0  0  3  0  0  0  0  0  0
  183.7860  178.9940  145.6680 N   0  0  0  0  0  0  0  0  0  0  0  0
  188.2580  177.6540  146.2360 C   0  0  0  0  0  0  0  0  0  0  0  0
  189.5840  177.2570  146.3960 C   0  0  0  0  0  3  0  0  0  0  0  0
  183.0460  179.0660  143.2950 C   0  0  2  0  0  3  0  0  0  0  0  0
  181.6800  179.3700  143.8900 C   0  0  0  0  0  1  0  0  0  0  0  0
  185.8580  178.2530  142.6360 N   0  0  0  0  0  2  0  0  0  0  0  0
  189.7560  177.1040  143.9690 C   0  0  0  0  0  3  0  0  0  0  0  0
  185.9170  178.3740  146.3530 C   0  0  0  0  0  0  0  0  0  0  0  0
  187.1520  178.0440  147.4500 S   0  0  0  0  0  0  0  0  0  0  0  0
  182.9330  177.8450  142.3920 C   0  0  0  0  0  2  0  0  0  0  0  0
  188.4180  177.5050  143.8280 C   0  0  0  0  0  3  0  0  0  0  0  0
  183.8700  177.9300  141.1890 C   0  0  0  0  0  2  0  0  0  0  0  0
  184.1080  178.8330  144.3450 C   0  0  0  0  0  0  0  0  0  0  0  0
  186.0730  178.7240  140.2350 C   0  0  0  0  0  2  0  0  0  0  0  0
  185.6500  177.8810  137.8950 C   0  0  0  0  0  0  0  0  0  0  0  0
  184.9450  177.9380  136.7380 F   0  0  0  0  0  0  0  0  0  0  0  0
  186.5840  177.0430  138.0050 O   0  0  0  0  0  0  0  0  0  0  0  0
  184.1250  179.5740  138.9070 C   0  0  0  0  0  1  0  0  0  0  0  0
  185.3250  178.7580  138.9810 N   0  0  0  0  0  0  0  0  0  0  0  0
  1 14  2  0  0  0  0
  2 19  2  0  0  0  0
  2  1  1  0  0  0  0
  4  1  1  0  0  0  0
  4  8  1  0  0  0  0
  5 20  1  6  0  0  0
  5 12  1  0  0  0  0
  6  9  1  0  0  0  0
  7  3  2  0  0  0  0
  8  9  2  0  0  0  0
  8 15  1  0  0  0  0
 10 11  1  1  0  0  0
 10 19  1  0  0  0  0
 12  2  1  0  0  0  0
 13  6  2  0  0  0  0
 14  3  1  0  0  0  0
 14 15  1  0  0  0  0
 16 10  1  0  0  0  0
 17 13  1  0  0  0  0
 17  4  2  0  0  0  0
 18  5  1  0  0  0  0
 18 16  1  0  0  0  0
 19  7  1  0  0  0  0
 21 23  2  0  0  0  0
 21 25  1  0  0  0  0
 22 21  1  0  0  0  0
 24 25  1  0  0  0  0
 25 20  1  0  0  0  0
M  END
>  <MODEL>
9

>  <REMARK>
 VINA RESULT:      -7.9      3.907      6.343
  Name = 
  2 active torsions:
  status: ('A' for Active; 'I' for Inactive)
    1  A    between atoms: C_6  and  C_15
    2  A    between atoms: C_15  and  N_25
                            x       y       z     vdW  Elec       q    Type
                         _______ _______ _______ _____ _____    ______ ____

>  <TORSDO>
F 2

$$$$
