=
 OpenBabel10262423313D

 34 38  0  0  1  0  0  0  0  0999 V2000
  187.2230  177.9110  144.5790 C   0  0  0  0  0  0  0  0  0  0  0  0
  188.9090  177.8220  147.8530 C   0  0  0  0  0  3  0  0  0  0  0  0
  186.7050  177.9750  147.2860 N   0  0  0  0  0  2  0  0  0  0  0  0
  186.4570  178.1540  142.2650 C   0  0  0  0  0  0  0  0  0  0  0  0
  187.4660  177.8930  143.1930 C   0  0  0  0  0  3  0  0  0  0  0  0
  184.8860  178.4570  144.0900 C   0  0  0  0  0  0  0  0  0  0  0  0
  183.5500  178.7550  144.4870 N   0  0  0  0  0  1  0  0  0  0  0  0
  185.1740  178.4390  142.7240 C   0  0  0  0  0  3  0  0  0  0  0  0
  185.6740  178.1640  146.4280 C   0  0  0  0  0  0  0  0  0  0  0  0
  185.9090  178.1890  145.0390 C   0  0  0  0  0  0  0  0  0  0  0  0
  184.5200  178.3390  146.9030 O   0  0  0  0  0  0  0  0  0  0  0  0
  190.3820  177.9300  147.6540 C   0  0  0  0  0  2  0  0  0  0  0  0
  190.9520  176.7620  146.9350 C   0  0  0  0  0  0  0  0  0  0  0  0
  190.5410  176.4570  145.7080 C   0  0  0  0  0  3  0  0  0  0  0  0
  187.9850  177.7640  146.8870 C   0  0  0  0  0  0  0  0  0  0  0  0
  189.3910  177.0530  145.0030 C   0  0  0  0  0  3  0  0  0  0  0  0
  188.2630  177.6140  145.4980 C   0  0  0  0  0  0  0  0  0  0  0  0
  192.0940  176.0450  147.5270 C   0  0  0  0  0  0  0  0  0  0  0  0
  192.7240  176.5520  148.6580 O   0  0  0  0  0  1  0  0  0  0  0  0
  192.5100  174.9680  147.0220 O   0  0  0  0  0  0  0  0  0  0  0  0
  186.6950  178.1450  140.8820 O   0  0  0  0  0  0  0  0  0  0  0  0
  188.6000  176.8630  138.4070 C   0  0  0  0  0  2  0  0  0  0  0  0
  189.1480  177.9370  140.9810 C   0  0  0  0  0  2  0  0  0  0  0  0
  192.4350  176.5960  138.7260 C   0  0  0  0  0  0  0  0  0  0  0  0
  191.0630  176.5110  138.1000 C   0  0  0  0  0  2  0  0  0  0  0  0
  189.9440  176.6720  139.1300 C   0  0  1  0  0  3  0  0  0  0  0  0
  191.4100  177.3450  140.8570 C   0  0  0  0  0  2  0  0  0  0  0  0
  190.2650  177.7730  140.0560 N   0  0  2  0  0  0  0  0  0  0  0  0
  192.5910  177.0440  139.9790 C   0  0  0  0  0  3  0  0  0  0  0  0
  187.9270  178.4990  140.2460 C   0  0  1  0  0  3  0  0  0  0  0  0
  187.9170  178.1920  138.7420 C   0  0  0  0  0  2  0  0  0  0  0  0
  193.6150  176.2850  137.9010 C   0  0  0  0  0  0  0  0  0  0  0  0
  193.7520  176.7970  136.7570 O   0  0  0  0  0  0  0  0  0  0  0  0
  194.5930  175.4240  138.3820 O   0  0  0  0  0  1  0  0  0  0  0  0
  1 10  1  0  0  0  0
  1 17  1  0  0  0  0
  4  8  2  0  0  0  0
  4  5  1  0  0  0  0
  5  1  2  0  0  0  0
  6  7  1  0  0  0  0
  6 10  2  0  0  0  0
  8  6  1  0  0  0  0
  9 11  2  0  0  0  0
  9  3  1  0  0  0  0
 10  9  1  0  0  0  0
 12  2  1  0  0  0  0
 13 18  1  0  0  0  0
 13 12  1  0  0  0  0
 14 13  2  0  0  0  0
 15  3  1  0  0  0  0
 15  2  2  0  0  0  0
 16 17  2  0  0  0  0
 16 14  1  0  0  0  0
 17 15  1  0  0  0  0
 18 19  1  0  0  0  0
 20 18  2  0  0  0  0
 21  4  1  0  0  0  0
 22 31  1  0  0  0  0
 22 26  1  0  0  0  0
 24 29  2  0  0  0  0
 25 24  1  0  0  0  0
 26 25  1  6  0  0  0
 26 28  1  0  0  0  0
 28 27  1  1  0  0  0
 28 23  1  0  0  0  0
 29 27  1  0  0  0  0
 30 21  1  1  0  0  0
 30 23  1  0  0  0  0
 31 30  1  0  0  0  0
 32 34  1  0  0  0  0
 32 24  1  0  0  0  0
 33 32  2  0  0  0  0
M  END
>  <MODEL>
1

>  <REMARK>
 VINA RESULT:     -11.1      0.000      0.000
  Name = 
  4 active torsions:
  status: ('A' for Active; 'I' for Inactive)
    1  A    between atoms: C_3  and  C_25
    2  A    between atoms: C_7  and  C_11
    3  A    between atoms: C_8  and  O_18
    4  A    between atoms: O_18  and  C_30
                            x       y       z     vdW  Elec       q    Type
                         _______ _______ _______ _____ _____    ______ ____

>  <TORSDO>
F 4

$$$$
=
 OpenBabel10262423313D

 34 38  0  0  1  0  0  0  0  0999 V2000
  188.4780  177.5590  144.5670 C   0  0  0  0  0  0  0  0  0  0  0  0
  191.7740  177.1500  142.9720 C   0  0  0  0  0  3  0  0  0  0  0  0
  191.0820  176.8390  145.1230 N   0  0  0  0  0  2  0  0  0  0  0  0
  186.2240  178.1290  145.3360 C   0  0  0  0  0  0  0  0  0  0  0  0
  187.1480  177.9340  144.3090 C   0  0  0  0  0  3  0  0  0  0  0  0
  187.9390  177.5610  146.9560 C   0  0  0  0  0  0  0  0  0  0  0  0
  188.2860  177.3890  148.3290 N   0  0  0  0  0  1  0  0  0  0  0  0
  186.6320  177.9440  146.6540 C   0  0  0  0  0  3  0  0  0  0  0  0
  190.2080  176.9450  146.1530 C   0  0  0  0  0  0  0  0  0  0  0  0
  188.8830  177.3600  145.9140 C   0  0  0  0  0  0  0  0  0  0  0  0
  190.6170  176.6880  147.3170 O   0  0  0  0  0  0  0  0  0  0  0  0
  191.7220  177.6910  141.5840 C   0  0  0  0  0  2  0  0  0  0  0  0
  190.8080  176.9210  140.7020 C   0  0  0  0  0  0  0  0  0  0  0  0
  189.5150  176.8180  140.9930 C   0  0  0  0  0  3  0  0  0  0  0  0
  190.7490  177.0780  143.8290 C   0  0  0  0  0  0  0  0  0  0  0  0
  188.8710  177.2350  142.2530 C   0  0  0  0  0  3  0  0  0  0  0  0
  189.3880  177.3420  143.4990 C   0  0  0  0  0  0  0  0  0  0  0  0
  191.3140  176.4170  139.4140 C   0  0  0  0  0  0  0  0  0  0  0  0
  192.5550  176.8300  138.9440 O   0  0  0  0  0  1  0  0  0  0  0  0
  190.6350  175.6060  138.7280 O   0  0  0  0  0  0  0  0  0  0  0  0
  184.8970  178.5110  145.0850 O   0  0  0  0  0  0  0  0  0  0  0  0
  182.2720  178.5670  142.9630 C   0  0  0  0  0  2  0  0  0  0  0  0
  185.0730  178.9490  142.6660 C   0  0  0  0  0  2  0  0  0  0  0  0
  182.7210  179.2570  139.1940 C   0  0  0  0  0  0  0  0  0  0  0  0
  182.0190  178.9940  140.5050 C   0  0  0  0  0  2  0  0  0  0  0  0
  182.9860  178.5410  141.6010 C   0  0  1  0  0  3  0  0  0  0  0  0
  184.9140  179.0490  140.3330 C   0  0  0  0  0  2  0  0  0  0  0  0
  184.2050  179.3680  141.5700 N   0  0  2  0  0  0  0  0  0  0  0  0
  184.0570  179.3450  139.1360 C   0  0  0  0  0  3  0  0  0  0  0  0
  184.4610  179.3520  144.0120 C   0  0  1  0  0  3  0  0  0  0  0  0
  182.9350  179.5060  143.9740 C   0  0  0  0  0  2  0  0  0  0  0  0
  181.9110  179.5280  137.9950 C   0  0  0  0  0  0  0  0  0  0  0  0
  181.6820  178.6170  137.1540 O   0  0  0  0  0  0  0  0  0  0  0  0
  181.3850  180.7960  137.7820 O   0  0  0  0  0  1  0  0  0  0  0  0
  1 10  1  0  0  0  0
  2 15  2  0  0  0  0
  3  9  1  0  0  0  0
  4  8  2  0  0  0  0
  5  1  2  0  0  0  0
  5  4  1  0  0  0  0
  6  7  1  0  0  0  0
  8  6  1  0  0  0  0
  9 11  2  0  0  0  0
 10  9  1  0  0  0  0
 10  6  2  0  0  0  0
 12  2  1  0  0  0  0
 13 14  2  0  0  0  0
 13 12  1  0  0  0  0
 14 16  1  0  0  0  0
 15  3  1  0  0  0  0
 16 17  2  0  0  0  0
 17 15  1  0  0  0  0
 17  1  1  0  0  0  0
 18 13  1  0  0  0  0
 19 18  1  0  0  0  0
 20 18  2  0  0  0  0
 21  4  1  0  0  0  0
 22 31  1  0  0  0  0
 23 30  1  0  0  0  0
 24 25  1  0  0  0  0
 26 25  1  6  0  0  0
 26 22  1  0  0  0  0
 28 27  1  6  0  0  0
 28 26  1  0  0  0  0
 28 23  1  0  0  0  0
 29 24  2  0  0  0  0
 29 27  1  0  0  0  0
 30 21  1  1  0  0  0
 31 30  1  0  0  0  0
 32 24  1  0  0  0  0
 33 32  2  0  0  0  0
 34 32  1  0  0  0  0
M  END
>  <MODEL>
2

>  <REMARK>
 VINA RESULT:     -10.4      2.889      7.048
  Name = 
  4 active torsions:
  status: ('A' for Active; 'I' for Inactive)
    1  A    between atoms: C_3  and  C_25
    2  A    between atoms: C_7  and  C_11
    3  A    between atoms: C_8  and  O_18
    4  A    between atoms: O_18  and  C_30
                            x       y       z     vdW  Elec       q    Type
                         _______ _______ _______ _____ _____    ______ ____

>  <TORSDO>
F 4

$$$$
=
 OpenBabel10262423313D

 34 38  0  0  1  0  0  0  0  0999 V2000
  183.0120  178.6530  141.6290 C   0  0  0  0  0  0  0  0  0  0  0  0
  183.2660  178.0440  138.0040 C   0  0  0  0  0  3  0  0  0  0  0  0
  181.5500  178.8110  139.2960 N   0  0  0  0  0  2  0  0  0  0  0  0
  183.1240  178.7450  144.0740 C   0  0  0  0  0  0  0  0  0  0  0  0
  183.7360  178.5690  142.8320 C   0  0  0  0  0  3  0  0  0  0  0  0
  181.0040  179.1160  142.9530 C   0  0  0  0  0  0  0  0  0  0  0  0
  179.6120  179.3940  143.0780 N   0  0  0  0  0  1  0  0  0  0  0  0
  181.7590  179.0130  144.1220 C   0  0  0  0  0  3  0  0  0  0  0  0
  180.9200  179.0610  140.4700 C   0  0  0  0  0  0  0  0  0  0  0  0
  181.6220  178.9400  141.6850 C   0  0  0  0  0  0  0  0  0  0  0  0
  179.7010  179.3770  140.4440 O   0  0  0  0  0  0  0  0  0  0  0  0
  184.5460  177.3400  137.7090 C   0  0  0  0  0  2  0  0  0  0  0  0
  185.7400  178.1700  138.0090 C   0  0  0  0  0  0  0  0  0  0  0  0
  185.9620  178.6150  139.2420 C   0  0  0  0  0  3  0  0  0  0  0  0
  182.8610  178.4770  139.2040 C   0  0  0  0  0  0  0  0  0  0  0  0
  185.0200  178.5440  140.3750 C   0  0  0  0  0  3  0  0  0  0  0  0
  183.6680  178.4970  140.3790 C   0  0  0  0  0  0  0  0  0  0  0  0
  186.7640  178.3540  136.9660 C   0  0  0  0  0  0  0  0  0  0  0  0
  187.7910  179.2720  137.1530 O   0  0  0  0  0  1  0  0  0  0  0  0
  186.7240  177.6830  135.9000 O   0  0  0  0  0  0  0  0  0  0  0  0
  183.8400  178.6530  145.2770 O   0  0  0  0  0  0  0  0  0  0  0  0
  186.8270  177.3140  144.4540 C   0  0  0  0  0  2  0  0  0  0  0  0
  185.7720  178.5230  146.8010 C   0  0  0  0  0  2  0  0  0  0  0  0
  189.7530  177.1760  146.9650 C   0  0  0  0  0  0  0  0  0  0  0  0
  189.0050  177.0210  145.6620 C   0  0  0  0  0  2  0  0  0  0  0  0
  187.4950  177.1970  145.8350 C   0  0  1  0  0  3  0  0  0  0  0  0
  187.6790  177.9940  148.0520 C   0  0  0  0  0  2  0  0  0  0  0  0
  187.2190  178.3490  146.7110 N   0  0  2  0  0  0  0  0  0  0  0  0
  189.1490  177.6870  148.0470 C   0  0  0  0  0  3  0  0  0  0  0  0
  185.2120  179.0140  145.4610 C   0  0  1  0  0  3  0  0  0  0  0  0
  186.0820  178.6360  144.2540 C   0  0  0  0  0  2  0  0  0  0  0  0
  191.1910  176.8620  147.0020 C   0  0  0  0  0  0  0  0  0  0  0  0
  191.8810  177.1290  148.0230 O   0  0  0  0  0  1  0  0  0  0  0  0
  191.8010  176.2600  145.9080 O   0  0  0  0  0  0  0  0  0  0  0  0
  1 10  2  0  0  0  0
  1  5  1  0  0  0  0
  2 15  2  0  0  0  0
  3  9  1  0  0  0  0
  4  8  1  0  0  0  0
  4 21  1  0  0  0  0
  5  4  2  0  0  0  0
  6  7  1  0  0  0  0
  6  8  2  0  0  0  0
  9 10  1  0  0  0  0
 10  6  1  0  0  0  0
 11  9  2  0  0  0  0
 12  2  1  0  0  0  0
 12 13  1  0  0  0  0
 13 14  2  0  0  0  0
 14 16  1  0  0  0  0
 15  3  1  0  0  0  0
 15 17  1  0  0  0  0
 16 17  2  0  0  0  0
 17  1  1  0  0  0  0
 18 19  1  0  0  0  0
 18 13  1  0  0  0  0
 20 18  2  0  0  0  0
 24 32  1  0  0  0  0
 24 29  2  0  0  0  0
 25 26  1  0  0  0  0
 25 24  1  0  0  0  0
 26 22  1  6  0  0  0
 26 28  1  0  0  0  0
 28 23  1  1  0  0  0
 28 27  1  0  0  0  0
 29 27  1  0  0  0  0
 30 21  1  6  0  0  0
 30 23  1  0  0  0  0
 31 22  1  0  0  0  0
 31 30  1  0  0  0  0
 32 33  1  0  0  0  0
 34 32  2  0  0  0  0
M  END
>  <MODEL>
3

>  <REMARK>
 VINA RESULT:     -10.4      3.667      8.211
  Name = 
  4 active torsions:
  status: ('A' for Active; 'I' for Inactive)
    1  A    between atoms: C_3  and  C_25
    2  A    between atoms: C_7  and  C_11
    3  A    between atoms: C_8  and  O_18
    4  A    between atoms: O_18  and  C_30
                            x       y       z     vdW  Elec       q    Type
                         _______ _______ _______ _____ _____    ______ ____

>  <TORSDO>
F 4

$$$$
=
 OpenBabel10262423313D

 34 38  0  0  1  0  0  0  0  0999 V2000
  184.6180  178.4660  142.8920 C   0  0  0  0  0  0  0  0  0  0  0  0
  185.1060  178.8680  146.5220 C   0  0  0  0  0  3  0  0  0  0  0  0
  183.2170  178.7800  145.2460 N   0  0  0  0  0  2  0  0  0  0  0  0
  184.6660  178.3950  140.4440 C   0  0  0  0  0  0  0  0  0  0  0  0
  185.3130  178.3190  141.6780 C   0  0  0  0  0  3  0  0  0  0  0  0
  182.5620  178.7650  141.5960 C   0  0  0  0  0  0  0  0  0  0  0  0
  181.1590  178.9960  141.4890 N   0  0  0  0  0  1  0  0  0  0  0  0
  183.2930  178.6240  140.4150 C   0  0  0  0  0  3  0  0  0  0  0  0
  182.5280  178.7920  144.0790 C   0  0  0  0  0  0  0  0  0  0  0  0
  183.2150  178.6860  142.8550 C   0  0  0  0  0  0  0  0  0  0  0  0
  181.2760  178.9230  144.1220 O   0  0  0  0  0  0  0  0  0  0  0  0
  186.5550  179.0730  146.8060 C   0  0  0  0  0  2  0  0  0  0  0  0
  187.3790  177.8840  146.4720 C   0  0  0  0  0  0  0  0  0  0  0  0
  187.4180  177.4170  145.2270 C   0  0  0  0  0  3  0  0  0  0  0  0
  184.5640  178.6320  145.3210 C   0  0  0  0  0  0  0  0  0  0  0  0
  186.5500  177.8380  144.1130 C   0  0  0  0  0  3  0  0  0  0  0  0
  185.3000  178.3560  144.1330 C   0  0  0  0  0  0  0  0  0  0  0  0
  188.2840  177.3300  147.4940 C   0  0  0  0  0  0  0  0  0  0  0  0
  187.9980  177.5040  148.8430 O   0  0  0  0  0  1  0  0  0  0  0  0
  189.3190  176.6930  147.1600 O   0  0  0  0  0  0  0  0  0  0  0  0
  185.3550  178.2560  139.2300 O   0  0  0  0  0  0  0  0  0  0  0  0
  187.9000  177.0830  137.3460 C   0  0  0  0  0  2  0  0  0  0  0  0
  187.6760  178.0120  140.0240 C   0  0  0  0  0  2  0  0  0  0  0  0
  191.4790  176.7510  138.7460 C   0  0  0  0  0  0  0  0  0  0  0  0
  190.3470  176.7170  137.7460 C   0  0  0  0  0  2  0  0  0  0  0  0
  188.9770  176.8370  138.4160 C   0  0  1  0  0  3  0  0  0  0  0  0
  189.8780  177.3990  140.5260 C   0  0  0  0  0  2  0  0  0  0  0  0
  189.0130  177.8830  139.4530 N   0  0  2  0  0  0  0  0  0  0  0  0
  191.2640  177.1300  140.0130 C   0  0  0  0  0  3  0  0  0  0  0  0
  186.7180  178.6280  138.9980 C   0  0  1  0  0  3  0  0  0  0  0  0
  187.1450  178.4010  137.5410 C   0  0  0  0  0  2  0  0  0  0  0  0
  192.8480  176.4690  138.2820 C   0  0  0  0  0  0  0  0  0  0  0  0
  193.0520  175.9990  137.1310 O   0  0  0  0  0  0  0  0  0  0  0  0
  193.9310  176.7250  139.1140 O   0  0  0  0  0  1  0  0  0  0  0  0
  1 17  1  0  0  0  0
  2 12  1  0  0  0  0
  3 15  1  0  0  0  0
  4  5  1  0  0  0  0
  5  1  2  0  0  0  0
  6 10  2  0  0  0  0
  7  6  1  0  0  0  0
  8  4  2  0  0  0  0
  8  6  1  0  0  0  0
  9 11  2  0  0  0  0
  9  3  1  0  0  0  0
 10  1  1  0  0  0  0
 10  9  1  0  0  0  0
 13 12  1  0  0  0  0
 13 18  1  0  0  0  0
 14 13  2  0  0  0  0
 15  2  2  0  0  0  0
 16 17  2  0  0  0  0
 16 14  1  0  0  0  0
 17 15  1  0  0  0  0
 18 19  1  0  0  0  0
 20 18  2  0  0  0  0
 21  4  1  0  0  0  0
 22 31  1  0  0  0  0
 24 29  2  0  0  0  0
 25 26  1  0  0  0  0
 25 24  1  0  0  0  0
 26 22  1  6  0  0  0
 26 28  1  0  0  0  0
 28 23  1  1  0  0  0
 28 27  1  0  0  0  0
 29 27  1  0  0  0  0
 30 21  1  6  0  0  0
 30 23  1  0  0  0  0
 31 30  1  0  0  0  0
 32 24  1  0  0  0  0
 32 34  1  0  0  0  0
 33 32  2  0  0  0  0
M  END
>  <MODEL>
4

>  <REMARK>
 VINA RESULT:     -10.3      1.965      2.962
  Name = 
  4 active torsions:
  status: ('A' for Active; 'I' for Inactive)
    1  A    between atoms: C_3  and  C_25
    2  A    between atoms: C_7  and  C_11
    3  A    between atoms: C_8  and  O_18
    4  A    between atoms: O_18  and  C_30
                            x       y       z     vdW  Elec       q    Type
                         _______ _______ _______ _____ _____    ______ ____

>  <TORSDO>
F 4

$$$$
=
 OpenBabel10262423313D

 34 38  0  0  1  0  0  0  0  0999 V2000
  188.0720  177.7980  144.5600 C   0  0  0  0  0  0  0  0  0  0  0  0
  189.1700  177.7560  148.0770 C   0  0  0  0  0  3  0  0  0  0  0  0
  187.0930  177.8240  147.1380 N   0  0  0  0  0  2  0  0  0  0  0  0
  187.7060  178.0250  142.1490 C   0  0  0  0  0  0  0  0  0  0  0  0
  188.5500  177.7990  143.2380 C   0  0  0  0  0  3  0  0  0  0  0  0
  185.8340  178.2530  143.6750 C   0  0  0  0  0  0  0  0  0  0  0  0
  184.4380  178.4950  143.8360 N   0  0  0  0  0  1  0  0  0  0  0  0
  186.3530  178.2550  142.3800 C   0  0  0  0  0  3  0  0  0  0  0  0
  186.2180  177.9780  146.1140 C   0  0  0  0  0  0  0  0  0  0  0  0
  186.6870  178.0210  144.7870 C   0  0  0  0  0  0  0  0  0  0  0  0
  184.9930  178.1030  146.3830 O   0  0  0  0  0  0  0  0  0  0  0  0
  190.6500  177.9240  148.1340 C   0  0  0  0  0  2  0  0  0  0  0  0
  191.3820  176.7840  147.5250 C   0  0  0  0  0  0  0  0  0  0  0  0
  191.2010  176.4720  146.2460 C   0  0  0  0  0  3  0  0  0  0  0  0
  188.4290  177.6670  146.9660 C   0  0  0  0  0  0  0  0  0  0  0  0
  190.1670  177.0250  145.3530 C   0  0  0  0  0  3  0  0  0  0  0  0
  188.9490  177.5380  145.6450 C   0  0  0  0  0  0  0  0  0  0  0  0
  192.4330  176.1100  148.3060 C   0  0  0  0  0  0  0  0  0  0  0  0
  193.1940  176.8330  149.2180 O   0  0  0  0  0  1  0  0  0  0  0  0
  192.6520  174.8770  148.1620 O   0  0  0  0  0  0  0  0  0  0  0  0
  188.1790  178.0340  140.8280 O   0  0  0  0  0  0  0  0  0  0  0  0
  191.4180  177.3040  140.2170 C   0  0  0  0  0  2  0  0  0  0  0  0
  189.0310  177.1830  138.6780 C   0  0  0  0  0  2  0  0  0  0  0  0
  192.5910  175.9890  136.7840 C   0  0  0  0  0  0  0  0  0  0  0  0
  192.6650  176.4100  138.2340 C   0  0  0  0  0  2  0  0  0  0  0  0
  191.4100  177.1580  138.6850 C   0  0  1  0  0  3  0  0  0  0  0  0
  190.1990  176.6420  136.7230 C   0  0  0  0  0  2  0  0  0  0  0  0
  190.2060  176.4790  138.1750 N   0  0  2  0  0  0  0  0  0  0  0  0
  191.4320  176.0400  136.1130 C   0  0  0  0  0  3  0  0  0  0  0  0
  188.8890  176.9690  140.1890 C   0  0  1  0  0  3  0  0  0  0  0  0
  190.2140  176.6440  140.8930 C   0  0  0  0  0  2  0  0  0  0  0  0
  193.7890  175.4170  136.1470 C   0  0  0  0  0  0  0  0  0  0  0  0
  193.6860  174.4780  135.3120 O   0  0  0  0  0  0  0  0  0  0  0  0
  195.0480  175.9120  136.4610 O   0  0  0  0  0  1  0  0  0  0  0  0
  1 10  1  0  0  0  0
  1 17  1  0  0  0  0
  2 12  1  0  0  0  0
  4  8  2  0  0  0  0
  4  5  1  0  0  0  0
  5  1  2  0  0  0  0
  6  7  1  0  0  0  0
  6 10  2  0  0  0  0
  8  6  1  0  0  0  0
  9 11  2  0  0  0  0
  9  3  1  0  0  0  0
 10  9  1  0  0  0  0
 13 12  1  0  0  0  0
 13 18  1  0  0  0  0
 14 13  2  0  0  0  0
 15  3  1  0  0  0  0
 15  2  2  0  0  0  0
 16 17  2  0  0  0  0
 16 14  1  0  0  0  0
 17 15  1  0  0  0  0
 18 19  1  0  0  0  0
 20 18  2  0  0  0  0
 21  4  1  0  0  0  0
 22 31  1  0  0  0  0
 23 30  1  0  0  0  0
 24 25  1  0  0  0  0
 26 25  1  1  0  0  0
 26 22  1  0  0  0  0
 28 27  1  6  0  0  0
 28 23  1  0  0  0  0
 28 26  1  0  0  0  0
 29 27  1  0  0  0  0
 29 24  2  0  0  0  0
 30 21  1  1  0  0  0
 30 31  1  0  0  0  0
 32 34  1  0  0  0  0
 32 24  1  0  0  0  0
 33 32  2  0  0  0  0
M  END
>  <MODEL>
5

>  <REMARK>
 VINA RESULT:     -10.3      1.198      1.852
  Name = 
  4 active torsions:
  status: ('A' for Active; 'I' for Inactive)
    1  A    between atoms: C_3  and  C_25
    2  A    between atoms: C_7  and  C_11
    3  A    between atoms: C_8  and  O_18
    4  A    between atoms: O_18  and  C_30
                            x       y       z     vdW  Elec       q    Type
                         _______ _______ _______ _____ _____    ______ ____

>  <TORSDO>
F 4

$$$$
=
 OpenBabel10262423313D

 34 38  0  0  1  0  0  0  0  0999 V2000
  183.8070  178.4460  141.1260 C   0  0  0  0  0  0  0  0  0  0  0  0
  183.3450  177.5230  137.5900 C   0  0  0  0  0  3  0  0  0  0  0  0
  181.9010  178.3780  139.1350 N   0  0  0  0  0  2  0  0  0  0  0  0
  184.4060  178.7540  143.4810 C   0  0  0  0  0  0  0  0  0  0  0  0
  184.7610  178.4770  142.1600 C   0  0  0  0  0  3  0  0  0  0  0  0
  182.0940  178.9970  142.7870 C   0  0  0  0  0  0  0  0  0  0  0  0
  180.7470  179.2660  143.1700 N   0  0  0  0  0  1  0  0  0  0  0  0
  183.0710  179.0070  143.7830 C   0  0  0  0  0  3  0  0  0  0  0  0
  181.5140  178.7220  140.3870 C   0  0  0  0  0  0  0  0  0  0  0  0
  182.4490  178.7180  141.4400 C   0  0  0  0  0  0  0  0  0  0  0  0
  180.3050  179.0180  140.5830 O   0  0  0  0  0  0  0  0  0  0  0  0
  184.5600  176.8130  137.1010 C   0  0  0  0  0  2  0  0  0  0  0  0
  185.7650  177.6820  137.0810 C   0  0  0  0  0  0  0  0  0  0  0  0
  186.2160  178.2370  138.2030 C   0  0  0  0  0  3  0  0  0  0  0  0
  183.1770  178.0540  138.8070 C   0  0  0  0  0  0  0  0  0  0  0  0
  185.5240  178.2530  139.5040 C   0  0  0  0  0  3  0  0  0  0  0  0
  184.2020  178.1880  139.7870 C   0  0  0  0  0  0  0  0  0  0  0  0
  186.5510  177.7870  135.8400 C   0  0  0  0  0  0  0  0  0  0  0  0
  185.9050  177.8690  134.6120 O   0  0  0  0  0  0  0  0  0  0  0  0
  187.8110  177.8080  135.8760 O   0  0  0  0  0  1  0  0  0  0  0  0
  185.3520  178.7780  144.5180 O   0  0  0  0  0  0  0  0  0  0  0  0
  187.4450  178.1040  147.0790 C   0  0  0  0  0  2  0  0  0  0  0  0
  187.6210  177.8550  144.2530 C   0  0  0  0  0  2  0  0  0  0  0  0
  190.9770  176.6700  146.4920 C   0  0  0  0  0  0  0  0  0  0  0  0
  189.7600  177.1550  147.2420 C   0  0  0  0  0  2  0  0  0  0  0  0
  188.7730  177.8910  146.3340 C   0  0  1  0  0  3  0  0  0  0  0  0
  189.8820  177.2570  144.3460 C   0  0  0  0  0  2  0  0  0  0  0  0
  188.6140  177.1590  145.0650 N   0  0  2  0  0  0  0  0  0  0  0  0
  191.0000  176.6600  145.1520 C   0  0  0  0  0  3  0  0  0  0  0  0
  186.2270  177.7040  144.8730 C   0  0  1  0  0  3  0  0  0  0  0  0
  186.2500  177.4440  146.3860 C   0  0  0  0  0  2  0  0  0  0  0  0
  192.1020  176.1000  147.2530 C   0  0  0  0  0  0  0  0  0  0  0  0
  192.6980  175.0670  146.8430 O   0  0  0  0  0  0  0  0  0  0  0  0
  192.5210  176.7020  148.4330 O   0  0  0  0  0  1  0  0  0  0  0  0
  1 10  2  0  0  0  0
  1  5  1  0  0  0  0
  2 15  2  0  0  0  0
  3  9  1  0  0  0  0
  4  8  1  0  0  0  0
  4 21  1  0  0  0  0
  5  4  2  0  0  0  0
  6  7  1  0  0  0  0
  6  8  2  0  0  0  0
  9 11  2  0  0  0  0
  9 10  1  0  0  0  0
 10  6  1  0  0  0  0
 12  2  1  0  0  0  0
 13 12  1  0  0  0  0
 13 14  2  0  0  0  0
 14 16  1  0  0  0  0
 15  3  1  0  0  0  0
 15 17  1  0  0  0  0
 16 17  2  0  0  0  0
 17  1  1  0  0  0  0
 18 20  1  0  0  0  0
 18 13  1  0  0  0  0
 19 18  2  0  0  0  0
 23 30  1  0  0  0  0
 24 25  1  0  0  0  0
 24 32  1  0  0  0  0
 26 22  1  1  0  0  0
 26 25  1  0  0  0  0
 27 28  1  0  0  0  0
 27 29  1  0  0  0  0
 28 23  1  6  0  0  0
 28 26  1  0  0  0  0
 29 24  2  0  0  0  0
 30 21  1  1  0  0  0
 30 31  1  0  0  0  0
 31 22  1  0  0  0  0
 32 34  1  0  0  0  0
 33 32  2  0  0  0  0
M  END
>  <MODEL>
6

>  <REMARK>
 VINA RESULT:     -10.2      3.370      8.230
  Name = 
  4 active torsions:
  status: ('A' for Active; 'I' for Inactive)
    1  A    between atoms: C_3  and  C_25
    2  A    between atoms: C_7  and  C_11
    3  A    between atoms: C_8  and  O_18
    4  A    between atoms: O_18  and  C_30
                            x       y       z     vdW  Elec       q    Type
                         _______ _______ _______ _____ _____    ______ ____

>  <TORSDO>
F 4

$$$$
=
 OpenBabel10262423313D

 34 38  0  0  1  0  0  0  0  0999 V2000
  187.4980  178.0420  143.2060 C   0  0  0  0  0  0  0  0  0  0  0  0
  188.7030  177.7120  146.6710 C   0  0  0  0  0  3  0  0  0  0  0  0
  186.5990  177.8840  145.8080 N   0  0  0  0  0  2  0  0  0  0  0  0
  187.0630  178.4600  140.8320 C   0  0  0  0  0  0  0  0  0  0  0  0
  187.9360  178.1380  141.8720 C   0  0  0  0  0  3  0  0  0  0  0  0
  185.2420  178.5980  142.4300 C   0  0  0  0  0  0  0  0  0  0  0  0
  183.8560  178.8480  142.6540 N   0  0  0  0  0  1  0  0  0  0  0  0
  185.7220  178.6930  141.1230 C   0  0  0  0  0  3  0  0  0  0  0  0
  185.6960  178.1290  144.8270 C   0  0  0  0  0  0  0  0  0  0  0  0
  186.1260  178.2680  143.4930 C   0  0  0  0  0  0  0  0  0  0  0  0
  184.4830  178.2520  145.1440 O   0  0  0  0  0  0  0  0  0  0  0  0
  190.1870  177.8530  146.6950 C   0  0  0  0  0  2  0  0  0  0  0  0
  190.8800  176.7530  145.9770 C   0  0  0  0  0  0  0  0  0  0  0  0
  190.6540  176.5430  144.6830 C   0  0  0  0  0  3  0  0  0  0  0  0
  187.9270  177.7200  145.5810 C   0  0  0  0  0  0  0  0  0  0  0  0
  189.6030  177.1790  143.8690 C   0  0  0  0  0  3  0  0  0  0  0  0
  188.4040  177.6860  144.2390 C   0  0  0  0  0  0  0  0  0  0  0  0
  191.9430  176.0040  146.6690 C   0  0  0  0  0  0  0  0  0  0  0  0
  192.4160  176.4460  147.9000 O   0  0  0  0  0  1  0  0  0  0  0  0
  192.4310  174.9590  146.1610 O   0  0  0  0  0  0  0  0  0  0  0  0
  187.4950  178.5650  139.5010 O   0  0  0  0  0  0  0  0  0  0  0  0
  189.1660  177.8820  136.6480 C   0  0  0  0  0  2  0  0  0  0  0  0
  189.6350  177.3460  139.4000 C   0  0  0  0  0  2  0  0  0  0  0  0
  192.5050  175.9490  136.6620 C   0  0  0  0  0  0  0  0  0  0  0  0
  191.3290  176.7290  136.1220 C   0  0  0  0  0  2  0  0  0  0  0  0
  190.1960  176.8520  137.1420 C   0  0  1  0  0  3  0  0  0  0  0  0
  191.4930  176.0030  138.9260 C   0  0  0  0  0  2  0  0  0  0  0  0
  190.7460  177.1740  138.4700 N   0  0  2  0  0  0  0  0  0  0  0  0
  192.6030  175.6740  137.9700 C   0  0  0  0  0  3  0  0  0  0  0  0
  188.8580  178.6250  139.0700 C   0  0  1  0  0  3  0  0  0  0  0  0
  188.9880  179.0640  137.6050 C   0  0  0  0  0  2  0  0  0  0  0  0
  193.6010  175.5890  135.7470 C   0  0  0  0  0  0  0  0  0  0  0  0
  193.3920  174.8390  134.7560 O   0  0  0  0  0  0  0  0  0  0  0  0
  194.8820  176.0810  135.9690 O   0  0  0  0  0  1  0  0  0  0  0  0
  1 10  1  0  0  0  0
  1 17  1  0  0  0  0
  2 12  1  0  0  0  0
  4  8  2  0  0  0  0
  4  5  1  0  0  0  0
  5  1  2  0  0  0  0
  6  7  1  0  0  0  0
  6 10  2  0  0  0  0
  8  6  1  0  0  0  0
  9 11  2  0  0  0  0
  9  3  1  0  0  0  0
 10  9  1  0  0  0  0
 13 18  1  0  0  0  0
 13 12  1  0  0  0  0
 14 13  2  0  0  0  0
 15  3  1  0  0  0  0
 15  2  2  0  0  0  0
 16 17  2  0  0  0  0
 16 14  1  0  0  0  0
 17 15  1  0  0  0  0
 18 19  1  0  0  0  0
 20 18  2  0  0  0  0
 21  4  1  0  0  0  0
 22 26  1  0  0  0  0
 22 31  1  0  0  0  0
 24 29  2  0  0  0  0
 25 24  1  0  0  0  0
 26 25  1  6  0  0  0
 26 28  1  0  0  0  0
 28 27  1  1  0  0  0
 28 23  1  0  0  0  0
 29 27  1  0  0  0  0
 30 23  1  0  0  0  0
 30 21  1  6  0  0  0
 31 30  1  0  0  0  0
 32 34  1  0  0  0  0
 32 24  1  0  0  0  0
 33 32  2  0  0  0  0
M  END
>  <MODEL>
7

>  <REMARK>
 VINA RESULT:     -10.0      1.392      1.714
  Name = 
  4 active torsions:
  status: ('A' for Active; 'I' for Inactive)
    1  A    between atoms: C_3  and  C_25
    2  A    between atoms: C_7  and  C_11
    3  A    between atoms: C_8  and  O_18
    4  A    between atoms: O_18  and  C_30
                            x       y       z     vdW  Elec       q    Type
                         _______ _______ _______ _____ _____    ______ ____

>  <TORSDO>
F 4

$$$$
=
 OpenBabel10262423313D

 34 38  0  0  1  0  0  0  0  0999 V2000
  186.1950  178.1990  143.8140 C   0  0  0  0  0  0  0  0  0  0  0  0
  182.7990  178.5860  142.4400 C   0  0  0  0  0  3  0  0  0  0  0  0
  183.5980  178.7330  144.5710 N   0  0  0  0  0  2  0  0  0  0  0  0
  188.5130  177.6740  144.4060 C   0  0  0  0  0  0  0  0  0  0  0  0
  187.5240  177.9150  143.4510 C   0  0  0  0  0  3  0  0  0  0  0  0
  186.8690  178.0050  146.1610 C   0  0  0  0  0  0  0  0  0  0  0  0
  186.5940  178.0330  147.5600 N   0  0  0  0  0  1  0  0  0  0  0  0
  188.1730  177.7160  145.7560 C   0  0  0  0  0  3  0  0  0  0  0  0
  184.5330  178.5780  145.5400 C   0  0  0  0  0  0  0  0  0  0  0  0
  185.8590  178.2530  145.1930 C   0  0  0  0  0  0  0  0  0  0  0  0
  184.1800  178.7070  146.7420 O   0  0  0  0  0  0  0  0  0  0  0  0
  182.7960  178.1780  141.0060 C   0  0  0  0  0  2  0  0  0  0  0  0
  183.6230  179.0690  140.1530 C   0  0  0  0  0  0  0  0  0  0  0  0
  184.9240  179.2100  140.3850 C   0  0  0  0  0  3  0  0  0  0  0  0
  183.8670  178.6310  143.2450 C   0  0  0  0  0  0  0  0  0  0  0  0
  185.6560  178.7120  141.5640 C   0  0  0  0  0  3  0  0  0  0  0  0
  185.2170  178.4670  142.8210 C   0  0  0  0  0  0  0  0  0  0  0  0
  183.0220  179.6640  138.9470 C   0  0  0  0  0  0  0  0  0  0  0  0
  182.3280  178.8620  138.0480 O   0  0  0  0  0  0  0  0  0  0  0  0
  183.1240  180.8990  138.7180 O   0  0  0  0  0  1  0  0  0  0  0  0
  189.8390  177.3830  144.0510 O   0  0  0  0  0  0  0  0  0  0  0  0
  192.4170  177.3190  141.8710 C   0  0  0  0  0  2  0  0  0  0  0  0
  189.6070  176.9570  141.6340 C   0  0  0  0  0  2  0  0  0  0  0  0
  191.8810  176.6480  138.1100 C   0  0  0  0  0  0  0  0  0  0  0  0
  192.6130  176.9010  139.4070 C   0  0  0  0  0  2  0  0  0  0  0  0
  191.6730  177.3560  140.5250 C   0  0  1  0  0  3  0  0  0  0  0  0
  189.7140  176.8670  139.2980 C   0  0  0  0  0  2  0  0  0  0  0  0
  190.4480  176.5370  140.5180 N   0  0  2  0  0  0  0  0  0  0  0  0
  190.5440  176.5700  138.0810 C   0  0  0  0  0  3  0  0  0  0  0  0
  190.2450  176.5440  142.9650 C   0  0  1  0  0  3  0  0  0  0  0  0
  191.7700  176.3790  142.8930 C   0  0  0  0  0  2  0  0  0  0  0  0
  192.6630  176.3770  136.8920 C   0  0  0  0  0  0  0  0  0  0  0  0
  192.1200  175.8520  135.8830 O   0  0  0  0  0  0  0  0  0  0  0  0
  194.0120  176.7050  136.8440 O   0  0  0  0  0  1  0  0  0  0  0  0
  1 10  1  0  0  0  0
  2 15  2  0  0  0  0
  3  9  1  0  0  0  0
  4  8  2  0  0  0  0
  5  1  2  0  0  0  0
  5  4  1  0  0  0  0
  6  7  1  0  0  0  0
  8  6  1  0  0  0  0
  9 11  2  0  0  0  0
 10  9  1  0  0  0  0
 10  6  2  0  0  0  0
 12  2  1  0  0  0  0
 13 14  2  0  0  0  0
 13 12  1  0  0  0  0
 14 16  1  0  0  0  0
 15  3  1  0  0  0  0
 16 17  2  0  0  0  0
 17 15  1  0  0  0  0
 17  1  1  0  0  0  0
 18 13  1  0  0  0  0
 19 18  2  0  0  0  0
 20 18  1  0  0  0  0
 21  4  1  0  0  0  0
 22 31  1  0  0  0  0
 23 30  1  0  0  0  0
 24 25  1  0  0  0  0
 26 25  1  6  0  0  0
 26 22  1  0  0  0  0
 28 27  1  6  0  0  0
 28 26  1  0  0  0  0
 28 23  1  0  0  0  0
 29 24  2  0  0  0  0
 29 27  1  0  0  0  0
 30 21  1  1  0  0  0
 31 30  1  0  0  0  0
 32 24  1  0  0  0  0
 33 32  2  0  0  0  0
 34 32  1  0  0  0  0
M  END
>  <MODEL>
8

>  <REMARK>
 VINA RESULT:     -10.0      2.165      5.990
  Name = 
  4 active torsions:
  status: ('A' for Active; 'I' for Inactive)
    1  A    between atoms: C_3  and  C_25
    2  A    between atoms: C_7  and  C_11
    3  A    between atoms: C_8  and  O_18
    4  A    between atoms: O_18  and  C_30
                            x       y       z     vdW  Elec       q    Type
                         _______ _______ _______ _____ _____    ______ ____

>  <TORSDO>
F 4

$$$$
=
 OpenBabel10262423313D

 34 38  0  0  1  0  0  0  0  0999 V2000
  188.3100  177.7720  141.0300 C   0  0  0  0  0  0  0  0  0  0  0  0
  188.0590  177.2810  144.6720 C   0  0  0  0  0  3  0  0  0  0  0  0
  189.8570  177.3280  143.2690 N   0  0  0  0  0  2  0  0  0  0  0  0
  188.0940  177.9200  138.5940 C   0  0  0  0  0  0  0  0  0  0  0  0
  187.5390  177.9860  139.8730 C   0  0  0  0  0  3  0  0  0  0  0  0
  190.2550  177.4260  139.5830 C   0  0  0  0  0  0  0  0  0  0  0  0
  191.6360  177.1400  139.3700 N   0  0  0  0  0  1  0  0  0  0  0  0
  189.4500  177.6350  138.4610 C   0  0  0  0  0  3  0  0  0  0  0  0
  190.4610  177.3230  142.0560 C   0  0  0  0  0  0  0  0  0  0  0  0
  189.6950  177.4950  140.8870 C   0  0  0  0  0  0  0  0  0  0  0  0
  191.7060  177.1380  142.0060 O   0  0  0  0  0  0  0  0  0  0  0  0
  186.6270  177.1290  145.0540 C   0  0  0  0  0  2  0  0  0  0  0  0
  185.8340  178.3620  144.8110 C   0  0  0  0  0  0  0  0  0  0  0  0
  185.7290  178.8680  143.5860 C   0  0  0  0  0  3  0  0  0  0  0  0
  188.5270  177.5310  143.4440 C   0  0  0  0  0  0  0  0  0  0  0  0
  186.4980  178.4440  142.4010 C   0  0  0  0  0  3  0  0  0  0  0  0
  187.7220  177.8730  142.3180 C   0  0  0  0  0  0  0  0  0  0  0  0
  185.0280  178.9220  145.9100 C   0  0  0  0  0  0  0  0  0  0  0  0
  185.6500  179.3750  147.0680 O   0  0  0  0  0  1  0  0  0  0  0  0
  183.7740  179.0010  145.8130 O   0  0  0  0  0  0  0  0  0  0  0  0
  187.3290  178.1240  137.4370 O   0  0  0  0  0  0  0  0  0  0  0  0
  184.3460  176.5420  137.4610 C   0  0  0  0  0  2  0  0  0  0  0  0
  187.0420  175.6920  137.1640 C   0  0  0  0  0  2  0  0  0  0  0  0
  184.0720  172.7190  137.0320 C   0  0  0  0  0  0  0  0  0  0  0  0
  183.6310  174.1550  137.1920 C   0  0  0  0  0  2  0  0  0  0  0  0
  184.7860  175.0740  137.5940 C   0  0  1  0  0  3  0  0  0  0  0  0
  186.4400  173.4300  137.2140 C   0  0  0  0  0  2  0  0  0  0  0  0
  185.9850  174.7550  136.7990 N   0  0  2  0  0  0  0  0  0  0  0  0
  185.3720  172.4010  136.9790 C   0  0  0  0  0  3  0  0  0  0  0  0
  186.7030  177.0990  136.6590 C   0  0  1  0  0  3  0  0  0  0  0  0
  185.1990  177.3420  136.4730 C   0  0  0  0  0  2  0  0  0  0  0  0
  183.0500  171.6800  136.8220 C   0  0  0  0  0  0  0  0  0  0  0  0
  181.8240  171.9520  136.9330 O   0  0  0  0  0  1  0  0  0  0  0  0
  183.4300  170.3840  136.4940 O   0  0  0  0  0  0  0  0  0  0  0  0
  1 17  1  0  0  0  0
  2 12  1  0  0  0  0
  3 15  1  0  0  0  0
  4  5  1  0  0  0  0
  5  1  2  0  0  0  0
  6 10  2  0  0  0  0
  7  6  1  0  0  0  0
  8  4  2  0  0  0  0
  8  6  1  0  0  0  0
  9  3  1  0  0  0  0
 10  1  1  0  0  0  0
 10  9  1  0  0  0  0
 11  9  2  0  0  0  0
 13 12  1  0  0  0  0
 13 18  1  0  0  0  0
 14 13  2  0  0  0  0
 15  2  2  0  0  0  0
 16 14  1  0  0  0  0
 17 16  2  0  0  0  0
 17 15  1  0  0  0  0
 18 19  1  0  0  0  0
 20 18  2  0  0  0  0
 21  4  1  0  0  0  0
 22 26  1  0  0  0  0
 24 25  1  0  0  0  0
 26 25  1  6  0  0  0
 28 23  1  1  0  0  0
 28 27  1  0  0  0  0
 28 26  1  0  0  0  0
 29 24  2  0  0  0  0
 29 27  1  0  0  0  0
 30 23  1  0  0  0  0
 30 21  1  1  0  0  0
 31 30  1  0  0  0  0
 31 22  1  0  0  0  0
 32 33  1  0  0  0  0
 32 24  1  0  0  0  0
 34 32  2  0  0  0  0
M  END
>  <MODEL>
9

>  <REMARK>
 VINA RESULT:      -9.9      3.903      6.964
  Name = 
  4 active torsions:
  status: ('A' for Active; 'I' for Inactive)
    1  A    between atoms: C_3  and  C_25
    2  A    between atoms: C_7  and  C_11
    3  A    between atoms: C_8  and  O_18
    4  A    between atoms: O_18  and  C_30
                            x       y       z     vdW  Elec       q    Type
                         _______ _______ _______ _____ _____    ______ ____

>  <TORSDO>
F 4

$$$$
