=
 OpenBabel10262420573D

 28 32  0  0  1  0  0  0  0  0999 V2000
  190.1580  178.2450  142.5190 C   0  0  2  0  0  3  0  0  0  0  0  0
  185.0470  178.9740  142.6990 C   0  0  0  0  0  3  0  0  0  0  0  0
  188.8410  177.0420  147.2750 C   0  0  0  0  0  1  0  0  0  0  0  0
  184.4410  178.4080  144.9820 C   0  0  0  0  0  0  0  0  0  0  0  0
  186.7760  178.2320  144.2830 C   0  0  0  0  0  0  0  0  0  0  0  0
  182.7410  179.1380  143.4190 C   0  0  0  0  0  0  0  0  0  0  0  0
  185.4310  178.5400  143.9790 C   0  0  0  0  0  0  0  0  0  0  0  0
  186.1190  177.6760  146.5590 C   0  0  0  0  0  3  0  0  0  0  0  0
  183.1060  178.7070  144.6960 C   0  0  0  0  0  3  0  0  0  0  0  0
  189.4630  177.6320  144.9050 C   0  0  0  0  0  0  0  0  0  0  0  0
  187.7770  178.3490  143.3120 C   0  0  0  0  0  3  0  0  0  0  0  0
  184.7920  177.9780  146.2610 C   0  0  0  0  0  3  0  0  0  0  0  0
  191.8750  178.0150  144.3300 C   0  0  0  0  0  2  0  0  0  0  0  0
  188.4670  177.4970  145.8940 C   0  0  0  0  0  0  0  0  0  0  0  0
  190.8940  177.2810  145.2310 C   0  0  0  0  0  2  0  0  0  0  0  0
  181.4140  179.4340  143.1400 O   0  0  0  0  0  1  0  0  0  0  0  0
  183.7100  179.2710  142.4210 C   0  0  0  0  0  3  0  0  0  0  0  0
  187.1220  177.7980  145.5860 C   0  0  0  0  0  0  0  0  0  0  0  0
  191.5400  177.6970  142.8830 C   0  0  0  0  0  2  0  0  0  0  0  0
  189.1080  178.0280  143.5940 C   0  0  0  0  0  0  0  0  0  0  0  0
  189.7320  177.7140  141.1820 C   0  0  0  0  0  0  0  0  0  0  0  0
  190.4950  176.7470  140.5100 C   0  0  0  0  0  3  0  0  0  0  0  0
  188.8890  176.7340  138.6950 C   0  0  0  0  0  0  0  0  0  0  0  0
  188.5470  178.1860  140.6050 C   0  0  0  0  0  3  0  0  0  0  0  0
  190.8400  175.3020  138.6130 O   0  0  0  0  0  1  0  0  0  0  0  0
  190.0760  176.2590  139.2700 C   0  0  0  0  0  0  0  0  0  0  0  0
  188.4630  176.2530  137.4640 O   0  0  0  0  0  1  0  0  0  0  0  0
  188.1270  177.6960  139.3650 C   0  0  0  0  0  3  0  0  0  0  0  0
  1 21  1  6  0  0  0
  1 19  1  0  0  0  0
  1 20  1  0  0  0  0
  2  7  1  0  0  0  0
  4 12  1  0  0  0  0
  5 18  1  0  0  0  0
  6  9  2  0  0  0  0
  7  5  1  0  0  0  0
  7  4  2  0  0  0  0
  9  4  1  0  0  0  0
 10 15  1  0  0  0  0
 10 14  1  0  0  0  0
 11 20  1  0  0  0  0
 11  5  2  0  0  0  0
 12  8  2  0  0  0  0
 13 15  1  0  0  0  0
 14  3  1  0  0  0  0
 16  6  1  0  0  0  0
 17  2  2  0  0  0  0
 17  6  1  0  0  0  0
 18 14  2  0  0  0  0
 18  8  1  0  0  0  0
 19 13  1  0  0  0  0
 20 10  2  0  0  0  0
 22 21  2  0  0  0  0
 23 26  2  0  0  0  0
 23 28  1  0  0  0  0
 24 21  1  0  0  0  0
 25 26  1  0  0  0  0
 26 22  1  0  0  0  0
 27 23  1  0  0  0  0
 28 24  2  0  0  0  0
M  END
>  <MODEL>
1

>  <REMARK>
 VINA RESULT:     -11.0      0.000      0.000
  Name = 
  1 active torsions:
  status: ('A' for Active; 'I' for Inactive)
    1  A    between atoms: C_1  and  C_2
                            x       y       z     vdW  Elec       q    Type
                         _______ _______ _______ _____ _____    ______ ____

>  <TORSDO>
F 1

$$$$
=
 OpenBabel10262420573D

 28 32  0  0  1  0  0  0  0  0999 V2000
  189.8870  177.7790  140.0090 C   0  0  2  0  0  3  0  0  0  0  0  0
  185.1390  178.6320  141.8590 C   0  0  0  0  0  3  0  0  0  0  0  0
  190.2630  176.9140  145.0000 C   0  0  0  0  0  1  0  0  0  0  0  0
  185.3450  178.2270  144.2460 C   0  0  0  0  0  0  0  0  0  0  0  0
  187.3040  177.9550  142.8110 C   0  0  0  0  0  0  0  0  0  0  0  0
  183.2150  178.8930  143.3050 C   0  0  0  0  0  0  0  0  0  0  0  0
  185.9360  178.2730  142.9600 C   0  0  0  0  0  0  0  0  0  0  0  0
  187.4600  177.5610  145.2070 C   0  0  0  0  0  3  0  0  0  0  0  0
  183.9920  178.5370  144.4100 C   0  0  0  0  0  3  0  0  0  0  0  0
  190.0430  177.3360  142.5260 C   0  0  0  0  0  0  0  0  0  0  0  0
  187.9160  177.9870  141.5530 C   0  0  0  0  0  3  0  0  0  0  0  0
  186.1100  177.8720  145.3560 C   0  0  0  0  0  3  0  0  0  0  0  0
  192.1160  177.6280  141.1430 C   0  0  0  0  0  2  0  0  0  0  0  0
  189.4420  177.2870  143.8000 C   0  0  0  0  0  0  0  0  0  0  0  0
  191.5010  176.9760  142.3710 C   0  0  0  0  0  2  0  0  0  0  0  0
  181.8720  179.2000  143.4720 O   0  0  0  0  0  1  0  0  0  0  0  0
  183.7870  178.9400  142.0320 C   0  0  0  0  0  3  0  0  0  0  0  0
  188.0720  177.5970  143.9460 C   0  0  0  0  0  0  0  0  0  0  0  0
  191.3110  177.2250  139.9200 C   0  0  0  0  0  2  0  0  0  0  0  0
  189.2640  177.6550  141.3890 C   0  0  0  0  0  0  0  0  0  0  0  0
  189.0320  177.1740  138.9350 C   0  0  0  0  0  0  0  0  0  0  0  0
  187.8170  177.7650  138.5580 C   0  0  0  0  0  3  0  0  0  0  0  0
  187.4750  176.0220  136.9090 C   0  0  0  0  0  0  0  0  0  0  0  0
  189.4630  176.0070  138.2940 C   0  0  0  0  0  3  0  0  0  0  0  0
  185.8380  177.7840  137.1830 O   0  0  0  0  0  1  0  0  0  0  0  0
  187.0400  177.1900  137.5490 C   0  0  0  0  0  0  0  0  0  0  0  0
  186.7100  175.4440  135.9040 O   0  0  0  0  0  1  0  0  0  0  0  0
  188.6870  175.4330  137.2840 C   0  0  0  0  0  3  0  0  0  0  0  0
  1 21  1  6  0  0  0
  1 20  1  0  0  0  0
  2 17  2  0  0  0  0
  2  7  1  0  0  0  0
  4  9  1  0  0  0  0
  4 12  1  0  0  0  0
  5  7  1  0  0  0  0
  5 18  1  0  0  0  0
  6 16  1  0  0  0  0
  6  9  2  0  0  0  0
  7  4  2  0  0  0  0
  8 12  2  0  0  0  0
 10 14  1  0  0  0  0
 11  5  2  0  0  0  0
 13 15  1  0  0  0  0
 14 18  2  0  0  0  0
 14  3  1  0  0  0  0
 15 10  1  0  0  0  0
 17  6  1  0  0  0  0
 18  8  1  0  0  0  0
 19  1  1  0  0  0  0
 19 13  1  0  0  0  0
 20 11  1  0  0  0  0
 20 10  2  0  0  0  0
 22 21  1  0  0  0  0
 23 28  2  0  0  0  0
 23 26  1  0  0  0  0
 24 21  2  0  0  0  0
 25 26  1  0  0  0  0
 26 22  2  0  0  0  0
 27 23  1  0  0  0  0
 28 24  1  0  0  0  0
M  END
>  <MODEL>
2

>  <REMARK>
 VINA RESULT:     -10.6      1.491      2.508
  Name = 
  1 active torsions:
  status: ('A' for Active; 'I' for Inactive)
    1  A    between atoms: C_1  and  C_2
                            x       y       z     vdW  Elec       q    Type
                         _______ _______ _______ _____ _____    ______ ____

>  <TORSDO>
F 1

$$$$
=
 OpenBabel10262420573D

 28 32  0  0  1  0  0  0  0  0999 V2000
  189.8280  177.8070  139.9770 C   0  0  2  0  0  3  0  0  0  0  0  0
  185.1080  178.6520  141.9010 C   0  0  0  0  0  3  0  0  0  0  0  0
  190.2690  176.8870  144.9530 C   0  0  0  0  0  1  0  0  0  0  0  0
  185.3450  178.2200  144.2800 C   0  0  0  0  0  0  0  0  0  0  0  0
  187.2840  177.9590  142.8160 C   0  0  0  0  0  0  0  0  0  0  0  0
  183.2040  178.9020  143.3760 C   0  0  0  0  0  0  0  0  0  0  0  0
  185.9180  178.2780  142.9870 C   0  0  0  0  0  0  0  0  0  0  0  0
  187.4710  177.5390  145.2050 C   0  0  0  0  0  3  0  0  0  0  0  0
  183.9960  178.5320  144.4660 C   0  0  0  0  0  3  0  0  0  0  0  0
  190.0180  177.3360  142.4860 C   0  0  0  0  0  0  0  0  0  0  0  0
  187.8790  178.0030  141.5500 C   0  0  0  0  0  3  0  0  0  0  0  0
  186.1240  177.8520  145.3760 C   0  0  0  0  0  3  0  0  0  0  0  0
  192.0720  177.6390  141.0780 C   0  0  0  0  0  2  0  0  0  0  0  0
  189.4330  177.2750  143.7680 C   0  0  0  0  0  0  0  0  0  0  0  0
  191.4710  176.9740  142.3070 C   0  0  0  0  0  2  0  0  0  0  0  0
  181.8640  179.2100  143.5650 O   0  0  0  0  0  1  0  0  0  0  0  0
  183.7590  178.9610  142.0950 C   0  0  0  0  0  3  0  0  0  0  0  0
  188.0670  177.5870  143.9360 C   0  0  0  0  0  0  0  0  0  0  0  0
  191.2490  177.2500  139.8630 C   0  0  0  0  0  2  0  0  0  0  0  0
  189.2240  177.6700  141.3640 C   0  0  0  0  0  0  0  0  0  0  0  0
  188.9570  177.2150  138.9080 C   0  0  0  0  0  0  0  0  0  0  0  0
  189.3070  176.0140  138.2720 C   0  0  0  0  0  3  0  0  0  0  0  0
  187.2920  176.1320  136.9310 C   0  0  0  0  0  0  0  0  0  0  0  0
  187.7720  177.8680  138.5510 C   0  0  0  0  0  3  0  0  0  0  0  0
  188.8340  174.2840  136.6630 O   0  0  0  0  0  1  0  0  0  0  0  0
  188.4780  175.4740  137.2860 C   0  0  0  0  0  0  0  0  0  0  0  0
  186.4610  175.6020  135.9520 O   0  0  0  0  0  1  0  0  0  0  0  0
  186.9420  177.3280  137.5650 C   0  0  0  0  0  3  0  0  0  0  0  0
  1 21  1  6  0  0  0
  1 20  1  0  0  0  0
  2 17  2  0  0  0  0
  2  7  1  0  0  0  0
  4  9  1  0  0  0  0
  4 12  1  0  0  0  0
  5  7  1  0  0  0  0
  5 18  1  0  0  0  0
  6 16  1  0  0  0  0
  6  9  2  0  0  0  0
  7  4  2  0  0  0  0
  8 12  2  0  0  0  0
 10 14  1  0  0  0  0
 11  5  2  0  0  0  0
 13 15  1  0  0  0  0
 14 18  2  0  0  0  0
 14  3  1  0  0  0  0
 15 10  1  0  0  0  0
 17  6  1  0  0  0  0
 18  8  1  0  0  0  0
 19  1  1  0  0  0  0
 19 13  1  0  0  0  0
 20 11  1  0  0  0  0
 20 10  2  0  0  0  0
 22 21  2  0  0  0  0
 23 26  2  0  0  0  0
 23 28  1  0  0  0  0
 24 21  1  0  0  0  0
 25 26  1  0  0  0  0
 26 22  1  0  0  0  0
 27 23  1  0  0  0  0
 28 24  2  0  0  0  0
M  END
>  <MODEL>
3

>  <REMARK>
 VINA RESULT:     -10.5      1.275      2.175
  Name = 
  1 active torsions:
  status: ('A' for Active; 'I' for Inactive)
    1  A    between atoms: C_1  and  C_2
                            x       y       z     vdW  Elec       q    Type
                         _______ _______ _______ _____ _____    ______ ____

>  <TORSDO>
F 1

$$$$
=
 OpenBabel10262420573D

 28 32  0  0  1  0  0  0  0  0999 V2000
  186.3640  177.5020  142.8570 C   0  0  2  0  0  3  0  0  0  0  0  0
  190.6410  176.2680  145.4800 C   0  0  0  0  0  3  0  0  0  0  0  0
  185.6810  179.5060  147.4740 C   0  0  0  0  0  1  0  0  0  0  0  0
  190.2870  177.2220  147.6860 C   0  0  0  0  0  0  0  0  0  0  0  0
  188.5720  177.5060  145.9680 C   0  0  0  0  0  0  0  0  0  0  0  0
  192.3230  176.0040  147.2010 C   0  0  0  0  0  0  0  0  0  0  0  0
  189.8280  176.9960  146.3650 C   0  0  0  0  0  0  0  0  0  0  0  0
  188.2640  178.4430  148.1930 C   0  0  0  0  0  3  0  0  0  0  0  0
  191.5280  176.7260  148.0940 C   0  0  0  0  0  3  0  0  0  0  0  0
  186.0530  178.5140  145.1890 C   0  0  0  0  0  0  0  0  0  0  0  0
  188.0930  177.3030  144.6690 C   0  0  0  0  0  3  0  0  0  0  0  0
  189.5030  177.9420  148.5860 C   0  0  0  0  0  3  0  0  0  0  0  0
  184.1100  178.2870  143.6180 C   0  0  0  0  0  2  0  0  0  0  0  0
  186.5240  178.7380  146.4980 C   0  0  0  0  0  0  0  0  0  0  0  0
  184.7200  179.0780  144.7640 C   0  0  0  0  0  2  0  0  0  0  0  0
  193.5550  175.5130  147.6100 O   0  0  0  0  0  1  0  0  0  0  0  0
  191.8800  175.7750  145.8960 C   0  0  0  0  0  3  0  0  0  0  0  0
  187.7830  178.2350  146.8910 C   0  0  0  0  0  0  0  0  0  0  0  0
  185.0960  178.2630  142.4630 C   0  0  0  0  0  2  0  0  0  0  0  0
  186.8600  177.8190  144.2570 C   0  0  0  0  0  0  0  0  0  0  0  0
  187.4240  177.6960  141.8130 C   0  0  0  0  0  0  0  0  0  0  0  0
  188.7000  177.1310  141.9620 C   0  0  0  0  0  3  0  0  0  0  0  0
  189.3690  178.0650  139.8290 C   0  0  0  0  0  0  0  0  0  0  0  0
  187.1280  178.4440  140.6670 C   0  0  0  0  0  3  0  0  0  0  0  0
  190.9300  176.7510  141.1330 O   0  0  0  0  0  1  0  0  0  0  0  0
  189.6700  177.3150  140.9740 C   0  0  0  0  0  0  0  0  0  0  0  0
  190.3260  178.2530  138.8400 O   0  0  0  0  0  1  0  0  0  0  0  0
  188.0980  178.6270  139.6780 C   0  0  0  0  0  3  0  0  0  0  0  0
  1 21  1  6  0  0  0
  1 20  1  0  0  0  0
  2 17  2  0  0  0  0
  2  7  1  0  0  0  0
  4  9  1  0  0  0  0
  4 12  1  0  0  0  0
  5  7  1  0  0  0  0
  5 18  1  0  0  0  0
  6 16  1  0  0  0  0
  6  9  2  0  0  0  0
  7  4  2  0  0  0  0
  8 12  2  0  0  0  0
 10 14  1  0  0  0  0
 11  5  2  0  0  0  0
 13 15  1  0  0  0  0
 14 18  2  0  0  0  0
 14  3  1  0  0  0  0
 15 10  1  0  0  0  0
 17  6  1  0  0  0  0
 18  8  1  0  0  0  0
 19  1  1  0  0  0  0
 19 13  1  0  0  0  0
 20 11  1  0  0  0  0
 20 10  2  0  0  0  0
 21 22  1  0  0  0  0
 23 26  1  0  0  0  0
 24 21  2  0  0  0  0
 26 25  1  0  0  0  0
 26 22  2  0  0  0  0
 27 23  1  0  0  0  0
 28 23  2  0  0  0  0
 28 24  1  0  0  0  0
M  END
>  <MODEL>
4

>  <REMARK>
 VINA RESULT:     -10.4      2.470      5.603
  Name = 
  1 active torsions:
  status: ('A' for Active; 'I' for Inactive)
    1  A    between atoms: C_1  and  C_2
                            x       y       z     vdW  Elec       q    Type
                         _______ _______ _______ _____ _____    ______ ____

>  <TORSDO>
F 1

$$$$
=
 OpenBabel10262420573D

 28 32  0  0  1  0  0  0  0  0999 V2000
  184.2970  177.9560  142.3980 C   0  0  2  0  0  3  0  0  0  0  0  0
  189.1010  176.2100  143.1460 C   0  0  0  0  0  3  0  0  0  0  0  0
  185.4910  179.4190  147.1140 C   0  0  0  0  0  1  0  0  0  0  0  0
  189.6460  176.9060  145.4100 C   0  0  0  0  0  0  0  0  0  0  0  0
  187.4630  177.4780  144.4720 C   0  0  0  0  0  0  0  0  0  0  0  0
  191.2570  175.6580  144.1000 C   0  0  0  0  0  0  0  0  0  0  0  0
  188.7270  176.8640  144.3330 C   0  0  0  0  0  0  0  0  0  0  0  0
  188.0550  178.1530  146.7340 C   0  0  0  0  0  3  0  0  0  0  0  0
  190.9010  176.3050  145.2860 C   0  0  0  0  0  3  0  0  0  0  0  0
  184.9310  178.6930  144.7670 C   0  0  0  0  0  0  0  0  0  0  0  0
  186.5340  177.4570  143.4250 C   0  0  0  0  0  3  0  0  0  0  0  0
  189.3030  177.5490  146.5980 C   0  0  0  0  0  3  0  0  0  0  0  0
  182.5430  178.7520  144.0010 C   0  0  0  0  0  2  0  0  0  0  0  0
  185.8580  178.7350  145.8290 C   0  0  0  0  0  0  0  0  0  0  0  0
  183.5900  179.3680  144.9150 C   0  0  0  0  0  2  0  0  0  0  0  0
  192.5050  175.0630  143.9830 O   0  0  0  0  0  1  0  0  0  0  0  0
  190.3580  175.6110  143.0320 C   0  0  0  0  0  3  0  0  0  0  0  0
  187.1240  178.1270  145.6840 C   0  0  0  0  0  0  0  0  0  0  0  0
  183.0440  178.8190  142.5690 C   0  0  0  0  0  2  0  0  0  0  0  0
  185.2870  178.0770  143.5430 C   0  0  0  0  0  0  0  0  0  0  0  0
  184.9250  178.2230  141.0620 C   0  0  0  0  0  0  0  0  0  0  0  0
  186.3160  178.3550  140.9300 C   0  0  0  0  0  3  0  0  0  0  0  0
  186.0620  178.7020  138.5450 C   0  0  0  0  0  0  0  0  0  0  0  0
  184.1090  178.3310  139.9310 C   0  0  0  0  0  3  0  0  0  0  0  0
  188.2620  178.7230  139.5570 O   0  0  0  0  0  1  0  0  0  0  0  0
  186.8830  178.5950  139.6760 C   0  0  0  0  0  0  0  0  0  0  0  0
  186.6160  178.9380  137.2940 O   0  0  0  0  0  1  0  0  0  0  0  0
  184.6760  178.5690  138.6760 C   0  0  0  0  0  3  0  0  0  0  0  0
  1 21  1  6  0  0  0
  1 19  1  0  0  0  0
  1 20  1  0  0  0  0
  2  7  1  0  0  0  0
  4 12  1  0  0  0  0
  5 18  1  0  0  0  0
  6  9  2  0  0  0  0
  7  5  1  0  0  0  0
  7  4  2  0  0  0  0
  9  4  1  0  0  0  0
 10 15  1  0  0  0  0
 10 14  1  0  0  0  0
 11 20  1  0  0  0  0
 11  5  2  0  0  0  0
 12  8  2  0  0  0  0
 13 15  1  0  0  0  0
 14  3  1  0  0  0  0
 16  6  1  0  0  0  0
 17  2  2  0  0  0  0
 17  6  1  0  0  0  0
 18 14  2  0  0  0  0
 18  8  1  0  0  0  0
 19 13  1  0  0  0  0
 20 10  2  0  0  0  0
 22 21  1  0  0  0  0
 23 28  2  0  0  0  0
 23 26  1  0  0  0  0
 24 21  2  0  0  0  0
 25 26  1  0  0  0  0
 26 22  2  0  0  0  0
 27 23  1  0  0  0  0
 28 24  1  0  0  0  0
M  END
>  <MODEL>
5

>  <REMARK>
 VINA RESULT:     -10.2      2.442      5.664
  Name = 
  1 active torsions:
  status: ('A' for Active; 'I' for Inactive)
    1  A    between atoms: C_1  and  C_2
                            x       y       z     vdW  Elec       q    Type
                         _______ _______ _______ _____ _____    ______ ____

>  <TORSDO>
F 1

$$$$
=
 OpenBabel10262420573D

 28 32  0  0  1  0  0  0  0  0999 V2000
  190.0800  178.0480  141.3010 C   0  0  2  0  0  3  0  0  0  0  0  0
  184.9680  178.7570  141.0560 C   0  0  0  0  0  3  0  0  0  0  0  0
  188.4610  177.4930  146.0830 C   0  0  0  0  0  1  0  0  0  0  0  0
  184.2170  178.5020  143.3530 C   0  0  0  0  0  0  0  0  0  0  0  0
  186.5910  178.2500  142.8330 C   0  0  0  0  0  0  0  0  0  0  0  0
  182.6210  179.0000  141.6000 C   0  0  0  0  0  0  0  0  0  0  0  0
  185.2690  178.5040  142.4050 C   0  0  0  0  0  0  0  0  0  0  0  0
  185.7910  178.0040  145.1180 C   0  0  0  0  0  3  0  0  0  0  0  0
  182.9040  178.7500  142.9450 C   0  0  0  0  0  3  0  0  0  0  0  0
  189.2330  177.7590  143.7000 C   0  0  0  0  0  0  0  0  0  0  0  0
  187.6530  178.2410  141.9200 C   0  0  0  0  0  3  0  0  0  0  0  0
  184.4860  178.2520  144.6980 C   0  0  0  0  0  3  0  0  0  0  0  0
  191.6770  178.0790  143.2310 C   0  0  0  0  0  2  0  0  0  0  0  0
  188.1760  177.7530  144.6330 C   0  0  0  0  0  0  0  0  0  0  0  0
  190.6400  177.4680  144.1600 C   0  0  0  0  0  2  0  0  0  0  0  0
  181.3150  179.2450  141.2000 O   0  0  0  0  0  1  0  0  0  0  0  0
  183.6520  179.0040  140.6570 C   0  0  0  0  0  3  0  0  0  0  0  0
  186.8540  177.9990  144.2020 C   0  0  0  0  0  0  0  0  0  0  0  0
  191.4340  177.5650  141.8230 C   0  0  0  0  0  2  0  0  0  0  0  0
  188.9630  177.9720  142.3270 C   0  0  0  0  0  0  0  0  0  0  0  0
  189.7380  177.3380  140.0240 C   0  0  0  0  0  0  0  0  0  0  0  0
  190.5410  176.2940  139.5390 C   0  0  0  0  0  3  0  0  0  0  0  0
  189.0540  176.0210  137.6460 C   0  0  0  0  0  0  0  0  0  0  0  0
  188.5930  177.7170  139.3150 C   0  0  0  0  0  3  0  0  0  0  0  0
  191.0050  174.6070  137.8820 O   0  0  0  0  0  1  0  0  0  0  0  0
  190.2010  175.6390  138.3530 C   0  0  0  0  0  0  0  0  0  0  0  0
  188.7070  175.3750  136.4670 O   0  0  0  0  0  1  0  0  0  0  0  0
  188.2520  177.0600  138.1290 C   0  0  0  0  0  3  0  0  0  0  0  0
  1 21  1  6  0  0  0
  1 19  1  0  0  0  0
  1 20  1  0  0  0  0
  2  7  1  0  0  0  0
  4 12  1  0  0  0  0
  5 18  1  0  0  0  0
  6  9  2  0  0  0  0
  7  5  1  0  0  0  0
  7  4  2  0  0  0  0
  9  4  1  0  0  0  0
 10 15  1  0  0  0  0
 10 14  1  0  0  0  0
 11 20  1  0  0  0  0
 11  5  2  0  0  0  0
 12  8  2  0  0  0  0
 13 15  1  0  0  0  0
 14  3  1  0  0  0  0
 16  6  1  0  0  0  0
 17  2  2  0  0  0  0
 17  6  1  0  0  0  0
 18 14  2  0  0  0  0
 18  8  1  0  0  0  0
 19 13  1  0  0  0  0
 20 10  2  0  0  0  0
 22 21  1  0  0  0  0
 23 28  2  0  0  0  0
 23 26  1  0  0  0  0
 24 21  2  0  0  0  0
 25 26  1  0  0  0  0
 26 22  2  0  0  0  0
 27 23  1  0  0  0  0
 28 24  1  0  0  0  0
M  END
>  <MODEL>
6

>  <REMARK>
 VINA RESULT:     -10.2      1.100      1.420
  Name = 
  1 active torsions:
  status: ('A' for Active; 'I' for Inactive)
    1  A    between atoms: C_1  and  C_2
                            x       y       z     vdW  Elec       q    Type
                         _______ _______ _______ _____ _____    ______ ____

>  <TORSDO>
F 1

$$$$
=
 OpenBabel10262420573D

 28 32  0  0  1  0  0  0  0  0999 V2000
  186.8970  178.6790  138.4190 C   0  0  2  0  0  3  0  0  0  0  0  0
  185.3270  178.6230  143.3400 C   0  0  0  0  0  3  0  0  0  0  0  0
  190.8670  176.8830  141.0290 C   0  0  0  0  0  1  0  0  0  0  0  0
  187.2430  177.7760  144.5710 C   0  0  0  0  0  0  0  0  0  0  0  0
  187.3860  178.0110  142.1430 C   0  0  0  0  0  0  0  0  0  0  0  0
  185.2130  178.3800  145.7470 C   0  0  0  0  0  0  0  0  0  0  0  0
  186.6470  178.1410  143.3390 C   0  0  0  0  0  0  0  0  0  0  0  0
  189.2780  177.1660  143.4200 C   0  0  0  0  0  3  0  0  0  0  0  0
  186.5240  177.8980  145.7630 C   0  0  0  0  0  3  0  0  0  0  0  0
  188.8770  177.7630  139.7590 C   0  0  0  0  0  0  0  0  0  0  0  0
  186.8240  178.3590  140.9090 C   0  0  0  0  0  3  0  0  0  0  0  0
  188.5500  177.2930  144.6010 C   0  0  0  0  0  3  0  0  0  0  0  0
  189.1810  178.5490  137.3950 C   0  0  0  0  0  2  0  0  0  0  0  0
  189.4570  177.3960  140.9900 C   0  0  0  0  0  0  0  0  0  0  0  0
  189.6650  177.6020  138.4820 C   0  0  0  0  0  2  0  0  0  0  0  0
  184.5030  178.4990  146.9330 O   0  0  0  0  0  1  0  0  0  0  0  0
  184.6150  178.7420  144.5370 C   0  0  0  0  0  3  0  0  0  0  0  0
  188.7140  177.5200  142.1840 C   0  0  0  0  0  0  0  0  0  0  0  0
  187.6980  178.3120  137.1680 C   0  0  0  0  0  2  0  0  0  0  0  0
  187.5380  178.2160  139.7160 C   0  0  0  0  0  0  0  0  0  0  0  0
  185.4790  178.2100  138.2770 C   0  0  0  0  0  0  0  0  0  0  0  0
  184.4160  178.9440  138.8230 C   0  0  0  0  0  3  0  0  0  0  0  0
  182.8420  177.3100  137.9710 C   0  0  0  0  0  0  0  0  0  0  0  0
  185.2160  177.0260  137.5780 C   0  0  0  0  0  3  0  0  0  0  0  0
  182.0560  179.2310  139.2170 O   0  0  0  0  0  1  0  0  0  0  0  0
  183.1010  178.4960  138.6720 C   0  0  0  0  0  0  0  0  0  0  0  0
  181.5390  176.8560  137.8150 O   0  0  0  0  0  1  0  0  0  0  0  0
  183.9020  176.5780  137.4250 C   0  0  0  0  0  3  0  0  0  0  0  0
  1 21  1  6  0  0  0
  1 20  1  0  0  0  0
  2 17  1  0  0  0  0
  4 12  1  0  0  0  0
  4  9  2  0  0  0  0
  5 18  1  0  0  0  0
  5  7  1  0  0  0  0
  6  9  1  0  0  0  0
  6 16  1  0  0  0  0
  7  2  2  0  0  0  0
  7  4  1  0  0  0  0
  8 12  2  0  0  0  0
 10 14  1  0  0  0  0
 11  5  2  0  0  0  0
 13 15  1  0  0  0  0
 14  3  1  0  0  0  0
 14 18  2  0  0  0  0
 15 10  1  0  0  0  0
 17  6  2  0  0  0  0
 18  8  1  0  0  0  0
 19 13  1  0  0  0  0
 19  1  1  0  0  0  0
 20 10  2  0  0  0  0
 20 11  1  0  0  0  0
 21 22  1  0  0  0  0
 23 26  1  0  0  0  0
 24 21  2  0  0  0  0
 26 22  2  0  0  0  0
 26 25  1  0  0  0  0
 27 23  1  0  0  0  0
 28 24  1  0  0  0  0
 28 23  2  0  0  0  0
M  END
>  <MODEL>
7

>  <REMARK>
 VINA RESULT:     -10.0      2.730      5.243
  Name = 
  1 active torsions:
  status: ('A' for Active; 'I' for Inactive)
    1  A    between atoms: C_1  and  C_2
                            x       y       z     vdW  Elec       q    Type
                         _______ _______ _______ _____ _____    ______ ____

>  <TORSDO>
F 1

$$$$
=
 OpenBabel10262420573D

 28 32  0  0  1  0  0  0  0  0999 V2000
  188.4110  178.2500  145.6960 C   0  0  2  0  0  3  0  0  0  0  0  0
  188.1930  178.3370  140.5350 C   0  0  0  0  0  3  0  0  0  0  0  0
  183.4520  178.4070  144.6080 C   0  0  0  0  0  1  0  0  0  0  0  0
  185.8160  178.4270  140.0380 C   0  0  0  0  0  0  0  0  0  0  0  0
  186.5510  178.3460  142.3670 C   0  0  0  0  0  0  0  0  0  0  0  0
  187.4360  178.4170  138.2370 C   0  0  0  0  0  0  0  0  0  0  0  0
  186.8630  178.3700  140.9890 C   0  0  0  0  0  0  0  0  0  0  0  0
  184.1820  178.4370  141.8180 C   0  0  0  0  0  3  0  0  0  0  0  0
  186.1090  178.4500  138.6720 C   0  0  0  0  0  3  0  0  0  0  0  0
  185.9180  178.3150  145.1180 C   0  0  0  0  0  0  0  0  0  0  0  0
  187.5630  178.2860  143.3320 C   0  0  0  0  0  3  0  0  0  0  0  0
  184.4880  178.4590  140.4580 C   0  0  0  0  0  3  0  0  0  0  0  0
  186.7090  178.8090  147.4470 C   0  0  0  0  0  2  0  0  0  0  0  0
  184.8840  178.3640  144.1600 C   0  0  0  0  0  0  0  0  0  0  0  0
  185.5770  178.2680  146.5870 C   0  0  0  0  0  2  0  0  0  0  0  0
  187.7220  178.4400  136.8790 O   0  0  0  0  0  1  0  0  0  0  0  0
  188.4770  178.3610  139.1670 C   0  0  0  0  0  3  0  0  0  0  0  0
  185.1980  178.3810  142.7840 C   0  0  0  0  0  0  0  0  0  0  0  0
  187.9710  178.0210  147.1440 C   0  0  0  0  0  2  0  0  0  0  0  0
  187.2670  178.2410  144.6980 C   0  0  0  0  0  0  0  0  0  0  0  0
  189.5000  177.2840  145.3330 C   0  0  0  0  0  0  0  0  0  0  0  0
  190.4820  176.9150  146.2650 C   0  0  0  0  0  3  0  0  0  0  0  0
  191.5060  175.4600  144.6200 C   0  0  0  0  0  0  0  0  0  0  0  0
  189.5280  176.7360  144.0450 C   0  0  0  0  0  3  0  0  0  0  0  0
  192.4500  175.6490  146.8420 O   0  0  0  0  0  1  0  0  0  0  0  0
  191.4830  176.0070  145.9100 C   0  0  0  0  0  0  0  0  0  0  0  0
  192.4960  174.5560  144.2580 O   0  0  0  0  0  1  0  0  0  0  0  0
  190.5280  175.8260  143.6900 C   0  0  0  0  0  3  0  0  0  0  0  0
  1 21  1  6  0  0  0
  1 19  1  0  0  0  0
  2  7  1  0  0  0  0
  4 12  2  0  0  0  0
  4  7  1  0  0  0  0
  5 18  1  0  0  0  0
  5 11  1  0  0  0  0
  6  9  2  0  0  0  0
  6 17  1  0  0  0  0
  7  5  2  0  0  0  0
  8 18  2  0  0  0  0
  9  4  1  0  0  0  0
 10 15  1  0  0  0  0
 11 20  2  0  0  0  0
 12  8  1  0  0  0  0
 14  3  1  0  0  0  0
 14 10  2  0  0  0  0
 15 13  1  0  0  0  0
 16  6  1  0  0  0  0
 17  2  2  0  0  0  0
 18 14  1  0  0  0  0
 19 13  1  0  0  0  0
 20 10  1  0  0  0  0
 20  1  1  0  0  0  0
 21 22  1  0  0  0  0
 23 26  1  0  0  0  0
 24 21  2  0  0  0  0
 26 22  2  0  0  0  0
 26 25  1  0  0  0  0
 27 23  1  0  0  0  0
 28 24  1  0  0  0  0
 28 23  2  0  0  0  0
M  END
>  <MODEL>
8

>  <REMARK>
 VINA RESULT:      -9.7      2.401      5.481
  Name = 
  1 active torsions:
  status: ('A' for Active; 'I' for Inactive)
    1  A    between atoms: C_1  and  C_2
                            x       y       z     vdW  Elec       q    Type
                         _______ _______ _______ _____ _____    ______ ____

>  <TORSDO>
F 1

$$$$
=
 OpenBabel10262420573D

 28 32  0  0  1  0  0  0  0  0999 V2000
  187.0150  177.1150  145.2770 C   0  0  2  0  0  3  0  0  0  0  0  0
  188.1580  177.1670  140.2390 C   0  0  0  0  0  3  0  0  0  0  0  0
  192.0550  177.7190  145.0940 C   0  0  0  0  0  1  0  0  0  0  0  0
  190.5710  177.4420  140.1750 C   0  0  0  0  0  0  0  0  0  0  0  0
  189.4300  177.3650  142.3350 C   0  0  0  0  0  0  0  0  0  0  0  0
  189.3140  177.2470  138.1130 C   0  0  0  0  0  0  0  0  0  0  0  0
  189.3750  177.3220  140.9240 C   0  0  0  0  0  0  0  0  0  0  0  0
  191.8460  177.6380  142.2180 C   0  0  0  0  0  3  0  0  0  0  0  0
  190.5320  177.4030  138.7790 C   0  0  0  0  0  3  0  0  0  0  0  0
  189.5530  177.4330  145.1540 C   0  0  0  0  0  0  0  0  0  0  0  0
  188.2660  177.2540  143.1030 C   0  0  0  0  0  3  0  0  0  0  0  0
  191.7930  177.5980  140.8260 C   0  0  0  0  0  3  0  0  0  0  0  0
  188.4440  176.7790  147.3080 C   0  0  0  0  0  2  0  0  0  0  0  0
  190.7360  177.5580  144.3970 C   0  0  0  0  0  0  0  0  0  0  0  0
  189.6160  177.5000  146.6600 C   0  0  0  0  0  2  0  0  0  0  0  0
  189.2810  177.2090  136.7270 O   0  0  0  0  0  1  0  0  0  0  0  0
  188.1280  177.1290  138.8430 C   0  0  0  0  0  3  0  0  0  0  0  0
  190.6770  177.5230  142.9870 C   0  0  0  0  0  0  0  0  0  0  0  0
  187.1520  177.3770  146.7790 C   0  0  0  0  0  2  0  0  0  0  0  0
  188.3040  177.3140  144.4990 C   0  0  0  0  0  0  0  0  0  0  0  0
  185.8760  177.9150  144.7190 C   0  0  0  0  0  0  0  0  0  0  0  0
  185.8340  178.2650  143.3600 C   0  0  0  0  0  3  0  0  0  0  0  0
  183.7180  179.3940  143.7100 C   0  0  0  0  0  0  0  0  0  0  0  0
  184.8340  178.3080  145.5670 C   0  0  0  0  0  3  0  0  0  0  0  0
  184.7290  179.3430  141.5100 O   0  0  0  0  0  1  0  0  0  0  0  0
  184.7590  179.0030  142.8570 C   0  0  0  0  0  0  0  0  0  0  0  0
  182.6460  180.1260  143.2200 O   0  0  0  0  0  1  0  0  0  0  0  0
  183.7590  179.0450  145.0640 C   0  0  0  0  0  3  0  0  0  0  0  0
  1 21  1  6  0  0  0
  1 19  1  0  0  0  0
  2  7  1  0  0  0  0
  4 12  2  0  0  0  0
  4  7  1  0  0  0  0
  5 18  1  0  0  0  0
  5 11  1  0  0  0  0
  6  9  2  0  0  0  0
  6 17  1  0  0  0  0
  7  5  2  0  0  0  0
  8 18  2  0  0  0  0
  9  4  1  0  0  0  0
 10 15  1  0  0  0  0
 11 20  2  0  0  0  0
 12  8  1  0  0  0  0
 14  3  1  0  0  0  0
 14 10  2  0  0  0  0
 15 13  1  0  0  0  0
 16  6  1  0  0  0  0
 17  2  2  0  0  0  0
 18 14  1  0  0  0  0
 19 13  1  0  0  0  0
 20 10  1  0  0  0  0
 20  1  1  0  0  0  0
 21 24  1  0  0  0  0
 22 21  2  0  0  0  0
 23 28  1  0  0  0  0
 25 26  1  0  0  0  0
 26 22  1  0  0  0  0
 26 23  2  0  0  0  0
 27 23  1  0  0  0  0
 28 24  2  0  0  0  0
M  END
>  <MODEL>
9

>  <REMARK>
 VINA RESULT:      -9.6      1.197      6.236
  Name = 
  1 active torsions:
  status: ('A' for Active; 'I' for Inactive)
    1  A    between atoms: C_1  and  C_2
                            x       y       z     vdW  Elec       q    Type
                         _______ _______ _______ _____ _____    ______ ____

>  <TORSDO>
F 1

$$$$
