=
 OpenBabel10262420413D

 55 58  0  0  1  0  0  0  0  0999 V2000
  186.6930  177.6940  145.9050 C   0  0  0  0  0  2  0  0  0  0  0  0
  186.4540  177.7810  143.8320 C   0  0  2  0  0  0  0  0  0  0  0  0
  184.9390  179.0400  145.3470 O   0  0  0  0  0  1  0  0  0  0  0  0
  186.9170  176.6870  144.8120 C   0  0  0  0  0  2  0  0  0  0  0  0
  186.2830  178.8060  144.9750 C   0  0  1  0  0  3  0  0  0  0  0  0
  185.2750  177.6790  142.7620 C   0  0  0  0  0  2  0  0  0  0  0  0
  184.8450  179.0650  142.1480 C   0  0  0  0  0  2  0  0  0  0  0  0
  183.7120  178.7280  141.1310 C   0  0  0  0  0  2  0  0  0  0  0  0
  183.8870  177.6050  139.1910 O   0  0  0  0  0  0  0  0  0  0  0  0
  182.5450  177.6530  138.7520 C   0  0  1  0  0  3  0  0  0  0  0  0
  183.8240  178.8910  139.6890 N   0  0  0  0  0  0  0  0  0  0  0  0
  182.4740  179.0790  139.2160 C   0  0  0  0  0  2  0  0  0  0  0  0
  182.4940  177.5620  137.3290 O   0  0  0  0  0  0  0  0  0  0  0  0
  183.2560  176.5190  136.7330 C   0  0  0  0  0  0  0  0  0  0  0  0
  183.8760  176.7750  135.7010 O   0  0  0  0  0  0  0  0  0  0  0  0
  183.3260  175.0870  137.2980 C   0  0  2  0  0  3  0  0  0  0  0  0
  184.6440  173.1550  137.7750 O   0  0  0  0  0  1  0  0  0  0  0  0
  184.6990  174.4080  137.1670 C   0  0  0  0  0  2  0  0  0  0  0  0
  182.4360  174.0660  135.2660 O   0  0  0  0  0  1  0  0  0  0  0  0
  182.1900  174.2780  136.6310 C   0  0  2  0  0  3  0  0  0  0  0  0
  180.7470  174.7860  136.8270 C   0  0  1  0  0  3  0  0  0  0  0  0
  179.8460  174.3970  135.8060 O   0  0  0  0  0  0  0  0  0  0  0  0
  178.9880  173.3940  136.2910 C   0  0  0  0  0  2  0  0  0  0  0  0
  179.4050  172.0490  135.8540 C   0  0  0  0  0  0  0  0  0  0  0  0
  180.2590  171.2720  136.6380 O   0  0  0  0  0  1  0  0  0  0  0  0
  178.9430  171.5690  134.7860 O   0  0  0  0  0  0  0  0  0  0  0  0
  180.2440  174.7200  138.3370 C   0  0  0  0  0  2  0  0  0  0  0  0
  179.1200  177.0950  137.4130 C   0  0  0  0  0  1  0  0  0  0  0  0
  178.9340  175.9180  138.7890 S   0  0  0  0  0  0  0  0  0  0  0  0
  187.6900  178.3040  143.1160 C   0  0  0  0  0  2  0  0  0  0  0  0
  187.6780  177.9210  141.6050 C   0  0  0  0  0  2  0  0  0  0  0  0
  188.8740  176.9390  141.0040 C   0  0  2  0  0  3  0  0  0  0  0  0
  191.0020  177.2680  142.8540 C   0  0  0  0  0  0  0  0  0  0  0  0
  191.5920  178.3140  142.3420 O   0  0  0  0  0  0  0  0  0  0  0  0
  189.7970  176.7460  142.1720 N   0  0  0  0  0  2  0  0  0  0  0  0
  191.5470  176.4380  144.0900 C   0  0  0  0  0  2  0  0  0  0  0  0
  190.0740  176.9190  147.1410 O   0  0  0  0  0  0  0  0  0  0  0  0
  190.9880  175.9770  147.3880 O   0  0  0  0  0  0  0  0  0  0  0  0
  192.0450  176.1750  146.4820 C   0  0  0  0  0  2  0  0  0  0  0  0
  191.5860  177.1390  145.4050 C   0  0  0  0  0  3  0  0  0  0  0  0
  190.1740  177.1840  145.7630 C   0  0  0  0  0  2  0  0  0  0  0  0
  189.7000  177.4170  139.6570 C   0  0  1  0  0  3  0  0  0  0  0  0
  192.1750  177.1090  139.3660 N   0  0  0  0  0  2  0  0  0  0  0  0
  193.1140  175.2330  138.1140 C   0  0  0  0  0  2  0  0  0  0  0  0
  190.6470  175.3780  138.2740 C   0  0  0  0  0  0  0  0  0  0  0  0
  191.7930  174.6160  137.6380 C   0  0  0  0  0  2  0  0  0  0  0  0
  192.9960  176.7460  138.2140 C   0  0  0  0  0  2  0  0  0  0  0  0
  190.8070  176.5570  139.1530 N   0  0  0  0  0  0  0  0  0  0  0  0
  189.5290  175.1590  137.6440 O   0  0  0  0  0  0  0  0  0  0  0  0
  189.3590  178.7940  137.8550 O   0  0  0  0  0  0  0  0  0  0  0  0
  187.4450  177.3160  138.2390 N   0  0  0  0  0  2  0  0  0  0  0  0
  188.8070  177.8570  138.5280 C   0  0  0  0  0  0  0  0  0  0  0  0
  186.8180  177.9980  137.1340 C   0  0  1  0  0  3  0  0  0  0  0  0
  186.3170  179.2380  137.5010 O   0  0  0  0  0  1  0  0  0  0  0  0
  187.6100  177.9720  135.8840 C   0  0  0  0  0  1  0  0  0  0  0  0
  2  6  1  6  0  0  0
  2  4  1  0  0  0  0
  2  5  1  0  0  0  0
  4  1  1  0  0  0  0
  5  3  1  1  0  0  0
  5  1  1  0  0  0  0
  7  6  1  0  0  0  0
  8  7  1  0  0  0  0
  9 11  1  0  0  0  0
 10 13  1  6  0  0  0
 10  9  1  0  0  0  0
 10 12  1  0  0  0  0
 11  8  1  0  0  0  0
 12 11  1  0  0  0  0
 14 16  1  0  0  0  0
 14 13  1  0  0  0  0
 15 14  2  0  0  0  0
 16 18  1  6  0  0  0
 18 17  1  0  0  0  0
 20 19  1  6  0  0  0
 20 21  1  0  0  0  0
 20 16  1  0  0  0  0
 21 27  1  1  0  0  0
 22 23  1  0  0  0  0
 22 21  1  0  0  0  0
 24 23  1  0  0  0  0
 24 25  1  0  0  0  0
 26 24  2  0  0  0  0
 27 29  1  0  0  0  0
 28 29  1  0  0  0  0
 30  2  1  0  0  0  0
 31 30  1  0  0  0  0
 32 31  1  1  0  0  0
 32 35  1  0  0  0  0
 33 36  1  0  0  0  0
 34 33  2  0  0  0  0
 35 33  1  0  0  0  0
 36 40  1  0  0  0  0
 37 38  1  0  0  0  0
 39 38  1  0  0  0  0
 40 41  1  0  0  0  0
 40 39  1  0  0  0  0
 41 37  1  0  0  0  0
 42 52  1  6  0  0  0
 42 32  1  0  0  0  0
 44 47  1  0  0  0  0
 45 48  1  0  0  0  0
 46 44  1  0  0  0  0
 46 45  1  0  0  0  0
 47 43  1  0  0  0  0
 48 43  1  0  0  0  0
 48 42  1  0  0  0  0
 49 45  2  0  0  0  0
 50 52  2  0  0  0  0
 51 52  1  0  0  0  0
 53 55  1  6  0  0  0
 53 54  1  0  0  0  0
 53 51  1  0  0  0  0
M  END
>  <MODEL>
1

>  <REMARK>
 VINA RESULT:      -5.6      0.000      0.000
  Name = 
  25 active torsions:
  status: ('A' for Active; 'I' for Inactive)
    1  A    between atoms: C_1  and  C_29
    2  A    between atoms: C_2  and  C_28
    3  A    between atoms: C_2  and  C_31
    4  A    between atoms: C_3  and  S_25
    5  A    between atoms: C_3  and  C_38
    6  A    between atoms: C_4  and  N_40
    7  A    between atoms: C_6  and  C_14
    8  A    between atoms: C_6  and  C_20
    9  A    between atoms: C_6  and  C_53
   10  A    between atoms: O_7  and  C_20
   11  A    between atoms: O_7  and  C_22
   12  A    between atoms: C_13  and  C_48
   13  A    between atoms: C_14  and  C_38
   14  A    between atoms: O_21  and  C_29
   15  A    between atoms: O_21  and  C_38
   16  A    between atoms: N_26  and  C_49
   17  A    between atoms: C_27  and  C_31
   18  A    between atoms: C_27  and  C_54
   19  A    between atoms: C_28  and  C_33
   20  A    between atoms: C_33  and  C_49
   21  A    between atoms: C_33  and  N_52
   22  A    between atoms: N_35  and  C_51
   23  A    between atoms: C_39  and  C_48
   24  A    between atoms: C_45  and  C_49
   25  A    between atoms: C_51  and  C_54
                            x       y       z     vdW  Elec       q    Type
                         _______ _______ _______ _____ _____    ______ ____

>  <TORSDO>
F 25

$$$$
=
 OpenBabel10262420413D

 55 58  0  0  1  0  0  0  0  0999 V2000
  185.6370  178.3560  141.9440 C   0  0  0  0  0  2  0  0  0  0  0  0
  184.1970  178.8810  143.3620 C   0  0  2  0  0  0  0  0  0  0  0  0
  185.9430  180.5010  142.6540 O   0  0  0  0  0  1  0  0  0  0  0  0
  184.9290  177.5720  143.0130 C   0  0  0  0  0  2  0  0  0  0  0  0
  184.9050  179.6430  142.2200 C   0  0  1  0  0  3  0  0  0  0  0  0
  184.1310  179.5970  144.7870 C   0  0  0  0  0  2  0  0  0  0  0  0
  184.2830  178.6110  146.0070 C   0  0  0  0  0  2  0  0  0  0  0  0
  185.8000  178.6410  146.3700 C   0  0  0  0  0  2  0  0  0  0  0  0
  187.4950  177.7270  145.2090 O   0  0  0  0  0  0  0  0  0  0  0  0
  188.5860  178.0930  146.0310 C   0  0  1  0  0  3  0  0  0  0  0  0
  186.6860  177.4880  146.3020 N   0  0  0  0  0  0  0  0  0  0  0  0
  187.7510  177.7650  147.2350 C   0  0  0  0  0  2  0  0  0  0  0  0
  189.6530  177.1610  145.8650 O   0  0  0  0  0  0  0  0  0  0  0  0
  190.4290  177.2900  144.6800 C   0  0  0  0  0  0  0  0  0  0  0  0
  191.4150  178.0270  144.7130 O   0  0  0  0  0  0  0  0  0  0  0  0
  190.0880  176.5780  143.3570 C   0  0  2  0  0  3  0  0  0  0  0  0
  191.9260  175.2130  144.0310 O   0  0  0  0  0  1  0  0  0  0  0  0
  190.9350  175.3300  143.0580 C   0  0  0  0  0  2  0  0  0  0  0  0
  189.3070  178.7210  142.4850 O   0  0  0  0  0  1  0  0  0  0  0  0
  190.1650  177.6380  142.2340 C   0  0  2  0  0  3  0  0  0  0  0  0
  189.9780  177.1510  140.7830 C   0  0  1  0  0  3  0  0  0  0  0  0
  188.6340  177.1410  140.3370 O   0  0  0  0  0  0  0  0  0  0  0  0
  188.6030  177.0370  138.9360 C   0  0  0  0  0  2  0  0  0  0  0  0
  187.8220  178.1240  138.3160 C   0  0  0  0  0  0  0  0  0  0  0  0
  188.1290  178.5900  137.0370 O   0  0  0  0  0  0  0  0  0  0  0  0
  186.8300  178.6040  138.9250 O   0  0  0  0  0  1  0  0  0  0  0  0
  191.0970  177.6810  139.7810 C   0  0  0  0  0  2  0  0  0  0  0  0
  191.9020  176.4000  137.4430 C   0  0  0  0  0  1  0  0  0  0  0  0
  192.3110  176.4310  139.2160 S   0  0  0  0  0  0  0  0  0  0  0  0
  182.7760  178.7620  142.8340 C   0  0  0  0  0  2  0  0  0  0  0  0
  182.7530  178.6220  141.2830 C   0  0  0  0  0  2  0  0  0  0  0  0
  181.4710  179.2360  140.4260 C   0  0  2  0  0  3  0  0  0  0  0  0
  179.6300  177.1900  141.1200 C   0  0  0  0  0  0  0  0  0  0  0  0
  179.5550  177.3760  142.4100 O   0  0  0  0  0  0  0  0  0  0  0  0
  180.5150  178.0820  140.3390 N   0  0  0  0  0  2  0  0  0  0  0  0
  178.9320  176.0010  140.3360 C   0  0  0  0  0  2  0  0  0  0  0  0
  180.4610  174.0450  137.9820 O   0  0  0  0  0  0  0  0  0  0  0  0
  181.4310  174.8810  138.3620 O   0  0  0  0  0  0  0  0  0  0  0  0
  181.1770  175.2330  139.6980 C   0  0  0  0  0  2  0  0  0  0  0  0
  179.7680  174.8000  140.0550 C   0  0  0  0  0  3  0  0  0  0  0  0
  179.3260  174.4320  138.7160 C   0  0  0  0  0  2  0  0  0  0  0  0
  181.7460  179.9020  138.9410 C   0  0  1  0  0  3  0  0  0  0  0  0
  180.2230  178.9770  137.1710 N   0  0  0  0  0  2  0  0  0  0  0  0
  180.9780  177.3170  135.5450 C   0  0  0  0  0  2  0  0  0  0  0  0
  182.6200  178.0940  137.2270 C   0  0  0  0  0  0  0  0  0  0  0  0
  182.3930  177.1110  136.0970 C   0  0  0  0  0  2  0  0  0  0  0  0
  180.0010  177.6230  136.6690 C   0  0  0  0  0  2  0  0  0  0  0  0
  181.6030  179.0420  137.7320 N   0  0  0  0  0  0  0  0  0  0  0  0
  183.6290  177.7370  137.9670 O   0  0  0  0  0  0  0  0  0  0  0  0
  180.2520  181.4670  139.7020 O   0  0  0  0  0  0  0  0  0  0  0  0
  181.2510  182.1330  137.5680 N   0  0  0  0  0  2  0  0  0  0  0  0
  181.0590  181.2270  138.7390 C   0  0  0  0  0  0  0  0  0  0  0  0
  180.3940  183.2910  137.6370 C   0  0  1  0  0  3  0  0  0  0  0  0
  181.1170  184.4730  137.7090 O   0  0  0  0  0  1  0  0  0  0  0  0
  179.2860  183.2780  136.6560 C   0  0  0  0  0  1  0  0  0  0  0  0
  1  5  1  0  0  0  0
  1  4  1  0  0  0  0
  2 30  1  6  0  0  0
  2  6  1  0  0  0  0
  4  2  1  0  0  0  0
  5  3  1  1  0  0  0
  5  2  1  0  0  0  0
  6  7  1  0  0  0  0
  7  8  1  0  0  0  0
  9 10  1  0  0  0  0
  9 11  1  0  0  0  0
 10 13  1  6  0  0  0
 10 12  1  0  0  0  0
 11  8  1  0  0  0  0
 11 12  1  0  0  0  0
 14 15  2  0  0  0  0
 14 13  1  0  0  0  0
 16 18  1  6  0  0  0
 16 14  1  0  0  0  0
 18 17  1  0  0  0  0
 20 19  1  1  0  0  0
 20 16  1  0  0  0  0
 21 27  1  6  0  0  0
 21 20  1  0  0  0  0
 22 21  1  0  0  0  0
 23 22  1  0  0  0  0
 24 26  1  0  0  0  0
 24 23  1  0  0  0  0
 25 24  2  0  0  0  0
 28 29  1  0  0  0  0
 29 27  1  0  0  0  0
 31 30  1  0  0  0  0
 32 31  1  6  0  0  0
 33 34  2  0  0  0  0
 35 32  1  0  0  0  0
 35 33  1  0  0  0  0
 36 33  1  0  0  0  0
 37 38  1  0  0  0  0
 37 41  1  0  0  0  0
 38 39  1  0  0  0  0
 39 40  1  0  0  0  0
 40 36  1  0  0  0  0
 41 40  1  0  0  0  0
 42 52  1  6  0  0  0
 42 32  1  0  0  0  0
 43 48  1  0  0  0  0
 44 46  1  0  0  0  0
 44 47  1  0  0  0  0
 45 48  1  0  0  0  0
 45 49  2  0  0  0  0
 46 45  1  0  0  0  0
 47 43  1  0  0  0  0
 48 42  1  0  0  0  0
 51 53  1  0  0  0  0
 51 52  1  0  0  0  0
 52 50  2  0  0  0  0
 53 55  1  6  0  0  0
 53 54  1  0  0  0  0
M  END
>  <MODEL>
2

>  <REMARK>
 VINA RESULT:      -5.1      3.389      9.762
  Name = 
  25 active torsions:
  status: ('A' for Active; 'I' for Inactive)
    1  A    between atoms: C_1  and  C_29
    2  A    between atoms: C_2  and  C_28
    3  A    between atoms: C_2  and  C_31
    4  A    between atoms: C_3  and  S_25
    5  A    between atoms: C_3  and  C_38
    6  A    between atoms: C_4  and  N_40
    7  A    between atoms: C_6  and  C_14
    8  A    between atoms: C_6  and  C_20
    9  A    between atoms: C_6  and  C_53
   10  A    between atoms: O_7  and  C_20
   11  A    between atoms: O_7  and  C_22
   12  A    between atoms: C_13  and  C_48
   13  A    between atoms: C_14  and  C_38
   14  A    between atoms: O_21  and  C_29
   15  A    between atoms: O_21  and  C_38
   16  A    between atoms: N_26  and  C_49
   17  A    between atoms: C_27  and  C_31
   18  A    between atoms: C_27  and  C_54
   19  A    between atoms: C_28  and  C_33
   20  A    between atoms: C_33  and  C_49
   21  A    between atoms: C_33  and  N_52
   22  A    between atoms: N_35  and  C_51
   23  A    between atoms: C_39  and  C_48
   24  A    between atoms: C_45  and  C_49
   25  A    between atoms: C_51  and  C_54
                            x       y       z     vdW  Elec       q    Type
                         _______ _______ _______ _____ _____    ______ ____

>  <TORSDO>
F 25

$$$$
=
 OpenBabel10262420413D

 55 58  0  0  1  0  0  0  0  0999 V2000
  187.0890  177.6370  146.7340 C   0  0  0  0  0  2  0  0  0  0  0  0
  186.6490  177.8950  144.7090 C   0  0  2  0  0  0  0  0  0  0  0  0
  185.3970  179.1400  146.4570 O   0  0  0  0  0  1  0  0  0  0  0  0
  187.1240  176.7010  145.5590 C   0  0  0  0  0  2  0  0  0  0  0  0
  186.6750  178.8420  145.9300 C   0  0  1  0  0  3  0  0  0  0  0  0
  185.3640  177.9550  143.7650 C   0  0  0  0  0  2  0  0  0  0  0  0
  185.1380  179.3560  143.0800 C   0  0  0  0  0  2  0  0  0  0  0  0
  184.1740  179.0760  141.8860 C   0  0  0  0  0  2  0  0  0  0  0  0
  183.8710  177.6930  140.1390 O   0  0  0  0  0  0  0  0  0  0  0  0
  183.0110  178.4830  139.3420 C   0  0  1  0  0  3  0  0  0  0  0  0
  184.6080  178.7940  140.5260 N   0  0  0  0  0  0  0  0  0  0  0  0
  183.8440  179.6840  139.6850 C   0  0  0  0  0  2  0  0  0  0  0  0
  183.1540  178.1230  137.9690 O   0  0  0  0  0  0  0  0  0  0  0  0
  181.9680  178.1370  137.1830 C   0  0  0  0  0  0  0  0  0  0  0  0
  182.0850  178.0450  135.9610 O   0  0  0  0  0  0  0  0  0  0  0  0
  180.5550  178.2850  137.7780 C   0  0  2  0  0  3  0  0  0  0  0  0
  180.4100  175.9670  137.2240 O   0  0  0  0  0  1  0  0  0  0  0  0
  179.6320  177.0760  137.5580 C   0  0  0  0  0  2  0  0  0  0  0  0
  180.7470  180.1260  136.1860 O   0  0  0  0  0  1  0  0  0  0  0  0
  179.9620  179.6020  137.2250 C   0  0  2  0  0  3  0  0  0  0  0  0
  179.6320  180.7140  138.2410 C   0  0  1  0  0  3  0  0  0  0  0  0
  178.9310  181.8160  137.6940 O   0  0  0  0  0  0  0  0  0  0  0  0
  179.8450  182.8080  137.2980 C   0  0  0  0  0  2  0  0  0  0  0  0
  179.2520  183.7590  136.3400 C   0  0  0  0  0  0  0  0  0  0  0  0
  178.9310  183.3630  135.0410 O   0  0  0  0  0  0  0  0  0  0  0  0
  178.9790  184.9300  136.7120 O   0  0  0  0  0  1  0  0  0  0  0  0
  179.1770  180.1660  139.6650 C   0  0  0  0  0  2  0  0  0  0  0  0
  179.7280  180.5870  142.3630 C   0  0  0  0  0  1  0  0  0  0  0  0
  178.9330  181.4370  140.9620 S   0  0  0  0  0  0  0  0  0  0  0  0
  187.8430  178.3820  143.9010 C   0  0  0  0  0  2  0  0  0  0  0  0
  187.7210  177.9760  142.4020 C   0  0  0  0  0  2  0  0  0  0  0  0
  188.9320  177.0860  141.6970 C   0  0  2  0  0  3  0  0  0  0  0  0
  190.7790  175.8820  143.4860 C   0  0  0  0  0  0  0  0  0  0  0  0
  190.7860  174.6620  143.0220 O   0  0  0  0  0  0  0  0  0  0  0  0
  189.9160  176.8770  142.8120 N   0  0  0  0  0  2  0  0  0  0  0  0
  191.5400  176.3570  144.7940 C   0  0  0  0  0  2  0  0  0  0  0  0
  192.1440  175.7800  148.1110 O   0  0  0  0  0  0  0  0  0  0  0  0
  191.5660  176.9840  148.1110 O   0  0  0  0  0  0  0  0  0  0  0  0
  190.7020  177.0310  147.0040 C   0  0  0  0  0  2  0  0  0  0  0  0
  191.0140  175.8560  146.0960 C   0  0  0  0  0  3  0  0  0  0  0  0
  192.2320  175.4080  146.7580 C   0  0  0  0  0  2  0  0  0  0  0  0
  189.6740  177.6720  140.3440 C   0  0  1  0  0  3  0  0  0  0  0  0
  192.1740  177.7520  140.1290 N   0  0  0  0  0  2  0  0  0  0  0  0
  193.4250  176.0720  138.8700 C   0  0  0  0  0  2  0  0  0  0  0  0
  190.9610  175.8370  138.9510 C   0  0  0  0  0  0  0  0  0  0  0  0
  192.2280  175.2740  138.3390 C   0  0  0  0  0  2  0  0  0  0  0  0
  193.0740  177.5470  138.9970 C   0  0  0  0  0  2  0  0  0  0  0  0
  190.9130  177.0030  139.8590 N   0  0  0  0  0  0  0  0  0  0  0  0
  189.9090  175.4660  138.2800 O   0  0  0  0  0  0  0  0  0  0  0  0
  189.1220  178.9300  138.5070 O   0  0  0  0  0  0  0  0  0  0  0  0
  187.4690  177.1740  138.9310 N   0  0  0  0  0  2  0  0  0  0  0  0
  188.7250  177.9340  139.2040 C   0  0  0  0  0  0  0  0  0  0  0  0
  186.7450  177.7170  137.8080 C   0  0  1  0  0  3  0  0  0  0  0  0
  186.2310  178.9780  138.0780 O   0  0  0  0  0  1  0  0  0  0  0  0
  187.4480  177.5770  136.5140 C   0  0  0  0  0  1  0  0  0  0  0  0
  2  6  1  6  0  0  0
  2  4  1  0  0  0  0
  2  5  1  0  0  0  0
  4  1  1  0  0  0  0
  5  3  1  1  0  0  0
  5  1  1  0  0  0  0
  7  6  1  0  0  0  0
  8  7  1  0  0  0  0
  9 11  1  0  0  0  0
 10 13  1  6  0  0  0
 10 12  1  0  0  0  0
 10  9  1  0  0  0  0
 11  8  1  0  0  0  0
 12 11  1  0  0  0  0
 14 16  1  0  0  0  0
 14 13  1  0  0  0  0
 15 14  2  0  0  0  0
 16 18  1  6  0  0  0
 17 18  1  0  0  0  0
 20 19  1  6  0  0  0
 20 16  1  0  0  0  0
 20 21  1  0  0  0  0
 21 27  1  1  0  0  0
 22 21  1  0  0  0  0
 23 22  1  0  0  0  0
 24 26  1  0  0  0  0
 24 23  1  0  0  0  0
 25 24  2  0  0  0  0
 27 29  1  0  0  0  0
 29 28  1  0  0  0  0
 30  2  1  0  0  0  0
 31 30  1  0  0  0  0
 32 31  1  1  0  0  0
 32 35  1  0  0  0  0
 33 36  1  0  0  0  0
 34 33  2  0  0  0  0
 35 33  1  0  0  0  0
 36 40  1  0  0  0  0
 37 38  1  0  0  0  0
 39 38  1  0  0  0  0
 40 41  1  0  0  0  0
 40 39  1  0  0  0  0
 41 37  1  0  0  0  0
 42 52  1  6  0  0  0
 42 32  1  0  0  0  0
 44 47  1  0  0  0  0
 45 48  1  0  0  0  0
 46 44  1  0  0  0  0
 46 45  1  0  0  0  0
 47 43  1  0  0  0  0
 48 43  1  0  0  0  0
 48 42  1  0  0  0  0
 49 45  2  0  0  0  0
 50 52  2  0  0  0  0
 51 52  1  0  0  0  0
 53 55  1  6  0  0  0
 53 54  1  0  0  0  0
 53 51  1  0  0  0  0
M  END
>  <MODEL>
3

>  <REMARK>
 VINA RESULT:      -4.7      2.612      4.244
  Name = 
  25 active torsions:
  status: ('A' for Active; 'I' for Inactive)
    1  A    between atoms: C_1  and  C_29
    2  A    between atoms: C_2  and  C_28
    3  A    between atoms: C_2  and  C_31
    4  A    between atoms: C_3  and  S_25
    5  A    between atoms: C_3  and  C_38
    6  A    between atoms: C_4  and  N_40
    7  A    between atoms: C_6  and  C_14
    8  A    between atoms: C_6  and  C_20
    9  A    between atoms: C_6  and  C_53
   10  A    between atoms: O_7  and  C_20
   11  A    between atoms: O_7  and  C_22
   12  A    between atoms: C_13  and  C_48
   13  A    between atoms: C_14  and  C_38
   14  A    between atoms: O_21  and  C_29
   15  A    between atoms: O_21  and  C_38
   16  A    between atoms: N_26  and  C_49
   17  A    between atoms: C_27  and  C_31
   18  A    between atoms: C_27  and  C_54
   19  A    between atoms: C_28  and  C_33
   20  A    between atoms: C_33  and  C_49
   21  A    between atoms: C_33  and  N_52
   22  A    between atoms: N_35  and  C_51
   23  A    between atoms: C_39  and  C_48
   24  A    between atoms: C_45  and  C_49
   25  A    between atoms: C_51  and  C_54
                            x       y       z     vdW  Elec       q    Type
                         _______ _______ _______ _____ _____    ______ ____

>  <TORSDO>
F 25

$$$$
=
 OpenBabel10262420413D

 55 58  0  0  1  0  0  0  0  0999 V2000
  180.5650  178.8080  139.4890 C   0  0  0  0  0  2  0  0  0  0  0  0
  182.3540  177.7430  139.3340 C   0  0  2  0  0  0  0  0  0  0  0  0
  180.9120  177.5310  141.3470 O   0  0  0  0  0  1  0  0  0  0  0  0
  181.8860  179.1270  138.8480 C   0  0  0  0  0  2  0  0  0  0  0  0
  180.9680  177.4270  139.9370 C   0  0  1  0  0  3  0  0  0  0  0  0
  183.6320  177.4200  140.2330 C   0  0  0  0  0  2  0  0  0  0  0  0
  184.4490  178.6960  140.6680 C   0  0  0  0  0  2  0  0  0  0  0  0
  183.9480  179.0300  142.1080 C   0  0  0  0  0  2  0  0  0  0  0  0
  185.2330  178.0200  143.6520 O   0  0  0  0  0  0  0  0  0  0  0  0
  184.9470  178.8240  144.7790 C   0  0  1  0  0  3  0  0  0  0  0  0
  183.9260  178.0820  143.2120 N   0  0  0  0  0  0  0  0  0  0  0  0
  183.5040  178.8420  144.3640 C   0  0  0  0  0  2  0  0  0  0  0  0
  185.1380  178.0690  145.9750 O   0  0  0  0  0  0  0  0  0  0  0  0
  186.4090  178.1870  146.6030 C   0  0  0  0  0  0  0  0  0  0  0  0
  186.5650  179.0900  147.4240 O   0  0  0  0  0  0  0  0  0  0  0  0
  187.6000  177.2610  146.2920 C   0  0  2  0  0  3  0  0  0  0  0  0
  188.3160  177.3810  148.5670 O   0  0  0  0  0  1  0  0  0  0  0  0
  188.1540  176.4930  147.5030 C   0  0  0  0  0  2  0  0  0  0  0  0
  188.0930  179.1270  144.7970 O   0  0  0  0  0  1  0  0  0  0  0  0
  188.6730  178.1200  145.5840 C   0  0  2  0  0  3  0  0  0  0  0  0
  189.7520  177.3790  144.7690 C   0  0  1  0  0  3  0  0  0  0  0  0
  189.7110  177.6330  143.3760 O   0  0  0  0  0  0  0  0  0  0  0  0
  190.2020  176.5150  142.6780 C   0  0  0  0  0  2  0  0  0  0  0  0
  190.1270  176.6980  141.2170 C   0  0  0  0  0  0  0  0  0  0  0  0
  189.3150  177.6850  140.6570 O   0  0  0  0  0  1  0  0  0  0  0  0
  190.8460  175.9910  140.4630 O   0  0  0  0  0  0  0  0  0  0  0  0
  191.1760  177.3340  145.4820 C   0  0  0  0  0  2  0  0  0  0  0  0
  192.3290  175.8800  147.5580 C   0  0  0  0  0  1  0  0  0  0  0  0
  191.8420  175.6620  145.8170 S   0  0  0  0  0  0  0  0  0  0  0  0
  182.3930  176.8240  138.1220 C   0  0  0  0  0  2  0  0  0  0  0  0
  183.0520  175.4540  138.4650 C   0  0  0  0  0  2  0  0  0  0  0  0
  184.0200  174.7110  137.3410 C   0  0  2  0  0  3  0  0  0  0  0  0
  185.0560  176.9460  135.9310 C   0  0  0  0  0  0  0  0  0  0  0  0
  184.0480  177.2100  135.1450 O   0  0  0  0  0  0  0  0  0  0  0  0
  184.9270  175.8100  136.8700 N   0  0  0  0  0  2  0  0  0  0  0  0
  186.4610  177.6810  135.8770 C   0  0  0  0  0  2  0  0  0  0  0  0
  189.7850  177.5960  136.6790 O   0  0  0  0  0  0  0  0  0  0  0  0
  189.3180  178.6040  137.4190 O   0  0  0  0  0  0  0  0  0  0  0  0
  187.9720  178.3220  137.7060 C   0  0  0  0  0  2  0  0  0  0  0  0
  187.5130  177.1870  136.8090 C   0  0  0  0  0  3  0  0  0  0  0  0
  188.6820  177.1320  135.9410 C   0  0  0  0  0  2  0  0  0  0  0  0
  183.3160  173.9270  136.0700 C   0  0  1  0  0  3  0  0  0  0  0  0
  182.9080  171.5230  135.4730 N   0  0  0  0  0  2  0  0  0  0  0  0
  184.7350  169.9820  134.9630 C   0  0  0  0  0  2  0  0  0  0  0  0
  185.3370  172.3110  135.5510 C   0  0  0  0  0  0  0  0  0  0  0  0
  185.9000  170.9380  135.2460 C   0  0  0  0  0  2  0  0  0  0  0  0
  183.5590  170.2810  135.8810 C   0  0  0  0  0  2  0  0  0  0  0  0
  183.8950  172.6310  135.6170 N   0  0  0  0  0  0  0  0  0  0  0  0
  186.2180  173.0600  136.1490 O   0  0  0  0  0  0  0  0  0  0  0  0
  181.2570  174.5960  135.3120 O   0  0  0  0  0  0  0  0  0  0  0  0
  181.0670  173.0110  137.1690 N   0  0  0  0  0  2  0  0  0  0  0  0
  181.8160  173.8370  136.1760 C   0  0  0  0  0  0  0  0  0  0  0  0
  179.6410  173.1990  137.0580 C   0  0  1  0  0  3  0  0  0  0  0  0
  178.9310  172.2520  137.7810 O   0  0  0  0  0  1  0  0  0  0  0  0
  179.2030  174.6010  137.2380 C   0  0  0  0  0  1  0  0  0  0  0  0
  1  5  1  0  0  0  0
  2 30  1  6  0  0  0
  2  5  1  0  0  0  0
  2  6  1  0  0  0  0
  4  2  1  0  0  0  0
  4  1  1  0  0  0  0
  5  3  1  1  0  0  0
  6  7  1  0  0  0  0
  7  8  1  0  0  0  0
  8 11  1  0  0  0  0
  9 10  1  0  0  0  0
 10 13  1  1  0  0  0
 11  9  1  0  0  0  0
 11 12  1  0  0  0  0
 12 10  1  0  0  0  0
 13 14  1  0  0  0  0
 14 15  2  0  0  0  0
 16 14  1  0  0  0  0
 16 18  1  1  0  0  0
 18 17  1  0  0  0  0
 20 19  1  6  0  0  0
 20 16  1  0  0  0  0
 21 27  1  1  0  0  0
 21 20  1  0  0  0  0
 22 21  1  0  0  0  0
 23 22  1  0  0  0  0
 24 23  1  0  0  0  0
 25 24  1  0  0  0  0
 26 24  2  0  0  0  0
 27 29  1  0  0  0  0
 29 28  1  0  0  0  0
 30 31  1  0  0  0  0
 32 31  1  1  0  0  0
 33 35  1  0  0  0  0
 34 33  2  0  0  0  0
 35 32  1  0  0  0  0
 36 33  1  0  0  0  0
 36 40  1  0  0  0  0
 37 38  1  0  0  0  0
 38 39  1  0  0  0  0
 40 39  1  0  0  0  0
 41 37  1  0  0  0  0
 41 40  1  0  0  0  0
 42 52  1  1  0  0  0
 42 32  1  0  0  0  0
 43 48  1  0  0  0  0
 43 47  1  0  0  0  0
 44 46  1  0  0  0  0
 44 47  1  0  0  0  0
 45 48  1  0  0  0  0
 45 49  2  0  0  0  0
 46 45  1  0  0  0  0
 48 42  1  0  0  0  0
 50 52  2  0  0  0  0
 52 51  1  0  0  0  0
 53 51  1  0  0  0  0
 53 55  1  1  0  0  0
 53 54  1  0  0  0  0
M  END
>  <MODEL>
4

>  <REMARK>
 VINA RESULT:      -4.5      3.289      9.683
  Name = 
  25 active torsions:
  status: ('A' for Active; 'I' for Inactive)
    1  A    between atoms: C_1  and  C_29
    2  A    between atoms: C_2  and  C_28
    3  A    between atoms: C_2  and  C_31
    4  A    between atoms: C_3  and  S_25
    5  A    between atoms: C_3  and  C_38
    6  A    between atoms: C_4  and  N_40
    7  A    between atoms: C_6  and  C_14
    8  A    between atoms: C_6  and  C_20
    9  A    between atoms: C_6  and  C_53
   10  A    between atoms: O_7  and  C_20
   11  A    between atoms: O_7  and  C_22
   12  A    between atoms: C_13  and  C_48
   13  A    between atoms: C_14  and  C_38
   14  A    between atoms: O_21  and  C_29
   15  A    between atoms: O_21  and  C_38
   16  A    between atoms: N_26  and  C_49
   17  A    between atoms: C_27  and  C_31
   18  A    between atoms: C_27  and  C_54
   19  A    between atoms: C_28  and  C_33
   20  A    between atoms: C_33  and  C_49
   21  A    between atoms: C_33  and  N_52
   22  A    between atoms: N_35  and  C_51
   23  A    between atoms: C_39  and  C_48
   24  A    between atoms: C_45  and  C_49
   25  A    between atoms: C_51  and  C_54
                            x       y       z     vdW  Elec       q    Type
                         _______ _______ _______ _____ _____    ______ ____

>  <TORSDO>
F 25

$$$$
=
 OpenBabel10262420413D

 55 58  0  0  1  0  0  0  0  0999 V2000
  180.0510  179.2200  139.2350 C   0  0  0  0  0  2  0  0  0  0  0  0
  181.8590  178.1850  139.0930 C   0  0  2  0  0  0  0  0  0  0  0  0
  180.1870  177.6020  140.8360 O   0  0  0  0  0  1  0  0  0  0  0  0
  181.4350  179.6430  138.8330 C   0  0  0  0  0  2  0  0  0  0  0  0
  180.4130  177.7740  139.4500 C   0  0  1  0  0  3  0  0  0  0  0  0
  183.0220  177.6780  140.0590 C   0  0  0  0  0  2  0  0  0  0  0  0
  184.1230  178.7650  140.3610 C   0  0  0  0  0  2  0  0  0  0  0  0
  183.8060  179.2780  141.8000 C   0  0  0  0  0  2  0  0  0  0  0  0
  184.9580  178.0250  143.2690 O   0  0  0  0  0  0  0  0  0  0  0  0
  185.0360  178.9240  144.3570 C   0  0  1  0  0  3  0  0  0  0  0  0
  183.6700  178.4210  142.9680 N   0  0  0  0  0  0  0  0  0  0  0  0
  183.6100  179.3170  144.0980 C   0  0  0  0  0  2  0  0  0  0  0  0
  185.1660  178.2000  145.5790 O   0  0  0  0  0  0  0  0  0  0  0  0
  186.4540  178.2010  146.1820 C   0  0  0  0  0  0  0  0  0  0  0  0
  186.7110  179.0910  146.9920 O   0  0  0  0  0  0  0  0  0  0  0  0
  187.5460  177.1630  145.8590 C   0  0  2  0  0  3  0  0  0  0  0  0
  188.7190  176.8720  147.9170 O   0  0  0  0  0  1  0  0  0  0  0  0
  188.8680  177.3580  146.6190 C   0  0  0  0  0  2  0  0  0  0  0  0
  187.0100  176.1190  143.7170 O   0  0  0  0  0  1  0  0  0  0  0  0
  187.7310  177.1590  144.3240 C   0  0  2  0  0  3  0  0  0  0  0  0
  189.1760  177.1760  143.7830 C   0  0  1  0  0  3  0  0  0  0  0  0
  189.3320  176.5690  142.5120 O   0  0  0  0  0  0  0  0  0  0  0  0
  190.6960  176.5270  142.1750 C   0  0  0  0  0  2  0  0  0  0  0  0
  190.9660  177.1750  140.8780 C   0  0  0  0  0  0  0  0  0  0  0  0
  192.2640  177.5370  140.5130 O   0  0  0  0  0  1  0  0  0  0  0  0
  190.0240  177.3570  140.0640 O   0  0  0  0  0  0  0  0  0  0  0  0
  189.9480  178.5400  144.0620 C   0  0  0  0  0  2  0  0  0  0  0  0
  191.6840  177.0850  145.6830 C   0  0  0  0  0  1  0  0  0  0  0  0
  191.7410  178.3800  144.4050 S   0  0  0  0  0  0  0  0  0  0  0  0
  182.0550  177.5200  137.7390 C   0  0  0  0  0  2  0  0  0  0  0  0
  181.7740  175.9890  137.8090 C   0  0  0  0  0  2  0  0  0  0  0  0
  183.0230  174.9190  137.5860 C   0  0  2  0  0  3  0  0  0  0  0  0
  184.3370  176.4610  135.5970 C   0  0  0  0  0  0  0  0  0  0  0  0
  183.4000  176.5130  134.6900 O   0  0  0  0  0  0  0  0  0  0  0  0
  184.0540  175.7250  136.8480 N   0  0  0  0  0  2  0  0  0  0  0  0
  185.8060  177.0300  135.4130 C   0  0  0  0  0  2  0  0  0  0  0  0
  188.7050  178.0960  136.8840 O   0  0  0  0  0  0  0  0  0  0  0  0
  187.7920  178.9500  137.3540 O   0  0  0  0  0  0  0  0  0  0  0  0
  186.5660  178.2660  137.3970 C   0  0  0  0  0  2  0  0  0  0  0  0
  186.7000  176.9790  136.6050 C   0  0  0  0  0  3  0  0  0  0  0  0
  188.0050  177.2440  136.0130 C   0  0  0  0  0  2  0  0  0  0  0  0
  182.7240  173.4860  136.8240 C   0  0  1  0  0  3  0  0  0  0  0  0
  180.9080  174.6430  135.5330 N   0  0  0  0  0  2  0  0  0  0  0  0
  179.0040  173.4310  134.5950 C   0  0  0  0  0  2  0  0  0  0  0  0
  180.6840  172.1190  135.8560 C   0  0  0  0  0  0  0  0  0  0  0  0
  179.3400  172.0450  135.1580 C   0  0  0  0  0  2  0  0  0  0  0  0
  179.4520  174.5240  135.5540 C   0  0  0  0  0  2  0  0  0  0  0  0
  181.4850  173.3530  136.0070 N   0  0  0  0  0  0  0  0  0  0  0  0
  180.8550  171.1060  136.6560 O   0  0  0  0  0  0  0  0  0  0  0  0
  183.7490  173.0460  134.8190 O   0  0  0  0  0  0  0  0  0  0  0  0
  185.1180  172.3180  136.7140 N   0  0  0  0  0  2  0  0  0  0  0  0
  183.9150  172.9390  136.0830 C   0  0  0  0  0  0  0  0  0  0  0  0
  186.0490  171.8260  135.7290 C   0  0  1  0  0  3  0  0  0  0  0  0
  187.3620  171.8920  136.1730 O   0  0  0  0  0  1  0  0  0  0  0  0
  185.6480  170.5450  135.1080 C   0  0  0  0  0  1  0  0  0  0  0  0
  1  5  1  0  0  0  0
  2 30  1  6  0  0  0
  2  5  1  0  0  0  0
  2  6  1  0  0  0  0
  4  2  1  0  0  0  0
  4  1  1  0  0  0  0
  5  3  1  1  0  0  0
  6  7  1  0  0  0  0
  7  8  1  0  0  0  0
  8 11  1  0  0  0  0
  9 10  1  0  0  0  0
 10 13  1  1  0  0  0
 11  9  1  0  0  0  0
 11 12  1  0  0  0  0
 12 10  1  0  0  0  0
 13 14  1  0  0  0  0
 14 15  2  0  0  0  0
 16 14  1  0  0  0  0
 16 18  1  1  0  0  0
 18 17  1  0  0  0  0
 20 19  1  1  0  0  0
 20 16  1  0  0  0  0
 21 27  1  6  0  0  0
 21 20  1  0  0  0  0
 22 21  1  0  0  0  0
 23 22  1  0  0  0  0
 24 23  1  0  0  0  0
 25 24  1  0  0  0  0
 26 24  2  0  0  0  0
 27 29  1  0  0  0  0
 29 28  1  0  0  0  0
 30 31  1  0  0  0  0
 32 31  1  6  0  0  0
 33 35  1  0  0  0  0
 34 33  2  0  0  0  0
 35 32  1  0  0  0  0
 36 33  1  0  0  0  0
 36 40  1  0  0  0  0
 37 38  1  0  0  0  0
 38 39  1  0  0  0  0
 40 39  1  0  0  0  0
 41 40  1  0  0  0  0
 41 37  1  0  0  0  0
 42 52  1  6  0  0  0
 42 32  1  0  0  0  0
 43 47  1  0  0  0  0
 43 48  1  0  0  0  0
 44 46  1  0  0  0  0
 44 47  1  0  0  0  0
 45 48  1  0  0  0  0
 45 49  2  0  0  0  0
 46 45  1  0  0  0  0
 48 42  1  0  0  0  0
 50 52  2  0  0  0  0
 52 51  1  0  0  0  0
 53 55  1  1  0  0  0
 53 54  1  0  0  0  0
 53 51  1  0  0  0  0
M  END
>  <MODEL>
5

>  <REMARK>
 VINA RESULT:      -4.4      3.326      9.918
  Name = 
  25 active torsions:
  status: ('A' for Active; 'I' for Inactive)
    1  A    between atoms: C_1  and  C_29
    2  A    between atoms: C_2  and  C_28
    3  A    between atoms: C_2  and  C_31
    4  A    between atoms: C_3  and  S_25
    5  A    between atoms: C_3  and  C_38
    6  A    between atoms: C_4  and  N_40
    7  A    between atoms: C_6  and  C_14
    8  A    between atoms: C_6  and  C_20
    9  A    between atoms: C_6  and  C_53
   10  A    between atoms: O_7  and  C_20
   11  A    between atoms: O_7  and  C_22
   12  A    between atoms: C_13  and  C_48
   13  A    between atoms: C_14  and  C_38
   14  A    between atoms: O_21  and  C_29
   15  A    between atoms: O_21  and  C_38
   16  A    between atoms: N_26  and  C_49
   17  A    between atoms: C_27  and  C_31
   18  A    between atoms: C_27  and  C_54
   19  A    between atoms: C_28  and  C_33
   20  A    between atoms: C_33  and  C_49
   21  A    between atoms: C_33  and  N_52
   22  A    between atoms: N_35  and  C_51
   23  A    between atoms: C_39  and  C_48
   24  A    between atoms: C_45  and  C_49
   25  A    between atoms: C_51  and  C_54
                            x       y       z     vdW  Elec       q    Type
                         _______ _______ _______ _____ _____    ______ ____

>  <TORSDO>
F 25

$$$$
=
 OpenBabel10262420413D

 55 58  0  0  1  0  0  0  0  0999 V2000
  186.2230  177.8530  146.1140 C   0  0  0  0  0  2  0  0  0  0  0  0
  185.9830  178.0460  144.0490 C   0  0  2  0  0  0  0  0  0  0  0  0
  184.7620  179.5330  145.6210 O   0  0  0  0  0  1  0  0  0  0  0  0
  186.2330  176.8540  144.9920 C   0  0  0  0  0  2  0  0  0  0  0  0
  186.0300  179.0510  145.2210 C   0  0  1  0  0  3  0  0  0  0  0  0
  184.7960  178.2080  142.9950 C   0  0  0  0  0  2  0  0  0  0  0  0
  183.7560  179.3310  143.3710 C   0  0  0  0  0  2  0  0  0  0  0  0
  182.5090  178.5680  143.9150 C   0  0  0  0  0  2  0  0  0  0  0  0
  181.1880  179.9920  142.7820 O   0  0  0  0  0  0  0  0  0  0  0  0
  181.1440  179.3460  141.5260 C   0  0  1  0  0  3  0  0  0  0  0  0
  181.1450  178.7900  143.4600 N   0  0  0  0  0  0  0  0  0  0  0  0
  181.0170  178.0310  142.2390 C   0  0  0  0  0  2  0  0  0  0  0  0
  179.9390  179.6890  140.8440 O   0  0  0  0  0  0  0  0  0  0  0  0
  180.0420  180.6940  139.8420 C   0  0  0  0  0  0  0  0  0  0  0  0
  179.7260  181.8440  140.1440 O   0  0  0  0  0  0  0  0  0  0  0  0
  180.5040  180.4130  138.3990 C   0  0  2  0  0  3  0  0  0  0  0  0
  181.1040  182.3870  137.1980 O   0  0  0  0  0  1  0  0  0  0  0  0
  180.0710  181.4650  137.3660 C   0  0  0  0  0  2  0  0  0  0  0  0
  178.9310  178.5930  138.8180 O   0  0  0  0  0  1  0  0  0  0  0  0
  180.0300  178.9860  138.0380 C   0  0  2  0  0  3  0  0  0  0  0  0
  181.0910  177.8670  138.0310 C   0  0  1  0  0  3  0  0  0  0  0  0
  180.7390  176.7220  138.7880 O   0  0  0  0  0  0  0  0  0  0  0  0
  181.3850  175.5910  138.2600 C   0  0  0  0  0  2  0  0  0  0  0  0
  180.4260  174.5650  137.8090 C   0  0  0  0  0  0  0  0  0  0  0  0
  179.6410  174.7660  136.6730 O   0  0  0  0  0  0  0  0  0  0  0  0
  180.3500  173.4700  138.4250 O   0  0  0  0  0  1  0  0  0  0  0  0
  181.7780  177.6440  136.6110 C   0  0  0  0  0  2  0  0  0  0  0  0
  179.8020  177.7110  134.6490 C   0  0  0  0  0  1  0  0  0  0  0  0
  181.1800  178.7310  135.2630 S   0  0  0  0  0  0  0  0  0  0  0  0
  187.2900  178.3370  143.3260 C   0  0  0  0  0  2  0  0  0  0  0  0
  187.1860  178.0090  141.8060 C   0  0  0  0  0  2  0  0  0  0  0  0
  188.3810  178.5270  140.7770 C   0  0  2  0  0  3  0  0  0  0  0  0
  187.0940  177.9140  138.3220 C   0  0  0  0  0  0  0  0  0  0  0  0
  186.1560  178.8230  138.3200 O   0  0  0  0  0  0  0  0  0  0  0  0
  188.0280  177.8810  139.4680 N   0  0  0  0  0  2  0  0  0  0  0  0
  187.2380  176.7630  137.2410 C   0  0  0  0  0  2  0  0  0  0  0  0
  185.1760  174.5390  135.6580 O   0  0  0  0  0  0  0  0  0  0  0  0
  186.3350  173.8800  135.7330 O   0  0  0  0  0  0  0  0  0  0  0  0
  187.0030  174.3430  136.8790 C   0  0  0  0  0  2  0  0  0  0  0  0
  186.3120  175.6020  137.3680 C   0  0  0  0  0  3  0  0  0  0  0  0
  185.4250  175.7990  136.2290 C   0  0  0  0  0  2  0  0  0  0  0  0
  189.9580  178.2510  141.1770 C   0  0  1  0  0  3  0  0  0  0  0  0
  190.9420  178.9970  143.3630 N   0  0  0  0  0  2  0  0  0  0  0  0
  191.2250  177.4710  145.2500 C   0  0  0  0  0  2  0  0  0  0  0  0
  190.2550  176.5440  143.1690 C   0  0  0  0  0  0  0  0  0  0  0  0
  190.7530  176.1880  144.5550 C   0  0  0  0  0  2  0  0  0  0  0  0
  191.9220  178.3930  144.2620 C   0  0  0  0  0  2  0  0  0  0  0  0
  190.2900  177.9040  142.5880 N   0  0  0  0  0  0  0  0  0  0  0  0
  190.1910  175.4910  142.4060 O   0  0  0  0  0  0  0  0  0  0  0  0
  191.9340  177.5210  140.2680 O   0  0  0  0  0  0  0  0  0  0  0  0
  190.0080  176.3600  139.2990 N   0  0  0  0  0  2  0  0  0  0  0  0
  190.6700  177.3340  140.2180 C   0  0  0  0  0  0  0  0  0  0  0  0
  190.9620  175.6830  138.4550 C   0  0  1  0  0  3  0  0  0  0  0  0
  190.4850  174.4630  138.0000 O   0  0  0  0  0  1  0  0  0  0  0  0
  191.5800  176.5510  137.4280 C   0  0  0  0  0  1  0  0  0  0  0  0
  2  6  1  6  0  0  0
  2  4  1  0  0  0  0
  2  5  1  0  0  0  0
  4  1  1  0  0  0  0
  5  3  1  1  0  0  0
  5  1  1  0  0  0  0
  6  7  1  0  0  0  0
  7  8  1  0  0  0  0
  9 11  1  0  0  0  0
 10 13  1  6  0  0  0
 10 12  1  0  0  0  0
 10  9  1  0  0  0  0
 11  8  1  0  0  0  0
 12 11  1  0  0  0  0
 14 15  2  0  0  0  0
 14 13  1  0  0  0  0
 16 18  1  6  0  0  0
 16 14  1  0  0  0  0
 17 18  1  0  0  0  0
 20 16  1  0  0  0  0
 20 19  1  1  0  0  0
 21 27  1  6  0  0  0
 21 20  1  0  0  0  0
 21 22  1  0  0  0  0
 23 22  1  0  0  0  0
 24 23  1  0  0  0  0
 24 26  1  0  0  0  0
 25 24  2  0  0  0  0
 28 29  1  0  0  0  0
 29 27  1  0  0  0  0
 30  2  1  0  0  0  0
 31 30  1  0  0  0  0
 32 42  1  0  0  0  0
 32 31  1  1  0  0  0
 33 35  1  0  0  0  0
 34 33  2  0  0  0  0
 35 32  1  0  0  0  0
 36 40  1  0  0  0  0
 36 33  1  0  0  0  0
 37 38  1  0  0  0  0
 37 41  1  0  0  0  0
 38 39  1  0  0  0  0
 39 40  1  0  0  0  0
 41 40  1  0  0  0  0
 42 52  1  6  0  0  0
 42 48  1  0  0  0  0
 43 47  1  0  0  0  0
 45 46  1  0  0  0  0
 46 44  1  0  0  0  0
 47 44  1  0  0  0  0
 48 45  1  0  0  0  0
 48 43  1  0  0  0  0
 49 45  2  0  0  0  0
 51 52  1  0  0  0  0
 52 50  2  0  0  0  0
 53 55  1  6  0  0  0
 53 51  1  0  0  0  0
 54 53  1  0  0  0  0
M  END
>  <MODEL>
6

>  <REMARK>
 VINA RESULT:      -4.4      2.477      5.707
  Name = 
  25 active torsions:
  status: ('A' for Active; 'I' for Inactive)
    1  A    between atoms: C_1  and  C_29
    2  A    between atoms: C_2  and  C_28
    3  A    between atoms: C_2  and  C_31
    4  A    between atoms: C_3  and  S_25
    5  A    between atoms: C_3  and  C_38
    6  A    between atoms: C_4  and  N_40
    7  A    between atoms: C_6  and  C_14
    8  A    between atoms: C_6  and  C_20
    9  A    between atoms: C_6  and  C_53
   10  A    between atoms: O_7  and  C_20
   11  A    between atoms: O_7  and  C_22
   12  A    between atoms: C_13  and  C_48
   13  A    between atoms: C_14  and  C_38
   14  A    between atoms: O_21  and  C_29
   15  A    between atoms: O_21  and  C_38
   16  A    between atoms: N_26  and  C_49
   17  A    between atoms: C_27  and  C_31
   18  A    between atoms: C_27  and  C_54
   19  A    between atoms: C_28  and  C_33
   20  A    between atoms: C_33  and  C_49
   21  A    between atoms: C_33  and  N_52
   22  A    between atoms: N_35  and  C_51
   23  A    between atoms: C_39  and  C_48
   24  A    between atoms: C_45  and  C_49
   25  A    between atoms: C_51  and  C_54
                            x       y       z     vdW  Elec       q    Type
                         _______ _______ _______ _____ _____    ______ ____

>  <TORSDO>
F 25

$$$$
=
 OpenBabel10262420413D

 55 58  0  0  1  0  0  0  0  0999 V2000
  186.7430  177.7400  145.9820 C   0  0  0  0  0  2  0  0  0  0  0  0
  186.3490  177.8480  143.9340 C   0  0  2  0  0  0  0  0  0  0  0  0
  184.8460  178.9410  145.5830 O   0  0  0  0  0  1  0  0  0  0  0  0
  186.9730  176.7790  144.8500 C   0  0  0  0  0  2  0  0  0  0  0  0
  186.1760  178.8320  145.1130 C   0  0  1  0  0  3  0  0  0  0  0  0
  185.1100  177.6660  142.9460 C   0  0  0  0  0  2  0  0  0  0  0  0
  184.5260  179.0230  142.3940 C   0  0  0  0  0  2  0  0  0  0  0  0
  183.3920  178.6080  141.4070 C   0  0  0  0  0  2  0  0  0  0  0  0
  183.6170  177.5710  139.4250 O   0  0  0  0  0  0  0  0  0  0  0  0
  182.2610  177.4830  139.0340 C   0  0  1  0  0  3  0  0  0  0  0  0
  183.4320  178.8270  139.9690 N   0  0  0  0  0  0  0  0  0  0  0  0
  182.0520  178.8780  139.5490 C   0  0  0  0  0  2  0  0  0  0  0  0
  182.1670  177.4310  137.6110 O   0  0  0  0  0  0  0  0  0  0  0  0
  183.1960  176.7180  136.9340 C   0  0  0  0  0  0  0  0  0  0  0  0
  183.7640  177.2780  135.9970 O   0  0  0  0  0  0  0  0  0  0  0  0
  183.6160  175.2810  137.2970 C   0  0  2  0  0  3  0  0  0  0  0  0
  185.9980  175.2790  137.4550 O   0  0  0  0  0  1  0  0  0  0  0  0
  184.9410  174.8180  136.6700 C   0  0  0  0  0  2  0  0  0  0  0  0
  181.4440  174.3710  137.9430 O   0  0  0  0  0  1  0  0  0  0  0  0
  182.4280  174.3560  136.9420 C   0  0  2  0  0  3  0  0  0  0  0  0
  182.7550  172.8990  136.5550 C   0  0  1  0  0  3  0  0  0  0  0  0
  181.9510  171.9280  137.2010 O   0  0  0  0  0  0  0  0  0  0  0  0
  181.1770  171.2450  136.2450 C   0  0  0  0  0  2  0  0  0  0  0  0
  179.7330  171.4790  136.4320 C   0  0  0  0  0  0  0  0  0  0  0  0
  179.1540  172.7030  136.0900 O   0  0  0  0  0  0  0  0  0  0  0  0
  179.0000  170.5480  136.8540 O   0  0  0  0  0  1  0  0  0  0  0  0
  183.0690  172.7030  135.0060 C   0  0  0  0  0  2  0  0  0  0  0  0
  185.2300  171.4910  136.2760 C   0  0  0  0  0  1  0  0  0  0  0  0
  184.7260  172.0300  134.6120 S   0  0  0  0  0  0  0  0  0  0  0  0
  187.4820  178.4900  143.1470 C   0  0  0  0  0  2  0  0  0  0  0  0
  187.6020  177.8790  141.7180 C   0  0  0  0  0  2  0  0  0  0  0  0
  189.0240  177.1580  141.2570 C   0  0  2  0  0  3  0  0  0  0  0  0
  191.3490  177.4150  142.8660 C   0  0  0  0  0  0  0  0  0  0  0  0
  192.2720  177.1620  141.9790 O   0  0  0  0  0  0  0  0  0  0  0  0
  189.9360  177.3870  142.4270 N   0  0  0  0  0  2  0  0  0  0  0  0
  191.6180  177.6370  144.4130 C   0  0  0  0  0  2  0  0  0  0  0  0
  191.7720  175.5760  147.1400 O   0  0  0  0  0  0  0  0  0  0  0  0
  191.4340  176.7560  147.6670 O   0  0  0  0  0  0  0  0  0  0  0  0
  190.7080  177.4560  146.6890 C   0  0  0  0  0  2  0  0  0  0  0  0
  190.8810  176.7500  145.3580 C   0  0  0  0  0  3  0  0  0  0  0  0
  191.9210  175.8120  145.7620 C   0  0  0  0  0  2  0  0  0  0  0  0
  189.7360  177.6240  139.8420 C   0  0  1  0  0  3  0  0  0  0  0  0
  192.1940  177.3590  139.4020 N   0  0  0  0  0  2  0  0  0  0  0  0
  193.0890  175.4910  138.1060 C   0  0  0  0  0  2  0  0  0  0  0  0
  190.6340  175.5930  138.4150 C   0  0  0  0  0  0  0  0  0  0  0  0
  191.7530  174.8470  137.7160 C   0  0  0  0  0  2  0  0  0  0  0  0
  192.9500  177.0030  138.2040 C   0  0  0  0  0  2  0  0  0  0  0  0
  190.8260  176.7800  139.2760 N   0  0  0  0  0  0  0  0  0  0  0  0
  189.4840  175.3490  137.8560 O   0  0  0  0  0  0  0  0  0  0  0  0
  187.5510  177.8050  139.1680 O   0  0  0  0  0  0  0  0  0  0  0  0
  189.1010  178.5340  137.4180 N   0  0  0  0  0  2  0  0  0  0  0  0
  188.7490  178.0120  138.7720 C   0  0  0  0  0  0  0  0  0  0  0  0
  187.9310  178.7430  136.6020 C   0  0  1  0  0  3  0  0  0  0  0  0
  187.9630  179.9640  135.9430 O   0  0  0  0  0  1  0  0  0  0  0  0
  187.5620  177.5770  135.7680 C   0  0  0  0  0  1  0  0  0  0  0  0
  2  6  1  6  0  0  0
  2  4  1  0  0  0  0
  2  5  1  0  0  0  0
  4  1  1  0  0  0  0
  5  3  1  1  0  0  0
  5  1  1  0  0  0  0
  7  6  1  0  0  0  0
  8  7  1  0  0  0  0
  9 11  1  0  0  0  0
 10 13  1  6  0  0  0
 10  9  1  0  0  0  0
 10 12  1  0  0  0  0
 11  8  1  0  0  0  0
 12 11  1  0  0  0  0
 14 16  1  0  0  0  0
 14 13  1  0  0  0  0
 15 14  2  0  0  0  0
 16 18  1  6  0  0  0
 18 17  1  0  0  0  0
 20 16  1  0  0  0  0
 20 19  1  1  0  0  0
 21 27  1  6  0  0  0
 21 20  1  0  0  0  0
 21 22  1  0  0  0  0
 23 24  1  0  0  0  0
 23 22  1  0  0  0  0
 24 26  1  0  0  0  0
 25 24  2  0  0  0  0
 29 27  1  0  0  0  0
 29 28  1  0  0  0  0
 30  2  1  0  0  0  0
 31 30  1  0  0  0  0
 32 31  1  1  0  0  0
 32 35  1  0  0  0  0
 33 36  1  0  0  0  0
 34 33  2  0  0  0  0
 35 33  1  0  0  0  0
 36 40  1  0  0  0  0
 37 38  1  0  0  0  0
 39 38  1  0  0  0  0
 40 41  1  0  0  0  0
 40 39  1  0  0  0  0
 41 37  1  0  0  0  0
 42 52  1  6  0  0  0
 42 32  1  0  0  0  0
 44 47  1  0  0  0  0
 45 48  1  0  0  0  0
 46 44  1  0  0  0  0
 46 45  1  0  0  0  0
 47 43  1  0  0  0  0
 48 43  1  0  0  0  0
 48 42  1  0  0  0  0
 49 45  2  0  0  0  0
 51 52  1  0  0  0  0
 52 50  2  0  0  0  0
 53 55  1  6  0  0  0
 53 51  1  0  0  0  0
 54 53  1  0  0  0  0
M  END
>  <MODEL>
7

>  <REMARK>
 VINA RESULT:      -4.1      1.644      2.151
  Name = 
  25 active torsions:
  status: ('A' for Active; 'I' for Inactive)
    1  A    between atoms: C_1  and  C_29
    2  A    between atoms: C_2  and  C_28
    3  A    between atoms: C_2  and  C_31
    4  A    between atoms: C_3  and  S_25
    5  A    between atoms: C_3  and  C_38
    6  A    between atoms: C_4  and  N_40
    7  A    between atoms: C_6  and  C_14
    8  A    between atoms: C_6  and  C_20
    9  A    between atoms: C_6  and  C_53
   10  A    between atoms: O_7  and  C_20
   11  A    between atoms: O_7  and  C_22
   12  A    between atoms: C_13  and  C_48
   13  A    between atoms: C_14  and  C_38
   14  A    between atoms: O_21  and  C_29
   15  A    between atoms: O_21  and  C_38
   16  A    between atoms: N_26  and  C_49
   17  A    between atoms: C_27  and  C_31
   18  A    between atoms: C_27  and  C_54
   19  A    between atoms: C_28  and  C_33
   20  A    between atoms: C_33  and  C_49
   21  A    between atoms: C_33  and  N_52
   22  A    between atoms: N_35  and  C_51
   23  A    between atoms: C_39  and  C_48
   24  A    between atoms: C_45  and  C_49
   25  A    between atoms: C_51  and  C_54
                            x       y       z     vdW  Elec       q    Type
                         _______ _______ _______ _____ _____    ______ ____

>  <TORSDO>
F 25

$$$$
=
 OpenBabel10262420413D

 55 58  0  0  1  0  0  0  0  0999 V2000
  187.2040  177.2440  144.7400 C   0  0  0  0  0  2  0  0  0  0  0  0
  187.2010  178.0320  142.8060 C   0  0  2  0  0  0  0  0  0  0  0  0
  188.2110  175.8120  143.2780 O   0  0  0  0  0  1  0  0  0  0  0  0
  187.3050  178.6480  144.2140 C   0  0  0  0  0  2  0  0  0  0  0  0
  187.0460  176.6080  143.3840 C   0  0  1  0  0  3  0  0  0  0  0  0
  188.2200  178.2220  141.5940 C   0  0  0  0  0  2  0  0  0  0  0  0
  189.7350  178.2460  142.0280 C   0  0  0  0  0  2  0  0  0  0  0  0
  190.5320  177.8360  140.7520 C   0  0  0  0  0  2  0  0  0  0  0  0
  190.1220  176.0290  139.4790 O   0  0  0  0  0  0  0  0  0  0  0  0
  191.0970  176.2070  138.4710 C   0  0  1  0  0  3  0  0  0  0  0  0
  190.9800  176.4830  140.4610 N   0  0  0  0  0  0  0  0  0  0  0  0
  192.0730  176.6300  139.5300 C   0  0  0  0  0  2  0  0  0  0  0  0
  191.4510  174.9450  137.9080 O   0  0  0  0  0  0  0  0  0  0  0  0
  192.0120  174.9690  136.6010 C   0  0  0  0  0  0  0  0  0  0  0  0
  192.0670  176.0510  136.0170 O   0  0  0  0  0  0  0  0  0  0  0  0
  192.5310  173.7130  135.8740 C   0  0  2  0  0  3  0  0  0  0  0  0
  191.9010  171.4590  135.4020 O   0  0  0  0  0  1  0  0  0  0  0  0
  191.4350  172.7720  135.3480 C   0  0  0  0  0  2  0  0  0  0  0  0
  193.8160  173.8040  137.9480 O   0  0  0  0  0  1  0  0  0  0  0  0
  193.5190  173.0070  136.8320 C   0  0  2  0  0  3  0  0  0  0  0  0
  194.8250  172.4550  136.2240 C   0  0  1  0  0  3  0  0  0  0  0  0
  195.4930  173.3550  135.3580 O   0  0  0  0  0  0  0  0  0  0  0  0
  196.7220  173.7320  135.9270 C   0  0  0  0  0  2  0  0  0  0  0  0
  196.7690  175.1730  136.2400 C   0  0  0  0  0  0  0  0  0  0  0  0
  195.6390  175.9780  136.0870 O   0  0  0  0  0  0  0  0  0  0  0  0
  197.8250  175.6760  136.7030 O   0  0  0  0  0  1  0  0  0  0  0  0
  195.7020  171.6100  137.2510 C   0  0  0  0  0  2  0  0  0  0  0  0
  196.7250  169.9100  135.2970 C   0  0  0  0  0  1  0  0  0  0  0  0
  195.8430  169.8210  136.8870 S   0  0  0  0  0  0  0  0  0  0  0  0
  185.8000  178.3200  142.2870 C   0  0  0  0  0  2  0  0  0  0  0  0
  185.6100  177.7910  140.8340 C   0  0  0  0  0  2  0  0  0  0  0  0
  185.0300  178.8150  139.6630 C   0  0  2  0  0  3  0  0  0  0  0  0
  182.3510  178.4220  140.5160 C   0  0  0  0  0  0  0  0  0  0  0  0
  182.3330  177.1210  140.6260 O   0  0  0  0  0  0  0  0  0  0  0  0
  183.6100  179.0650  140.0810 N   0  0  0  0  0  2  0  0  0  0  0  0
  181.0870  179.3620  140.7010 C   0  0  0  0  0  2  0  0  0  0  0  0
  180.0410  179.3260  143.9580 O   0  0  0  0  0  0  0  0  0  0  0  0
  179.3870  180.3690  143.4380 O   0  0  0  0  0  0  0  0  0  0  0  0
  179.1870  180.0960  142.0750 C   0  0  0  0  0  2  0  0  0  0  0  0
  180.0570  178.9180  141.6820 C   0  0  0  0  0  3  0  0  0  0  0  0
  180.8340  178.8240  142.9110 C   0  0  0  0  0  2  0  0  0  0  0  0
  185.1170  178.3520  138.0800 C   0  0  1  0  0  3  0  0  0  0  0  0
  187.6090  178.5430  138.3200 N   0  0  0  0  0  2  0  0  0  0  0  0
  189.1380  177.9710  136.5020 C   0  0  0  0  0  2  0  0  0  0  0  0
  186.7110  177.7380  136.0680 C   0  0  0  0  0  0  0  0  0  0  0  0
  188.0840  177.6610  135.4310 C   0  0  0  0  0  2  0  0  0  0  0  0
  188.6490  179.0660  137.4370 C   0  0  0  0  0  2  0  0  0  0  0  0
  186.4580  178.1140  137.4760 N   0  0  0  0  0  0  0  0  0  0  0  0
  185.7790  177.8520  135.1660 O   0  0  0  0  0  0  0  0  0  0  0  0
  183.1460  177.7030  137.1030 O   0  0  0  0  0  0  0  0  0  0  0  0
  184.3430  175.8010  138.0750 N   0  0  0  0  0  2  0  0  0  0  0  0
  184.1640  177.2420  137.7250 C   0  0  0  0  0  0  0  0  0  0  0  0
  183.2180  175.0020  137.6560 C   0  0  1  0  0  3  0  0  0  0  0  0
  182.1440  175.7810  137.2520 O   0  0  0  0  0  1  0  0  0  0  0  0
  183.5760  173.8880  136.7500 C   0  0  0  0  0  1  0  0  0  0  0  0
  2  6  1  6  0  0  0
  2  5  1  0  0  0  0
  2  4  1  0  0  0  0
  4  1  1  0  0  0  0
  5  3  1  6  0  0  0
  5  1  1  0  0  0  0
  6  7  1  0  0  0  0
  8  7  1  0  0  0  0
  9 11  1  0  0  0  0
 10 13  1  1  0  0  0
 10  9  1  0  0  0  0
 10 12  1  0  0  0  0
 11  8  1  0  0  0  0
 12 11  1  0  0  0  0
 14 13  1  0  0  0  0
 15 14  2  0  0  0  0
 16 18  1  1  0  0  0
 16 14  1  0  0  0  0
 16 20  1  0  0  0  0
 18 17  1  0  0  0  0
 20 19  1  1  0  0  0
 21 20  1  0  0  0  0
 21 27  1  1  0  0  0
 22 23  1  0  0  0  0
 22 21  1  0  0  0  0
 23 24  1  0  0  0  0
 24 26  1  0  0  0  0
 25 24  2  0  0  0  0
 28 29  1  0  0  0  0
 29 27  1  0  0  0  0
 30  2  1  0  0  0  0
 31 30  1  0  0  0  0
 32 35  1  0  0  0  0
 32 31  1  1  0  0  0
 33 34  2  0  0  0  0
 33 36  1  0  0  0  0
 35 33  1  0  0  0  0
 36 40  1  0  0  0  0
 38 37  1  0  0  0  0
 39 38  1  0  0  0  0
 40 39  1  0  0  0  0
 40 41  1  0  0  0  0
 41 37  1  0  0  0  0
 42 52  1  1  0  0  0
 42 32  1  0  0  0  0
 44 47  1  0  0  0  0
 45 48  1  0  0  0  0
 46 45  1  0  0  0  0
 46 44  1  0  0  0  0
 47 43  1  0  0  0  0
 48 42  1  0  0  0  0
 48 43  1  0  0  0  0
 49 45  2  0  0  0  0
 50 52  2  0  0  0  0
 52 51  1  0  0  0  0
 53 55  1  6  0  0  0
 53 51  1  0  0  0  0
 54 53  1  0  0  0  0
M  END
>  <MODEL>
8

>  <REMARK>
 VINA RESULT:      -4.0      4.010      9.752
  Name = 
  25 active torsions:
  status: ('A' for Active; 'I' for Inactive)
    1  A    between atoms: C_1  and  C_29
    2  A    between atoms: C_2  and  C_28
    3  A    between atoms: C_2  and  C_31
    4  A    between atoms: C_3  and  S_25
    5  A    between atoms: C_3  and  C_38
    6  A    between atoms: C_4  and  N_40
    7  A    between atoms: C_6  and  C_14
    8  A    between atoms: C_6  and  C_20
    9  A    between atoms: C_6  and  C_53
   10  A    between atoms: O_7  and  C_20
   11  A    between atoms: O_7  and  C_22
   12  A    between atoms: C_13  and  C_48
   13  A    between atoms: C_14  and  C_38
   14  A    between atoms: O_21  and  C_29
   15  A    between atoms: O_21  and  C_38
   16  A    between atoms: N_26  and  C_49
   17  A    between atoms: C_27  and  C_31
   18  A    between atoms: C_27  and  C_54
   19  A    between atoms: C_28  and  C_33
   20  A    between atoms: C_33  and  C_49
   21  A    between atoms: C_33  and  N_52
   22  A    between atoms: N_35  and  C_51
   23  A    between atoms: C_39  and  C_48
   24  A    between atoms: C_45  and  C_49
   25  A    between atoms: C_51  and  C_54
                            x       y       z     vdW  Elec       q    Type
                         _______ _______ _______ _____ _____    ______ ____

>  <TORSDO>
F 25

$$$$
=
 OpenBabel10262420413D

 55 58  0  0  1  0  0  0  0  0999 V2000
  179.9230  179.2140  139.6180 C   0  0  0  0  0  2  0  0  0  0  0  0
  181.7900  178.2850  139.7210 C   0  0  2  0  0  0  0  0  0  0  0  0
  179.7880  177.2450  140.7610 O   0  0  0  0  0  1  0  0  0  0  0  0
  181.3230  179.7520  139.7140 C   0  0  0  0  0  2  0  0  0  0  0  0
  180.3430  177.7680  139.5700 C   0  0  1  0  0  3  0  0  0  0  0  0
  182.7100  177.5720  140.8120 C   0  0  0  0  0  2  0  0  0  0  0  0
  184.0380  178.3550  141.1410 C   0  0  0  0  0  2  0  0  0  0  0  0
  183.8550  178.8750  142.6000 C   0  0  0  0  0  2  0  0  0  0  0  0
  185.1950  178.1770  144.2650 O   0  0  0  0  0  0  0  0  0  0  0  0
  184.7700  179.0360  145.3040 C   0  0  1  0  0  3  0  0  0  0  0  0
  183.9080  178.0350  143.7860 N   0  0  0  0  0  0  0  0  0  0  0  0
  183.3530  178.8350  144.8510 C   0  0  0  0  0  2  0  0  0  0  0  0
  185.0070  178.4210  146.5700 O   0  0  0  0  0  0  0  0  0  0  0  0
  186.1980  178.8040  147.2470 C   0  0  0  0  0  0  0  0  0  0  0  0
  186.2220  179.9070  147.7920 O   0  0  0  0  0  0  0  0  0  0  0  0
  187.4600  177.9220  147.3140 C   0  0  2  0  0  3  0  0  0  0  0  0
  188.0750  177.8740  149.6200 O   0  0  0  0  0  1  0  0  0  0  0  0
  188.4880  178.3460  148.3750 C   0  0  0  0  0  2  0  0  0  0  0  0
  187.5320  176.7990  145.1470 O   0  0  0  0  0  1  0  0  0  0  0  0
  188.0550  177.8700  145.8880 C   0  0  2  0  0  3  0  0  0  0  0  0
  189.5920  177.8910  145.7590 C   0  0  1  0  0  3  0  0  0  0  0  0
  190.2230  176.6660  146.0880 O   0  0  0  0  0  0  0  0  0  0  0  0
  191.0300  176.8430  147.2260 C   0  0  0  0  0  2  0  0  0  0  0  0
  192.1830  175.9240  147.2370 C   0  0  0  0  0  0  0  0  0  0  0  0
  193.0320  175.8490  148.3420 O   0  0  0  0  0  1  0  0  0  0  0  0
  192.3750  175.1540  146.2600 O   0  0  0  0  0  0  0  0  0  0  0  0
  190.1170  178.6860  144.4820 C   0  0  0  0  0  2  0  0  0  0  0  0
  191.7510  176.9530  143.0380 C   0  0  0  0  0  1  0  0  0  0  0  0
  190.1180  177.7470  142.9090 S   0  0  0  0  0  0  0  0  0  0  0  0
  182.3800  177.9880  138.3500 C   0  0  0  0  0  2  0  0  0  0  0  0
  181.9470  176.5830  137.8340 C   0  0  0  0  0  2  0  0  0  0  0  0
  183.0950  175.4040  137.6190 C   0  0  2  0  0  3  0  0  0  0  0  0
  185.4880  175.9660  136.1990 C   0  0  0  0  0  0  0  0  0  0  0  0
  186.2400  174.9840  136.6170 O   0  0  0  0  0  0  0  0  0  0  0  0
  184.1030  176.0490  136.7120 N   0  0  0  0  0  2  0  0  0  0  0  0
  185.9830  177.1500  135.2670 C   0  0  0  0  0  2  0  0  0  0  0  0
  187.4410  178.3380  138.1240 O   0  0  0  0  0  0  0  0  0  0  0  0
  188.3680  177.5130  137.6280 O   0  0  0  0  0  0  0  0  0  0  0  0
  188.2150  177.5070  136.2320 C   0  0  0  0  0  2  0  0  0  0  0  0
  186.8890  178.1580  135.8860 C   0  0  0  0  0  3  0  0  0  0  0  0
  186.3530  178.2530  137.2380 C   0  0  0  0  0  2  0  0  0  0  0  0
  182.6290  173.9280  137.0460 C   0  0  1  0  0  3  0  0  0  0  0  0
  180.7150  172.4530  136.3620 N   0  0  0  0  0  2  0  0  0  0  0  0
  178.9300  173.2390  134.8890 C   0  0  0  0  0  2  0  0  0  0  0  0
  180.7450  174.8340  135.4350 C   0  0  0  0  0  0  0  0  0  0  0  0
  179.5000  174.6320  134.5940 C   0  0  0  0  0  2  0  0  0  0  0  0
  180.0510  172.2290  135.0800 C   0  0  0  0  0  2  0  0  0  0  0  0
  181.3240  173.8140  136.3350 N   0  0  0  0  0  0  0  0  0  0  0  0
  181.4700  175.8120  134.9750 O   0  0  0  0  0  0  0  0  0  0  0  0
  183.8550  173.6990  135.1200 O   0  0  0  0  0  0  0  0  0  0  0  0
  184.5050  172.0490  136.8080 N   0  0  0  0  0  2  0  0  0  0  0  0
  183.7150  173.2060  136.2920 C   0  0  0  0  0  0  0  0  0  0  0  0
  185.4180  171.5350  135.8160 C   0  0  1  0  0  3  0  0  0  0  0  0
  186.7390  171.6170  136.2300 O   0  0  0  0  0  1  0  0  0  0  0  0
  185.0080  170.2370  135.2370 C   0  0  0  0  0  1  0  0  0  0  0  0
  1  4  1  0  0  0  0
  2 30  1  6  0  0  0
  2  6  1  0  0  0  0
  4  2  1  0  0  0  0
  5  1  1  0  0  0  0
  5  2  1  0  0  0  0
  5  3  1  1  0  0  0
  6  7  1  0  0  0  0
  7  8  1  0  0  0  0
  8 11  1  0  0  0  0
  9 10  1  0  0  0  0
 10 13  1  1  0  0  0
 11  9  1  0  0  0  0
 11 12  1  0  0  0  0
 12 10  1  0  0  0  0
 13 14  1  0  0  0  0
 14 16  1  0  0  0  0
 14 15  2  0  0  0  0
 16 18  1  1  0  0  0
 18 17  1  0  0  0  0
 20 19  1  1  0  0  0
 20 16  1  0  0  0  0
 21 27  1  6  0  0  0
 21 20  1  0  0  0  0
 21 22  1  0  0  0  0
 22 23  1  0  0  0  0
 23 24  1  0  0  0  0
 24 25  1  0  0  0  0
 26 24  2  0  0  0  0
 29 28  1  0  0  0  0
 29 27  1  0  0  0  0
 31 30  1  0  0  0  0
 32 31  1  6  0  0  0
 33 34  2  0  0  0  0
 33 35  1  0  0  0  0
 35 32  1  0  0  0  0
 36 40  1  0  0  0  0
 36 33  1  0  0  0  0
 38 37  1  0  0  0  0
 39 38  1  0  0  0  0
 40 39  1  0  0  0  0
 40 41  1  0  0  0  0
 41 37  1  0  0  0  0
 42 52  1  6  0  0  0
 42 32  1  0  0  0  0
 44 47  1  0  0  0  0
 45 48  1  0  0  0  0
 46 44  1  0  0  0  0
 46 45  1  0  0  0  0
 47 43  1  0  0  0  0
 48 43  1  0  0  0  0
 48 42  1  0  0  0  0
 49 45  2  0  0  0  0
 50 52  2  0  0  0  0
 52 51  1  0  0  0  0
 53 55  1  1  0  0  0
 53 54  1  0  0  0  0
 53 51  1  0  0  0  0
M  END
>  <MODEL>
9

>  <REMARK>
 VINA RESULT:      -3.9      3.485     10.494
  Name = 
  25 active torsions:
  status: ('A' for Active; 'I' for Inactive)
    1  A    between atoms: C_1  and  C_29
    2  A    between atoms: C_2  and  C_28
    3  A    between atoms: C_2  and  C_31
    4  A    between atoms: C_3  and  S_25
    5  A    between atoms: C_3  and  C_38
    6  A    between atoms: C_4  and  N_40
    7  A    between atoms: C_6  and  C_14
    8  A    between atoms: C_6  and  C_20
    9  A    between atoms: C_6  and  C_53
   10  A    between atoms: O_7  and  C_20
   11  A    between atoms: O_7  and  C_22
   12  A    between atoms: C_13  and  C_48
   13  A    between atoms: C_14  and  C_38
   14  A    between atoms: O_21  and  C_29
   15  A    between atoms: O_21  and  C_38
   16  A    between atoms: N_26  and  C_49
   17  A    between atoms: C_27  and  C_31
   18  A    between atoms: C_27  and  C_54
   19  A    between atoms: C_28  and  C_33
   20  A    between atoms: C_33  and  C_49
   21  A    between atoms: C_33  and  N_52
   22  A    between atoms: N_35  and  C_51
   23  A    between atoms: C_39  and  C_48
   24  A    between atoms: C_45  and  C_49
   25  A    between atoms: C_51  and  C_54
                            x       y       z     vdW  Elec       q    Type
                         _______ _______ _______ _____ _____    ______ ____

>  <TORSDO>
F 25

$$$$
