=
 OpenBabel10262420493D

 28 32  0  0  1  0  0  0  0  0999 V2000
  190.2940  176.3810  143.9280 C   0  0  0  0  0  0  0  0  0  0  0  0
  185.3350  177.8160  143.0480 C   0  0  0  0  0  3  0  0  0  0  0  0
  188.5320  177.6860  148.2060 O   0  0  0  0  0  0  0  0  0  0  0  0
  184.6650  178.7700  145.1790 C   0  0  0  0  0  0  0  0  0  0  0  0
  186.8390  177.6670  144.9820 C   0  0  0  0  0  0  0  0  0  0  0  0
  183.1900  178.9180  143.2640 C   0  0  0  0  0  0  0  0  0  0  0  0
  185.6220  178.0790  144.3980 C   0  0  0  0  0  0  0  0  0  0  0  0
  186.1170  178.6220  147.1050 C   0  0  0  0  0  3  0  0  0  0  0  0
  183.4590  179.1840  144.6090 C   0  0  0  0  0  3  0  0  0  0  0  0
  189.4520  177.0520  146.1120 C   0  0  0  0  0  0  0  0  0  0  0  0
  187.8250  176.8530  144.1760 C   0  0  0  0  0  2  0  0  0  0  0  0
  184.9180  179.0330  146.5260 C   0  0  0  0  0  3  0  0  0  0  0  0
  191.7840  176.4430  145.8410 C   0  0  0  0  0  3  0  0  0  0  0  0
  188.3590  177.5530  146.9630 C   0  0  0  0  0  0  0  0  0  0  0  0
  190.7330  176.8730  146.6490 C   0  0  0  0  0  3  0  0  0  0  0  0
  182.0200  179.3210  142.7150 F   0  0  0  0  0  0  0  0  0  0  0  0
  184.1260  178.2330  142.4860 C   0  0  0  0  0  3  0  0  0  0  0  0
  187.0790  177.9410  146.3460 C   0  0  0  0  0  0  0  0  0  0  0  0
  191.5640  176.2000  144.4850 C   0  0  0  0  0  3  0  0  0  0  0  0
  189.2220  176.7970  144.7440 C   0  0  0  0  0  0  0  0  0  0  0  0
  190.1020  176.1150  142.4640 C   0  0  0  0  0  2  0  0  0  0  0  0
  190.5100  177.5560  141.4390 S   0  0  2  0  0  0  0  0  0  0  0  0
  190.3770  178.7440  142.3860 O   0  0  0  0  0  0  0  0  0  0  0  0
  189.0690  176.7770  139.1020 C   0  0  1  0  0  3  0  0  0  0  0  0
  187.8270  178.2120  140.7240 C   0  0  0  0  0  1  0  0  0  0  0  0
  189.1690  177.7310  140.2170 C   0  0  1  0  0  0  0  0  0  0  0  0
  189.6660  178.4600  138.6080 S   0  0  0  0  0  0  0  0  0  0  0  0
  190.1360  175.8770  139.0720 O   0  0  0  0  0  1  0  0  0  0  0  0
  1 19  2  0  0  0  0
  1 20  1  0  0  0  0
  2  7  1  0  0  0  0
  4 12  1  0  0  0  0
  5 18  2  0  0  0  0
  6  9  2  0  0  0  0
  7  5  1  0  0  0  0
  7  4  2  0  0  0  0
  9  4  1  0  0  0  0
 10 15  1  0  0  0  0
 10 14  1  0  0  0  0
 11 20  1  0  0  0  0
 11  5  1  0  0  0  0
 12  8  2  0  0  0  0
 13 15  2  0  0  0  0
 14  3  2  0  0  0  0
 16  6  1  0  0  0  0
 17  2  2  0  0  0  0
 17  6  1  0  0  0  0
 18 14  1  0  0  0  0
 18  8  1  0  0  0  0
 19 13  1  0  0  0  0
 20 10  2  0  0  0  0
 21  1  1  0  0  0  0
 22 23  2  1  0  0  0
 22 21  1  0  0  0  0
 24 28  1  1  0  0  0
 24 26  1  0  0  0  0
 26 25  1  1  0  0  0
 26 22  1  0  0  0  0
 27 24  1  0  0  0  0
 27 26  1  0  0  0  0
M  END
>  <MODEL>
1

>  <REMARK>
 VINA RESULT:     -11.0      0.000      0.000
  Name = 
  3 active torsions:
  status: ('A' for Active; 'I' for Inactive)
    1  A    between atoms: C_1  and  C_2
    2  A    between atoms: C_2  and  S_3
    3  A    between atoms: S_3  and  C_11
                            x       y       z     vdW  Elec       q    Type
                         _______ _______ _______ _____ _____    ______ ____

>  <TORSDO>
F 3

$$$$
=
 OpenBabel10262420493D

 28 32  0  0  1  0  0  0  0  0999 V2000
  190.1120  176.4670  143.3480 C   0  0  0  0  0  0  0  0  0  0  0  0
  185.0810  177.8790  143.0050 C   0  0  0  0  0  3  0  0  0  0  0  0
  188.7870  177.6790  147.8080 O   0  0  0  0  0  0  0  0  0  0  0  0
  184.6260  178.7890  145.2110 C   0  0  0  0  0  0  0  0  0  0  0  0
  186.7750  177.7070  144.7730 C   0  0  0  0  0  0  0  0  0  0  0  0
  182.9630  178.9610  143.4590 C   0  0  0  0  0  0  0  0  0  0  0  0
  185.5020  178.1200  144.3230 C   0  0  0  0  0  0  0  0  0  0  0  0
  186.2670  178.6170  146.9750 C   0  0  0  0  0  3  0  0  0  0  0  0
  183.3660  179.2050  144.7740 C   0  0  0  0  0  3  0  0  0  0  0  0
  189.4920  177.0910  145.6190 C   0  0  0  0  0  0  0  0  0  0  0  0
  187.6780  176.9150  143.8550 C   0  0  0  0  0  2  0  0  0  0  0  0
  185.0130  179.0290  146.5290 C   0  0  0  0  0  3  0  0  0  0  0  0
  191.7880  176.5040  145.1010 C   0  0  0  0  0  3  0  0  0  0  0  0
  188.4900  177.5680  146.5870 C   0  0  0  0  0  0  0  0  0  0  0  0
  190.8220  176.9120  146.0200 C   0  0  0  0  0  3  0  0  0  0  0  0
  181.7410  179.3650  143.0390 F   0  0  0  0  0  0  0  0  0  0  0  0
  183.8190  178.2980  142.5760 C   0  0  0  0  0  3  0  0  0  0  0  0
  187.1510  177.9570  146.1100 C   0  0  0  0  0  0  0  0  0  0  0  0
  191.4330  176.2850  143.7700 C   0  0  0  0  0  3  0  0  0  0  0  0
  189.1260  176.8590  144.2770 C   0  0  0  0  0  0  0  0  0  0  0  0
  189.7740  176.2260  141.9070 C   0  0  0  0  0  2  0  0  0  0  0  0
  189.7430  177.7600  140.9370 S   0  0  2  0  0  0  0  0  0  0  0  0
  188.2990  178.2400  141.0330 O   0  0  0  0  0  0  0  0  0  0  0  0
  189.6430  178.2270  138.1230 C   0  0  1  0  0  3  0  0  0  0  0  0
  191.2250  176.4500  138.8810 C   0  0  0  0  0  1  0  0  0  0  0  0
  190.0050  177.2890  139.1960 C   0  0  1  0  0  0  0  0  0  0  0  0
  188.4950  176.7830  138.2860 S   0  0  0  0  0  0  0  0  0  0  0  0
  189.0170  179.3770  138.6080 O   0  0  0  0  0  1  0  0  0  0  0  0
  1 19  2  0  0  0  0
  1 20  1  0  0  0  0
  2  7  1  0  0  0  0
  4 12  1  0  0  0  0
  5 18  2  0  0  0  0
  6  9  2  0  0  0  0
  7  5  1  0  0  0  0
  7  4  2  0  0  0  0
  9  4  1  0  0  0  0
 10 15  1  0  0  0  0
 10 14  1  0  0  0  0
 11 20  1  0  0  0  0
 11  5  1  0  0  0  0
 12  8  2  0  0  0  0
 13 15  2  0  0  0  0
 14  3  2  0  0  0  0
 16  6  1  0  0  0  0
 17  2  2  0  0  0  0
 17  6  1  0  0  0  0
 18 14  1  0  0  0  0
 18  8  1  0  0  0  0
 19 13  1  0  0  0  0
 20 10  2  0  0  0  0
 21  1  1  0  0  0  0
 22 23  2  6  0  0  0
 22 21  1  0  0  0  0
 24 27  1  0  0  0  0
 24 28  1  1  0  0  0
 24 26  1  0  0  0  0
 26 25  1  6  0  0  0
 26 22  1  0  0  0  0
 27 26  1  0  0  0  0
M  END
>  <MODEL>
2

>  <REMARK>
 VINA RESULT:     -10.9      1.185      1.371
  Name = 
  3 active torsions:
  status: ('A' for Active; 'I' for Inactive)
    1  A    between atoms: C_1  and  C_2
    2  A    between atoms: C_2  and  S_3
    3  A    between atoms: S_3  and  C_11
                            x       y       z     vdW  Elec       q    Type
                         _______ _______ _______ _____ _____    ______ ____

>  <TORSDO>
F 3

$$$$
=
 OpenBabel10262420493D

 28 32  0  0  1  0  0  0  0  0999 V2000
  189.9290  177.4480  142.4300 C   0  0  0  0  0  0  0  0  0  0  0  0
  184.7800  178.3690  142.6610 C   0  0  0  0  0  3  0  0  0  0  0  0
  188.7670  177.2150  147.0890 O   0  0  0  0  0  0  0  0  0  0  0  0
  184.3760  178.5710  145.0480 C   0  0  0  0  0  0  0  0  0  0  0  0
  186.5840  177.8840  144.2520 C   0  0  0  0  0  0  0  0  0  0  0  0
  182.6030  179.0540  143.4700 C   0  0  0  0  0  0  0  0  0  0  0  0
  185.2550  178.2730  143.9790 C   0  0  0  0  0  0  0  0  0  0  0  0
  186.1280  178.0820  146.6380 C   0  0  0  0  0  3  0  0  0  0  0  0
  183.0590  178.9600  144.7870 C   0  0  0  0  0  3  0  0  0  0  0  0
  189.3920  177.3410  144.8030 C   0  0  0  0  0  0  0  0  0  0  0  0
  187.4990  177.4800  143.1190 C   0  0  0  0  0  2  0  0  0  0  0  0
  184.8170  178.4700  146.3670 C   0  0  0  0  0  3  0  0  0  0  0  0
  191.6970  177.1650  144.0670 C   0  0  0  0  0  3  0  0  0  0  0  0
  188.4090  177.4210  145.8970 C   0  0  0  0  0  0  0  0  0  0  0  0
  190.7540  177.1960  145.0940 C   0  0  0  0  0  3  0  0  0  0  0  0
  181.3260  179.4310  143.2220 F   0  0  0  0  0  0  0  0  0  0  0  0
  183.4620  178.7580  142.4090 C   0  0  0  0  0  3  0  0  0  0  0  0
  187.0140  177.7870  145.5930 C   0  0  0  0  0  0  0  0  0  0  0  0
  191.2840  177.2920  142.7410 C   0  0  0  0  0  3  0  0  0  0  0  0
  188.9690  177.4590  143.4630 C   0  0  0  0  0  0  0  0  0  0  0  0
  189.5290  177.5870  140.9910 C   0  0  0  0  0  2  0  0  0  0  0  0
  190.5560  176.5770  139.8860 S   0  0  2  0  0  0  0  0  0  0  0  0
  191.7550  177.4630  139.5690 O   0  0  0  0  0  0  0  0  0  0  0  0
  189.8190  175.1960  137.4990 C   0  0  1  0  0  3  0  0  0  0  0  0
  188.2210  176.9440  138.2880 C   0  0  0  0  0  1  0  0  0  0  0  0
  189.6320  176.3980  138.3250 C   0  0  1  0  0  0  0  0  0  0  0  0
  190.5990  176.7240  136.8010 S   0  0  0  0  0  0  0  0  0  0  0  0
  190.8130  174.3540  138.0010 O   0  0  0  0  0  1  0  0  0  0  0  0
  1 19  2  0  0  0  0
  1 20  1  0  0  0  0
  2  7  1  0  0  0  0
  4 12  1  0  0  0  0
  5 18  2  0  0  0  0
  6  9  2  0  0  0  0
  7  5  1  0  0  0  0
  7  4  2  0  0  0  0
  9  4  1  0  0  0  0
 10 15  1  0  0  0  0
 10 14  1  0  0  0  0
 11 20  1  0  0  0  0
 11  5  1  0  0  0  0
 12  8  2  0  0  0  0
 13 15  2  0  0  0  0
 14  3  2  0  0  0  0
 16  6  1  0  0  0  0
 17  2  2  0  0  0  0
 17  6  1  0  0  0  0
 18 14  1  0  0  0  0
 18  8  1  0  0  0  0
 19 13  1  0  0  0  0
 20 10  2  0  0  0  0
 21  1  1  0  0  0  0
 22 23  2  6  0  0  0
 22 21  1  0  0  0  0
 24 28  1  1  0  0  0
 24 26  1  0  0  0  0
 26 25  1  1  0  0  0
 26 22  1  0  0  0  0
 27 24  1  0  0  0  0
 27 26  1  0  0  0  0
M  END
>  <MODEL>
3

>  <REMARK>
 VINA RESULT:     -10.6      1.346      1.661
  Name = 
  3 active torsions:
  status: ('A' for Active; 'I' for Inactive)
    1  A    between atoms: C_1  and  C_2
    2  A    between atoms: C_2  and  S_3
    3  A    between atoms: S_3  and  C_11
                            x       y       z     vdW  Elec       q    Type
                         _______ _______ _______ _____ _____    ______ ____

>  <TORSDO>
F 3

$$$$
=
 OpenBabel10262420493D

 28 32  0  0  1  0  0  0  0  0999 V2000
  185.8250  177.9290  142.7420 C   0  0  0  0  0  0  0  0  0  0  0  0
  190.3390  176.6960  145.0900 C   0  0  0  0  0  3  0  0  0  0  0  0
  185.3880  179.4360  147.2860 O   0  0  0  0  0  0  0  0  0  0  0  0
  189.8800  177.1780  147.4270 C   0  0  0  0  0  0  0  0  0  0  0  0
  188.2290  177.7780  145.7240 C   0  0  0  0  0  0  0  0  0  0  0  0
  191.9560  176.1040  146.7930 C   0  0  0  0  0  0  0  0  0  0  0  0
  189.4780  177.2170  146.0700 C   0  0  0  0  0  0  0  0  0  0  0  0
  187.8200  178.2600  148.0770 C   0  0  0  0  0  3  0  0  0  0  0  0
  191.1130  176.6230  147.7780 C   0  0  0  0  0  3  0  0  0  0  0  0
  185.5500  178.6900  145.0390 C   0  0  0  0  0  0  0  0  0  0  0  0
  187.8350  177.9020  144.2700 C   0  0  0  0  0  2  0  0  0  0  0  0
  189.0510  177.7020  148.4180 C   0  0  0  0  0  3  0  0  0  0  0  0
  183.6960  178.8290  143.4810 C   0  0  0  0  0  3  0  0  0  0  0  0
  186.0790  178.8570  146.4030 C   0  0  0  0  0  0  0  0  0  0  0  0
  184.2200  179.0260  144.7580 C   0  0  0  0  0  3  0  0  0  0  0  0
  193.1500  175.5670  147.1380 F   0  0  0  0  0  0  0  0  0  0  0  0
  191.5700  176.1420  145.4510 C   0  0  0  0  0  3  0  0  0  0  0  0
  187.4030  178.3040  146.7400 C   0  0  0  0  0  0  0  0  0  0  0  0
  184.4960  178.2810  142.4780 C   0  0  0  0  0  3  0  0  0  0  0  0
  186.3660  178.1450  144.0260 C   0  0  0  0  0  0  0  0  0  0  0  0
  186.6480  177.3360  141.6370 C   0  0  0  0  0  2  0  0  0  0  0  0
  187.4220  178.6050  140.5950 S   0  0  2  0  0  0  0  0  0  0  0  0
  186.4660  178.7620  139.4170 O   0  0  0  0  0  0  0  0  0  0  0  0
  189.5710  178.4600  138.7210 C   0  0  1  0  0  3  0  0  0  0  0  0
  189.9420  177.3020  140.9020 C   0  0  0  0  0  1  0  0  0  0  0  0
  188.9450  177.8700  139.9140 C   0  0  1  0  0  0  0  0  0  0  0  0
  188.7170  176.8460  138.4090 S   0  0  0  0  0  0  0  0  0  0  0  0
  188.8130  179.5000  138.1800 O   0  0  0  0  0  1  0  0  0  0  0  0
  1 20  1  0  0  0  0
  2 17  2  0  0  0  0
  2  7  1  0  0  0  0
  4  9  1  0  0  0  0
  4 12  1  0  0  0  0
  5  7  1  0  0  0  0
  5 18  2  0  0  0  0
  6 16  1  0  0  0  0
  6  9  2  0  0  0  0
  7  4  2  0  0  0  0
  8 12  2  0  0  0  0
 10 14  1  0  0  0  0
 11  5  1  0  0  0  0
 13 15  2  0  0  0  0
 14 18  1  0  0  0  0
 14  3  2  0  0  0  0
 15 10  1  0  0  0  0
 17  6  1  0  0  0  0
 18  8  1  0  0  0  0
 19  1  2  0  0  0  0
 19 13  1  0  0  0  0
 20 11  1  0  0  0  0
 20 10  2  0  0  0  0
 21  1  1  0  0  0  0
 22 23  2  6  0  0  0
 22 21  1  0  0  0  0
 24 28  1  6  0  0  0
 24 26  1  0  0  0  0
 26 22  1  0  0  0  0
 26 25  1  1  0  0  0
 27 24  1  0  0  0  0
 27 26  1  0  0  0  0
M  END
>  <MODEL>
4

>  <REMARK>
 VINA RESULT:     -10.1      2.961      5.510
  Name = 
  3 active torsions:
  status: ('A' for Active; 'I' for Inactive)
    1  A    between atoms: C_1  and  C_2
    2  A    between atoms: C_2  and  S_3
    3  A    between atoms: S_3  and  C_11
                            x       y       z     vdW  Elec       q    Type
                         _______ _______ _______ _____ _____    ______ ____

>  <TORSDO>
F 3

$$$$
=
 OpenBabel10262420493D

 28 32  0  0  1  0  0  0  0  0999 V2000
  183.6560  178.3890  141.9270 C   0  0  0  0  0  0  0  0  0  0  0  0
  188.6950  177.1300  142.5850 C   0  0  0  0  0  3  0  0  0  0  0  0
  184.5560  179.0030  146.6100 O   0  0  0  0  0  0  0  0  0  0  0  0
  188.9420  177.1400  145.0020 C   0  0  0  0  0  0  0  0  0  0  0  0
  186.8430  177.9000  144.0000 C   0  0  0  0  0  0  0  0  0  0  0  0
  190.7610  176.3760  143.5980 C   0  0  0  0  0  0  0  0  0  0  0  0
  188.1520  177.3920  143.8540 C   0  0  0  0  0  0  0  0  0  0  0  0
  187.1420  177.9090  146.4180 C   0  0  0  0  0  3  0  0  0  0  0  0
  190.2370  176.6350  144.8670 C   0  0  0  0  0  3  0  0  0  0  0  0
  184.0590  178.6940  144.3100 C   0  0  0  0  0  0  0  0  0  0  0  0
  186.0310  178.2530  142.7760 C   0  0  0  0  0  2  0  0  0  0  0  0
  188.4320  177.4030  146.2740 C   0  0  0  0  0  3  0  0  0  0  0  0
  181.8220  178.9590  143.4100 C   0  0  0  0  0  3  0  0  0  0  0  0
  184.9660  178.6540  145.4690 C   0  0  0  0  0  0  0  0  0  0  0  0
  182.6970  178.9640  144.4950 C   0  0  0  0  0  3  0  0  0  0  0  0
  192.0170  175.8860  143.4720 F   0  0  0  0  0  0  0  0  0  0  0  0
  189.9920  176.6250  142.4590 C   0  0  0  0  0  3  0  0  0  0  0  0
  186.3440  178.1610  145.2940 C   0  0  0  0  0  0  0  0  0  0  0  0
  182.3000  178.6710  142.1320 C   0  0  0  0  0  3  0  0  0  0  0  0
  184.5500  178.4130  143.0180 C   0  0  0  0  0  0  0  0  0  0  0  0
  184.1270  178.0780  140.5380 C   0  0  0  0  0  2  0  0  0  0  0  0
  182.8110  177.3840  139.4990 S   0  0  2  0  0  0  0  0  0  0  0  0
  183.5490  176.5310  138.4730 O   0  0  0  0  0  0  0  0  0  0  0  0
  180.6250  178.8490  138.3920 C   0  0  1  0  0  3  0  0  0  0  0  0
  182.7440  180.1280  138.7180 C   0  0  0  0  0  1  0  0  0  0  0  0
  182.0830  178.7740  138.5710 C   0  0  1  0  0  0  0  0  0  0  0  0
  181.5550  178.3830  136.8590 S   0  0  0  0  0  0  0  0  0  0  0  0
  179.9670  177.7260  138.8970 O   0  0  0  0  0  1  0  0  0  0  0  0
  1 19  2  0  0  0  0
  1 20  1  0  0  0  0
  2  7  1  0  0  0  0
  4 12  1  0  0  0  0
  5 18  2  0  0  0  0
  6  9  2  0  0  0  0
  7  5  1  0  0  0  0
  7  4  2  0  0  0  0
  9  4  1  0  0  0  0
 10 15  1  0  0  0  0
 10 14  1  0  0  0  0
 11 20  1  0  0  0  0
 11  5  1  0  0  0  0
 12  8  2  0  0  0  0
 13 15  2  0  0  0  0
 14  3  2  0  0  0  0
 16  6  1  0  0  0  0
 17  2  2  0  0  0  0
 17  6  1  0  0  0  0
 18 14  1  0  0  0  0
 18  8  1  0  0  0  0
 19 13  1  0  0  0  0
 20 10  2  0  0  0  0
 21  1  1  0  0  0  0
 22 23  2  6  0  0  0
 22 21  1  0  0  0  0
 24 26  1  0  0  0  0
 24 28  1  1  0  0  0
 26 25  1  1  0  0  0
 26 22  1  0  0  0  0
 27 24  1  0  0  0  0
 27 26  1  0  0  0  0
M  END
>  <MODEL>
5

>  <REMARK>
 VINA RESULT:     -10.1      4.178      6.754
  Name = 
  3 active torsions:
  status: ('A' for Active; 'I' for Inactive)
    1  A    between atoms: C_1  and  C_2
    2  A    between atoms: C_2  and  S_3
    3  A    between atoms: S_3  and  C_11
                            x       y       z     vdW  Elec       q    Type
                         _______ _______ _______ _____ _____    ______ ____

>  <TORSDO>
F 3

$$$$
=
 OpenBabel10262420493D

 28 32  0  0  1  0  0  0  0  0999 V2000
  189.6800  177.5890  140.5110 C   0  0  0  0  0  0  0  0  0  0  0  0
  185.2000  178.2480  143.1390 C   0  0  0  0  0  3  0  0  0  0  0  0
  190.7700  176.9080  145.1430 O   0  0  0  0  0  0  0  0  0  0  0  0
  185.9270  178.2280  145.4570 C   0  0  0  0  0  0  0  0  0  0  0  0
  187.5320  177.7140  143.6840 C   0  0  0  0  0  0  0  0  0  0  0  0
  183.6290  178.7600  144.9090 C   0  0  0  0  0  0  0  0  0  0  0  0
  186.2230  178.0630  144.0820 C   0  0  0  0  0  0  0  0  0  0  0  0
  188.2120  177.6870  146.0240 C   0  0  0  0  0  3  0  0  0  0  0  0
  184.6360  178.5750  145.8600 C   0  0  0  0  0  3  0  0  0  0  0  0
  190.2840  177.2560  142.8470 C   0  0  0  0  0  0  0  0  0  0  0  0
  187.8320  177.4500  142.2260 C   0  0  0  0  0  2  0  0  0  0  0  0
  186.9210  178.0360  146.4160 C   0  0  0  0  0  3  0  0  0  0  0  0
  192.0000  177.2510  141.1330 C   0  0  0  0  0  3  0  0  0  0  0  0
  189.9070  177.1970  144.2690 C   0  0  0  0  0  0  0  0  0  0  0  0
  191.6290  177.1510  142.4730 C   0  0  0  0  0  3  0  0  0  0  0  0
  182.3780  179.0980  145.3040 F   0  0  0  0  0  0  0  0  0  0  0  0
  183.9100  178.5960  143.5510 C   0  0  0  0  0  3  0  0  0  0  0  0
  188.5260  177.5230  144.6680 C   0  0  0  0  0  0  0  0  0  0  0  0
  191.0290  177.4710  140.1570 C   0  0  0  0  0  3  0  0  0  0  0  0
  189.2960  177.4680  141.8620 C   0  0  0  0  0  0  0  0  0  0  0  0
  188.6680  177.8320  139.4310 C   0  0  0  0  0  2  0  0  0  0  0  0
  189.4400  178.1620  137.8210 S   0  0  2  0  0  0  0  0  0  0  0  0
  189.0140  179.5870  137.4830 O   0  0  0  0  0  0  0  0  0  0  0  0
  189.0790  175.7040  136.4160 C   0  0  1  0  0  3  0  0  0  0  0  0
  187.1130  177.2420  136.4500 C   0  0  0  0  0  1  0  0  0  0  0  0
  188.6100  177.0850  136.6080 C   0  0  1  0  0  0  0  0  0  0  0  0
  189.5080  176.8490  135.0250 S   0  0  0  0  0  0  0  0  0  0  0  0
  190.2270  175.4230  137.1580 O   0  0  0  0  0  1  0  0  0  0  0  0
  1 20  1  0  0  0  0
  2 17  2  0  0  0  0
  2  7  1  0  0  0  0
  4  9  1  0  0  0  0
  4 12  1  0  0  0  0
  5  7  1  0  0  0  0
  5 18  2  0  0  0  0
  6 16  1  0  0  0  0
  6  9  2  0  0  0  0
  7  4  2  0  0  0  0
  8 12  2  0  0  0  0
 10 14  1  0  0  0  0
 11  5  1  0  0  0  0
 13 15  2  0  0  0  0
 14 18  1  0  0  0  0
 14  3  2  0  0  0  0
 15 10  1  0  0  0  0
 17  6  1  0  0  0  0
 18  8  1  0  0  0  0
 19  1  2  0  0  0  0
 19 13  1  0  0  0  0
 20 11  1  0  0  0  0
 20 10  2  0  0  0  0
 21  1  1  0  0  0  0
 22 23  2  6  0  0  0
 22 21  1  0  0  0  0
 24 26  1  0  0  0  0
 24 28  1  1  0  0  0
 26 25  1  6  0  0  0
 26 22  1  0  0  0  0
 27 24  1  0  0  0  0
 27 26  1  0  0  0  0
M  END
>  <MODEL>
6

>  <REMARK>
 VINA RESULT:     -10.1      1.990      3.144
  Name = 
  3 active torsions:
  status: ('A' for Active; 'I' for Inactive)
    1  A    between atoms: C_1  and  C_2
    2  A    between atoms: C_2  and  S_3
    3  A    between atoms: S_3  and  C_11
                            x       y       z     vdW  Elec       q    Type
                         _______ _______ _______ _____ _____    ______ ____

>  <TORSDO>
F 3

$$$$
=
 OpenBabel10262420493D

 28 32  0  0  1  0  0  0  0  0999 V2000
  187.3030  178.3590  140.6950 C   0  0  0  0  0  0  0  0  0  0  0  0
  187.3580  177.9730  145.9170 C   0  0  0  0  0  3  0  0  0  0  0  0
  191.6410  176.6260  141.8320 O   0  0  0  0  0  0  0  0  0  0  0  0
  189.6780  177.4290  146.3920 C   0  0  0  0  0  0  0  0  0  0  0  0
  188.9080  177.5090  144.0720 C   0  0  0  0  0  0  0  0  0  0  0  0
  188.1430  177.8960  148.2070 C   0  0  0  0  0  0  0  0  0  0  0  0
  188.6410  177.6390  145.4520 C   0  0  0  0  0  0  0  0  0  0  0  0
  191.2210  176.9500  144.5970 C   0  0  0  0  0  3  0  0  0  0  0  0
  189.4230  177.5590  147.7600 C   0  0  0  0  0  3  0  0  0  0  0  0
  189.5200  177.5000  141.2240 C   0  0  0  0  0  0  0  0  0  0  0  0
  187.7850  177.6450  143.0700 C   0  0  0  0  0  2  0  0  0  0  0  0
  190.9570  177.0830  145.9590 C   0  0  0  0  0  3  0  0  0  0  0  0
  188.9470  178.0630  138.9360 C   0  0  0  0  0  3  0  0  0  0  0  0
  190.5170  177.0550  142.2130 C   0  0  0  0  0  0  0  0  0  0  0  0
  189.8700  177.6000  139.8720 C   0  0  0  0  0  3  0  0  0  0  0  0
  187.9000  178.0210  149.5330 F   0  0  0  0  0  0  0  0  0  0  0  0
  187.1120  178.1010  147.2870 C   0  0  0  0  0  3  0  0  0  0  0  0
  190.2090  177.1570  143.6500 C   0  0  0  0  0  0  0  0  0  0  0  0
  187.6690  178.4420  139.3480 C   0  0  0  0  0  3  0  0  0  0  0  0
  188.2260  177.8720  141.6440 C   0  0  0  0  0  0  0  0  0  0  0  0
  185.9210  178.7830  141.0970 C   0  0  0  0  0  2  0  0  0  0  0  0
  184.7490  178.7180  139.7130 S   0  0  2  0  0  0  0  0  0  0  0  0
  184.5860  180.1740  139.2870 O   0  0  0  0  0  0  0  0  0  0  0  0
  182.5150  176.9580  139.9620 C   0  0  1  0  0  3  0  0  0  0  0  0
  182.8830  178.5320  141.8640 C   0  0  0  0  0  1  0  0  0  0  0  0
  183.1410  178.2120  140.4070 C   0  0  1  0  0  0  0  0  0  0  0  0
  181.6940  178.4870  139.3140 S   0  0  0  0  0  0  0  0  0  0  0  0
  183.2290  176.3420  138.9330 O   0  0  0  0  0  1  0  0  0  0  0  0
  1 21  1  0  0  0  0
  1 20  1  0  0  0  0
  2 17  1  0  0  0  0
  3 14  2  0  0  0  0
  4  9  2  0  0  0  0
  5  7  1  0  0  0  0
  6 16  1  0  0  0  0
  7  2  2  0  0  0  0
  7  4  1  0  0  0  0
  8 12  2  0  0  0  0
  9  6  1  0  0  0  0
 10 20  2  0  0  0  0
 10 14  1  0  0  0  0
 11  5  1  0  0  0  0
 12  4  1  0  0  0  0
 13 19  1  0  0  0  0
 13 15  2  0  0  0  0
 14 18  1  0  0  0  0
 15 10  1  0  0  0  0
 17  6  2  0  0  0  0
 18  5  2  0  0  0  0
 18  8  1  0  0  0  0
 19  1  2  0  0  0  0
 20 11  1  0  0  0  0
 22 23  2  1  0  0  0
 22 26  1  0  0  0  0
 22 21  1  0  0  0  0
 24 28  1  6  0  0  0
 24 26  1  0  0  0  0
 26 25  1  1  0  0  0
 27 24  1  0  0  0  0
 27 26  1  0  0  0  0
M  END
>  <MODEL>
7

>  <REMARK>
 VINA RESULT:     -10.0      3.344      5.922
  Name = 
  3 active torsions:
  status: ('A' for Active; 'I' for Inactive)
    1  A    between atoms: C_1  and  C_2
    2  A    between atoms: C_2  and  S_3
    3  A    between atoms: S_3  and  C_11
                            x       y       z     vdW  Elec       q    Type
                         _______ _______ _______ _____ _____    ______ ____

>  <TORSDO>
F 3

$$$$
=
 OpenBabel10262420493D

 28 32  0  0  1  0  0  0  0  0999 V2000
  187.3270  178.3650  140.7850 C   0  0  0  0  0  0  0  0  0  0  0  0
  190.6170  177.2090  144.6910 C   0  0  0  0  0  3  0  0  0  0  0  0
  184.7140  178.6160  144.8120 O   0  0  0  0  0  0  0  0  0  0  0  0
  189.1350  177.0260  146.6070 C   0  0  0  0  0  0  0  0  0  0  0  0
  188.2460  177.8020  144.4640 C   0  0  0  0  0  0  0  0  0  0  0  0
  191.4740  176.4370  146.8200 C   0  0  0  0  0  0  0  0  0  0  0  0
  189.3330  177.3480  145.2430 C   0  0  0  0  0  0  0  0  0  0  0  0
  186.8010  177.6210  146.4170 C   0  0  0  0  0  3  0  0  0  0  0  0
  190.2030  176.5730  147.3840 C   0  0  0  0  0  3  0  0  0  0  0  0
  185.9590  178.4830  142.7960 C   0  0  0  0  0  0  0  0  0  0  0  0
  188.4720  178.2310  143.0320 C   0  0  0  0  0  2  0  0  0  0  0  0
  187.8730  177.1680  147.1840 C   0  0  0  0  0  3  0  0  0  0  0  0
  184.9390  178.7540  140.6120 C   0  0  0  0  0  3  0  0  0  0  0  0
  185.8220  178.3750  144.2580 C   0  0  0  0  0  0  0  0  0  0  0  0
  184.8260  178.6960  142.0000 C   0  0  0  0  0  3  0  0  0  0  0  0
  192.5070  175.9970  147.5770 F   0  0  0  0  0  0  0  0  0  0  0  0
  191.6810  176.7560  145.4760 C   0  0  0  0  0  3  0  0  0  0  0  0
  186.9760  177.9400  145.0640 C   0  0  0  0  0  0  0  0  0  0  0  0
  186.1850  178.5880  140.0080 C   0  0  0  0  0  3  0  0  0  0  0  0
  187.2230  178.3250  142.1910 C   0  0  0  0  0  0  0  0  0  0  0  0
  188.6470  178.1840  140.0950 C   0  0  0  0  0  2  0  0  0  0  0  0
  188.5530  177.0040  138.7190 S   0  0  2  0  0  0  0  0  0  0  0  0
  189.9200  176.3300  138.7050 O   0  0  0  0  0  0  0  0  0  0  0  0
  187.2770  177.8740  136.3180 C   0  0  1  0  0  3  0  0  0  0  0  0
  189.0550  179.3780  137.2180 C   0  0  0  0  0  1  0  0  0  0  0  0
  188.4580  177.9880  137.1870 C   0  0  1  0  0  0  0  0  0  0  0  0
  188.7970  177.0620  135.6400 S   0  0  0  0  0  0  0  0  0  0  0  0
  186.3830  176.8960  136.7570 O   0  0  0  0  0  1  0  0  0  0  0  0
  1 20  1  0  0  0  0
  2  7  2  0  0  0  0
  2 17  1  0  0  0  0
  4 12  1  0  0  0  0
  4  9  2  0  0  0  0
  5 18  2  0  0  0  0
  5  7  1  0  0  0  0
  6  9  1  0  0  0  0
  6 16  1  0  0  0  0
  7  4  1  0  0  0  0
  8 12  2  0  0  0  0
 10 14  1  0  0  0  0
 11  5  1  0  0  0  0
 13 15  2  0  0  0  0
 14  3  2  0  0  0  0
 14 18  1  0  0  0  0
 15 10  1  0  0  0  0
 17  6  2  0  0  0  0
 18  8  1  0  0  0  0
 19 13  1  0  0  0  0
 19  1  2  0  0  0  0
 20 10  2  0  0  0  0
 20 11  1  0  0  0  0
 21  1  1  0  0  0  0
 22 23  2  6  0  0  0
 22 21  1  0  0  0  0
 24 28  1  1  0  0  0
 24 26  1  0  0  0  0
 26 25  1  1  0  0  0
 26 22  1  0  0  0  0
 27 24  1  0  0  0  0
 27 26  1  0  0  0  0
M  END
>  <MODEL>
8

>  <REMARK>
 VINA RESULT:      -9.8      3.036      5.548
  Name = 
  3 active torsions:
  status: ('A' for Active; 'I' for Inactive)
    1  A    between atoms: C_1  and  C_2
    2  A    between atoms: C_2  and  S_3
    3  A    between atoms: S_3  and  C_11
                            x       y       z     vdW  Elec       q    Type
                         _______ _______ _______ _____ _____    ______ ____

>  <TORSDO>
F 3

$$$$
=
 OpenBabel10262420493D

 28 32  0  0  1  0  0  0  0  0999 V2000
  183.7310  178.2550  141.8210 C   0  0  0  0  0  0  0  0  0  0  0  0
  188.7320  176.9100  142.5960 C   0  0  0  0  0  3  0  0  0  0  0  0
  184.6490  179.2380  146.4360 O   0  0  0  0  0  0  0  0  0  0  0  0
  188.9790  177.1180  145.0040 C   0  0  0  0  0  0  0  0  0  0  0  0
  186.9030  177.8510  143.9360 C   0  0  0  0  0  0  0  0  0  0  0  0
  190.7750  176.1850  143.6750 C   0  0  0  0  0  0  0  0  0  0  0  0
  188.1970  177.2940  143.8370 C   0  0  0  0  0  0  0  0  0  0  0  0
  187.2020  178.0570  146.3450 C   0  0  0  0  0  3  0  0  0  0  0  0
  190.2590  176.5660  144.9160 C   0  0  0  0  0  3  0  0  0  0  0  0
  184.1430  178.7490  144.1700 C   0  0  0  0  0  0  0  0  0  0  0  0
  186.1020  178.1220  142.6840 C   0  0  0  0  0  2  0  0  0  0  0  0
  188.4770  177.5030  146.2470 C   0  0  0  0  0  3  0  0  0  0  0  0
  181.9150  179.0020  143.2450 C   0  0  0  0  0  3  0  0  0  0  0  0
  185.0490  178.7820  145.3300 C   0  0  0  0  0  0  0  0  0  0  0  0
  182.7900  179.0730  144.3280 C   0  0  0  0  0  3  0  0  0  0  0  0
  192.0170  175.6490  143.5940 F   0  0  0  0  0  0  0  0  0  0  0  0
  190.0140  176.3580  142.5170 C   0  0  0  0  0  3  0  0  0  0  0  0
  186.4120  178.2360  145.2020 C   0  0  0  0  0  0  0  0  0  0  0  0
  182.3850  178.5920  141.9970 C   0  0  0  0  0  3  0  0  0  0  0  0
  184.6260  178.3450  142.9080 C   0  0  0  0  0  0  0  0  0  0  0  0
  184.1940  177.8130  140.4640 C   0  0  0  0  0  2  0  0  0  0  0  0
  185.3320  179.0030  139.7000 S   0  0  2  0  0  0  0  0  0  0  0  0
  184.4190  180.0630  139.0930 O   0  0  0  0  0  0  0  0  0  0  0  0
  187.5510  177.8180  138.3520 C   0  0  1  0  0  3  0  0  0  0  0  0
  185.2900  177.1260  137.5510 C   0  0  0  0  0  1  0  0  0  0  0  0
  186.1200  178.1510  138.2950 C   0  0  1  0  0  0  0  0  0  0  0  0
  187.1440  179.2150  137.2060 S   0  0  0  0  0  0  0  0  0  0  0  0
  188.1700  178.3200  139.4980 O   0  0  0  0  0  1  0  0  0  0  0  0
  1 19  2  0  0  0  0
  1 20  1  0  0  0  0
  2  7  1  0  0  0  0
  4 12  1  0  0  0  0
  5 18  2  0  0  0  0
  6  9  2  0  0  0  0
  7  5  1  0  0  0  0
  7  4  2  0  0  0  0
  9  4  1  0  0  0  0
 10 15  1  0  0  0  0
 10 14  1  0  0  0  0
 11 20  1  0  0  0  0
 11  5  1  0  0  0  0
 12  8  2  0  0  0  0
 13 15  2  0  0  0  0
 14  3  2  0  0  0  0
 16  6  1  0  0  0  0
 17  2  2  0  0  0  0
 17  6  1  0  0  0  0
 18 14  1  0  0  0  0
 18  8  1  0  0  0  0
 19 13  1  0  0  0  0
 20 10  2  0  0  0  0
 21  1  1  0  0  0  0
 22 23  2  6  0  0  0
 22 21  1  0  0  0  0
 24 28  1  1  0  0  0
 26 25  1  6  0  0  0
 26 24  1  0  0  0  0
 26 22  1  0  0  0  0
 27 26  1  0  0  0  0
 27 24  1  0  0  0  0
M  END
>  <MODEL>
9

>  <REMARK>
 VINA RESULT:      -9.8      3.106      5.804
  Name = 
  3 active torsions:
  status: ('A' for Active; 'I' for Inactive)
    1  A    between atoms: C_1  and  C_2
    2  A    between atoms: C_2  and  S_3
    3  A    between atoms: S_3  and  C_11
                            x       y       z     vdW  Elec       q    Type
                         _______ _______ _______ _____ _____    ______ ____

>  <TORSDO>
F 3

$$$$
