=
 OpenBabel10262420423D

 28 32  0  0  1  0  0  0  0  0999 V2000
  184.6980  178.8530  144.0360 C   0  0  0  0  0  0  0  0  0  0  0  0
  188.1570  178.3130  140.0960 C   0  0  0  0  0  2  0  0  0  0  0  0
  188.8840  176.9550  145.9940 C   0  0  0  0  0  1  0  0  0  0  0  0
  190.7380  176.7130  140.4870 C   0  0  0  0  0  2  0  0  0  0  0  0
  187.8980  177.8410  142.4310 C   0  0  0  0  0  0  0  0  0  0  0  0
  189.6820  177.4030  138.3180 C   0  0  0  0  0  0  0  0  0  0  0  0
  188.6230  177.7700  141.2270 C   0  0  0  0  0  0  0  0  0  0  0  0
  190.1320  176.8920  143.0510 S   0  0  0  0  0  0  0  0  0  0  0  0
  190.5170  176.6490  139.0310 C   0  0  0  0  0  3  0  0  0  0  0  0
  186.7560  177.9230  144.9950 C   0  0  0  0  0  0  0  0  0  0  0  0
  186.6020  178.3390  142.5850 C   0  0  0  0  0  3  0  0  0  0  0  0
  189.8970  177.1970  141.4080 C   0  0  0  0  0  0  0  0  0  0  0  0
  184.8720  178.4680  146.4270 C   0  0  0  0  0  3  0  0  0  0  0  0
  188.0720  177.4330  144.8310 C   0  0  0  0  0  0  0  0  0  0  0  0
  186.1680  177.9780  146.2660 C   0  0  0  0  0  3  0  0  0  0  0  0
  189.5330  177.1330  136.9650 O   0  0  0  0  0  1  0  0  0  0  0  0
  188.9840  178.5920  138.8830 C   0  0  0  0  0  2  0  0  0  0  0  0
  188.6090  177.4080  143.5410 C   0  0  0  0  0  0  0  0  0  0  0  0
  184.1450  178.9030  145.3200 C   0  0  0  0  0  3  0  0  0  0  0  0
  186.0140  178.3740  143.8620 C   0  0  0  0  0  0  0  0  0  0  0  0
  183.8600  179.3230  142.8670 C   0  0  0  0  0  2  0  0  0  0  0  0
  182.7370  178.4330  142.5230 N   0  0  0  0  0  0  0  0  0  0  0  0
  180.6680  178.9900  141.4170 C   0  0  1  0  0  3  0  0  0  0  0  0
  182.8290  178.0070  141.1270 C   0  0  0  0  0  2  0  0  0  0  0  0
  180.6900  178.4930  143.8470 C   0  0  0  0  0  1  0  0  0  0  0  0
  181.4580  179.1190  142.7000 C   0  0  1  0  0  3  0  0  0  0  0  0
  180.0170  180.3150  141.0730 C   0  0  0  0  0  1  0  0  0  0  0  0
  181.6820  178.6340  140.3650 C   0  0  0  0  0  2  0  0  0  0  0  0
  1 19  1  0  0  0  0
  2  7  1  0  0  0  0
  4 12  1  0  0  0  0
  5 11  2  0  0  0  0
  5 18  1  0  0  0  0
  6 17  1  0  0  0  0
  6  9  2  0  0  0  0
  7 12  2  0  0  0  0
  7  5  1  0  0  0  0
  8 18  1  0  0  0  0
  9  4  1  0  0  0  0
 10 15  2  0  0  0  0
 11 20  1  0  0  0  0
 12  8  1  0  0  0  0
 14 10  1  0  0  0  0
 14  3  1  0  0  0  0
 15 13  1  0  0  0  0
 16  6  1  0  0  0  0
 17  2  1  0  0  0  0
 18 14  2  0  0  0  0
 19 13  2  0  0  0  0
 20  1  2  0  0  0  0
 20 10  1  0  0  0  0
 21  1  1  0  0  0  0
 22 26  1  0  0  0  0
 22 21  1  0  0  0  0
 23 27  1  6  0  0  0
 23 26  1  0  0  0  0
 24 22  1  0  0  0  0
 26 25  1  1  0  0  0
 28 24  1  0  0  0  0
 28 23  1  0  0  0  0
M  END
>  <MODEL>
1

>  <REMARK>
 VINA RESULT:     -10.4      0.000      0.000
  Name = 
  2 active torsions:
  status: ('A' for Active; 'I' for Inactive)
    1  A    between atoms: C_1  and  C_2
    2  A    between atoms: C_2  and  N_3
                            x       y       z     vdW  Elec       q    Type
                         _______ _______ _______ _____ _____    ______ ____

>  <TORSDO>
F 2

$$$$
=
 OpenBabel10262420423D

 28 32  0  0  1  0  0  0  0  0999 V2000
  188.6360  177.0820  143.4400 C   0  0  0  0  0  0  0  0  0  0  0  0
  183.8620  177.8290  141.3340 C   0  0  0  0  0  2  0  0  0  0  0  0
  185.6630  178.7730  147.0810 C   0  0  0  0  0  1  0  0  0  0  0  0
  181.6960  179.3540  142.8680 C   0  0  0  0  0  2  0  0  0  0  0  0
  185.0730  178.1460  143.3790 C   0  0  0  0  0  0  0  0  0  0  0  0
  181.7500  178.8310  140.4150 C   0  0  0  0  0  0  0  0  0  0  0  0
  183.9140  178.2850  142.5910 C   0  0  0  0  0  0  0  0  0  0  0  0
  183.3090  179.0130  144.9320 S   0  0  0  0  0  0  0  0  0  0  0  0
  181.2950  179.5200  141.4590 C   0  0  0  0  0  3  0  0  0  0  0  0
  187.1730  177.9110  145.2270 C   0  0  0  0  0  0  0  0  0  0  0  0
  186.3090  177.6610  142.9470 C   0  0  0  0  0  3  0  0  0  0  0  0
  182.8370  178.8240  143.3230 C   0  0  0  0  0  0  0  0  0  0  0  0
  189.4750  177.3020  145.7080 C   0  0  0  0  0  3  0  0  0  0  0  0
  185.9140  178.3880  145.6570 C   0  0  0  0  0  0  0  0  0  0  0  0
  188.2350  177.7800  146.1320 C   0  0  0  0  0  3  0  0  0  0  0  0
  181.3270  179.1930  139.1430 O   0  0  0  0  0  1  0  0  0  0  0  0
  182.6030  177.6180  140.5570 C   0  0  0  0  0  2  0  0  0  0  0  0
  184.8910  178.4910  144.7100 C   0  0  0  0  0  0  0  0  0  0  0  0
  189.6720  176.9550  144.3720 C   0  0  0  0  0  3  0  0  0  0  0  0
  187.3730  177.5500  143.8600 C   0  0  0  0  0  0  0  0  0  0  0  0
  188.9090  176.7070  142.0000 C   0  0  0  0  0  2  0  0  0  0  0  0
  189.6130  177.7400  141.2200 N   0  0  0  0  0  0  0  0  0  0  0  0
  190.3160  177.6600  138.9160 C   0  0  1  0  0  3  0  0  0  0  0  0
  188.6650  178.5140  140.4200 C   0  0  0  0  0  2  0  0  0  0  0  0
  191.9900  177.4890  140.7390 C   0  0  0  0  0  1  0  0  0  0  0  0
  190.5810  177.1330  140.3080 C   0  0  1  0  0  3  0  0  0  0  0  0
  190.3950  176.5290  137.9100 C   0  0  0  0  0  1  0  0  0  0  0  0
  188.9150  178.2040  138.9610 C   0  0  0  0  0  2  0  0  0  0  0  0
  1 20  2  0  0  0  0
  1 19  1  0  0  0  0
  2  7  1  0  0  0  0
  4 12  1  0  0  0  0
  5 18  1  0  0  0  0
  6 17  1  0  0  0  0
  6  9  2  0  0  0  0
  7 12  2  0  0  0  0
  7  5  1  0  0  0  0
  9  4  1  0  0  0  0
 10 14  1  0  0  0  0
 10 15  2  0  0  0  0
 11  5  2  0  0  0  0
 11 20  1  0  0  0  0
 12  8  1  0  0  0  0
 13 15  1  0  0  0  0
 14  3  1  0  0  0  0
 16  6  1  0  0  0  0
 17  2  1  0  0  0  0
 18  8  1  0  0  0  0
 18 14  2  0  0  0  0
 19 13  2  0  0  0  0
 20 10  1  0  0  0  0
 21  1  1  0  0  0  0
 22 21  1  0  0  0  0
 23 27  1  6  0  0  0
 23 28  1  0  0  0  0
 23 26  1  0  0  0  0
 24 22  1  0  0  0  0
 26 25  1  1  0  0  0
 26 22  1  0  0  0  0
 28 24  1  0  0  0  0
M  END
>  <MODEL>
2

>  <REMARK>
 VINA RESULT:     -10.3      2.693      6.831
  Name = 
  2 active torsions:
  status: ('A' for Active; 'I' for Inactive)
    1  A    between atoms: C_1  and  C_2
    2  A    between atoms: C_2  and  N_3
                            x       y       z     vdW  Elec       q    Type
                         _______ _______ _______ _____ _____    ______ ____

>  <TORSDO>
F 2

$$$$
=
 OpenBabel10262420423D

 28 32  0  0  1  0  0  0  0  0999 V2000
  190.3420  176.4700  143.8520 C   0  0  0  0  0  0  0  0  0  0  0  0
  185.3090  177.7650  142.9690 C   0  0  0  0  0  2  0  0  0  0  0  0
  188.4230  178.0000  148.2040 C   0  0  0  0  0  1  0  0  0  0  0  0
  183.6900  179.2820  145.0780 C   0  0  0  0  0  2  0  0  0  0  0  0
  186.9680  177.7890  144.6980 C   0  0  0  0  0  0  0  0  0  0  0  0
  183.1470  179.0030  142.6440 C   0  0  0  0  0  0  0  0  0  0  0  0
  185.6810  178.0890  144.2120 C   0  0  0  0  0  0  0  0  0  0  0  0
  185.6820  178.6210  146.6810 S   0  0  0  0  0  0  0  0  0  0  0  0
  183.0020  179.6160  143.8170 C   0  0  0  0  0  3  0  0  0  0  0  0
  189.3960  177.2200  145.9880 C   0  0  0  0  0  0  0  0  0  0  0  0
  188.0270  177.2610  143.9560 C   0  0  0  0  0  3  0  0  0  0  0  0
  184.8490  178.6280  145.2130 C   0  0  0  0  0  0  0  0  0  0  0  0
  191.6810  176.4020  145.8770 C   0  0  0  0  0  3  0  0  0  0  0  0
  188.3140  177.7410  146.7340 C   0  0  0  0  0  0  0  0  0  0  0  0
  190.6160  176.9230  146.6120 C   0  0  0  0  0  3  0  0  0  0  0  0
  182.4880  179.5200  141.5370 O   0  0  0  0  0  1  0  0  0  0  0  0
  183.8950  177.7240  142.4880 C   0  0  0  0  0  2  0  0  0  0  0  0
  187.1200  178.0120  146.0590 C   0  0  0  0  0  0  0  0  0  0  0  0
  191.5420  176.1770  144.5080 C   0  0  0  0  0  3  0  0  0  0  0  0
  189.2530  176.9840  144.5880 C   0  0  0  0  0  0  0  0  0  0  0  0
  190.2510  176.2220  142.3620 C   0  0  0  0  0  2  0  0  0  0  0  0
  190.5320  177.4020  141.5260 N   0  0  0  0  0  0  0  0  0  0  0  0
  190.3620  177.6180  139.1310 C   0  0  1  0  0  3  0  0  0  0  0  0
  189.2950  178.1160  141.2120 C   0  0  0  0  0  2  0  0  0  0  0  0
  192.5880  177.5030  140.2190 C   0  0  0  0  0  1  0  0  0  0  0  0
  191.1560  177.0080  140.2650 C   0  0  1  0  0  3  0  0  0  0  0  0
  190.1730  176.6000  138.0240 C   0  0  0  0  0  1  0  0  0  0  0  0
  189.0290  177.9710  139.7310 C   0  0  0  0  0  2  0  0  0  0  0  0
  1 19  2  0  0  0  0
  1 20  1  0  0  0  0
  2  7  1  0  0  0  0
  4 12  1  0  0  0  0
  5 18  1  0  0  0  0
  6  9  2  0  0  0  0
  7  5  1  0  0  0  0
  7 12  2  0  0  0  0
  9  4  1  0  0  0  0
 10 15  1  0  0  0  0
 10 14  1  0  0  0  0
 11 20  1  0  0  0  0
 11  5  2  0  0  0  0
 12  8  1  0  0  0  0
 13 15  2  0  0  0  0
 14  3  1  0  0  0  0
 16  6  1  0  0  0  0
 17  6  1  0  0  0  0
 17  2  1  0  0  0  0
 18  8  1  0  0  0  0
 18 14  2  0  0  0  0
 19 13  1  0  0  0  0
 20 10  2  0  0  0  0
 21  1  1  0  0  0  0
 22 21  1  0  0  0  0
 23 27  1  6  0  0  0
 23 28  1  0  0  0  0
 23 26  1  0  0  0  0
 24 22  1  0  0  0  0
 26 25  1  1  0  0  0
 26 22  1  0  0  0  0
 28 24  1  0  0  0  0
M  END
>  <MODEL>
3

>  <REMARK>
 VINA RESULT:     -10.2      2.896      7.018
  Name = 
  2 active torsions:
  status: ('A' for Active; 'I' for Inactive)
    1  A    between atoms: C_1  and  C_2
    2  A    between atoms: C_2  and  N_3
                            x       y       z     vdW  Elec       q    Type
                         _______ _______ _______ _____ _____    ______ ____

>  <TORSDO>
F 2

$$$$
=
 OpenBabel10262420423D

 28 32  0  0  1  0  0  0  0  0999 V2000
  186.7420  177.5220  145.2520 C   0  0  0  0  0  0  0  0  0  0  0  0
  188.3870  177.4690  140.2450 C   0  0  0  0  0  2  0  0  0  0  0  0
  191.7370  177.5370  145.3370 C   0  0  0  0  0  1  0  0  0  0  0  0
  191.3240  176.9340  139.5670 C   0  0  0  0  0  2  0  0  0  0  0  0
  189.2270  177.3720  142.4880 C   0  0  0  0  0  0  0  0  0  0  0  0
  189.3530  176.8180  138.0190 C   0  0  0  0  0  0  0  0  0  0  0  0
  189.4130  177.3320  141.0920 C   0  0  0  0  0  0  0  0  0  0  0  0
  191.7080  177.3630  142.1450 S   0  0  0  0  0  0  0  0  0  0  0  0
  190.6140  176.5340  138.3390 C   0  0  0  0  0  3  0  0  0  0  0  0
  189.1960  177.5320  145.2900 C   0  0  0  0  0  0  0  0  0  0  0  0
  188.0000  177.4240  143.1540 C   0  0  0  0  0  3  0  0  0  0  0  0
  190.7760  177.2650  140.7420 C   0  0  0  0  0  0  0  0  0  0  0  0
  187.9350  177.6610  147.3630 C   0  0  0  0  0  3  0  0  0  0  0  0
  190.4320  177.4930  144.6060 C   0  0  0  0  0  0  0  0  0  0  0  0
  189.1560  177.6160  146.6890 C   0  0  0  0  0  3  0  0  0  0  0  0
  188.8220  176.2720  136.8580 O   0  0  0  0  0  1  0  0  0  0  0  0
  188.5220  177.7850  138.7900 C   0  0  0  0  0  2  0  0  0  0  0  0
  190.4100  177.4150  143.2110 C   0  0  0  0  0  0  0  0  0  0  0  0
  186.7390  177.6160  146.6480 C   0  0  0  0  0  3  0  0  0  0  0  0
  187.9710  177.4910  144.5580 C   0  0  0  0  0  0  0  0  0  0  0  0
  185.4160  177.4590  144.5270 C   0  0  0  0  0  2  0  0  0  0  0  0
  184.9510  178.7490  143.9890 N   0  0  0  0  0  0  0  0  0  0  0  0
  183.1850  179.1610  142.3990 C   0  0  1  0  0  3  0  0  0  0  0  0
  183.7710  179.2150  144.7160 C   0  0  0  0  0  2  0  0  0  0  0  0
  185.5590  179.4090  141.7210 C   0  0  0  0  0  1  0  0  0  0  0  0
  184.5870  178.6230  142.5780 C   0  0  1  0  0  3  0  0  0  0  0  0
  182.3880  178.2410  141.4950 C   0  0  0  0  0  1  0  0  0  0  0  0
  182.5860  179.1640  143.7780 C   0  0  0  0  0  2  0  0  0  0  0  0
  1 19  1  0  0  0  0
  2  7  1  0  0  0  0
  4 12  1  0  0  0  0
  5 11  2  0  0  0  0
  5 18  1  0  0  0  0
  6  9  2  0  0  0  0
  6 17  1  0  0  0  0
  7  5  1  0  0  0  0
  8 18  1  0  0  0  0
  9  4  1  0  0  0  0
 10 15  2  0  0  0  0
 11 20  1  0  0  0  0
 12  7  2  0  0  0  0
 12  8  1  0  0  0  0
 14 10  1  0  0  0  0
 14  3  1  0  0  0  0
 15 13  1  0  0  0  0
 16  6  1  0  0  0  0
 17  2  1  0  0  0  0
 18 14  2  0  0  0  0
 19 13  2  0  0  0  0
 20  1  2  0  0  0  0
 20 10  1  0  0  0  0
 21  1  1  0  0  0  0
 22 21  1  0  0  0  0
 22 24  1  0  0  0  0
 23 27  1  6  0  0  0
 23 26  1  0  0  0  0
 23 28  1  0  0  0  0
 26 25  1  6  0  0  0
 26 22  1  0  0  0  0
 28 24  1  0  0  0  0
M  END
>  <MODEL>
4

>  <REMARK>
 VINA RESULT:      -9.9      1.380      2.557
  Name = 
  2 active torsions:
  status: ('A' for Active; 'I' for Inactive)
    1  A    between atoms: C_1  and  C_2
    2  A    between atoms: C_2  and  N_3
                            x       y       z     vdW  Elec       q    Type
                         _______ _______ _______ _____ _____    ______ ____

>  <TORSDO>
F 2

$$$$
=
 OpenBabel10262420423D

 28 32  0  0  1  0  0  0  0  0999 V2000
  187.1570  178.3940  140.1850 C   0  0  0  0  0  0  0  0  0  0  0  0
  190.1340  177.6770  144.4750 C   0  0  0  0  0  2  0  0  0  0  0  0
  184.1030  178.4920  144.1370 C   0  0  0  0  0  1  0  0  0  0  0  0
  188.8500  177.0950  147.1920 C   0  0  0  0  0  2  0  0  0  0  0  0
  187.8430  177.9010  143.8080 C   0  0  0  0  0  0  0  0  0  0  0  0
  191.2430  176.7400  146.5260 C   0  0  0  0  0  0  0  0  0  0  0  0
  188.8320  177.6720  144.7840 C   0  0  0  0  0  0  0  0  0  0  0  0
  186.6290  177.8800  145.9990 S   0  0  0  0  0  0  0  0  0  0  0  0
  190.2010  176.5200  147.3260 C   0  0  0  0  0  3  0  0  0  0  0  0
  185.6600  178.4430  142.1280 C   0  0  0  0  0  0  0  0  0  0  0  0
  188.0560  178.0260  142.4330 C   0  0  0  0  0  3  0  0  0  0  0  0
  188.2870  177.5770  146.0790 C   0  0  0  0  0  0  0  0  0  0  0  0
  184.7880  178.8390  139.8960 C   0  0  0  0  0  3  0  0  0  0  0  0
  185.4580  178.3290  143.5230 C   0  0  0  0  0  0  0  0  0  0  0  0
  184.5860  178.7190  141.2710 C   0  0  0  0  0  3  0  0  0  0  0  0
  192.4150  176.0310  146.7520 O   0  0  0  0  0  1  0  0  0  0  0  0
  191.2430  177.7910  145.4710 C   0  0  0  0  0  2  0  0  0  0  0  0
  186.5670  178.0600  144.3290 C   0  0  0  0  0  0  0  0  0  0  0  0
  186.0650  178.6780  139.3590 C   0  0  0  0  0  3  0  0  0  0  0  0
  186.9680  178.2850  141.5790 C   0  0  0  0  0  0  0  0  0  0  0  0
  188.5180  178.2130  139.5490 C   0  0  0  0  0  2  0  0  0  0  0  0
  188.8140  176.8360  139.1170 N   0  0  0  0  0  0  0  0  0  0  0  0
  189.8640  176.0980  137.0750 C   0  0  1  0  0  3  0  0  0  0  0  0
  190.2050  176.4930  139.4090 C   0  0  0  0  0  2  0  0  0  0  0  0
  187.4280  175.7730  137.4150 C   0  0  0  0  0  1  0  0  0  0  0  0
  188.6080  176.6880  137.6770 C   0  0  1  0  0  3  0  0  0  0  0  0
  190.2070  176.8160  135.7850 C   0  0  0  0  0  1  0  0  0  0  0  0
  190.9410  176.3430  138.0960 C   0  0  0  0  0  2  0  0  0  0  0  0
  1 20  1  0  0  0  0
  2  7  1  0  0  0  0
  2 17  1  0  0  0  0
  4  9  1  0  0  0  0
  5 18  1  0  0  0  0
  5  7  1  0  0  0  0
  6 16  1  0  0  0  0
  6  9  2  0  0  0  0
  7 12  2  0  0  0  0
  8 12  1  0  0  0  0
 10 14  1  0  0  0  0
 11  5  2  0  0  0  0
 12  4  1  0  0  0  0
 13 15  2  0  0  0  0
 14  3  1  0  0  0  0
 14 18  2  0  0  0  0
 15 10  1  0  0  0  0
 17  6  1  0  0  0  0
 18  8  1  0  0  0  0
 19 13  1  0  0  0  0
 19  1  2  0  0  0  0
 20 10  2  0  0  0  0
 20 11  1  0  0  0  0
 21  1  1  0  0  0  0
 22 24  1  0  0  0  0
 22 21  1  0  0  0  0
 23 27  1  6  0  0  0
 23 26  1  0  0  0  0
 23 28  1  0  0  0  0
 26 25  1  1  0  0  0
 26 22  1  0  0  0  0
 28 24  1  0  0  0  0
M  END
>  <MODEL>
5

>  <REMARK>
 VINA RESULT:      -9.8      3.170      6.794
  Name = 
  2 active torsions:
  status: ('A' for Active; 'I' for Inactive)
    1  A    between atoms: C_1  and  C_2
    2  A    between atoms: C_2  and  N_3
                            x       y       z     vdW  Elec       q    Type
                         _______ _______ _______ _____ _____    ______ ____

>  <TORSDO>
F 2

$$$$
=
 OpenBabel10262420423D

 28 32  0  0  1  0  0  0  0  0999 V2000
  189.8820  177.9030  140.2550 C   0  0  0  0  0  0  0  0  0  0  0  0
  185.0580  178.3420  142.3330 C   0  0  0  0  0  2  0  0  0  0  0  0
  190.2860  176.9540  145.1430 C   0  0  0  0  0  1  0  0  0  0  0  0
  184.6610  178.4150  145.3670 C   0  0  0  0  0  2  0  0  0  0  0  0
  187.3390  177.9710  142.9680 C   0  0  0  0  0  0  0  0  0  0  0  0
  183.0250  179.1050  143.5950 C   0  0  0  0  0  0  0  0  0  0  0  0
  185.9810  178.1690  143.2850 C   0  0  0  0  0  0  0  0  0  0  0  0
  187.1630  177.5700  145.4350 S   0  0  0  0  0  0  0  0  0  0  0  0
  183.4650  179.1040  144.8520 C   0  0  0  0  0  3  0  0  0  0  0  0
  190.0770  177.4350  142.6560 C   0  0  0  0  0  0  0  0  0  0  0  0
  187.9090  178.0560  141.6960 C   0  0  0  0  0  3  0  0  0  0  0  0
  185.7340  178.0310  144.6650 C   0  0  0  0  0  0  0  0  0  0  0  0
  192.0200  177.2550  141.2080 C   0  0  0  0  0  3  0  0  0  0  0  0
  189.4880  177.3380  143.9370 C   0  0  0  0  0  0  0  0  0  0  0  0
  191.4410  177.1660  142.4740 C   0  0  0  0  0  3  0  0  0  0  0  0
  181.9290  179.8950  143.2750 O   0  0  0  0  0  1  0  0  0  0  0  0
  183.5840  178.2110  142.5430 C   0  0  0  0  0  2  0  0  0  0  0  0
  188.1220  177.6110  144.0550 C   0  0  0  0  0  0  0  0  0  0  0  0
  191.2440  177.6190  140.1080 C   0  0  0  0  0  3  0  0  0  0  0  0
  189.2820  177.8020  141.5280 C   0  0  0  0  0  0  0  0  0  0  0  0
  189.0910  178.3090  139.0310 C   0  0  0  0  0  2  0  0  0  0  0  0
  188.0540  177.3440  138.6240 N   0  0  0  0  0  0  0  0  0  0  0  0
  186.9460  177.1440  136.4920 C   0  0  1  0  0  3  0  0  0  0  0  0
  188.6500  176.2250  137.8950 C   0  0  0  0  0  2  0  0  0  0  0  0
  185.7300  178.0620  138.4500 C   0  0  0  0  0  1  0  0  0  0  0  0
  187.0710  177.9780  137.7470 C   0  0  1  0  0  3  0  0  0  0  0  0
  186.9040  178.0450  135.2730 C   0  0  0  0  0  1  0  0  0  0  0  0
  188.1890  176.2990  136.4570 C   0  0  0  0  0  2  0  0  0  0  0  0
  1 20  1  0  0  0  0
  2 17  1  0  0  0  0
  2  7  1  0  0  0  0
  5  7  1  0  0  0  0
  5 18  1  0  0  0  0
  6  9  2  0  0  0  0
  7 12  2  0  0  0  0
  9  4  1  0  0  0  0
 10 14  1  0  0  0  0
 11  5  2  0  0  0  0
 12  4  1  0  0  0  0
 12  8  1  0  0  0  0
 13 15  2  0  0  0  0
 14 18  2  0  0  0  0
 14  3  1  0  0  0  0
 15 10  1  0  0  0  0
 16  6  1  0  0  0  0
 17  6  1  0  0  0  0
 18  8  1  0  0  0  0
 19  1  2  0  0  0  0
 19 13  1  0  0  0  0
 20 11  1  0  0  0  0
 20 10  2  0  0  0  0
 21  1  1  0  0  0  0
 22 21  1  0  0  0  0
 23 27  1  6  0  0  0
 23 26  1  0  0  0  0
 24 22  1  0  0  0  0
 26 25  1  1  0  0  0
 26 22  1  0  0  0  0
 28 23  1  0  0  0  0
 28 24  1  0  0  0  0
M  END
>  <MODEL>
6

>  <REMARK>
 VINA RESULT:      -9.3      2.934      6.535
  Name = 
  2 active torsions:
  status: ('A' for Active; 'I' for Inactive)
    1  A    between atoms: C_1  and  C_2
    2  A    between atoms: C_2  and  N_3
                            x       y       z     vdW  Elec       q    Type
                         _______ _______ _______ _____ _____    ______ ____

>  <TORSDO>
F 2

$$$$
=
 OpenBabel10262420423D

 28 32  0  0  1  0  0  0  0  0999 V2000
  189.7110  177.7560  140.6900 C   0  0  0  0  0  0  0  0  0  0  0  0
  184.7850  178.2530  142.4980 C   0  0  0  0  0  2  0  0  0  0  0  0
  189.9130  177.3360  145.6640 C   0  0  0  0  0  1  0  0  0  0  0  0
  184.2460  178.6290  145.4880 C   0  0  0  0  0  2  0  0  0  0  0  0
  187.0440  178.0250  143.2680 C   0  0  0  0  0  0  0  0  0  0  0  0
  182.6750  179.0770  143.5840 C   0  0  0  0  0  0  0  0  0  0  0  0
  185.6680  178.2100  143.5030 C   0  0  0  0  0  0  0  0  0  0  0  0
  186.7640  177.8770  145.7530 S   0  0  0  0  0  0  0  0  0  0  0  0
  183.0560  179.2220  144.8510 C   0  0  0  0  0  3  0  0  0  0  0  0
  189.8070  177.5480  143.1330 C   0  0  0  0  0  0  0  0  0  0  0  0
  187.6700  177.9940  142.0200 C   0  0  0  0  0  3  0  0  0  0  0  0
  185.3600  178.2090  144.8780 C   0  0  0  0  0  0  0  0  0  0  0  0
  191.8190  177.2810  141.7990 C   0  0  0  0  0  3  0  0  0  0  0  0
  189.1620  177.5660  144.3910 C   0  0  0  0  0  0  0  0  0  0  0  0
  191.1850  177.3060  143.0410 C   0  0  0  0  0  3  0  0  0  0  0  0
  181.5740  179.7930  143.1340 O   0  0  0  0  0  1  0  0  0  0  0  0
  183.3080  178.0970  142.6570 C   0  0  0  0  0  2  0  0  0  0  0  0
  187.7850  177.8060  144.4200 C   0  0  0  0  0  0  0  0  0  0  0  0
  191.0860  177.5030  140.6330 C   0  0  0  0  0  3  0  0  0  0  0  0
  189.0560  177.7690  141.9400 C   0  0  0  0  0  0  0  0  0  0  0  0
  188.9680  178.0060  139.3970 C   0  0  0  0  0  2  0  0  0  0  0  0
  189.7210  177.6570  138.1800 N   0  0  0  0  0  0  0  0  0  0  0  0
  188.9660  176.4220  136.2510 C   0  0  1  0  0  3  0  0  0  0  0  0
  189.4300  178.6060  137.1060 C   0  0  0  0  0  2  0  0  0  0  0  0
  190.5350  175.3800  137.8660 C   0  0  0  0  0  1  0  0  0  0  0  0
  189.3580  176.3220  137.7090 C   0  0  1  0  0  3  0  0  0  0  0  0
  187.7230  175.5930  135.9910 C   0  0  0  0  0  1  0  0  0  0  0  0
  188.6640  177.8770  136.0250 C   0  0  0  0  0  2  0  0  0  0  0  0
  1 20  1  0  0  0  0
  2 17  1  0  0  0  0
  2  7  1  0  0  0  0
  5  7  1  0  0  0  0
  5 18  1  0  0  0  0
  6  9  2  0  0  0  0
  7 12  2  0  0  0  0
  9  4  1  0  0  0  0
 10 14  1  0  0  0  0
 11  5  2  0  0  0  0
 12  4  1  0  0  0  0
 12  8  1  0  0  0  0
 13 15  2  0  0  0  0
 14 18  2  0  0  0  0
 14  3  1  0  0  0  0
 15 10  1  0  0  0  0
 16  6  1  0  0  0  0
 17  6  1  0  0  0  0
 18  8  1  0  0  0  0
 19  1  2  0  0  0  0
 19 13  1  0  0  0  0
 20 11  1  0  0  0  0
 20 10  2  0  0  0  0
 21  1  1  0  0  0  0
 22 21  1  0  0  0  0
 23 27  1  1  0  0  0
 23 26  1  0  0  0  0
 24 22  1  0  0  0  0
 26 25  1  6  0  0  0
 26 22  1  0  0  0  0
 28 23  1  0  0  0  0
 28 24  1  0  0  0  0
M  END
>  <MODEL>
7

>  <REMARK>
 VINA RESULT:      -9.3      3.042      7.122
  Name = 
  2 active torsions:
  status: ('A' for Active; 'I' for Inactive)
    1  A    between atoms: C_1  and  C_2
    2  A    between atoms: C_2  and  N_3
                            x       y       z     vdW  Elec       q    Type
                         _______ _______ _______ _____ _____    ______ ____

>  <TORSDO>
F 2

$$$$
=
 OpenBabel10262420423D

 28 32  0  0  1  0  0  0  0  0999 V2000
  183.1950  178.7220  142.3490 C   0  0  0  0  0  0  0  0  0  0  0  0
  188.1660  177.7990  140.8570 C   0  0  0  0  0  2  0  0  0  0  0  0
  185.9370  178.3260  146.5070 C   0  0  0  0  0  1  0  0  0  0  0  0
  190.2750  176.9240  142.8960 C   0  0  0  0  0  2  0  0  0  0  0  0
  186.8050  177.9600  142.8240 C   0  0  0  0  0  0  0  0  0  0  0  0
  190.4020  176.7510  140.3960 C   0  0  0  0  0  0  0  0  0  0  0  0
  188.0330  177.7010  142.1850 C   0  0  0  0  0  0  0  0  0  0  0  0
  188.4760  177.6910  144.6710 S   0  0  0  0  0  0  0  0  0  0  0  0
  190.8030  176.4110  141.6190 C   0  0  0  0  0  3  0  0  0  0  0  0
  184.5450  178.5290  144.3900 C   0  0  0  0  0  0  0  0  0  0  0  0
  185.5850  178.2120  142.1930 C   0  0  0  0  0  3  0  0  0  0  0  0
  189.0720  177.4680  143.1080 C   0  0  0  0  0  0  0  0  0  0  0  0
  182.1800  179.0660  144.5280 C   0  0  0  0  0  3  0  0  0  0  0  0
  185.7880  178.2870  145.0180 C   0  0  0  0  0  0  0  0  0  0  0  0
  183.4040  178.8200  145.1500 C   0  0  0  0  0  3  0  0  0  0  0  0
  190.9510  176.0880  139.3070 O   0  0  0  0  0  1  0  0  0  0  0  0
  189.4720  177.8860  140.1380 C   0  0  0  0  0  2  0  0  0  0  0  0
  186.8910  178.0080  144.2080 C   0  0  0  0  0  0  0  0  0  0  0  0
  182.0790  179.0190  143.1390 C   0  0  0  0  0  3  0  0  0  0  0  0
  184.4420  178.4860  142.9660 C   0  0  0  0  0  0  0  0  0  0  0  0
  183.0260  178.6670  140.8470 C   0  0  0  0  0  2  0  0  0  0  0  0
  181.6350  178.4950  140.3930 N   0  0  0  0  0  0  0  0  0  0  0  0
  180.6740  179.0600  138.2550 C   0  0  1  0  0  3  0  0  0  0  0  0
  181.4980  177.2690  139.6090 C   0  0  0  0  0  2  0  0  0  0  0  0
  180.1540  180.4280  140.2590 C   0  0  0  0  0  1  0  0  0  0  0  0
  181.2210  179.6160  139.5510 C   0  0  1  0  0  3  0  0  0  0  0  0
  181.1930  179.8700  137.0840 C   0  0  0  0  0  1  0  0  0  0  0  0
  181.2040  177.6550  138.1760 C   0  0  0  0  0  2  0  0  0  0  0  0
  1 20  2  0  0  0  0
  1 19  1  0  0  0  0
  2  7  1  0  0  0  0
  4 12  1  0  0  0  0
  5 18  1  0  0  0  0
  6  9  2  0  0  0  0
  7  5  1  0  0  0  0
  7 12  2  0  0  0  0
  9  4  1  0  0  0  0
 10 14  1  0  0  0  0
 10 15  2  0  0  0  0
 11  5  2  0  0  0  0
 11 20  1  0  0  0  0
 12  8  1  0  0  0  0
 13 15  1  0  0  0  0
 14  3  1  0  0  0  0
 16  6  1  0  0  0  0
 17  6  1  0  0  0  0
 17  2  1  0  0  0  0
 18  8  1  0  0  0  0
 18 14  2  0  0  0  0
 19 13  2  0  0  0  0
 20 10  1  0  0  0  0
 21  1  1  0  0  0  0
 22 21  1  0  0  0  0
 23 27  1  6  0  0  0
 23 26  1  0  0  0  0
 24 22  1  0  0  0  0
 26 25  1  1  0  0  0
 26 22  1  0  0  0  0
 28 23  1  0  0  0  0
 28 24  1  0  0  0  0
M  END
>  <MODEL>
8

>  <REMARK>
 VINA RESULT:      -9.1      1.544      2.563
  Name = 
  2 active torsions:
  status: ('A' for Active; 'I' for Inactive)
    1  A    between atoms: C_1  and  C_2
    2  A    between atoms: C_2  and  N_3
                            x       y       z     vdW  Elec       q    Type
                         _______ _______ _______ _____ _____    ______ ____

>  <TORSDO>
F 2

$$$$
=
 OpenBabel10262420423D

 28 32  0  0  1  0  0  0  0  0999 V2000
  184.7050  178.8960  144.2230 C   0  0  0  0  0  0  0  0  0  0  0  0
  187.3250  178.1550  139.7100 C   0  0  0  0  0  2  0  0  0  0  0  0
  181.3010  178.4560  140.5930 C   0  0  0  0  0  1  0  0  0  0  0  0
  185.8850  178.3400  137.0160 C   0  0  0  0  0  2  0  0  0  0  0  0
  185.1020  178.4680  140.5500 C   0  0  0  0  0  0  0  0  0  0  0  0
  188.3570  178.4250  137.4360 C   0  0  0  0  0  0  0  0  0  0  0  0
  186.0150  178.3110  139.4890 C   0  0  0  0  0  0  0  0  0  0  0  0
  183.6980  178.2170  138.4910 S   0  0  0  0  0  0  0  0  0  0  0  0
  187.2870  178.6370  136.6720 C   0  0  0  0  0  3  0  0  0  0  0  0
  183.0350  178.6770  142.4390 C   0  0  0  0  0  0  0  0  0  0  0  0
  185.4260  178.6110  141.9010 C   0  0  0  0  0  3  0  0  0  0  0  0
  185.3670  178.2130  138.2420 C   0  0  0  0  0  0  0  0  0  0  0  0
  182.3350  178.9280  144.7510 C   0  0  0  0  0  3  0  0  0  0  0  0
  182.7180  178.5180  141.0700 C   0  0  0  0  0  0  0  0  0  0  0  0
  182.0210  178.7780  143.4000 C   0  0  0  0  0  3  0  0  0  0  0  0
  189.5950  178.8600  136.9830 O   0  0  0  0  0  1  0  0  0  0  0  0
  188.3030  177.6430  138.7020 C   0  0  0  0  0  2  0  0  0  0  0  0
  183.7720  178.4170  140.1580 C   0  0  0  0  0  0  0  0  0  0  0  0
  183.6670  178.9850  145.1580 C   0  0  0  0  0  3  0  0  0  0  0  0
  184.4000  178.7300  142.8560 C   0  0  0  0  0  0  0  0  0  0  0  0
  186.1330  178.9790  144.7170 C   0  0  0  0  0  2  0  0  0  0  0  0
  186.7330  177.6830  145.0780 N   0  0  0  0  0  0  0  0  0  0  0  0
  189.0580  177.1550  145.4350 C   0  0  1  0  0  3  0  0  0  0  0  0
  186.9760  177.6130  146.5180 C   0  0  0  0  0  2  0  0  0  0  0  0
  187.9000  176.3720  143.3850 C   0  0  0  0  0  1  0  0  0  0  0  0
  188.0120  177.4960  144.3960 C   0  0  1  0  0  3  0  0  0  0  0  0
  190.3350  177.9220  145.1550 C   0  0  0  0  0  1  0  0  0  0  0  0
  188.4720  177.6030  146.7450 C   0  0  0  0  0  2  0  0  0  0  0  0
  1 21  1  0  0  0  0
  1 19  1  0  0  0  0
  3 14  1  0  0  0  0
  4 12  1  0  0  0  0
  5 11  2  0  0  0  0
  6 17  1  0  0  0  0
  7  2  1  0  0  0  0
  7  5  1  0  0  0  0
  8 18  1  0  0  0  0
  9  4  1  0  0  0  0
  9  6  2  0  0  0  0
 10 20  1  0  0  0  0
 10 15  2  0  0  0  0
 11 20  1  0  0  0  0
 12  8  1  0  0  0  0
 12  7  2  0  0  0  0
 13 19  2  0  0  0  0
 14 10  1  0  0  0  0
 15 13  1  0  0  0  0
 16  6  1  0  0  0  0
 17  2  1  0  0  0  0
 18  5  1  0  0  0  0
 18 14  2  0  0  0  0
 20  1  2  0  0  0  0
 21 22  1  0  0  0  0
 22 24  1  0  0  0  0
 23 27  1  6  0  0  0
 23 28  1  0  0  0  0
 24 28  1  0  0  0  0
 26 25  1  6  0  0  0
 26 22  1  0  0  0  0
 26 23  1  0  0  0  0
M  END
>  <MODEL>
9

>  <REMARK>
 VINA RESULT:      -9.1      2.374      5.687
  Name = 
  2 active torsions:
  status: ('A' for Active; 'I' for Inactive)
    1  A    between atoms: C_1  and  C_2
    2  A    between atoms: C_2  and  N_3
                            x       y       z     vdW  Elec       q    Type
                         _______ _______ _______ _____ _____    ______ ____

>  <TORSDO>
F 2

$$$$
