=
 OpenBabel10262419233D

 31 35  0  0  1  0  0  0  0  0999 V2000
  184.2110  178.0920  139.6940 N   0  0  0  0  0  0  0  0  0  0  0  0
  182.8980  177.6470  139.5330 C   0  0  0  0  0  0  0  0  0  0  0  0
  181.2550  175.7480  139.7100 C   0  0  0  0  0  3  0  0  0  0  0  0
  185.5040  178.5710  139.8420 C   0  0  2  0  0  0  0  0  0  0  0  0
  182.5660  176.3930  139.8150 C   0  0  0  0  0  3  0  0  0  0  0  0
  182.5630  180.0830  138.7660 C   0  0  0  0  0  3  0  0  0  0  0  0
  180.0990  176.2640  139.3050 C   0  0  0  0  0  3  0  0  0  0  0  0
  184.6020  179.5010  139.3800 C   0  0  0  0  0  0  0  0  0  0  0  0
  179.7960  177.6230  138.8450 C   0  0  0  0  0  3  0  0  0  0  0  0
  183.9660  180.5110  138.9540 N   0  0  0  0  0  0  0  0  0  0  0  0
  182.0300  178.8010  139.0120 C   0  0  0  0  0  0  0  0  0  0  0  0
  180.5980  178.6780  138.7230 C   0  0  0  0  0  3  0  0  0  0  0  0
  188.5880  178.7020  137.8180 N   0  0  0  0  0  0  0  0  0  0  0  0
  187.5970  178.4340  136.7840 C   0  0  0  0  0  2  0  0  0  0  0  0
  189.6840  177.7740  137.6040 C   0  0  0  0  0  1  0  0  0  0  0  0
  187.9720  178.3480  139.0930 C   0  0  0  0  0  2  0  0  0  0  0  0
  186.5150  177.9800  138.8400 C   0  0  2  0  0  3  0  0  0  0  0  0
  186.2390  178.4500  137.4380 C   0  0  0  0  0  2  0  0  0  0  0  0
  185.9070  178.7300  141.2990 C   0  0  0  0  0  2  0  0  0  0  0  0
  184.6860  179.0460  142.1560 C   0  0  0  0  0  2  0  0  0  0  0  0
  184.9810  178.9320  143.6520 C   0  0  1  0  0  3  0  0  0  0  0  0
  182.4940  179.0200  143.5350 C   0  0  0  0  0  1  0  0  0  0  0  0
  183.6960  179.0140  144.4590 C   0  0  0  0  0  2  0  0  0  0  0  0
  185.6920  177.6920  143.9550 N   0  0  0  0  0  2  0  0  0  0  0  0
  187.9440  177.7270  146.8710 C   0  0  0  0  0  0  0  0  0  0  0  0
  189.2840  177.4800  144.8860 C   0  0  0  0  0  3  0  0  0  0  0  0
  187.8330  177.8600  148.3470 C   0  0  0  0  0  1  0  0  0  0  0  0
  186.8210  177.7460  146.1020 N   0  0  0  0  0  0  0  0  0  0  0  0
  188.1210  177.5010  144.1140 C   0  0  0  0  0  3  0  0  0  0  0  0
  186.8820  177.6380  144.7450 C   0  0  0  0  0  0  0  0  0  0  0  0
  189.1980  177.5950  146.2740 C   0  0  0  0  0  3  0  0  0  0  0  0
  1  4  1  0  0  0  0
  2  1  1  0  0  0  0
  2  5  2  0  0  0  0
  3  5  1  0  0  0  0
  4 19  1  1  0  0  0
  6 10  1  0  0  0  0
  6 11  2  0  0  0  0
  7  3  2  0  0  0  0
  8  1  1  0  0  0  0
  8  4  1  0  0  0  0
  9  7  1  0  0  0  0
 10  8  2  0  0  0  0
 11  2  1  0  0  0  0
 12  9  2  0  0  0  0
 12 11  1  0  0  0  0
 13 16  1  0  0  0  0
 14 18  1  0  0  0  0
 14 13  1  0  0  0  0
 15 13  1  0  0  0  0
 17 18  1  6  0  0  0
 17 16  1  0  0  0  0
 17  4  1  0  0  0  0
 19 20  1  0  0  0  0
 21 20  1  6  0  0  0
 21 24  1  0  0  0  0
 21 23  1  0  0  0  0
 22 23  1  0  0  0  0
 24 30  1  0  0  0  0
 25 27  1  0  0  0  0
 26 31  1  0  0  0  0
 28 25  1  0  0  0  0
 29 30  1  0  0  0  0
 29 26  2  0  0  0  0
 30 28  2  0  0  0  0
 31 25  2  0  0  0  0
M  END
>  <MODEL>
1

>  <REMARK>
 VINA RESULT:      -7.9      0.000      0.000
  Name = 
  7 active torsions:
  status: ('A' for Active; 'I' for Inactive)
    1  A    between atoms: N_3  and  C_9
    2  A    between atoms: N_3  and  C_22
    3  A    between atoms: C_9  and  C_15
    4  A    between atoms: C_9  and  C_23
    5  A    between atoms: C_12  and  C_20
    6  A    between atoms: C_12  and  C_27
    7  A    between atoms: C_15  and  C_20
                            x       y       z     vdW  Elec       q    Type
                         _______ _______ _______ _____ _____    ______ ____

>  <TORSDO>
F 7

$$$$
=
 OpenBabel10262419233D

 31 35  0  0  1  0  0  0  0  0999 V2000
  183.5730  177.9670  141.1430 N   0  0  0  0  0  0  0  0  0  0  0  0
  184.1580  178.1530  142.3970 C   0  0  0  0  0  0  0  0  0  0  0  0
  186.1800  177.8670  143.8670 C   0  0  0  0  0  3  0  0  0  0  0  0
  182.9570  177.8000  139.9120 C   0  0  2  0  0  0  0  0  0  0  0  0
  185.4040  177.7590  142.6300 C   0  0  0  0  0  3  0  0  0  0  0  0
  181.8510  179.1810  142.9060 C   0  0  0  0  0  3  0  0  0  0  0  0
  185.8190  178.3760  145.0400 C   0  0  0  0  0  3  0  0  0  0  0  0
  182.1700  178.4040  140.8640 C   0  0  0  0  0  0  0  0  0  0  0  0
  184.5420  178.9770  145.4410 C   0  0  0  0  0  3  0  0  0  0  0  0
  181.2730  178.9660  141.5620 N   0  0  0  0  0  0  0  0  0  0  0  0
  183.1490  178.8320  143.3340 C   0  0  0  0  0  0  0  0  0  0  0  0
  183.4330  179.1670  144.7330 C   0  0  0  0  0  3  0  0  0  0  0  0
  181.7030  175.1590  137.6590 N   0  0  0  0  0  0  0  0  0  0  0  0
  180.9140  174.8920  138.8540 C   0  0  0  0  0  2  0  0  0  0  0  0
  182.2410  173.8860  137.2130 C   0  0  0  0  0  1  0  0  0  0  0  0
  182.8370  175.9780  138.0760 C   0  0  0  0  0  2  0  0  0  0  0  0
  182.6590  176.3320  139.5480 C   0  0  2  0  0  3  0  0  0  0  0  0
  181.2340  175.9650  139.8620 C   0  0  0  0  0  2  0  0  0  0  0  0
  183.5130  178.7320  138.8480 C   0  0  0  0  0  2  0  0  0  0  0  0
  184.9520  179.1140  139.1760 C   0  0  0  0  0  2  0  0  0  0  0  0
  185.9620  178.1310  138.5840 C   0  0  1  0  0  3  0  0  0  0  0  0
  186.2050  176.4700  136.7430 C   0  0  0  0  0  1  0  0  0  0  0  0
  185.6130  177.8090  137.1400 C   0  0  0  0  0  2  0  0  0  0  0  0
  187.3220  178.6580  138.6720 N   0  0  0  0  0  2  0  0  0  0  0  0
  189.5000  177.6710  141.4750 C   0  0  0  0  0  0  0  0  0  0  0  0
  190.3170  176.6090  139.4740 C   0  0  0  0  0  3  0  0  0  0  0  0
  189.6110  177.9400  142.9320 C   0  0  0  0  0  1  0  0  0  0  0  0
  188.4960  178.2390  140.7540 N   0  0  0  0  0  0  0  0  0  0  0  0
  189.2800  177.2020  138.7520 C   0  0  0  0  0  3  0  0  0  0  0  0
  188.3670  178.0250  139.4140 C   0  0  0  0  0  0  0  0  0  0  0  0
  190.4320  176.8450  140.8440 C   0  0  0  0  0  3  0  0  0  0  0  0
  1  2  1  0  0  0  0
  2  5  2  0  0  0  0
  2 11  1  0  0  0  0
  3  7  2  0  0  0  0
  4 19  1  6  0  0  0
  4  8  1  0  0  0  0
  4  1  1  0  0  0  0
  5  3  1  0  0  0  0
  6 11  2  0  0  0  0
  7  9  1  0  0  0  0
  8  1  1  0  0  0  0
  8 10  2  0  0  0  0
 10  6  1  0  0  0  0
 11 12  1  0  0  0  0
 12  9  2  0  0  0  0
 13 16  1  0  0  0  0
 13 14  1  0  0  0  0
 14 18  1  0  0  0  0
 15 13  1  0  0  0  0
 17 16  1  6  0  0  0
 17 18  1  0  0  0  0
 17  4  1  0  0  0  0
 19 20  1  0  0  0  0
 21 23  1  6  0  0  0
 21 24  1  0  0  0  0
 21 20  1  0  0  0  0
 22 23  1  0  0  0  0
 24 30  1  0  0  0  0
 25 27  1  0  0  0  0
 26 31  1  0  0  0  0
 28 25  1  0  0  0  0
 29 30  1  0  0  0  0
 29 26  2  0  0  0  0
 30 28  2  0  0  0  0
 31 25  2  0  0  0  0
M  END
>  <MODEL>
2

>  <REMARK>
 VINA RESULT:      -7.8      2.135      5.776
  Name = 
  7 active torsions:
  status: ('A' for Active; 'I' for Inactive)
    1  A    between atoms: N_3  and  C_9
    2  A    between atoms: N_3  and  C_22
    3  A    between atoms: C_9  and  C_15
    4  A    between atoms: C_9  and  C_23
    5  A    between atoms: C_12  and  C_20
    6  A    between atoms: C_12  and  C_27
    7  A    between atoms: C_15  and  C_20
                            x       y       z     vdW  Elec       q    Type
                         _______ _______ _______ _____ _____    ______ ____

>  <TORSDO>
F 7

$$$$
=
 OpenBabel10262419233D

 31 35  0  0  1  0  0  0  0  0999 V2000
  188.6100  176.8970  138.4350 N   0  0  0  0  0  0  0  0  0  0  0  0
  187.7630  176.5530  137.3800 C   0  0  0  0  0  0  0  0  0  0  0  0
  186.3660  174.7850  136.2600 C   0  0  0  0  0  3  0  0  0  0  0  0
  189.4530  177.2770  139.4680 C   0  0  2  0  0  0  0  0  0  0  0  0
  187.2610  175.3280  137.2840 C   0  0  0  0  0  3  0  0  0  0  0  0
  188.1960  179.0070  136.7260 C   0  0  0  0  0  3  0  0  0  0  0  0
  185.8550  175.3860  135.1900 C   0  0  0  0  0  3  0  0  0  0  0  0
  189.1860  178.2720  138.5580 C   0  0  0  0  0  0  0  0  0  0  0  0
  186.0360  176.7650  134.7220 C   0  0  0  0  0  3  0  0  0  0  0  0
  189.0860  179.3270  137.8630 N   0  0  0  0  0  0  0  0  0  0  0  0
  187.5730  177.7700  136.4630 C   0  0  0  0  0  0  0  0  0  0  0  0
  186.7490  177.7550  135.2500 C   0  0  0  0  0  3  0  0  0  0  0  0
  193.1400  177.3630  139.3040 N   0  0  0  0  0  0  0  0  0  0  0  0
  192.8380  176.5160  138.1570 C   0  0  0  0  0  2  0  0  0  0  0  0
  194.1910  176.7000  140.0550 C   0  0  0  0  0  1  0  0  0  0  0  0
  191.9500  177.3690  140.1490 C   0  0  0  0  0  2  0  0  0  0  0  0
  190.8430  176.6100  139.4270 C   0  0  2  0  0  3  0  0  0  0  0  0
  191.3390  176.4580  138.0150 C   0  0  0  0  0  2  0  0  0  0  0  0
  188.7290  177.4060  140.7990 C   0  0  0  0  0  2  0  0  0  0  0  0
  187.5500  178.3640  140.6690 C   0  0  0  0  0  2  0  0  0  0  0  0
  186.9250  178.7010  142.0240 C   0  0  1  0  0  3  0  0  0  0  0  0
  184.4920  178.1680  141.9640 C   0  0  0  0  0  1  0  0  0  0  0  0
  185.5270  179.2690  141.8420 C   0  0  0  0  0  2  0  0  0  0  0  0
  186.8870  177.5270  142.8920 N   0  0  0  0  0  2  0  0  0  0  0  0
  189.2230  177.2650  145.7300 C   0  0  0  0  0  0  0  0  0  0  0  0
  187.0140  177.6580  146.6040 C   0  0  0  0  0  3  0  0  0  0  0  0
  190.6730  177.0200  145.9430 C   0  0  0  0  0  1  0  0  0  0  0  0
  188.7220  177.3070  144.4650 N   0  0  0  0  0  0  0  0  0  0  0  0
  186.5190  177.6990  145.3000 C   0  0  0  0  0  3  0  0  0  0  0  0
  187.3960  177.5180  144.2280 C   0  0  0  0  0  0  0  0  0  0  0  0
  188.3750  177.4380  146.8240 C   0  0  0  0  0  3  0  0  0  0  0  0
  1  8  1  0  0  0  0
  1  4  1  0  0  0  0
  2  1  1  0  0  0  0
  3  5  1  0  0  0  0
  4 19  1  1  0  0  0
  5  2  2  0  0  0  0
  6 10  1  0  0  0  0
  7  3  2  0  0  0  0
  8  4  1  0  0  0  0
  9  7  1  0  0  0  0
  9 12  2  0  0  0  0
 10  8  2  0  0  0  0
 11  6  2  0  0  0  0
 11  2  1  0  0  0  0
 12 11  1  0  0  0  0
 13 15  1  0  0  0  0
 13 16  1  0  0  0  0
 14 13  1  0  0  0  0
 17 18  1  6  0  0  0
 17  4  1  0  0  0  0
 17 16  1  0  0  0  0
 18 14  1  0  0  0  0
 20 19  1  0  0  0  0
 21 20  1  6  0  0  0
 21 24  1  0  0  0  0
 23 22  1  0  0  0  0
 23 21  1  0  0  0  0
 24 30  1  0  0  0  0
 25 27  1  0  0  0  0
 25 31  2  0  0  0  0
 26 31  1  0  0  0  0
 28 25  1  0  0  0  0
 29 26  2  0  0  0  0
 30 28  2  0  0  0  0
 30 29  1  0  0  0  0
M  END
>  <MODEL>
3

>  <REMARK>
 VINA RESULT:      -7.7      2.933      4.625
  Name = 
  7 active torsions:
  status: ('A' for Active; 'I' for Inactive)
    1  A    between atoms: N_3  and  C_9
    2  A    between atoms: N_3  and  C_22
    3  A    between atoms: C_9  and  C_15
    4  A    between atoms: C_9  and  C_23
    5  A    between atoms: C_12  and  C_20
    6  A    between atoms: C_12  and  C_27
    7  A    between atoms: C_15  and  C_20
                            x       y       z     vdW  Elec       q    Type
                         _______ _______ _______ _____ _____    ______ ____

>  <TORSDO>
F 7

$$$$
=
 OpenBabel10262419233D

 31 35  0  0  1  0  0  0  0  0999 V2000
  188.5900  177.0150  138.5930 N   0  0  0  0  0  0  0  0  0  0  0  0
  187.7350  176.6620  137.5470 C   0  0  0  0  0  0  0  0  0  0  0  0
  186.2870  174.9020  136.4810 C   0  0  0  0  0  3  0  0  0  0  0  0
  189.4430  177.4030  139.6150 C   0  0  2  0  0  0  0  0  0  0  0  0
  187.1960  175.4510  137.4890 C   0  0  0  0  0  3  0  0  0  0  0  0
  188.2450  179.0790  136.8140 C   0  0  0  0  0  3  0  0  0  0  0  0
  185.7970  175.4830  135.3910 C   0  0  0  0  0  3  0  0  0  0  0  0
  189.2070  178.3750  138.6720 C   0  0  0  0  0  0  0  0  0  0  0  0
  186.0210  176.8390  134.8780 C   0  0  0  0  0  3  0  0  0  0  0  0
  189.1420  179.4090  137.9420 N   0  0  0  0  0  0  0  0  0  0  0  0
  187.5850  177.8530  136.5890 C   0  0  0  0  0  0  0  0  0  0  0  0
  186.7630  177.8240  135.3760 C   0  0  0  0  0  3  0  0  0  0  0  0
  193.1240  177.3620  139.3600 N   0  0  0  0  0  0  0  0  0  0  0  0
  192.7700  176.4290  138.2990 C   0  0  0  0  0  2  0  0  0  0  0  0
  194.1750  176.7340  140.1430 C   0  0  0  0  0  1  0  0  0  0  0  0
  191.9570  177.4770  140.2280 C   0  0  0  0  0  2  0  0  0  0  0  0
  190.8110  176.6930  139.6010 C   0  0  2  0  0  3  0  0  0  0  0  0
  191.2660  176.4040  138.1970 C   0  0  0  0  0  2  0  0  0  0  0  0
  188.7200  177.5980  140.9390 C   0  0  0  0  0  2  0  0  0  0  0  0
  189.0650  176.4690  141.9030 C   0  0  0  0  0  2  0  0  0  0  0  0
  189.5530  176.9890  143.2550 C   0  0  1  0  0  3  0  0  0  0  0  0
  191.0440  178.8920  143.8620 C   0  0  0  0  0  1  0  0  0  0  0  0
  189.7290  178.4990  143.2170 C   0  0  0  0  0  2  0  0  0  0  0  0
  188.6340  176.6120  144.3270 N   0  0  0  0  0  2  0  0  0  0  0  0
  185.3660  178.2760  143.9660 C   0  0  0  0  0  0  0  0  0  0  0  0
  186.1400  178.6130  146.2210 C   0  0  0  0  0  3  0  0  0  0  0  0
  184.3520  178.4920  142.9020 C   0  0  0  0  0  1  0  0  0  0  0  0
  186.4890  177.5560  143.6960 N   0  0  0  0  0  0  0  0  0  0  0  0
  187.2850  177.8720  145.9250 C   0  0  0  0  0  3  0  0  0  0  0  0
  187.4480  177.3450  144.6420 C   0  0  0  0  0  0  0  0  0  0  0  0
  185.1730  178.8190  145.2370 C   0  0  0  0  0  3  0  0  0  0  0  0
  1  8  1  0  0  0  0
  1  4  1  0  0  0  0
  2  1  1  0  0  0  0
  3  5  1  0  0  0  0
  4 19  1  1  0  0  0
  5  2  2  0  0  0  0
  6 10  1  0  0  0  0
  7  3  2  0  0  0  0
  8  4  1  0  0  0  0
  9 12  2  0  0  0  0
  9  7  1  0  0  0  0
 10  8  2  0  0  0  0
 11  6  2  0  0  0  0
 11  2  1  0  0  0  0
 12 11  1  0  0  0  0
 13 15  1  0  0  0  0
 13 16  1  0  0  0  0
 14 13  1  0  0  0  0
 17 18  1  6  0  0  0
 17  4  1  0  0  0  0
 17 16  1  0  0  0  0
 18 14  1  0  0  0  0
 19 20  1  0  0  0  0
 21 20  1  6  0  0  0
 21 24  1  0  0  0  0
 23 21  1  0  0  0  0
 23 22  1  0  0  0  0
 24 30  1  0  0  0  0
 25 31  2  0  0  0  0
 27 25  1  0  0  0  0
 28 25  1  0  0  0  0
 28 30  2  0  0  0  0
 29 26  2  0  0  0  0
 30 29  1  0  0  0  0
 31 26  1  0  0  0  0
M  END
>  <MODEL>
4

>  <REMARK>
 VINA RESULT:      -7.6      3.265      5.226
  Name = 
  7 active torsions:
  status: ('A' for Active; 'I' for Inactive)
    1  A    between atoms: N_3  and  C_9
    2  A    between atoms: N_3  and  C_22
    3  A    between atoms: C_9  and  C_15
    4  A    between atoms: C_9  and  C_23
    5  A    between atoms: C_12  and  C_20
    6  A    between atoms: C_12  and  C_27
    7  A    between atoms: C_15  and  C_20
                            x       y       z     vdW  Elec       q    Type
                         _______ _______ _______ _____ _____    ______ ____

>  <TORSDO>
F 7

$$$$
=
 OpenBabel10262419233D

 31 35  0  0  1  0  0  0  0  0999 V2000
  188.6170  176.9350  138.6180 N   0  0  0  0  0  0  0  0  0  0  0  0
  187.8160  176.6570  137.5090 C   0  0  0  0  0  0  0  0  0  0  0  0
  186.4640  174.9650  136.2280 C   0  0  0  0  0  3  0  0  0  0  0  0
  189.4160  177.2490  139.7070 C   0  0  2  0  0  0  0  0  0  0  0  0
  187.3150  175.4430  137.3190 C   0  0  0  0  0  3  0  0  0  0  0  0
  188.2830  179.1430  137.0200 C   0  0  0  0  0  3  0  0  0  0  0  0
  186.0010  175.6310  135.1740 C   0  0  0  0  0  3  0  0  0  0  0  0
  189.1910  178.2970  138.8470 C   0  0  0  0  0  0  0  0  0  0  0  0
  186.2060  177.0340  134.7960 C   0  0  0  0  0  3  0  0  0  0  0  0
  189.1250  179.3910  138.2110 N   0  0  0  0  0  0  0  0  0  0  0  0
  187.6690  177.9270  136.6580 C   0  0  0  0  0  0  0  0  0  0  0  0
  186.8990  177.9870  135.4120 C   0  0  0  0  0  3  0  0  0  0  0  0
  193.0770  177.2780  139.2370 N   0  0  0  0  0  0  0  0  0  0  0  0
  192.6930  176.2250  138.3060 C   0  0  0  0  0  2  0  0  0  0  0  0
  194.1900  176.7680  140.0180 C   0  0  0  0  0  1  0  0  0  0  0  0
  191.9570  177.4570  140.1560 C   0  0  0  0  0  2  0  0  0  0  0  0
  190.8040  176.5790  139.6880 C   0  0  2  0  0  3  0  0  0  0  0  0
  191.1880  176.1490  138.2980 C   0  0  0  0  0  2  0  0  0  0  0  0
  188.6350  177.3040  141.0110 C   0  0  0  0  0  2  0  0  0  0  0  0
  189.4680  177.9710  142.1000 C   0  0  0  0  0  2  0  0  0  0  0  0
  189.8640  176.9950  143.2070 C   0  0  1  0  0  3  0  0  0  0  0  0
  190.9180  179.1480  143.8880 C   0  0  0  0  0  1  0  0  0  0  0  0
  190.7440  177.6830  144.2380 C   0  0  0  0  0  2  0  0  0  0  0  0
  188.6840  176.4210  143.8500 N   0  0  0  0  0  2  0  0  0  0  0  0
  187.5330  177.8600  147.0410 C   0  0  0  0  0  0  0  0  0  0  0  0
  185.8830  178.3450  145.3550 C   0  0  0  0  0  3  0  0  0  0  0  0
  188.0020  177.9350  148.4480 C   0  0  0  0  0  1  0  0  0  0  0  0
  188.2890  177.2220  146.1060 N   0  0  0  0  0  0  0  0  0  0  0  0
  186.6730  177.6870  144.4110 C   0  0  0  0  0  3  0  0  0  0  0  0
  187.8880  177.1220  144.8080 C   0  0  0  0  0  0  0  0  0  0  0  0
  186.3120  178.4320  146.6800 C   0  0  0  0  0  3  0  0  0  0  0  0
  1  8  1  0  0  0  0
  1  4  1  0  0  0  0
  2  1  1  0  0  0  0
  3  5  1  0  0  0  0
  4 19  1  1  0  0  0
  5  2  2  0  0  0  0
  6 10  1  0  0  0  0
  7  3  2  0  0  0  0
  8  4  1  0  0  0  0
  9  7  1  0  0  0  0
  9 12  2  0  0  0  0
 10  8  2  0  0  0  0
 11  6  2  0  0  0  0
 11  2  1  0  0  0  0
 12 11  1  0  0  0  0
 13 15  1  0  0  0  0
 13 16  1  0  0  0  0
 14 13  1  0  0  0  0
 17 18  1  6  0  0  0
 17  4  1  0  0  0  0
 17 16  1  0  0  0  0
 18 14  1  0  0  0  0
 19 20  1  0  0  0  0
 21 20  1  6  0  0  0
 21 24  1  0  0  0  0
 21 23  1  0  0  0  0
 22 23  1  0  0  0  0
 24 30  1  0  0  0  0
 25 27  1  0  0  0  0
 26 31  1  0  0  0  0
 28 25  1  0  0  0  0
 29 30  1  0  0  0  0
 29 26  2  0  0  0  0
 30 28  2  0  0  0  0
 31 25  2  0  0  0  0
M  END
>  <MODEL>
5

>  <REMARK>
 VINA RESULT:      -7.6      3.970      5.084
  Name = 
  7 active torsions:
  status: ('A' for Active; 'I' for Inactive)
    1  A    between atoms: N_3  and  C_9
    2  A    between atoms: N_3  and  C_22
    3  A    between atoms: C_9  and  C_15
    4  A    between atoms: C_9  and  C_23
    5  A    between atoms: C_12  and  C_20
    6  A    between atoms: C_12  and  C_27
    7  A    between atoms: C_15  and  C_20
                            x       y       z     vdW  Elec       q    Type
                         _______ _______ _______ _____ _____    ______ ____

>  <TORSDO>
F 7

$$$$
=
 OpenBabel10262419233D

 31 35  0  0  1  0  0  0  0  0999 V2000
  184.3690  178.0210  139.1390 N   0  0  0  0  0  0  0  0  0  0  0  0
  185.1990  177.7710  138.0450 C   0  0  0  0  0  0  0  0  0  0  0  0
  187.2280  178.4380  136.7130 C   0  0  0  0  0  3  0  0  0  0  0  0
  183.5220  178.2360  140.2150 C   0  0  2  0  0  0  0  0  0  0  0  0
  186.2520  178.5410  137.8010 C   0  0  0  0  0  3  0  0  0  0  0  0
  183.5220  175.8470  137.6880 C   0  0  0  0  0  3  0  0  0  0  0  0
  187.2830  177.5570  135.7190 C   0  0  0  0  0  3  0  0  0  0  0  0
  183.1780  177.1630  139.4280 C   0  0  0  0  0  0  0  0  0  0  0  0
  186.3870  176.4350  135.4180 C   0  0  0  0  0  3  0  0  0  0  0  0
  182.6730  176.1480  138.8610 N   0  0  0  0  0  0  0  0  0  0  0  0
  184.6730  176.5490  137.2760 C   0  0  0  0  0  0  0  0  0  0  0  0
  185.3040  176.0160  136.0650 C   0  0  0  0  0  3  0  0  0  0  0  0
  180.4530  180.0860  139.3300 N   0  0  0  0  0  0  0  0  0  0  0  0
  181.4450  180.8250  138.5610 C   0  0  0  0  0  2  0  0  0  0  0  0
  179.6400  181.0670  140.0270 C   0  0  0  0  0  1  0  0  0  0  0  0
  181.1820  179.3360  140.3480 C   0  0  0  0  0  2  0  0  0  0  0  0
  182.6750  179.5190  140.1060 C   0  0  2  0  0  3  0  0  0  0  0  0
  182.7690  180.1260  138.7320 C   0  0  0  0  0  2  0  0  0  0  0  0
  184.1640  177.8800  141.5470 C   0  0  0  0  0  2  0  0  0  0  0  0
  185.2030  178.9280  141.9310 C   0  0  0  0  0  2  0  0  0  0  0  0
  185.2800  179.1410  143.4430 C   0  0  1  0  0  3  0  0  0  0  0  0
  183.4180  178.8710  145.0770 C   0  0  0  0  0  1  0  0  0  0  0  0
  183.9830  179.7370  143.9680 C   0  0  0  0  0  2  0  0  0  0  0  0
  185.5800  177.8900  144.1370 N   0  0  0  0  0  2  0  0  0  0  0  0
  187.9790  177.5940  146.9180 C   0  0  0  0  0  0  0  0  0  0  0  0
  189.1480  177.1420  144.8620 C   0  0  0  0  0  3  0  0  0  0  0  0
  187.9760  177.7470  148.3960 C   0  0  0  0  0  1  0  0  0  0  0  0
  186.8290  177.7800  146.2150 N   0  0  0  0  0  0  0  0  0  0  0  0
  187.9580  177.3360  144.1580 C   0  0  0  0  0  3  0  0  0  0  0  0
  186.7930  177.6600  144.8580 C   0  0  0  0  0  0  0  0  0  0  0  0
  189.1620  177.2730  146.2510 C   0  0  0  0  0  3  0  0  0  0  0  0
  1  8  1  0  0  0  0
  1  4  1  0  0  0  0
  2  1  1  0  0  0  0
  3  5  1  0  0  0  0
  4 19  1  1  0  0  0
  5  2  2  0  0  0  0
  6 10  1  0  0  0  0
  7  3  2  0  0  0  0
  8  4  1  0  0  0  0
  9  7  1  0  0  0  0
  9 12  2  0  0  0  0
 10  8  2  0  0  0  0
 11  6  2  0  0  0  0
 11  2  1  0  0  0  0
 12 11  1  0  0  0  0
 13 15  1  0  0  0  0
 13 16  1  0  0  0  0
 14 18  1  0  0  0  0
 14 13  1  0  0  0  0
 17 18  1  6  0  0  0
 17  4  1  0  0  0  0
 17 16  1  0  0  0  0
 19 20  1  0  0  0  0
 21 20  1  6  0  0  0
 21 23  1  0  0  0  0
 21 24  1  0  0  0  0
 23 22  1  0  0  0  0
 24 30  1  0  0  0  0
 25 27  1  0  0  0  0
 26 31  1  0  0  0  0
 28 25  1  0  0  0  0
 29 30  1  0  0  0  0
 29 26  2  0  0  0  0
 30 28  2  0  0  0  0
 31 25  2  0  0  0  0
M  END
>  <MODEL>
6

>  <REMARK>
 VINA RESULT:      -7.4      1.640      4.530
  Name = 
  7 active torsions:
  status: ('A' for Active; 'I' for Inactive)
    1  A    between atoms: N_3  and  C_9
    2  A    between atoms: N_3  and  C_22
    3  A    between atoms: C_9  and  C_15
    4  A    between atoms: C_9  and  C_23
    5  A    between atoms: C_12  and  C_20
    6  A    between atoms: C_12  and  C_27
    7  A    between atoms: C_15  and  C_20
                            x       y       z     vdW  Elec       q    Type
                         _______ _______ _______ _____ _____    ______ ____

>  <TORSDO>
F 7

$$$$
=
 OpenBabel10262419233D

 31 35  0  0  1  0  0  0  0  0999 V2000
  188.6760  176.6670  137.8600 N   0  0  0  0  0  0  0  0  0  0  0  0
  187.4930  176.2400  137.2550 C   0  0  0  0  0  0  0  0  0  0  0  0
  185.9330  174.3350  136.7360 C   0  0  0  0  0  3  0  0  0  0  0  0
  189.8430  177.1300  138.4490 C   0  0  2  0  0  0  0  0  0  0  0  0
  187.1260  174.9660  137.3060 C   0  0  0  0  0  3  0  0  0  0  0  0
  187.3470  178.7380  136.6400 C   0  0  0  0  0  3  0  0  0  0  0  0
  184.9480  174.8870  136.0350 C   0  0  0  0  0  3  0  0  0  0  0  0
  189.1060  178.0990  137.8120 C   0  0  0  0  0  0  0  0  0  0  0  0
  184.7660  176.2840  135.6250 C   0  0  0  0  0  3  0  0  0  0  0  0
  188.6070  179.1450  137.2980 N   0  0  0  0  0  0  0  0  0  0  0  0
  186.8000  177.4390  136.5910 C   0  0  0  0  0  0  0  0  0  0  0  0
  185.5350  177.3440  135.8560 C   0  0  0  0  0  3  0  0  0  0  0  0
  192.4090  174.5770  137.7280 N   0  0  0  0  0  0  0  0  0  0  0  0
  193.2410  175.6610  138.2340 C   0  0  0  0  0  2  0  0  0  0  0  0
  193.0320  174.1020  136.5040 C   0  0  0  0  0  1  0  0  0  0  0  0
  191.1290  175.1680  137.3530 C   0  0  0  0  0  2  0  0  0  0  0  0
  191.1340  176.6340  137.7690 C   0  0  2  0  0  3  0  0  0  0  0  0
  192.3240  176.7700  138.6800 C   0  0  0  0  0  2  0  0  0  0  0  0
  189.7640  177.1530  139.9680 C   0  0  0  0  0  2  0  0  0  0  0  0
  188.5830  178.0010  140.4240 C   0  0  0  0  0  2  0  0  0  0  0  0
  188.4020  177.9760  141.9420 C   0  0  1  0  0  3  0  0  0  0  0  0
  186.1780  178.9460  141.3770 C   0  0  0  0  0  1  0  0  0  0  0  0
  186.9270  178.0110  142.3070 C   0  0  0  0  0  2  0  0  0  0  0  0
  189.0410  176.8000  142.5290 N   0  0  0  0  0  2  0  0  0  0  0  0
  189.4920  177.0440  146.1780 C   0  0  0  0  0  0  0  0  0  0  0  0
  191.6430  176.6330  145.1770 C   0  0  0  0  0  3  0  0  0  0  0  0
  188.6510  177.2920  147.3770 C   0  0  0  0  0  1  0  0  0  0  0  0
  188.9200  177.0120  144.9430 N   0  0  0  0  0  0  0  0  0  0  0  0
  191.0380  176.6040  143.9190 C   0  0  0  0  0  3  0  0  0  0  0  0
  189.6590  176.7980  143.8180 C   0  0  0  0  0  0  0  0  0  0  0  0
  190.8680  176.8570  146.3150 C   0  0  0  0  0  3  0  0  0  0  0  0
  1  4  1  0  0  0  0
  2  5  2  0  0  0  0
  2  1  1  0  0  0  0
  3  5  1  0  0  0  0
  4 19  1  1  0  0  0
  6 10  1  0  0  0  0
  7  3  2  0  0  0  0
  8  1  1  0  0  0  0
  8  4  1  0  0  0  0
  9 12  2  0  0  0  0
  9  7  1  0  0  0  0
 10  8  2  0  0  0  0
 11  6  2  0  0  0  0
 11  2  1  0  0  0  0
 12 11  1  0  0  0  0
 13 14  1  0  0  0  0
 14 18  1  0  0  0  0
 15 13  1  0  0  0  0
 16 13  1  0  0  0  0
 17 16  1  1  0  0  0
 17  4  1  0  0  0  0
 17 18  1  0  0  0  0
 19 20  1  0  0  0  0
 21 20  1  6  0  0  0
 21 23  1  0  0  0  0
 21 24  1  0  0  0  0
 22 23  1  0  0  0  0
 24 30  1  0  0  0  0
 25 31  2  0  0  0  0
 25 27  1  0  0  0  0
 26 31  1  0  0  0  0
 28 25  1  0  0  0  0
 29 26  2  0  0  0  0
 30 29  1  0  0  0  0
 30 28  2  0  0  0  0
M  END
>  <MODEL>
7

>  <REMARK>
 VINA RESULT:      -7.3      3.418      4.705
  Name = 
  7 active torsions:
  status: ('A' for Active; 'I' for Inactive)
    1  A    between atoms: N_3  and  C_9
    2  A    between atoms: N_3  and  C_22
    3  A    between atoms: C_9  and  C_15
    4  A    between atoms: C_9  and  C_23
    5  A    between atoms: C_12  and  C_20
    6  A    between atoms: C_12  and  C_27
    7  A    between atoms: C_15  and  C_20
                            x       y       z     vdW  Elec       q    Type
                         _______ _______ _______ _____ _____    ______ ____

>  <TORSDO>
F 7

$$$$
=
 OpenBabel10262419233D

 31 35  0  0  1  0  0  0  0  0999 V2000
  189.1770  176.5450  137.8460 N   0  0  0  0  0  0  0  0  0  0  0  0
  187.8960  176.1930  137.4190 C   0  0  0  0  0  0  0  0  0  0  0  0
  186.2440  174.3600  136.9220 C   0  0  0  0  0  3  0  0  0  0  0  0
  190.4400  176.9340  138.2650 C   0  0  2  0  0  0  0  0  0  0  0  0
  187.5300  174.9190  137.3440 C   0  0  0  0  0  3  0  0  0  0  0  0
  187.6630  178.7520  137.2300 C   0  0  0  0  0  3  0  0  0  0  0  0
  185.1500  174.9940  136.5130 C   0  0  0  0  0  3  0  0  0  0  0  0
  189.6060  177.9750  137.9350 C   0  0  0  0  0  0  0  0  0  0  0  0
  184.9090  176.4340  136.3630 C   0  0  0  0  0  3  0  0  0  0  0  0
  189.0300  179.0770  137.6900 N   0  0  0  0  0  0  0  0  0  0  0  0
  187.1020  177.4660  137.0890 C   0  0  0  0  0  0  0  0  0  0  0  0
  185.7190  177.4600  136.6020 C   0  0  0  0  0  3  0  0  0  0  0  0
  192.7390  174.5520  136.6320 N   0  0  0  0  0  0  0  0  0  0  0  0
  193.6880  175.5150  137.1750 C   0  0  0  0  0  2  0  0  0  0  0  0
  193.1190  174.3160  135.2510 C   0  0  0  0  0  1  0  0  0  0  0  0
  191.4370  175.2110  136.6100 C   0  0  0  0  0  2  0  0  0  0  0  0
  191.5720  176.5700  137.2840 C   0  0  2  0  0  3  0  0  0  0  0  0
  192.9070  176.5240  137.9770 C   0  0  0  0  0  2  0  0  0  0  0  0
  190.6530  176.7250  139.7570 C   0  0  0  0  0  2  0  0  0  0  0  0
  189.3660  177.0160  140.5210 C   0  0  0  0  0  2  0  0  0  0  0  0
  189.5660  176.9610  142.0360 C   0  0  1  0  0  3  0  0  0  0  0  0
  191.3750  176.0030  143.4570 C   0  0  0  0  0  1  0  0  0  0  0  0
  191.0440  177.0220  142.3840 C   0  0  0  0  0  2  0  0  0  0  0  0
  188.8430  178.0420  142.7010 N   0  0  0  0  0  2  0  0  0  0  0  0
  188.2940  177.6420  146.3230 C   0  0  0  0  0  0  0  0  0  0  0  0
  186.1500  177.6150  145.2270 C   0  0  0  0  0  3  0  0  0  0  0  0
  189.1150  177.5530  147.5580 C   0  0  0  0  0  1  0  0  0  0  0  0
  188.9000  177.8150  145.1170 N   0  0  0  0  0  0  0  0  0  0  0  0
  186.7900  177.7930  143.9990 C   0  0  0  0  0  3  0  0  0  0  0  0
  188.1830  177.8910  143.9600 C   0  0  0  0  0  0  0  0  0  0  0  0
  186.9040  177.5370  146.3980 C   0  0  0  0  0  3  0  0  0  0  0  0
  1  8  1  0  0  0  0
  1  4  1  0  0  0  0
  2  1  1  0  0  0  0
  3  5  1  0  0  0  0
  4 19  1  1  0  0  0
  5  2  2  0  0  0  0
  6 10  1  0  0  0  0
  7  3  2  0  0  0  0
  8  4  1  0  0  0  0
  9  7  1  0  0  0  0
  9 12  2  0  0  0  0
 10  8  2  0  0  0  0
 11  6  2  0  0  0  0
 11  2  1  0  0  0  0
 12 11  1  0  0  0  0
 13 14  1  0  0  0  0
 14 18  1  0  0  0  0
 15 13  1  0  0  0  0
 16 13  1  0  0  0  0
 17 16  1  1  0  0  0
 17 18  1  0  0  0  0
 17  4  1  0  0  0  0
 19 20  1  0  0  0  0
 21 20  1  6  0  0  0
 21 23  1  0  0  0  0
 21 24  1  0  0  0  0
 23 22  1  0  0  0  0
 24 30  1  0  0  0  0
 25 31  2  0  0  0  0
 25 27  1  0  0  0  0
 26 31  1  0  0  0  0
 28 25  1  0  0  0  0
 29 26  2  0  0  0  0
 30 29  1  0  0  0  0
 30 28  2  0  0  0  0
M  END
>  <MODEL>
8

>  <REMARK>
 VINA RESULT:      -7.2      3.410      5.304
  Name = 
  7 active torsions:
  status: ('A' for Active; 'I' for Inactive)
    1  A    between atoms: N_3  and  C_9
    2  A    between atoms: N_3  and  C_22
    3  A    between atoms: C_9  and  C_15
    4  A    between atoms: C_9  and  C_23
    5  A    between atoms: C_12  and  C_20
    6  A    between atoms: C_12  and  C_27
    7  A    between atoms: C_15  and  C_20
                            x       y       z     vdW  Elec       q    Type
                         _______ _______ _______ _____ _____    ______ ____

>  <TORSDO>
F 7

$$$$
=
 OpenBabel10262419233D

 31 35  0  0  1  0  0  0  0  0999 V2000
  184.2830  177.8300  138.9080 N   0  0  0  0  0  0  0  0  0  0  0  0
  185.1660  177.5070  137.8780 C   0  0  0  0  0  0  0  0  0  0  0  0
  187.2480  178.0980  136.5920 C   0  0  0  0  0  3  0  0  0  0  0  0
  183.3830  178.1170  139.9230 C   0  0  2  0  0  0  0  0  0  0  0  0
  186.2200  178.2720  137.6210 C   0  0  0  0  0  3  0  0  0  0  0  0
  183.5320  175.5340  137.6000 C   0  0  0  0  0  3  0  0  0  0  0  0
  187.3610  177.1420  135.6760 C   0  0  0  0  0  3  0  0  0  0  0  0
  183.0900  176.9790  139.2100 C   0  0  0  0  0  0  0  0  0  0  0  0
  186.4950  175.9850  135.4250 C   0  0  0  0  0  3  0  0  0  0  0  0
  182.6250  175.9140  138.7040 N   0  0  0  0  0  0  0  0  0  0  0  0
  184.6930  176.2190  137.1870 C   0  0  0  0  0  0  0  0  0  0  0  0
  185.3870  175.6010  136.0530 C   0  0  0  0  0  3  0  0  0  0  0  0
  180.1630  179.8970  139.6230 N   0  0  0  0  0  0  0  0  0  0  0  0
  180.7600  180.1970  138.3280 C   0  0  0  0  0  2  0  0  0  0  0  0
  179.6590  181.1500  140.1580 C   0  0  0  0  0  1  0  0  0  0  0  0
  181.2490  179.4660  140.4980 C   0  0  0  0  0  2  0  0  0  0  0  0
  182.5260  179.3740  139.6720 C   0  0  2  0  0  3  0  0  0  0  0  0
  182.0640  179.4470  138.2420 C   0  0  0  0  0  2  0  0  0  0  0  0
  183.9650  177.8790  141.3080 C   0  0  0  0  0  2  0  0  0  0  0  0
  184.9750  178.9680  141.6520 C   0  0  0  0  0  2  0  0  0  0  0  0
  185.1540  179.1370  143.1610 C   0  0  1  0  0  3  0  0  0  0  0  0
  183.6520  179.0060  145.1450 C   0  0  0  0  0  1  0  0  0  0  0  0
  183.8770  179.6630  143.7970 C   0  0  0  0  0  2  0  0  0  0  0  0
  185.5520  177.8790  143.7880 N   0  0  0  0  0  2  0  0  0  0  0  0
  189.0430  176.7010  143.8030 C   0  0  0  0  0  0  0  0  0  0  0  0
  188.5510  177.6330  145.9690 C   0  0  0  0  0  3  0  0  0  0  0  0
  189.9840  176.0330  142.8670 C   0  0  0  0  0  1  0  0  0  0  0  0
  187.7790  177.0000  143.3960 N   0  0  0  0  0  0  0  0  0  0  0  0
  187.2590  177.9310  145.5320 C   0  0  0  0  0  3  0  0  0  0  0  0
  186.8840  177.6030  144.2280 C   0  0  0  0  0  0  0  0  0  0  0  0
  189.4510  177.0120  145.1010 C   0  0  0  0  0  3  0  0  0  0  0  0
  1  8  1  0  0  0  0
  1  4  1  0  0  0  0
  2  1  1  0  0  0  0
  3  5  1  0  0  0  0
  4 19  1  1  0  0  0
  5  2  2  0  0  0  0
  6 10  1  0  0  0  0
  7  3  2  0  0  0  0
  8  4  1  0  0  0  0
  9  7  1  0  0  0  0
  9 12  2  0  0  0  0
 10  8  2  0  0  0  0
 11  6  2  0  0  0  0
 11  2  1  0  0  0  0
 12 11  1  0  0  0  0
 13 15  1  0  0  0  0
 13 16  1  0  0  0  0
 14 13  1  0  0  0  0
 17 18  1  6  0  0  0
 17  4  1  0  0  0  0
 17 16  1  0  0  0  0
 18 14  1  0  0  0  0
 19 20  1  0  0  0  0
 21 20  1  6  0  0  0
 21 24  1  0  0  0  0
 21 23  1  0  0  0  0
 23 22  1  0  0  0  0
 24 30  1  0  0  0  0
 25 31  2  0  0  0  0
 27 25  1  0  0  0  0
 28 25  1  0  0  0  0
 28 30  2  0  0  0  0
 29 26  2  0  0  0  0
 30 29  1  0  0  0  0
 31 26  1  0  0  0  0
M  END
>  <MODEL>
9

>  <REMARK>
 VINA RESULT:      -7.2      1.810      4.856
  Name = 
  7 active torsions:
  status: ('A' for Active; 'I' for Inactive)
    1  A    between atoms: N_3  and  C_9
    2  A    between atoms: N_3  and  C_22
    3  A    between atoms: C_9  and  C_15
    4  A    between atoms: C_9  and  C_23
    5  A    between atoms: C_12  and  C_20
    6  A    between atoms: C_12  and  C_27
    7  A    between atoms: C_15  and  C_20
                            x       y       z     vdW  Elec       q    Type
                         _______ _______ _______ _____ _____    ______ ____

>  <TORSDO>
F 7

$$$$
