=
 OpenBabel10262423253D

 34 37  0  0  1  0  0  0  0  0999 V2000
  190.8520  176.6700  138.1470 C   0  0  2  0  0  3  0  0  0  0  0  0
  192.4290  173.9720  135.9780 C   0  0  0  0  0  3  0  0  0  0  0  0
  191.0440  175.8650  135.3080 C   0  0  0  0  0  2  0  0  0  0  0  0
  188.9400  178.0410  137.2850 C   0  0  0  0  0  0  0  0  0  0  0  0
  189.0460  178.9540  138.4680 C   0  0  0  0  0  1  0  0  0  0  0  0
  189.6660  176.1460  135.8720 C   0  0  0  0  0  2  0  0  0  0  0  0
  189.7890  177.0020  137.1050 C   0  0  0  0  0  0  0  0  0  0  0  0
  187.8810  178.3690  136.2760 C   0  0  0  0  0  1  0  0  0  0  0  0
  193.1260  173.1170  136.9990 C   0  0  0  0  0  2  0  0  0  0  0  0
  194.3440  173.7560  137.6240 C   0  0  0  0  0  0  0  0  0  0  0  0
  194.3620  175.0010  138.1420 C   0  0  0  0  0  3  0  0  0  0  0  0
  191.8160  175.1030  136.3290 C   0  0  0  0  0  0  0  0  0  0  0  0
  193.2950  176.0740  138.0720 C   0  0  0  0  0  2  0  0  0  0  0  0
  191.8810  175.5830  137.7590 C   0  0  1  0  0  3  0  0  0  0  0  0
  195.5320  172.8940  137.7860 C   0  0  0  0  0  0  0  0  0  0  0  0
  196.7240  173.2240  137.1490 O   0  0  0  0  0  0  0  0  0  0  0  0
  195.4870  171.8610  138.4940 O   0  0  0  0  0  1  0  0  0  0  0  0
  190.7040  176.7330  140.6720 C   0  0  0  0  0  0  0  0  0  0  0  0
  190.2170  176.2900  139.4020 N   0  0  0  0  0  2  0  0  0  0  0  0
  191.6850  177.5150  140.7450 O   0  0  0  0  0  0  0  0  0  0  0  0
  190.0660  176.2390  141.9170 C   0  0  0  0  0  2  0  0  0  0  0  0
  190.9660  176.3360  142.9830 O   0  0  0  0  0  0  0  0  0  0  0  0
  189.1410  177.8150  143.4260 C   0  0  0  0  0  2  0  0  0  0  0  0
  190.7870  177.3400  145.1460 C   0  0  0  0  0  2  0  0  0  0  0  0
  186.8380  177.8060  146.5070 C   0  0  1  0  0  3  0  0  0  0  0  0
  187.2900  178.2780  145.1130 C   0  0  0  0  0  2  0  0  0  0  0  0
  188.5590  177.5240  144.7830 C   0  0  2  0  0  3  0  0  0  0  0  0
  189.2650  177.2310  146.9940 C   0  0  0  0  0  2  0  0  0  0  0  0
  189.5870  177.8890  145.7360 N   0  0  1  0  0  0  0  0  0  0  0  0
  187.9780  177.8540  147.5480 C   0  0  0  0  0  2  0  0  0  0  0  0
  190.6210  177.5210  143.6330 C   0  0  1  0  0  3  0  0  0  0  0  0
  185.6640  178.6050  146.9820 C   0  0  0  0  0  0  0  0  0  0  0  0
  184.4860  178.2110  146.7640 O   0  0  0  0  0  0  0  0  0  0  0  0
  185.8760  179.7860  147.6780 O   0  0  0  0  0  1  0  0  0  0  0  0
  1 19  1  1  0  0  0
  2 12  2  0  0  0  0
  2  9  1  0  0  0  0
  3  6  1  0  0  0  0
  3 12  1  0  0  0  0
  4  5  1  0  0  0  0
  6  7  1  0  0  0  0
  7  4  2  0  0  0  0
  7  1  1  0  0  0  0
  8  4  1  0  0  0  0
  9 10  1  0  0  0  0
 10 15  1  0  0  0  0
 10 11  2  0  0  0  0
 12 14  1  0  0  0  0
 13 11  1  0  0  0  0
 14 13  1  6  0  0  0
 14  1  1  0  0  0  0
 15 17  1  0  0  0  0
 16 15  2  0  0  0  0
 18 20  2  0  0  0  0
 18 21  1  0  0  0  0
 19 18  1  0  0  0  0
 21 22  1  0  0  0  0
 23 31  1  0  0  0  0
 25 32  1  1  0  0  0
 25 30  1  0  0  0  0
 26 25  1  0  0  0  0
 27 23  1  6  0  0  0
 27 26  1  0  0  0  0
 27 29  1  0  0  0  0
 28 30  1  0  0  0  0
 29 24  1  6  0  0  0
 29 28  1  0  0  0  0
 31 22  1  6  0  0  0
 31 24  1  0  0  0  0
 32 34  1  0  0  0  0
 33 32  2  0  0  0  0
M  END
>  <MODEL>
1

>  <REMARK>
 VINA RESULT:      -8.9      0.000      0.000
  Name = 
  6 active torsions:
  status: ('A' for Active; 'I' for Inactive)
    1  A    between atoms: C_1  and  N_9
    2  A    between atoms: C_3  and  C_25
    3  A    between atoms: C_7  and  C_11
    4  A    between atoms: C_8  and  C_18
    5  A    between atoms: C_18  and  O_30
    6  A    between atoms: O_30  and  C_31
                            x       y       z     vdW  Elec       q    Type
                         _______ _______ _______ _____ _____    ______ ____

>  <TORSDO>
F 6

$$$$
=
 OpenBabel10262423253D

 34 37  0  0  1  0  0  0  0  0999 V2000
  185.3990  178.1350  143.2090 C   0  0  2  0  0  3  0  0  0  0  0  0
  185.6400  179.1110  146.8780 C   0  0  0  0  0  3  0  0  0  0  0  0
  183.6510  178.6720  145.5340 C   0  0  0  0  0  2  0  0  0  0  0  0
  183.2550  178.4420  141.9480 C   0  0  0  0  0  0  0  0  0  0  0  0
  183.8100  177.6670  140.7920 C   0  0  0  0  0  1  0  0  0  0  0  0
  183.3370  179.3830  144.2330 C   0  0  0  0  0  2  0  0  0  0  0  0
  183.9640  178.6370  143.0850 C   0  0  0  0  0  0  0  0  0  0  0  0
  181.8490  178.9440  141.8070 C   0  0  0  0  0  1  0  0  0  0  0  0
  187.1240  179.2420  147.0700 C   0  0  0  0  0  2  0  0  0  0  0  0
  187.8760  177.9310  147.0530 C   0  0  0  0  0  0  0  0  0  0  0  0
  187.7300  176.9890  146.0990 C   0  0  0  0  0  3  0  0  0  0  0  0
  185.1300  178.6840  145.7220 C   0  0  0  0  0  0  0  0  0  0  0  0
  186.7140  176.9230  144.9780 C   0  0  0  0  0  2  0  0  0  0  0  0
  186.0500  178.2490  144.6060 C   0  0  1  0  0  3  0  0  0  0  0  0
  188.9240  177.7570  148.0790 C   0  0  0  0  0  0  0  0  0  0  0  0
  190.0810  177.0460  147.7800 O   0  0  0  0  0  0  0  0  0  0  0  0
  188.7890  178.2430  149.2270 O   0  0  0  0  0  1  0  0  0  0  0  0
  187.4360  178.2130  141.7120 C   0  0  0  0  0  0  0  0  0  0  0  0
  186.2480  178.8110  142.2380 N   0  0  0  0  0  2  0  0  0  0  0  0
  187.7670  177.0470  142.0420 O   0  0  0  0  0  0  0  0  0  0  0  0
  188.3050  178.9900  140.7930 C   0  0  0  0  0  2  0  0  0  0  0  0
  188.0380  178.6290  139.4690 O   0  0  0  0  0  0  0  0  0  0  0  0
  190.1170  177.4500  139.4010 C   0  0  0  0  0  2  0  0  0  0  0  0
  189.1100  178.2900  137.3580 C   0  0  0  0  0  2  0  0  0  0  0  0
  191.0970  174.6030  137.0070 C   0  0  1  0  0  3  0  0  0  0  0  0
  191.3110  175.5430  138.2070 C   0  0  0  0  0  2  0  0  0  0  0  0
  190.1180  176.4720  138.2570 C   0  0  2  0  0  3  0  0  0  0  0  0
  189.6560  176.4180  135.9640 C   0  0  0  0  0  2  0  0  0  0  0  0
  190.0960  177.2770  137.0530 N   0  0  1  0  0  0  0  0  0  0  0  0
  190.7420  175.3650  135.7120 C   0  0  0  0  0  2  0  0  0  0  0  0
  189.2870  178.6020  138.8480 C   0  0  1  0  0  3  0  0  0  0  0  0
  192.2990  173.7380  136.7910 C   0  0  0  0  0  0  0  0  0  0  0  0
  193.3770  173.9680  137.4030 O   0  0  0  0  0  1  0  0  0  0  0  0
  192.2230  172.6650  135.9160 O   0  0  0  0  0  0  0  0  0  0  0  0
  1 19  1  6  0  0  0
  1 14  1  0  0  0  0
  2  9  1  0  0  0  0
  3 12  1  0  0  0  0
  4  7  2  0  0  0  0
  5  4  1  0  0  0  0
  6  3  1  0  0  0  0
  7  1  1  0  0  0  0
  7  6  1  0  0  0  0
  8  4  1  0  0  0  0
 10  9  1  0  0  0  0
 10 15  1  0  0  0  0
 11 10  2  0  0  0  0
 12  2  2  0  0  0  0
 13 11  1  0  0  0  0
 14 13  1  1  0  0  0
 14 12  1  0  0  0  0
 15 17  1  0  0  0  0
 16 15  2  0  0  0  0
 18 20  2  0  0  0  0
 18 19  1  0  0  0  0
 21 18  1  0  0  0  0
 22 21  1  0  0  0  0
 24 31  1  0  0  0  0
 25 32  1  6  0  0  0
 25 26  1  0  0  0  0
 27 26  1  6  0  0  0
 27 23  1  0  0  0  0
 29 28  1  6  0  0  0
 29 24  1  0  0  0  0
 29 27  1  0  0  0  0
 30 28  1  0  0  0  0
 30 25  1  0  0  0  0
 31 23  1  0  0  0  0
 31 22  1  1  0  0  0
 32 33  1  0  0  0  0
 34 32  2  0  0  0  0
M  END
>  <MODEL>
2

>  <REMARK>
 VINA RESULT:      -8.9      2.946     10.075
  Name = 
  6 active torsions:
  status: ('A' for Active; 'I' for Inactive)
    1  A    between atoms: C_1  and  N_9
    2  A    between atoms: C_3  and  C_25
    3  A    between atoms: C_7  and  C_11
    4  A    between atoms: C_8  and  C_18
    5  A    between atoms: C_18  and  O_30
    6  A    between atoms: O_30  and  C_31
                            x       y       z     vdW  Elec       q    Type
                         _______ _______ _______ _____ _____    ______ ____

>  <TORSDO>
F 6

$$$$
=
 OpenBabel10262423253D

 34 37  0  0  1  0  0  0  0  0999 V2000
  184.3170  178.1690  138.3490 C   0  0  2  0  0  3  0  0  0  0  0  0
  186.2440  175.6700  136.2240 C   0  0  0  0  0  3  0  0  0  0  0  0
  184.1900  176.8750  135.6930 C   0  0  0  0  0  2  0  0  0  0  0  0
  181.9190  178.6900  137.8420 C   0  0  0  0  0  0  0  0  0  0  0  0
  181.9460  179.8220  138.8230 C   0  0  0  0  0  1  0  0  0  0  0  0
  182.9440  176.8440  136.5560 C   0  0  0  0  0  2  0  0  0  0  0  0
  183.0160  177.9390  137.5870 C   0  0  0  0  0  0  0  0  0  0  0  0
  180.6300  178.4640  137.1110 C   0  0  0  0  0  1  0  0  0  0  0  0
  187.3820  175.2990  137.1320 C   0  0  0  0  0  2  0  0  0  0  0  0
  188.4090  176.3900  137.3250 C   0  0  0  0  0  0  0  0  0  0  0  0
  188.1060  177.6650  137.6490 C   0  0  0  0  0  3  0  0  0  0  0  0
  185.3660  176.6140  136.5690 C   0  0  0  0  0  0  0  0  0  0  0  0
  186.7460  178.3290  137.7170 C   0  0  0  0  0  2  0  0  0  0  0  0
  185.5530  177.3830  137.8550 C   0  0  1  0  0  3  0  0  0  0  0  0
  189.8260  175.9790  137.2840 C   0  0  0  0  0  0  0  0  0  0  0  0
  190.3640  175.2270  138.3240 O   0  0  0  0  0  1  0  0  0  0  0  0
  190.5620  176.2960  136.3200 O   0  0  0  0  0  0  0  0  0  0  0  0
  184.6730  178.7200  140.7920 C   0  0  0  0  0  0  0  0  0  0  0  0
  184.1200  177.8920  139.7660 N   0  0  0  0  0  2  0  0  0  0  0  0
  185.3210  179.7560  140.5010 O   0  0  0  0  0  0  0  0  0  0  0  0
  184.5100  178.3330  142.2160 C   0  0  0  0  0  2  0  0  0  0  0  0
  185.6330  178.7300  142.9480 O   0  0  0  0  0  0  0  0  0  0  0  0
  187.5780  177.3620  143.1980 C   0  0  0  0  0  2  0  0  0  0  0  0
  186.0620  177.7020  145.0640 C   0  0  0  0  0  2  0  0  0  0  0  0
  190.1360  177.4630  146.0680 C   0  0  1  0  0  3  0  0  0  0  0  0
  189.5940  176.9880  144.7080 C   0  0  0  0  0  2  0  0  0  0  0  0
  188.2570  177.6650  144.5060 C   0  0  2  0  0  3  0  0  0  0  0  0
  187.7300  177.8750  146.7760 C   0  0  0  0  0  2  0  0  0  0  0  0
  187.3410  177.2200  145.5360 N   0  0  1  0  0  0  0  0  0  0  0  0
  189.0970  177.3260  147.2020 C   0  0  0  0  0  2  0  0  0  0  0  0
  186.1060  177.5580  143.5390 C   0  0  1  0  0  3  0  0  0  0  0  0
  191.3940  176.7330  146.4210 C   0  0  0  0  0  0  0  0  0  0  0  0
  191.9510  175.9690  145.5870 O   0  0  0  0  0  0  0  0  0  0  0  0
  191.9590  176.9080  147.6760 O   0  0  0  0  0  1  0  0  0  0  0  0
  1 19  1  1  0  0  0
  2 12  2  0  0  0  0
  2  9  1  0  0  0  0
  3  6  1  0  0  0  0
  3 12  1  0  0  0  0
  4  5  1  0  0  0  0
  6  7  1  0  0  0  0
  7  4  2  0  0  0  0
  7  1  1  0  0  0  0
  8  4  1  0  0  0  0
  9 10  1  0  0  0  0
 10 11  2  0  0  0  0
 11 13  1  0  0  0  0
 12 14  1  0  0  0  0
 14 13  1  6  0  0  0
 14  1  1  0  0  0  0
 15 10  1  0  0  0  0
 15 16  1  0  0  0  0
 17 15  2  0  0  0  0
 18 21  1  0  0  0  0
 19 18  1  0  0  0  0
 20 18  2  0  0  0  0
 21 22  1  0  0  0  0
 23 31  1  0  0  0  0
 25 32  1  1  0  0  0
 25 30  1  0  0  0  0
 26 25  1  0  0  0  0
 27 23  1  6  0  0  0
 27 26  1  0  0  0  0
 27 29  1  0  0  0  0
 28 30  1  0  0  0  0
 29 24  1  6  0  0  0
 29 28  1  0  0  0  0
 31 22  1  6  0  0  0
 31 24  1  0  0  0  0
 32 34  1  0  0  0  0
 33 32  2  0  0  0  0
M  END
>  <MODEL>
3

>  <REMARK>
 VINA RESULT:      -8.8      3.797      5.926
  Name = 
  6 active torsions:
  status: ('A' for Active; 'I' for Inactive)
    1  A    between atoms: C_1  and  N_9
    2  A    between atoms: C_3  and  C_25
    3  A    between atoms: C_7  and  C_11
    4  A    between atoms: C_8  and  C_18
    5  A    between atoms: C_18  and  O_30
    6  A    between atoms: O_30  and  C_31
                            x       y       z     vdW  Elec       q    Type
                         _______ _______ _______ _____ _____    ______ ____

>  <TORSDO>
F 6

$$$$
=
 OpenBabel10262423253D

 34 37  0  0  1  0  0  0  0  0999 V2000
  183.0810  177.4940  139.2860 C   0  0  2  0  0  3  0  0  0  0  0  0
  184.0580  174.4420  137.2350 C   0  0  0  0  0  3  0  0  0  0  0  0
  181.8310  175.2510  137.8190 C   0  0  0  0  0  2  0  0  0  0  0  0
  180.7950  177.6700  140.2970 C   0  0  0  0  0  0  0  0  0  0  0  0
  181.0570  179.0980  140.6670 C   0  0  0  0  0  1  0  0  0  0  0  0
  181.3720  175.5110  139.2400 C   0  0  0  0  0  2  0  0  0  0  0  0
  181.7080  176.9270  139.6280 C   0  0  0  0  0  0  0  0  0  0  0  0
  179.4480  177.1200  140.6540 C   0  0  0  0  0  1  0  0  0  0  0  0
  185.5590  174.5090  137.2700 C   0  0  0  0  0  2  0  0  0  0  0  0
  186.1540  175.6300  136.4490 C   0  0  0  0  0  0  0  0  0  0  0  0
  185.7460  176.9140  136.5160 C   0  0  0  0  0  3  0  0  0  0  0  0
  183.3120  175.4080  137.7760 C   0  0  0  0  0  0  0  0  0  0  0  0
  184.5490  177.4930  137.2420 C   0  0  0  0  0  2  0  0  0  0  0  0
  183.9740  176.6300  138.3660 C   0  0  1  0  0  3  0  0  0  0  0  0
  187.3400  175.2960  135.6360 C   0  0  0  0  0  0  0  0  0  0  0  0
  187.7710  176.1680  134.6420 O   0  0  0  0  0  0  0  0  0  0  0  0
  187.9720  174.2300  135.8250 O   0  0  0  0  0  1  0  0  0  0  0  0
  184.6320  178.9590  140.6450 C   0  0  0  0  0  0  0  0  0  0  0  0
  183.8160  177.7920  140.5070 N   0  0  0  0  0  2  0  0  0  0  0  0
  184.7080  179.8020  139.7170 O   0  0  0  0  0  0  0  0  0  0  0  0
  185.4240  179.1590  141.8850 C   0  0  0  0  0  2  0  0  0  0  0  0
  186.7770  178.9170  141.6270 O   0  0  0  0  0  0  0  0  0  0  0  0
  188.5590  177.4840  142.3230 C   0  0  0  0  0  2  0  0  0  0  0  0
  186.6230  177.8220  143.7480 C   0  0  0  0  0  2  0  0  0  0  0  0
  190.2960  177.4320  145.7540 C   0  0  1  0  0  3  0  0  0  0  0  0
  190.1110  177.0090  144.2860 C   0  0  0  0  0  2  0  0  0  0  0  0
  188.8860  177.7320  143.7700 C   0  0  2  0  0  3  0  0  0  0  0  0
  187.7990  177.8990  145.8350 C   0  0  0  0  0  2  0  0  0  0  0  0
  187.7270  177.2890  144.5160 N   0  0  1  0  0  0  0  0  0  0  0  0
  188.9980  177.2970  146.5790 C   0  0  0  0  0  2  0  0  0  0  0  0
  187.0540  177.7160  142.2810 C   0  0  1  0  0  3  0  0  0  0  0  0
  191.4040  176.6540  146.3940 C   0  0  0  0  0  0  0  0  0  0  0  0
  192.0210  175.7640  145.7490 O   0  0  0  0  0  0  0  0  0  0  0  0
  191.7610  176.9250  147.7060 O   0  0  0  0  0  1  0  0  0  0  0  0
  1  7  1  0  0  0  0
  1 19  1  1  0  0  0
  2  9  1  0  0  0  0
  2 12  2  0  0  0  0
  3  6  1  0  0  0  0
  4  8  1  0  0  0  0
  4  5  1  0  0  0  0
  6  7  1  0  0  0  0
  7  4  2  0  0  0  0
 10 11  2  0  0  0  0
 10  9  1  0  0  0  0
 11 13  1  0  0  0  0
 12  3  1  0  0  0  0
 12 14  1  0  0  0  0
 14 13  1  6  0  0  0
 14  1  1  0  0  0  0
 15 17  1  0  0  0  0
 15 10  1  0  0  0  0
 16 15  2  0  0  0  0
 18 21  1  0  0  0  0
 19 18  1  0  0  0  0
 20 18  2  0  0  0  0
 22 21  1  0  0  0  0
 25 32  1  1  0  0  0
 25 30  1  0  0  0  0
 26 25  1  0  0  0  0
 27 23  1  6  0  0  0
 27 26  1  0  0  0  0
 27 29  1  0  0  0  0
 28 30  1  0  0  0  0
 29 24  1  6  0  0  0
 29 28  1  0  0  0  0
 31 22  1  6  0  0  0
 31 23  1  0  0  0  0
 31 24  1  0  0  0  0
 32 34  1  0  0  0  0
 33 32  2  0  0  0  0
M  END
>  <MODEL>
4

>  <REMARK>
 VINA RESULT:      -8.6      5.026      7.067
  Name = 
  6 active torsions:
  status: ('A' for Active; 'I' for Inactive)
    1  A    between atoms: C_1  and  N_9
    2  A    between atoms: C_3  and  C_25
    3  A    between atoms: C_7  and  C_11
    4  A    between atoms: C_8  and  C_18
    5  A    between atoms: C_18  and  O_30
    6  A    between atoms: O_30  and  C_31
                            x       y       z     vdW  Elec       q    Type
                         _______ _______ _______ _____ _____    ______ ____

>  <TORSDO>
F 6

$$$$
=
 OpenBabel10262423253D

 34 37  0  0  1  0  0  0  0  0999 V2000
  184.2990  177.7370  137.6520 C   0  0  2  0  0  3  0  0  0  0  0  0
  187.1390  175.4960  136.4740 C   0  0  0  0  0  3  0  0  0  0  0  0
  185.0050  175.9680  135.3890 C   0  0  0  0  0  2  0  0  0  0  0  0
  181.9930  177.4750  136.7060 C   0  0  0  0  0  0  0  0  0  0  0  0
  181.5600  178.7390  137.3820 C   0  0  0  0  0  1  0  0  0  0  0  0
  183.6570  175.7650  136.0530 C   0  0  0  0  0  2  0  0  0  0  0  0
  183.2650  177.0170  136.7930 C   0  0  0  0  0  0  0  0  0  0  0  0
  180.9630  176.7680  135.8770 C   0  0  0  0  0  1  0  0  0  0  0  0
  188.1310  175.6340  137.5930 C   0  0  0  0  0  2  0  0  0  0  0  0
  188.8150  176.9810  137.6620 C   0  0  0  0  0  0  0  0  0  0  0  0
  188.1620  178.1610  137.6260 C   0  0  0  0  0  3  0  0  0  0  0  0
  186.0140  176.2130  136.4580 C   0  0  0  0  0  0  0  0  0  0  0  0
  186.6980  178.4290  137.3440 C   0  0  0  0  0  2  0  0  0  0  0  0
  185.7580  177.2380  137.5360 C   0  0  1  0  0  3  0  0  0  0  0  0
  190.2680  176.9720  137.9180 C   0  0  0  0  0  0  0  0  0  0  0  0
  191.1460  176.5220  136.9370 O   0  0  0  0  0  0  0  0  0  0  0  0
  190.7320  177.3660  139.0140 O   0  0  0  0  0  1  0  0  0  0  0  0
  184.0320  178.8280  139.9190 C   0  0  0  0  0  0  0  0  0  0  0  0
  183.8990  177.6980  139.0510 N   0  0  0  0  0  2  0  0  0  0  0  0
  184.4640  179.9230  139.4820 O   0  0  0  0  0  0  0  0  0  0  0  0
  183.6870  178.6950  141.3560 C   0  0  0  0  0  2  0  0  0  0  0  0
  184.5720  177.8070  141.9760 O   0  0  0  0  0  0  0  0  0  0  0  0
  185.2700  178.6450  144.1040 C   0  0  0  0  0  2  0  0  0  0  0  0
  186.9110  178.0130  142.4310 C   0  0  0  0  0  2  0  0  0  0  0  0
  187.9730  177.1710  146.4090 C   0  0  1  0  0  3  0  0  0  0  0  0
  186.8360  178.1450  146.0480 C   0  0  0  0  0  2  0  0  0  0  0  0
  186.4140  177.8230  144.6320 C   0  0  2  0  0  3  0  0  0  0  0  0
  188.4880  177.0030  143.9260 C   0  0  0  0  0  2  0  0  0  0  0  0
  187.5250  178.0780  143.7390 N   0  0  1  0  0  0  0  0  0  0  0  0
  189.0810  177.1290  145.3350 C   0  0  0  0  0  2  0  0  0  0  0  0
  185.5160  178.6240  142.6010 C   0  0  1  0  0  3  0  0  0  0  0  0
  188.5540  177.5090  147.7460 C   0  0  0  0  0  0  0  0  0  0  0  0
  189.7980  177.6650  147.8880 O   0  0  0  0  0  0  0  0  0  0  0  0
  187.7150  177.6630  148.8400 O   0  0  0  0  0  1  0  0  0  0  0  0
  1 19  1  1  0  0  0
  2  9  1  0  0  0  0
  3  6  1  0  0  0  0
  3 12  1  0  0  0  0
  4  7  2  0  0  0  0
  4  5  1  0  0  0  0
  6  7  1  0  0  0  0
  7  1  1  0  0  0  0
  8  4  1  0  0  0  0
  9 10  1  0  0  0  0
 10 15  1  0  0  0  0
 11 10  2  0  0  0  0
 12  2  2  0  0  0  0
 12 14  1  0  0  0  0
 13 11  1  0  0  0  0
 14 13  1  6  0  0  0
 14  1  1  0  0  0  0
 15 17  1  0  0  0  0
 16 15  2  0  0  0  0
 18 21  1  0  0  0  0
 19 18  1  0  0  0  0
 20 18  2  0  0  0  0
 21 22  1  0  0  0  0
 24 31  1  0  0  0  0
 25 32  1  1  0  0  0
 26 25  1  0  0  0  0
 27 23  1  6  0  0  0
 27 26  1  0  0  0  0
 28 30  1  0  0  0  0
 29 24  1  6  0  0  0
 29 28  1  0  0  0  0
 29 27  1  0  0  0  0
 30 25  1  0  0  0  0
 31 22  1  6  0  0  0
 31 23  1  0  0  0  0
 32 33  2  0  0  0  0
 32 34  1  0  0  0  0
M  END
>  <MODEL>
5

>  <REMARK>
 VINA RESULT:      -8.5      3.824      5.749
  Name = 
  6 active torsions:
  status: ('A' for Active; 'I' for Inactive)
    1  A    between atoms: C_1  and  N_9
    2  A    between atoms: C_3  and  C_25
    3  A    between atoms: C_7  and  C_11
    4  A    between atoms: C_8  and  C_18
    5  A    between atoms: C_18  and  O_30
    6  A    between atoms: O_30  and  C_31
                            x       y       z     vdW  Elec       q    Type
                         _______ _______ _______ _____ _____    ______ ____

>  <TORSDO>
F 6

$$$$
=
 OpenBabel10262423253D

 34 37  0  0  1  0  0  0  0  0999 V2000
  190.0620  175.4620  137.4170 C   0  0  2  0  0  3  0  0  0  0  0  0
  192.8200  173.0230  136.4560 C   0  0  0  0  0  3  0  0  0  0  0  0
  190.5680  173.2330  135.5410 C   0  0  0  0  0  2  0  0  0  0  0  0
  187.6760  174.9870  136.8190 C   0  0  0  0  0  0  0  0  0  0  0  0
  187.2830  176.3690  137.2410 C   0  0  0  0  0  1  0  0  0  0  0  0
  189.3060  173.1800  136.3790 C   0  0  0  0  0  2  0  0  0  0  0  0
  188.9620  174.5640  136.8620 C   0  0  0  0  0  0  0  0  0  0  0  0
  186.5820  174.1090  136.2890 C   0  0  0  0  0  1  0  0  0  0  0  0
  193.9240  173.4120  137.3980 C   0  0  0  0  0  2  0  0  0  0  0  0
  194.5720  174.7420  137.0890 C   0  0  0  0  0  0  0  0  0  0  0  0
  193.8860  175.8820  136.8650 C   0  0  0  0  0  3  0  0  0  0  0  0
  191.6790  173.7150  136.4080 C   0  0  0  0  0  0  0  0  0  0  0  0
  192.3930  176.0750  136.6960 C   0  0  0  0  0  2  0  0  0  0  0  0
  191.5130  174.9550  137.2520 C   0  0  1  0  0  3  0  0  0  0  0  0
  196.0440  174.7950  137.1750 C   0  0  0  0  0  0  0  0  0  0  0  0
  196.7570  175.6970  136.3910 O   0  0  0  0  0  0  0  0  0  0  0  0
  196.6730  174.0360  137.9500 O   0  0  0  0  0  1  0  0  0  0  0  0
  189.8640  177.0590  139.3690 C   0  0  0  0  0  0  0  0  0  0  0  0
  189.8180  175.7360  138.8270 N   0  0  0  0  0  2  0  0  0  0  0  0
  190.0760  178.0490  138.6270 O   0  0  0  0  0  0  0  0  0  0  0  0
  189.6920  177.2600  140.8300 C   0  0  0  0  0  2  0  0  0  0  0  0
  190.8190  176.7870  141.5100 O   0  0  0  0  0  0  0  0  0  0  0  0
  190.9900  176.4160  143.8650 C   0  0  0  0  0  2  0  0  0  0  0  0
  188.8260  176.3650  142.7650 C   0  0  0  0  0  2  0  0  0  0  0  0
  188.8460  178.0130  146.6310 C   0  0  1  0  0  3  0  0  0  0  0  0
  190.0070  177.1550  146.0950 C   0  0  0  0  0  2  0  0  0  0  0  0
  189.9050  177.1700  144.5860 C   0  0  2  0  0  3  0  0  0  0  0  0
  187.5880  177.4790  144.4880 C   0  0  0  0  0  2  0  0  0  0  0  0
  188.6620  176.5420  144.1900 N   0  0  1  0  0  0  0  0  0  0  0  0
  187.4870  177.6250  146.0120 C   0  0  0  0  0  2  0  0  0  0  0  0
  190.3070  176.0250  142.5610 C   0  0  1  0  0  3  0  0  0  0  0  0
  188.7800  177.9400  148.1250 C   0  0  0  0  0  0  0  0  0  0  0  0
  187.7150  177.5970  148.7060 O   0  0  0  0  0  0  0  0  0  0  0  0
  189.9060  178.2420  148.8760 O   0  0  0  0  0  1  0  0  0  0  0  0
  1 19  1  1  0  0  0
  2  9  1  0  0  0  0
  3  6  1  0  0  0  0
  3 12  1  0  0  0  0
  4  7  2  0  0  0  0
  4  5  1  0  0  0  0
  6  7  1  0  0  0  0
  7  1  1  0  0  0  0
  8  4  1  0  0  0  0
 10 15  1  0  0  0  0
 10  9  1  0  0  0  0
 11 10  2  0  0  0  0
 12  2  2  0  0  0  0
 12 14  1  0  0  0  0
 13 11  1  0  0  0  0
 14 13  1  6  0  0  0
 14  1  1  0  0  0  0
 15 17  1  0  0  0  0
 16 15  2  0  0  0  0
 18 21  1  0  0  0  0
 19 18  1  0  0  0  0
 20 18  2  0  0  0  0
 21 22  1  0  0  0  0
 25 32  1  1  0  0  0
 26 25  1  0  0  0  0
 27 23  1  6  0  0  0
 27 26  1  0  0  0  0
 28 30  1  0  0  0  0
 29 24  1  6  0  0  0
 29 28  1  0  0  0  0
 29 27  1  0  0  0  0
 30 25  1  0  0  0  0
 31 22  1  6  0  0  0
 31 24  1  0  0  0  0
 31 23  1  0  0  0  0
 32 33  2  0  0  0  0
 32 34  1  0  0  0  0
M  END
>  <MODEL>
6

>  <REMARK>
 VINA RESULT:      -8.4      1.897      2.488
  Name = 
  6 active torsions:
  status: ('A' for Active; 'I' for Inactive)
    1  A    between atoms: C_1  and  N_9
    2  A    between atoms: C_3  and  C_25
    3  A    between atoms: C_7  and  C_11
    4  A    between atoms: C_8  and  C_18
    5  A    between atoms: C_18  and  O_30
    6  A    between atoms: O_30  and  C_31
                            x       y       z     vdW  Elec       q    Type
                         _______ _______ _______ _____ _____    ______ ____

>  <TORSDO>
F 6

$$$$
=
 OpenBabel10262423253D

 34 37  0  0  1  0  0  0  0  0999 V2000
  188.2190  176.3720  136.9730 C   0  0  2  0  0  3  0  0  0  0  0  0
  190.7650  173.6400  136.2440 C   0  0  0  0  0  3  0  0  0  0  0  0
  188.6140  174.0600  135.1710 C   0  0  0  0  0  2  0  0  0  0  0  0
  185.8420  176.1320  136.2170 C   0  0  0  0  0  0  0  0  0  0  0  0
  185.5680  177.5570  136.5890 C   0  0  0  0  0  1  0  0  0  0  0  0
  187.3000  174.1570  135.9200 C   0  0  0  0  0  2  0  0  0  0  0  0
  187.0710  175.5800  136.3560 C   0  0  0  0  0  0  0  0  0  0  0  0
  184.7010  175.3610  135.6260 C   0  0  0  0  0  1  0  0  0  0  0  0
  191.8370  173.9340  137.2540 C   0  0  0  0  0  2  0  0  0  0  0  0
  192.6400  175.1820  136.9700 C   0  0  0  0  0  0  0  0  0  0  0  0
  192.0950  176.3820  136.6820 C   0  0  0  0  0  3  0  0  0  0  0  0
  189.7090  174.4440  136.1050 C   0  0  0  0  0  0  0  0  0  0  0  0
  190.6450  176.7240  136.4070 C   0  0  0  0  0  2  0  0  0  0  0  0
  189.6170  175.7140  136.9170 C   0  0  1  0  0  3  0  0  0  0  0  0
  194.1010  175.0840  137.1580 C   0  0  0  0  0  0  0  0  0  0  0  0
  194.9490  175.9700  136.5010 O   0  0  0  0  0  0  0  0  0  0  0  0
  194.5980  174.2100  137.9070 O   0  0  0  0  0  1  0  0  0  0  0  0
  188.1220  178.0080  138.9000 C   0  0  0  0  0  0  0  0  0  0  0  0
  187.9100  176.7010  138.3580 N   0  0  0  0  0  2  0  0  0  0  0  0
  188.5480  178.9410  138.1760 O   0  0  0  0  0  0  0  0  0  0  0  0
  187.8690  178.2550  140.3420 C   0  0  0  0  0  2  0  0  0  0  0  0
  189.0820  178.2970  141.0360 O   0  0  0  0  0  0  0  0  0  0  0  0
  190.4710  176.8740  142.3630 C   0  0  0  0  0  2  0  0  0  0  0  0
  188.2300  177.4440  143.1020 C   0  0  0  0  0  2  0  0  0  0  0  0
  191.1080  177.1210  146.1480 C   0  0  1  0  0  3  0  0  0  0  0  0
  191.3350  176.5500  144.7370 C   0  0  0  0  0  2  0  0  0  0  0  0
  190.3730  177.2640  143.8130 C   0  0  2  0  0  3  0  0  0  0  0  0
  188.7390  177.6980  145.4300 C   0  0  0  0  0  2  0  0  0  0  0  0
  189.0160  176.9520  144.2110 N   0  0  1  0  0  0  0  0  0  0  0  0
  189.6180  177.1300  146.5520 C   0  0  0  0  0  2  0  0  0  0  0  0
  189.0670  177.1630  141.8490 C   0  0  1  0  0  3  0  0  0  0  0  0
  191.9180  176.3720  147.1590 C   0  0  0  0  0  0  0  0  0  0  0  0
  192.4220  175.2500  146.8790 O   0  0  0  0  0  0  0  0  0  0  0  0
  192.1260  176.9230  148.4150 O   0  0  0  0  0  1  0  0  0  0  0  0
  1 19  1  1  0  0  0
  2  9  1  0  0  0  0
  3  6  1  0  0  0  0
  3 12  1  0  0  0  0
  4  7  2  0  0  0  0
  4  5  1  0  0  0  0
  6  7  1  0  0  0  0
  7  1  1  0  0  0  0
  8  4  1  0  0  0  0
 10 15  1  0  0  0  0
 10  9  1  0  0  0  0
 11 10  2  0  0  0  0
 12  2  2  0  0  0  0
 12 14  1  0  0  0  0
 13 11  1  0  0  0  0
 14 13  1  6  0  0  0
 14  1  1  0  0  0  0
 15 17  1  0  0  0  0
 16 15  2  0  0  0  0
 18 21  1  0  0  0  0
 19 18  1  0  0  0  0
 20 18  2  0  0  0  0
 21 22  1  0  0  0  0
 25 30  1  0  0  0  0
 25 32  1  1  0  0  0
 26 25  1  0  0  0  0
 27 23  1  6  0  0  0
 27 29  1  0  0  0  0
 27 26  1  0  0  0  0
 28 30  1  0  0  0  0
 29 24  1  6  0  0  0
 29 28  1  0  0  0  0
 31 22  1  6  0  0  0
 31 23  1  0  0  0  0
 31 24  1  0  0  0  0
 32 34  1  0  0  0  0
 33 32  2  0  0  0  0
M  END
>  <MODEL>
7

>  <REMARK>
 VINA RESULT:      -8.2      2.494      3.641
  Name = 
  6 active torsions:
  status: ('A' for Active; 'I' for Inactive)
    1  A    between atoms: C_1  and  N_9
    2  A    between atoms: C_3  and  C_25
    3  A    between atoms: C_7  and  C_11
    4  A    between atoms: C_8  and  C_18
    5  A    between atoms: C_18  and  O_30
    6  A    between atoms: O_30  and  C_31
                            x       y       z     vdW  Elec       q    Type
                         _______ _______ _______ _____ _____    ______ ____

>  <TORSDO>
F 6

$$$$
=
 OpenBabel10262423253D

 34 37  0  0  1  0  0  0  0  0999 V2000
  183.1730  178.4310  140.9740 C   0  0  2  0  0  3  0  0  0  0  0  0
  183.2750  176.6670  137.6050 C   0  0  0  0  0  3  0  0  0  0  0  0
  181.3640  177.6320  138.7750 C   0  0  0  0  0  2  0  0  0  0  0  0
  181.0120  178.6750  142.2190 C   0  0  0  0  0  0  0  0  0  0  0  0
  181.6660  179.6040  143.1960 C   0  0  0  0  0  1  0  0  0  0  0  0
  180.9650  177.2620  140.1900 C   0  0  0  0  0  2  0  0  0  0  0  0
  181.6860  178.1520  141.1670 C   0  0  0  0  0  0  0  0  0  0  0  0
  179.5540  178.3960  142.4290 C   0  0  0  0  0  1  0  0  0  0  0  0
  184.7290  176.3120  137.4820 C   0  0  0  0  0  2  0  0  0  0  0  0
  185.6440  177.4900  137.2360 C   0  0  0  0  0  0  0  0  0  0  0  0
  185.6220  178.6270  137.9630 C   0  0  0  0  0  3  0  0  0  0  0  0
  182.8270  177.3940  138.6310 C   0  0  0  0  0  0  0  0  0  0  0  0
  184.6270  179.0590  139.0200 C   0  0  0  0  0  2  0  0  0  0  0  0
  183.7990  177.9380  139.6500 C   0  0  1  0  0  3  0  0  0  0  0  0
  186.7010  177.3060  136.2230 C   0  0  0  0  0  0  0  0  0  0  0  0
  187.1330  176.0260  135.8900 O   0  0  0  0  0  1  0  0  0  0  0  0
  187.2230  178.2920  135.6500 O   0  0  0  0  0  0  0  0  0  0  0  0
  185.0060  178.5880  142.7100 C   0  0  0  0  0  0  0  0  0  0  0  0
  183.9320  177.8780  142.0870 N   0  0  0  0  0  2  0  0  0  0  0  0
  185.3060  179.7510  142.3400 O   0  0  0  0  0  0  0  0  0  0  0  0
  185.7970  177.9330  143.7820 C   0  0  0  0  0  2  0  0  0  0  0  0
  186.8640  177.2260  143.2190 O   0  0  0  0  0  0  0  0  0  0  0  0
  188.1610  177.8640  145.1230 C   0  0  0  0  0  2  0  0  0  0  0  0
  189.2500  177.2380  143.0460 C   0  0  0  0  0  2  0  0  0  0  0  0
  191.2360  176.0520  146.5550 C   0  0  1  0  0  3  0  0  0  0  0  0
  190.1310  177.1240  146.5560 C   0  0  0  0  0  2  0  0  0  0  0  0
  189.3290  176.9310  145.2880 C   0  0  2  0  0  3  0  0  0  0  0  0
  191.0710  176.0210  144.0190 C   0  0  0  0  0  2  0  0  0  0  0  0
  190.1860  177.1700  144.1460 N   0  0  1  0  0  0  0  0  0  0  0  0
  192.0180  176.0080  145.2240 C   0  0  0  0  0  2  0  0  0  0  0  0
  188.0040  177.9300  143.6090 C   0  0  1  0  0  3  0  0  0  0  0  0
  192.1730  176.2550  147.7040 C   0  0  0  0  0  0  0  0  0  0  0  0
  192.0510  177.2520  148.4670 O   0  0  0  0  0  1  0  0  0  0  0  0
  193.1790  175.3300  147.9400 O   0  0  0  0  0  0  0  0  0  0  0  0
  1  7  1  0  0  0  0
  1 19  1  1  0  0  0
  2 12  2  0  0  0  0
  3  6  1  0  0  0  0
  4  8  1  0  0  0  0
  4  5  1  0  0  0  0
  6  7  1  0  0  0  0
  7  4  2  0  0  0  0
  9  2  1  0  0  0  0
 10  9  1  0  0  0  0
 10 11  2  0  0  0  0
 11 13  1  0  0  0  0
 12  3  1  0  0  0  0
 12 14  1  0  0  0  0
 14 13  1  6  0  0  0
 14  1  1  0  0  0  0
 15 10  1  0  0  0  0
 16 15  1  0  0  0  0
 17 15  2  0  0  0  0
 18 21  1  0  0  0  0
 19 18  1  0  0  0  0
 20 18  2  0  0  0  0
 22 21  1  0  0  0  0
 24 31  1  0  0  0  0
 25 26  1  0  0  0  0
 25 32  1  1  0  0  0
 27 23  1  1  0  0  0
 27 26  1  0  0  0  0
 28 29  1  0  0  0  0
 28 30  1  0  0  0  0
 29 24  1  6  0  0  0
 29 27  1  0  0  0  0
 30 25  1  0  0  0  0
 31 22  1  1  0  0  0
 31 23  1  0  0  0  0
 32 34  2  0  0  0  0
 32 33  1  0  0  0  0
M  END
>  <MODEL>
8

>  <REMARK>
 VINA RESULT:      -7.9      4.904      7.691
  Name = 
  6 active torsions:
  status: ('A' for Active; 'I' for Inactive)
    1  A    between atoms: C_1  and  N_9
    2  A    between atoms: C_3  and  C_25
    3  A    between atoms: C_7  and  C_11
    4  A    between atoms: C_8  and  C_18
    5  A    between atoms: C_18  and  O_30
    6  A    between atoms: O_30  and  C_31
                            x       y       z     vdW  Elec       q    Type
                         _______ _______ _______ _____ _____    ______ ____

>  <TORSDO>
F 6

$$$$
=
 OpenBabel10262423253D

 34 37  0  0  1  0  0  0  0  0999 V2000
  187.6890  178.0710  144.9030 C   0  0  2  0  0  3  0  0  0  0  0  0
  184.0810  178.2490  143.7080 C   0  0  0  0  0  3  0  0  0  0  0  0
  184.9800  178.6510  145.9410 C   0  0  0  0  0  2  0  0  0  0  0  0
  188.2120  177.8390  147.3430 C   0  0  0  0  0  0  0  0  0  0  0  0
  189.6630  178.0870  147.0670 C   0  0  0  0  0  1  0  0  0  0  0  0
  185.8310  177.6530  146.7010 C   0  0  0  0  0  2  0  0  0  0  0  0
  187.2830  177.8630  146.3580 C   0  0  0  0  0  0  0  0  0  0  0  0
  187.8280  177.6190  148.7750 C   0  0  0  0  0  1  0  0  0  0  0  0
  184.2130  177.8800  142.2580 C   0  0  0  0  0  2  0  0  0  0  0  0
  184.8700  178.9380  141.4010 C   0  0  0  0  0  0  0  0  0  0  0  0
  186.0320  179.5480  141.7130 C   0  0  0  0  0  3  0  0  0  0  0  0
  185.1570  178.3940  144.4840 C   0  0  0  0  0  0  0  0  0  0  0  0
  186.8290  179.4730  142.9990 C   0  0  0  0  0  2  0  0  0  0  0  0
  186.5380  178.2630  143.8890 C   0  0  1  0  0  3  0  0  0  0  0  0
  184.2520  179.2000  140.0860 C   0  0  0  0  0  0  0  0  0  0  0  0
  182.9360  178.8200  139.8460 O   0  0  0  0  0  1  0  0  0  0  0  0
  184.8980  179.7650  139.1720 O   0  0  0  0  0  0  0  0  0  0  0  0
  189.8060  177.1780  143.8460 C   0  0  0  0  0  0  0  0  0  0  0  0
  188.5300  176.9690  144.4580 N   0  0  0  0  0  2  0  0  0  0  0  0
  190.2700  178.3370  143.7110 O   0  0  0  0  0  0  0  0  0  0  0  0
  190.5740  176.0160  143.3340 C   0  0  0  0  0  2  0  0  0  0  0  0
  190.0860  175.6390  142.0790 O   0  0  0  0  0  0  0  0  0  0  0  0
  191.0840  176.4020  140.0450 C   0  0  0  0  0  2  0  0  0  0  0  0
  188.9040  177.2230  140.7310 C   0  0  0  0  0  2  0  0  0  0  0  0
  189.4080  176.6770  136.5940 C   0  0  1  0  0  3  0  0  0  0  0  0
  190.5990  176.7380  137.5680 C   0  0  0  0  0  2  0  0  0  0  0  0
  190.0560  176.4360  138.9470 C   0  0  2  0  0  3  0  0  0  0  0  0
  187.8970  177.2480  138.5560 C   0  0  0  0  0  2  0  0  0  0  0  0
  189.1150  177.4700  139.3220 N   0  0  1  0  0  0  0  0  0  0  0  0
  188.2030  177.5130  137.0770 C   0  0  0  0  0  2  0  0  0  0  0  0
  190.2620  176.7660  141.2750 C   0  0  1  0  0  3  0  0  0  0  0  0
  189.8240  177.1050  135.2220 C   0  0  0  0  0  0  0  0  0  0  0  0
  189.1690  177.9810  134.5940 O   0  0  0  0  0  0  0  0  0  0  0  0
  190.9490  176.5410  134.6390 O   0  0  0  0  0  1  0  0  0  0  0  0
  1 19  1  6  0  0  0
  1  7  1  0  0  0  0
  2 12  2  0  0  0  0
  3  6  1  0  0  0  0
  4  8  1  0  0  0  0
  5  4  1  0  0  0  0
  7  6  1  0  0  0  0
  7  4  2  0  0  0  0
  9  2  1  0  0  0  0
 10 11  2  0  0  0  0
 10  9  1  0  0  0  0
 11 13  1  0  0  0  0
 12  3  1  0  0  0  0
 14 13  1  1  0  0  0
 14 12  1  0  0  0  0
 14  1  1  0  0  0  0
 15 10  1  0  0  0  0
 16 15  1  0  0  0  0
 17 15  2  0  0  0  0
 18 19  1  0  0  0  0
 20 18  2  0  0  0  0
 21 18  1  0  0  0  0
 22 21  1  0  0  0  0
 23 31  1  0  0  0  0
 24 31  1  0  0  0  0
 25 32  1  6  0  0  0
 25 30  1  0  0  0  0
 25 26  1  0  0  0  0
 27 26  1  6  0  0  0
 27 29  1  0  0  0  0
 27 23  1  0  0  0  0
 29 28  1  6  0  0  0
 29 24  1  0  0  0  0
 30 28  1  0  0  0  0
 31 22  1  1  0  0  0
 33 32  2  0  0  0  0
 34 32  1  0  0  0  0
M  END
>  <MODEL>
9

>  <REMARK>
 VINA RESULT:      -7.8      3.210      9.717
  Name = 
  6 active torsions:
  status: ('A' for Active; 'I' for Inactive)
    1  A    between atoms: C_1  and  N_9
    2  A    between atoms: C_3  and  C_25
    3  A    between atoms: C_7  and  C_11
    4  A    between atoms: C_8  and  C_18
    5  A    between atoms: C_18  and  O_30
    6  A    between atoms: O_30  and  C_31
                            x       y       z     vdW  Elec       q    Type
                         _______ _______ _______ _____ _____    ______ ____

>  <TORSDO>
F 6

$$$$
