=
 OpenBabel10262422323D

 43 46  0  0  1  0  0  0  0  0999 V2000
  189.4820  177.8590  141.2190 N   0  0  0  0  0  0  0  0  0  0  0  0
  188.4810  175.2750  142.9990 C   0  0  0  0  0  1  0  0  0  0  0  0
  187.0570  177.6320  144.4860 N   0  0  0  0  0  0  0  0  0  0  0  0
  188.6240  177.6100  142.1480 C   0  0  0  0  0  0  0  0  0  0  0  0
  184.4590  178.7280  144.4710 C   0  0  0  0  0  0  0  0  0  0  0  0
  185.0930  178.6100  143.2860 C   0  0  0  0  0  0  0  0  0  0  0  0
  183.1320  179.4020  144.5920 C   0  0  0  0  0  1  0  0  0  0  0  0
  187.3090  178.3160  142.1150 C   0  0  0  0  0  2  0  0  0  0  0  0
  186.3640  177.7800  143.1860 C   0  0  1  0  0  3  0  0  0  0  0  0
  186.2940  177.7000  145.7010 C   0  0  0  0  0  3  0  0  0  0  0  0
  188.3860  177.1430  144.5850 N   0  0  0  0  0  0  0  0  0  0  0  0
  188.9480  176.6860  143.3010 C   0  0  1  0  0  3  0  0  0  0  0  0
  185.0670  178.2080  145.7060 C   0  0  0  0  0  3  0  0  0  0  0  0
  189.2660  178.1310  145.2350 C   0  0  0  0  0  2  0  0  0  0  0  0
  191.0560  177.2730  148.4780 C   0  0  0  0  0  3  0  0  0  0  0  0
  192.0970  176.4620  148.0160 C   0  0  0  0  0  0  0  0  0  0  0  0
  191.2670  176.7030  145.7490 C   0  0  0  0  0  3  0  0  0  0  0  0
  190.1310  177.8080  147.5770 C   0  0  0  0  0  3  0  0  0  0  0  0
  190.2460  177.5410  146.2070 C   0  0  0  0  0  0  0  0  0  0  0  0
  192.1900  176.1680  146.6470 C   0  0  0  0  0  3  0  0  0  0  0  0
  193.0210  175.9630  148.9330 O   0  0  0  0  0  0  0  0  0  0  0  0
  193.7280  176.7960  149.8430 C   0  0  0  0  0  1  0  0  0  0  0  0
  184.4430  179.1200  142.0250 C   0  0  0  0  0  2  0  0  0  0  0  0
  183.7720  177.9950  141.2410 C   0  0  0  0  0  2  0  0  0  0  0  0
  182.7090  178.5180  140.2840 C   0  0  0  0  0  2  0  0  0  0  0  0
  183.2830  179.6140  139.4050 C   0  0  0  0  0  1  0  0  0  0  0  0
  190.8080  177.2850  141.2090 C   0  0  0  0  0  2  0  0  0  0  0  0
  191.3980  177.3050  139.8070 C   0  0  1  0  0  3  0  0  0  0  0  0
  192.8990  177.0820  139.8680 C   0  0  0  0  0  1  0  0  0  0  0  0
  190.7900  176.2270  139.0310 N   0  0  0  0  0  2  0  0  0  0  0  0
  190.9050  176.4680  137.5880 C   0  0  1  0  0  3  0  0  0  0  0  0
  192.6340  175.4200  136.1960 C   0  0  0  0  0  2  0  0  0  0  0  0
  192.4460  174.6370  137.3530 O   0  0  0  0  0  0  0  0  0  0  0  0
  191.2910  175.2190  136.7930 C   0  0  1  0  0  3  0  0  0  0  0  0
  189.4460  177.2680  136.9130 S   0  0  0  0  0  0  0  0  0  0  0  0
  189.4700  178.7390  137.2350 O   0  0  0  0  0  0  0  0  0  0  0  0
  189.4250  177.0890  135.4200 O   0  0  0  0  0  0  0  0  0  0  0  0
  187.9660  176.5400  137.5950 C   0  0  2  0  0  3  0  0  0  0  0  0
  187.0880  174.7610  136.6110 C   0  0  0  0  0  1  0  0  0  0  0  0
  188.0510  175.1470  137.5440 O   0  0  0  0  0  0  0  0  0  0  0  0
  186.7450  177.0270  136.8170 C   0  0  0  0  0  2  0  0  0  0  0  0
  186.0430  178.1640  137.5500 C   0  0  0  0  0  2  0  0  0  0  0  0
  186.6070  178.3300  138.8140 O   0  0  0  0  0  1  0  0  0  0  0  0
  1  4  2  0  0  0  0
  3 11  1  0  0  0  0
  3 10  1  0  0  0  0
  4 12  1  0  0  0  0
  5  7  1  0  0  0  0
  5 13  1  0  0  0  0
  6  5  2  0  0  0  0
  8  4  1  0  0  0  0
  9  8  1  6  0  0  0
  9  6  1  0  0  0  0
  9  3  1  0  0  0  0
 10 13  2  0  0  0  0
 11 14  1  0  0  0  0
 12  2  1  6  0  0  0
 12 11  1  0  0  0  0
 14 19  1  0  0  0  0
 16 15  1  0  0  0  0
 16 21  1  0  0  0  0
 17 19  2  0  0  0  0
 17 20  1  0  0  0  0
 18 15  2  0  0  0  0
 19 18  1  0  0  0  0
 20 16  2  0  0  0  0
 21 22  1  0  0  0  0
 23  6  1  0  0  0  0
 24 23  1  0  0  0  0
 25 24  1  0  0  0  0
 26 25  1  0  0  0  0
 27  1  1  0  0  0  0
 28 29  1  1  0  0  0
 28 27  1  0  0  0  0
 30 28  1  0  0  0  0
 31 30  1  1  0  0  0
 32 34  1  0  0  0  0
 32 33  1  0  0  0  0
 34 33  1  0  0  0  0
 34 31  1  1  0  0  0
 35 36  2  0  0  0  0
 35 31  1  0  0  0  0
 35 38  1  0  0  0  0
 37 35  2  0  0  0  0
 38 41  1  6  0  0  0
 39 40  1  0  0  0  0
 40 38  1  0  0  0  0
 41 42  1  0  0  0  0
 42 43  1  0  0  0  0
M  END
>  <MODEL>
1

>  <REMARK>
 VINA RESULT:      -6.4      0.000      0.000
  Name = 
  16 active torsions:
  status: ('A' for Active; 'I' for Inactive)
    1  A    between atoms: C_1  and  N_34
    2  A    between atoms: C_1  and  C_35
    3  A    between atoms: N_2  and  C_6
    4  A    between atoms: N_3  and  C_4
    5  A    between atoms: N_3  and  C_12
    6  A    between atoms: C_4  and  S_14
    7  A    between atoms: C_4  and  C_42
    8  A    between atoms: C_5  and  C_18
    9  A    between atoms: C_6  and  C_12
   10  A    between atoms: C_11  and  S_14
   11  A    between atoms: C_11  and  O_36
   12  A    between atoms: C_11  and  C_40
   13  A    between atoms: C_18  and  C_24
   14  A    between atoms: C_19  and  O_25
   15  A    between atoms: C_21  and  C_24
   16  A    between atoms: C_26  and  C_40
                            x       y       z     vdW  Elec       q    Type
                         _______ _______ _______ _____ _____    ______ ____

>  <TORSDO>
F 16

$$$$
=
 OpenBabel10262422323D

 43 46  0  0  1  0  0  0  0  0999 V2000
  183.6220  178.9830  141.2560 N   0  0  0  0  0  0  0  0  0  0  0  0
  185.1530  178.6170  138.3640 C   0  0  0  0  0  1  0  0  0  0  0  0
  182.1580  178.2750  137.5190 N   0  0  0  0  0  0  0  0  0  0  0  0
  183.3080  178.9140  140.0080 C   0  0  0  0  0  0  0  0  0  0  0  0
  180.2040  179.9440  136.3620 C   0  0  0  0  0  0  0  0  0  0  0  0
  180.8220  180.3880  137.4760 C   0  0  0  0  0  0  0  0  0  0  0  0
  179.0720  180.6930  135.7370 C   0  0  0  0  0  1  0  0  0  0  0  0
  182.1880  179.7630  139.5030 C   0  0  0  0  0  2  0  0  0  0  0  0
  182.0670  179.6780  137.9860 C   0  0  1  0  0  3  0  0  0  0  0  0
  181.5300  177.9020  136.2830 C   0  0  0  0  0  3  0  0  0  0  0  0
  183.0730  177.3480  138.0830 N   0  0  0  0  0  0  0  0  0  0  0  0
  183.9920  177.9440  139.0700 C   0  0  1  0  0  3  0  0  0  0  0  0
  180.6120  178.6830  135.7240 C   0  0  0  0  0  3  0  0  0  0  0  0
  182.3670  176.1820  138.6440 C   0  0  0  0  0  2  0  0  0  0  0  0
  184.2520  173.2390  137.1460 C   0  0  0  0  0  3  0  0  0  0  0  0
  183.2070  172.4800  136.6130 C   0  0  0  0  0  0  0  0  0  0  0  0
  181.6120  174.1100  137.4420 C   0  0  0  0  0  3  0  0  0  0  0  0
  183.9800  174.4370  137.8140 C   0  0  0  0  0  3  0  0  0  0  0  0
  182.6600  174.8860  137.9460 C   0  0  0  0  0  0  0  0  0  0  0  0
  181.8820  172.9150  136.7770 C   0  0  0  0  0  3  0  0  0  0  0  0
  183.5080  171.3030  135.9290 O   0  0  0  0  0  0  0  0  0  0  0  0
  182.5330  170.5620  135.2080 C   0  0  0  0  0  1  0  0  0  0  0  0
  180.4120  181.6980  138.0990 C   0  0  0  0  0  2  0  0  0  0  0  0
  181.3390  182.8360  137.6820 C   0  0  0  0  0  2  0  0  0  0  0  0
  180.5750  184.0020  137.0680 C   0  0  0  0  0  2  0  0  0  0  0  0
  180.9240  184.1460  135.5980 C   0  0  0  0  0  1  0  0  0  0  0  0
  184.6370  178.1460  141.8520 C   0  0  0  0  0  2  0  0  0  0  0  0
  185.1160  178.7290  143.1730 C   0  0  1  0  0  3  0  0  0  0  0  0
  183.9850  179.4800  143.8540 C   0  0  0  0  0  1  0  0  0  0  0  0
  185.5450  177.6320  144.0370 N   0  0  0  0  0  2  0  0  0  0  0  0
  186.7060  178.0080  144.8520 C   0  0  1  0  0  3  0  0  0  0  0  0
  186.0860  179.0700  146.9760 C   0  0  0  0  0  2  0  0  0  0  0  0
  185.1500  178.0570  146.6840 O   0  0  0  0  0  0  0  0  0  0  0  0
  186.4920  177.7880  146.3510 C   0  0  1  0  0  3  0  0  0  0  0  0
  188.2220  177.2400  144.2710 S   0  0  0  0  0  0  0  0  0  0  0  0
  189.1290  176.9450  145.4370 O   0  0  0  0  0  0  0  0  0  0  0  0
  187.8920  175.9550  143.5640 O   0  0  0  0  0  0  0  0  0  0  0  0
  189.0660  178.3200  143.1270 C   0  0  2  0  0  3  0  0  0  0  0  0
  188.2560  178.5640  141.0810 C   0  0  0  0  0  1  0  0  0  0  0  0
  189.0830  177.7470  141.8530 O   0  0  0  0  0  0  0  0  0  0  0  0
  190.4910  178.5750  143.6140 C   0  0  0  0  0  2  0  0  0  0  0  0
  191.4990  177.7450  142.8290 C   0  0  0  0  0  2  0  0  0  0  0  0
  191.7420  176.5440  143.4940 O   0  0  0  0  0  1  0  0  0  0  0  0
  1 27  1  0  0  0  0
  3  9  1  0  0  0  0
  3 11  1  0  0  0  0
  4  1  2  0  0  0  0
  5  6  2  0  0  0  0
  6  9  1  0  0  0  0
  6 23  1  0  0  0  0
  7  5  1  0  0  0  0
  8  4  1  0  0  0  0
  9  8  1  1  0  0  0
 10  3  1  0  0  0  0
 11 14  1  0  0  0  0
 11 12  1  0  0  0  0
 12  2  1  6  0  0  0
 12  4  1  0  0  0  0
 13 10  2  0  0  0  0
 13  5  1  0  0  0  0
 15 18  1  0  0  0  0
 16 20  1  0  0  0  0
 16 15  2  0  0  0  0
 17 19  1  0  0  0  0
 18 19  2  0  0  0  0
 19 14  1  0  0  0  0
 20 17  2  0  0  0  0
 21 16  1  0  0  0  0
 22 21  1  0  0  0  0
 24 23  1  0  0  0  0
 25 24  1  0  0  0  0
 26 25  1  0  0  0  0
 27 28  1  0  0  0  0
 28 29  1  1  0  0  0
 28 30  1  0  0  0  0
 31 30  1  6  0  0  0
 33 32  1  0  0  0  0
 34 31  1  6  0  0  0
 34 33  1  0  0  0  0
 34 32  1  0  0  0  0
 35 31  1  0  0  0  0
 35 36  2  0  0  0  0
 37 35  2  0  0  0  0
 38 41  1  1  0  0  0
 38 35  1  0  0  0  0
 39 40  1  0  0  0  0
 40 38  1  0  0  0  0
 42 43  1  0  0  0  0
 42 41  1  0  0  0  0
M  END
>  <MODEL>
2

>  <REMARK>
 VINA RESULT:      -6.2      4.337      9.743
  Name = 
  16 active torsions:
  status: ('A' for Active; 'I' for Inactive)
    1  A    between atoms: C_1  and  N_34
    2  A    between atoms: C_1  and  C_35
    3  A    between atoms: N_2  and  C_6
    4  A    between atoms: N_3  and  C_4
    5  A    between atoms: N_3  and  C_12
    6  A    between atoms: C_4  and  S_14
    7  A    between atoms: C_4  and  C_42
    8  A    between atoms: C_5  and  C_18
    9  A    between atoms: C_6  and  C_12
   10  A    between atoms: C_11  and  S_14
   11  A    between atoms: C_11  and  O_36
   12  A    between atoms: C_11  and  C_40
   13  A    between atoms: C_18  and  C_24
   14  A    between atoms: C_19  and  O_25
   15  A    between atoms: C_21  and  C_24
   16  A    between atoms: C_26  and  C_40
                            x       y       z     vdW  Elec       q    Type
                         _______ _______ _______ _____ _____    ______ ____

>  <TORSDO>
F 16

$$$$
=
 OpenBabel10262422323D

 43 46  0  0  1  0  0  0  0  0999 V2000
  187.5630  178.4030  139.3420 N   0  0  0  0  0  0  0  0  0  0  0  0
  187.8330  178.4920  136.0610 C   0  0  0  0  0  1  0  0  0  0  0  0
  185.4420  176.5040  136.4260 N   0  0  0  0  0  0  0  0  0  0  0  0
  186.8970  178.0020  138.3140 C   0  0  0  0  0  0  0  0  0  0  0  0
  182.6340  176.7050  136.2790 C   0  0  0  0  0  0  0  0  0  0  0  0
  183.2780  177.5620  137.0980 C   0  0  0  0  0  0  0  0  0  0  0  0
  181.1430  176.6450  136.2150 C   0  0  0  0  0  1  0  0  0  0  0  0
  185.4050  178.0490  138.3650 C   0  0  0  0  0  2  0  0  0  0  0  0
  184.7910  177.6970  137.0150 C   0  0  1  0  0  3  0  0  0  0  0  0
  184.7060  175.6840  135.5050 C   0  0  0  0  0  3  0  0  0  0  0  0
  186.8440  176.2910  136.5020 N   0  0  0  0  0  0  0  0  0  0  0  0
  187.5840  177.4160  137.1010 C   0  0  1  0  0  3  0  0  0  0  0  0
  183.3840  175.7730  135.4220 C   0  0  0  0  0  3  0  0  0  0  0  0
  187.1500  175.0220  137.1870 C   0  0  0  0  0  2  0  0  0  0  0  0
  190.9010  174.4030  137.1620 C   0  0  0  0  0  3  0  0  0  0  0  0
  191.0110  173.3930  136.2020 C   0  0  0  0  0  0  0  0  0  0  0  0
  188.6020  173.4130  135.9170 C   0  0  0  0  0  3  0  0  0  0  0  0
  189.6470  174.9270  137.4890 C   0  0  0  0  0  3  0  0  0  0  0  0
  188.4950  174.4470  136.8530 C   0  0  0  0  0  0  0  0  0  0  0  0
  189.8520  172.8910  135.5910 C   0  0  0  0  0  3  0  0  0  0  0  0
  192.2770  172.9070  135.8760 O   0  0  0  0  0  0  0  0  0  0  0  0
  193.4640  173.6620  136.0760 C   0  0  0  0  0  1  0  0  0  0  0  0
  182.4960  178.5310  137.9470 C   0  0  0  0  0  2  0  0  0  0  0  0
  182.0390  177.8940  139.2560 C   0  0  0  0  0  2  0  0  0  0  0  0
  182.5940  176.4860  139.4320 C   0  0  0  0  0  2  0  0  0  0  0  0
  181.4630  175.4970  139.6500 C   0  0  0  0  0  1  0  0  0  0  0  0
  189.0040  178.3240  139.4160 C   0  0  0  0  0  2  0  0  0  0  0  0
  189.4440  177.6080  140.6840 C   0  0  1  0  0  3  0  0  0  0  0  0
  190.8700  177.1060  140.5320 C   0  0  0  0  0  1  0  0  0  0  0  0
  189.3910  178.5550  141.7940 N   0  0  0  0  0  2  0  0  0  0  0  0
  189.4770  177.8730  143.0910 C   0  0  1  0  0  3  0  0  0  0  0  0
  191.4780  177.8970  144.5130 C   0  0  0  0  0  2  0  0  0  0  0  0
  191.5340  178.9950  143.6310 O   0  0  0  0  0  0  0  0  0  0  0  0
  190.2630  178.6620  144.1400 C   0  0  1  0  0  3  0  0  0  0  0  0
  187.8670  177.3650  143.7010 S   0  0  0  0  0  0  0  0  0  0  0  0
  186.7790  178.0470  142.9140 O   0  0  0  0  0  0  0  0  0  0  0  0
  187.7250  175.8750  143.5530 O   0  0  0  0  0  0  0  0  0  0  0  0
  187.6960  177.7850  145.4280 C   0  0  2  0  0  3  0  0  0  0  0  0
  188.7220  177.6400  147.3850 C   0  0  0  0  0  1  0  0  0  0  0  0
  188.4800  176.9310  146.2070 O   0  0  0  0  0  0  0  0  0  0  0  0
  186.2290  177.6840  145.8410 C   0  0  0  0  0  2  0  0  0  0  0  0
  185.5910  179.0640  145.9460 C   0  0  0  0  0  2  0  0  0  0  0  0
  185.7000  179.5350  147.2550 O   0  0  0  0  0  1  0  0  0  0  0  0
  1 27  1  0  0  0  0
  3 11  1  0  0  0  0
  3  9  1  0  0  0  0
  4  8  1  0  0  0  0
  4  1  2  0  0  0  0
  5  6  2  0  0  0  0
  6 23  1  0  0  0  0
  7  5  1  0  0  0  0
  9  6  1  0  0  0  0
  9  8  1  1  0  0  0
 10  3  1  0  0  0  0
 11 12  1  0  0  0  0
 11 14  1  0  0  0  0
 12  2  1  6  0  0  0
 12  4  1  0  0  0  0
 13 10  2  0  0  0  0
 13  5  1  0  0  0  0
 15 18  1  0  0  0  0
 16 15  2  0  0  0  0
 17 19  1  0  0  0  0
 19 14  1  0  0  0  0
 19 18  2  0  0  0  0
 20 17  2  0  0  0  0
 20 16  1  0  0  0  0
 21 22  1  0  0  0  0
 21 16  1  0  0  0  0
 23 24  1  0  0  0  0
 24 25  1  0  0  0  0
 25 26  1  0  0  0  0
 27 28  1  0  0  0  0
 28 29  1  6  0  0  0
 28 30  1  0  0  0  0
 31 30  1  6  0  0  0
 31 35  1  0  0  0  0
 33 34  1  0  0  0  0
 33 32  1  0  0  0  0
 34 31  1  6  0  0  0
 34 32  1  0  0  0  0
 35 38  1  0  0  0  0
 36 35  2  0  0  0  0
 37 35  2  0  0  0  0
 38 41  1  1  0  0  0
 38 40  1  0  0  0  0
 40 39  1  0  0  0  0
 41 42  1  0  0  0  0
 42 43  1  0  0  0  0
M  END
>  <MODEL>
3

>  <REMARK>
 VINA RESULT:      -6.1      3.247      8.254
  Name = 
  16 active torsions:
  status: ('A' for Active; 'I' for Inactive)
    1  A    between atoms: C_1  and  N_34
    2  A    between atoms: C_1  and  C_35
    3  A    between atoms: N_2  and  C_6
    4  A    between atoms: N_3  and  C_4
    5  A    between atoms: N_3  and  C_12
    6  A    between atoms: C_4  and  S_14
    7  A    between atoms: C_4  and  C_42
    8  A    between atoms: C_5  and  C_18
    9  A    between atoms: C_6  and  C_12
   10  A    between atoms: C_11  and  S_14
   11  A    between atoms: C_11  and  O_36
   12  A    between atoms: C_11  and  C_40
   13  A    between atoms: C_18  and  C_24
   14  A    between atoms: C_19  and  O_25
   15  A    between atoms: C_21  and  C_24
   16  A    between atoms: C_26  and  C_40
                            x       y       z     vdW  Elec       q    Type
                         _______ _______ _______ _____ _____    ______ ____

>  <TORSDO>
F 16

$$$$
=
 OpenBabel10262422323D

 43 46  0  0  1  0  0  0  0  0999 V2000
  188.8360  176.7110  141.2300 N   0  0  0  0  0  0  0  0  0  0  0  0
  188.0950  179.9130  141.4400 C   0  0  0  0  0  1  0  0  0  0  0  0
  185.8270  178.6440  143.1830 N   0  0  0  0  0  0  0  0  0  0  0  0
  188.0440  177.4700  141.9080 C   0  0  0  0  0  0  0  0  0  0  0  0
  185.3930  178.2830  145.9450 C   0  0  0  0  0  0  0  0  0  0  0  0
  186.5520  177.8230  145.4310 C   0  0  0  0  0  0  0  0  0  0  0  0
  185.0100  178.0390  147.3680 C   0  0  0  0  0  1  0  0  0  0  0  0
  187.7930  177.1410  143.3430 C   0  0  0  0  0  2  0  0  0  0  0  0
  186.9720  178.2280  144.0260 C   0  0  1  0  0  3  0  0  0  0  0  0
  184.6560  179.1910  143.8080 C   0  0  0  0  0  3  0  0  0  0  0  0
  185.9380  178.7960  141.7760 N   0  0  0  0  0  0  0  0  0  0  0  0
  187.3110  178.6270  141.2670 C   0  0  1  0  0  3  0  0  0  0  0  0
  184.4420  179.0330  145.1100 C   0  0  0  0  0  3  0  0  0  0  0  0
  184.9920  177.9120  141.0720 C   0  0  0  0  0  2  0  0  0  0  0  0
  181.4440  179.0850  140.3660 C   0  0  0  0  0  3  0  0  0  0  0  0
  181.6430  179.9310  139.2710 C   0  0  0  0  0  0  0  0  0  0  0  0
  184.0270  179.4950  139.3770 C   0  0  0  0  0  3  0  0  0  0  0  0
  182.5320  178.4360  140.9580 C   0  0  0  0  0  3  0  0  0  0  0  0
  183.8250  178.6230  140.4520 C   0  0  0  0  0  0  0  0  0  0  0  0
  182.9440  180.1430  138.7880 C   0  0  0  0  0  3  0  0  0  0  0  0
  180.5370  180.5440  138.6830 O   0  0  0  0  0  0  0  0  0  0  0  0
  180.5580  181.8890  138.2240 C   0  0  0  0  0  1  0  0  0  0  0  0
  187.5290  177.0830  146.3090 C   0  0  0  0  0  2  0  0  0  0  0  0
  188.8280  177.8630  146.4900 C   0  0  0  0  0  2  0  0  0  0  0  0
  189.3770  177.7450  147.9060 C   0  0  0  0  0  2  0  0  0  0  0  0
  188.3020  178.0960  148.9180 C   0  0  0  0  0  1  0  0  0  0  0  0
  189.0810  176.9030  139.8190 C   0  0  0  0  0  2  0  0  0  0  0  0
  190.5720  177.0010  139.5340 C   0  0  1  0  0  3  0  0  0  0  0  0
  191.3410  177.1900  140.8300 C   0  0  0  0  0  1  0  0  0  0  0  0
  191.0060  175.7570  138.9030 N   0  0  0  0  0  2  0  0  0  0  0  0
  191.5930  175.9980  137.5800 C   0  0  1  0  0  3  0  0  0  0  0  0
  193.8860  176.3640  136.7850 C   0  0  0  0  0  2  0  0  0  0  0  0
  193.9230  176.0870  138.1660 O   0  0  0  0  0  0  0  0  0  0  0  0
  192.9770  175.3700  137.4060 C   0  0  1  0  0  3  0  0  0  0  0  0
  190.4790  175.5430  136.2470 S   0  0  0  0  0  0  0  0  0  0  0  0
  191.0660  175.9520  134.9220 O   0  0  0  0  0  0  0  0  0  0  0  0
  190.2710  174.0540  136.2570 O   0  0  0  0  0  0  0  0  0  0  0  0
  188.8960  176.3410  136.4610 C   0  0  2  0  0  3  0  0  0  0  0  0
  186.9720  175.3800  136.9880 C   0  0  0  0  0  1  0  0  0  0  0  0
  187.8810  175.5360  135.9400 O   0  0  0  0  0  0  0  0  0  0  0  0
  188.9060  177.7020  135.7660 C   0  0  0  0  0  2  0  0  0  0  0  0
  188.8590  178.8380  136.7800 C   0  0  0  0  0  2  0  0  0  0  0  0
  187.5330  179.1310  137.0990 O   0  0  0  0  0  1  0  0  0  0  0  0
  1  4  2  0  0  0  0
  3 10  1  0  0  0  0
  3  9  1  0  0  0  0
  4  8  1  0  0  0  0
  5  7  1  0  0  0  0
  6  5  2  0  0  0  0
  6 23  1  0  0  0  0
  9  8  1  6  0  0  0
  9  6  1  0  0  0  0
 10 13  2  0  0  0  0
 11  3  1  0  0  0  0
 12  2  1  1  0  0  0
 12 11  1  0  0  0  0
 12  4  1  0  0  0  0
 13  5  1  0  0  0  0
 14 11  1  0  0  0  0
 15 18  1  0  0  0  0
 16 15  2  0  0  0  0
 17 19  1  0  0  0  0
 19 18  2  0  0  0  0
 19 14  1  0  0  0  0
 20 16  1  0  0  0  0
 20 17  2  0  0  0  0
 21 16  1  0  0  0  0
 22 21  1  0  0  0  0
 23 24  1  0  0  0  0
 24 25  1  0  0  0  0
 25 26  1  0  0  0  0
 27  1  1  0  0  0  0
 28 27  1  0  0  0  0
 28 29  1  1  0  0  0
 30 28  1  0  0  0  0
 31 30  1  1  0  0  0
 32 34  1  0  0  0  0
 32 33  1  0  0  0  0
 34 31  1  1  0  0  0
 34 33  1  0  0  0  0
 35 37  2  0  0  0  0
 35 38  1  0  0  0  0
 35 31  1  0  0  0  0
 36 35  2  0  0  0  0
 38 41  1  6  0  0  0
 40 38  1  0  0  0  0
 40 39  1  0  0  0  0
 41 42  1  0  0  0  0
 42 43  1  0  0  0  0
M  END
>  <MODEL>
4

>  <REMARK>
 VINA RESULT:      -5.9      2.451      6.702
  Name = 
  16 active torsions:
  status: ('A' for Active; 'I' for Inactive)
    1  A    between atoms: C_1  and  N_34
    2  A    between atoms: C_1  and  C_35
    3  A    between atoms: N_2  and  C_6
    4  A    between atoms: N_3  and  C_4
    5  A    between atoms: N_3  and  C_12
    6  A    between atoms: C_4  and  S_14
    7  A    between atoms: C_4  and  C_42
    8  A    between atoms: C_5  and  C_18
    9  A    between atoms: C_6  and  C_12
   10  A    between atoms: C_11  and  S_14
   11  A    between atoms: C_11  and  O_36
   12  A    between atoms: C_11  and  C_40
   13  A    between atoms: C_18  and  C_24
   14  A    between atoms: C_19  and  O_25
   15  A    between atoms: C_21  and  C_24
   16  A    between atoms: C_26  and  C_40
                            x       y       z     vdW  Elec       q    Type
                         _______ _______ _______ _____ _____    ______ ____

>  <TORSDO>
F 16

$$$$
=
 OpenBabel10262422323D

 43 46  0  0  1  0  0  0  0  0999 V2000
  189.3480  176.4660  141.7150 N   0  0  0  0  0  0  0  0  0  0  0  0
  188.5260  179.6110  142.2430 C   0  0  0  0  0  1  0  0  0  0  0  0
  186.9940  178.1790  144.5670 N   0  0  0  0  0  0  0  0  0  0  0  0
  188.7650  177.1640  142.6290 C   0  0  0  0  0  0  0  0  0  0  0  0
  187.4680  177.7600  147.3140 C   0  0  0  0  0  0  0  0  0  0  0  0
  188.4330  177.3820  146.4510 C   0  0  0  0  0  0  0  0  0  0  0  0
  187.5640  177.4760  148.7770 C   0  0  0  0  0  1  0  0  0  0  0  0
  188.9950  176.8040  144.0600 C   0  0  0  0  0  2  0  0  0  0  0  0
  188.3670  177.8290  144.9980 C   0  0  1  0  0  3  0  0  0  0  0  0
  186.0480  178.6420  145.5420 C   0  0  0  0  0  3  0  0  0  0  0  0
  186.6510  178.3530  143.2010 N   0  0  0  0  0  0  0  0  0  0  0  0
  187.8020  178.2790  142.2840 C   0  0  1  0  0  3  0  0  0  0  0  0
  186.2620  178.4560  146.8400 C   0  0  0  0  0  3  0  0  0  0  0  0
  185.5840  177.4170  142.8000 C   0  0  0  0  0  2  0  0  0  0  0  0
  182.2760  179.2060  143.3600 C   0  0  0  0  0  3  0  0  0  0  0  0
  181.7600  179.2520  142.0620 C   0  0  0  0  0  0  0  0  0  0  0  0
  183.7550  178.1430  141.2390 C   0  0  0  0  0  3  0  0  0  0  0  0
  183.5210  178.6180  143.6000 C   0  0  0  0  0  3  0  0  0  0  0  0
  184.2560  178.0670  142.5420 C   0  0  0  0  0  0  0  0  0  0  0  0
  182.5140  178.7290  140.9990 C   0  0  0  0  0  3  0  0  0  0  0  0
  180.5030  179.8200  141.8550 O   0  0  0  0  0  0  0  0  0  0  0  0
  179.5660  179.2930  140.9250 C   0  0  0  0  0  1  0  0  0  0  0  0
  189.6760  176.6970  146.9570 C   0  0  0  0  0  2  0  0  0  0  0  0
  190.9390  177.2860  146.3340 C   0  0  0  0  0  2  0  0  0  0  0  0
  192.0290  176.2390  146.1460 C   0  0  0  0  0  2  0  0  0  0  0  0
  192.4210  175.6400  147.4850 C   0  0  0  0  0  1  0  0  0  0  0  0
  189.1270  176.6890  140.3050 C   0  0  0  0  0  2  0  0  0  0  0  0
  190.2530  177.5160  139.7020 C   0  0  1  0  0  3  0  0  0  0  0  0
  191.4980  177.4140  140.5670 C   0  0  0  0  0  1  0  0  0  0  0  0
  190.5560  176.9900  138.3730 N   0  0  0  0  0  2  0  0  0  0  0  0
  189.3360  176.7830  137.5840 C   0  0  1  0  0  3  0  0  0  0  0  0
  187.6910  178.4810  136.9260 C   0  0  0  0  0  2  0  0  0  0  0  0
  188.8700  179.1290  137.3460 O   0  0  0  0  0  0  0  0  0  0  0  0
  189.0350  177.9330  136.6210 C   0  0  1  0  0  3  0  0  0  0  0  0
  189.3260  175.1910  136.7520 S   0  0  0  0  0  0  0  0  0  0  0  0
  189.9620  175.3170  135.3920 O   0  0  0  0  0  0  0  0  0  0  0  0
  190.1010  174.1960  137.5700 O   0  0  0  0  0  0  0  0  0  0  0  0
  187.6530  174.5980  136.5660 C   0  0  2  0  0  3  0  0  0  0  0  0
  185.5250  175.0240  137.0080 C   0  0  0  0  0  1  0  0  0  0  0  0
  186.8180  175.2230  137.4950 O   0  0  0  0  0  0  0  0  0  0  0  0
  187.6180  173.0830  136.7560 C   0  0  0  0  0  2  0  0  0  0  0  0
  187.8840  172.3570  135.4430 C   0  0  0  0  0  2  0  0  0  0  0  0
  187.4380  171.0380  135.5340 O   0  0  0  0  0  1  0  0  0  0  0  0
  1  4  2  0  0  0  0
  3  9  1  0  0  0  0
  3 10  1  0  0  0  0
  4  8  1  0  0  0  0
  5  7  1  0  0  0  0
  6 23  1  0  0  0  0
  6  5  2  0  0  0  0
  9  8  1  6  0  0  0
  9  6  1  0  0  0  0
 10 13  2  0  0  0  0
 11  3  1  0  0  0  0
 12  2  1  1  0  0  0
 12  4  1  0  0  0  0
 12 11  1  0  0  0  0
 13  5  1  0  0  0  0
 14 11  1  0  0  0  0
 15 18  1  0  0  0  0
 16 15  2  0  0  0  0
 17 19  1  0  0  0  0
 19 14  1  0  0  0  0
 19 18  2  0  0  0  0
 20 17  2  0  0  0  0
 20 16  1  0  0  0  0
 21 16  1  0  0  0  0
 22 21  1  0  0  0  0
 24 23  1  0  0  0  0
 25 24  1  0  0  0  0
 25 26  1  0  0  0  0
 27  1  1  0  0  0  0
 28 27  1  0  0  0  0
 28 29  1  1  0  0  0
 30 28  1  0  0  0  0
 31 30  1  6  0  0  0
 32 33  1  0  0  0  0
 34 32  1  0  0  0  0
 34 33  1  0  0  0  0
 34 31  1  1  0  0  0
 35 37  2  0  0  0  0
 35 31  1  0  0  0  0
 36 35  2  0  0  0  0
 38 35  1  0  0  0  0
 38 41  1  1  0  0  0
 38 40  1  0  0  0  0
 39 40  1  0  0  0  0
 42 43  1  0  0  0  0
 42 41  1  0  0  0  0
M  END
>  <MODEL>
5

>  <REMARK>
 VINA RESULT:      -5.9      2.388      6.688
  Name = 
  16 active torsions:
  status: ('A' for Active; 'I' for Inactive)
    1  A    between atoms: C_1  and  N_34
    2  A    between atoms: C_1  and  C_35
    3  A    between atoms: N_2  and  C_6
    4  A    between atoms: N_3  and  C_4
    5  A    between atoms: N_3  and  C_12
    6  A    between atoms: C_4  and  S_14
    7  A    between atoms: C_4  and  C_42
    8  A    between atoms: C_5  and  C_18
    9  A    between atoms: C_6  and  C_12
   10  A    between atoms: C_11  and  S_14
   11  A    between atoms: C_11  and  O_36
   12  A    between atoms: C_11  and  C_40
   13  A    between atoms: C_18  and  C_24
   14  A    between atoms: C_19  and  O_25
   15  A    between atoms: C_21  and  C_24
   16  A    between atoms: C_26  and  C_40
                            x       y       z     vdW  Elec       q    Type
                         _______ _______ _______ _____ _____    ______ ____

>  <TORSDO>
F 16

$$$$
=
 OpenBabel10262422323D

 43 46  0  0  1  0  0  0  0  0999 V2000
  189.2740  176.4810  141.7690 N   0  0  0  0  0  0  0  0  0  0  0  0
  188.6500  179.6630  142.3440 C   0  0  0  0  0  1  0  0  0  0  0  0
  187.0330  178.2950  144.6490 N   0  0  0  0  0  0  0  0  0  0  0  0
  188.7360  177.2000  142.6940 C   0  0  0  0  0  0  0  0  0  0  0  0
  187.4810  177.8070  147.3890 C   0  0  0  0  0  0  0  0  0  0  0  0
  188.4200  177.3830  146.5190 C   0  0  0  0  0  0  0  0  0  0  0  0
  187.5600  177.4970  148.8480 C   0  0  0  0  0  1  0  0  0  0  0  0
  188.9440  176.8060  144.1190 C   0  0  0  0  0  2  0  0  0  0  0  0
  188.3820  177.8540  145.0740 C   0  0  1  0  0  3  0  0  0  0  0  0
  186.1170  178.8020  145.6320 C   0  0  0  0  0  3  0  0  0  0  0  0
  186.7000  178.5100  143.2860 N   0  0  0  0  0  0  0  0  0  0  0  0
  187.8450  178.3770  142.3670 C   0  0  1  0  0  3  0  0  0  0  0  0
  186.3200  178.5840  146.9270 C   0  0  0  0  0  3  0  0  0  0  0  0
  185.5770  177.6490  142.8730 C   0  0  0  0  0  2  0  0  0  0  0  0
  182.4750  178.8040  141.0030 C   0  0  0  0  0  3  0  0  0  0  0  0
  183.0340  179.3480  139.8430 C   0  0  0  0  0  0  0  0  0  0  0  0
  185.2520  178.8250  140.6780 C   0  0  0  0  0  3  0  0  0  0  0  0
  183.3000  178.2600  141.9920 C   0  0  0  0  0  3  0  0  0  0  0  0
  184.6900  178.2500  141.8230 C   0  0  0  0  0  0  0  0  0  0  0  0
  184.4300  179.3670  139.6920 C   0  0  0  0  0  3  0  0  0  0  0  0
  182.1870  179.8600  138.8610 O   0  0  0  0  0  0  0  0  0  0  0  0
  181.9140  181.2480  138.7280 C   0  0  0  0  0  1  0  0  0  0  0  0
  189.6190  176.6140  147.0140 C   0  0  0  0  0  2  0  0  0  0  0  0
  190.9250  177.2150  146.5020 C   0  0  0  0  0  2  0  0  0  0  0  0
  192.0260  176.1710  146.3760 C   0  0  0  0  0  2  0  0  0  0  0  0
  192.3980  175.6300  147.7440 C   0  0  0  0  0  1  0  0  0  0  0  0
  189.0670  176.7380  140.3630 C   0  0  0  0  0  2  0  0  0  0  0  0
  190.3900  176.9830  139.6540 C   0  0  1  0  0  3  0  0  0  0  0  0
  191.4790  177.2890  140.6690 C   0  0  0  0  0  1  0  0  0  0  0  0
  190.7550  175.7750  138.9180 N   0  0  0  0  0  2  0  0  0  0  0  0
  191.3020  176.0930  137.5950 C   0  0  1  0  0  3  0  0  0  0  0  0
  193.5820  176.3760  136.7300 C   0  0  0  0  0  2  0  0  0  0  0  0
  193.6540  175.9730  138.0790 O   0  0  0  0  0  0  0  0  0  0  0  0
  192.6310  175.3930  137.3030 C   0  0  1  0  0  3  0  0  0  0  0  0
  190.1050  175.8320  136.2820 S   0  0  0  0  0  0  0  0  0  0  0  0
  190.4330  176.7110  135.1040 O   0  0  0  0  0  0  0  0  0  0  0  0
  190.1430  174.3930  135.8510 O   0  0  0  0  0  0  0  0  0  0  0  0
  188.4580  176.2110  136.8590 C   0  0  2  0  0  3  0  0  0  0  0  0
  186.6570  175.0780  136.2470 C   0  0  0  0  0  1  0  0  0  0  0  0
  187.7550  175.0310  137.1080 O   0  0  0  0  0  0  0  0  0  0  0  0
  187.7280  177.0560  135.8160 C   0  0  0  0  0  2  0  0  0  0  0  0
  187.6950  178.5240  136.2220 C   0  0  0  0  0  2  0  0  0  0  0  0
  187.0660  178.6580  137.4590 O   0  0  0  0  0  1  0  0  0  0  0  0
  1  4  2  0  0  0  0
  3  9  1  0  0  0  0
  3 10  1  0  0  0  0
  4  8  1  0  0  0  0
  5  7  1  0  0  0  0
  6 23  1  0  0  0  0
  6  5  2  0  0  0  0
  9  8  1  6  0  0  0
  9  6  1  0  0  0  0
 10 13  2  0  0  0  0
 11  3  1  0  0  0  0
 12  2  1  1  0  0  0
 12  4  1  0  0  0  0
 12 11  1  0  0  0  0
 13  5  1  0  0  0  0
 14 11  1  0  0  0  0
 15 18  1  0  0  0  0
 16 15  2  0  0  0  0
 17 19  1  0  0  0  0
 19 18  2  0  0  0  0
 19 14  1  0  0  0  0
 20 16  1  0  0  0  0
 20 17  2  0  0  0  0
 21 16  1  0  0  0  0
 22 21  1  0  0  0  0
 24 23  1  0  0  0  0
 25 24  1  0  0  0  0
 25 26  1  0  0  0  0
 27  1  1  0  0  0  0
 28 27  1  0  0  0  0
 28 29  1  1  0  0  0
 30 28  1  0  0  0  0
 31 30  1  1  0  0  0
 32 34  1  0  0  0  0
 32 33  1  0  0  0  0
 34 31  1  1  0  0  0
 34 33  1  0  0  0  0
 35 38  1  0  0  0  0
 35 31  1  0  0  0  0
 36 35  2  0  0  0  0
 37 35  2  0  0  0  0
 38 41  1  6  0  0  0
 38 40  1  0  0  0  0
 39 40  1  0  0  0  0
 41 42  1  0  0  0  0
 42 43  1  0  0  0  0
M  END
>  <MODEL>
6

>  <REMARK>
 VINA RESULT:      -5.9      2.143      6.398
  Name = 
  16 active torsions:
  status: ('A' for Active; 'I' for Inactive)
    1  A    between atoms: C_1  and  N_34
    2  A    between atoms: C_1  and  C_35
    3  A    between atoms: N_2  and  C_6
    4  A    between atoms: N_3  and  C_4
    5  A    between atoms: N_3  and  C_12
    6  A    between atoms: C_4  and  S_14
    7  A    between atoms: C_4  and  C_42
    8  A    between atoms: C_5  and  C_18
    9  A    between atoms: C_6  and  C_12
   10  A    between atoms: C_11  and  S_14
   11  A    between atoms: C_11  and  O_36
   12  A    between atoms: C_11  and  C_40
   13  A    between atoms: C_18  and  C_24
   14  A    between atoms: C_19  and  O_25
   15  A    between atoms: C_21  and  C_24
   16  A    between atoms: C_26  and  C_40
                            x       y       z     vdW  Elec       q    Type
                         _______ _______ _______ _____ _____    ______ ____

>  <TORSDO>
F 16

$$$$
=
 OpenBabel10262422323D

 43 46  0  0  1  0  0  0  0  0999 V2000
  186.8060  178.6450  143.5390 N   0  0  0  0  0  0  0  0  0  0  0  0
  187.5400  175.4500  143.2310 C   0  0  0  0  0  1  0  0  0  0  0  0
  190.2080  176.5790  144.4150 N   0  0  0  0  0  0  0  0  0  0  0  0
  187.7430  177.8370  143.9030 C   0  0  0  0  0  0  0  0  0  0  0  0
  191.3740  176.6800  146.9800 C   0  0  0  0  0  0  0  0  0  0  0  0
  190.1240  177.1690  146.8440 C   0  0  0  0  0  0  0  0  0  0  0  0
  192.1280  176.7920  148.2640 C   0  0  0  0  0  1  0  0  0  0  0  0
  188.3750  178.0310  145.2420 C   0  0  0  0  0  2  0  0  0  0  0  0
  189.3380  176.8950  145.5710 C   0  0  1  0  0  3  0  0  0  0  0  0
  191.4980  175.9930  144.6460 C   0  0  0  0  0  3  0  0  0  0  0  0
  189.7210  176.5620  143.0820 N   0  0  0  0  0  0  0  0  0  0  0  0
  188.2640  176.7590  142.9790 C   0  0  1  0  0  3  0  0  0  0  0  0
  192.0560  176.0280  145.8510 C   0  0  0  0  0  3  0  0  0  0  0  0
  190.4530  177.5240  142.2380 C   0  0  0  0  0  2  0  0  0  0  0  0
  188.8920  178.1250  138.8230 C   0  0  0  0  0  3  0  0  0  0  0  0
  189.5690  177.1870  138.0380 C   0  0  0  0  0  0  0  0  0  0  0  0
  190.8510  176.5000  139.9800 C   0  0  0  0  0  3  0  0  0  0  0  0
  189.1850  178.2420  140.1850 C   0  0  0  0  0  3  0  0  0  0  0  0
  190.1510  177.4150  140.7720 C   0  0  0  0  0  0  0  0  0  0  0  0
  190.5610  176.3830  138.6220 C   0  0  0  0  0  3  0  0  0  0  0  0
  189.2390  177.0730  136.6880 O   0  0  0  0  0  0  0  0  0  0  0  0
  189.3820  175.8600  135.9610 C   0  0  0  0  0  1  0  0  0  0  0  0
  189.4280  177.8060  148.0190 C   0  0  0  0  0  2  0  0  0  0  0  0
  187.9840  177.3280  148.1460 C   0  0  0  0  0  2  0  0  0  0  0  0
  187.0300  178.4660  148.4840 C   0  0  0  0  0  2  0  0  0  0  0  0
  186.0400  178.6780  147.3540 C   0  0  0  0  0  1  0  0  0  0  0  0
  186.1890  178.5860  142.2350 C   0  0  0  0  0  2  0  0  0  0  0  0
  184.7040  178.2770  142.3490 C   0  0  1  0  0  3  0  0  0  0  0  0
  184.2870  178.2470  143.8090 C   0  0  0  0  0  1  0  0  0  0  0  0
  183.9560  179.3300  141.6650 N   0  0  0  0  0  2  0  0  0  0  0  0
  182.9840  178.7740  140.7180 C   0  0  1  0  0  3  0  0  0  0  0  0
  180.7320  177.8800  141.1110 C   0  0  0  0  0  2  0  0  0  0  0  0
  181.1750  178.5260  142.2830 O   0  0  0  0  0  0  0  0  0  0  0  0
  181.5340  179.1260  141.0600 C   0  0  1  0  0  3  0  0  0  0  0  0
  183.3870  179.1740  139.0150 S   0  0  0  0  0  0  0  0  0  0  0  0
  182.2010  179.8130  138.3410 O   0  0  0  0  0  0  0  0  0  0  0  0
  184.5450  180.1320  138.9880 O   0  0  0  0  0  0  0  0  0  0  0  0
  183.8470  177.6980  138.1220 C   0  0  2  0  0  3  0  0  0  0  0  0
  182.2180  176.1990  138.1090 C   0  0  0  0  0  1  0  0  0  0  0  0
  183.3770  176.5680  138.7930 O   0  0  0  0  0  0  0  0  0  0  0  0
  185.3660  177.6370  137.9740 C   0  0  0  0  0  2  0  0  0  0  0  0
  185.7670  177.2990  136.5430 C   0  0  0  0  0  2  0  0  0  0  0  0
  184.6240  177.1220  135.7630 O   0  0  0  0  0  1  0  0  0  0  0  0
  1  4  2  0  0  0  0
  3 10  1  0  0  0  0
  3  9  1  0  0  0  0
  4  8  1  0  0  0  0
  5  7  1  0  0  0  0
  6  5  2  0  0  0  0
  6 23  1  0  0  0  0
  9  8  1  6  0  0  0
  9  6  1  0  0  0  0
 10 13  2  0  0  0  0
 11  3  1  0  0  0  0
 12 11  1  0  0  0  0
 12  2  1  1  0  0  0
 12  4  1  0  0  0  0
 13  5  1  0  0  0  0
 14 11  1  0  0  0  0
 15 18  1  0  0  0  0
 16 20  1  0  0  0  0
 16 15  2  0  0  0  0
 17 19  1  0  0  0  0
 18 19  2  0  0  0  0
 19 14  1  0  0  0  0
 20 17  2  0  0  0  0
 21 16  1  0  0  0  0
 22 21  1  0  0  0  0
 23 24  1  0  0  0  0
 24 25  1  0  0  0  0
 26 25  1  0  0  0  0
 27 28  1  0  0  0  0
 27  1  1  0  0  0  0
 28 29  1  1  0  0  0
 30 28  1  0  0  0  0
 31 30  1  1  0  0  0
 32 33  1  0  0  0  0
 34 31  1  6  0  0  0
 34 32  1  0  0  0  0
 34 33  1  0  0  0  0
 35 31  1  0  0  0  0
 36 35  2  0  0  0  0
 37 35  2  0  0  0  0
 38 41  1  1  0  0  0
 38 40  1  0  0  0  0
 38 35  1  0  0  0  0
 39 40  1  0  0  0  0
 42 41  1  0  0  0  0
 43 42  1  0  0  0  0
M  END
>  <MODEL>
7

>  <REMARK>
 VINA RESULT:      -5.7      2.824      7.508
  Name = 
  16 active torsions:
  status: ('A' for Active; 'I' for Inactive)
    1  A    between atoms: C_1  and  N_34
    2  A    between atoms: C_1  and  C_35
    3  A    between atoms: N_2  and  C_6
    4  A    between atoms: N_3  and  C_4
    5  A    between atoms: N_3  and  C_12
    6  A    between atoms: C_4  and  S_14
    7  A    between atoms: C_4  and  C_42
    8  A    between atoms: C_5  and  C_18
    9  A    between atoms: C_6  and  C_12
   10  A    between atoms: C_11  and  S_14
   11  A    between atoms: C_11  and  O_36
   12  A    between atoms: C_11  and  C_40
   13  A    between atoms: C_18  and  C_24
   14  A    between atoms: C_19  and  O_25
   15  A    between atoms: C_21  and  C_24
   16  A    between atoms: C_26  and  C_40
                            x       y       z     vdW  Elec       q    Type
                         _______ _______ _______ _____ _____    ______ ____

>  <TORSDO>
F 16

$$$$
=
 OpenBabel10262422323D

 43 46  0  0  1  0  0  0  0  0999 V2000
  187.5870  178.2540  139.8300 N   0  0  0  0  0  0  0  0  0  0  0  0
  188.0040  179.1620  136.6920 C   0  0  0  0  0  1  0  0  0  0  0  0
  186.0880  176.7080  136.3700 N   0  0  0  0  0  0  0  0  0  0  0  0
  187.0790  177.9800  138.6770 C   0  0  0  0  0  0  0  0  0  0  0  0
  183.3160  176.3720  135.9860 C   0  0  0  0  0  0  0  0  0  0  0  0
  183.7130  177.1230  137.0330 C   0  0  0  0  0  0  0  0  0  0  0  0
  181.8790  176.0310  135.7600 C   0  0  0  0  0  1  0  0  0  0  0  0
  185.6120  177.7150  138.5860 C   0  0  0  0  0  2  0  0  0  0  0  0
  185.1630  177.5740  137.1360 C   0  0  1  0  0  3  0  0  0  0  0  0
  185.5990  175.9960  135.2230 C   0  0  0  0  0  3  0  0  0  0  0  0
  187.4960  176.7670  136.5400 N   0  0  0  0  0  0  0  0  0  0  0  0
  187.9410  177.8450  137.4420 C   0  0  1  0  0  3  0  0  0  0  0  0
  184.2950  175.8360  135.0270 C   0  0  0  0  0  3  0  0  0  0  0  0
  188.0350  175.4600  136.9590 C   0  0  0  0  0  2  0  0  0  0  0  0
  191.4070  175.0950  135.2400 C   0  0  0  0  0  3  0  0  0  0  0  0
  192.2670  174.9710  136.3350 C   0  0  0  0  0  0  0  0  0  0  0  0
  190.3750  175.2100  137.8360 C   0  0  0  0  0  3  0  0  0  0  0  0
  190.0340  175.2630  135.4420 C   0  0  0  0  0  3  0  0  0  0  0  0
  189.5110  175.3010  136.7400 C   0  0  0  0  0  0  0  0  0  0  0  0
  191.7440  175.0430  137.6360 C   0  0  0  0  0  3  0  0  0  0  0  0
  193.6280  174.7770  136.1060 O   0  0  0  0  0  0  0  0  0  0  0  0
  194.5250  175.8500  135.8500 C   0  0  0  0  0  1  0  0  0  0  0  0
  182.6950  177.6900  137.9890 C   0  0  0  0  0  2  0  0  0  0  0  0
  182.4490  176.7550  139.1700 C   0  0  0  0  0  2  0  0  0  0  0  0
  180.9650  176.5040  139.4040 C   0  0  0  0  0  2  0  0  0  0  0  0
  180.4430  177.4110  140.5040 C   0  0  0  0  0  1  0  0  0  0  0  0
  189.0040  178.4490  140.0310 C   0  0  0  0  0  2  0  0  0  0  0  0
  189.5010  177.6380  141.2180 C   0  0  1  0  0  3  0  0  0  0  0  0
  190.8570  177.0290  140.9050 C   0  0  0  0  0  1  0  0  0  0  0  0
  189.6370  178.5310  142.3660 N   0  0  0  0  0  2  0  0  0  0  0  0
  189.1820  177.8910  143.6060 C   0  0  1  0  0  3  0  0  0  0  0  0
  186.9730  177.1110  144.3370 C   0  0  0  0  0  2  0  0  0  0  0  0
  186.8930  177.5000  142.9850 O   0  0  0  0  0  0  0  0  0  0  0  0
  188.0800  176.8540  143.3840 C   0  0  1  0  0  3  0  0  0  0  0  0
  190.5440  177.2270  144.5690 S   0  0  0  0  0  0  0  0  0  0  0  0
  191.0140  175.9280  143.9680 O   0  0  0  0  0  0  0  0  0  0  0  0
  191.6820  178.2100  144.5700 O   0  0  0  0  0  0  0  0  0  0  0  0
  190.0340  176.9440  146.2560 C   0  0  2  0  0  3  0  0  0  0  0  0
  189.0570  177.8380  148.0310 C   0  0  0  0  0  1  0  0  0  0  0  0
  189.0920  177.9020  146.6370 O   0  0  0  0  0  0  0  0  0  0  0  0
  191.2500  176.9970  147.1790 C   0  0  0  0  0  2  0  0  0  0  0  0
  191.9410  175.6410  147.2560 C   0  0  0  0  0  2  0  0  0  0  0  0
  193.0520  175.7250  148.0950 O   0  0  0  0  0  1  0  0  0  0  0  0
  1 27  1  0  0  0  0
  3 11  1  0  0  0  0
  3  9  1  0  0  0  0
  4  1  2  0  0  0  0
  5  6  2  0  0  0  0
  6  9  1  0  0  0  0
  6 23  1  0  0  0  0
  7  5  1  0  0  0  0
  8  4  1  0  0  0  0
  9  8  1  1  0  0  0
 10  3  1  0  0  0  0
 11 14  1  0  0  0  0
 11 12  1  0  0  0  0
 12  2  1  6  0  0  0
 12  4  1  0  0  0  0
 13 10  2  0  0  0  0
 13  5  1  0  0  0  0
 15 18  2  0  0  0  0
 15 16  1  0  0  0  0
 16 20  2  0  0  0  0
 18 19  1  0  0  0  0
 19 14  1  0  0  0  0
 19 17  2  0  0  0  0
 20 17  1  0  0  0  0
 21 16  1  0  0  0  0
 22 21  1  0  0  0  0
 23 24  1  0  0  0  0
 24 25  1  0  0  0  0
 25 26  1  0  0  0  0
 27 28  1  0  0  0  0
 28 29  1  6  0  0  0
 28 30  1  0  0  0  0
 31 30  1  6  0  0  0
 31 35  1  0  0  0  0
 33 34  1  0  0  0  0
 33 32  1  0  0  0  0
 34 31  1  1  0  0  0
 34 32  1  0  0  0  0
 35 37  2  0  0  0  0
 35 38  1  0  0  0  0
 36 35  2  0  0  0  0
 38 40  1  0  0  0  0
 38 41  1  1  0  0  0
 40 39  1  0  0  0  0
 41 42  1  0  0  0  0
 42 43  1  0  0  0  0
M  END
>  <MODEL>
8

>  <REMARK>
 VINA RESULT:      -5.7      2.836      8.593
  Name = 
  16 active torsions:
  status: ('A' for Active; 'I' for Inactive)
    1  A    between atoms: C_1  and  N_34
    2  A    between atoms: C_1  and  C_35
    3  A    between atoms: N_2  and  C_6
    4  A    between atoms: N_3  and  C_4
    5  A    between atoms: N_3  and  C_12
    6  A    between atoms: C_4  and  S_14
    7  A    between atoms: C_4  and  C_42
    8  A    between atoms: C_5  and  C_18
    9  A    between atoms: C_6  and  C_12
   10  A    between atoms: C_11  and  S_14
   11  A    between atoms: C_11  and  O_36
   12  A    between atoms: C_11  and  C_40
   13  A    between atoms: C_18  and  C_24
   14  A    between atoms: C_19  and  O_25
   15  A    between atoms: C_21  and  C_24
   16  A    between atoms: C_26  and  C_40
                            x       y       z     vdW  Elec       q    Type
                         _______ _______ _______ _____ _____    ______ ____

>  <TORSDO>
F 16

$$$$
=
 OpenBabel10262422323D

 43 46  0  0  1  0  0  0  0  0999 V2000
  187.1940  178.4100  139.5620 N   0  0  0  0  0  0  0  0  0  0  0  0
  187.4710  179.0690  136.3470 C   0  0  0  0  0  1  0  0  0  0  0  0
  185.5490  176.5990  136.3030 N   0  0  0  0  0  0  0  0  0  0  0  0
  186.6370  178.0470  138.4570 C   0  0  0  0  0  0  0  0  0  0  0  0
  182.7640  176.2360  136.0680 C   0  0  0  0  0  0  0  0  0  0  0  0
  183.2050  177.0670  137.0350 C   0  0  0  0  0  0  0  0  0  0  0  0
  181.3200  175.8800  135.9330 C   0  0  0  0  0  1  0  0  0  0  0  0
  185.1680  177.7770  138.4520 C   0  0  0  0  0  2  0  0  0  0  0  0
  184.6560  177.5230  137.0380 C   0  0  1  0  0  3  0  0  0  0  0  0
  185.0120  175.8000  135.2380 C   0  0  0  0  0  3  0  0  0  0  0  0
  186.9640  176.6700  136.4050 N   0  0  0  0  0  0  0  0  0  0  0  0
  187.4450  177.8150  137.1990 C   0  0  1  0  0  3  0  0  0  0  0  0
  183.7010  175.6260  135.1120 C   0  0  0  0  0  3  0  0  0  0  0  0
  187.5240  175.4000  136.9010 C   0  0  0  0  0  2  0  0  0  0  0  0
  190.8810  174.9620  135.1710 C   0  0  0  0  0  3  0  0  0  0  0  0
  191.7540  174.9240  136.2620 C   0  0  0  0  0  0  0  0  0  0  0  0
  189.8760  175.2400  137.7660 C   0  0  0  0  0  3  0  0  0  0  0  0
  189.5080  175.1260  135.3770 C   0  0  0  0  0  3  0  0  0  0  0  0
  188.9990  175.2450  136.6760 C   0  0  0  0  0  0  0  0  0  0  0  0
  191.2450  175.0770  137.5610 C   0  0  0  0  0  3  0  0  0  0  0  0
  193.1160  174.7330  136.0290 O   0  0  0  0  0  0  0  0  0  0  0  0
  194.1220  175.2350  136.8990 C   0  0  0  0  0  1  0  0  0  0  0  0
  182.2280  177.7070  137.9870 C   0  0  0  0  0  2  0  0  0  0  0  0
  182.0660  179.1990  137.7110 C   0  0  0  0  0  2  0  0  0  0  0  0
  181.1510  179.4670  136.5230 C   0  0  0  0  0  2  0  0  0  0  0  0
  180.5600  180.8610  136.6160 C   0  0  0  0  0  1  0  0  0  0  0  0
  188.6180  178.6190  139.6840 C   0  0  0  0  0  2  0  0  0  0  0  0
  189.1870  177.8190  140.8460 C   0  0  1  0  0  3  0  0  0  0  0  0
  190.6470  177.4890  140.5880 C   0  0  0  0  0  1  0  0  0  0  0  0
  189.0920  178.6280  142.0590 N   0  0  0  0  0  2  0  0  0  0  0  0
  189.5700  177.8950  143.2360 C   0  0  1  0  0  3  0  0  0  0  0  0
  191.7100  178.2500  144.3850 C   0  0  0  0  0  2  0  0  0  0  0  0
  191.4300  179.3780  143.5870 O   0  0  0  0  0  0  0  0  0  0  0  0
  190.3310  178.7750  144.2300 C   0  0  1  0  0  3  0  0  0  0  0  0
  188.2610  176.9600  144.0340 S   0  0  0  0  0  0  0  0  0  0  0  0
  187.9380  175.7320  143.2240 O   0  0  0  0  0  0  0  0  0  0  0  0
  188.7120  176.5420  145.4060 O   0  0  0  0  0  0  0  0  0  0  0  0
  186.7920  177.9610  144.1970 C   0  0  2  0  0  3  0  0  0  0  0  0
  186.1170  178.5610  146.2190 C   0  0  0  0  0  1  0  0  0  0  0  0
  186.0350  177.5260  145.2870 O   0  0  0  0  0  0  0  0  0  0  0  0
  185.9700  177.8840  142.9120 C   0  0  0  0  0  2  0  0  0  0  0  0
  184.5370  178.3460  143.1470 C   0  0  0  0  0  2  0  0  0  0  0  0
  184.5090  179.7300  143.3170 O   0  0  0  0  0  1  0  0  0  0  0  0
  1 27  1  0  0  0  0
  3 11  1  0  0  0  0
  3  9  1  0  0  0  0
  4  1  2  0  0  0  0
  5  6  2  0  0  0  0
  6  9  1  0  0  0  0
  6 23  1  0  0  0  0
  7  5  1  0  0  0  0
  8  4  1  0  0  0  0
  9  8  1  1  0  0  0
 10  3  1  0  0  0  0
 11 14  1  0  0  0  0
 11 12  1  0  0  0  0
 12  2  1  6  0  0  0
 12  4  1  0  0  0  0
 13 10  2  0  0  0  0
 13  5  1  0  0  0  0
 15 18  2  0  0  0  0
 15 16  1  0  0  0  0
 16 20  2  0  0  0  0
 18 19  1  0  0  0  0
 19 14  1  0  0  0  0
 19 17  2  0  0  0  0
 20 17  1  0  0  0  0
 21 16  1  0  0  0  0
 21 22  1  0  0  0  0
 24 23  1  0  0  0  0
 25 26  1  0  0  0  0
 25 24  1  0  0  0  0
 27 28  1  0  0  0  0
 28 29  1  6  0  0  0
 28 30  1  0  0  0  0
 31 30  1  6  0  0  0
 31 35  1  0  0  0  0
 33 34  1  0  0  0  0
 33 32  1  0  0  0  0
 34 31  1  6  0  0  0
 34 32  1  0  0  0  0
 35 38  1  0  0  0  0
 35 37  2  0  0  0  0
 36 35  2  0  0  0  0
 38 41  1  6  0  0  0
 38 40  1  0  0  0  0
 40 39  1  0  0  0  0
 41 42  1  0  0  0  0
 42 43  1  0  0  0  0
M  END
>  <MODEL>
9

>  <REMARK>
 VINA RESULT:      -5.7      3.268      8.073
  Name = 
  16 active torsions:
  status: ('A' for Active; 'I' for Inactive)
    1  A    between atoms: C_1  and  N_34
    2  A    between atoms: C_1  and  C_35
    3  A    between atoms: N_2  and  C_6
    4  A    between atoms: N_3  and  C_4
    5  A    between atoms: N_3  and  C_12
    6  A    between atoms: C_4  and  S_14
    7  A    between atoms: C_4  and  C_42
    8  A    between atoms: C_5  and  C_18
    9  A    between atoms: C_6  and  C_12
   10  A    between atoms: C_11  and  S_14
   11  A    between atoms: C_11  and  O_36
   12  A    between atoms: C_11  and  C_40
   13  A    between atoms: C_18  and  C_24
   14  A    between atoms: C_19  and  O_25
   15  A    between atoms: C_21  and  C_24
   16  A    between atoms: C_26  and  C_40
                            x       y       z     vdW  Elec       q    Type
                         _______ _______ _______ _____ _____    ______ ____

>  <TORSDO>
F 16

$$$$
