=
 OpenBabel10262423383D

 34 39  0  0  1  0  0  0  0  0999 V2000
  182.4690  178.8350  139.1270 C   0  0  1  0  0  3  0  0  0  0  0  0
  182.1570  176.3760  138.9950 C   0  0  0  0  0  0  0  0  0  0  0  0
  185.0650  175.2070  137.0640 C   0  0  0  0  0  0  0  0  0  0  0  0
  181.1940  179.5790  135.6690 C   0  0  2  0  0  3  0  0  0  0  0  0
  180.5680  177.5730  140.3940 C   0  0  1  0  0  3  0  0  0  0  0  0
  179.4830  178.4710  137.3330 C   0  0  0  0  0  2  0  0  0  0  0  0
  181.6060  175.9040  134.7840 C   0  0  1  0  0  3  0  0  0  0  0  0
  181.0190  180.7770  138.7070 C   0  0  2  0  0  3  0  0  0  0  0  0
  182.3630  180.1450  138.3600 C   0  0  0  0  0  2  0  0  0  0  0  0
  180.3780  179.9360  139.7940 C   0  0  2  0  0  3  0  0  0  0  0  0
  180.2640  175.5090  135.3770 C   0  0  0  0  0  0  0  0  0  0  0  0
  179.6280  179.9610  142.2580 C   0  0  0  0  0  2  0  0  0  0  0  0
  185.3490  173.7890  137.4250 C   0  0  0  0  0  1  0  0  0  0  0  0
  182.0510  177.2810  135.2190 C   0  0  2  0  0  3  0  0  0  0  0  0
  179.5610  174.7160  134.7710 O   0  0  0  0  0  0  0  0  0  0  0  0
  181.1780  178.2640  134.9780 C   0  0  0  0  0  2  0  0  0  0  0  0
  179.8900  180.7720  140.9780 C   0  0  0  0  0  2  0  0  0  0  0  0
  180.0840  180.9410  137.4890 C   0  0  0  0  0  2  0  0  0  0  0  0
  179.9510  177.5020  141.7870 C   0  0  0  0  0  2  0  0  0  0  0  0
  181.3700  178.8730  140.2050 C   0  0  2  0  0  3  0  0  0  0  0  0
  182.6390  174.8110  134.9880 C   0  0  0  0  0  1  0  0  0  0  0  0
  178.9310  178.6220  142.0080 C   0  0  0  0  0  2  0  0  0  0  0  0
  183.0510  175.2730  138.5900 C   0  0  0  0  0  2  0  0  0  0  0  0
  185.8560  175.8060  136.2880 O   0  0  0  0  0  0  0  0  0  0  0  0
  183.9050  175.8810  137.5840 N   0  0  0  0  0  0  0  0  0  0  0  0
  179.7670  176.0750  136.6830 C   0  0  0  0  0  2  0  0  0  0  0  0
  183.6090  177.2990  137.3460 C   0  0  2  0  0  0  0  0  0  0  0  0
  178.9310  177.3370  136.4670 C   0  0  0  0  0  2  0  0  0  0  0  0
  183.4020  177.5810  135.8440 C   0  0  0  0  0  2  0  0  0  0  0  0
  179.9330  179.7280  136.5510 C   0  0  1  0  0  3  0  0  0  0  0  0
  181.2310  180.6000  134.7210 O   0  0  0  0  0  1  0  0  0  0  0  0
  181.3680  176.3460  140.0730 C   0  0  0  0  0  3  0  0  0  0  0  0
  184.6980  178.0620  137.7810 O   0  0  0  0  0  1  0  0  0  0  0  0
  182.3540  177.6150  138.1870 C   0  0  2  0  0  3  0  0  0  0  0  0
  1  9  1  6  0  0  0
  1 20  1  0  0  0  0
  2 32  2  0  0  0  0
  3 13  1  0  0  0  0
  3 25  1  0  0  0  0
  4 31  1  6  0  0  0
  4 30  1  0  0  0  0
  5 32  1  1  0  0  0
  5 19  1  0  0  0  0
  7 21  1  1  0  0  0
  7 14  1  0  0  0  0
  7 11  1  0  0  0  0
  8 18  1  6  0  0  0
  8 10  1  0  0  0  0
  9  8  1  0  0  0  0
 10 20  1  0  0  0  0
 10 17  1  1  0  0  0
 11 26  1  0  0  0  0
 14 16  1  6  0  0  0
 14 29  1  0  0  0  0
 15 11  2  0  0  0  0
 16  4  1  0  0  0  0
 17 12  1  0  0  0  0
 19 22  1  0  0  0  0
 20  5  1  0  0  0  0
 22 12  1  0  0  0  0
 23  2  1  0  0  0  0
 24  3  2  0  0  0  0
 25 23  1  0  0  0  0
 27 25  1  0  0  0  0
 27 33  1  0  0  0  0
 27 34  1  0  0  0  0
 28 26  1  0  0  0  0
 28  6  1  0  0  0  0
 29 27  1  0  0  0  0
 30  6  1  0  0  0  0
 30 18  1  0  0  0  0
 34  2  1  0  0  0  0
 34  1  1  0  0  0  0
M  END
>  <MODEL>
1

>  <REMARK>
 VINA RESULT:      -5.1      0.000      0.000
  Name = 
  0 active torsions:
  status: ('A' for Active; 'I' for Inactive)
                            x       y       z     vdW  Elec       q    Type
                         _______ _______ _______ _____ _____    ______ ____

>  <TORSDO>
F 0

$$$$
=
 OpenBabel10262423383D

 34 39  0  0  1  0  0  0  0  0999 V2000
  179.3680  178.4610  137.4030 C   0  0  1  0  0  3  0  0  0  0  0  0
  180.9390  177.5070  135.7350 C   0  0  0  0  0  0  0  0  0  0  0  0
  180.5410  173.8660  136.1120 C   0  0  0  0  0  0  0  0  0  0  0  0
  181.6010  177.9480  140.3840 C   0  0  2  0  0  3  0  0  0  0  0  0
  180.6900  179.9250  135.6940 C   0  0  1  0  0  3  0  0  0  0  0  0
  182.5110  179.5480  138.5040 C   0  0  0  0  0  2  0  0  0  0  0  0
  183.6970  175.5280  138.3320 C   0  0  1  0  0  3  0  0  0  0  0  0
  179.5540  180.1810  139.1520 C   0  0  2  0  0  3  0  0  0  0  0  0
  179.1420  178.7370  138.8830 C   0  0  0  0  0  2  0  0  0  0  0  0
  179.8840  180.8260  137.8200 C   0  0  2  0  0  3  0  0  0  0  0  0
  184.5210  176.6310  137.6920 C   0  0  0  0  0  0  0  0  0  0  0  0
  179.1360  182.6500  136.1630 C   0  0  0  0  0  2  0  0  0  0  0  0
  180.9090  173.2030  134.8290 C   0  0  0  0  0  1  0  0  0  0  0  0
  182.4480  176.0520  139.0060 C   0  0  2  0  0  3  0  0  0  0  0  0
  185.7250  176.4720  137.5680 O   0  0  0  0  0  0  0  0  0  0  0  0
  182.6510  177.0090  139.9160 C   0  0  0  0  0  2  0  0  0  0  0  0
  179.1790  182.1690  137.6230 C   0  0  0  0  0  2  0  0  0  0  0  0
  180.7240  180.3100  140.1520 C   0  0  0  0  0  2  0  0  0  0  0  0
  180.4440  181.0590  134.7040 C   0  0  0  0  0  2  0  0  0  0  0  0
  179.5540  179.8330  136.7290 C   0  0  2  0  0  3  0  0  0  0  0  0
  183.4600  174.3860  137.3620 C   0  0  0  0  0  1  0  0  0  0  0  0
  180.4420  182.4230  135.3990 C   0  0  0  0  0  2  0  0  0  0  0  0
  181.1120  176.1480  135.1850 C   0  0  0  0  0  2  0  0  0  0  0  0
  180.0790  173.1630  137.0480 O   0  0  0  0  0  0  0  0  0  0  0  0
  180.7180  175.2840  136.2850 N   0  0  0  0  0  0  0  0  0  0  0  0
  183.9030  177.9210  137.2160 C   0  0  0  0  0  2  0  0  0  0  0  0
  180.2970  176.0190  137.4830 C   0  0  2  0  0  0  0  0  0  0  0  0
  183.9220  178.9910  138.3090 C   0  0  0  0  0  2  0  0  0  0  0  0
  181.0510  175.5250  138.7340 C   0  0  0  0  0  2  0  0  0  0  0  0
  181.9400  179.3870  139.9330 C   0  0  1  0  0  3  0  0  0  0  0  0
  181.5200  177.8960  141.7760 O   0  0  0  0  0  1  0  0  0  0  0  0
  180.9490  178.6210  135.0000 C   0  0  0  0  0  3  0  0  0  0  0  0
  178.9310  175.7960  137.6870 O   0  0  0  0  0  1  0  0  0  0  0  0
  180.5630  177.5090  137.1800 C   0  0  2  0  0  3  0  0  0  0  0  0
  1  9  1  1  0  0  0
  2 34  1  0  0  0  0
  3 25  1  0  0  0  0
  3 24  2  0  0  0  0
  4 31  1  1  0  0  0
  5 19  1  6  0  0  0
  5 20  1  0  0  0  0
  6 30  1  0  0  0  0
  7 21  1  6  0  0  0
  7 14  1  0  0  0  0
  8  9  1  6  0  0  0
  8 18  1  0  0  0  0
 10 17  1  6  0  0  0
 10  8  1  0  0  0  0
 11  7  1  0  0  0  0
 12 17  1  0  0  0  0
 13  3  1  0  0  0  0
 14 29  1  1  0  0  0
 14 16  1  0  0  0  0
 15 11  2  0  0  0  0
 16  4  1  0  0  0  0
 19 22  1  0  0  0  0
 20  1  1  0  0  0  0
 20 10  1  0  0  0  0
 22 12  1  0  0  0  0
 23  2  1  0  0  0  0
 23 25  1  0  0  0  0
 25 27  1  0  0  0  0
 26 11  1  0  0  0  0
 26 28  1  0  0  0  0
 27 33  1  0  0  0  0
 27 29  1  0  0  0  0
 28  6  1  0  0  0  0
 30 18  1  0  0  0  0
 30  4  1  0  0  0  0
 32  5  1  0  0  0  0
 32  2  2  0  0  0  0
 34  1  1  0  0  0  0
 34 27  1  0  0  0  0
M  END
>  <MODEL>
2

>  <REMARK>
 VINA RESULT:      -4.8      1.857      4.870
  Name = 
  0 active torsions:
  status: ('A' for Active; 'I' for Inactive)
                            x       y       z     vdW  Elec       q    Type
                         _______ _______ _______ _____ _____    ______ ____

>  <TORSDO>
F 0

$$$$
=
 OpenBabel10262423383D

 34 39  0  0  1  0  0  0  0  0999 V2000
  182.8840  176.0120  138.2860 C   0  0  1  0  0  3  0  0  0  0  0  0
  182.8900  178.2220  139.4170 C   0  0  0  0  0  0  0  0  0  0  0  0
  180.2780  177.9150  141.9950 C   0  0  0  0  0  0  0  0  0  0  0  0
  179.8750  176.6800  136.1340 C   0  0  2  0  0  3  0  0  0  0  0  0
  184.6350  177.8750  137.7600 C   0  0  1  0  0  3  0  0  0  0  0  0
  181.9560  178.2460  135.7520 C   0  0  0  0  0  2  0  0  0  0  0  0
  178.9860  179.6180  138.3780 C   0  0  1  0  0  3  0  0  0  0  0  0
  182.8250  175.2840  135.9380 C   0  0  2  0  0  3  0  0  0  0  0  0
  182.1470  175.1250  137.2940 C   0  0  0  0  0  2  0  0  0  0  0  0
  184.0600  176.1420  136.1340 C   0  0  2  0  0  3  0  0  0  0  0  0
  179.9210  180.5760  137.6610 C   0  0  0  0  0  0  0  0  0  0  0  0
  186.6340  176.1180  136.0350 C   0  0  0  0  0  2  0  0  0  0  0  0
  180.5790  178.8620  143.1050 C   0  0  0  0  0  1  0  0  0  0  0  0
  179.2600  178.1710  138.0340 C   0  0  2  0  0  3  0  0  0  0  0  0
  179.5410  181.7120  137.4310 O   0  0  0  0  0  0  0  0  0  0  0  0
  179.2400  177.8830  136.7290 C   0  0  0  0  0  2  0  0  0  0  0  0
  185.3150  175.5240  135.5140 C   0  0  0  0  0  2  0  0  0  0  0  0
  181.8970  175.8640  134.8490 C   0  0  0  0  0  2  0  0  0  0  0  0
  186.1440  178.0370  137.6000 C   0  0  0  0  0  2  0  0  0  0  0  0
  184.2150  176.4020  137.6150 C   0  0  2  0  0  3  0  0  0  0  0  0
  178.9300  179.9140  139.8650 C   0  0  0  0  0  1  0  0  0  0  0  0
  186.6060  177.6390  136.1950 C   0  0  0  0  0  2  0  0  0  0  0  0
  182.2830  178.7060  140.6730 C   0  0  0  0  0  2  0  0  0  0  0  0
  179.3090  177.1210  142.1190 O   0  0  0  0  0  0  0  0  0  0  0  0
  181.0750  177.9090  140.7960 N   0  0  0  0  0  0  0  0  0  0  0  0
  181.3020  180.1640  137.2130 C   0  0  0  0  0  2  0  0  0  0  0  0
  180.8950  176.9480  139.7010 C   0  0  2  0  0  0  0  0  0  0  0  0
  181.2900  179.6220  135.7830 C   0  0  0  0  0  2  0  0  0  0  0  0
  179.4970  177.0820  139.0650 C   0  0  0  0  0  2  0  0  0  0  0  0
  181.0570  177.1000  135.2290 C   0  0  1  0  0  3  0  0  0  0  0  0
  178.9310  175.9810  135.3820 O   0  0  0  0  0  1  0  0  0  0  0  0
  184.1380  178.4980  139.0310 C   0  0  0  0  0  3  0  0  0  0  0  0
  181.0110  175.6540  140.2190 O   0  0  0  0  0  1  0  0  0  0  0  0
  182.0330  177.2340  138.6980 C   0  0  2  0  0  3  0  0  0  0  0  0
  1  9  1  6  0  0  0
  1 34  1  0  0  0  0
  2 23  1  0  0  0  0
  3 24  2  0  0  0  0
  3 13  1  0  0  0  0
  4 31  1  6  0  0  0
  4 16  1  0  0  0  0
  5 19  1  1  0  0  0
  5 32  1  0  0  0  0
  6 28  1  0  0  0  0
  7 21  1  1  0  0  0
  8 18  1  6  0  0  0
  8 10  1  0  0  0  0
  8  9  1  0  0  0  0
 10 17  1  1  0  0  0
 10 20  1  0  0  0  0
 11  7  1  0  0  0  0
 12 22  1  0  0  0  0
 14 16  1  1  0  0  0
 14  7  1  0  0  0  0
 14 29  1  0  0  0  0
 15 11  2  0  0  0  0
 17 12  1  0  0  0  0
 18 30  1  0  0  0  0
 20  5  1  0  0  0  0
 20  1  1  0  0  0  0
 22 19  1  0  0  0  0
 23 25  1  0  0  0  0
 25  3  1  0  0  0  0
 26 11  1  0  0  0  0
 27 33  1  0  0  0  0
 27 25  1  0  0  0  0
 28 26  1  0  0  0  0
 29 27  1  0  0  0  0
 30  6  1  0  0  0  0
 30  4  1  0  0  0  0
 32  2  2  0  0  0  0
 34  2  1  0  0  0  0
 34 27  1  0  0  0  0
M  END
>  <MODEL>
3

>  <REMARK>
 VINA RESULT:      -4.3      2.213      5.859
  Name = 
  0 active torsions:
  status: ('A' for Active; 'I' for Inactive)
                            x       y       z     vdW  Elec       q    Type
                         _______ _______ _______ _____ _____    ______ ____

>  <TORSDO>
F 0

$$$$
=
 OpenBabel10262423383D

 34 39  0  0  1  0  0  0  0  0999 V2000
  182.1330  180.0600  140.2600 C   0  0  1  0  0  3  0  0  0  0  0  0
  183.5980  178.1460  140.8510 C   0  0  0  0  0  0  0  0  0  0  0  0
  186.5110  178.5290  138.6310 C   0  0  0  0  0  0  0  0  0  0  0  0
  180.6920  178.5080  137.1540 C   0  0  2  0  0  3  0  0  0  0  0  0
  181.6230  178.4370  142.2390 C   0  0  1  0  0  3  0  0  0  0  0  0
  180.2140  177.2530  139.4170 C   0  0  0  0  0  2  0  0  0  0  0  0
  183.5180  175.9640  137.1770 C   0  0  1  0  0  3  0  0  0  0  0  0
  179.7440  180.2940  139.7230 C   0  0  2  0  0  3  0  0  0  0  0  0
  181.1530  180.6050  139.2300 C   0  0  0  0  0  2  0  0  0  0  0  0
  179.8590  179.7020  141.1140 C   0  0  2  0  0  3  0  0  0  0  0  0
  182.8170  175.0470  138.1640 C   0  0  0  0  0  0  0  0  0  0  0  0
  179.3010  180.1200  143.5940 C   0  0  0  0  0  2  0  0  0  0  0  0
  187.6930  177.8800  139.2650 C   0  0  0  0  0  1  0  0  0  0  0  0
  182.8940  177.3400  137.1170 C   0  0  2  0  0  3  0  0  0  0  0  0
  182.8520  173.8420  137.9780 O   0  0  0  0  0  0  0  0  0  0  0  0
  181.5840  177.3590  136.8530 C   0  0  0  0  0  2  0  0  0  0  0  0
  178.9310  180.3790  142.1230 C   0  0  0  0  0  2  0  0  0  0  0  0
  178.9510  179.3700  138.7740 C   0  0  0  0  0  2  0  0  0  0  0  0
  181.2260  178.4920  143.7110 C   0  0  0  0  0  2  0  0  0  0  0  0
  181.3110  179.7660  141.5280 C   0  0  2  0  0  3  0  0  0  0  0  0
  185.0200  175.9600  137.3950 C   0  0  0  0  0  1  0  0  0  0  0  0
  179.7150  178.6750  143.8800 C   0  0  0  0  0  2  0  0  0  0  0  0
  185.0050  177.8270  140.5370 C   0  0  0  0  0  2  0  0  0  0  0  0
  186.6710  179.1660  137.5570 O   0  0  0  0  0  0  0  0  0  0  0  0
  185.2050  178.4280  139.2290 N   0  0  0  0  0  0  0  0  0  0  0  0
  182.0680  175.5790  139.3600 C   0  0  0  0  0  2  0  0  0  0  0  0
  184.0150  179.1130  138.7130 C   0  0  2  0  0  0  0  0  0  0  0  0
  180.5930  175.8210  139.0380 C   0  0  0  0  0  2  0  0  0  0  0  0
  183.6690  178.6340  137.2890 C   0  0  0  0  0  2  0  0  0  0  0  0
  179.6750  178.1140  138.2500 C   0  0  1  0  0  3  0  0  0  0  0  0
  180.0150  178.8840  135.9940 O   0  0  0  0  0  1  0  0  0  0  0  0
  183.0480  178.0050  142.0590 C   0  0  0  0  0  3  0  0  0  0  0  0
  184.2810  180.4860  138.6530 O   0  0  0  0  0  1  0  0  0  0  0  0
  182.8880  178.8230  139.7260 C   0  0  2  0  0  3  0  0  0  0  0  0
  1  9  1  6  0  0  0
  1 20  1  0  0  0  0
  2 32  2  0  0  0  0
  3 25  1  0  0  0  0
  3 13  1  0  0  0  0
  4 31  1  6  0  0  0
  4 30  1  0  0  0  0
  5 32  1  1  0  0  0
  5 19  1  0  0  0  0
  7 21  1  1  0  0  0
  7 11  1  0  0  0  0
  8 18  1  6  0  0  0
  8 10  1  0  0  0  0
  9  8  1  0  0  0  0
 10 20  1  0  0  0  0
 10 17  1  1  0  0  0
 11 26  1  0  0  0  0
 12 22  1  0  0  0  0
 14 16  1  6  0  0  0
 14  7  1  0  0  0  0
 14 29  1  0  0  0  0
 15 11  2  0  0  0  0
 16  4  1  0  0  0  0
 17 12  1  0  0  0  0
 19 22  1  0  0  0  0
 20  5  1  0  0  0  0
 23  2  1  0  0  0  0
 24  3  2  0  0  0  0
 25 23  1  0  0  0  0
 27 25  1  0  0  0  0
 27 34  1  0  0  0  0
 28 26  1  0  0  0  0
 28  6  1  0  0  0  0
 29 27  1  0  0  0  0
 30 18  1  0  0  0  0
 30  6  1  0  0  0  0
 33 27  1  0  0  0  0
 34  1  1  0  0  0  0
 34  2  1  0  0  0  0
M  END
>  <MODEL>
4

>  <REMARK>
 VINA RESULT:      -3.8      2.030      2.813
  Name = 
  0 active torsions:
  status: ('A' for Active; 'I' for Inactive)
                            x       y       z     vdW  Elec       q    Type
                         _______ _______ _______ _____ _____    ______ ____

>  <TORSDO>
F 0

$$$$
=
 OpenBabel10262423383D

 34 39  0  0  1  0  0  0  0  0999 V2000
  181.5280  175.8160  135.4340 C   0  0  1  0  0  3  0  0  0  0  0  0
  179.9170  176.9730  136.9270 C   0  0  0  0  0  0  0  0  0  0  0  0
  180.2070  180.5190  135.9780 C   0  0  0  0  0  0  0  0  0  0  0  0
  184.6000  176.6890  137.4180 C   0  0  2  0  0  3  0  0  0  0  0  0
  179.9100  174.5440  137.0400 C   0  0  1  0  0  3  0  0  0  0  0  0
  182.7940  175.2200  138.6450 C   0  0  0  0  0  2  0  0  0  0  0  0
  182.6030  179.3690  139.2310 C   0  0  1  0  0  3  0  0  0  0  0  0
  183.3150  174.1630  135.7860 C   0  0  2  0  0  3  0  0  0  0  0  0
  183.0000  175.5260  135.1790 C   0  0  0  0  0  2  0  0  0  0  0  0
  182.0120  173.5590  136.2720 C   0  0  2  0  0  3  0  0  0  0  0  0
  182.0230  178.3930  140.2400 C   0  0  0  0  0  0  0  0  0  0  0  0
  180.3560  171.6250  135.8830 C   0  0  0  0  0  2  0  0  0  0  0  0
  178.9310  181.2150  136.3060 C   0  0  0  0  0  1  0  0  0  0  0  0
  183.2270  178.6740  138.0430 C   0  0  2  0  0  3  0  0  0  0  0  0
  181.9530  178.7270  141.4120 O   0  0  0  0  0  0  0  0  0  0  0  0
  184.1640  177.7680  138.3400 C   0  0  0  0  0  2  0  0  0  0  0  0
  181.8070  172.1240  135.7840 C   0  0  0  0  0  2  0  0  0  0  0  0
  184.3710  174.2200  136.9120 C   0  0  0  0  0  2  0  0  0  0  0  0
  178.9310  173.3760  137.0120 C   0  0  0  0  0  2  0  0  0  0  0  0
  180.8890  174.4790  135.8530 C   0  0  2  0  0  3  0  0  0  0  0  0
  181.6020  180.4520  138.8760 C   0  0  0  0  0  1  0  0  0  0  0  0
  179.6500  172.0340  137.1780 C   0  0  0  0  0  2  0  0  0  0  0  0
  179.3500  178.3370  136.9230 C   0  0  0  0  0  2  0  0  0  0  0  0
  181.1080  181.1560  135.3710 O   0  0  0  0  0  0  0  0  0  0  0  0
  180.4140  179.1450  136.3530 N   0  0  0  0  0  0  0  0  0  0  0  0
  181.5430  177.0200  139.8430 C   0  0  0  0  0  2  0  0  0  0  0  0
  181.6050  178.3690  135.9870 C   0  0  2  0  0  0  0  0  0  0  0  0
  182.6550  175.9780  139.9660 C   0  0  0  0  0  2  0  0  0  0  0  0
  182.8810  178.9840  136.5980 C   0  0  0  0  0  2  0  0  0  0  0  0
  184.1920  175.3100  137.9870 C   0  0  1  0  0  3  0  0  0  0  0  0
  185.9850  176.7440  137.2620 O   0  0  0  0  0  1  0  0  0  0  0  0
  179.2040  175.8640  137.1370 C   0  0  0  0  0  3  0  0  0  0  0  0
  181.7410  178.3900  134.5940 O   0  0  0  0  0  1  0  0  0  0  0  0
  181.3430  176.9320  136.4850 C   0  0  2  0  0  3  0  0  0  0  0  0
  1  9  1  1  0  0  0
  1 20  1  0  0  0  0
  1 34  1  0  0  0  0
  2 32  2  0  0  0  0
  3 13  1  0  0  0  0
  3 25  1  0  0  0  0
  4 31  1  1  0  0  0
  4 30  1  0  0  0  0
  4 16  1  0  0  0  0
  5 19  1  6  0  0  0
  5 32  1  0  0  0  0
  6 28  1  0  0  0  0
  7 21  1  6  0  0  0
  7 11  1  0  0  0  0
  8  9  1  1  0  0  0
  8 10  1  0  0  0  0
  8 18  1  0  0  0  0
 10 17  1  6  0  0  0
 11 15  2  0  0  0  0
 12 22  1  0  0  0  0
 14 29  1  6  0  0  0
 14 16  1  0  0  0  0
 14  7  1  0  0  0  0
 17 12  1  0  0  0  0
 18 30  1  0  0  0  0
 19 22  1  0  0  0  0
 20 10  1  0  0  0  0
 20  5  1  0  0  0  0
 23  2  1  0  0  0  0
 24  3  2  0  0  0  0
 25 23  1  0  0  0  0
 26 28  1  0  0  0  0
 26 11  1  0  0  0  0
 27 25  1  0  0  0  0
 27 34  1  0  0  0  0
 27 29  1  0  0  0  0
 30  6  1  0  0  0  0
 33 27  1  0  0  0  0
 34  2  1  0  0  0  0
M  END
>  <MODEL>
5

>  <REMARK>
 VINA RESULT:      -3.4      1.987      6.209
  Name = 
  0 active torsions:
  status: ('A' for Active; 'I' for Inactive)
                            x       y       z     vdW  Elec       q    Type
                         _______ _______ _______ _____ _____    ______ ____

>  <TORSDO>
F 0

$$$$
=
 OpenBabel10262423383D

 34 39  0  0  1  0  0  0  0  0999 V2000
  179.2880  176.5350  137.9980 C   0  0  1  0  0  3  0  0  0  0  0  0
  181.0200  176.2380  139.7510 C   0  0  0  0  0  0  0  0  0  0  0  0
  180.7450  179.2810  141.8050 C   0  0  0  0  0  0  0  0  0  0  0  0
  181.3040  178.8640  135.8420 C   0  0  2  0  0  3  0  0  0  0  0  0
  180.6760  174.3410  138.2690 C   0  0  1  0  0  3  0  0  0  0  0  0
  182.2900  176.4490  136.1940 C   0  0  0  0  0  2  0  0  0  0  0  0
  183.6490  179.4630  138.7750 C   0  0  1  0  0  3  0  0  0  0  0  0
  179.2690  176.3220  135.5470 C   0  0  2  0  0  3  0  0  0  0  0  0
  178.9380  177.2580  136.7050 C   0  0  0  0  0  2  0  0  0  0  0  0
  179.6730  174.9830  136.1330 C   0  0  2  0  0  3  0  0  0  0  0  0
  184.4750  178.2200  138.4970 C   0  0  0  0  0  0  0  0  0  0  0  0
  178.9800  172.5090  136.3130 C   0  0  0  0  0  2  0  0  0  0  0  0
  181.2360  178.9840  143.1800 C   0  0  0  0  0  1  0  0  0  0  0  0
  182.3320  179.4660  138.0320 C   0  0  2  0  0  3  0  0  0  0  0  0
  185.6900  178.2840  138.5900 O   0  0  0  0  0  0  0  0  0  0  0  0
  182.4250  179.3090  136.7080 C   0  0  0  0  0  2  0  0  0  0  0  0
  178.9310  173.8090  135.4930 C   0  0  0  0  0  2  0  0  0  0  0  0
  180.3520  176.8770  134.5970 C   0  0  0  0  0  2  0  0  0  0  0  0
  180.4610  172.8330  138.3320 C   0  0  0  0  0  2  0  0  0  0  0  0
  179.4690  175.0500  137.6300 C   0  0  2  0  0  3  0  0  0  0  0  0
  183.5340  179.7240  140.2660 C   0  0  0  0  0  1  0  0  0  0  0  0
  180.3490  172.2210  136.9320 C   0  0  0  0  0  2  0  0  0  0  0  0
  181.2900  176.9410  141.0210 C   0  0  0  0  0  2  0  0  0  0  0  0
  180.2410  180.4110  141.5710 O   0  0  0  0  0  0  0  0  0  0  0  0
  180.8490  178.3000  140.7570 N   0  0  0  0  0  0  0  0  0  0  0  0
  183.8420  176.9100  138.0970 C   0  0  0  0  0  2  0  0  0  0  0  0
  180.3070  178.4860  139.4060 C   0  0  2  0  0  0  0  0  0  0  0  0
  183.7330  176.7800  136.5770 C   0  0  0  0  0  2  0  0  0  0  0  0
  180.9830  179.6760  138.6940 C   0  0  0  0  0  2  0  0  0  0  0  0
  181.6170  177.4710  135.2470 C   0  0  1  0  0  3  0  0  0  0  0  0
  181.1190  179.7860  134.8130 O   0  0  0  0  0  1  0  0  0  0  0  0
  181.0410  174.9110  139.6070 C   0  0  0  0  0  3  0  0  0  0  0  0
  178.9400  178.7650  139.5080 O   0  0  0  0  0  1  0  0  0  0  0  0
  180.5350  177.1480  138.6720 C   0  0  2  0  0  3  0  0  0  0  0  0
  1  9  1  6  0  0  0
  1 34  1  0  0  0  0
  2 23  1  0  0  0  0
  3 13  1  0  0  0  0
  4 31  1  6  0  0  0
  4 16  1  0  0  0  0
  5 19  1  1  0  0  0
  5 32  1  0  0  0  0
  6 28  1  0  0  0  0
  7 21  1  1  0  0  0
  8 18  1  1  0  0  0
  8 10  1  0  0  0  0
  8  9  1  0  0  0  0
 10 17  1  6  0  0  0
 10 20  1  0  0  0  0
 11 15  2  0  0  0  0
 11  7  1  0  0  0  0
 12 22  1  0  0  0  0
 14 16  1  6  0  0  0
 14 29  1  0  0  0  0
 14  7  1  0  0  0  0
 17 12  1  0  0  0  0
 18 30  1  0  0  0  0
 20  1  1  0  0  0  0
 20  5  1  0  0  0  0
 22 19  1  0  0  0  0
 24  3  2  0  0  0  0
 25 23  1  0  0  0  0
 25  3  1  0  0  0  0
 26 11  1  0  0  0  0
 27 33  1  0  0  0  0
 27 25  1  0  0  0  0
 28 26  1  0  0  0  0
 29 27  1  0  0  0  0
 30  4  1  0  0  0  0
 30  6  1  0  0  0  0
 32  2  2  0  0  0  0
 34 27  1  0  0  0  0
 34  2  1  0  0  0  0
M  END
>  <MODEL>
6

>  <REMARK>
 VINA RESULT:      -3.1      2.357      5.562
  Name = 
  0 active torsions:
  status: ('A' for Active; 'I' for Inactive)
                            x       y       z     vdW  Elec       q    Type
                         _______ _______ _______ _____ _____    ______ ____

>  <TORSDO>
F 0

$$$$
=
 OpenBabel10262423383D

 34 39  0  0  1  0  0  0  0  0999 V2000
  184.2830  179.5780  138.5380 C   0  0  1  0  0  3  0  0  0  0  0  0
  183.1480  178.2480  136.7760 C   0  0  0  0  0  0  0  0  0  0  0  0
  180.1260  180.1990  135.9890 C   0  0  0  0  0  0  0  0  0  0  0  0
  182.1010  178.4190  141.3720 C   0  0  2  0  0  3  0  0  0  0  0  0
  185.3400  177.4500  137.4600 C   0  0  1  0  0  3  0  0  0  0  0  0
  183.5060  176.5630  140.1420 C   0  0  0  0  0  2  0  0  0  0  0  0
  179.5650  177.1590  138.8340 C   0  0  1  0  0  3  0  0  0  0  0  0
  185.2470  179.0480  140.7380 C   0  0  2  0  0  3  0  0  0  0  0  0
  184.2660  179.9620  140.0100 C   0  0  0  0  0  2  0  0  0  0  0  0
  185.9680  178.2170  139.6950 C   0  0  2  0  0  3  0  0  0  0  0  0
  180.2840  175.8380  138.6240 C   0  0  0  0  0  0  0  0  0  0  0  0
  188.2710  177.7820  138.6260 C   0  0  0  0  0  2  0  0  0  0  0  0
  179.6990  179.8910  134.5950 C   0  0  0  0  0  1  0  0  0  0  0  0
  180.4230  178.1820  139.5440 C   0  0  2  0  0  3  0  0  0  0  0  0
  179.6260  174.8130  138.5450 O   0  0  0  0  0  0  0  0  0  0  0  0
  180.9290  177.7860  140.7160 C   0  0  0  0  0  2  0  0  0  0  0  0
  187.4880  178.2400  139.8680 C   0  0  0  0  0  2  0  0  0  0  0  0
  184.5800  178.1610  141.8110 C   0  0  0  0  0  2  0  0  0  0  0  0
  186.6620  176.9940  136.8490 C   0  0  0  0  0  2  0  0  0  0  0  0
  185.5330  178.7040  138.3310 C   0  0  2  0  0  3  0  0  0  0  0  0
  178.9310  177.6500  137.5460 C   0  0  0  0  0  1  0  0  0  0  0  0
  187.6620  176.5650  137.9260 C   0  0  0  0  0  2  0  0  0  0  0  0
  182.0390  178.5520  135.8500 C   0  0  0  0  0  2  0  0  0  0  0  0
  179.5110  181.0920  136.6300 O   0  0  0  0  0  0  0  0  0  0  0  0
  181.2160  179.4850  136.6010 N   0  0  0  0  0  0  0  0  0  0  0  0
  181.7860  175.7500  138.5230 C   0  0  0  0  0  2  0  0  0  0  0  0
  181.7490  179.7930  137.9330 C   0  0  2  0  0  0  0  0  0  0  0  0
  182.4290  175.5070  139.8890 C   0  0  0  0  0  2  0  0  0  0  0  0
  180.6790  179.5850  139.0230 C   0  0  0  0  0  2  0  0  0  0  0  0
  183.2860  177.4250  141.4080 C   0  0  1  0  0  3  0  0  0  0  0  0
  181.7590  178.7930  142.6710 O   0  0  0  0  0  1  0  0  0  0  0  0
  184.2740  177.6250  136.4200 C   0  0  0  0  0  3  0  0  0  0  0  0
  182.1360  181.1370  137.9590 O   0  0  0  0  0  1  0  0  0  0  0  0
  182.9740  178.8730  138.1200 C   0  0  2  0  0  3  0  0  0  0  0  0
  1  9  1  1  0  0  0
  2 34  1  0  0  0  0
  3 25  1  0  0  0  0
  3 24  2  0  0  0  0
  4 30  1  0  0  0  0
  4 31  1  1  0  0  0
  5 32  1  6  0  0  0
  5 20  1  0  0  0  0
  6 30  1  0  0  0  0
  7 21  1  6  0  0  0
  7 14  1  0  0  0  0
  8  9  1  6  0  0  0
  8 18  1  0  0  0  0
 10 17  1  6  0  0  0
 10  8  1  0  0  0  0
 11  7  1  0  0  0  0
 12 17  1  0  0  0  0
 13  3  1  0  0  0  0
 14 29  1  1  0  0  0
 14 16  1  0  0  0  0
 15 11  2  0  0  0  0
 16  4  1  0  0  0  0
 19  5  1  0  0  0  0
 19 22  1  0  0  0  0
 20  1  1  0  0  0  0
 20 10  1  0  0  0  0
 22 12  1  0  0  0  0
 23 25  1  0  0  0  0
 23  2  1  0  0  0  0
 25 27  1  0  0  0  0
 26 11  1  0  0  0  0
 26 28  1  0  0  0  0
 27 33  1  0  0  0  0
 27 34  1  0  0  0  0
 27 29  1  0  0  0  0
 28  6  1  0  0  0  0
 30 18  1  0  0  0  0
 32  2  2  0  0  0  0
 34  1  1  0  0  0  0
M  END
>  <MODEL>
7

>  <REMARK>
 VINA RESULT:      -2.8      2.611      5.809
  Name = 
  0 active torsions:
  status: ('A' for Active; 'I' for Inactive)
                            x       y       z     vdW  Elec       q    Type
                         _______ _______ _______ _____ _____    ______ ____

>  <TORSDO>
F 0

$$$$
=
 OpenBabel10262423383D

 34 39  0  0  1  0  0  0  0  0999 V2000
  181.8910  177.5460  136.1200 C   0  0  1  0  0  3  0  0  0  0  0  0
  179.6740  178.4070  136.8330 C   0  0  0  0  0  0  0  0  0  0  0  0
  180.2240  182.0170  137.3030 C   0  0  0  0  0  0  0  0  0  0  0  0
  183.4000  177.4510  139.5620 C   0  0  2  0  0  3  0  0  0  0  0  0
  179.7420  176.0650  136.1810 C   0  0  1  0  0  3  0  0  0  0  0  0
  181.3030  175.9120  139.1620 C   0  0  0  0  0  2  0  0  0  0  0  0
  180.6030  179.7120  140.7950 C   0  0  1  0  0  3  0  0  0  0  0  0
  183.3110  175.6650  136.8240 C   0  0  2  0  0  3  0  0  0  0  0  0
  183.2890  177.1720  136.5900 C   0  0  0  0  0  2  0  0  0  0  0  0
  181.9830  175.1030  136.3550 C   0  0  2  0  0  3  0  0  0  0  0  0
  179.6330  178.5630  141.0050 C   0  0  0  0  0  0  0  0  0  0  0  0
  180.8910  173.5680  134.5980 C   0  0  0  0  0  2  0  0  0  0  0  0
  178.9310  182.7330  137.1160 C   0  0  0  0  0  1  0  0  0  0  0  0
  181.7970  179.3190  139.9560 C   0  0  2  0  0  3  0  0  0  0  0  0
  178.9360  178.5530  142.0070 O   0  0  0  0  0  0  0  0  0  0  0  0
  182.4840  178.2630  140.4030 C   0  0  0  0  0  2  0  0  0  0  0  0
  182.1470  173.9020  135.4220 C   0  0  0  0  0  2  0  0  0  0  0  0
  183.6090  175.2740  138.2880 C   0  0  0  0  0  2  0  0  0  0  0  0
  178.9910  175.0750  135.2960 C   0  0  0  0  0  2  0  0  0  0  0  0
  181.2010  176.2290  135.7180 C   0  0  2  0  0  3  0  0  0  0  0  0
  179.8810  180.9610  140.3220 C   0  0  0  0  0  1  0  0  0  0  0  0
  179.5870  173.6690  135.3930 C   0  0  0  0  0  2  0  0  0  0  0  0
  179.1200  179.7700  136.9520 C   0  0  0  0  0  2  0  0  0  0  0  0
  181.2730  182.6920  137.4770 O   0  0  0  0  0  0  0  0  0  0  0  0
  180.2780  180.5780  137.2920 N   0  0  0  0  0  0  0  0  0  0  0  0
  179.5110  177.4260  140.0210 C   0  0  0  0  0  2  0  0  0  0  0  0
  181.5230  179.8070  137.3800 C   0  0  2  0  0  0  0  0  0  0  0  0
  180.4460  176.2710  140.3780 C   0  0  0  0  0  2  0  0  0  0  0  0
  182.2490  180.0680  138.7150 C   0  0  0  0  0  2  0  0  0  0  0  0
  182.8300  176.0240  139.3870 C   0  0  1  0  0  3  0  0  0  0  0  0
  184.6530  177.3870  140.1710 O   0  0  0  0  0  1  0  0  0  0  0  0
  179.0200  177.3750  136.2950 C   0  0  0  0  0  3  0  0  0  0  0  0
  182.3720  180.2100  136.3420 O   0  0  0  0  0  1  0  0  0  0  0  0
  181.1170  178.3280  137.2050 C   0  0  2  0  0  3  0  0  0  0  0  0
  1  9  1  1  0  0  0
  1 34  1  0  0  0  0
  2 23  1  0  0  0  0
  2 34  1  0  0  0  0
  3 24  2  0  0  0  0
  4 31  1  1  0  0  0
  4 16  1  0  0  0  0
  5 19  1  6  0  0  0
  5 32  1  0  0  0  0
  6 30  1  0  0  0  0
  6 28  1  0  0  0  0
  7 21  1  6  0  0  0
  7 11  1  0  0  0  0
  8  9  1  1  0  0  0
  8 18  1  0  0  0  0
 10 17  1  6  0  0  0
 10  8  1  0  0  0  0
 11 15  2  0  0  0  0
 12 22  1  0  0  0  0
 12 17  1  0  0  0  0
 13  3  1  0  0  0  0
 14 29  1  1  0  0  0
 14 16  1  0  0  0  0
 14  7  1  0  0  0  0
 18 30  1  0  0  0  0
 19 22  1  0  0  0  0
 20  1  1  0  0  0  0
 20  5  1  0  0  0  0
 20 10  1  0  0  0  0
 23 25  1  0  0  0  0
 25  3  1  0  0  0  0
 25 27  1  0  0  0  0
 26 28  1  0  0  0  0
 26 11  1  0  0  0  0
 27 29  1  0  0  0  0
 30  4  1  0  0  0  0
 32  2  2  0  0  0  0
 33 27  1  0  0  0  0
 34 27  1  0  0  0  0
M  END
>  <MODEL>
8

>  <REMARK>
 VINA RESULT:      -2.4      2.122      6.294
  Name = 
  0 active torsions:
  status: ('A' for Active; 'I' for Inactive)
                            x       y       z     vdW  Elec       q    Type
                         _______ _______ _______ _____ _____    ______ ____

>  <TORSDO>
F 0

$$$$
=
 OpenBabel10262423383D

 34 39  0  0  1  0  0  0  0  0999 V2000
  184.3150  174.8300  138.0290 C   0  0  1  0  0  3  0  0  0  0  0  0
  184.2160  177.2580  138.5360 C   0  0  0  0  0  0  0  0  0  0  0  0
  181.4840  177.5490  140.9880 C   0  0  0  0  0  0  0  0  0  0  0  0
  181.4060  174.8060  135.6480 C   0  0  2  0  0  3  0  0  0  0  0  0
  186.0510  176.5480  137.1060 C   0  0  1  0  0  3  0  0  0  0  0  0
  183.4690  176.2870  134.9580 C   0  0  0  0  0  2  0  0  0  0  0  0
  180.3410  178.1980  136.9980 C   0  0  1  0  0  3  0  0  0  0  0  0
  184.3910  173.5100  135.9550 C   0  0  2  0  0  3  0  0  0  0  0  0
  183.6480  173.6890  137.2750 C   0  0  0  0  0  2  0  0  0  0  0  0
  185.5960  174.4310  135.9720 C   0  0  2  0  0  3  0  0  0  0  0  0
  181.2910  178.9660  136.0950 C   0  0  0  0  0  0  0  0  0  0  0  0
  188.1720  174.4690  135.9940 C   0  0  0  0  0  2  0  0  0  0  0  0
  181.7080  178.7650  141.8210 C   0  0  0  0  0  1  0  0  0  0  0  0
  180.6630  176.7220  137.0590 C   0  0  2  0  0  3  0  0  0  0  0  0
  180.8980  179.9880  135.5570 O   0  0  0  0  0  0  0  0  0  0  0  0
  180.7150  176.1010  135.8770 C   0  0  0  0  0  2  0  0  0  0  0  0
  186.8930  173.7150  135.5910 C   0  0  0  0  0  2  0  0  0  0  0  0
  183.5070  173.7520  134.7130 C   0  0  0  0  0  2  0  0  0  0  0  0
  187.5610  176.7140  136.9740 C   0  0  0  0  0  2  0  0  0  0  0  0
  185.6690  175.0750  137.3370 C   0  0  2  0  0  3  0  0  0  0  0  0
  180.2040  178.8730  138.3500 C   0  0  0  0  0  1  0  0  0  0  0  0
  188.1020  175.9780  135.7450 C   0  0  0  0  0  2  0  0  0  0  0  0
  183.5360  178.0340  139.5930 C   0  0  0  0  0  2  0  0  0  0  0  0
  180.5270  176.7830  141.2750 O   0  0  0  0  0  0  0  0  0  0  0  0
  182.3400  177.2560  139.8680 N   0  0  0  0  0  0  0  0  0  0  0  0
  182.7000  178.4980  135.8310 C   0  0  0  0  0  2  0  0  0  0  0  0
  182.2380  176.0360  139.0590 C   0  0  2  0  0  0  0  0  0  0  0  0
  182.7730  177.6000  134.5950 C   0  0  0  0  0  2  0  0  0  0  0  0
  180.8710  175.9510  138.3500 C   0  0  0  0  0  2  0  0  0  0  0  0
  182.6220  175.0150  134.7170 C   0  0  1  0  0  3  0  0  0  0  0  0
  180.5160  173.9030  135.0670 O   0  0  0  0  0  1  0  0  0  0  0  0
  185.4760  177.4650  138.1450 C   0  0  0  0  0  3  0  0  0  0  0  0
  182.3540  174.9280  139.9050 O   0  0  0  0  0  1  0  0  0  0  0  0
  183.4180  176.0870  138.0660 C   0  0  2  0  0  3  0  0  0  0  0  0
  1  9  1  6  0  0  0
  1 34  1  0  0  0  0
  2 23  1  0  0  0  0
  3 24  2  0  0  0  0
  3 13  1  0  0  0  0
  4 31  1  6  0  0  0
  4 16  1  0  0  0  0
  5 19  1  1  0  0  0
  5 20  1  0  0  0  0
  5 32  1  0  0  0  0
  7 14  1  0  0  0  0
  7 21  1  1  0  0  0
  8 18  1  6  0  0  0
  8 10  1  0  0  0  0
  8  9  1  0  0  0  0
 10 17  1  1  0  0  0
 10 20  1  0  0  0  0
 11  7  1  0  0  0  0
 14 16  1  1  0  0  0
 14 29  1  0  0  0  0
 15 11  2  0  0  0  0
 17 12  1  0  0  0  0
 18 30  1  0  0  0  0
 20  1  1  0  0  0  0
 22 12  1  0  0  0  0
 22 19  1  0  0  0  0
 23 25  1  0  0  0  0
 25  3  1  0  0  0  0
 26 11  1  0  0  0  0
 27 25  1  0  0  0  0
 27 33  1  0  0  0  0
 28  6  1  0  0  0  0
 28 26  1  0  0  0  0
 29 27  1  0  0  0  0
 30  6  1  0  0  0  0
 30  4  1  0  0  0  0
 32  2  2  0  0  0  0
 34  2  1  0  0  0  0
 34 27  1  0  0  0  0
M  END
>  <MODEL>
9

>  <REMARK>
 VINA RESULT:      -2.4      2.045      6.284
  Name = 
  0 active torsions:
  status: ('A' for Active; 'I' for Inactive)
                            x       y       z     vdW  Elec       q    Type
                         _______ _______ _______ _____ _____    ______ ____

>  <TORSDO>
F 0

$$$$
