=
 OpenBabel10262420023D

 27 32  0  0  1  0  0  0  0  0999 V2000
  182.2720  178.1850  142.0050 C   0  0  0  0  0  2  0  0  0  0  0  0
  182.2540  178.0810  139.4820 C   0  0  1  0  0  3  0  0  0  0  0  0
  184.4100  179.5860  139.8600 C   0  0  0  0  0  2  0  0  0  0  0  0
  185.1100  176.1460  137.2570 N   0  0  0  0  0  0  0  0  0  0  0  0
  187.1810  176.1190  136.9180 N   0  0  0  0  0  0  0  0  0  0  0  0
  182.0550  176.5300  139.4740 C   0  0  0  0  0  2  0  0  0  0  0  0
  185.5950  177.2930  137.7220 C   0  0  0  0  0  0  0  0  0  0  0  0
  187.3140  178.0220  141.7170 C   0  0  0  0  0  3  0  0  0  0  0  0
  186.9440  177.3470  137.5380 C   0  0  0  0  0  3  0  0  0  0  0  0
  186.7700  177.8030  142.9840 C   0  0  0  0  0  3  0  0  0  0  0  0
  184.2540  177.7350  138.2410 C   0  0  1  0  0  3  0  0  0  0  0  0
  181.7700  178.6860  140.7250 N   0  0  0  0  0  0  0  0  0  0  0  0
  186.0510  175.3960  136.7540 N   0  0  0  0  0  0  0  0  0  0  0  0
  183.7920  176.5610  137.6050 C   0  0  2  0  0  3  0  0  0  0  0  0
  183.2680  179.1680  142.6010 C   0  0  0  0  0  2  0  0  0  0  0  0
  183.6550  178.5270  139.1150 C   0  0  1  0  0  3  0  0  0  0  0  0
  186.5390  178.6120  140.7170 C   0  0  0  0  0  3  0  0  0  0  0  0
  183.1440  175.7200  138.7100 C   0  0  0  0  0  2  0  0  0  0  0  0
  185.4520  178.1790  143.2520 C   0  0  0  0  0  3  0  0  0  0  0  0
  184.6680  178.7760  142.2580 C   0  0  0  0  0  0  0  0  0  0  0  0
  185.2160  178.9910  140.9760 C   0  0  0  0  0  0  0  0  0  0  0  0
  178.9310  181.7740  140.6120 N   0  0  0  0  0  0  0  0  0  0  0  0
  180.7970  179.7500  140.6790 C   0  0  0  0  0  0  0  0  0  0  0  0
  180.6720  180.5590  139.5440 C   0  0  0  0  0  3  0  0  0  0  0  0
  179.7220  181.5780  139.5270 C   0  0  0  0  0  3  0  0  0  0  0  0
  179.0400  181.0070  141.6990 N   0  0  0  0  0  0  0  0  0  0  0  0
  179.9500  180.0000  141.7660 C   0  0  0  0  0  3  0  0  0  0  0  0
  1 15  1  0  0  0  0
  2  6  1  1  0  0  0
  2 12  1  0  0  0  0
  3 21  1  0  0  0  0
  4 14  1  0  0  0  0
  4  7  1  0  0  0  0
  5  9  1  0  0  0  0
  8 10  1  0  0  0  0
  9  7  2  0  0  0  0
 10 19  2  0  0  0  0
 11  7  1  1  0  0  0
 11 16  1  0  0  0  0
 12  1  1  0  0  0  0
 13  5  2  0  0  0  0
 13  4  1  0  0  0  0
 14 11  1  0  0  0  0
 14 18  1  1  0  0  0
 16  2  1  0  0  0  0
 16  3  1  1  0  0  0
 17 21  1  0  0  0  0
 17  8  2  0  0  0  0
 18  6  1  0  0  0  0
 20 15  1  0  0  0  0
 20 19  1  0  0  0  0
 21 20  2  0  0  0  0
 22 26  1  0  0  0  0
 23 12  1  0  0  0  0
 23 27  1  0  0  0  0
 24 23  2  0  0  0  0
 25 24  1  0  0  0  0
 25 22  2  0  0  0  0
 26 27  2  0  0  0  0
M  END
>  <MODEL>
1

>  <REMARK>
 VINA RESULT:      -6.4      0.000      0.000
  Name = 
  1 active torsions:
  status: ('A' for Active; 'I' for Inactive)
    1  A    between atoms: C_9  and  N_15
                            x       y       z     vdW  Elec       q    Type
                         _______ _______ _______ _____ _____    ______ ____

>  <TORSDO>
F 1

$$$$
=
 OpenBabel10262420023D

 27 32  0  0  1  0  0  0  0  0999 V2000
  191.8920  174.1090  137.5420 C   0  0  0  0  0  2  0  0  0  0  0  0
  191.5740  176.5910  137.8820 C   0  0  1  0  0  3  0  0  0  0  0  0
  190.1880  176.2570  135.6410 C   0  0  0  0  0  2  0  0  0  0  0  0
  187.9660  178.3270  138.7850 N   0  0  0  0  0  0  0  0  0  0  0  0
  186.0070  178.5070  138.0530 N   0  0  0  0  0  0  0  0  0  0  0  0
  191.1840  176.4090  139.3860 C   0  0  0  0  0  2  0  0  0  0  0  0
  187.9970  177.9830  137.5020 C   0  0  0  0  0  0  0  0  0  0  0  0
  187.1510  174.0040  135.7990 C   0  0  0  0  0  3  0  0  0  0  0  0
  186.7520  178.0730  136.9550 C   0  0  0  0  0  3  0  0  0  0  0  0
  187.7200  172.7620  136.0880 C   0  0  0  0  0  3  0  0  0  0  0  0
  189.4580  177.6260  137.5560 C   0  0  1  0  0  3  0  0  0  0  0  0
  192.3900  175.4770  137.3930 N   0  0  0  0  0  0  0  0  0  0  0  0
  186.7620  178.6560  139.1640 N   0  0  0  0  0  0  0  0  0  0  0  0
  189.3750  178.1340  138.8720 C   0  0  2  0  0  3  0  0  0  0  0  0
  191.4080  173.5760  136.2020 C   0  0  0  0  0  2  0  0  0  0  0  0
  190.4040  176.9100  136.9740 C   0  0  1  0  0  3  0  0  0  0  0  0
  187.9660  175.1270  135.6460 C   0  0  0  0  0  3  0  0  0  0  0  0
  189.7910  176.9780  139.7880 C   0  0  0  0  0  2  0  0  0  0  0  0
  189.1060  172.6430  136.2180 C   0  0  0  0  0  3  0  0  0  0  0  0
  189.9320  173.7620  136.0620 C   0  0  0  0  0  0  0  0  0  0  0  0
  189.3560  175.0180  135.7760 C   0  0  0  0  0  0  0  0  0  0  0  0
  196.1380  176.2090  135.6530 N   0  0  0  0  0  0  0  0  0  0  0  0
  193.6750  175.7340  136.7890 C   0  0  0  0  0  0  0  0  0  0  0  0
  193.8110  176.6790  135.7660 C   0  0  0  0  0  3  0  0  0  0  0  0
  195.0640  176.9070  135.2020 C   0  0  0  0  0  3  0  0  0  0  0  0
  196.0200  175.3070  136.6290 N   0  0  0  0  0  0  0  0  0  0  0  0
  194.8200  175.0470  137.2120 C   0  0  0  0  0  3  0  0  0  0  0  0
  2  6  1  1  0  0  0
  3 21  1  0  0  0  0
  4 14  1  0  0  0  0
  4 13  1  0  0  0  0
  5 13  2  0  0  0  0
  6 18  1  0  0  0  0
  7  4  1  0  0  0  0
  8 10  1  0  0  0  0
  9  7  2  0  0  0  0
  9  5  1  0  0  0  0
 10 19  2  0  0  0  0
 11  7  1  1  0  0  0
 11 14  1  0  0  0  0
 12  1  1  0  0  0  0
 12  2  1  0  0  0  0
 14 18  1  1  0  0  0
 15  1  1  0  0  0  0
 16  3  1  1  0  0  0
 16 11  1  0  0  0  0
 16  2  1  0  0  0  0
 17 21  1  0  0  0  0
 17  8  2  0  0  0  0
 20 15  1  0  0  0  0
 20 19  1  0  0  0  0
 21 20  2  0  0  0  0
 22 26  1  0  0  0  0
 23 27  1  0  0  0  0
 23 12  1  0  0  0  0
 24 23  2  0  0  0  0
 25 22  2  0  0  0  0
 25 24  1  0  0  0  0
 26 27  2  0  0  0  0
M  END
>  <MODEL>
2

>  <REMARK>
 VINA RESULT:      -6.4      5.379     10.361
  Name = 
  1 active torsions:
  status: ('A' for Active; 'I' for Inactive)
    1  A    between atoms: C_9  and  N_15
                            x       y       z     vdW  Elec       q    Type
                         _______ _______ _______ _____ _____    ______ ____

>  <TORSDO>
F 1

$$$$
=
 OpenBabel10262420023D

 27 32  0  0  1  0  0  0  0  0999 V2000
  185.8000  179.5630  141.9140 C   0  0  0  0  0  2  0  0  0  0  0  0
  184.7480  178.7420  144.0580 C   0  0  1  0  0  3  0  0  0  0  0  0
  186.4460  176.7530  143.5930 C   0  0  0  0  0  2  0  0  0  0  0  0
  186.7680  178.4280  147.6170 N   0  0  0  0  0  0  0  0  0  0  0  0
  188.4480  177.5030  148.4700 N   0  0  0  0  0  0  0  0  0  0  0  0
  184.9320  180.1250  144.7630 C   0  0  0  0  0  2  0  0  0  0  0  0
  187.1210  177.4370  146.8040 C   0  0  0  0  0  0  0  0  0  0  0  0
  190.1380  177.5880  143.5910 C   0  0  0  0  0  3  0  0  0  0  0  0
  188.2140  176.7880  147.2940 C   0  0  0  0  0  3  0  0  0  0  0  0
  190.2440  178.4480  142.4970 C   0  0  0  0  0  3  0  0  0  0  0  0
  186.0590  177.7870  145.7960 C   0  0  1  0  0  3  0  0  0  0  0  0
  184.7050  178.8760  142.6000 N   0  0  0  0  0  0  0  0  0  0  0  0
  187.5570  178.5030  148.6530 N   0  0  0  0  0  0  0  0  0  0  0  0
  185.6620  178.7290  146.7710 C   0  0  2  0  0  3  0  0  0  0  0  0
  186.6940  178.5540  141.2090 C   0  0  0  0  0  2  0  0  0  0  0  0
  185.7180  177.6760  144.5240 C   0  0  1  0  0  3  0  0  0  0  0  0
  188.9000  177.0370  143.9270 C   0  0  0  0  0  3  0  0  0  0  0  0
  185.7540  180.0970  146.0860 C   0  0  0  0  0  2  0  0  0  0  0  0
  189.1130  178.7540  141.7360 C   0  0  0  0  0  3  0  0  0  0  0  0
  187.8690  178.2030  142.0620 C   0  0  0  0  0  0  0  0  0  0  0  0
  187.7590  177.3380  143.1710 C   0  0  0  0  0  0  0  0  0  0  0  0
  181.4280  177.3580  140.4610 N   0  0  0  0  0  0  0  0  0  0  0  0
  183.5830  178.3510  141.8590 C   0  0  0  0  0  0  0  0  0  0  0  0
  183.7810  177.5030  140.7630 C   0  0  0  0  0  3  0  0  0  0  0  0
  182.6800  177.0100  140.0670 C   0  0  0  0  0  3  0  0  0  0  0  0
  181.2280  178.1640  141.5050 N   0  0  0  0  0  0  0  0  0  0  0  0
  182.2680  178.6720  142.2170 C   0  0  0  0  0  3  0  0  0  0  0  0
  1 12  1  0  0  0  0
  2 16  1  0  0  0  0
  2  6  1  1  0  0  0
  4 13  1  0  0  0  0
  5 13  2  0  0  0  0
  6 18  1  0  0  0  0
  7  9  2  0  0  0  0
  7  4  1  0  0  0  0
  8 17  1  0  0  0  0
  9  5  1  0  0  0  0
 10  8  2  0  0  0  0
 11 14  1  0  0  0  0
 11  7  1  6  0  0  0
 12  2  1  0  0  0  0
 14 18  1  6  0  0  0
 14  4  1  0  0  0  0
 15  1  1  0  0  0  0
 15 20  1  0  0  0  0
 16  3  1  6  0  0  0
 16 11  1  0  0  0  0
 19 20  2  0  0  0  0
 19 10  1  0  0  0  0
 20 21  1  0  0  0  0
 21  3  1  0  0  0  0
 21 17  2  0  0  0  0
 22 26  1  0  0  0  0
 23 27  1  0  0  0  0
 23 12  1  0  0  0  0
 24 23  2  0  0  0  0
 25 22  2  0  0  0  0
 25 24  1  0  0  0  0
 26 27  2  0  0  0  0
M  END
>  <MODEL>
3

>  <REMARK>
 VINA RESULT:      -6.1      3.898      6.637
  Name = 
  1 active torsions:
  status: ('A' for Active; 'I' for Inactive)
    1  A    between atoms: C_9  and  N_15
                            x       y       z     vdW  Elec       q    Type
                         _______ _______ _______ _____ _____    ______ ____

>  <TORSDO>
F 1

$$$$
=
 OpenBabel10262420023D

 27 32  0  0  1  0  0  0  0  0999 V2000
  182.2470  177.5700  140.3870 C   0  0  0  0  0  2  0  0  0  0  0  0
  183.2590  177.6640  138.0750 C   0  0  1  0  0  3  0  0  0  0  0  0
  184.7820  179.4540  139.3120 C   0  0  0  0  0  2  0  0  0  0  0  0
  187.0570  176.3830  137.1940 N   0  0  0  0  0  0  0  0  0  0  0  0
  189.0610  176.7080  137.7290 N   0  0  0  0  0  0  0  0  0  0  0  0
  183.3550  176.1060  137.9750 C   0  0  0  0  0  2  0  0  0  0  0  0
  187.1070  177.5510  137.8250 C   0  0  0  0  0  0  0  0  0  0  0  0
  186.9250  178.2240  142.1800 C   0  0  0  0  0  3  0  0  0  0  0  0
  188.3840  177.8310  138.2080 C   0  0  0  0  0  3  0  0  0  0  0  0
  185.9670  177.8240  143.1120 C   0  0  0  0  0  3  0  0  0  0  0  0
  185.6150  177.7350  137.7550 C   0  0  1  0  0  3  0  0  0  0  0  0
  182.2200  178.0850  139.0180 N   0  0  0  0  0  0  0  0  0  0  0  0
  188.2370  175.8320  137.1130 N   0  0  0  0  0  0  0  0  0  0  0  0
  185.6610  176.5570  136.9770 C   0  0  2  0  0  3  0  0  0  0  0  0
  182.7310  178.6470  141.3450 C   0  0  0  0  0  2  0  0  0  0  0  0
  184.5880  178.3510  138.3150 C   0  0  1  0  0  3  0  0  0  0  0  0
  186.5250  178.7620  140.9550 C   0  0  0  0  0  3  0  0  0  0  0  0
  184.7830  175.5400  137.7150 C   0  0  0  0  0  2  0  0  0  0  0  0
  184.6080  177.9660  142.8230 C   0  0  0  0  0  3  0  0  0  0  0  0
  184.1970  178.5080  141.6000 C   0  0  0  0  0  0  0  0  0  0  0  0
  185.1650  178.9080  140.6540 C   0  0  0  0  0  0  0  0  0  0  0  0
  179.1690  180.6880  137.7810 N   0  0  0  0  0  0  0  0  0  0  0  0
  181.1760  178.9830  138.5870 C   0  0  0  0  0  0  0  0  0  0  0  0
  181.3650  179.8290  137.4880 C   0  0  0  0  0  3  0  0  0  0  0  0
  180.3400  180.6850  137.0930 C   0  0  0  0  0  3  0  0  0  0  0  0
  178.9770  179.8850  138.8290 N   0  0  0  0  0  0  0  0  0  0  0  0
  179.9450  179.0320  139.2540 C   0  0  0  0  0  3  0  0  0  0  0  0
  1 15  1  0  0  0  0
  2  6  1  1  0  0  0
  2 16  1  0  0  0  0
  2 12  1  0  0  0  0
  3 21  1  0  0  0  0
  4  7  1  0  0  0  0
  5  9  1  0  0  0  0
  7  9  2  0  0  0  0
  8 10  1  0  0  0  0
 11  7  1  1  0  0  0
 11 16  1  0  0  0  0
 12  1  1  0  0  0  0
 13  4  1  0  0  0  0
 13  5  2  0  0  0  0
 14  4  1  0  0  0  0
 14 18  1  1  0  0  0
 14 11  1  0  0  0  0
 15 20  1  0  0  0  0
 16  3  1  1  0  0  0
 17  8  2  0  0  0  0
 18  6  1  0  0  0  0
 19 10  2  0  0  0  0
 20 19  1  0  0  0  0
 21 17  1  0  0  0  0
 21 20  2  0  0  0  0
 22 26  1  0  0  0  0
 23 12  1  0  0  0  0
 23 27  1  0  0  0  0
 24 23  2  0  0  0  0
 25 24  1  0  0  0  0
 25 22  2  0  0  0  0
 26 27  2  0  0  0  0
M  END
>  <MODEL>
4

>  <REMARK>
 VINA RESULT:      -6.0      1.472      1.852
  Name = 
  1 active torsions:
  status: ('A' for Active; 'I' for Inactive)
    1  A    between atoms: C_9  and  N_15
                            x       y       z     vdW  Elec       q    Type
                         _______ _______ _______ _____ _____    ______ ____

>  <TORSDO>
F 1

$$$$
=
 OpenBabel10262420023D

 27 32  0  0  1  0  0  0  0  0999 V2000
  187.8890  176.3400  142.7230 C   0  0  0  0  0  2  0  0  0  0  0  0
  190.4050  176.3760  142.9420 C   0  0  1  0  0  3  0  0  0  0  0  0
  189.7860  178.4740  144.4490 C   0  0  0  0  0  2  0  0  0  0  0  0
  192.4020  175.5950  146.4410 N   0  0  0  0  0  0  0  0  0  0  0  0
  192.5460  176.2590  148.4280 N   0  0  0  0  0  0  0  0  0  0  0  0
  190.4720  174.8470  143.2620 C   0  0  0  0  0  2  0  0  0  0  0  0
  191.8640  176.8090  146.4860 C   0  0  0  0  0  0  0  0  0  0  0  0
  187.7070  177.8330  147.5470 C   0  0  0  0  0  3  0  0  0  0  0  0
  191.9190  177.3070  147.7530 C   0  0  0  0  0  3  0  0  0  0  0  0
  186.5030  177.3800  147.0040 C   0  0  0  0  0  3  0  0  0  0  0  0
  191.4620  176.7650  145.0360 C   0  0  1  0  0  3  0  0  0  0  0  0
  189.1970  176.7220  142.1890 N   0  0  0  0  0  0  0  0  0  0  0  0
  192.8340  175.2190  147.6130 N   0  0  0  0  0  0  0  0  0  0  0  0
  192.1690  175.5420  145.0370 C   0  0  2  0  0  3  0  0  0  0  0  0
  187.1770  177.5580  143.2910 C   0  0  0  0  0  2  0  0  0  0  0  0
  190.6270  177.2710  144.1450 C   0  0  1  0  0  3  0  0  0  0  0  0
  188.7600  178.1950  146.7040 C   0  0  0  0  0  3  0  0  0  0  0  0
  191.1520  174.4770  144.6130 C   0  0  0  0  0  2  0  0  0  0  0  0
  186.3500  177.2940  145.6190 C   0  0  0  0  0  3  0  0  0  0  0  0
  187.3970  177.6590  144.7650 C   0  0  0  0  0  0  0  0  0  0  0  0
  188.6170  178.1110  145.3130 C   0  0  0  0  0  0  0  0  0  0  0  0
  189.4930  178.7470  138.5250 N   0  0  0  0  0  0  0  0  0  0  0  0
  189.3060  177.4150  140.9280 C   0  0  0  0  0  0  0  0  0  0  0  0
  190.3840  177.1750  140.0680 C   0  0  0  0  0  3  0  0  0  0  0  0
  190.4630  177.8570  138.8560 C   0  0  0  0  0  3  0  0  0  0  0  0
  188.4600  178.9830  139.3360 N   0  0  0  0  0  0  0  0  0  0  0  0
  188.3360  178.3440  140.5280 C   0  0  0  0  0  3  0  0  0  0  0  0
  1 15  1  0  0  0  0
  2  6  1  1  0  0  0
  2 16  1  0  0  0  0
  3 21  1  0  0  0  0
  4  7  1  0  0  0  0
  4 13  1  0  0  0  0
  6 18  1  0  0  0  0
  7  9  2  0  0  0  0
  9  5  1  0  0  0  0
 10  8  1  0  0  0  0
 11 14  1  0  0  0  0
 11  7  1  1  0  0  0
 12  1  1  0  0  0  0
 12  2  1  0  0  0  0
 13  5  2  0  0  0  0
 14 18  1  1  0  0  0
 14  4  1  0  0  0  0
 15 20  1  0  0  0  0
 16  3  1  1  0  0  0
 16 11  1  0  0  0  0
 17  8  2  0  0  0  0
 19 10  2  0  0  0  0
 20 21  2  0  0  0  0
 20 19  1  0  0  0  0
 21 17  1  0  0  0  0
 22 25  2  0  0  0  0
 22 26  1  0  0  0  0
 23 12  1  0  0  0  0
 24 23  2  0  0  0  0
 25 24  1  0  0  0  0
 26 27  2  0  0  0  0
 27 23  1  0  0  0  0
M  END
>  <MODEL>
5

>  <REMARK>
 VINA RESULT:      -5.7      5.732      9.031
  Name = 
  1 active torsions:
  status: ('A' for Active; 'I' for Inactive)
    1  A    between atoms: C_9  and  N_15
                            x       y       z     vdW  Elec       q    Type
                         _______ _______ _______ _____ _____    ______ ____

>  <TORSDO>
F 1

$$$$
=
 OpenBabel10262420023D

 27 32  0  0  1  0  0  0  0  0999 V2000
  185.1650  179.0920  139.1610 C   0  0  0  0  0  2  0  0  0  0  0  0
  182.7090  178.8450  138.6300 C   0  0  1  0  0  3  0  0  0  0  0  0
  182.8230  177.4770  140.9040 C   0  0  0  0  0  2  0  0  0  0  0  0
  179.7110  180.5450  140.8590 N   0  0  0  0  0  0  0  0  0  0  0  0
  178.9500  180.5910  142.8150 N   0  0  0  0  0  0  0  0  0  0  0  0
  182.5430  180.3730  138.3410 C   0  0  0  0  0  2  0  0  0  0  0  0
  180.2090  179.4900  141.4960 C   0  0  0  0  0  0  0  0  0  0  0  0
  183.8210  179.3760  144.0230 C   0  0  0  0  0  3  0  0  0  0  0  0
  179.7580  179.4550  142.7820 C   0  0  0  0  0  3  0  0  0  0  0  0
  185.1340  179.7500  143.7320 C   0  0  0  0  0  3  0  0  0  0  0  0
  181.0470  179.0800  140.3150 C   0  0  1  0  0  3  0  0  0  0  0  0
  184.0930  178.4030  138.4430 N   0  0  0  0  0  0  0  0  0  0  0  0
  178.9320  181.2480  141.6340 N   0  0  0  0  0  0  0  0  0  0  0  0
  180.3740  180.1400  139.6660 C   0  0  2  0  0  3  0  0  0  0  0  0
  185.6640  178.2330  140.3130 C   0  0  0  0  0  2  0  0  0  0  0  0
  182.1200  178.3990  139.9530 C   0  0  1  0  0  3  0  0  0  0  0  0
  183.0880  178.6280  143.1000 C   0  0  0  0  0  3  0  0  0  0  0  0
  181.4720  181.1040  139.2040 C   0  0  0  0  0  2  0  0  0  0  0  0
  185.7160  179.3720  142.5200 C   0  0  0  0  0  3  0  0  0  0  0  0
  184.9900  178.6190  141.5890 C   0  0  0  0  0  0  0  0  0  0  0  0
  183.6610  178.2460  141.8800 C   0  0  0  0  0  0  0  0  0  0  0  0
  184.9670  175.2410  135.8260 N   0  0  0  0  0  0  0  0  0  0  0  0
  184.3870  177.3120  137.5450 C   0  0  0  0  0  0  0  0  0  0  0  0
  183.4710  176.2690  137.3590 C   0  0  0  0  0  3  0  0  0  0  0  0
  183.7800  175.2300  136.4860 C   0  0  0  0  0  3  0  0  0  0  0  0
  185.8470  176.2300  135.9950 N   0  0  0  0  0  0  0  0  0  0  0  0
  185.5930  177.2670  136.8350 C   0  0  0  0  0  3  0  0  0  0  0  0
  1 15  1  0  0  0  0
  2  6  1  1  0  0  0
  2 16  1  0  0  0  0
  3 21  1  0  0  0  0
  4  7  1  0  0  0  0
  4 13  1  0  0  0  0
  6 18  1  0  0  0  0
  7  9  2  0  0  0  0
  9  5  1  0  0  0  0
 10  8  1  0  0  0  0
 11  7  1  1  0  0  0
 12  2  1  0  0  0  0
 12  1  1  0  0  0  0
 13  5  2  0  0  0  0
 14 18  1  1  0  0  0
 14 11  1  0  0  0  0
 14  4  1  0  0  0  0
 15 20  1  0  0  0  0
 16 11  1  0  0  0  0
 16  3  1  1  0  0  0
 17  8  2  0  0  0  0
 19 10  2  0  0  0  0
 20 21  2  0  0  0  0
 20 19  1  0  0  0  0
 21 17  1  0  0  0  0
 22 26  2  0  0  0  0
 22 25  1  0  0  0  0
 23 12  1  0  0  0  0
 24 23  1  0  0  0  0
 25 24  2  0  0  0  0
 26 27  1  0  0  0  0
 27 23  2  0  0  0  0
M  END
>  <MODEL>
6

>  <REMARK>
 VINA RESULT:      -5.5      1.320      6.127
  Name = 
  1 active torsions:
  status: ('A' for Active; 'I' for Inactive)
    1  A    between atoms: C_9  and  N_15
                            x       y       z     vdW  Elec       q    Type
                         _______ _______ _______ _____ _____    ______ ____

>  <TORSDO>
F 1

$$$$
=
 OpenBabel10262420023D

 27 32  0  0  1  0  0  0  0  0999 V2000
  180.8040  177.5080  140.6150 C   0  0  0  0  0  2  0  0  0  0  0  0
  181.1290  180.0060  140.4280 C   0  0  1  0  0  3  0  0  0  0  0  0
  182.5790  179.2010  138.3530 C   0  0  0  0  0  2  0  0  0  0  0  0
  179.6400  182.2760  137.3500 N   0  0  0  0  0  0  0  0  0  0  0  0
  179.7010  182.4400  135.2580 N   0  0  0  0  0  0  0  0  0  0  0  0
  179.5990  180.2900  140.5820 C   0  0  0  0  0  2  0  0  0  0  0  0
  180.6980  181.5870  136.9360 C   0  0  0  0  0  0  0  0  0  0  0  0
  180.7660  177.3960  135.5640 C   0  0  0  0  0  3  0  0  0  0  0  0
  180.8020  181.6450  135.5780 C   0  0  0  0  0  3  0  0  0  0  0  0
  180.3280  176.2340  136.2020 C   0  0  0  0  0  3  0  0  0  0  0  0
  181.0270  181.1150  138.3270 C   0  0  1  0  0  3  0  0  0  0  0  0
  181.5080  178.7240  141.0270 N   0  0  0  0  0  0  0  0  0  0  0  0
  179.0000  182.8160  136.3500 N   0  0  0  0  0  0  0  0  0  0  0  0
  179.9710  181.9750  138.7020 C   0  0  2  0  0  3  0  0  0  0  0  0
  181.6870  176.6750  139.6990 C   0  0  0  0  0  2  0  0  0  0  0  0
  181.6500  180.1740  139.0150 C   0  0  1  0  0  3  0  0  0  0  0  0
  181.5050  178.3440  136.2730 C   0  0  0  0  0  3  0  0  0  0  0  0
  178.9460  181.0850  139.4120 C   0  0  0  0  0  2  0  0  0  0  0  0
  180.6340  176.0180  137.5470 C   0  0  0  0  0  3  0  0  0  0  0  0
  181.3790  176.9600  138.2650 C   0  0  0  0  0  0  0  0  0  0  0  0
  181.8160  178.1380  137.6230 C   0  0  0  0  0  0  0  0  0  0  0  0
  184.5240  178.5830  143.9420 N   0  0  0  0  0  0  0  0  0  0  0  0
  182.5500  178.6720  142.0240 C   0  0  0  0  0  0  0  0  0  0  0  0
  183.8540  178.2980  141.6800 C   0  0  0  0  0  3  0  0  0  0  0  0
  184.8400  178.2590  142.6620 C   0  0  0  0  0  3  0  0  0  0  0  0
  183.2840  178.9430  144.2810 N   0  0  0  0  0  0  0  0  0  0  0  0
  182.2860  178.9970  143.3600 C   0  0  0  0  0  3  0  0  0  0  0  0
  1 12  1  0  0  0  0
  2  6  1  6  0  0  0
  2 12  1  0  0  0  0
  4 14  1  0  0  0  0
  5  9  1  0  0  0  0
  5 13  2  0  0  0  0
  7  4  1  0  0  0  0
  8 10  2  0  0  0  0
  8 17  1  0  0  0  0
  9  7  2  0  0  0  0
 10 19  1  0  0  0  0
 11  7  1  6  0  0  0
 11 14  1  0  0  0  0
 11 16  1  0  0  0  0
 12 23  1  0  0  0  0
 13  4  1  0  0  0  0
 14 18  1  6  0  0  0
 15  1  1  0  0  0  0
 16  3  1  6  0  0  0
 16  2  1  0  0  0  0
 17 21  2  0  0  0  0
 18  6  1  0  0  0  0
 19 20  2  0  0  0  0
 20 15  1  0  0  0  0
 21 20  1  0  0  0  0
 21  3  1  0  0  0  0
 22 26  1  0  0  0  0
 23 27  1  0  0  0  0
 24 23  2  0  0  0  0
 24 25  1  0  0  0  0
 25 22  2  0  0  0  0
 27 26  2  0  0  0  0
M  END
>  <MODEL>
7

>  <REMARK>
 VINA RESULT:      -5.5      3.055      6.216
  Name = 
  1 active torsions:
  status: ('A' for Active; 'I' for Inactive)
    1  A    between atoms: C_9  and  N_15
                            x       y       z     vdW  Elec       q    Type
                         _______ _______ _______ _____ _____    ______ ____

>  <TORSDO>
F 1

$$$$
=
 OpenBabel10262420023D

 27 32  0  0  1  0  0  0  0  0999 V2000
  190.1120  178.4300  140.9300 C   0  0  0  0  0  2  0  0  0  0  0  0
  187.6580  177.8610  141.1050 C   0  0  1  0  0  3  0  0  0  0  0  0
  188.6450  176.1770  142.9060 C   0  0  0  0  0  2  0  0  0  0  0  0
  185.3660  178.6390  144.4200 N   0  0  0  0  0  0  0  0  0  0  0  0
  185.2730  178.2330  146.4780 N   0  0  0  0  0  0  0  0  0  0  0  0
  187.2410  179.3660  141.2040 C   0  0  0  0  0  2  0  0  0  0  0  0
  186.1540  177.5930  144.6470 C   0  0  0  0  0  0  0  0  0  0  0  0
  190.3760  177.6780  145.9190 C   0  0  0  0  0  3  0  0  0  0  0  0
  186.1470  177.2710  145.9710 C   0  0  0  0  0  3  0  0  0  0  0  0
  191.4770  178.3110  145.3400 C   0  0  0  0  0  3  0  0  0  0  0  0
  186.6090  177.5310  143.2140 C   0  0  1  0  0  3  0  0  0  0  0  0
  188.9480  177.6960  140.4310 N   0  0  0  0  0  0  0  0  0  0  0  0
  184.8050  179.0630  145.5190 N   0  0  0  0  0  0  0  0  0  0  0  0
  185.6520  178.5540  143.0270 C   0  0  2  0  0  3  0  0  0  0  0  0
  191.0440  177.4900  141.6780 C   0  0  0  0  0  2  0  0  0  0  0  0
  187.5770  177.1100  142.4180 C   0  0  1  0  0  3  0  0  0  0  0  0
  189.4720  176.9800  145.1170 C   0  0  0  0  0  3  0  0  0  0  0  0
  186.4310  179.7530  142.4760 C   0  0  0  0  0  2  0  0  0  0  0  0
  191.6770  178.2420  143.9600 C   0  0  0  0  0  3  0  0  0  0  0  0
  190.7780  177.5410  143.1470 C   0  0  0  0  0  0  0  0  0  0  0  0
  189.6620  176.9060  143.7310 C   0  0  0  0  0  0  0  0  0  0  0  0
  189.2840  175.1820  137.0880 N   0  0  0  0  0  0  0  0  0  0  0  0
  189.0560  176.8340  139.2800 C   0  0  0  0  0  0  0  0  0  0  0  0
  188.0180  176.7530  138.3440 C   0  0  0  0  0  3  0  0  0  0  0  0
  188.1500  175.9130  137.2410 C   0  0  0  0  0  3  0  0  0  0  0  0
  190.2800  175.2530  137.9730 N   0  0  0  0  0  0  0  0  0  0  0  0
  190.2010  176.0570  139.0650 C   0  0  0  0  0  3  0  0  0  0  0  0
  1 15  1  0  0  0  0
  2  6  1  1  0  0  0
  2 16  1  0  0  0  0
  3 21  1  0  0  0  0
  4  7  1  0  0  0  0
  4 13  1  0  0  0  0
  6 18  1  0  0  0  0
  7  9  2  0  0  0  0
  9  5  1  0  0  0  0
 10  8  1  0  0  0  0
 11  7  1  1  0  0  0
 12  1  1  0  0  0  0
 12  2  1  0  0  0  0
 13  5  2  0  0  0  0
 14 18  1  1  0  0  0
 14 11  1  0  0  0  0
 14  4  1  0  0  0  0
 15 20  1  0  0  0  0
 16  3  1  1  0  0  0
 16 11  1  0  0  0  0
 17  8  2  0  0  0  0
 19 10  2  0  0  0  0
 20 21  2  0  0  0  0
 20 19  1  0  0  0  0
 21 17  1  0  0  0  0
 22 25  2  0  0  0  0
 22 26  1  0  0  0  0
 23 12  1  0  0  0  0
 24 23  2  0  0  0  0
 25 24  1  0  0  0  0
 26 27  2  0  0  0  0
 27 23  1  0  0  0  0
M  END
>  <MODEL>
8

>  <REMARK>
 VINA RESULT:      -5.3      4.382      7.961
  Name = 
  1 active torsions:
  status: ('A' for Active; 'I' for Inactive)
    1  A    between atoms: C_9  and  N_15
                            x       y       z     vdW  Elec       q    Type
                         _______ _______ _______ _____ _____    ______ ____

>  <TORSDO>
F 1

$$$$
=
 OpenBabel10262420023D

 27 32  0  0  1  0  0  0  0  0999 V2000
  181.5620  180.4340  139.5860 C   0  0  0  0  0  2  0  0  0  0  0  0
  182.9560  178.3310  139.6860 C   0  0  1  0  0  3  0  0  0  0  0  0
  181.2010  177.6240  137.8220 C   0  0  0  0  0  2  0  0  0  0  0  0
  185.3620  177.0390  136.6220 N   0  0  0  0  0  0  0  0  0  0  0  0
  185.2840  176.5000  134.5950 N   0  0  0  0  0  0  0  0  0  0  0  0
  184.2980  179.1300  139.6040 C   0  0  0  0  0  2  0  0  0  0  0  0
  184.0880  176.7990  136.3320 C   0  0  0  0  0  0  0  0  0  0  0  0
  181.1760  179.6300  134.6120 C   0  0  0  0  0  3  0  0  0  0  0  0
  183.9570  176.4430  135.0230 C   0  0  0  0  0  3  0  0  0  0  0  0
  180.7790  180.8920  135.0570 C   0  0  0  0  0  3  0  0  0  0  0  0
  183.6240  177.1900  137.7090 C   0  0  1  0  0  3  0  0  0  0  0  0
  181.8670  179.1510  140.2210 N   0  0  0  0  0  0  0  0  0  0  0  0
  186.1300  176.8670  135.5820 N   0  0  0  0  0  0  0  0  0  0  0  0
  185.0070  177.2950  137.9770 C   0  0  2  0  0  3  0  0  0  0  0  0
  180.2900  180.3230  138.7600 C   0  0  0  0  0  2  0  0  0  0  0  0
  182.5830  177.6150  138.4040 C   0  0  1  0  0  3  0  0  0  0  0  0
  181.2980  178.5770  135.5210 C   0  0  0  0  0  3  0  0  0  0  0  0
  185.2330  178.7450  138.4190 C   0  0  0  0  0  2  0  0  0  0  0  0
  180.4980  181.1000  136.4090 C   0  0  0  0  0  3  0  0  0  0  0  0
  180.6120  180.0490  137.3270 C   0  0  0  0  0  0  0  0  0  0  0  0
  181.0200  178.7750  136.8790 C   0  0  0  0  0  0  0  0  0  0  0  0
  179.6810  177.8310  143.5510 N   0  0  0  0  0  0  0  0  0  0  0  0
  181.1210  178.7010  141.3710 C   0  0  0  0  0  0  0  0  0  0  0  0
  181.5190  179.0490  142.6670 C   0  0  0  0  0  3  0  0  0  0  0  0
  180.7800  178.6010  143.7580 C   0  0  0  0  0  3  0  0  0  0  0  0
  179.2910  177.4940  142.3200 N   0  0  0  0  0  0  0  0  0  0  0  0
  179.9780  177.9050  141.2220 C   0  0  0  0  0  3  0  0  0  0  0  0
  1 12  1  0  0  0  0
  2  6  1  6  0  0  0
  2 12  1  0  0  0  0
  4 14  1  0  0  0  0
  5  9  1  0  0  0  0
  5 13  2  0  0  0  0
  7  4  1  0  0  0  0
  8 10  2  0  0  0  0
  8 17  1  0  0  0  0
  9  7  2  0  0  0  0
 10 19  1  0  0  0  0
 11  7  1  6  0  0  0
 11 14  1  0  0  0  0
 11 16  1  0  0  0  0
 12 23  1  0  0  0  0
 13  4  1  0  0  0  0
 14 18  1  6  0  0  0
 15  1  1  0  0  0  0
 16  3  1  6  0  0  0
 16  2  1  0  0  0  0
 17 21  2  0  0  0  0
 18  6  1  0  0  0  0
 19 20  2  0  0  0  0
 20 15  1  0  0  0  0
 21 20  1  0  0  0  0
 21  3  1  0  0  0  0
 22 25  1  0  0  0  0
 23 24  1  0  0  0  0
 24 25  2  0  0  0  0
 26 22  2  0  0  0  0
 27 23  2  0  0  0  0
 27 26  1  0  0  0  0
M  END
>  <MODEL>
9

>  <REMARK>
 VINA RESULT:      -5.3      2.371      4.776
  Name = 
  1 active torsions:
  status: ('A' for Active; 'I' for Inactive)
    1  A    between atoms: C_9  and  N_15
                            x       y       z     vdW  Elec       q    Type
                         _______ _______ _______ _____ _____    ______ ____

>  <TORSDO>
F 1

$$$$
