=
 OpenBabel10262419263D

 31 35  0  0  1  0  0  0  0  0999 V2000
  184.2860  178.7570  143.2460 C   0  0  0  0  0  0  0  0  0  0  0  0
  187.7080  177.1860  144.0340 C   0  0  1  0  0  3  0  0  0  0  0  0
  187.8740  177.4050  145.5440 C   0  0  0  0  0  0  0  0  0  0  0  0
  186.8190  178.8820  147.2260 C   0  0  0  0  0  3  0  0  0  0  0  0
  186.5700  177.9110  143.3210 C   0  0  0  0  0  0  0  0  0  0  0  0
  184.4470  179.1040  141.9050 C   0  0  0  0  0  3  0  0  0  0  0  0
  186.6730  177.6430  146.4100 C   0  0  0  0  0  2  0  0  0  0  0  0
  188.9250  177.1370  141.8300 C   0  0  2  0  0  3  0  0  0  0  0  0
  182.9960  179.0240  143.9340 C   0  0  0  0  0  1  0  0  0  0  0  0
  190.1660  176.5550  145.2980 C   0  0  0  0  0  3  0  0  0  0  0  0
  187.7460  179.0030  148.1730 C   0  0  0  0  0  3  0  0  0  0  0  0
  187.8850  177.9270  141.2590 O   0  0  0  0  0  0  0  0  0  0  0  0
  189.0470  177.4520  143.3180 C   0  0  2  0  0  3  0  0  0  0  0  0
  185.3350  178.1520  143.9410 C   0  0  0  0  0  3  0  0  0  0  0  0
  188.7710  177.9870  148.4660 C   0  0  0  0  0  3  0  0  0  0  0  0
  186.7030  178.2200  141.9470 C   0  0  0  0  0  0  0  0  0  0  0  0
  185.6530  178.8320  141.2560 C   0  0  0  0  0  3  0  0  0  0  0  0
  190.1530  176.6810  143.9720 C   0  0  0  0  0  3  0  0  0  0  0  0
  189.0590  177.0780  146.1250 C   0  0  0  0  0  0  0  0  0  0  0  0
  189.3270  177.1500  147.5800 C   0  0  0  0  0  3  0  0  0  0  0  0
  189.8080  175.9030  139.4160 O   0  0  0  0  0  0  0  0  0  0  0  0
  190.5570  176.7760  139.9330 C   0  0  0  0  0  0  0  0  0  0  0  0
  190.1780  177.4260  141.1470 N   0  0  0  0  0  2  0  0  0  0  0  0
  192.8070  177.5030  140.2090 O   0  0  0  0  0  1  0  0  0  0  0  0
  191.8340  177.1680  139.2630 C   0  0  1  0  0  3  0  0  0  0  0  0
  193.0850  176.0670  136.0960 C   0  0  2  0  0  3  0  0  0  0  0  0
  193.8340  175.9110  138.3500 C   0  0  0  0  0  2  0  0  0  0  0  0
  192.7120  175.1510  135.1130 O   0  0  0  0  0  1  0  0  0  0  0  0
  194.1770  175.4710  136.9570 C   0  0  0  0  0  2  0  0  0  0  0  0
  192.3300  176.0760  138.3150 C   0  0  2  0  0  3  0  0  0  0  0  0
  191.9390  176.3780  136.9430 N   0  0  0  0  0  2  0  0  0  0  0  0
  1  9  1  0  0  0  0
  1 14  1  0  0  0  0
  2  5  1  6  0  0  0
  2  3  1  0  0  0  0
  3 19  2  0  0  0  0
  3  7  1  0  0  0  0
  4 11  2  0  0  0  0
  5 14  2  0  0  0  0
  6  1  2  0  0  0  0
  7  4  1  0  0  0  0
  8 23  1  6  0  0  0
  8 13  1  0  0  0  0
 10 19  1  0  0  0  0
 11 15  1  0  0  0  0
 12  8  1  0  0  0  0
 12 16  1  0  0  0  0
 13 18  1  1  0  0  0
 13  2  1  0  0  0  0
 16  5  1  0  0  0  0
 17  6  1  0  0  0  0
 17 16  2  0  0  0  0
 18 10  2  0  0  0  0
 19 20  1  0  0  0  0
 20 15  2  0  0  0  0
 21 22  2  0  0  0  0
 22 23  1  0  0  0  0
 25 22  1  0  0  0  0
 25 24  1  1  0  0  0
 26 28  1  6  0  0  0
 26 31  1  0  0  0  0
 26 29  1  0  0  0  0
 29 27  1  0  0  0  0
 30 27  1  0  0  0  0
 30 25  1  1  0  0  0
 31 30  1  0  0  0  0
M  END
>  <MODEL>
1

>  <REMARK>
 VINA RESULT:     -10.5      0.000      0.000
  Name = 
  3 active torsions:
  status: ('A' for Active; 'I' for Inactive)
    1  A    between atoms: C_9  and  C_22
    2  A    between atoms: C_15  and  N_23
    3  A    between atoms: C_19  and  C_22
                            x       y       z     vdW  Elec       q    Type
                         _______ _______ _______ _____ _____    ______ ____

>  <TORSDO>
F 3

$$$$
=
 OpenBabel10262419263D

 31 35  0  0  1  0  0  0  0  0999 V2000
  185.0740  178.5760  145.0500 C   0  0  0  0  0  0  0  0  0  0  0  0
  187.9680  177.1570  142.9490 C   0  0  1  0  0  3  0  0  0  0  0  0
  189.0780  176.9020  143.9780 C   0  0  0  0  0  0  0  0  0  0  0  0
  189.5380  177.6690  146.2850 C   0  0  0  0  0  3  0  0  0  0  0  0
  186.7480  177.9620  143.3890 C   0  0  0  0  0  0  0  0  0  0  0  0
  184.3970  179.3420  144.1010 C   0  0  0  0  0  3  0  0  0  0  0  0
  188.7410  176.7440  145.4300 C   0  0  0  0  0  2  0  0  0  0  0  0
  187.4970  177.9180  140.5950 C   0  0  2  0  0  3  0  0  0  0  0  0
  184.5600  178.4920  146.4430 C   0  0  0  0  0  1  0  0  0  0  0  0
  190.5550  176.3880  142.0830 C   0  0  0  0  0  3  0  0  0  0  0  0
  190.8600  177.5700  146.3980 C   0  0  0  0  0  3  0  0  0  0  0  0
  186.4500  178.7490  141.0920 O   0  0  0  0  0  0  0  0  0  0  0  0
  188.5730  177.7570  141.6650 C   0  0  2  0  0  3  0  0  0  0  0  0
  186.2300  177.8810  144.6910 C   0  0  0  0  0  3  0  0  0  0  0  0
  191.6880  176.6120  145.6460 C   0  0  0  0  0  3  0  0  0  0  0  0
  186.0240  178.7000  142.4230 C   0  0  0  0  0  0  0  0  0  0  0  0
  184.8700  179.4000  142.7890 C   0  0  0  0  0  3  0  0  0  0  0  0
  189.7240  176.9240  141.1900 C   0  0  0  0  0  3  0  0  0  0  0  0
  190.3040  176.5190  143.5330 C   0  0  0  0  0  0  0  0  0  0  0  0
  191.4370  176.1520  144.4130 C   0  0  0  0  0  3  0  0  0  0  0  0
  187.0300  177.0280  137.9270 O   0  0  0  0  0  0  0  0  0  0  0  0
  187.7790  178.0300  138.0850 C   0  0  0  0  0  0  0  0  0  0  0  0
  188.0620  178.5220  139.3960 N   0  0  0  0  0  2  0  0  0  0  0  0
  188.9570  179.9400  137.2870 O   0  0  0  0  0  1  0  0  0  0  0  0
  188.3520  178.7390  136.9010 C   0  0  1  0  0  3  0  0  0  0  0  0
  190.2370  175.7220  136.5110 C   0  0  2  0  0  3  0  0  0  0  0  0
  188.6230  176.8810  135.2000 C   0  0  0  0  0  2  0  0  0  0  0  0
  191.5750  175.3680  136.3460 O   0  0  0  0  0  1  0  0  0  0  0  0
  189.5320  175.6880  135.1730 C   0  0  0  0  0  2  0  0  0  0  0  0
  189.3260  177.8480  136.1290 C   0  0  2  0  0  3  0  0  0  0  0  0
  190.1460  177.0730  137.0530 N   0  0  0  0  0  2  0  0  0  0  0  0
  1  9  1  0  0  0  0
  2  5  1  1  0  0  0
  2  3  1  0  0  0  0
  3  7  1  0  0  0  0
  4 11  2  0  0  0  0
  5 14  2  0  0  0  0
  6  1  2  0  0  0  0
  7  4  1  0  0  0  0
  8 23  1  6  0  0  0
  8 12  1  0  0  0  0
  8 13  1  0  0  0  0
 10 19  1  0  0  0  0
 12 16  1  0  0  0  0
 13 18  1  6  0  0  0
 13  2  1  0  0  0  0
 14  1  1  0  0  0  0
 15 11  1  0  0  0  0
 16 17  2  0  0  0  0
 16  5  1  0  0  0  0
 17  6  1  0  0  0  0
 18 10  2  0  0  0  0
 19  3  2  0  0  0  0
 19 20  1  0  0  0  0
 20 15  2  0  0  0  0
 21 22  2  0  0  0  0
 22 23  1  0  0  0  0
 25 24  1  1  0  0  0
 25 22  1  0  0  0  0
 26 28  1  6  0  0  0
 26 31  1  0  0  0  0
 27 30  1  0  0  0  0
 29 27  1  0  0  0  0
 29 26  1  0  0  0  0
 30 25  1  1  0  0  0
 30 31  1  0  0  0  0
M  END
>  <MODEL>
2

>  <REMARK>
 VINA RESULT:     -10.4      2.339      3.149
  Name = 
  3 active torsions:
  status: ('A' for Active; 'I' for Inactive)
    1  A    between atoms: C_9  and  C_22
    2  A    between atoms: C_15  and  N_23
    3  A    between atoms: C_19  and  C_22
                            x       y       z     vdW  Elec       q    Type
                         _______ _______ _______ _____ _____    ______ ____

>  <TORSDO>
F 3

$$$$
=
 OpenBabel10262419263D

 31 35  0  0  1  0  0  0  0  0999 V2000
  187.1540  177.9140  147.2230 C   0  0  0  0  0  0  0  0  0  0  0  0
  187.5090  177.4960  143.4150 C   0  0  1  0  0  3  0  0  0  0  0  0
  189.0260  177.4280  143.1920 C   0  0  0  0  0  0  0  0  0  0  0  0
  191.0200  178.0480  144.5200 C   0  0  0  0  0  3  0  0  0  0  0  0
  186.9990  177.9170  144.7910 C   0  0  0  0  0  0  0  0  0  0  0  0
  185.9290  178.5760  147.3130 C   0  0  0  0  0  3  0  0  0  0  0  0
  189.9380  177.0420  144.3180 C   0  0  0  0  0  2  0  0  0  0  0  0
  185.3400  178.3490  142.4620 C   0  0  2  0  0  3  0  0  0  0  0  0
  187.9020  177.5620  148.4590 C   0  0  0  0  0  1  0  0  0  0  0  0
  188.5580  177.5000  140.7810 C   0  0  0  0  0  3  0  0  0  0  0  0
  191.9570  178.2760  143.6030 C   0  0  0  0  0  3  0  0  0  0  0  0
  184.9820  178.8320  143.7550 O   0  0  0  0  0  0  0  0  0  0  0  0
  186.8580  178.3580  142.3150 C   0  0  2  0  0  3  0  0  0  0  0  0
  187.6750  177.5750  145.9730 C   0  0  0  0  0  3  0  0  0  0  0  0
  191.9910  177.6400  142.2740 C   0  0  0  0  0  3  0  0  0  0  0  0
  185.7350  178.5420  144.8970 C   0  0  0  0  0  0  0  0  0  0  0  0
  185.2200  178.8850  146.1510 C   0  0  0  0  0  3  0  0  0  0  0  0
  187.2990  177.8960  140.9590 C   0  0  0  0  0  3  0  0  0  0  0  0
  189.4990  177.4150  141.9180 C   0  0  0  0  0  0  0  0  0  0  0  0
  190.9270  177.2600  141.5560 C   0  0  0  0  0  3  0  0  0  0  0  0
  183.2820  177.5360  140.6630 O   0  0  0  0  0  0  0  0  0  0  0  0
  183.6920  178.7260  140.5810 C   0  0  0  0  0  0  0  0  0  0  0  0
  184.7270  179.1950  141.4460 N   0  0  0  0  0  2  0  0  0  0  0  0
  184.0620  180.3630  138.8920 O   0  0  0  0  0  1  0  0  0  0  0  0
  183.0760  179.6720  139.6020 C   0  0  1  0  0  3  0  0  0  0  0  0
  181.0200  179.5630  136.6750 C   0  0  2  0  0  3  0  0  0  0  0  0
  182.8180  178.2520  137.5210 C   0  0  0  0  0  2  0  0  0  0  0  0
  179.6780  179.3270  136.3780 O   0  0  0  0  0  1  0  0  0  0  0  0
  181.8300  178.3180  136.3930 C   0  0  0  0  0  2  0  0  0  0  0  0
  182.1100  178.9540  138.6590 C   0  0  2  0  0  3  0  0  0  0  0  0
  181.1610  179.9020  138.0870 N   0  0  0  0  0  2  0  0  0  0  0  0
  1  6  1  0  0  0  0
  1  9  1  0  0  0  0
  2  3  1  1  0  0  0
  2  5  1  0  0  0  0
  3  7  1  0  0  0  0
  5 16  2  0  0  0  0
  5 14  1  0  0  0  0
  7  4  1  0  0  0  0
  8 23  1  6  0  0  0
  8 12  1  0  0  0  0
 10 18  2  0  0  0  0
 10 19  1  0  0  0  0
 11  4  2  0  0  0  0
 12 16  1  0  0  0  0
 13 18  1  6  0  0  0
 13  8  1  0  0  0  0
 13  2  1  0  0  0  0
 14  1  2  0  0  0  0
 15 11  1  0  0  0  0
 16 17  1  0  0  0  0
 17  6  2  0  0  0  0
 19  3  2  0  0  0  0
 20 19  1  0  0  0  0
 20 15  2  0  0  0  0
 22 21  2  0  0  0  0
 22 23  1  0  0  0  0
 25 24  1  6  0  0  0
 25 22  1  0  0  0  0
 26 28  1  1  0  0  0
 26 31  1  0  0  0  0
 27 30  1  0  0  0  0
 29 26  1  0  0  0  0
 29 27  1  0  0  0  0
 30 25  1  1  0  0  0
 31 30  1  0  0  0  0
M  END
>  <MODEL>
3

>  <REMARK>
 VINA RESULT:     -10.0      4.058      7.186
  Name = 
  3 active torsions:
  status: ('A' for Active; 'I' for Inactive)
    1  A    between atoms: C_9  and  C_22
    2  A    between atoms: C_15  and  N_23
    3  A    between atoms: C_19  and  C_22
                            x       y       z     vdW  Elec       q    Type
                         _______ _______ _______ _____ _____    ______ ____

>  <TORSDO>
F 3

$$$$
=
 OpenBabel10262419263D

 31 35  0  0  1  0  0  0  0  0999 V2000
  191.0770  177.3360  140.6010 C   0  0  0  0  0  0  0  0  0  0  0  0
  189.2660  177.9780  143.9340 C   0  0  1  0  0  3  0  0  0  0  0  0
  190.1970  177.3560  144.9840 C   0  0  0  0  0  0  0  0  0  0  0  0
  192.0600  175.7280  144.9290 C   0  0  0  0  0  3  0  0  0  0  0  0
  189.5420  177.6870  142.4620 C   0  0  0  0  0  0  0  0  0  0  0  0
  190.0060  177.3160  139.7080 C   0  0  0  0  0  3  0  0  0  0  0  0
  191.6470  177.1380  144.6730 C   0  0  0  0  0  2  0  0  0  0  0  0
  186.8560  178.3520  143.3040 C   0  0  2  0  0  3  0  0  0  0  0  0
  192.4650  177.1530  140.1030 C   0  0  0  0  0  1  0  0  0  0  0  0
  188.4310  177.7900  146.6370 C   0  0  0  0  0  3  0  0  0  0  0  0
  192.0590  175.1980  146.1480 C   0  0  0  0  0  3  0  0  0  0  0  0
  187.1600  177.9450  141.9720 O   0  0  0  0  0  0  0  0  0  0  0  0
  187.7990  177.6530  144.2790 C   0  0  2  0  0  3  0  0  0  0  0  0
  190.8460  177.5340  141.9640 C   0  0  0  0  0  3  0  0  0  0  0  0
  191.5800  175.8930  147.3560 C   0  0  0  0  0  3  0  0  0  0  0  0
  188.4700  177.7160  141.5390 C   0  0  0  0  0  0  0  0  0  0  0  0
  188.7050  177.5100  140.1760 C   0  0  0  0  0  3  0  0  0  0  0  0
  187.5050  178.0090  145.7050 C   0  0  0  0  0  3  0  0  0  0  0  0
  189.7760  177.2940  146.2750 C   0  0  0  0  0  0  0  0  0  0  0  0
  190.6020  176.8070  147.4040 C   0  0  0  0  0  3  0  0  0  0  0  0
  184.7840  180.2310  143.8590 O   0  0  0  0  0  0  0  0  0  0  0  0
  184.4800  179.0070  143.8680 C   0  0  0  0  0  0  0  0  0  0  0  0
  185.4720  178.0130  143.6070 N   0  0  0  0  0  2  0  0  0  0  0  0
  182.6560  178.9540  145.3970 O   0  0  0  0  0  1  0  0  0  0  0  0
  183.0690  178.5810  144.1140 C   0  0  1  0  0  3  0  0  0  0  0  0
  181.2680  178.2630  141.0380 C   0  0  2  0  0  3  0  0  0  0  0  0
  180.6780  178.7460  143.2930 C   0  0  0  0  0  2  0  0  0  0  0  0
  181.1870  178.9480  139.8260 O   0  0  0  0  0  1  0  0  0  0  0  0
  180.0950  178.6400  141.9150 C   0  0  0  0  0  2  0  0  0  0  0  0
  182.1230  179.1250  143.0430 C   0  0  2  0  0  3  0  0  0  0  0  0
  182.5020  178.6220  141.7280 N   0  0  0  0  0  2  0  0  0  0  0  0
  1 14  1  0  0  0  0
  2  5  1  6  0  0  0
  2 13  1  0  0  0  0
  2  3  1  0  0  0  0
  3 19  2  0  0  0  0
  4 11  2  0  0  0  0
  6 17  1  0  0  0  0
  6  1  2  0  0  0  0
  7  4  1  0  0  0  0
  7  3  1  0  0  0  0
  8 23  1  1  0  0  0
  8 13  1  0  0  0  0
  9  1  1  0  0  0  0
 11 15  1  0  0  0  0
 12  8  1  0  0  0  0
 13 18  1  1  0  0  0
 14  5  2  0  0  0  0
 15 20  2  0  0  0  0
 16 12  1  0  0  0  0
 16  5  1  0  0  0  0
 17 16  2  0  0  0  0
 18 10  2  0  0  0  0
 19 10  1  0  0  0  0
 19 20  1  0  0  0  0
 21 22  2  0  0  0  0
 22 25  1  0  0  0  0
 23 22  1  0  0  0  0
 25 24  1  1  0  0  0
 26 28  1  6  0  0  0
 26 31  1  0  0  0  0
 26 29  1  0  0  0  0
 29 27  1  0  0  0  0
 30 27  1  0  0  0  0
 30 25  1  1  0  0  0
 31 30  1  0  0  0  0
M  END
>  <MODEL>
4

>  <REMARK>
 VINA RESULT:     -10.0      3.294      7.700
  Name = 
  3 active torsions:
  status: ('A' for Active; 'I' for Inactive)
    1  A    between atoms: C_9  and  C_22
    2  A    between atoms: C_15  and  N_23
    3  A    between atoms: C_19  and  C_22
                            x       y       z     vdW  Elec       q    Type
                         _______ _______ _______ _____ _____    ______ ____

>  <TORSDO>
F 3

$$$$
=
 OpenBabel10262419263D

 31 35  0  0  1  0  0  0  0  0999 V2000
  187.1460  177.8810  147.3090 C   0  0  0  0  0  0  0  0  0  0  0  0
  187.4650  177.4860  143.4960 C   0  0  1  0  0  3  0  0  0  0  0  0
  188.9800  177.5010  143.2500 C   0  0  0  0  0  0  0  0  0  0  0  0
  190.9570  178.2290  144.5470 C   0  0  0  0  0  3  0  0  0  0  0  0
  186.9540  177.8780  144.8800 C   0  0  0  0  0  0  0  0  0  0  0  0
  185.8880  178.4750  147.4180 C   0  0  0  0  0  3  0  0  0  0  0  0
  189.9290  177.1660  144.3610 C   0  0  0  0  0  2  0  0  0  0  0  0
  185.2380  178.2190  142.5770 C   0  0  2  0  0  3  0  0  0  0  0  0
  187.9300  177.5700  148.5330 C   0  0  0  0  0  1  0  0  0  0  0  0
  188.4720  177.5500  140.8460 C   0  0  0  0  0  3  0  0  0  0  0  0
  191.8660  178.5090  143.6170 C   0  0  0  0  0  3  0  0  0  0  0  0
  184.8740  178.6810  143.8760 O   0  0  0  0  0  0  0  0  0  0  0  0
  186.7510  178.3110  142.4070 C   0  0  2  0  0  3  0  0  0  0  0  0
  187.6660  177.5730  146.0510 C   0  0  0  0  0  3  0  0  0  0  0  0
  191.9140  177.8780  142.2870 C   0  0  0  0  0  3  0  0  0  0  0  0
  185.6590  178.4310  145.0060 C   0  0  0  0  0  0  0  0  0  0  0  0
  185.1450  178.7450  146.2680 C   0  0  0  0  0  3  0  0  0  0  0  0
  187.1960  177.8760  141.0440 C   0  0  0  0  0  3  0  0  0  0  0  0
  189.4340  177.5160  141.9690 C   0  0  0  0  0  0  0  0  0  0  0  0
  190.8620  177.4390  141.5840 C   0  0  0  0  0  3  0  0  0  0  0  0
  183.4300  177.2330  140.6030 O   0  0  0  0  0  0  0  0  0  0  0  0
  183.6620  178.4730  140.6150 C   0  0  0  0  0  0  0  0  0  0  0  0
  184.5640  179.0300  141.5720 N   0  0  0  0  0  2  0  0  0  0  0  0
  183.2990  179.0510  138.3350 O   0  0  0  0  0  1  0  0  0  0  0  0
  182.9670  179.3800  139.6530 C   0  0  1  0  0  3  0  0  0  0  0  0
  180.0410  180.2040  141.5410 C   0  0  2  0  0  3  0  0  0  0  0  0
  180.7790  180.6100  139.3140 C   0  0  0  0  0  2  0  0  0  0  0  0
  178.9730  179.5200  142.1190 O   0  0  0  0  0  1  0  0  0  0  0  0
  179.6050  180.8120  140.2260 C   0  0  0  0  0  2  0  0  0  0  0  0
  181.4530  179.3720  139.8650 C   0  0  2  0  0  3  0  0  0  0  0  0
  181.1410  179.2800  141.2870 N   0  0  0  0  0  2  0  0  0  0  0  0
  1  6  1  0  0  0  0
  1  9  1  0  0  0  0
  2  3  1  1  0  0  0
  2  5  1  0  0  0  0
  3  7  1  0  0  0  0
  5 16  2  0  0  0  0
  5 14  1  0  0  0  0
  7  4  1  0  0  0  0
  8 23  1  6  0  0  0
  8 12  1  0  0  0  0
 10 18  2  0  0  0  0
 10 19  1  0  0  0  0
 11  4  2  0  0  0  0
 12 16  1  0  0  0  0
 13 18  1  6  0  0  0
 13  8  1  0  0  0  0
 13  2  1  0  0  0  0
 14  1  2  0  0  0  0
 15 11  1  0  0  0  0
 16 17  1  0  0  0  0
 17  6  2  0  0  0  0
 19  3  2  0  0  0  0
 20 19  1  0  0  0  0
 20 15  2  0  0  0  0
 21 22  2  0  0  0  0
 22 23  1  0  0  0  0
 25 24  1  6  0  0  0
 25 22  1  0  0  0  0
 26 28  1  6  0  0  0
 27 30  1  0  0  0  0
 27 29  1  0  0  0  0
 29 26  1  0  0  0  0
 30 25  1  1  0  0  0
 30 31  1  0  0  0  0
 31 26  1  0  0  0  0
M  END
>  <MODEL>
5

>  <REMARK>
 VINA RESULT:      -9.7      4.087      7.886
  Name = 
  3 active torsions:
  status: ('A' for Active; 'I' for Inactive)
    1  A    between atoms: C_9  and  C_22
    2  A    between atoms: C_15  and  N_23
    3  A    between atoms: C_19  and  C_22
                            x       y       z     vdW  Elec       q    Type
                         _______ _______ _______ _____ _____    ______ ____

>  <TORSDO>
F 3

$$$$
=
 OpenBabel10262419263D

 31 35  0  0  1  0  0  0  0  0999 V2000
  191.6390  177.4470  140.5560 C   0  0  0  0  0  0  0  0  0  0  0  0
  189.2850  178.0570  143.5370 C   0  0  1  0  0  3  0  0  0  0  0  0
  190.0640  177.5080  144.7390 C   0  0  0  0  0  0  0  0  0  0  0  0
  191.9920  175.9830  145.0290 C   0  0  0  0  0  3  0  0  0  0  0  0
  189.8090  177.7510  142.1360 C   0  0  0  0  0  0  0  0  0  0  0  0
  190.7290  177.3510  139.5030 C   0  0  0  0  0  3  0  0  0  0  0  0
  191.5550  177.3630  144.6710 C   0  0  0  0  0  2  0  0  0  0  0  0
  186.9930  178.2870  142.5190 C   0  0  2  0  0  3  0  0  0  0  0  0
  193.0970  177.3290  140.2910 C   0  0  0  0  0  1  0  0  0  0  0  0
  188.0360  177.8790  146.0760 C   0  0  0  0  0  3  0  0  0  0  0  0
  191.8210  175.4780  146.2470 C   0  0  0  0  0  3  0  0  0  0  0  0
  187.5270  177.8700  141.2650 O   0  0  0  0  0  0  0  0  0  0  0  0
  187.7990  177.6600  143.6520 C   0  0  2  0  0  3  0  0  0  0  0  0
  191.1820  177.6600  141.8570 C   0  0  0  0  0  3  0  0  0  0  0  0
  191.1200  176.1710  147.3420 C   0  0  0  0  0  3  0  0  0  0  0  0
  188.9000  177.7040  141.0540 C   0  0  0  0  0  0  0  0  0  0  0  0
  189.3610  177.4840  139.7520 C   0  0  0  0  0  3  0  0  0  0  0  0
  187.2630  178.0290  145.0010 C   0  0  0  0  0  3  0  0  0  0  0  0
  189.4450  177.4490  145.9480 C   0  0  0  0  0  0  0  0  0  0  0  0
  190.1020  177.0310  147.2070 C   0  0  0  0  0  3  0  0  0  0  0  0
  184.8500  179.4200  141.0170 O   0  0  0  0  0  0  0  0  0  0  0  0
  184.5720  178.4850  141.8170 C   0  0  0  0  0  0  0  0  0  0  0  0
  185.5970  177.8800  142.6060 N   0  0  0  0  0  2  0  0  0  0  0  0
  182.4270  178.7490  142.8160 O   0  0  0  0  0  1  0  0  0  0  0  0
  183.1720  177.9730  141.9230 C   0  0  1  0  0  3  0  0  0  0  0  0
  181.7190  176.1350  139.2170 C   0  0  2  0  0  3  0  0  0  0  0  0
  180.9850  177.8920  140.6460 C   0  0  0  0  0  2  0  0  0  0  0  0
  181.9300  176.0000  137.8450 O   0  0  0  0  0  1  0  0  0  0  0  0
  180.5590  177.0730  139.4630 C   0  0  0  0  0  2  0  0  0  0  0  0
  182.4960  177.8980  140.5530 C   0  0  2  0  0  3  0  0  0  0  0  0
  182.9120  176.6910  139.8480 N   0  0  0  0  0  2  0  0  0  0  0  0
  1 14  1  0  0  0  0
  2  5  1  6  0  0  0
  2 13  1  0  0  0  0
  2  3  1  0  0  0  0
  3 19  2  0  0  0  0
  4 11  2  0  0  0  0
  6 17  1  0  0  0  0
  6  1  2  0  0  0  0
  7  3  1  0  0  0  0
  7  4  1  0  0  0  0
  8 23  1  1  0  0  0
  8 13  1  0  0  0  0
  9  1  1  0  0  0  0
 11 15  1  0  0  0  0
 12  8  1  0  0  0  0
 13 18  1  1  0  0  0
 14  5  2  0  0  0  0
 16 12  1  0  0  0  0
 16  5  1  0  0  0  0
 17 16  2  0  0  0  0
 18 10  2  0  0  0  0
 19 10  1  0  0  0  0
 19 20  1  0  0  0  0
 20 15  2  0  0  0  0
 21 22  2  0  0  0  0
 22 25  1  0  0  0  0
 22 23  1  0  0  0  0
 25 24  1  1  0  0  0
 26 28  1  6  0  0  0
 26 29  1  0  0  0  0
 26 31  1  0  0  0  0
 29 27  1  0  0  0  0
 30 27  1  0  0  0  0
 30 25  1  1  0  0  0
 31 30  1  0  0  0  0
M  END
>  <MODEL>
6

>  <REMARK>
 VINA RESULT:      -9.7      3.097      7.140
  Name = 
  3 active torsions:
  status: ('A' for Active; 'I' for Inactive)
    1  A    between atoms: C_9  and  C_22
    2  A    between atoms: C_15  and  N_23
    3  A    between atoms: C_19  and  C_22
                            x       y       z     vdW  Elec       q    Type
                         _______ _______ _______ _____ _____    ______ ____

>  <TORSDO>
F 3

$$$$
=
 OpenBabel10262419263D

 31 35  0  0  1  0  0  0  0  0999 V2000
  185.3030  178.2870  145.3060 C   0  0  0  0  0  0  0  0  0  0  0  0
  188.6390  176.8390  144.0520 C   0  0  1  0  0  3  0  0  0  0  0  0
  189.5100  176.7750  145.3140 C   0  0  0  0  0  0  0  0  0  0  0  0
  189.4270  177.8260  147.5530 C   0  0  0  0  0  3  0  0  0  0  0  0
  187.3210  177.6050  144.1220 C   0  0  0  0  0  0  0  0  0  0  0  0
  184.8160  178.8940  144.1480 C   0  0  0  0  0  3  0  0  0  0  0  0
  188.8730  176.7590  146.6710 C   0  0  0  0  0  2  0  0  0  0  0  0
  188.6590  177.2980  141.5760 C   0  0  2  0  0  3  0  0  0  0  0  0
  184.5040  178.3260  146.5590 C   0  0  0  0  0  1  0  0  0  0  0  0
  191.3820  176.1520  143.8510 C   0  0  0  0  0  3  0  0  0  0  0  0
  190.6950  177.8290  147.9530 C   0  0  0  0  0  3  0  0  0  0  0  0
  187.4960  178.1070  141.7350 O   0  0  0  0  0  0  0  0  0  0  0  0
  189.4830  177.3300  142.8590 C   0  0  2  0  0  3  0  0  0  0  0  0
  186.5370  177.6350  145.2860 C   0  0  0  0  0  3  0  0  0  0  0  0
  191.7060  176.8500  147.5170 C   0  0  0  0  0  3  0  0  0  0  0  0
  186.7930  178.1790  142.9420 C   0  0  0  0  0  0  0  0  0  0  0  0
  185.5590  178.8370  142.9680 C   0  0  0  0  0  3  0  0  0  0  0  0
  190.7430  176.5280  142.7440 C   0  0  0  0  0  3  0  0  0  0  0  0
  190.8180  176.4280  145.1890 C   0  0  0  0  0  0  0  0  0  0  0  0
  191.7480  176.2390  146.3260 C   0  0  0  0  0  3  0  0  0  0  0  0
  189.6770  175.7120  139.4360 O   0  0  0  0  0  0  0  0  0  0  0  0
  189.9170  176.9500  139.4110 C   0  0  0  0  0  0  0  0  0  0  0  0
  189.4440  177.8000  140.4570 N   0  0  0  0  0  2  0  0  0  0  0  0
  191.7330  176.7270  137.8870 O   0  0  0  0  0  1  0  0  0  0  0  0
  190.6690  177.5510  138.2680 C   0  0  1  0  0  3  0  0  0  0  0  0
  187.5290  177.2960  136.5700 C   0  0  2  0  0  3  0  0  0  0  0  0
  188.9090  179.0940  137.2980 C   0  0  0  0  0  2  0  0  0  0  0  0
  187.0690  176.8400  135.3350 O   0  0  0  0  0  1  0  0  0  0  0  0
  187.6450  178.8040  136.5440 C   0  0  0  0  0  2  0  0  0  0  0  0
  189.7470  177.8510  137.0850 C   0  0  2  0  0  3  0  0  0  0  0  0
  188.8440  176.7310  136.8480 N   0  0  0  0  0  2  0  0  0  0  0  0
  1  9  1  0  0  0  0
  2  5  1  1  0  0  0
  2  3  1  0  0  0  0
  3  7  1  0  0  0  0
  4 11  2  0  0  0  0
  5 14  2  0  0  0  0
  6  1  2  0  0  0  0
  7  4  1  0  0  0  0
  8 23  1  6  0  0  0
  8 12  1  0  0  0  0
  8 13  1  0  0  0  0
 10 19  1  0  0  0  0
 12 16  1  0  0  0  0
 13 18  1  6  0  0  0
 13  2  1  0  0  0  0
 14  1  1  0  0  0  0
 15 11  1  0  0  0  0
 16 17  2  0  0  0  0
 16  5  1  0  0  0  0
 17  6  1  0  0  0  0
 18 10  2  0  0  0  0
 19  3  2  0  0  0  0
 19 20  1  0  0  0  0
 20 15  2  0  0  0  0
 22 21  2  0  0  0  0
 22 23  1  0  0  0  0
 25 24  1  6  0  0  0
 25 22  1  0  0  0  0
 26 28  1  6  0  0  0
 26 31  1  0  0  0  0
 29 26  1  0  0  0  0
 29 27  1  0  0  0  0
 30 27  1  0  0  0  0
 30 25  1  1  0  0  0
 31 30  1  0  0  0  0
M  END
>  <MODEL>
7

>  <REMARK>
 VINA RESULT:      -9.6      2.170      2.987
  Name = 
  3 active torsions:
  status: ('A' for Active; 'I' for Inactive)
    1  A    between atoms: C_9  and  C_22
    2  A    between atoms: C_15  and  N_23
    3  A    between atoms: C_19  and  C_22
                            x       y       z     vdW  Elec       q    Type
                         _______ _______ _______ _____ _____    ______ ____

>  <TORSDO>
F 3

$$$$
=
 OpenBabel10262419263D

 31 35  0  0  1  0  0  0  0  0999 V2000
  190.8630  176.7530  145.8660 C   0  0  0  0  0  0  0  0  0  0  0  0
  188.2640  178.2750  143.4740 C   0  0  1  0  0  3  0  0  0  0  0  0
  187.0180  178.4580  144.3520 C   0  0  0  0  0  0  0  0  0  0  0  0
  186.2580  177.5470  146.5230 C   0  0  0  0  0  3  0  0  0  0  0  0
  189.4240  177.4540  144.0290 C   0  0  0  0  0  0  0  0  0  0  0  0
  191.6770  176.0510  144.9750 C   0  0  0  0  0  3  0  0  0  0  0  0
  187.1500  178.5300  145.8440 C   0  0  0  0  0  2  0  0  0  0  0  0
  189.0650  177.6640  141.1660 C   0  0  2  0  0  3  0  0  0  0  0  0
  191.1790  176.7540  147.3180 C   0  0  0  0  0  1  0  0  0  0  0  0
  185.8080  179.0760  142.3050 C   0  0  0  0  0  3  0  0  0  0  0  0
  184.9320  177.6290  146.4590 C   0  0  0  0  0  3  0  0  0  0  0  0
  190.0470  176.8120  141.7520 O   0  0  0  0  0  0  0  0  0  0  0  0
  187.8500  177.7500  142.0840 C   0  0  2  0  0  3  0  0  0  0  0  0
  189.7560  177.4590  145.3920 C   0  0  0  0  0  3  0  0  0  0  0  0
  184.2000  178.6250  145.6580 C   0  0  0  0  0  3  0  0  0  0  0  0
  190.2860  176.7820  143.1300 C   0  0  0  0  0  0  0  0  0  0  0  0
  191.3900  176.0700  143.6090 C   0  0  0  0  0  3  0  0  0  0  0  0
  186.7620  178.6020  141.5050 C   0  0  0  0  0  3  0  0  0  0  0  0
  185.8590  178.8590  143.7660 C   0  0  0  0  0  0  0  0  0  0  0  0
  184.6100  179.1620  144.5010 C   0  0  0  0  0  3  0  0  0  0  0  0
  189.0540  179.1310  138.7210 O   0  0  0  0  0  0  0  0  0  0  0  0
  188.7060  177.9200  138.6760 C   0  0  0  0  0  0  0  0  0  0  0  0
  188.6810  177.1300  139.8660 N   0  0  0  0  0  2  0  0  0  0  0  0
  188.3890  175.8900  137.4730 O   0  0  0  0  0  1  0  0  0  0  0  0
  188.3510  177.2840  137.3720 C   0  0  1  0  0  3  0  0  0  0  0  0
  185.0520  176.6820  136.1200 C   0  0  2  0  0  3  0  0  0  0  0  0
  185.9620  177.8830  137.9640 C   0  0  0  0  0  2  0  0  0  0  0  0
  184.3120  177.0210  134.9880 O   0  0  0  0  0  1  0  0  0  0  0  0
  184.6650  177.5850  137.2700 C   0  0  0  0  0  2  0  0  0  0  0  0
  186.9930  177.7680  136.8610 C   0  0  2  0  0  3  0  0  0  0  0  0
  186.4760  176.8540  135.8500 N   0  0  0  0  0  2  0  0  0  0  0  0
  1  9  1  0  0  0  0
  2  5  1  1  0  0  0
  2  3  1  0  0  0  0
  3  7  1  0  0  0  0
  5 14  2  0  0  0  0
  6  1  2  0  0  0  0
  7  4  1  0  0  0  0
  8 23  1  6  0  0  0
  8 12  1  0  0  0  0
  8 13  1  0  0  0  0
 10 19  1  0  0  0  0
 11  4  2  0  0  0  0
 12 16  1  0  0  0  0
 13 18  1  6  0  0  0
 13  2  1  0  0  0  0
 14  1  1  0  0  0  0
 15 11  1  0  0  0  0
 16 17  2  0  0  0  0
 16  5  1  0  0  0  0
 17  6  1  0  0  0  0
 18 10  2  0  0  0  0
 19  3  2  0  0  0  0
 19 20  1  0  0  0  0
 20 15  2  0  0  0  0
 22 21  2  0  0  0  0
 22 23  1  0  0  0  0
 25 24  1  1  0  0  0
 25 22  1  0  0  0  0
 26 28  1  6  0  0  0
 26 29  1  0  0  0  0
 29 27  1  0  0  0  0
 30 25  1  1  0  0  0
 30 27  1  0  0  0  0
 31 26  1  0  0  0  0
 31 30  1  0  0  0  0
M  END
>  <MODEL>
8

>  <REMARK>
 VINA RESULT:      -9.3      2.778      5.404
  Name = 
  3 active torsions:
  status: ('A' for Active; 'I' for Inactive)
    1  A    between atoms: C_9  and  C_22
    2  A    between atoms: C_15  and  N_23
    3  A    between atoms: C_19  and  C_22
                            x       y       z     vdW  Elec       q    Type
                         _______ _______ _______ _____ _____    ______ ____

>  <TORSDO>
F 3

$$$$
=
 OpenBabel10262419263D

 31 35  0  0  1  0  0  0  0  0999 V2000
  190.8570  176.7510  145.8500 C   0  0  0  0  0  0  0  0  0  0  0  0
  188.2640  178.2740  143.4510 C   0  0  1  0  0  3  0  0  0  0  0  0
  187.0160  178.4590  144.3260 C   0  0  0  0  0  0  0  0  0  0  0  0
  186.2500  177.5490  146.4960 C   0  0  0  0  0  3  0  0  0  0  0  0
  189.4230  177.4530  144.0090 C   0  0  0  0  0  0  0  0  0  0  0  0
  191.6720  176.0490  144.9620 C   0  0  0  0  0  3  0  0  0  0  0  0
  187.1450  178.5300  145.8180 C   0  0  0  0  0  2  0  0  0  0  0  0
  189.0710  177.6610  141.1460 C   0  0  2  0  0  3  0  0  0  0  0  0
  191.1690  176.7530  147.3040 C   0  0  0  0  0  1  0  0  0  0  0  0
  185.8120  179.0760  142.2760 C   0  0  0  0  0  3  0  0  0  0  0  0
  184.9240  177.6320  146.4280 C   0  0  0  0  0  3  0  0  0  0  0  0
  190.0510  176.8090  141.7350 O   0  0  0  0  0  0  0  0  0  0  0  0
  187.8540  177.7490  142.0600 C   0  0  2  0  0  3  0  0  0  0  0  0
  189.7510  177.4580  145.3740 C   0  0  0  0  0  3  0  0  0  0  0  0
  184.1950  178.6280  145.6240 C   0  0  0  0  0  3  0  0  0  0  0  0
  190.2860  176.7800  143.1130 C   0  0  0  0  0  0  0  0  0  0  0  0
  191.3890  176.0680  143.5950 C   0  0  0  0  0  3  0  0  0  0  0  0
  186.7680  178.6020  141.4790 C   0  0  0  0  0  3  0  0  0  0  0  0
  185.8590  178.8590  143.7370 C   0  0  0  0  0  0  0  0  0  0  0  0
  184.6080  179.1640  144.4690 C   0  0  0  0  0  3  0  0  0  0  0  0
  189.0550  179.1310  138.7020 O   0  0  0  0  0  0  0  0  0  0  0  0
  188.7130  177.9180  138.6560 C   0  0  0  0  0  0  0  0  0  0  0  0
  188.6900  177.1280  139.8450 N   0  0  0  0  0  2  0  0  0  0  0  0
  187.9520  178.2460  136.4230 O   0  0  0  0  0  1  0  0  0  0  0  0
  188.3610  177.2820  137.3500 C   0  0  1  0  0  3  0  0  0  0  0  0
  191.5230  175.6480  137.7210 C   0  0  2  0  0  3  0  0  0  0  0  0
  189.3380  174.9610  137.0730 C   0  0  0  0  0  2  0  0  0  0  0  0
  192.7720  175.6870  137.1010 O   0  0  0  0  0  1  0  0  0  0  0  0
  190.7430  174.4540  137.2190 C   0  0  0  0  0  2  0  0  0  0  0  0
  189.5160  176.4410  136.8060 C   0  0  2  0  0  3  0  0  0  0  0  0
  190.7770  176.8610  137.4060 N   0  0  0  0  0  2  0  0  0  0  0  0
  1  9  1  0  0  0  0
  2  5  1  1  0  0  0
  2  3  1  0  0  0  0
  3  7  1  0  0  0  0
  5 14  2  0  0  0  0
  6  1  2  0  0  0  0
  7  4  1  0  0  0  0
  8 23  1  6  0  0  0
  8 12  1  0  0  0  0
  8 13  1  0  0  0  0
 10 19  1  0  0  0  0
 11  4  2  0  0  0  0
 12 16  1  0  0  0  0
 13 18  1  6  0  0  0
 13  2  1  0  0  0  0
 14  1  1  0  0  0  0
 15 11  1  0  0  0  0
 16 17  2  0  0  0  0
 16  5  1  0  0  0  0
 17  6  1  0  0  0  0
 18 10  2  0  0  0  0
 19  3  2  0  0  0  0
 19 20  1  0  0  0  0
 20 15  2  0  0  0  0
 22 21  2  0  0  0  0
 22 23  1  0  0  0  0
 25 24  1  6  0  0  0
 25 22  1  0  0  0  0
 26 28  1  6  0  0  0
 27 29  1  0  0  0  0
 29 26  1  0  0  0  0
 30 27  1  0  0  0  0
 30 25  1  1  0  0  0
 30 31  1  0  0  0  0
 31 26  1  0  0  0  0
M  END
>  <MODEL>
9

>  <REMARK>
 VINA RESULT:      -9.3      1.974      4.425
  Name = 
  3 active torsions:
  status: ('A' for Active; 'I' for Inactive)
    1  A    between atoms: C_9  and  C_22
    2  A    between atoms: C_15  and  N_23
    3  A    between atoms: C_19  and  C_22
                            x       y       z     vdW  Elec       q    Type
                         _______ _______ _______ _____ _____    ______ ____

>  <TORSDO>
F 3

$$$$
