=
 OpenBabel10262419303D

 31 34  0  0  1  0  0  0  0  0999 V2000
  184.4080  178.5550  145.5300 C   0  0  0  0  0  0  0  0  0  0  0  0
  186.2300  178.1710  142.3430 C   0  0  1  0  0  3  0  0  0  0  0  0
  187.5790  177.6070  142.6940 C   0  0  0  0  0  0  0  0  0  0  0  0
  189.2550  176.7110  144.3710 C   0  0  0  0  0  2  0  0  0  0  0  0
  185.2370  178.4220  143.2370 C   0  0  0  0  0  0  0  0  0  0  0  0
  183.2210  179.1290  145.0820 C   0  0  0  0  0  3  0  0  0  0  0  0
  187.7900  176.8310  143.9780 C   0  0  0  0  0  2  0  0  0  0  0  0
  184.6660  178.7490  140.4560 C   0  0  1  0  0  3  0  0  0  0  0  0
  184.6020  178.3310  146.8860 O   0  0  0  0  0  1  0  0  0  0  0  0
  188.3260  178.2230  140.4260 C   0  0  0  0  0  3  0  0  0  0  0  0
  190.0330  176.1730  143.1880 C   0  0  2  0  0  3  0  0  0  0  0  0
  183.7720  179.1830  141.5290 N   0  0  0  0  0  2  0  0  0  0  0  0
  186.0180  178.5620  140.9710 N   0  0  0  0  0  0  0  0  0  0  0  0
  185.4060  178.2140  144.6170 C   0  0  0  0  0  3  0  0  0  0  0  0
  191.7290  175.9140  143.6530 Cl  0  0  0  0  0  0  0  0  0  0  0  0
  184.0110  178.9880  142.7920 C   0  0  0  0  0  0  0  0  0  0  0  0
  183.0260  179.3470  143.7180 C   0  0  0  0  0  3  0  0  0  0  0  0
  187.1180  178.6380  140.0590 C   0  0  0  0  0  3  0  0  0  0  0  0
  188.5630  177.6450  141.7590 C   0  0  0  0  0  0  0  0  0  0  0  0
  189.9670  177.1830  142.0510 C   0  0  0  0  0  2  0  0  0  0  0  0
  182.8870  177.1330  139.8830 C   0  0  0  0  0  3  0  0  0  0  0  0
  184.1780  177.4500  139.9010 C   0  0  0  0  0  3  0  0  0  0  0  0
  182.4670  175.8040  139.3420 C   0  0  0  0  0  2  0  0  0  0  0  0
  182.9730  175.5920  137.9160 C   0  0  0  0  0  2  0  0  0  0  0  0
  183.4500  174.1660  137.6490 C   0  0  0  0  0  2  0  0  0  0  0  0
  185.6650  173.0760  137.6390 C   0  0  0  0  0  1  0  0  0  0  0  0
  184.8140  174.1450  136.9810 C   0  0  2  0  0  3  0  0  0  0  0  0
  186.3810  175.9830  136.2090 C   0  0  0  0  0  0  0  0  0  0  0  0
  186.6840  175.3470  135.1650 O   0  0  0  0  0  0  0  0  0  0  0  0
  186.9990  177.3090  136.4700 C   0  0  0  0  0  1  0  0  0  0  0  0
  185.4480  175.4450  137.1470 N   0  0  0  0  0  2  0  0  0  0  0  0
  1  9  1  0  0  0  0
  2  3  1  1  0  0  0
  2  5  1  0  0  0  0
  3  7  1  0  0  0  0
  5 14  1  0  0  0  0
  6  1  1  0  0  0  0
  7  4  1  0  0  0  0
  8 22  1  1  0  0  0
  8 13  1  0  0  0  0
  8 12  1  0  0  0  0
 10 19  1  0  0  0  0
 11 15  1  1  0  0  0
 11  4  1  0  0  0  0
 12 16  1  0  0  0  0
 13  2  1  0  0  0  0
 14  1  2  0  0  0  0
 16  5  2  0  0  0  0
 16 17  1  0  0  0  0
 17  6  2  0  0  0  0
 18 10  2  0  0  0  0
 18 13  1  0  0  0  0
 19 20  1  0  0  0  0
 19  3  2  0  0  0  0
 20 11  1  0  0  0  0
 21 22  2  0  0  0  0
 23 21  1  0  0  0  0
 24 23  1  0  0  0  0
 25 24  1  0  0  0  0
 27 31  1  0  0  0  0
 27 26  1  1  0  0  0
 27 25  1  0  0  0  0
 28 30  1  0  0  0  0
 28 31  1  0  0  0  0
 29 28  2  0  0  0  0
M  END
>  <MODEL>
1

>  <REMARK>
 VINA RESULT:      -7.7      0.000      0.000
  Name = 
  6 active torsions:
  status: ('A' for Active; 'I' for Inactive)
    1  A    between atoms: C_3  and  C_19
    2  A    between atoms: C_3  and  C_22
    3  A    between atoms: C_7  and  C_9
    4  A    between atoms: C_7  and  C_22
    5  A    between atoms: C_15  and  C_23
    6  A    between atoms: C_19  and  N_24
                            x       y       z     vdW  Elec       q    Type
                         _______ _______ _______ _____ _____    ______ ____

>  <TORSDO>
F 6

$$$$
=
 OpenBabel10262419303D

 31 34  0  0  1  0  0  0  0  0999 V2000
  184.4360  178.5590  145.5830 C   0  0  0  0  0  0  0  0  0  0  0  0
  186.1950  178.1640  142.3620 C   0  0  1  0  0  3  0  0  0  0  0  0
  187.5490  177.5970  142.6870 C   0  0  0  0  0  0  0  0  0  0  0  0
  189.2550  176.7000  144.3340 C   0  0  0  0  0  2  0  0  0  0  0  0
  185.2200  178.4190  143.2740 C   0  0  0  0  0  0  0  0  0  0  0  0
  183.2410  179.1350  145.1560 C   0  0  0  0  0  3  0  0  0  0  0  0
  187.7830  176.8230  143.9680 C   0  0  0  0  0  2  0  0  0  0  0  0
  184.5960  178.7430  140.5040 C   0  0  1  0  0  3  0  0  0  0  0  0
  184.6550  178.3360  146.9350 O   0  0  0  0  0  1  0  0  0  0  0  0
  188.2540  178.2080  140.4040 C   0  0  0  0  0  3  0  0  0  0  0  0
  190.0080  176.1570  143.1360 C   0  0  2  0  0  3  0  0  0  0  0  0
  183.7240  179.1810  141.5930 N   0  0  0  0  0  2  0  0  0  0  0  0
  185.9570  178.5530  140.9930 N   0  0  0  0  0  0  0  0  0  0  0  0
  185.4150  178.2130  144.6510 C   0  0  0  0  0  3  0  0  0  0  0  0
  191.7120  175.8950  143.5690 Cl  0  0  0  0  0  0  0  0  0  0  0  0
  183.9870  178.9870  142.8520 C   0  0  0  0  0  0  0  0  0  0  0  0
  183.0210  179.3500  143.7960 C   0  0  0  0  0  3  0  0  0  0  0  0
  187.0390  178.6250  140.0600 C   0  0  0  0  0  3  0  0  0  0  0  0
  188.5150  177.6300  141.7340 C   0  0  0  0  0  0  0  0  0  0  0  0
  189.9230  177.1660  141.9990 C   0  0  0  0  0  2  0  0  0  0  0  0
  182.8100  177.1030  140.0270 C   0  0  0  0  0  3  0  0  0  0  0  0
  184.0940  177.4440  139.9610 C   0  0  0  0  0  3  0  0  0  0  0  0
  182.3780  175.7750  139.4920 C   0  0  0  0  0  2  0  0  0  0  0  0
  181.2830  175.9230  138.4370 C   0  0  0  0  0  2  0  0  0  0  0  0
  181.6980  175.4120  137.0590 C   0  0  0  0  0  2  0  0  0  0  0  0
  183.9560  175.8360  136.1560 C   0  0  0  0  0  1  0  0  0  0  0  0
  183.1360  174.9240  137.0480 C   0  0  2  0  0  3  0  0  0  0  0  0
  184.0760  172.5690  137.0150 C   0  0  0  0  0  0  0  0  0  0  0  0
  184.8760  172.8280  137.9520 O   0  0  0  0  0  0  0  0  0  0  0  0
  184.0650  171.2130  136.4080 C   0  0  0  0  0  1  0  0  0  0  0  0
  183.1760  173.5650  136.5270 N   0  0  0  0  0  2  0  0  0  0  0  0
  1  9  1  0  0  0  0
  2  3  1  1  0  0  0
  2  5  1  0  0  0  0
  3  7  1  0  0  0  0
  5 14  1  0  0  0  0
  6  1  1  0  0  0  0
  7  4  1  0  0  0  0
  8 22  1  1  0  0  0
  8 13  1  0  0  0  0
  8 12  1  0  0  0  0
 10 19  1  0  0  0  0
 11 15  1  1  0  0  0
 11  4  1  0  0  0  0
 12 16  1  0  0  0  0
 13  2  1  0  0  0  0
 14  1  2  0  0  0  0
 16  5  2  0  0  0  0
 16 17  1  0  0  0  0
 17  6  2  0  0  0  0
 18 10  2  0  0  0  0
 18 13  1  0  0  0  0
 19 20  1  0  0  0  0
 19  3  2  0  0  0  0
 20 11  1  0  0  0  0
 22 21  2  0  0  0  0
 23 21  1  0  0  0  0
 24 23  1  0  0  0  0
 25 24  1  0  0  0  0
 27 26  1  6  0  0  0
 27 25  1  0  0  0  0
 28 29  2  0  0  0  0
 30 28  1  0  0  0  0
 31 28  1  0  0  0  0
 31 27  1  0  0  0  0
M  END
>  <MODEL>
2

>  <REMARK>
 VINA RESULT:      -7.6      1.302      1.921
  Name = 
  6 active torsions:
  status: ('A' for Active; 'I' for Inactive)
    1  A    between atoms: C_3  and  C_19
    2  A    between atoms: C_3  and  C_22
    3  A    between atoms: C_7  and  C_9
    4  A    between atoms: C_7  and  C_22
    5  A    between atoms: C_15  and  C_23
    6  A    between atoms: C_19  and  N_24
                            x       y       z     vdW  Elec       q    Type
                         _______ _______ _______ _____ _____    ______ ____

>  <TORSDO>
F 6

$$$$
=
 OpenBabel10262419303D

 31 34  0  0  1  0  0  0  0  0999 V2000
  184.4160  178.5650  145.6330 C   0  0  0  0  0  0  0  0  0  0  0  0
  186.1550  178.1650  142.4020 C   0  0  1  0  0  3  0  0  0  0  0  0
  187.5180  177.6170  142.7210 C   0  0  0  0  0  0  0  0  0  0  0  0
  189.2490  176.7560  144.3610 C   0  0  0  0  0  2  0  0  0  0  0  0
  185.1840  178.4150  143.3200 C   0  0  0  0  0  0  0  0  0  0  0  0
  183.2110  179.1220  145.2110 C   0  0  0  0  0  3  0  0  0  0  0  0
  187.7720  176.8570  144.0070 C   0  0  0  0  0  2  0  0  0  0  0  0
  184.5340  178.7070  140.5520 C   0  0  1  0  0  3  0  0  0  0  0  0
  184.6490  178.3570  146.9860 O   0  0  0  0  0  1  0  0  0  0  0  0
  188.1970  178.2170  140.4270 C   0  0  0  0  0  3  0  0  0  0  0  0
  189.9990  176.2130  143.1620 C   0  0  2  0  0  3  0  0  0  0  0  0
  183.6650  179.1440  141.6440 N   0  0  0  0  0  2  0  0  0  0  0  0
  185.9010  178.5380  141.0320 N   0  0  0  0  0  0  0  0  0  0  0  0
  185.3920  178.2240  144.6970 C   0  0  0  0  0  3  0  0  0  0  0  0
  191.7100  175.9770  143.5830 Cl  0  0  0  0  0  0  0  0  0  0  0  0
  183.9400  178.9640  142.9030 C   0  0  0  0  0  0  0  0  0  0  0  0
  182.9770  179.3230  143.8510 C   0  0  0  0  0  3  0  0  0  0  0  0
  186.9750  178.6160  140.0890 C   0  0  0  0  0  3  0  0  0  0  0  0
  188.4760  177.6550  141.7600 C   0  0  0  0  0  0  0  0  0  0  0  0
  189.8920  177.2110  142.0170 C   0  0  0  0  0  2  0  0  0  0  0  0
  182.7500  177.0930  139.9870 C   0  0  0  0  0  3  0  0  0  0  0  0
  184.0440  177.3970  140.0240 C   0  0  0  0  0  3  0  0  0  0  0  0
  182.3280  175.7530  139.4750 C   0  0  0  0  0  2  0  0  0  0  0  0
  181.3070  175.8780  138.3460 C   0  0  0  0  0  2  0  0  0  0  0  0
  181.8770  176.5230  137.0840 C   0  0  0  0  0  2  0  0  0  0  0  0
  180.9550  177.7220  135.1330 C   0  0  0  0  0  1  0  0  0  0  0  0
  181.0580  177.7240  136.6460 C   0  0  2  0  0  3  0  0  0  0  0  0
  181.2050  179.7780  138.1260 C   0  0  0  0  0  0  0  0  0  0  0  0
  180.1410  179.4770  138.7270 O   0  0  0  0  0  0  0  0  0  0  0  0
  181.9360  181.0180  138.4980 C   0  0  0  0  0  1  0  0  0  0  0  0
  181.7200  178.9430  137.0880 N   0  0  0  0  0  2  0  0  0  0  0  0
  1  9  1  0  0  0  0
  2  3  1  1  0  0  0
  2  5  1  0  0  0  0
  3  7  1  0  0  0  0
  5 14  1  0  0  0  0
  6  1  1  0  0  0  0
  7  4  1  0  0  0  0
  8 22  1  1  0  0  0
  8 13  1  0  0  0  0
  8 12  1  0  0  0  0
 10 19  1  0  0  0  0
 11 15  1  1  0  0  0
 11  4  1  0  0  0  0
 12 16  1  0  0  0  0
 13  2  1  0  0  0  0
 14  1  2  0  0  0  0
 16  5  2  0  0  0  0
 16 17  1  0  0  0  0
 17  6  2  0  0  0  0
 18 10  2  0  0  0  0
 18 13  1  0  0  0  0
 19 20  1  0  0  0  0
 19  3  2  0  0  0  0
 20 11  1  0  0  0  0
 21 22  2  0  0  0  0
 23 21  1  0  0  0  0
 24 23  1  0  0  0  0
 25 24  1  0  0  0  0
 27 26  1  6  0  0  0
 27 25  1  0  0  0  0
 27 31  1  0  0  0  0
 28 30  1  0  0  0  0
 28 29  2  0  0  0  0
 31 28  1  0  0  0  0
M  END
>  <MODEL>
3

>  <REMARK>
 VINA RESULT:      -7.4      2.408      2.983
  Name = 
  6 active torsions:
  status: ('A' for Active; 'I' for Inactive)
    1  A    between atoms: C_3  and  C_19
    2  A    between atoms: C_3  and  C_22
    3  A    between atoms: C_7  and  C_9
    4  A    between atoms: C_7  and  C_22
    5  A    between atoms: C_15  and  C_23
    6  A    between atoms: C_19  and  N_24
                            x       y       z     vdW  Elec       q    Type
                         _______ _______ _______ _____ _____    ______ ____

>  <TORSDO>
F 6

$$$$
=
 OpenBabel10262419303D

 31 34  0  0  1  0  0  0  0  0999 V2000
  191.1490  174.4350  137.2130 C   0  0  0  0  0  0  0  0  0  0  0  0
  188.0110  176.3210  137.6870 C   0  0  1  0  0  3  0  0  0  0  0  0
  186.9380  175.5380  136.9830 C   0  0  0  0  0  0  0  0  0  0  0  0
  186.1480  173.5220  135.6650 C   0  0  0  0  0  2  0  0  0  0  0  0
  189.3130  175.9400  137.7840 C   0  0  0  0  0  0  0  0  0  0  0  0
  192.0560  175.2790  137.8490 C   0  0  0  0  0  3  0  0  0  0  0  0
  187.0940  174.0520  136.7330 C   0  0  0  0  0  2  0  0  0  0  0  0
  188.4750  178.2660  139.2180 C   0  0  1  0  0  3  0  0  0  0  0  0
  191.5930  173.2670  136.6090 O   0  0  0  0  0  1  0  0  0  0  0  0
  185.5010  177.5360  137.1440 C   0  0  0  0  0  3  0  0  0  0  0  0
  184.7360  173.9470  136.0130 C   0  0  2  0  0  3  0  0  0  0  0  0
  189.8720  177.8660  139.0590 N   0  0  0  0  0  2  0  0  0  0  0  0
  187.6450  177.6140  138.2110 N   0  0  0  0  0  0  0  0  0  0  0  0
  189.7950  174.7690  137.1760 C   0  0  0  0  0  3  0  0  0  0  0  0
  183.5940  173.2470  134.8450 Cl  0  0  0  0  0  0  0  0  0  0  0  0
  190.2480  176.7810  138.4500 C   0  0  0  0  0  0  0  0  0  0  0  0
  191.6060  176.4480  138.4620 C   0  0  0  0  0  3  0  0  0  0  0  0
  186.3970  178.2160  137.8540 C   0  0  0  0  0  3  0  0  0  0  0  0
  185.7480  176.1430  136.7350 C   0  0  0  0  0  0  0  0  0  0  0  0
  184.6480  175.4660  135.9600 C   0  0  0  0  0  2  0  0  0  0  0  0
  188.6910  178.1210  141.6760 C   0  0  0  0  0  3  0  0  0  0  0  0
  187.9940  177.8580  140.5740 C   0  0  0  0  0  3  0  0  0  0  0  0
  188.1700  177.6590  142.9980 C   0  0  0  0  0  2  0  0  0  0  0  0
  188.9020  176.4110  143.4870 C   0  0  0  0  0  2  0  0  0  0  0  0
  190.4200  176.5770  143.5290 C   0  0  0  0  0  2  0  0  0  0  0  0
  191.6120  178.6680  144.0780 C   0  0  0  0  0  1  0  0  0  0  0  0
  190.8560  177.4900  144.6610 C   0  0  2  0  0  3  0  0  0  0  0  0
  191.4040  176.5120  146.9360 C   0  0  0  0  0  0  0  0  0  0  0  0
  190.3190  176.9260  147.4250 O   0  0  0  0  0  0  0  0  0  0  0  0
  192.3620  175.7670  147.7930 C   0  0  0  0  0  1  0  0  0  0  0  0
  191.7250  176.7510  145.5650 N   0  0  0  0  0  2  0  0  0  0  0  0
  1  6  1  0  0  0  0
  2  3  1  6  0  0  0
  2  5  1  0  0  0  0
  2 13  1  0  0  0  0
  4 11  1  0  0  0  0
  4  7  1  0  0  0  0
  5 16  2  0  0  0  0
  6 17  2  0  0  0  0
  7  3  1  0  0  0  0
  8 22  1  1  0  0  0
  9  1  1  0  0  0  0
 10 18  2  0  0  0  0
 11 15  1  6  0  0  0
 12  8  1  0  0  0  0
 13  8  1  0  0  0  0
 14  1  2  0  0  0  0
 14  5  1  0  0  0  0
 16 17  1  0  0  0  0
 16 12  1  0  0  0  0
 18 13  1  0  0  0  0
 19  3  2  0  0  0  0
 19 10  1  0  0  0  0
 20 11  1  0  0  0  0
 20 19  1  0  0  0  0
 21 23  1  0  0  0  0
 22 21  2  0  0  0  0
 23 24  1  0  0  0  0
 24 25  1  0  0  0  0
 25 27  1  0  0  0  0
 27 26  1  6  0  0  0
 27 31  1  0  0  0  0
 28 29  2  0  0  0  0
 28 30  1  0  0  0  0
 31 28  1  0  0  0  0
M  END
>  <MODEL>
4

>  <REMARK>
 VINA RESULT:      -7.4      3.917      8.940
  Name = 
  6 active torsions:
  status: ('A' for Active; 'I' for Inactive)
    1  A    between atoms: C_3  and  C_19
    2  A    between atoms: C_3  and  C_22
    3  A    between atoms: C_7  and  C_9
    4  A    between atoms: C_7  and  C_22
    5  A    between atoms: C_15  and  C_23
    6  A    between atoms: C_19  and  N_24
                            x       y       z     vdW  Elec       q    Type
                         _______ _______ _______ _____ _____    ______ ____

>  <TORSDO>
F 6

$$$$
=
 OpenBabel10262419303D

 31 34  0  0  1  0  0  0  0  0999 V2000
  191.1390  174.2030  136.9600 C   0  0  0  0  0  0  0  0  0  0  0  0
  188.2680  176.3300  137.8850 C   0  0  1  0  0  3  0  0  0  0  0  0
  187.0680  175.7420  137.1960 C   0  0  0  0  0  0  0  0  0  0  0  0
  185.9710  173.9750  135.7470 C   0  0  0  0  0  2  0  0  0  0  0  0
  189.5240  175.8120  137.8340 C   0  0  0  0  0  0  0  0  0  0  0  0
  192.1770  174.8750  137.6030 C   0  0  0  0  0  3  0  0  0  0  0  0
  187.0430  174.2850  136.7820 C   0  0  0  0  0  2  0  0  0  0  0  0
  189.0490  178.0350  139.5660 C   0  0  1  0  0  3  0  0  0  0  0  0
  191.4090  173.0710  136.2040 O   0  0  0  0  0  1  0  0  0  0  0  0
  185.8720  177.8430  137.6820 C   0  0  0  0  0  3  0  0  0  0  0  0
  184.6420  174.4980  136.2530 C   0  0  2  0  0  3  0  0  0  0  0  0
  190.3800  177.5170  139.2510 N   0  0  0  0  0  2  0  0  0  0  0  0
  188.0830  177.5870  138.5690 N   0  0  0  0  0  0  0  0  0  0  0  0
  189.8310  174.6730  137.0700 C   0  0  0  0  0  3  0  0  0  0  0  0
  183.3500  174.0510  135.1180 Cl  0  0  0  0  0  0  0  0  0  0  0  0
  190.5900  176.4740  138.5030 C   0  0  0  0  0  0  0  0  0  0  0  0
  191.9020  176.0080  138.3680 C   0  0  0  0  0  3  0  0  0  0  0  0
  186.8850  178.3460  138.3810 C   0  0  0  0  0  3  0  0  0  0  0  0
  185.9360  176.4870  137.1120 C   0  0  0  0  0  0  0  0  0  0  0  0
  184.7160  176.0150  136.3650 C   0  0  0  0  0  2  0  0  0  0  0  0
  189.4540  176.8510  141.6970 C   0  0  0  0  0  3  0  0  0  0  0  0
  188.6250  177.5290  140.9070 C   0  0  0  0  0  3  0  0  0  0  0  0
  188.9590  176.3460  143.0140 C   0  0  0  0  0  2  0  0  0  0  0  0
  188.4000  177.4760  143.8760 C   0  0  0  0  0  2  0  0  0  0  0  0
  189.0170  177.5340  145.2720 C   0  0  0  0  0  2  0  0  0  0  0  0
  188.0800  177.0730  147.5080 C   0  0  0  0  0  1  0  0  0  0  0  0
  188.0150  178.0030  146.3120 C   0  0  2  0  0  3  0  0  0  0  0  0
  185.6050  178.7840  146.2080 C   0  0  0  0  0  0  0  0  0  0  0  0
  185.7830  179.6030  147.1480 O   0  0  0  0  0  0  0  0  0  0  0  0
  184.2640  178.6660  145.5770 C   0  0  0  0  0  1  0  0  0  0  0  0
  186.6780  177.9670  145.7380 N   0  0  0  0  0  2  0  0  0  0  0  0
  1 14  2  0  0  0  0
  1  6  1  0  0  0  0
  2  3  1  6  0  0  0
  2 13  1  0  0  0  0
  4 11  1  0  0  0  0
  4  7  1  0  0  0  0
  5  2  1  0  0  0  0
  5 16  2  0  0  0  0
  6 17  2  0  0  0  0
  7  3  1  0  0  0  0
  8 22  1  1  0  0  0
  9  1  1  0  0  0  0
 10 18  2  0  0  0  0
 11 15  1  6  0  0  0
 11 20  1  0  0  0  0
 12  8  1  0  0  0  0
 13  8  1  0  0  0  0
 14  5  1  0  0  0  0
 16 12  1  0  0  0  0
 17 16  1  0  0  0  0
 18 13  1  0  0  0  0
 19  3  2  0  0  0  0
 19 10  1  0  0  0  0
 20 19  1  0  0  0  0
 21 23  1  0  0  0  0
 22 21  2  0  0  0  0
 23 24  1  0  0  0  0
 24 25  1  0  0  0  0
 25 27  1  0  0  0  0
 27 26  1  1  0  0  0
 28 29  2  0  0  0  0
 30 28  1  0  0  0  0
 31 28  1  0  0  0  0
 31 27  1  0  0  0  0
M  END
>  <MODEL>
5

>  <REMARK>
 VINA RESULT:      -7.4      3.579      8.815
  Name = 
  6 active torsions:
  status: ('A' for Active; 'I' for Inactive)
    1  A    between atoms: C_3  and  C_19
    2  A    between atoms: C_3  and  C_22
    3  A    between atoms: C_7  and  C_9
    4  A    between atoms: C_7  and  C_22
    5  A    between atoms: C_15  and  C_23
    6  A    between atoms: C_19  and  N_24
                            x       y       z     vdW  Elec       q    Type
                         _______ _______ _______ _____ _____    ______ ____

>  <TORSDO>
F 6

$$$$
=
 OpenBabel10262419303D

 31 34  0  0  1  0  0  0  0  0999 V2000
  192.2160  173.5840  136.4700 C   0  0  0  0  0  0  0  0  0  0  0  0
  189.8570  176.0500  137.8770 C   0  0  1  0  0  3  0  0  0  0  0  0
  188.5020  175.6960  137.3310 C   0  0  0  0  0  0  0  0  0  0  0  0
  186.9640  174.2140  135.9650 C   0  0  0  0  0  2  0  0  0  0  0  0
  190.9990  175.3540  137.6310 C   0  0  0  0  0  0  0  0  0  0  0  0
  193.4200  174.0480  136.9950 C   0  0  0  0  0  3  0  0  0  0  0  0
  188.1950  174.2900  136.8570 C   0  0  0  0  0  2  0  0  0  0  0  0
  191.1050  177.5030  139.5120 C   0  0  1  0  0  3  0  0  0  0  0  0
  192.2060  172.4770  135.6320 O   0  0  0  0  0  1  0  0  0  0  0  0
  187.7230  177.9150  138.0730 C   0  0  0  0  0  3  0  0  0  0  0  0
  185.8100  174.8950  136.6720 C   0  0  2  0  0  3  0  0  0  0  0  0
  192.2860  176.8140  138.9950 N   0  0  0  0  0  2  0  0  0  0  0  0
  189.9610  177.2710  138.6370 N   0  0  0  0  0  0  0  0  0  0  0  0
  191.0230  174.2360  136.7790 C   0  0  0  0  0  3  0  0  0  0  0  0
  184.3290  174.7230  135.7040 Cl  0  0  0  0  0  0  0  0  0  0  0  0
  192.2330  175.8030  138.1770 C   0  0  0  0  0  0  0  0  0  0  0  0
  193.4270  175.1560  137.8430 C   0  0  0  0  0  3  0  0  0  0  0  0
  188.8830  178.2120  138.6500 C   0  0  0  0  0  3  0  0  0  0  0  0
  187.4990  176.6050  137.4380 C   0  0  0  0  0  0  0  0  0  0  0  0
  186.1350  176.3720  136.8430 C   0  0  0  0  0  2  0  0  0  0  0  0
  191.6090  177.1340  141.9030 C   0  0  0  0  0  3  0  0  0  0  0  0
  190.7820  176.9760  140.8740 C   0  0  0  0  0  3  0  0  0  0  0  0
  191.2410  176.5570  143.2320 C   0  0  0  0  0  2  0  0  0  0  0  0
  191.1510  177.6370  144.3090 C   0  0  0  0  0  2  0  0  0  0  0  0
  189.7590  178.2520  144.4340 C   0  0  0  0  0  2  0  0  0  0  0  0
  187.5960  177.1480  143.9910 C   0  0  0  0  0  1  0  0  0  0  0  0
  188.7490  177.2530  144.9710 C   0  0  2  0  0  3  0  0  0  0  0  0
  188.8930  177.4070  147.4980 C   0  0  0  0  0  0  0  0  0  0  0  0
  189.9470  176.7180  147.5240 O   0  0  0  0  0  0  0  0  0  0  0  0
  188.3050  177.9030  148.7690 C   0  0  0  0  0  1  0  0  0  0  0  0
  188.2540  177.7170  146.2590 N   0  0  0  0  0  2  0  0  0  0  0  0
  1 14  2  0  0  0  0
  1  6  1  0  0  0  0
  2  3  1  6  0  0  0
  2 13  1  0  0  0  0
  3 19  2  0  0  0  0
  4 11  1  0  0  0  0
  4  7  1  0  0  0  0
  5  2  1  0  0  0  0
  5 16  2  0  0  0  0
  6 17  2  0  0  0  0
  7  3  1  0  0  0  0
  8 22  1  1  0  0  0
  9  1  1  0  0  0  0
 10 18  2  0  0  0  0
 11 15  1  6  0  0  0
 11 20  1  0  0  0  0
 12  8  1  0  0  0  0
 13 18  1  0  0  0  0
 13  8  1  0  0  0  0
 14  5  1  0  0  0  0
 16 12  1  0  0  0  0
 17 16  1  0  0  0  0
 19 10  1  0  0  0  0
 20 19  1  0  0  0  0
 21 23  1  0  0  0  0
 22 21  2  0  0  0  0
 23 24  1  0  0  0  0
 24 25  1  0  0  0  0
 25 27  1  0  0  0  0
 27 26  1  6  0  0  0
 27 31  1  0  0  0  0
 28 29  2  0  0  0  0
 28 30  1  0  0  0  0
 31 28  1  0  0  0  0
M  END
>  <MODEL>
6

>  <REMARK>
 VINA RESULT:      -7.3      4.304      9.459
  Name = 
  6 active torsions:
  status: ('A' for Active; 'I' for Inactive)
    1  A    between atoms: C_3  and  C_19
    2  A    between atoms: C_3  and  C_22
    3  A    between atoms: C_7  and  C_9
    4  A    between atoms: C_7  and  C_22
    5  A    between atoms: C_15  and  C_23
    6  A    between atoms: C_19  and  N_24
                            x       y       z     vdW  Elec       q    Type
                         _______ _______ _______ _____ _____    ______ ____

>  <TORSDO>
F 6

$$$$
=
 OpenBabel10262419303D

 31 34  0  0  1  0  0  0  0  0999 V2000
  184.5350  178.6500  145.5030 C   0  0  0  0  0  0  0  0  0  0  0  0
  186.4010  178.2080  142.3490 C   0  0  1  0  0  3  0  0  0  0  0  0
  187.7160  177.5810  142.7210 C   0  0  0  0  0  0  0  0  0  0  0  0
  189.3170  176.6000  144.4240 C   0  0  0  0  0  2  0  0  0  0  0  0
  185.4020  178.4960  143.2260 C   0  0  0  0  0  0  0  0  0  0  0  0
  183.3830  179.2800  145.0370 C   0  0  0  0  0  3  0  0  0  0  0  0
  187.8660  176.7870  144.0030 C   0  0  0  0  0  2  0  0  0  0  0  0
  184.9000  178.8680  140.4370 C   0  0  1  0  0  3  0  0  0  0  0  0
  184.6920  178.4080  146.8610 O   0  0  0  0  0  1  0  0  0  0  0  0
  188.5340  178.1790  140.4730 C   0  0  0  0  0  3  0  0  0  0  0  0
  190.0930  176.0350  143.2510 C   0  0  2  0  0  3  0  0  0  0  0  0
  184.0060  179.3340  141.4950 N   0  0  0  0  0  2  0  0  0  0  0  0
  186.2330  178.6160  140.9760 N   0  0  0  0  0  0  0  0  0  0  0  0
  185.5340  178.2720  144.6070 C   0  0  0  0  0  3  0  0  0  0  0  0
  191.7660  175.6980  143.7470 Cl  0  0  0  0  0  0  0  0  0  0  0  0
  184.2110  179.1190  142.7620 C   0  0  0  0  0  0  0  0  0  0  0  0
  183.2250  179.5150  143.6710 C   0  0  0  0  0  3  0  0  0  0  0  0
  187.3530  178.6500  140.0860 C   0  0  0  0  0  3  0  0  0  0  0  0
  188.7190  177.5810  141.8060 C   0  0  0  0  0  0  0  0  0  0  0  0
  190.0950  177.0550  142.1210 C   0  0  0  0  0  2  0  0  0  0  0  0
  183.0610  177.3670  139.7520 C   0  0  0  0  0  3  0  0  0  0  0  0
  184.3660  177.5950  139.8630 C   0  0  0  0  0  3  0  0  0  0  0  0
  182.5910  176.0610  139.1960 C   0  0  0  0  0  2  0  0  0  0  0  0
  181.1970  176.1780  138.5850 C   0  0  0  0  0  2  0  0  0  0  0  0
  180.2570  177.0750  139.3880 C   0  0  0  0  0  2  0  0  0  0  0  0
  178.9430  175.2440  140.3940 C   0  0  0  0  0  1  0  0  0  0  0  0
  179.8420  176.4270  140.6970 C   0  0  2  0  0  3  0  0  0  0  0  0
  179.7530  178.2600  142.4470 C   0  0  0  0  0  0  0  0  0  0  0  0
  181.0010  178.2270  142.6090 O   0  0  0  0  0  0  0  0  0  0  0  0
  178.9310  179.2050  143.2460 C   0  0  0  0  0  1  0  0  0  0  0  0
  179.1160  177.3970  141.5040 N   0  0  0  0  0  2  0  0  0  0  0  0
  1  9  1  0  0  0  0
  2  3  1  1  0  0  0
  2  5  1  0  0  0  0
  3  7  1  0  0  0  0
  5 14  1  0  0  0  0
  6  1  1  0  0  0  0
  7  4  1  0  0  0  0
  8 22  1  1  0  0  0
  8 13  1  0  0  0  0
  8 12  1  0  0  0  0
 10 19  1  0  0  0  0
 11 15  1  1  0  0  0
 11  4  1  0  0  0  0
 12 16  1  0  0  0  0
 13  2  1  0  0  0  0
 14  1  2  0  0  0  0
 16  5  2  0  0  0  0
 16 17  1  0  0  0  0
 17  6  2  0  0  0  0
 18 10  2  0  0  0  0
 18 13  1  0  0  0  0
 19 20  1  0  0  0  0
 19  3  2  0  0  0  0
 20 11  1  0  0  0  0
 21 22  2  0  0  0  0
 23 21  1  0  0  0  0
 24 23  1  0  0  0  0
 24 25  1  0  0  0  0
 25 27  1  0  0  0  0
 27 26  1  6  0  0  0
 27 31  1  0  0  0  0
 28 29  2  0  0  0  0
 28 30  1  0  0  0  0
 31 28  1  0  0  0  0
M  END
>  <MODEL>
7

>  <REMARK>
 VINA RESULT:      -7.2      2.543      3.973
  Name = 
  6 active torsions:
  status: ('A' for Active; 'I' for Inactive)
    1  A    between atoms: C_3  and  C_19
    2  A    between atoms: C_3  and  C_22
    3  A    between atoms: C_7  and  C_9
    4  A    between atoms: C_7  and  C_22
    5  A    between atoms: C_15  and  C_23
    6  A    between atoms: C_19  and  N_24
                            x       y       z     vdW  Elec       q    Type
                         _______ _______ _______ _____ _____    ______ ____

>  <TORSDO>
F 6

$$$$
=
 OpenBabel10262419303D

 31 34  0  0  1  0  0  0  0  0999 V2000
  185.2080  178.6480  142.6880 C   0  0  0  0  0  0  0  0  0  0  0  0
  188.5700  177.7990  141.4220 C   0  0  1  0  0  3  0  0  0  0  0  0
  189.3980  177.4470  142.6260 C   0  0  0  0  0  0  0  0  0  0  0  0
  189.6630  177.0740  145.1200 C   0  0  0  0  0  2  0  0  0  0  0  0
  187.2520  178.1300  141.4560 C   0  0  0  0  0  0  0  0  0  0  0  0
  184.5680  179.0030  141.5030 C   0  0  0  0  0  3  0  0  0  0  0  0
  188.7470  176.9720  143.9090 C   0  0  0  0  0  2  0  0  0  0  0  0
  188.5050  177.8300  138.9040 C   0  0  1  0  0  3  0  0  0  0  0  0
  184.5270  178.7230  143.8950 O   0  0  0  0  0  1  0  0  0  0  0  0
  191.3990  177.6580  141.2000 C   0  0  0  0  0  3  0  0  0  0  0  0
  190.9720  176.3820  144.7970 C   0  0  2  0  0  3  0  0  0  0  0  0
  187.1660  178.3870  139.0940 N   0  0  0  0  0  2  0  0  0  0  0  0
  189.2550  177.8800  140.1550 N   0  0  0  0  0  0  0  0  0  0  0  0
  186.5370  178.2240  142.6620 C   0  0  0  0  0  3  0  0  0  0  0  0
  192.0210  176.3860  146.2310 Cl  0  0  0  0  0  0  0  0  0  0  0  0
  186.5780  178.4750  140.2510 C   0  0  0  0  0  0  0  0  0  0  0  0
  185.2530  178.9200  140.2910 C   0  0  0  0  0  3  0  0  0  0  0  0
  190.6850  177.8730  140.1000 C   0  0  0  0  0  3  0  0  0  0  0  0
  190.7480  177.3870  142.4930 C   0  0  0  0  0  0  0  0  0  0  0  0
  191.6610  177.1300  143.6640 C   0  0  0  0  0  2  0  0  0  0  0  0
  187.9360  176.0720  137.2640 C   0  0  0  0  0  3  0  0  0  0  0  0
  188.3910  176.4050  138.4690 C   0  0  0  0  0  3  0  0  0  0  0  0
  187.8180  174.6270  136.9000 C   0  0  0  0  0  2  0  0  0  0  0  0
  186.4080  174.2780  136.4300 C   0  0  0  0  0  2  0  0  0  0  0  0
  185.6620  173.3520  137.3890 C   0  0  0  0  0  2  0  0  0  0  0  0
  183.2810  172.9580  136.8710 C   0  0  0  0  0  1  0  0  0  0  0  0
  184.2450  173.8330  137.6480 C   0  0  2  0  0  3  0  0  0  0  0  0
  183.4920  176.2310  137.9840 C   0  0  0  0  0  0  0  0  0  0  0  0
  183.0290  175.9720  139.1260 O   0  0  0  0  0  0  0  0  0  0  0  0
  183.3860  177.6100  137.4410 C   0  0  0  0  0  1  0  0  0  0  0  0
  184.1190  175.2130  137.2030 N   0  0  0  0  0  2  0  0  0  0  0  0
  1  9  1  0  0  0  0
  2  5  1  1  0  0  0
  2  3  1  0  0  0  0
  3  7  1  0  0  0  0
  5 14  2  0  0  0  0
  6  1  2  0  0  0  0
  7  4  1  0  0  0  0
  8 22  1  1  0  0  0
  8 12  1  0  0  0  0
  8 13  1  0  0  0  0
 10 19  1  0  0  0  0
 11  4  1  0  0  0  0
 11 15  1  1  0  0  0
 12 16  1  0  0  0  0
 13  2  1  0  0  0  0
 14  1  1  0  0  0  0
 16 17  2  0  0  0  0
 16  5  1  0  0  0  0
 17  6  1  0  0  0  0
 18 13  1  0  0  0  0
 18 10  2  0  0  0  0
 19  3  2  0  0  0  0
 19 20  1  0  0  0  0
 20 11  1  0  0  0  0
 21 22  2  0  0  0  0
 23 21  1  0  0  0  0
 24 23  1  0  0  0  0
 24 25  1  0  0  0  0
 25 27  1  0  0  0  0
 27 26  1  6  0  0  0
 28 29  2  0  0  0  0
 30 28  1  0  0  0  0
 31 27  1  0  0  0  0
 31 28  1  0  0  0  0
M  END
>  <MODEL>
8

>  <REMARK>
 VINA RESULT:      -7.2      2.042      3.385
  Name = 
  6 active torsions:
  status: ('A' for Active; 'I' for Inactive)
    1  A    between atoms: C_3  and  C_19
    2  A    between atoms: C_3  and  C_22
    3  A    between atoms: C_7  and  C_9
    4  A    between atoms: C_7  and  C_22
    5  A    between atoms: C_15  and  C_23
    6  A    between atoms: C_19  and  N_24
                            x       y       z     vdW  Elec       q    Type
                         _______ _______ _______ _____ _____    ______ ____

>  <TORSDO>
F 6

$$$$
=
 OpenBabel10262419303D

 31 34  0  0  1  0  0  0  0  0999 V2000
  185.0800  178.5960  143.0180 C   0  0  0  0  0  0  0  0  0  0  0  0
  188.6670  177.9920  142.3860 C   0  0  1  0  0  3  0  0  0  0  0  0
  189.2720  177.6200  143.7110 C   0  0  0  0  0  0  0  0  0  0  0  0
  189.0820  177.1280  146.1910 C   0  0  0  0  0  2  0  0  0  0  0  0
  187.3480  178.2530  142.1800 C   0  0  0  0  0  0  0  0  0  0  0  0
  184.6560  178.9820  141.7480 C   0  0  0  0  0  3  0  0  0  0  0  0
  188.4190  177.0430  144.8230 C   0  0  0  0  0  2  0  0  0  0  0  0
  189.0770  178.1550  139.9070 C   0  0  1  0  0  3  0  0  0  0  0  0
  184.1800  178.5710  144.0730 O   0  0  0  0  0  1  0  0  0  0  0  0
  191.4900  178.0110  142.7060 C   0  0  0  0  0  3  0  0  0  0  0  0
  190.4680  176.5230  146.0960 C   0  0  2  0  0  3  0  0  0  0  0  0
  187.6950  178.6300  139.8600 N   0  0  0  0  0  2  0  0  0  0  0  0
  189.5730  178.1760  141.2790 N   0  0  0  0  0  0  0  0  0  0  0  0
  186.4140  178.2450  143.2300 C   0  0  0  0  0  3  0  0  0  0  0  0
  191.2240  176.5040  147.7040 Cl  0  0  0  0  0  0  0  0  0  0  0  0
  186.8950  178.6260  140.8850 C   0  0  0  0  0  0  0  0  0  0  0  0
  185.5610  178.9990  140.6880 C   0  0  0  0  0  3  0  0  0  0  0  0
  190.9850  178.2470  141.5000 C   0  0  0  0  0  3  0  0  0  0  0  0
  190.6230  177.6370  143.8380 C   0  0  0  0  0  0  0  0  0  0  0  0
  191.3120  177.3650  145.1490 C   0  0  0  0  0  2  0  0  0  0  0  0
  189.5960  176.4620  138.1830 C   0  0  0  0  0  3  0  0  0  0  0  0
  189.1350  176.7510  139.3970 C   0  0  0  0  0  3  0  0  0  0  0  0
  189.6000  175.0400  137.7210 C   0  0  0  0  0  2  0  0  0  0  0  0
  188.6990  174.8420  136.5030 C   0  0  0  0  0  2  0  0  0  0  0  0
  187.9320  176.1020  136.1060 C   0  0  0  0  0  2  0  0  0  0  0  0
  185.9650  177.1030  137.2110 C   0  0  0  0  0  1  0  0  0  0  0  0
  186.4400  175.9510  136.3460 C   0  0  2  0  0  3  0  0  0  0  0  0
  185.0030  173.9210  136.8360 C   0  0  0  0  0  0  0  0  0  0  0  0
  184.1120  174.3010  136.0310 O   0  0  0  0  0  0  0  0  0  0  0  0
  184.8190  172.6560  137.5930 C   0  0  0  0  0  1  0  0  0  0  0  0
  186.1900  174.6910  137.0290 N   0  0  0  0  0  2  0  0  0  0  0  0
  1 14  1  0  0  0  0
  1  9  1  0  0  0  0
  2  5  1  1  0  0  0
  2  3  1  0  0  0  0
  3 19  2  0  0  0  0
  3  7  1  0  0  0  0
  5 14  2  0  0  0  0
  6  1  2  0  0  0  0
  7  4  1  0  0  0  0
  8 22  1  1  0  0  0
  8 13  1  0  0  0  0
 10 19  1  0  0  0  0
 11  4  1  0  0  0  0
 11 15  1  1  0  0  0
 12  8  1  0  0  0  0
 12 16  1  0  0  0  0
 13 18  1  0  0  0  0
 13  2  1  0  0  0  0
 16  5  1  0  0  0  0
 17 16  2  0  0  0  0
 17  6  1  0  0  0  0
 18 10  2  0  0  0  0
 19 20  1  0  0  0  0
 20 11  1  0  0  0  0
 21 22  2  0  0  0  0
 23 21  1  0  0  0  0
 24 23  1  0  0  0  0
 25 27  1  0  0  0  0
 25 24  1  0  0  0  0
 27 31  1  0  0  0  0
 27 26  1  1  0  0  0
 28 31  1  0  0  0  0
 28 30  1  0  0  0  0
 29 28  2  0  0  0  0
M  END
>  <MODEL>
9

>  <REMARK>
 VINA RESULT:      -7.1      2.116      3.872
  Name = 
  6 active torsions:
  status: ('A' for Active; 'I' for Inactive)
    1  A    between atoms: C_3  and  C_19
    2  A    between atoms: C_3  and  C_22
    3  A    between atoms: C_7  and  C_9
    4  A    between atoms: C_7  and  C_22
    5  A    between atoms: C_15  and  C_23
    6  A    between atoms: C_19  and  N_24
                            x       y       z     vdW  Elec       q    Type
                         _______ _______ _______ _____ _____    ______ ____

>  <TORSDO>
F 6

$$$$
