=
 OpenBabel10262422553D

 37 42  0  0  1  0  0  0  0  0999 V2000
  182.2600  178.0270  140.0220 C   0  0  0  0  0  2  0  0  0  0  0  0
  186.4030  178.6990  141.6410 C   0  0  1  0  0  3  0  0  0  0  0  0
  189.6810  177.8090  139.8480 C   0  0  0  0  0  2  0  0  0  0  0  0
  184.5490  178.8010  140.1920 C   0  0  2  0  0  0  0  0  0  0  0  0
  187.1880  177.8650  140.6050 C   0  0  2  0  0  3  0  0  0  0  0  0
  185.3730  179.5150  141.0970 O   0  0  0  0  0  0  0  0  0  0  0  0
  188.6820  177.8830  141.0060 C   0  0  1  0  0  3  0  0  0  0  0  0
  185.2900  178.1070  139.0500 C   0  0  1  0  0  3  0  0  0  0  0  0
  183.8090  179.7640  139.2880 C   0  0  1  0  0  3  0  0  0  0  0  0
  187.1490  177.4020  143.6710 C   0  0  0  0  0  2  0  0  0  0  0  0
  184.5630  179.1510  137.7470 S   0  0  0  0  0  0  0  0  0  0  0  0
  189.6070  176.4930  139.0700 C   0  0  0  0  0  2  0  0  0  0  0  0
  185.9480  177.8850  142.8620 C   0  0  1  0  0  3  0  0  0  0  0  0
  186.8030  178.2880  139.1630 C   0  0  2  0  0  3  0  0  0  0  0  0
  183.5100  177.9190  140.8680 C   0  0  0  0  0  2  0  0  0  0  0  0
  189.0450  176.8270  142.0730 C   0  0  2  0  0  3  0  0  0  0  0  0
  182.3370  179.3830  139.3480 C   0  0  0  0  0  2  0  0  0  0  0  0
  188.2050  176.2310  138.5080 C   0  0  1  0  0  3  0  0  0  0  0  0
  187.4660  177.4910  138.0150 C   0  0  2  0  0  3  0  0  0  0  0  0
  187.8950  176.2960  142.9410 C   0  0  0  0  0  2  0  0  0  0  0  0
  191.1910  176.1880  143.3860 C   0  0  0  0  0  2  0  0  0  0  0  0
  190.2360  177.2360  142.8920 C   0  0  0  0  0  0  0  0  0  0  0  0
  190.4510  178.5160  143.2290 C   0  0  0  0  0  3  0  0  0  0  0  0
  191.4930  180.5170  144.6960 Cl  0  0  0  0  0  0  0  0  0  0  0  0
  191.8150  177.8710  145.2330 C   0  0  0  0  0  2  0  0  0  0  0  0
  191.6470  178.8610  144.0700 C   0  0  1  0  0  3  0  0  0  0  0  0
  191.4780  176.4070  144.8770 C   0  0  0  0  0  2  0  0  0  0  0  0
  185.5260  178.6210  145.2100 C   0  0  0  0  0  1  0  0  0  0  0  0
  185.0660  178.7340  143.7690 C   0  0  0  0  0  2  0  0  0  0  0  0
  186.9810  175.0890  136.6140 C   0  0  0  0  0  1  0  0  0  0  0  0
  188.1750  175.0330  137.5540 C   0  0  1  0  0  3  0  0  0  0  0  0
  190.1260  173.6300  137.2980 O   0  0  0  0  0  1  0  0  0  0  0  0
  189.4870  174.7720  136.8130 C   0  0  0  0  0  2  0  0  0  0  0  0
  188.3610  178.3890  137.1520 C   0  0  0  0  0  2  0  0  0  0  0  0
  188.1720  178.1390  135.6960 C   0  0  0  0  0  0  0  0  0  0  0  0
  186.9160  178.2950  135.1240 O   0  0  0  0  0  1  0  0  0  0  0  0
  189.1440  177.7720  134.9870 O   0  0  0  0  0  0  0  0  0  0  0  0
  1 15  1  0  0  0  0
  2  6  1  6  0  0  0
  2 13  1  0  0  0  0
  3  7  1  0  0  0  0
  4 15  1  1  0  0  0
  4  6  1  0  0  0  0
  5  7  1  0  0  0  0
  5  2  1  0  0  0  0
  7 16  1  0  0  0  0
  8 14  1  0  0  0  0
  8  4  1  0  0  0  0
  9 17  1  0  0  0  0
  9  4  1  0  0  0  0
 11  8  1  0  0  0  0
 11  9  1  0  0  0  0
 12  3  1  0  0  0  0
 13 10  1  0  0  0  0
 13 29  1  0  0  0  0
 14  5  1  0  0  0  0
 16 22  1  0  0  0  0
 16 20  1  0  0  0  0
 17  1  1  0  0  0  0
 18 12  1  0  0  0  0
 19 18  1  0  0  0  0
 19 14  1  0  0  0  0
 20 10  1  0  0  0  0
 21 27  1  0  0  0  0
 22 23  2  0  0  0  0
 22 21  1  0  0  0  0
 23 26  1  0  0  0  0
 26 24  1  0  0  0  0
 26 25  1  0  0  0  0
 27 25  1  0  0  0  0
 29 28  1  0  0  0  0
 30 31  1  0  0  0  0
 31 18  1  0  0  0  0
 33 32  1  0  0  0  0
 33 31  1  0  0  0  0
 34 19  1  0  0  0  0
 35 34  1  0  0  0  0
 36 35  1  0  0  0  0
 37 35  2  0  0  0  0
M  END
>  <MODEL>
1

>  <REMARK>
 VINA RESULT:      -6.3      0.000      0.000
  Name = 
  6 active torsions:
  status: ('A' for Active; 'I' for Inactive)
    1  A    between atoms: C_1  and  C_5
    2  A    between atoms: C_1  and  C_36
    3  A    between atoms: C_6  and  C_31
    4  A    between atoms: C_24  and  C_28
    5  A    between atoms: C_26  and  C_33
    6  A    between atoms: C_26  and  C_34
                            x       y       z     vdW  Elec       q    Type
                         _______ _______ _______ _____ _____    ______ ____

>  <TORSDO>
F 6

$$$$
=
 OpenBabel10262422553D

 37 42  0  0  1  0  0  0  0  0999 V2000
  179.2180  174.0530  137.2460 C   0  0  0  0  0  2  0  0  0  0  0  0
  183.2690  175.6090  138.4310 C   0  0  1  0  0  3  0  0  0  0  0  0
  184.0510  179.1980  139.5530 C   0  0  0  0  0  2  0  0  0  0  0  0
  180.9790  175.0730  138.5590 C   0  0  2  0  0  0  0  0  0  0  0  0
  182.9350  177.1170  138.4520 C   0  0  2  0  0  3  0  0  0  0  0  0
  182.2850  174.7680  139.0190 O   0  0  0  0  0  0  0  0  0  0  0  0
  184.2340  177.8930  138.7740 C   0  0  1  0  0  3  0  0  0  0  0  0
  180.5550  176.5310  138.7310 C   0  0  1  0  0  3  0  0  0  0  0  0
  179.9460  174.5330  139.5250 C   0  0  1  0  0  3  0  0  0  0  0  0
  185.0850  175.7470  136.6870 C   0  0  0  0  0  2  0  0  0  0  0  0
  179.2500  176.1630  139.9460 S   0  0  0  0  0  0  0  0  0  0  0  0
  183.2650  180.2590  138.7790 C   0  0  0  0  0  2  0  0  0  0  0  0
  183.7500  175.1090  137.0600 C   0  0  1  0  0  3  0  0  0  0  0  0
  181.6790  177.3820  139.3240 C   0  0  2  0  0  3  0  0  0  0  0  0
  180.6610  174.5040  137.1850 C   0  0  0  0  0  2  0  0  0  0  0  0
  185.1200  178.1480  137.5360 C   0  0  2  0  0  3  0  0  0  0  0  0
  178.9520  173.7270  138.7030 C   0  0  0  0  0  2  0  0  0  0  0  0
  181.8800  179.7580  138.3550 C   0  0  1  0  0  3  0  0  0  0  0  0
  181.1850  178.8460  139.3860 C   0  0  2  0  0  3  0  0  0  0  0  0
  184.9120  177.2170  136.3320 C   0  0  0  0  0  2  0  0  0  0  0  0
  187.5580  178.7200  136.8510 C   0  0  0  0  0  2  0  0  0  0  0  0
  186.5700  178.2950  137.8990 C   0  0  0  0  0  0  0  0  0  0  0  0
  187.0180  178.0190  139.1330 C   0  0  0  0  0  3  0  0  0  0  0  0
  188.8700  177.3750  140.9750 Cl  0  0  0  0  0  0  0  0  0  0  0  0
  189.3420  177.5640  138.3040 C   0  0  0  0  0  2  0  0  0  0  0  0
  188.4840  178.1620  139.4300 C   0  0  1  0  0  3  0  0  0  0  0  0
  188.7820  177.7980  136.8840 C   0  0  0  0  0  2  0  0  0  0  0  0
  185.3040  173.2310  137.5960 C   0  0  0  0  0  1  0  0  0  0  0  0
  183.9270  173.5960  137.0770 C   0  0  0  0  0  2  0  0  0  0  0  0
  181.4840  182.2520  138.2170 C   0  0  0  0  0  1  0  0  0  0  0  0
  181.0110  180.8760  137.7720 C   0  0  1  0  0  3  0  0  0  0  0  0
  180.6810  182.0680  135.6940 O   0  0  0  0  0  1  0  0  0  0  0  0
  180.7960  180.7960  136.2600 C   0  0  0  0  0  2  0  0  0  0  0  0
  181.2720  179.4080  140.8100 C   0  0  0  0  0  2  0  0  0  0  0  0
  180.0130  180.0880  141.2250 C   0  0  0  0  0  0  0  0  0  0  0  0
  179.9610  180.7680  142.4350 O   0  0  0  0  0  1  0  0  0  0  0  0
  178.9950  180.0350  140.4890 O   0  0  0  0  0  0  0  0  0  0  0  0
  1 17  1  0  0  0  0
  2  5  1  0  0  0  0
  2  6  1  6  0  0  0
  4 15  1  6  0  0  0
  4  8  1  0  0  0  0
  4  6  1  0  0  0  0
  4  9  1  0  0  0  0
  5  7  1  0  0  0  0
  5 14  1  0  0  0  0
  7  3  1  0  0  0  0
  8 14  1  0  0  0  0
  8 11  1  0  0  0  0
  9 11  1  0  0  0  0
 10 13  1  0  0  0  0
 12  3  1  0  0  0  0
 13 29  1  0  0  0  0
 13  2  1  0  0  0  0
 14 19  1  0  0  0  0
 15  1  1  0  0  0  0
 16 22  1  0  0  0  0
 16  7  1  0  0  0  0
 17  9  1  0  0  0  0
 18 12  1  0  0  0  0
 18 19  1  0  0  0  0
 19 34  1  0  0  0  0
 20 10  1  0  0  0  0
 20 16  1  0  0  0  0
 21 27  1  0  0  0  0
 21 22  1  0  0  0  0
 22 23  2  0  0  0  0
 23 26  1  0  0  0  0
 25 26  1  0  0  0  0
 26 24  1  0  0  0  0
 27 25  1  0  0  0  0
 29 28  1  0  0  0  0
 31 30  1  0  0  0  0
 31 18  1  0  0  0  0
 32 33  1  0  0  0  0
 33 31  1  0  0  0  0
 34 35  1  0  0  0  0
 35 36  1  0  0  0  0
 37 35  2  0  0  0  0
M  END
>  <MODEL>
2

>  <REMARK>
 VINA RESULT:      -6.1      4.159      7.540
  Name = 
  6 active torsions:
  status: ('A' for Active; 'I' for Inactive)
    1  A    between atoms: C_1  and  C_5
    2  A    between atoms: C_1  and  C_36
    3  A    between atoms: C_6  and  C_31
    4  A    between atoms: C_24  and  C_28
    5  A    between atoms: C_26  and  C_33
    6  A    between atoms: C_26  and  C_34
                            x       y       z     vdW  Elec       q    Type
                         _______ _______ _______ _____ _____    ______ ____

>  <TORSDO>
F 6

$$$$
=
 OpenBabel10262422553D

 37 42  0  0  1  0  0  0  0  0999 V2000
  186.1770  172.1960  136.7970 C   0  0  0  0  0  2  0  0  0  0  0  0
  183.3660  175.6910  137.1500 C   0  0  1  0  0  3  0  0  0  0  0  0
  184.3300  179.2380  138.2650 C   0  0  0  0  0  2  0  0  0  0  0  0
  185.2130  174.3940  136.4740 C   0  0  2  0  0  0  0  0  0  0  0  0
  184.3010  176.6560  137.9120 C   0  0  2  0  0  3  0  0  0  0  0  0
  183.9810  174.9770  136.0850 O   0  0  0  0  0  0  0  0  0  0  0  0
  183.5080  177.9470  138.2240 C   0  0  1  0  0  3  0  0  0  0  0  0
  186.2290  175.3670  137.0740 C   0  0  1  0  0  3  0  0  0  0  0  0
  186.0530  174.0820  135.2540 C   0  0  1  0  0  3  0  0  0  0  0  0
  181.5460  175.6260  138.8930 C   0  0  0  0  0  2  0  0  0  0  0  0
  187.4200  175.1980  135.7070 S   0  0  0  0  0  0  0  0  0  0  0  0
  185.3680  179.2570  139.3900 C   0  0  0  0  0  2  0  0  0  0  0  0
  182.5290  174.7940  138.0740 C   0  0  1  0  0  3  0  0  0  0  0  0
  185.6640  176.7830  137.1800 C   0  0  2  0  0  3  0  0  0  0  0  0
  185.0630  173.1060  137.2670 C   0  0  0  0  0  2  0  0  0  0  0  0
  182.6420  177.8430  139.4980 C   0  0  2  0  0  3  0  0  0  0  0  0
  186.4880  172.6300  135.3780 C   0  0  0  0  0  2  0  0  0  0  0  0
  186.3390  178.0750  139.3020 C   0  0  1  0  0  3  0  0  0  0  0  0
  186.7290  177.6700  137.8660 C   0  0  2  0  0  3  0  0  0  0  0  0
  182.2650  176.4300  139.9660 C   0  0  0  0  0  2  0  0  0  0  0  0
  180.9420  179.2460  138.1260 C   0  0  0  0  0  2  0  0  0  0  0  0
  181.4550  178.7640  139.4520 C   0  0  0  0  0  0  0  0  0  0  0  0
  180.8610  179.2010  140.5720 C   0  0  0  0  0  3  0  0  0  0  0  0
  179.3470  180.8670  142.0470 Cl  0  0  0  0  0  0  0  0  0  0  0  0
  179.9570  181.2410  139.4240 C   0  0  0  0  0  2  0  0  0  0  0  0
  179.6930  180.1400  140.4630 C   0  0  1  0  0  3  0  0  0  0  0  0
  180.7250  180.7630  138.1720 C   0  0  0  0  0  2  0  0  0  0  0  0
  180.4570  174.4000  136.7390 C   0  0  0  0  0  1  0  0  0  0  0  0
  181.7390  173.7790  137.2590 C   0  0  0  0  0  2  0  0  0  0  0  0
  187.0210  178.2350  141.7310 C   0  0  0  0  0  1  0  0  0  0  0  0
  187.5030  178.2030  140.2890 C   0  0  1  0  0  3  0  0  0  0  0  0
  189.8660  177.8410  139.9310 O   0  0  0  0  0  1  0  0  0  0  0  0
  188.6360  177.1970  140.0760 C   0  0  0  0  0  2  0  0  0  0  0  0
  187.0910  178.8830  136.9990 C   0  0  0  0  0  2  0  0  0  0  0  0
  188.5630  179.0730  136.8840 C   0  0  0  0  0  0  0  0  0  0  0  0
  189.3170  178.1940  136.1180 O   0  0  0  0  0  0  0  0  0  0  0  0
  189.1270  180.0200  137.4920 O   0  0  0  0  0  1  0  0  0  0  0  0
  1 15  1  0  0  0  0
  2  6  1  6  0  0  0
  2  5  1  0  0  0  0
  2 13  1  0  0  0  0
  3 12  1  0  0  0  0
  4  8  1  0  0  0  0
  4 15  1  1  0  0  0
  5  7  1  0  0  0  0
  6  4  1  0  0  0  0
  7  3  1  0  0  0  0
  7 16  1  0  0  0  0
  8 14  1  0  0  0  0
  9 17  1  0  0  0  0
  9 11  1  0  0  0  0
  9  4  1  0  0  0  0
 10 20  1  0  0  0  0
 11  8  1  0  0  0  0
 13 10  1  0  0  0  0
 14 19  1  0  0  0  0
 14  5  1  0  0  0  0
 16 20  1  0  0  0  0
 17  1  1  0  0  0  0
 18 12  1  0  0  0  0
 18 31  1  0  0  0  0
 19 18  1  0  0  0  0
 21 27  1  0  0  0  0
 21 22  1  0  0  0  0
 22 16  1  0  0  0  0
 22 23  2  0  0  0  0
 25 26  1  0  0  0  0
 26 23  1  0  0  0  0
 26 24  1  0  0  0  0
 27 25  1  0  0  0  0
 28 29  1  0  0  0  0
 29 13  1  0  0  0  0
 31 30  1  0  0  0  0
 32 33  1  0  0  0  0
 33 31  1  0  0  0  0
 34 19  1  0  0  0  0
 35 34  1  0  0  0  0
 35 37  1  0  0  0  0
 36 35  2  0  0  0  0
M  END
>  <MODEL>
3

>  <REMARK>
 VINA RESULT:      -5.2      3.502      7.406
  Name = 
  6 active torsions:
  status: ('A' for Active; 'I' for Inactive)
    1  A    between atoms: C_1  and  C_5
    2  A    between atoms: C_1  and  C_36
    3  A    between atoms: C_6  and  C_31
    4  A    between atoms: C_24  and  C_28
    5  A    between atoms: C_26  and  C_33
    6  A    between atoms: C_26  and  C_34
                            x       y       z     vdW  Elec       q    Type
                         _______ _______ _______ _____ _____    ______ ____

>  <TORSDO>
F 6

$$$$
=
 OpenBabel10262422553D

 37 42  0  0  1  0  0  0  0  0999 V2000
  188.4670  176.0820  136.5280 C   0  0  0  0  0  2  0  0  0  0  0  0
  185.4670  178.4710  138.8820 C   0  0  1  0  0  3  0  0  0  0  0  0
  185.6870  179.2720  142.6320 C   0  0  0  0  0  2  0  0  0  0  0  0
  187.5260  177.8010  137.9520 C   0  0  2  0  0  0  0  0  0  0  0  0
  185.9830  178.1450  140.3010 C   0  0  2  0  0  3  0  0  0  0  0  0
  186.4810  178.7590  137.9270 O   0  0  0  0  0  0  0  0  0  0  0  0
  185.0360  178.8180  141.3230 C   0  0  1  0  0  3  0  0  0  0  0  0
  188.1750  177.5860  139.3190 C   0  0  1  0  0  3  0  0  0  0  0  0
  188.7740  178.3720  137.3140 C   0  0  1  0  0  3  0  0  0  0  0  0
  183.1460  177.5420  139.2050 C   0  0  0  0  0  2  0  0  0  0  0  0
  189.7930  178.2580  138.8200 S   0  0  0  0  0  0  0  0  0  0  0  0
  186.2360  178.1120  143.4670 C   0  0  0  0  0  2  0  0  0  0  0  0
  184.4200  177.4720  138.3680 C   0  0  1  0  0  3  0  0  0  0  0  0
  187.5050  178.4290  140.4040 C   0  0  2  0  0  3  0  0  0  0  0  0
  187.1930  176.5070  137.2260 C   0  0  0  0  0  2  0  0  0  0  0  0
  183.7740  177.9830  141.6330 C   0  0  2  0  0  3  0  0  0  0  0  0
  189.2420  177.3610  136.2780 C   0  0  0  0  0  2  0  0  0  0  0  0
  187.2590  177.2740  142.6910 C   0  0  1  0  0  3  0  0  0  0  0  0
  188.1760  178.0870  141.7550 C   0  0  2  0  0  3  0  0  0  0  0  0
  183.3600  176.9390  140.5850 C   0  0  0  0  0  2  0  0  0  0  0  0
  182.4570  179.1790  143.5230 C   0  0  0  0  0  2  0  0  0  0  0  0
  182.6220  178.8420  142.0690 C   0  0  0  0  0  0  0  0  0  0  0  0
  181.7070  179.2880  141.1960 C   0  0  0  0  0  3  0  0  0  0  0  0
  179.3100  180.2500  140.4420 Cl  0  0  0  0  0  0  0  0  0  0  0  0
  179.9640  179.5360  142.9830 C   0  0  0  0  0  2  0  0  0  0  0  0
  180.5630  180.1230  141.6960 C   0  0  1  0  0  3  0  0  0  0  0  0
  181.0050  178.9350  143.9530 C   0  0  0  0  0  2  0  0  0  0  0  0
  182.5710  177.6010  136.6960 C   0  0  0  0  0  1  0  0  0  0  0  0
  184.0610  177.7730  136.9190 C   0  0  0  0  0  2  0  0  0  0  0  0
  189.1730  175.6340  142.8890 C   0  0  0  0  0  1  0  0  0  0  0  0
  187.9680  176.2500  143.5820 C   0  0  1  0  0  3  0  0  0  0  0  0
  189.6760  176.7410  145.2210 O   0  0  0  0  0  1  0  0  0  0  0  0
  188.2990  176.7480  144.9910 C   0  0  0  0  0  2  0  0  0  0  0  0
  188.7380  179.3400  142.4360 C   0  0  0  0  0  2  0  0  0  0  0  0
  190.1300  179.1390  142.9260 C   0  0  0  0  0  0  0  0  0  0  0  0
  190.9750  178.2580  142.2650 O   0  0  0  0  0  0  0  0  0  0  0  0
  190.5360  179.7550  143.9450 O   0  0  0  0  0  1  0  0  0  0  0  0
  1 15  1  0  0  0  0
  2  6  1  6  0  0  0
  2  5  1  0  0  0  0
  3 12  1  0  0  0  0
  4 15  1  6  0  0  0
  4  8  1  0  0  0  0
  5 14  1  0  0  0  0
  5  7  1  0  0  0  0
  6  4  1  0  0  0  0
  7 16  1  0  0  0  0
  7  3  1  0  0  0  0
  8 14  1  0  0  0  0
  9  4  1  0  0  0  0
  9 11  1  0  0  0  0
 10 20  1  0  0  0  0
 11  8  1  0  0  0  0
 13  2  1  0  0  0  0
 13 10  1  0  0  0  0
 14 19  1  0  0  0  0
 16 22  1  0  0  0  0
 17  1  1  0  0  0  0
 17  9  1  0  0  0  0
 18 12  1  0  0  0  0
 18 31  1  0  0  0  0
 19 34  1  0  0  0  0
 19 18  1  0  0  0  0
 20 16  1  0  0  0  0
 21 27  1  0  0  0  0
 22 21  1  0  0  0  0
 23 26  1  0  0  0  0
 23 22  2  0  0  0  0
 24 26  1  0  0  0  0
 25 27  1  0  0  0  0
 26 25  1  0  0  0  0
 28 29  1  0  0  0  0
 29 13  1  0  0  0  0
 30 31  1  0  0  0  0
 31 33  1  0  0  0  0
 33 32  1  0  0  0  0
 34 35  1  0  0  0  0
 35 37  1  0  0  0  0
 36 35  2  0  0  0  0
M  END
>  <MODEL>
4

>  <REMARK>
 VINA RESULT:      -5.1      3.372      7.094
  Name = 
  6 active torsions:
  status: ('A' for Active; 'I' for Inactive)
    1  A    between atoms: C_1  and  C_5
    2  A    between atoms: C_1  and  C_36
    3  A    between atoms: C_6  and  C_31
    4  A    between atoms: C_24  and  C_28
    5  A    between atoms: C_26  and  C_33
    6  A    between atoms: C_26  and  C_34
                            x       y       z     vdW  Elec       q    Type
                         _______ _______ _______ _____ _____    ______ ____

>  <TORSDO>
F 6

$$$$
=
 OpenBabel10262422553D

 37 42  0  0  1  0  0  0  0  0999 V2000
  187.0340  178.3430  134.9810 C   0  0  0  0  0  2  0  0  0  0  0  0
  186.1720  177.3320  139.2790 C   0  0  1  0  0  3  0  0  0  0  0  0
  182.7910  177.7670  141.0480 C   0  0  0  0  0  2  0  0  0  0  0  0
  186.0000  177.3430  136.9290 C   0  0  2  0  0  0  0  0  0  0  0  0
  184.7930  178.0170  139.4000 C   0  0  2  0  0  3  0  0  0  0  0  0
  186.3730  176.5990  138.0760 O   0  0  0  0  0  0  0  0  0  0  0  0
  184.3060  177.8650  140.8600 C   0  0  1  0  0  3  0  0  0  0  0  0
  184.5720  177.8880  136.9470 C   0  0  1  0  0  3  0  0  0  0  0  0
  185.7590  176.4140  135.7590 C   0  0  1  0  0  3  0  0  0  0  0  0
  187.3070  178.6550  141.0990 C   0  0  0  0  0  2  0  0  0  0  0  0
  184.0020  176.8540  135.5610 S   0  0  0  0  0  0  0  0  0  0  0  0
  182.0470  179.0370  140.6270 C   0  0  0  0  0  2  0  0  0  0  0  0
  187.3470  178.2560  139.6270 C   0  0  1  0  0  3  0  0  0  0  0  0
  183.8540  177.5550  138.2550 C   0  0  2  0  0  3  0  0  0  0  0  0
  187.0370  178.3660  136.4940 C   0  0  0  0  0  2  0  0  0  0  0  0
  184.8790  178.9350  141.8140 C   0  0  2  0  0  3  0  0  0  0  0  0
  186.5770  176.9500  134.5940 C   0  0  0  0  0  2  0  0  0  0  0  0
  182.3230  179.4130  139.1680 C   0  0  1  0  0  3  0  0  0  0  0  0
  182.4540  178.2110  138.2090 C   0  0  2  0  0  3  0  0  0  0  0  0
  186.1750  179.6330  141.3730 C   0  0  0  0  0  2  0  0  0  0  0  0
  183.7390  178.5680  144.1170 C   0  0  0  0  0  2  0  0  0  0  0  0
  184.9470  178.4500  143.2340 C   0  0  0  0  0  0  0  0  0  0  0  0
  186.0770  177.9460  143.7510 C   0  0  0  0  0  3  0  0  0  0  0  0
  187.7640  177.2490  145.7280 Cl  0  0  0  0  0  0  0  0  0  0  0  0
  185.3880  178.5190  146.0950 C   0  0  0  0  0  2  0  0  0  0  0  0
  186.0910  177.4980  145.1850 C   0  0  1  0  0  3  0  0  0  0  0  0
  184.1370  179.1740  145.4680 C   0  0  0  0  0  2  0  0  0  0  0  0
  189.4030  177.2810  140.6530 C   0  0  0  0  0  1  0  0  0  0  0  0
  188.6730  177.5590  139.3530 C   0  0  0  0  0  2  0  0  0  0  0  0
  180.2350  180.7690  139.6040 C   0  0  0  0  0  1  0  0  0  0  0  0
  181.4220  180.5500  138.6790 C   0  0  1  0  0  3  0  0  0  0  0  0
  181.3130  182.7660  137.7170 O   0  0  0  0  0  1  0  0  0  0  0  0
  182.1560  181.8530  138.3560 C   0  0  0  0  0  2  0  0  0  0  0  0
  181.3420  177.1760  138.4210 C   0  0  0  0  0  2  0  0  0  0  0  0
  180.3230  177.2150  137.3350 C   0  0  0  0  0  0  0  0  0  0  0  0
  179.2960  176.2810  137.3160 O   0  0  0  0  0  1  0  0  0  0  0  0
  180.3990  178.0840  136.4280 O   0  0  0  0  0  0  0  0  0  0  0  0
  1 15  1  0  0  0  0
  2  6  1  6  0  0  0
  2  5  1  0  0  0  0
  2 13  1  0  0  0  0
  4 15  1  6  0  0  0
  4  8  1  0  0  0  0
  4  6  1  0  0  0  0
  5  7  1  0  0  0  0
  7  3  1  0  0  0  0
  7 16  1  0  0  0  0
  8 14  1  0  0  0  0
  9  4  1  0  0  0  0
 10 20  1  0  0  0  0
 11  9  1  0  0  0  0
 11  8  1  0  0  0  0
 12  3  1  0  0  0  0
 13 10  1  0  0  0  0
 14  5  1  0  0  0  0
 16 22  1  0  0  0  0
 17  1  1  0  0  0  0
 17  9  1  0  0  0  0
 18 12  1  0  0  0  0
 19 14  1  0  0  0  0
 19 34  1  0  0  0  0
 19 18  1  0  0  0  0
 20 16  1  0  0  0  0
 21 27  1  0  0  0  0
 22 23  2  0  0  0  0
 22 21  1  0  0  0  0
 23 26  1  0  0  0  0
 26 24  1  0  0  0  0
 26 25  1  0  0  0  0
 27 25  1  0  0  0  0
 29 13  1  0  0  0  0
 29 28  1  0  0  0  0
 31 18  1  0  0  0  0
 31 30  1  0  0  0  0
 32 33  1  0  0  0  0
 33 31  1  0  0  0  0
 35 34  1  0  0  0  0
 36 35  1  0  0  0  0
 37 35  2  0  0  0  0
M  END
>  <MODEL>
5

>  <REMARK>
 VINA RESULT:      -4.9      2.704      6.437
  Name = 
  6 active torsions:
  status: ('A' for Active; 'I' for Inactive)
    1  A    between atoms: C_1  and  C_5
    2  A    between atoms: C_1  and  C_36
    3  A    between atoms: C_6  and  C_31
    4  A    between atoms: C_24  and  C_28
    5  A    between atoms: C_26  and  C_33
    6  A    between atoms: C_26  and  C_34
                            x       y       z     vdW  Elec       q    Type
                         _______ _______ _______ _____ _____    ______ ____

>  <TORSDO>
F 6

$$$$
=
 OpenBabel10262422553D

 37 42  0  0  1  0  0  0  0  0999 V2000
  187.8140  179.0670  148.8090 C   0  0  0  0  0  2  0  0  0  0  0  0
  186.0850  177.7540  144.8680 C   0  0  1  0  0  3  0  0  0  0  0  0
  188.1040  176.7520  141.7580 C   0  0  0  0  0  2  0  0  0  0  0  0
  187.3540  177.7150  146.8530 C   0  0  2  0  0  0  0  0  0  0  0  0
  187.3770  177.8150  144.0240 C   0  0  2  0  0  3  0  0  0  0  0  0
  186.2400  177.1790  146.1600 O   0  0  0  0  0  0  0  0  0  0  0  0
  187.0130  177.4640  142.5620 C   0  0  1  0  0  3  0  0  0  0  0  0
  188.6850  177.6280  146.1070 C   0  0  1  0  0  3  0  0  0  0  0  0
  187.7780  176.7780  147.9640 C   0  0  1  0  0  3  0  0  0  0  0  0
  184.7720  179.4120  143.4960 C   0  0  0  0  0  2  0  0  0  0  0  0
  189.4390  176.4630  147.2850 S   0  0  0  0  0  0  0  0  0  0  0  0
  189.3540  177.6100  141.5460 C   0  0  0  0  0  2  0  0  0  0  0  0
  185.3040  179.0770  144.8860 C   0  0  1  0  0  3  0  0  0  0  0  0
  188.5160  177.0180  144.7150 C   0  0  2  0  0  3  0  0  0  0  0  0
  187.0940  179.0770  147.4780 C   0  0  0  0  0  2  0  0  0  0  0  0
  186.4770  178.6670  141.7560 C   0  0  2  0  0  3  0  0  0  0  0  0
  187.8720  177.6120  149.2330 C   0  0  0  0  0  2  0  0  0  0  0  0
  189.9660  178.0780  142.8710 C   0  0  1  0  0  3  0  0  0  0  0  0
  189.8930  177.0440  144.0130 C   0  0  2  0  0  3  0  0  0  0  0  0
  185.8970  179.8380  142.5640 C   0  0  0  0  0  2  0  0  0  0  0  0
  186.0740  178.2570  139.2250 C   0  0  0  0  0  2  0  0  0  0  0  0
  185.5680  178.2400  140.6390 C   0  0  0  0  0  0  0  0  0  0  0  0
  184.2970  177.8780  140.8650 C   0  0  0  0  0  3  0  0  0  0  0  0
  181.7260  177.4350  140.2060 Cl  0  0  0  0  0  0  0  0  0  0  0  0
  183.6040  178.4520  138.5230 C   0  0  0  0  0  2  0  0  0  0  0  0
  183.4300  177.4840  139.7030 C   0  0  1  0  0  3  0  0  0  0  0  0
  185.0520  178.9470  138.3140 C   0  0  0  0  0  2  0  0  0  0  0  0
  182.8170  178.9890  145.0750 C   0  0  0  0  0  1  0  0  0  0  0  0
  184.1240  178.9860  145.8440 C   0  0  0  0  0  2  0  0  0  0  0  0
  191.8410  179.3720  143.9680 C   0  0  0  0  0  1  0  0  0  0  0  0
  191.3280  178.7520  142.6770 C   0  0  1  0  0  3  0  0  0  0  0  0
  192.2160  177.8790  140.6050 O   0  0  0  0  0  1  0  0  0  0  0  0
  192.3810  177.8790  141.9920 C   0  0  0  0  0  2  0  0  0  0  0  0
  190.3160  175.6430  143.5540 C   0  0  0  0  0  2  0  0  0  0  0  0
  191.5200  175.1520  144.2810 C   0  0  0  0  0  0  0  0  0  0  0  0
  192.0780  175.9200  145.2940 O   0  0  0  0  0  1  0  0  0  0  0  0
  192.0410  174.0500  143.9690 O   0  0  0  0  0  0  0  0  0  0  0  0
  1 17  1  0  0  0  0
  2 13  1  0  0  0  0
  2  6  1  1  0  0  0
  3  7  1  0  0  0  0
  4 15  1  1  0  0  0
  4  9  1  0  0  0  0
  5 14  1  0  0  0  0
  5  2  1  0  0  0  0
  6  4  1  0  0  0  0
  7  5  1  0  0  0  0
  8  4  1  0  0  0  0
  8 11  1  0  0  0  0
  9 17  1  0  0  0  0
 10 13  1  0  0  0  0
 11  9  1  0  0  0  0
 12  3  1  0  0  0  0
 12 18  1  0  0  0  0
 13 29  1  0  0  0  0
 14  8  1  0  0  0  0
 15  1  1  0  0  0  0
 16  7  1  0  0  0  0
 16 20  1  0  0  0  0
 18 19  1  0  0  0  0
 19 14  1  0  0  0  0
 20 10  1  0  0  0  0
 21 22  1  0  0  0  0
 22 23  2  0  0  0  0
 22 16  1  0  0  0  0
 25 26  1  0  0  0  0
 26 24  1  0  0  0  0
 26 23  1  0  0  0  0
 27 25  1  0  0  0  0
 27 21  1  0  0  0  0
 28 29  1  0  0  0  0
 31 18  1  0  0  0  0
 31 30  1  0  0  0  0
 32 33  1  0  0  0  0
 33 31  1  0  0  0  0
 34 19  1  0  0  0  0
 34 35  1  0  0  0  0
 35 36  1  0  0  0  0
 37 35  2  0  0  0  0
M  END
>  <MODEL>
6

>  <REMARK>
 VINA RESULT:      -4.6      3.870      7.379
  Name = 
  6 active torsions:
  status: ('A' for Active; 'I' for Inactive)
    1  A    between atoms: C_1  and  C_5
    2  A    between atoms: C_1  and  C_36
    3  A    between atoms: C_6  and  C_31
    4  A    between atoms: C_24  and  C_28
    5  A    between atoms: C_26  and  C_33
    6  A    between atoms: C_26  and  C_34
                            x       y       z     vdW  Elec       q    Type
                         _______ _______ _______ _____ _____    ______ ____

>  <TORSDO>
F 6

$$$$
=
 OpenBabel10262422553D

 37 42  0  0  1  0  0  0  0  0999 V2000
  188.0340  177.2110  141.5540 C   0  0  0  0  0  2  0  0  0  0  0  0
  191.2070  177.3830  138.3690 C   0  0  1  0  0  3  0  0  0  0  0  0
  190.9350  175.8640  134.8510 C   0  0  0  0  0  2  0  0  0  0  0  0
  189.1210  177.6430  139.4330 C   0  0  2  0  0  0  0  0  0  0  0  0
  190.5970  176.3570  137.3880 C   0  0  2  0  0  3  0  0  0  0  0  0
  190.2760  178.2970  138.9360 O   0  0  0  0  0  0  0  0  0  0  0  0
  191.5780  176.1840  136.2030 C   0  0  1  0  0  3  0  0  0  0  0  0
  188.3950  176.7530  138.4250 C   0  0  1  0  0  3  0  0  0  0  0  0
  187.9790  178.6280  139.5680 C   0  0  1  0  0  3  0  0  0  0  0  0
  193.3810  176.1620  138.7400 C   0  0  0  0  0  2  0  0  0  0  0  0
  186.8940  177.7830  138.3730 S   0  0  0  0  0  0  0  0  0  0  0  0
  190.2130  174.5150  134.8290 C   0  0  0  0  0  2  0  0  0  0  0  0
  192.1430  176.7510  139.4100 C   0  0  1  0  0  3  0  0  0  0  0  0
  189.1190  176.7130  137.0790 C   0  0  2  0  0  3  0  0  0  0  0  0
  189.3210  176.9860  140.7900 C   0  0  0  0  0  2  0  0  0  0  0  0
  192.7130  175.1770  136.4890 C   0  0  2  0  0  3  0  0  0  0  0  0
  187.4330  178.4790  140.9800 C   0  0  0  0  0  2  0  0  0  0  0  0
  189.1280  174.4210  135.9070 C   0  0  1  0  0  3  0  0  0  0  0  0
  188.3570  175.7330  136.1570 C   0  0  2  0  0  3  0  0  0  0  0  0
  193.0380  174.8990  137.9640 C   0  0  0  0  0  2  0  0  0  0  0  0
  194.7470  174.3320  135.1130 C   0  0  0  0  0  2  0  0  0  0  0  0
  193.9440  175.4690  135.6790 C   0  0  0  0  0  0  0  0  0  0  0  0
  194.3730  176.7240  135.4770 C   0  0  0  0  0  3  0  0  0  0  0  0
  196.1820  178.6250  134.8880 Cl  0  0  0  0  0  0  0  0  0  0  0  0
  196.7340  175.9700  135.0890 C   0  0  0  0  0  2  0  0  0  0  0  0
  195.6240  176.9510  134.6790 C   0  0  1  0  0  3  0  0  0  0  0  0
  196.2350  174.5450  135.4130 C   0  0  0  0  0  2  0  0  0  0  0  0
  192.1220  177.4200  141.8150 C   0  0  0  0  0  1  0  0  0  0  0  0
  192.5950  177.7950  140.4230 C   0  0  0  0  0  2  0  0  0  0  0  0
  188.9400  172.1140  134.8910 C   0  0  0  0  0  1  0  0  0  0  0  0
  188.2630  173.1670  135.7540 C   0  0  1  0  0  3  0  0  0  0  0  0
  186.4510  173.0610  137.3520 O   0  0  0  0  0  1  0  0  0  0  0  0
  187.7350  172.5900  137.0690 C   0  0  0  0  0  2  0  0  0  0  0  0
  187.9260  176.4110  134.8500 C   0  0  0  0  0  2  0  0  0  0  0  0
  186.4710  176.7260  134.8320 C   0  0  0  0  0  0  0  0  0  0  0  0
  185.5420  175.7210  135.0610 O   0  0  0  0  0  1  0  0  0  0  0  0
  186.0820  177.8990  134.5940 O   0  0  0  0  0  0  0  0  0  0  0  0
  2  6  1  1  0  0  0
  2 13  1  0  0  0  0
  3  7  1  0  0  0  0
  4  9  1  0  0  0  0
  4 15  1  1  0  0  0
  5  2  1  0  0  0  0
  6  4  1  0  0  0  0
  7 16  1  0  0  0  0
  7  5  1  0  0  0  0
  8  4  1  0  0  0  0
  9 17  1  0  0  0  0
 10 13  1  0  0  0  0
 11  8  1  0  0  0  0
 11  9  1  0  0  0  0
 12  3  1  0  0  0  0
 12 18  1  0  0  0  0
 13 29  1  0  0  0  0
 14  5  1  0  0  0  0
 14  8  1  0  0  0  0
 15  1  1  0  0  0  0
 16 20  1  0  0  0  0
 17  1  1  0  0  0  0
 18 19  1  0  0  0  0
 19 14  1  0  0  0  0
 20 10  1  0  0  0  0
 21 27  1  0  0  0  0
 21 22  1  0  0  0  0
 22 16  1  0  0  0  0
 23 22  2  0  0  0  0
 25 27  1  0  0  0  0
 26 24  1  0  0  0  0
 26 25  1  0  0  0  0
 26 23  1  0  0  0  0
 29 28  1  0  0  0  0
 30 31  1  0  0  0  0
 31 18  1  0  0  0  0
 31 33  1  0  0  0  0
 33 32  1  0  0  0  0
 34 19  1  0  0  0  0
 35 34  1  0  0  0  0
 35 36  1  0  0  0  0
 37 35  2  0  0  0  0
M  END
>  <MODEL>
7

>  <REMARK>
 VINA RESULT:      -4.5      3.795      6.359
  Name = 
  6 active torsions:
  status: ('A' for Active; 'I' for Inactive)
    1  A    between atoms: C_1  and  C_5
    2  A    between atoms: C_1  and  C_36
    3  A    between atoms: C_6  and  C_31
    4  A    between atoms: C_24  and  C_28
    5  A    between atoms: C_26  and  C_33
    6  A    between atoms: C_26  and  C_34
                            x       y       z     vdW  Elec       q    Type
                         _______ _______ _______ _____ _____    ______ ____

>  <TORSDO>
F 6

$$$$
=
 OpenBabel10262422553D

 37 42  0  0  1  0  0  0  0  0999 V2000
  187.8640  171.8690  137.0260 C   0  0  0  0  0  2  0  0  0  0  0  0
  184.6890  175.0250  136.5810 C   0  0  1  0  0  3  0  0  0  0  0  0
  185.0720  178.7340  137.5030 C   0  0  0  0  0  2  0  0  0  0  0  0
  186.7500  173.9090  136.3440 C   0  0  2  0  0  0  0  0  0  0  0  0
  185.3720  176.1480  137.3930 C   0  0  2  0  0  3  0  0  0  0  0  0
  185.5510  174.3110  135.7030 O   0  0  0  0  0  0  0  0  0  0  0  0
  184.4070  177.3570  137.4470 C   0  0  1  0  0  3  0  0  0  0  0  0
  187.5390  175.0350  137.0100 C   0  0  1  0  0  3  0  0  0  0  0  0
  187.8170  173.6060  135.3140 C   0  0  1  0  0  3  0  0  0  0  0  0
  182.6080  174.8770  137.9970 C   0  0  0  0  0  2  0  0  0  0  0  0
  188.9620  174.9060  135.8800 S   0  0  0  0  0  0  0  0  0  0  0  0
  185.8890  178.9600  138.7770 C   0  0  0  0  0  2  0  0  0  0  0  0
  183.8000  174.1080  137.4340 C   0  0  1  0  0  3  0  0  0  0  0  0
  186.8210  176.3800  136.8880 C   0  0  2  0  0  3  0  0  0  0  0  0
  186.5960  172.6740  137.2190 C   0  0  0  0  0  2  0  0  0  0  0  0
  183.3470  177.2470  138.5640 C   0  0  2  0  0  3  0  0  0  0  0  0
  188.3720  172.2290  135.6440 C   0  0  0  0  0  2  0  0  0  0  0  0
  186.9780  177.8970  138.9620 C   0  0  1  0  0  3  0  0  0  0  0  0
  187.6520  177.4350  137.6540 C   0  0  2  0  0  3  0  0  0  0  0  0
  183.0420  175.8380  139.0940 C   0  0  0  0  0  2  0  0  0  0  0  0
  181.5010  177.9080  136.8640 C   0  0  0  0  0  2  0  0  0  0  0  0
  182.0990  178.0160  138.2370 C   0  0  0  0  0  0  0  0  0  0  0  0
  181.5200  178.8310  139.1310 C   0  0  0  0  0  3  0  0  0  0  0  0
  179.9530  180.8680  139.9280 Cl  0  0  0  0  0  0  0  0  0  0  0  0
  180.4310  180.2040  137.3350 C   0  0  0  0  0  2  0  0  0  0  0  0
  180.2860  179.5920  138.7370 C   0  0  1  0  0  3  0  0  0  0  0  0
  181.1800  179.3080  136.3240 C   0  0  0  0  0  2  0  0  0  0  0  0
  181.8620  172.5900  137.0210 C   0  0  0  0  0  1  0  0  0  0  0  0
  183.2740  172.9490  136.5980 C   0  0  0  0  0  2  0  0  0  0  0  0
  187.1840  178.4890  141.4110 C   0  0  0  0  0  1  0  0  0  0  0  0
  187.9320  178.2340  140.1120 C   0  0  1  0  0  3  0  0  0  0  0  0
  189.7600  177.4690  141.4970 O   0  0  0  0  0  1  0  0  0  0  0  0
  189.0910  177.2520  140.2900 C   0  0  0  0  0  2  0  0  0  0  0  0
  188.0330  178.6130  136.7500 C   0  0  0  0  0  2  0  0  0  0  0  0
  188.0550  178.2350  135.3100 C   0  0  0  0  0  0  0  0  0  0  0  0
  189.2530  177.8770  134.7060 O   0  0  0  0  0  1  0  0  0  0  0  0
  186.9920  178.2520  134.6360 O   0  0  0  0  0  0  0  0  0  0  0  0
  1 15  1  0  0  0  0
  2  6  1  1  0  0  0
  2  5  1  0  0  0  0
  2 13  1  0  0  0  0
  3 12  1  0  0  0  0
  4  8  1  0  0  0  0
  4 15  1  1  0  0  0
  5  7  1  0  0  0  0
  6  4  1  0  0  0  0
  7  3  1  0  0  0  0
  7 16  1  0  0  0  0
  9 17  1  0  0  0  0
  9 11  1  0  0  0  0
  9  4  1  0  0  0  0
 10 20  1  0  0  0  0
 11  8  1  0  0  0  0
 12 18  1  0  0  0  0
 13 10  1  0  0  0  0
 14  8  1  0  0  0  0
 14  5  1  0  0  0  0
 14 19  1  0  0  0  0
 16 20  1  0  0  0  0
 17  1  1  0  0  0  0
 18 31  1  0  0  0  0
 19 18  1  0  0  0  0
 21 22  1  0  0  0  0
 22 16  1  0  0  0  0
 22 23  2  0  0  0  0
 25 26  1  0  0  0  0
 26 23  1  0  0  0  0
 26 24  1  0  0  0  0
 27 21  1  0  0  0  0
 27 25  1  0  0  0  0
 29 28  1  0  0  0  0
 29 13  1  0  0  0  0
 31 33  1  0  0  0  0
 31 30  1  0  0  0  0
 33 32  1  0  0  0  0
 34 19  1  0  0  0  0
 35 34  1  0  0  0  0
 36 35  1  0  0  0  0
 37 35  2  0  0  0  0
M  END
>  <MODEL>
8

>  <REMARK>
 VINA RESULT:      -4.4      3.468      7.611
  Name = 
  6 active torsions:
  status: ('A' for Active; 'I' for Inactive)
    1  A    between atoms: C_1  and  C_5
    2  A    between atoms: C_1  and  C_36
    3  A    between atoms: C_6  and  C_31
    4  A    between atoms: C_24  and  C_28
    5  A    between atoms: C_26  and  C_33
    6  A    between atoms: C_26  and  C_34
                            x       y       z     vdW  Elec       q    Type
                         _______ _______ _______ _____ _____    ______ ____

>  <TORSDO>
F 6

$$$$
