=
 OpenBabel10262420403D

 55 59  0  0  1  0  0  0  0  0999 V2000
  186.2050  177.5810  145.6160 C   0  0  0  0  0  2  0  0  0  0  0  0
  185.0760  178.2960  143.1040 C   0  0  0  0  0  0  0  0  0  0  0  0
  186.3580  177.5120  143.0150 C   0  0  2  0  0  3  0  0  0  0  0  0
  185.8620  179.0430  145.3720 C   0  0  0  0  0  2  0  0  0  0  0  0
  186.8450  176.9490  144.3660 C   0  0  0  0  0  2  0  0  0  0  0  0
  184.2670  178.2800  142.0930 N   0  0  0  0  0  0  0  0  0  0  0  0
  184.7570  179.1260  144.3220 C   0  0  0  0  0  2  0  0  0  0  0  0
  183.0910  178.9930  142.1030 O   0  0  0  0  0  0  0  0  0  0  0  0
  181.8550  178.3370  141.8820 C   0  0  0  0  0  2  0  0  0  0  0  0
  181.1660  178.9710  140.7280 C   0  0  0  0  0  0  0  0  0  0  0  0
  180.5990  180.0870  140.8820 O   0  0  0  0  0  0  0  0  0  0  0  0
  181.1410  178.3140  139.4970 O   0  0  0  0  0  0  0  0  0  0  0  0
  181.6200  179.6660  137.1010 O   0  0  0  0  0  0  0  0  0  0  0  0
  182.2940  178.6300  138.2590 P   0  0  1  0  0  0  0  0  0  0  0  0
  183.5040  179.3000  138.8700 O   0  0  0  0  0  1  0  0  0  0  0  0
  183.4440  173.8930  137.1530 C   0  0  0  0  0  2  0  0  0  0  0  0
  182.7840  177.0570  137.4720 C   0  0  1  0  0  0  0  0  0  0  0  0
  181.0610  174.3400  136.2840 C   0  0  0  0  0  2  0  0  0  0  0  0
  182.3660  175.7120  139.4530 O   0  0  0  0  0  1  0  0  0  0  0  0
  181.9900  175.9020  138.1190 C   0  0  2  0  0  3  0  0  0  0  0  0
  184.9810  175.8620  137.1150 C   0  0  0  0  0  3  0  0  0  0  0  0
  180.9630  173.6210  137.6250 C   0  0  0  0  0  2  0  0  0  0  0  0
  184.3700  174.7540  136.3030 C   0  0  1  0  0  3  0  0  0  0  0  0
  182.1000  174.5810  137.3560 C   0  0  0  0  0  0  0  0  0  0  0  0
  182.4720  177.1390  136.1120 O   0  0  0  0  0  1  0  0  0  0  0  0
  184.2750  176.8800  137.6320 C   0  0  0  0  0  3  0  0  0  0  0  0
  185.4340  173.9070  135.6870 C   0  0  0  0  0  0  0  0  0  0  0  0
  186.6760  174.4800  135.2830 N   0  0  0  0  0  1  0  0  0  0  0  0
  185.2440  172.6680  135.5450 O   0  0  0  0  0  0  0  0  0  0  0  0
  187.4380  178.3760  142.3820 C   0  0  0  0  0  2  0  0  0  0  0  0
  187.4920  178.1360  140.9410 N   0  0  0  0  0  2  0  0  0  0  0  0
  188.7220  177.4190  140.5830 C   0  0  1  0  0  3  0  0  0  0  0  0
  189.1770  177.7130  139.1430 C   0  0  1  0  0  3  0  0  0  0  0  0
  189.0880  175.5870  137.8400 C   0  0  0  0  0  3  0  0  0  0  0  0
  191.0650  174.2910  137.3190 C   0  0  0  0  0  3  0  0  0  0  0  0
  191.2640  176.3410  138.5960 C   0  0  0  0  0  0  0  0  0  0  0  0
  191.8530  175.2240  137.9950 C   0  0  0  0  0  3  0  0  0  0  0  0
  189.6830  174.4700  137.2440 C   0  0  0  0  0  3  0  0  0  0  0  0
  189.8690  176.5290  138.5170 C   0  0  0  0  0  0  0  0  0  0  0  0
  192.0700  177.2530  139.2690 O   0  0  0  0  0  1  0  0  0  0  0  0
  188.0030  178.1810  138.2810 C   0  0  0  0  0  2  0  0  0  0  0  0
  188.4790  179.0540  137.1280 C   0  0  0  0  0  2  0  0  0  0  0  0
  187.4870  179.0990  136.1100 O   0  0  0  0  0  0  0  0  0  0  0  0
  187.4080  178.1210  135.1150 C   0  0  0  0  0  0  0  0  0  0  0  0
  188.6550  177.4720  134.6300 C   0  0  0  0  0  1  0  0  0  0  0  0
  186.2960  177.7850  134.6230 O   0  0  0  0  0  0  0  0  0  0  0  0
  189.8370  177.6730  141.6030 C   0  0  0  0  0  2  0  0  0  0  0  0
  190.2660  176.3790  142.2770 C   0  0  0  0  0  2  0  0  0  0  0  0
  191.6230  176.5570  142.9480 C   0  0  0  0  0  2  0  0  0  0  0  0
  191.5920  175.9890  144.3620 C   0  0  0  0  0  2  0  0  0  0  0  0
  189.9870  177.0670  146.7890 C   0  0  0  0  0  0  0  0  0  0  0  0
  189.0530  177.0640  147.6790 N   0  0  0  0  0  2  0  0  0  0  0  0
  191.3830  176.5570  146.7200 C   0  0  0  0  0  2  0  0  0  0  0  0
  191.4550  177.1010  145.3980 C   0  0  2  0  0  3  0  0  0  0  0  0
  190.1160  177.5660  145.4370 O   0  0  0  0  0  0  0  0  0  0  0  0
  2  7  1  0  0  0  0
  3 30  1  1  0  0  0
  3  2  1  0  0  0  0
  3  5  1  0  0  0  0
  4  1  1  0  0  0  0
  5  1  1  0  0  0  0
  6  8  1  0  0  0  0
  6  2  2  0  0  0  0
  7  4  1  0  0  0  0
  9  8  1  0  0  0  0
 10 11  2  0  0  0  0
 10  9  1  0  0  0  0
 12 10  1  0  0  0  0
 14 13  2  6  0  0  0
 14 15  1  0  0  0  0
 14 12  1  0  0  0  0
 16 24  1  0  0  0  0
 17 25  1  6  0  0  0
 17 26  1  0  0  0  0
 17 20  1  0  0  0  0
 17 14  1  0  0  0  0
 18 24  1  0  0  0  0
 18 22  1  0  0  0  0
 20 19  1  1  0  0  0
 21 26  2  0  0  0  0
 23 27  1  1  0  0  0
 23 21  1  0  0  0  0
 23 16  1  0  0  0  0
 24 22  1  0  0  0  0
 24 20  1  0  0  0  0
 28 27  1  0  0  0  0
 29 27  2  0  0  0  0
 31 30  1  0  0  0  0
 32 31  1  0  0  0  0
 32 47  1  1  0  0  0
 33 41  1  6  0  0  0
 33 32  1  0  0  0  0
 34 39  1  0  0  0  0
 35 37  2  0  0  0  0
 36 40  1  0  0  0  0
 37 36  1  0  0  0  0
 38 35  1  0  0  0  0
 38 34  2  0  0  0  0
 39 36  2  0  0  0  0
 39 33  1  0  0  0  0
 42 41  1  0  0  0  0
 43 42  1  0  0  0  0
 44 43  1  0  0  0  0
 45 44  1  0  0  0  0
 46 44  2  0  0  0  0
 47 48  1  0  0  0  0
 48 49  1  0  0  0  0
 49 50  1  0  0  0  0
 51 52  2  0  0  0  0
 53 51  1  0  0  0  0
 54 50  1  6  0  0  0
 54 55  1  0  0  0  0
 54 53  1  0  0  0  0
 55 51  1  0  0  0  0
M  END
>  <MODEL>
1

>  <REMARK>
 VINA RESULT:      -6.8      0.000      0.000
  Name = 
  21 active torsions:
  status: ('A' for Active; 'I' for Inactive)
    1  A    between atoms: C_1  and  C_29
    2  A    between atoms: C_2  and  N_28
    3  A    between atoms: C_2  and  C_31
    4  A    between atoms: C_4  and  O_40
    5  A    between atoms: C_6  and  P_20
    6  A    between atoms: C_8  and  O_22
    7  A    between atoms: C_8  and  C_35
    8  A    between atoms: C_13  and  C_48
    9  A    between atoms: C_13  and  C_52
   10  A    between atoms: C_19  and  O_40
   11  A    between atoms: C_19  and  C_45
   12  A    between atoms: P_20  and  O_22
   13  A    between atoms: C_26  and  C_49
   14  A    between atoms: N_28  and  C_33
   15  A    between atoms: C_33  and  C_34
   16  A    between atoms: C_33  and  C_49
   17  A    between atoms: C_34  and  C_52
   18  A    between atoms: C_35  and  O_51
   19  A    between atoms: C_39  and  C_48
   20  A    between atoms: C_45  and  C_49
   21  A    between atoms: O_51  and  N_54
                            x       y       z     vdW  Elec       q    Type
                         _______ _______ _______ _____ _____    ______ ____

>  <TORSDO>
F 21

$$$$
=
 OpenBabel10262420403D

 55 59  0  0  1  0  0  0  0  0999 V2000
  186.7660  177.1440  144.9530 C   0  0  0  0  0  2  0  0  0  0  0  0
  185.2990  178.2860  142.7990 C   0  0  0  0  0  0  0  0  0  0  0  0
  186.5730  177.5930  142.3930 C   0  0  2  0  0  3  0  0  0  0  0  0
  186.3660  178.6080  145.0520 C   0  0  0  0  0  2  0  0  0  0  0  0
  187.2460  176.7980  143.5310 C   0  0  0  0  0  2  0  0  0  0  0  0
  184.3640  178.4340  141.9160 N   0  0  0  0  0  0  0  0  0  0  0  0
  185.1300  178.8460  144.1890 C   0  0  0  0  0  2  0  0  0  0  0  0
  183.1870  179.0770  142.2180 O   0  0  0  0  0  0  0  0  0  0  0  0
  181.9550  178.3810  142.1580 C   0  0  0  0  0  2  0  0  0  0  0  0
  181.0010  179.1480  141.3150 C   0  0  0  0  0  0  0  0  0  0  0  0
  180.5210  180.2290  141.7510 O   0  0  0  0  0  0  0  0  0  0  0  0
  180.6380  178.6510  140.0610 O   0  0  0  0  0  0  0  0  0  0  0  0
  180.5740  179.9950  137.6150 O   0  0  0  0  0  0  0  0  0  0  0  0
  181.5190  179.0250  138.6310 P   0  0  1  0  0  0  0  0  0  0  0  0
  182.7730  179.7840  139.0050 O   0  0  0  0  0  1  0  0  0  0  0  0
  181.6540  174.4860  136.5420 C   0  0  0  0  0  2  0  0  0  0  0  0
  181.9620  177.4760  137.7710 C   0  0  1  0  0  0  0  0  0  0  0  0
  181.3170  176.2040  134.6530 C   0  0  0  0  0  2  0  0  0  0  0  0
  179.7460  176.4990  137.9810 O   0  0  0  0  0  1  0  0  0  0  0  0
  180.7110  176.9200  137.0590 C   0  0  2  0  0  3  0  0  0  0  0  0
  183.0030  175.2880  138.4850 C   0  0  0  0  0  3  0  0  0  0  0  0
  179.9630  175.6000  135.0090 C   0  0  0  0  0  2  0  0  0  0  0  0
  183.0550  174.7320  137.0890 C   0  0  1  0  0  3  0  0  0  0  0  0
  181.0180  175.7890  136.0760 C   0  0  0  0  0  0  0  0  0  0  0  0
  182.9490  177.7730  136.8270 O   0  0  0  0  0  1  0  0  0  0  0  0
  182.5180  176.5030  138.7840 C   0  0  0  0  0  3  0  0  0  0  0  0
  183.8470  173.4670  137.0570 C   0  0  0  0  0  0  0  0  0  0  0  0
  185.0050  173.3140  137.8750 N   0  0  0  0  0  1  0  0  0  0  0  0
  183.4750  172.5150  136.3170 O   0  0  0  0  0  0  0  0  0  0  0  0
  187.5420  178.6120  141.8150 C   0  0  0  0  0  2  0  0  0  0  0  0
  187.9050  178.2390  140.4480 N   0  0  0  0  0  2  0  0  0  0  0  0
  189.0030  177.2640  140.4530 C   0  0  1  0  0  3  0  0  0  0  0  0
  189.3190  176.7260  139.0470 C   0  0  1  0  0  3  0  0  0  0  0  0
  187.3060  176.1940  137.6720 C   0  0  0  0  0  3  0  0  0  0  0  0
  186.2870  177.7970  136.1730 C   0  0  0  0  0  3  0  0  0  0  0  0
  188.2450  178.4180  137.4590 C   0  0  0  0  0  0  0  0  0  0  0  0
  187.2500  178.7430  136.5310 C   0  0  0  0  0  3  0  0  0  0  0  0
  186.3160  176.5230  136.7400 C   0  0  0  0  0  3  0  0  0  0  0  0
  188.2740  177.1330  138.0400 C   0  0  0  0  0  0  0  0  0  0  0  0
  189.1970  179.3750  137.7950 O   0  0  0  0  0  1  0  0  0  0  0  0
  190.7150  177.1570  138.5940 C   0  0  0  0  0  2  0  0  0  0  0  0
  191.5660  175.9550  138.2090 C   0  0  0  0  0  2  0  0  0  0  0  0
  192.8270  176.3900  137.7150 O   0  0  0  0  0  0  0  0  0  0  0  0
  193.8970  175.5080  137.5500 C   0  0  0  0  0  0  0  0  0  0  0  0
  194.0650  174.7970  136.2540 C   0  0  0  0  0  1  0  0  0  0  0  0
  194.7200  175.3050  138.4840 O   0  0  0  0  0  0  0  0  0  0  0  0
  190.2480  177.8230  141.1500 C   0  0  0  0  0  2  0  0  0  0  0  0
  190.7460  176.8700  142.2250 C   0  0  0  0  0  2  0  0  0  0  0  0
  190.7390  177.5560  143.5860 C   0  0  0  0  0  2  0  0  0  0  0  0
  191.1280  176.5680  144.6790 C   0  0  0  0  0  2  0  0  0  0  0  0
  189.5310  177.1070  147.2840 C   0  0  0  0  0  0  0  0  0  0  0  0
  188.5180  177.0390  148.0810 N   0  0  0  0  0  2  0  0  0  0  0  0
  190.7640  176.3020  147.0710 C   0  0  0  0  0  2  0  0  0  0  0  0
  191.1290  177.2360  146.0500 C   0  0  2  0  0  3  0  0  0  0  0  0
  189.9430  177.9960  146.2200 O   0  0  0  0  0  0  0  0  0  0  0  0
  1  4  1  0  0  0  0
  2  7  1  0  0  0  0
  3 30  1  1  0  0  0
  3  2  1  0  0  0  0
  3  5  1  0  0  0  0
  5  1  1  0  0  0  0
  6  8  1  0  0  0  0
  6  2  2  0  0  0  0
  7  4  1  0  0  0  0
  9  8  1  0  0  0  0
 10 11  2  0  0  0  0
 10  9  1  0  0  0  0
 12 10  1  0  0  0  0
 14 13  2  6  0  0  0
 14 15  1  0  0  0  0
 14 12  1  0  0  0  0
 16 23  1  0  0  0  0
 17 25  1  6  0  0  0
 17 14  1  0  0  0  0
 17 26  1  0  0  0  0
 18 22  1  0  0  0  0
 18 24  1  0  0  0  0
 20 17  1  0  0  0  0
 20 19  1  1  0  0  0
 21 26  2  0  0  0  0
 22 24  1  0  0  0  0
 23 27  1  1  0  0  0
 23 21  1  0  0  0  0
 24 16  1  0  0  0  0
 24 20  1  0  0  0  0
 27 28  1  0  0  0  0
 29 27  2  0  0  0  0
 31 32  1  0  0  0  0
 31 30  1  0  0  0  0
 32 47  1  6  0  0  0
 33 41  1  6  0  0  0
 33 32  1  0  0  0  0
 34 39  1  0  0  0  0
 35 37  2  0  0  0  0
 35 38  1  0  0  0  0
 36 40  1  0  0  0  0
 36 39  2  0  0  0  0
 37 36  1  0  0  0  0
 38 34  2  0  0  0  0
 39 33  1  0  0  0  0
 42 41  1  0  0  0  0
 43 42  1  0  0  0  0
 44 43  1  0  0  0  0
 44 46  2  0  0  0  0
 45 44  1  0  0  0  0
 47 48  1  0  0  0  0
 48 49  1  0  0  0  0
 49 50  1  0  0  0  0
 51 52  2  0  0  0  0
 53 51  1  0  0  0  0
 54 50  1  6  0  0  0
 54 55  1  0  0  0  0
 54 53  1  0  0  0  0
 55 51  1  0  0  0  0
M  END
>  <MODEL>
2

>  <REMARK>
 VINA RESULT:      -6.2      1.430      2.918
  Name = 
  21 active torsions:
  status: ('A' for Active; 'I' for Inactive)
    1  A    between atoms: C_1  and  C_29
    2  A    between atoms: C_2  and  N_28
    3  A    between atoms: C_2  and  C_31
    4  A    between atoms: C_4  and  O_40
    5  A    between atoms: C_6  and  P_20
    6  A    between atoms: C_8  and  O_22
    7  A    between atoms: C_8  and  C_35
    8  A    between atoms: C_13  and  C_48
    9  A    between atoms: C_13  and  C_52
   10  A    between atoms: C_19  and  O_40
   11  A    between atoms: C_19  and  C_45
   12  A    between atoms: P_20  and  O_22
   13  A    between atoms: C_26  and  C_49
   14  A    between atoms: N_28  and  C_33
   15  A    between atoms: C_33  and  C_34
   16  A    between atoms: C_33  and  C_49
   17  A    between atoms: C_34  and  C_52
   18  A    between atoms: C_35  and  O_51
   19  A    between atoms: C_39  and  C_48
   20  A    between atoms: C_45  and  C_49
   21  A    between atoms: O_51  and  N_54
                            x       y       z     vdW  Elec       q    Type
                         _______ _______ _______ _____ _____    ______ ____

>  <TORSDO>
F 21

$$$$
=
 OpenBabel10262420403D

 55 59  0  0  1  0  0  0  0  0999 V2000
  186.5960  177.1240  145.0980 C   0  0  0  0  0  2  0  0  0  0  0  0
  185.5250  178.3150  142.7460 C   0  0  0  0  0  0  0  0  0  0  0  0
  186.7800  177.5120  142.5270 C   0  0  2  0  0  3  0  0  0  0  0  0
  186.3080  178.6180  145.1150 C   0  0  0  0  0  2  0  0  0  0  0  0
  187.2290  176.7000  143.7590 C   0  0  0  0  0  2  0  0  0  0  0  0
  184.7300  178.5090  141.7430 N   0  0  0  0  0  0  0  0  0  0  0  0
  185.2210  178.9270  144.0900 C   0  0  0  0  0  2  0  0  0  0  0  0
  183.5800  179.2520  141.8720 O   0  0  0  0  0  0  0  0  0  0  0  0
  182.3300  178.6100  142.0540 C   0  0  0  0  0  2  0  0  0  0  0  0
  181.5310  178.7350  140.8070 C   0  0  0  0  0  0  0  0  0  0  0  0
  180.9950  179.8400  140.5230 O   0  0  0  0  0  0  0  0  0  0  0  0
  181.3730  177.6230  139.9780 O   0  0  0  0  0  0  0  0  0  0  0  0
  181.1410  178.4020  137.3070 O   0  0  0  0  0  0  0  0  0  0  0  0
  182.0810  177.5300  138.4130 P   0  0  1  0  0  0  0  0  0  0  0  0
  183.4670  178.1340  138.4600 O   0  0  0  0  0  1  0  0  0  0  0  0
  182.6830  173.1970  135.9950 C   0  0  0  0  0  2  0  0  0  0  0  0
  182.1810  175.7810  137.8970 C   0  0  1  0  0  0  0  0  0  0  0  0
  184.7570  173.5560  137.4790 C   0  0  0  0  0  2  0  0  0  0  0  0
  183.0410  176.2840  135.6790 O   0  0  0  0  0  1  0  0  0  0  0  0
  183.3300  175.6230  136.8780 C   0  0  2  0  0  3  0  0  0  0  0  0
  180.5500  174.1310  136.8990 C   0  0  0  0  0  3  0  0  0  0  0  0
  185.0980  173.9800  136.0540 C   0  0  0  0  0  2  0  0  0  0  0  0
  181.5150  172.9800  136.9500 C   0  0  1  0  0  3  0  0  0  0  0  0
  183.6960  174.1650  136.5910 C   0  0  0  0  0  0  0  0  0  0  0  0
  182.4490  175.0100  139.0310 O   0  0  0  0  0  1  0  0  0  0  0  0
  180.8480  175.3710  137.3180 C   0  0  0  0  0  3  0  0  0  0  0  0
  180.8210  171.6980  136.6270 C   0  0  0  0  0  0  0  0  0  0  0  0
  181.4040  170.7660  135.7180 N   0  0  0  0  0  1  0  0  0  0  0  0
  179.7220  171.4240  137.1820 O   0  0  0  0  0  0  0  0  0  0  0  0
  187.8980  178.4330  142.0650 C   0  0  0  0  0  2  0  0  0  0  0  0
  188.2880  178.1010  140.6960 N   0  0  0  0  0  2  0  0  0  0  0  0
  189.2980  177.0350  140.6920 C   0  0  1  0  0  3  0  0  0  0  0  0
  189.8330  176.7360  139.2810 C   0  0  1  0  0  3  0  0  0  0  0  0
  189.0280  178.6660  137.9190 C   0  0  0  0  0  3  0  0  0  0  0  0
  187.3140  178.4450  136.2250 C   0  0  0  0  0  3  0  0  0  0  0  0
  188.0180  176.5040  137.4940 C   0  0  0  0  0  0  0  0  0  0  0  0
  187.2140  177.0810  136.5060 C   0  0  0  0  0  3  0  0  0  0  0  0
  188.2180  179.2380  136.9320 C   0  0  0  0  0  3  0  0  0  0  0  0
  188.9380  177.3010  138.2070 C   0  0  0  0  0  0  0  0  0  0  0  0
  187.8960  175.1450  137.7600 O   0  0  0  0  0  1  0  0  0  0  0  0
  191.2680  177.2400  139.1190 C   0  0  0  0  0  2  0  0  0  0  0  0
  192.1580  176.1760  138.4910 C   0  0  0  0  0  2  0  0  0  0  0  0
  191.3800  175.0410  138.1320 O   0  0  0  0  0  0  0  0  0  0  0  0
  191.4250  174.4930  136.8480 C   0  0  0  0  0  0  0  0  0  0  0  0
  191.0090  175.3230  135.6850 C   0  0  0  0  0  1  0  0  0  0  0  0
  191.8100  173.3070  136.6610 O   0  0  0  0  0  0  0  0  0  0  0  0
  190.4260  177.3260  141.6870 C   0  0  0  0  0  2  0  0  0  0  0  0
  190.6870  176.1250  142.5830 C   0  0  0  0  0  2  0  0  0  0  0  0
  191.3500  176.5680  143.8820 C   0  0  0  0  0  2  0  0  0  0  0  0
  190.5750  177.7240  144.5030 C   0  0  0  0  0  2  0  0  0  0  0  0
  189.3240  176.9910  147.2460 C   0  0  0  0  0  0  0  0  0  0  0  0
  188.4250  176.5190  148.0430 N   0  0  0  0  0  2  0  0  0  0  0  0
  190.5320  176.4430  146.5740 C   0  0  0  0  0  2  0  0  0  0  0  0
  190.7440  177.7460  146.0200 C   0  0  2  0  0  3  0  0  0  0  0  0
  189.5770  178.2750  146.6290 O   0  0  0  0  0  0  0  0  0  0  0  0
  1  4  1  0  0  0  0
  2  7  1  0  0  0  0
  3 30  1  1  0  0  0
  3  2  1  0  0  0  0
  3  5  1  0  0  0  0
  5  1  1  0  0  0  0
  6  8  1  0  0  0  0
  6  2  2  0  0  0  0
  7  4  1  0  0  0  0
  8  9  1  0  0  0  0
 10  9  1  0  0  0  0
 11 10  2  0  0  0  0
 12 10  1  0  0  0  0
 14 13  2  6  0  0  0
 14 15  1  0  0  0  0
 14 12  1  0  0  0  0
 16 24  1  0  0  0  0
 16 23  1  0  0  0  0
 17 14  1  0  0  0  0
 17 25  1  1  0  0  0
 20 19  1  6  0  0  0
 20 17  1  0  0  0  0
 21 23  1  0  0  0  0
 21 26  2  0  0  0  0
 22 24  1  0  0  0  0
 22 18  1  0  0  0  0
 23 27  1  6  0  0  0
 24 20  1  0  0  0  0
 24 18  1  0  0  0  0
 26 17  1  0  0  0  0
 27 29  2  0  0  0  0
 28 27  1  0  0  0  0
 31 30  1  0  0  0  0
 32 31  1  0  0  0  0
 32 47  1  1  0  0  0
 33 41  1  1  0  0  0
 33 32  1  0  0  0  0
 34 39  1  0  0  0  0
 35 37  2  0  0  0  0
 35 38  1  0  0  0  0
 36 40  1  0  0  0  0
 36 39  2  0  0  0  0
 37 36  1  0  0  0  0
 38 34  2  0  0  0  0
 39 33  1  0  0  0  0
 42 41  1  0  0  0  0
 43 42  1  0  0  0  0
 44 43  1  0  0  0  0
 45 44  1  0  0  0  0
 46 44  2  0  0  0  0
 47 48  1  0  0  0  0
 48 49  1  0  0  0  0
 49 50  1  0  0  0  0
 51 52  2  0  0  0  0
 53 51  1  0  0  0  0
 54 50  1  6  0  0  0
 54 53  1  0  0  0  0
 54 55  1  0  0  0  0
 55 51  1  0  0  0  0
M  END
>  <MODEL>
3

>  <REMARK>
 VINA RESULT:      -6.2      1.776      3.170
  Name = 
  21 active torsions:
  status: ('A' for Active; 'I' for Inactive)
    1  A    between atoms: C_1  and  C_29
    2  A    between atoms: C_2  and  N_28
    3  A    between atoms: C_2  and  C_31
    4  A    between atoms: C_4  and  O_40
    5  A    between atoms: C_6  and  P_20
    6  A    between atoms: C_8  and  O_22
    7  A    between atoms: C_8  and  C_35
    8  A    between atoms: C_13  and  C_48
    9  A    between atoms: C_13  and  C_52
   10  A    between atoms: C_19  and  O_40
   11  A    between atoms: C_19  and  C_45
   12  A    between atoms: P_20  and  O_22
   13  A    between atoms: C_26  and  C_49
   14  A    between atoms: N_28  and  C_33
   15  A    between atoms: C_33  and  C_34
   16  A    between atoms: C_33  and  C_49
   17  A    between atoms: C_34  and  C_52
   18  A    between atoms: C_35  and  O_51
   19  A    between atoms: C_39  and  C_48
   20  A    between atoms: C_45  and  C_49
   21  A    between atoms: O_51  and  N_54
                            x       y       z     vdW  Elec       q    Type
                         _______ _______ _______ _____ _____    ______ ____

>  <TORSDO>
F 21

$$$$
=
 OpenBabel10262420403D

 55 59  0  0  1  0  0  0  0  0999 V2000
  183.2180  179.3330  143.8430 C   0  0  0  0  0  2  0  0  0  0  0  0
  184.2870  178.7190  141.2790 C   0  0  0  0  0  0  0  0  0  0  0  0
  182.7860  178.6450  141.3670 C   0  0  2  0  0  3  0  0  0  0  0  0
  184.3070  178.2740  143.7530 C   0  0  0  0  0  2  0  0  0  0  0  0
  182.2070  179.1840  142.6910 C   0  0  0  0  0  2  0  0  0  0  0  0
  184.8330  178.9050  140.1190 N   0  0  0  0  0  0  0  0  0  0  0  0
  185.1460  178.5290  142.5040 C   0  0  0  0  0  2  0  0  0  0  0  0
  186.1990  178.9590  139.9700 O   0  0  0  0  0  0  0  0  0  0  0  0
  186.8590  178.0550  139.1020 C   0  0  0  0  0  2  0  0  0  0  0  0
  188.2700  178.4880  138.9280 C   0  0  0  0  0  0  0  0  0  0  0  0
  188.7360  178.6310  137.7660 O   0  0  0  0  0  0  0  0  0  0  0  0
  189.0630  178.7120  140.0550 O   0  0  0  0  0  0  0  0  0  0  0  0
  189.4890  175.9560  140.1940 O   0  0  0  0  0  0  0  0  0  0  0  0
  189.9670  177.4580  140.8120 P   0  0  1  0  0  0  0  0  0  0  0  0
  191.4370  177.6620  140.5190 O   0  0  0  0  0  1  0  0  0  0  0  0
  189.4750  176.4810  145.6880 C   0  0  0  0  0  2  0  0  0  0  0  0
  189.6790  177.5060  142.6140 C   0  0  1  0  0  0  0  0  0  0  0  0
  191.7290  177.6820  145.3580 C   0  0  0  0  0  2  0  0  0  0  0  0
  190.3710  175.2050  142.9810 O   0  0  0  0  0  1  0  0  0  0  0  0
  190.6590  176.5350  143.3060 C   0  0  2  0  0  3  0  0  0  0  0  0
  187.6670  177.1470  144.0980 C   0  0  0  0  0  3  0  0  0  0  0  0
  191.9860  176.1820  145.4550 C   0  0  0  0  0  2  0  0  0  0  0  0
  188.3980  177.5090  145.3610 C   0  0  1  0  0  3  0  0  0  0  0  0
  190.7110  176.6980  144.8260 C   0  0  0  0  0  0  0  0  0  0  0  0
  189.9190  178.8110  143.0550 O   0  0  0  0  0  1  0  0  0  0  0  0
  188.2380  177.1460  142.8830 C   0  0  0  0  0  3  0  0  0  0  0  0
  187.4440  177.6330  146.5030 C   0  0  0  0  0  0  0  0  0  0  0  0
  187.9240  177.7370  147.8420 N   0  0  0  0  0  1  0  0  0  0  0  0
  186.2030  177.6700  146.2800 O   0  0  0  0  0  0  0  0  0  0  0  0
  182.3340  177.2120  141.1360 C   0  0  0  0  0  2  0  0  0  0  0  0
  182.6390  176.8040  139.7650 N   0  0  0  0  0  2  0  0  0  0  0  0
  181.5190  177.1220  138.8710 C   0  0  1  0  0  3  0  0  0  0  0  0
  181.9860  177.7050  137.5260 C   0  0  1  0  0  3  0  0  0  0  0  0
  181.9630  180.0650  138.3360 C   0  0  0  0  0  3  0  0  0  0  0  0
  180.8430  181.8450  137.1390 C   0  0  0  0  0  3  0  0  0  0  0  0
  180.7980  179.5850  136.2650 C   0  0  0  0  0  0  0  0  0  0  0  0
  180.4420  180.9340  136.1610 C   0  0  0  0  0  3  0  0  0  0  0  0
  181.6010  181.4120  138.2280 C   0  0  0  0  0  3  0  0  0  0  0  0
  181.5690  179.1440  137.3610 C   0  0  0  0  0  0  0  0  0  0  0  0
  180.3820  178.6960  135.2810 O   0  0  0  0  0  1  0  0  0  0  0  0
  183.4980  177.5480  137.3550 C   0  0  0  0  0  2  0  0  0  0  0  0
  183.8290  176.4870  136.3150 C   0  0  0  0  0  2  0  0  0  0  0  0
  183.8190  175.1980  136.9180 O   0  0  0  0  0  0  0  0  0  0  0  0
  185.0000  174.4960  137.1740 C   0  0  0  0  0  0  0  0  0  0  0  0
  184.9240  173.1120  137.7150 C   0  0  0  0  0  1  0  0  0  0  0  0
  186.1260  175.0200  136.9550 O   0  0  0  0  0  0  0  0  0  0  0  0
  180.5890  175.9190  138.6870 C   0  0  0  0  0  2  0  0  0  0  0  0
  179.4250  176.2640  137.7710 C   0  0  0  0  0  2  0  0  0  0  0  0
  179.2530  175.1880  136.7050 C   0  0  0  0  0  2  0  0  0  0  0  0
  180.5410  174.3880  136.5490 C   0  0  0  0  0  2  0  0  0  0  0  0
  181.7340  171.5560  136.1180 C   0  0  0  0  0  0  0  0  0  0  0  0
  182.6700  170.6890  135.9250 N   0  0  0  0  0  2  0  0  0  0  0  0
  181.0610  172.1350  137.3130 C   0  0  0  0  0  2  0  0  0  0  0  0
  180.2480  172.8970  136.4130 C   0  0  2  0  0  3  0  0  0  0  0  0
  180.9020  172.3770  135.2660 O   0  0  0  0  0  0  0  0  0  0  0  0
  2  3  1  0  0  0  0
  2  7  1  0  0  0  0
  3 30  1  1  0  0  0
  3  5  1  0  0  0  0
  4  1  1  0  0  0  0
  5  1  1  0  0  0  0
  6  2  2  0  0  0  0
  7  4  1  0  0  0  0
  8  6  1  0  0  0  0
  9  8  1  0  0  0  0
 10  9  1  0  0  0  0
 10 12  1  0  0  0  0
 11 10  2  0  0  0  0
 12 14  1  0  0  0  0
 14 13  2  6  0  0  0
 14 17  1  0  0  0  0
 15 14  1  0  0  0  0
 17 26  1  0  0  0  0
 17 25  1  1  0  0  0
 17 20  1  0  0  0  0
 18 22  1  0  0  0  0
 20 19  1  1  0  0  0
 20 24  1  0  0  0  0
 21 23  1  0  0  0  0
 23 16  1  0  0  0  0
 23 27  1  1  0  0  0
 24 18  1  0  0  0  0
 24 22  1  0  0  0  0
 24 16  1  0  0  0  0
 26 21  2  0  0  0  0
 27 28  1  0  0  0  0
 29 27  2  0  0  0  0
 31 30  1  0  0  0  0
 32 47  1  6  0  0  0
 32 31  1  0  0  0  0
 33 41  1  1  0  0  0
 33 32  1  0  0  0  0
 35 38  2  0  0  0  0
 36 39  1  0  0  0  0
 37 36  2  0  0  0  0
 37 35  1  0  0  0  0
 38 34  1  0  0  0  0
 39 33  1  0  0  0  0
 39 34  2  0  0  0  0
 40 36  1  0  0  0  0
 42 43  1  0  0  0  0
 42 41  1  0  0  0  0
 43 44  1  0  0  0  0
 44 45  1  0  0  0  0
 46 44  2  0  0  0  0
 48 47  1  0  0  0  0
 49 48  1  0  0  0  0
 50 49  1  0  0  0  0
 51 53  1  0  0  0  0
 52 51  2  0  0  0  0
 54 50  1  1  0  0  0
 54 53  1  0  0  0  0
 55 51  1  0  0  0  0
 55 54  1  0  0  0  0
M  END
>  <MODEL>
4

>  <REMARK>
 VINA RESULT:      -6.1      2.825      9.626
  Name = 
  21 active torsions:
  status: ('A' for Active; 'I' for Inactive)
    1  A    between atoms: C_1  and  C_29
    2  A    between atoms: C_2  and  N_28
    3  A    between atoms: C_2  and  C_31
    4  A    between atoms: C_4  and  O_40
    5  A    between atoms: C_6  and  P_20
    6  A    between atoms: C_8  and  O_22
    7  A    between atoms: C_8  and  C_35
    8  A    between atoms: C_13  and  C_48
    9  A    between atoms: C_13  and  C_52
   10  A    between atoms: C_19  and  O_40
   11  A    between atoms: C_19  and  C_45
   12  A    between atoms: P_20  and  O_22
   13  A    between atoms: C_26  and  C_49
   14  A    between atoms: N_28  and  C_33
   15  A    between atoms: C_33  and  C_34
   16  A    between atoms: C_33  and  C_49
   17  A    between atoms: C_34  and  C_52
   18  A    between atoms: C_35  and  O_51
   19  A    between atoms: C_39  and  C_48
   20  A    between atoms: C_45  and  C_49
   21  A    between atoms: O_51  and  N_54
                            x       y       z     vdW  Elec       q    Type
                         _______ _______ _______ _____ _____    ______ ____

>  <TORSDO>
F 21

$$$$
=
 OpenBabel10262420403D

 55 59  0  0  1  0  0  0  0  0999 V2000
  186.9580  177.2700  146.0010 C   0  0  0  0  0  2  0  0  0  0  0  0
  185.2820  178.2970  143.9430 C   0  0  0  0  0  0  0  0  0  0  0  0
  186.3930  177.4040  143.4600 C   0  0  2  0  0  3  0  0  0  0  0  0
  186.7320  178.7740  145.9410 C   0  0  0  0  0  2  0  0  0  0  0  0
  187.1580  176.6850  144.5900 C   0  0  0  0  0  2  0  0  0  0  0  0
  184.2340  178.4440  143.1970 N   0  0  0  0  0  0  0  0  0  0  0  0
  185.4030  179.0500  145.2450 C   0  0  0  0  0  2  0  0  0  0  0  0
  183.1950  179.2640  143.5720 O   0  0  0  0  0  0  0  0  0  0  0  0
  181.8890  178.7380  143.7290 C   0  0  0  0  0  2  0  0  0  0  0  0
  181.0110  179.2850  142.6620 C   0  0  0  0  0  0  0  0  0  0  0  0
  180.4230  180.3850  142.8470 O   0  0  0  0  0  0  0  0  0  0  0  0
  180.8380  178.5660  141.4780 O   0  0  0  0  0  0  0  0  0  0  0  0
  180.9180  180.5040  139.4710 O   0  0  0  0  0  0  0  0  0  0  0  0
  181.5750  179.0350  139.9960 P   0  0  1  0  0  0  0  0  0  0  0  0
  183.0610  179.2160  140.2180 O   0  0  0  0  0  1  0  0  0  0  0  0
  179.7900  176.0570  136.4010 C   0  0  0  0  0  2  0  0  0  0  0  0
  181.2860  177.7430  138.7390 C   0  0  1  0  0  0  0  0  0  0  0  0
  181.5080  177.6420  135.3190 C   0  0  0  0  0  2  0  0  0  0  0  0
  179.1730  178.6790  137.9840 O   0  0  0  0  0  1  0  0  0  0  0  0
  180.4690  178.3460  137.5760 C   0  0  2  0  0  3  0  0  0  0  0  0
  180.2590  175.4350  138.7740 C   0  0  0  0  0  3  0  0  0  0  0  0
  180.1080  178.1890  135.0570 C   0  0  0  0  0  2  0  0  0  0  0  0
  180.5840  175.1510  137.3340 C   0  0  1  0  0  3  0  0  0  0  0  0
  180.4100  177.4470  136.3400 C   0  0  0  0  0  0  0  0  0  0  0  0
  182.5290  177.3110  138.2680 O   0  0  0  0  0  1  0  0  0  0  0  0
  180.5710  176.5840  139.3930 C   0  0  0  0  0  3  0  0  0  0  0  0
  180.3150  173.7190  137.0080 C   0  0  0  0  0  0  0  0  0  0  0  0
  180.0960  173.3100  135.6590 N   0  0  0  0  0  1  0  0  0  0  0  0
  180.3050  172.8580  137.9300 O   0  0  0  0  0  0  0  0  0  0  0  0
  187.3530  178.2090  142.6000 C   0  0  0  0  0  2  0  0  0  0  0  0
  187.7870  177.4130  141.4520 N   0  0  0  0  0  2  0  0  0  0  0  0
  189.2430  177.4930  141.2890 C   0  0  1  0  0  3  0  0  0  0  0  0
  189.6530  177.9750  139.8860 C   0  0  1  0  0  3  0  0  0  0  0  0
  189.7410  176.0200  138.3370 C   0  0  0  0  0  3  0  0  0  0  0  0
  191.8160  174.9460  137.7070 C   0  0  0  0  0  3  0  0  0  0  0  0
  191.8440  176.8350  139.2240 C   0  0  0  0  0  0  0  0  0  0  0  0
  192.5230  175.8460  138.5060 C   0  0  0  0  0  3  0  0  0  0  0  0
  190.4250  175.0310  137.6240 C   0  0  0  0  0  3  0  0  0  0  0  0
  190.4400  176.9290  139.1390 C   0  0  0  0  0  0  0  0  0  0  0  0
  192.5710  177.7160  140.0180 O   0  0  0  0  0  1  0  0  0  0  0  0
  188.4330  178.4230  139.0810 C   0  0  0  0  0  2  0  0  0  0  0  0
  188.8460  179.2030  137.8410 C   0  0  0  0  0  2  0  0  0  0  0  0
  187.7590  179.2750  136.9260 O   0  0  0  0  0  0  0  0  0  0  0  0
  186.8120  178.2520  136.8270 C   0  0  0  0  0  0  0  0  0  0  0  0
  187.0810  177.0930  135.9350 C   0  0  0  0  0  1  0  0  0  0  0  0
  185.7340  178.3000  137.4800 O   0  0  0  0  0  0  0  0  0  0  0  0
  189.8880  178.3310  142.3980 C   0  0  0  0  0  2  0  0  0  0  0  0
  191.0390  177.5820  143.0500 C   0  0  0  0  0  2  0  0  0  0  0  0
  190.6800  177.2040  144.4820 C   0  0  0  0  0  2  0  0  0  0  0  0
  191.8000  176.3820  145.1090 C   0  0  0  0  0  2  0  0  0  0  0  0
  192.5090  176.2170  148.1250 C   0  0  0  0  0  0  0  0  0  0  0  0
  193.2140  176.4370  149.1840 N   0  0  0  0  0  2  0  0  0  0  0  0
  191.3760  176.9040  147.4490 C   0  0  0  0  0  2  0  0  0  0  0  0
  191.3910  175.8510  146.4800 C   0  0  2  0  0  3  0  0  0  0  0  0
  192.4920  175.2010  147.0960 O   0  0  0  0  0  0  0  0  0  0  0  0
  2  7  1  0  0  0  0
  3 30  1  1  0  0  0
  3  2  1  0  0  0  0
  3  5  1  0  0  0  0
  4  1  1  0  0  0  0
  5  1  1  0  0  0  0
  6  8  1  0  0  0  0
  6  2  2  0  0  0  0
  7  4  1  0  0  0  0
  8  9  1  0  0  0  0
 10 11  2  0  0  0  0
 10  9  1  0  0  0  0
 12 10  1  0  0  0  0
 14 13  2  6  0  0  0
 14 15  1  0  0  0  0
 14 12  1  0  0  0  0
 16 23  1  0  0  0  0
 17 25  1  6  0  0  0
 17 26  1  0  0  0  0
 17 14  1  0  0  0  0
 18 24  1  0  0  0  0
 20 19  1  1  0  0  0
 20 17  1  0  0  0  0
 21 26  2  0  0  0  0
 22 18  1  0  0  0  0
 22 24  1  0  0  0  0
 23 27  1  6  0  0  0
 23 21  1  0  0  0  0
 24 16  1  0  0  0  0
 24 20  1  0  0  0  0
 27 29  2  0  0  0  0
 28 27  1  0  0  0  0
 31 30  1  0  0  0  0
 32 31  1  0  0  0  0
 32 47  1  1  0  0  0
 33 41  1  6  0  0  0
 33 32  1  0  0  0  0
 34 39  1  0  0  0  0
 35 37  2  0  0  0  0
 36 40  1  0  0  0  0
 37 36  1  0  0  0  0
 38 35  1  0  0  0  0
 38 34  2  0  0  0  0
 39 36  2  0  0  0  0
 39 33  1  0  0  0  0
 42 41  1  0  0  0  0
 43 42  1  0  0  0  0
 44 43  1  0  0  0  0
 44 46  2  0  0  0  0
 45 44  1  0  0  0  0
 47 48  1  0  0  0  0
 48 49  1  0  0  0  0
 49 50  1  0  0  0  0
 51 52  2  0  0  0  0
 53 51  1  0  0  0  0
 54 50  1  6  0  0  0
 54 55  1  0  0  0  0
 54 53  1  0  0  0  0
 55 51  1  0  0  0  0
M  END
>  <MODEL>
5

>  <REMARK>
 VINA RESULT:      -5.9      2.123      2.659
  Name = 
  21 active torsions:
  status: ('A' for Active; 'I' for Inactive)
    1  A    between atoms: C_1  and  C_29
    2  A    between atoms: C_2  and  N_28
    3  A    between atoms: C_2  and  C_31
    4  A    between atoms: C_4  and  O_40
    5  A    between atoms: C_6  and  P_20
    6  A    between atoms: C_8  and  O_22
    7  A    between atoms: C_8  and  C_35
    8  A    between atoms: C_13  and  C_48
    9  A    between atoms: C_13  and  C_52
   10  A    between atoms: C_19  and  O_40
   11  A    between atoms: C_19  and  C_45
   12  A    between atoms: P_20  and  O_22
   13  A    between atoms: C_26  and  C_49
   14  A    between atoms: N_28  and  C_33
   15  A    between atoms: C_33  and  C_34
   16  A    between atoms: C_33  and  C_49
   17  A    between atoms: C_34  and  C_52
   18  A    between atoms: C_35  and  O_51
   19  A    between atoms: C_39  and  C_48
   20  A    between atoms: C_45  and  C_49
   21  A    between atoms: O_51  and  N_54
                            x       y       z     vdW  Elec       q    Type
                         _______ _______ _______ _____ _____    ______ ____

>  <TORSDO>
F 21

$$$$
=
 OpenBabel10262420403D

 55 59  0  0  1  0  0  0  0  0999 V2000
  183.4990  179.1070  143.9800 C   0  0  0  0  0  2  0  0  0  0  0  0
  184.5250  178.8570  141.3380 C   0  0  0  0  0  0  0  0  0  0  0  0
  183.0350  179.0510  141.4160 C   0  0  2  0  0  3  0  0  0  0  0  0
  184.3740  177.9050  143.6600 C   0  0  0  0  0  2  0  0  0  0  0  0
  182.5190  179.3990  142.8280 C   0  0  0  0  0  2  0  0  0  0  0  0
  185.1370  179.1760  140.2430 N   0  0  0  0  0  0  0  0  0  0  0  0
  185.2900  178.2530  142.4910 C   0  0  0  0  0  2  0  0  0  0  0  0
  186.4940  179.0010  140.1010 O   0  0  0  0  0  0  0  0  0  0  0  0
  187.0060  178.2080  139.0440 C   0  0  0  0  0  2  0  0  0  0  0  0
  188.4910  178.2210  139.1000 C   0  0  0  0  0  0  0  0  0  0  0  0
  189.1520  178.1250  138.0310 O   0  0  0  0  0  0  0  0  0  0  0  0
  189.1310  178.3220  140.3370 O   0  0  0  0  0  0  0  0  0  0  0  0
  190.2220  175.7740  140.0020 O   0  0  0  0  0  0  0  0  0  0  0  0
  190.3890  177.2500  140.8140 P   0  0  1  0  0  0  0  0  0  0  0  0
  191.7250  177.8600  140.4500 O   0  0  0  0  0  1  0  0  0  0  0  0
  189.9730  177.6410  145.7800 C   0  0  0  0  0  2  0  0  0  0  0  0
  190.3010  176.9770  142.6180 C   0  0  1  0  0  0  0  0  0  0  0  0
  187.7310  176.7530  144.8770 C   0  0  0  0  0  2  0  0  0  0  0  0
  189.7670  179.2920  143.1360 O   0  0  0  0  0  1  0  0  0  0  0  0
  189.2960  177.9780  143.2290 C   0  0  2  0  0  3  0  0  0  0  0  0
  191.9950  176.9410  144.4910 C   0  0  0  0  0  3  0  0  0  0  0  0
  187.6000  178.2540  145.1130 C   0  0  0  0  0  2  0  0  0  0  0  0
  190.9930  176.5350  145.5350 C   0  0  1  0  0  3  0  0  0  0  0  0
  188.9220  177.6620  144.6780 C   0  0  0  0  0  0  0  0  0  0  0  0
  189.8560  175.6710  142.8360 O   0  0  0  0  0  1  0  0  0  0  0  0
  191.6850  177.1370  143.2000 C   0  0  0  0  0  3  0  0  0  0  0  0
  191.6800  176.1810  146.8130 C   0  0  0  0  0  0  0  0  0  0  0  0
  191.6490  177.0730  147.9250 N   0  0  0  0  0  1  0  0  0  0  0  0
  192.2730  175.0720  146.9180 O   0  0  0  0  0  0  0  0  0  0  0  0
  182.3330  177.8110  140.8880 C   0  0  0  0  0  2  0  0  0  0  0  0
  181.1450  178.1940  140.1240 N   0  0  0  0  0  2  0  0  0  0  0  0
  181.0060  177.3520  138.9300 C   0  0  1  0  0  3  0  0  0  0  0  0
  181.4570  178.0710  137.6470 C   0  0  1  0  0  3  0  0  0  0  0  0
  181.9270  180.4330  138.3020 C   0  0  0  0  0  3  0  0  0  0  0  0
  180.4560  182.2660  137.7240 C   0  0  0  0  0  3  0  0  0  0  0  0
  179.9000  180.0080  137.0420 C   0  0  0  0  0  0  0  0  0  0  0  0
  179.5990  181.3730  137.0790 C   0  0  0  0  0  3  0  0  0  0  0  0
  181.6180  181.7960  138.3380 C   0  0  0  0  0  3  0  0  0  0  0  0
  181.0770  179.5300  137.6560 C   0  0  0  0  0  0  0  0  0  0  0  0
  179.0270  179.1370  136.3980 O   0  0  0  0  0  1  0  0  0  0  0  0
  182.9590  177.8970  137.4170 C   0  0  0  0  0  2  0  0  0  0  0  0
  183.2560  177.5090  135.9760 C   0  0  0  0  0  2  0  0  0  0  0  0
  184.6290  177.1640  135.8380 O   0  0  0  0  0  0  0  0  0  0  0  0
  185.0880  175.8640  136.0680 C   0  0  0  0  0  0  0  0  0  0  0  0
  185.1820  174.9110  134.9300 C   0  0  0  0  0  1  0  0  0  0  0  0
  185.4190  175.4890  137.2260 O   0  0  0  0  0  0  0  0  0  0  0  0
  181.7060  176.0010  139.1100 C   0  0  0  0  0  2  0  0  0  0  0  0
  180.6960  174.8900  139.3510 C   0  0  0  0  0  2  0  0  0  0  0  0
  180.0500  174.4680  138.0370 C   0  0  0  0  0  2  0  0  0  0  0  0
  181.0850  174.4570  136.9190 C   0  0  0  0  0  2  0  0  0  0  0  0
  182.5090  171.7180  136.6060 C   0  0  0  0  0  0  0  0  0  0  0  0
  183.4030  170.8190  136.8500 N   0  0  0  0  0  2  0  0  0  0  0  0
  181.1550  172.0330  137.1380 C   0  0  0  0  0  2  0  0  0  0  0  0
  181.1010  173.1120  136.1980 C   0  0  2  0  0  3  0  0  0  0  0  0
  182.4030  172.8430  135.7030 O   0  0  0  0  0  0  0  0  0  0  0  0
  2  3  1  0  0  0  0
  2  7  1  0  0  0  0
  3 30  1  1  0  0  0
  3  5  1  0  0  0  0
  4  1  1  0  0  0  0
  5  1  1  0  0  0  0
  6  2  2  0  0  0  0
  7  4  1  0  0  0  0
  8  6  1  0  0  0  0
  9 10  1  0  0  0  0
  9  8  1  0  0  0  0
 10 12  1  0  0  0  0
 11 10  2  0  0  0  0
 12 14  1  0  0  0  0
 14 13  2  6  0  0  0
 14 17  1  0  0  0  0
 15 14  1  0  0  0  0
 17 25  1  1  0  0  0
 17 26  1  0  0  0  0
 17 20  1  0  0  0  0
 18 22  1  0  0  0  0
 20 19  1  1  0  0  0
 20 24  1  0  0  0  0
 21 23  1  0  0  0  0
 23 16  1  0  0  0  0
 23 27  1  1  0  0  0
 24 18  1  0  0  0  0
 24 22  1  0  0  0  0
 24 16  1  0  0  0  0
 26 21  2  0  0  0  0
 27 29  2  0  0  0  0
 27 28  1  0  0  0  0
 31 30  1  0  0  0  0
 32 47  1  1  0  0  0
 32 31  1  0  0  0  0
 33 41  1  1  0  0  0
 33 39  1  0  0  0  0
 33 32  1  0  0  0  0
 34 38  1  0  0  0  0
 35 38  2  0  0  0  0
 36 37  2  0  0  0  0
 36 39  1  0  0  0  0
 37 35  1  0  0  0  0
 39 34  2  0  0  0  0
 40 36  1  0  0  0  0
 42 41  1  0  0  0  0
 43 42  1  0  0  0  0
 43 44  1  0  0  0  0
 44 46  2  0  0  0  0
 45 44  1  0  0  0  0
 47 48  1  0  0  0  0
 49 48  1  0  0  0  0
 50 49  1  0  0  0  0
 51 52  2  0  0  0  0
 51 53  1  0  0  0  0
 54 50  1  1  0  0  0
 54 53  1  0  0  0  0
 55 54  1  0  0  0  0
 55 51  1  0  0  0  0
M  END
>  <MODEL>
6

>  <REMARK>
 VINA RESULT:      -5.8      2.743      9.576
  Name = 
  21 active torsions:
  status: ('A' for Active; 'I' for Inactive)
    1  A    between atoms: C_1  and  C_29
    2  A    between atoms: C_2  and  N_28
    3  A    between atoms: C_2  and  C_31
    4  A    between atoms: C_4  and  O_40
    5  A    between atoms: C_6  and  P_20
    6  A    between atoms: C_8  and  O_22
    7  A    between atoms: C_8  and  C_35
    8  A    between atoms: C_13  and  C_48
    9  A    between atoms: C_13  and  C_52
   10  A    between atoms: C_19  and  O_40
   11  A    between atoms: C_19  and  C_45
   12  A    between atoms: P_20  and  O_22
   13  A    between atoms: C_26  and  C_49
   14  A    between atoms: N_28  and  C_33
   15  A    between atoms: C_33  and  C_34
   16  A    between atoms: C_33  and  C_49
   17  A    between atoms: C_34  and  C_52
   18  A    between atoms: C_35  and  O_51
   19  A    between atoms: C_39  and  C_48
   20  A    between atoms: C_45  and  C_49
   21  A    between atoms: O_51  and  N_54
                            x       y       z     vdW  Elec       q    Type
                         _______ _______ _______ _____ _____    ______ ____

>  <TORSDO>
F 21

$$$$
=
 OpenBabel10262420403D

 55 59  0  0  1  0  0  0  0  0999 V2000
  187.1780  177.2380  145.9120 C   0  0  0  0  0  2  0  0  0  0  0  0
  185.2410  178.2760  144.1050 C   0  0  0  0  0  0  0  0  0  0  0  0
  186.3230  177.4530  143.4600 C   0  0  2  0  0  3  0  0  0  0  0  0
  186.8900  178.7310  145.9470 C   0  0  0  0  0  2  0  0  0  0  0  0
  187.2390  176.7210  144.4620 C   0  0  0  0  0  2  0  0  0  0  0  0
  184.1100  178.4080  143.4880 N   0  0  0  0  0  0  0  0  0  0  0  0
  185.4800  178.9780  145.4190 C   0  0  0  0  0  2  0  0  0  0  0  0
  183.0900  179.1660  144.0140 O   0  0  0  0  0  0  0  0  0  0  0  0
  181.7490  178.7180  143.9290 C   0  0  0  0  0  2  0  0  0  0  0  0
  181.1140  179.3060  142.7210 C   0  0  0  0  0  0  0  0  0  0  0  0
  180.4330  180.3610  142.8310 O   0  0  0  0  0  0  0  0  0  0  0  0
  181.2670  178.6720  141.4860 O   0  0  0  0  0  0  0  0  0  0  0  0
  179.3050  176.7550  142.0040 O   0  0  0  0  0  1  0  0  0  0  0  0
  180.0370  177.6870  140.7950 P   0  0  1  0  0  0  0  0  0  0  0  0
  178.9890  178.5760  140.1620 O   0  0  0  0  0  0  0  0  0  0  0  0
  181.7610  175.5470  136.6210 C   0  0  0  0  0  2  0  0  0  0  0  0
  180.7740  176.5950  139.5320 C   0  0  1  0  0  0  0  0  0  0  0  0
  183.7770  176.5400  137.8780 C   0  0  0  0  0  2  0  0  0  0  0  0
  180.4730  178.1760  137.7110 O   0  0  0  0  0  1  0  0  0  0  0  0
  181.4320  177.4630  138.4380 C   0  0  2  0  0  3  0  0  0  0  0  0
  179.8960  174.7320  138.0690 C   0  0  0  0  0  3  0  0  0  0  0  0
  183.3650  177.5100  136.7760 C   0  0  0  0  0  2  0  0  0  0  0  0
  181.2440  174.4060  137.4890 C   0  0  1  0  0  3  0  0  0  0  0  0
  182.3240  176.6700  137.4820 C   0  0  0  0  0  0  0  0  0  0  0  0
  181.7450  175.8070  140.1550 O   0  0  0  0  0  1  0  0  0  0  0  0
  179.6910  175.7030  138.9730 C   0  0  0  0  0  3  0  0  0  0  0  0
  181.1820  173.1450  136.6920 C   0  0  0  0  0  0  0  0  0  0  0  0
  181.9200  171.9940  137.0960 N   0  0  0  0  0  1  0  0  0  0  0  0
  180.4500  173.0880  135.6650 O   0  0  0  0  0  0  0  0  0  0  0  0
  187.1490  178.3340  142.5360 C   0  0  0  0  0  2  0  0  0  0  0  0
  188.0880  177.5160  141.7690 N   0  0  0  0  0  2  0  0  0  0  0  0
  189.0600  178.3660  141.0690 C   0  0  1  0  0  3  0  0  0  0  0  0
  190.5070  177.8770  141.2510 C   0  0  1  0  0  3  0  0  0  0  0  0
  190.9930  176.0860  142.9200 C   0  0  0  0  0  3  0  0  0  0  0  0
  191.3030  176.5460  145.2760 C   0  0  0  0  0  3  0  0  0  0  0  0
  190.8300  178.3610  143.7420 C   0  0  0  0  0  0  0  0  0  0  0  0
  191.0920  177.9050  145.0380 C   0  0  0  0  0  3  0  0  0  0  0  0
  191.2510  175.6370  144.2190 C   0  0  0  0  0  3  0  0  0  0  0  0
  190.7820  177.4460  142.6700 C   0  0  0  0  0  0  0  0  0  0  0  0
  190.6170  179.7190  143.5310 O   0  0  0  0  0  1  0  0  0  0  0  0
  190.8380  176.7570  140.2640 C   0  0  0  0  0  2  0  0  0  0  0  0
  192.1180  177.0580  139.4970 C   0  0  0  0  0  2  0  0  0  0  0  0
  191.8700  177.0000  138.0970 O   0  0  0  0  0  0  0  0  0  0  0  0
  191.9920  175.8090  137.3770 C   0  0  0  0  0  0  0  0  0  0  0  0
  191.9460  175.8480  135.8900 C   0  0  0  0  0  1  0  0  0  0  0  0
  192.1370  174.7050  137.9680 O   0  0  0  0  0  0  0  0  0  0  0  0
  188.6910  178.5420  139.5930 C   0  0  0  0  0  2  0  0  0  0  0  0
  188.4090  177.2000  138.9360 C   0  0  0  0  0  2  0  0  0  0  0  0
  188.5340  177.3150  137.4220 C   0  0  0  0  0  2  0  0  0  0  0  0
  187.1980  177.0090  136.7550 C   0  0  0  0  0  2  0  0  0  0  0  0
  187.5250  173.9420  136.4210 C   0  0  0  0  0  0  0  0  0  0  0  0
  187.6580  172.7210  136.8170 N   0  0  0  0  0  2  0  0  0  0  0  0
  186.3750  174.8210  136.0760 C   0  0  0  0  0  2  0  0  0  0  0  0
  187.3260  175.8480  135.7740 C   0  0  2  0  0  3  0  0  0  0  0  0
  188.4310  175.0320  136.1300 O   0  0  0  0  0  0  0  0  0  0  0  0
  1  4  1  0  0  0  0
  2  7  1  0  0  0  0
  3 30  1  1  0  0  0
  3  2  1  0  0  0  0
  3  5  1  0  0  0  0
  5  1  1  0  0  0  0
  6  8  1  0  0  0  0
  6  2  2  0  0  0  0
  7  4  1  0  0  0  0
  9  8  1  0  0  0  0
 10 11  2  0  0  0  0
 10  9  1  0  0  0  0
 12 10  1  0  0  0  0
 14 15  2  6  0  0  0
 14 12  1  0  0  0  0
 14 13  1  0  0  0  0
 16 24  1  0  0  0  0
 16 23  1  0  0  0  0
 17 25  1  1  0  0  0
 17 14  1  0  0  0  0
 20 19  1  6  0  0  0
 20 17  1  0  0  0  0
 21 26  2  0  0  0  0
 22 24  1  0  0  0  0
 22 18  1  0  0  0  0
 23 27  1  6  0  0  0
 23 21  1  0  0  0  0
 24 18  1  0  0  0  0
 24 20  1  0  0  0  0
 26 17  1  0  0  0  0
 27 28  1  0  0  0  0
 29 27  2  0  0  0  0
 31 30  1  0  0  0  0
 32 47  1  6  0  0  0
 32 33  1  0  0  0  0
 32 31  1  0  0  0  0
 33 41  1  6  0  0  0
 33 39  1  0  0  0  0
 34 38  1  0  0  0  0
 36 37  2  0  0  0  0
 37 35  1  0  0  0  0
 38 35  2  0  0  0  0
 39 34  2  0  0  0  0
 39 36  1  0  0  0  0
 40 36  1  0  0  0  0
 42 41  1  0  0  0  0
 43 42  1  0  0  0  0
 44 46  2  0  0  0  0
 44 43  1  0  0  0  0
 45 44  1  0  0  0  0
 48 47  1  0  0  0  0
 49 48  1  0  0  0  0
 50 49  1  0  0  0  0
 51 52  2  0  0  0  0
 53 51  1  0  0  0  0
 54 53  1  0  0  0  0
 54 55  1  0  0  0  0
 54 50  1  1  0  0  0
 55 51  1  0  0  0  0
M  END
>  <MODEL>
7

>  <REMARK>
 VINA RESULT:      -5.7      2.013      5.288
  Name = 
  21 active torsions:
  status: ('A' for Active; 'I' for Inactive)
    1  A    between atoms: C_1  and  C_29
    2  A    between atoms: C_2  and  N_28
    3  A    between atoms: C_2  and  C_31
    4  A    between atoms: C_4  and  O_40
    5  A    between atoms: C_6  and  P_20
    6  A    between atoms: C_8  and  O_22
    7  A    between atoms: C_8  and  C_35
    8  A    between atoms: C_13  and  C_48
    9  A    between atoms: C_13  and  C_52
   10  A    between atoms: C_19  and  O_40
   11  A    between atoms: C_19  and  C_45
   12  A    between atoms: P_20  and  O_22
   13  A    between atoms: C_26  and  C_49
   14  A    between atoms: N_28  and  C_33
   15  A    between atoms: C_33  and  C_34
   16  A    between atoms: C_33  and  C_49
   17  A    between atoms: C_34  and  C_52
   18  A    between atoms: C_35  and  O_51
   19  A    between atoms: C_39  and  C_48
   20  A    between atoms: C_45  and  C_49
   21  A    between atoms: O_51  and  N_54
                            x       y       z     vdW  Elec       q    Type
                         _______ _______ _______ _____ _____    ______ ____

>  <TORSDO>
F 21

$$$$
=
 OpenBabel10262420403D

 55 59  0  0  1  0  0  0  0  0999 V2000
  185.6050  178.1920  145.7460 C   0  0  0  0  0  2  0  0  0  0  0  0
  184.8570  178.2300  143.0010 C   0  0  0  0  0  0  0  0  0  0  0  0
  186.2100  177.6290  143.2740 C   0  0  2  0  0  3  0  0  0  0  0  0
  185.1590  179.5150  145.1410 C   0  0  0  0  0  2  0  0  0  0  0  0
  186.5130  177.4180  144.7720 C   0  0  0  0  0  2  0  0  0  0  0  0
  184.2410  177.9030  141.9110 N   0  0  0  0  0  0  0  0  0  0  0  0
  184.2490  179.2350  143.9490 C   0  0  0  0  0  2  0  0  0  0  0  0
  183.0130  178.4360  141.5930 O   0  0  0  0  0  0  0  0  0  0  0  0
  182.2660  177.9130  140.5080 C   0  0  0  0  0  2  0  0  0  0  0  0
  182.7610  178.5120  139.2420 C   0  0  0  0  0  0  0  0  0  0  0  0
  182.8860  179.7640  139.1560 O   0  0  0  0  0  0  0  0  0  0  0  0
  183.0640  177.6810  138.1610 O   0  0  0  0  0  0  0  0  0  0  0  0
  180.3500  177.6880  137.5050 O   0  0  0  0  0  1  0  0  0  0  0  0
  181.8970  177.2520  136.9720 P   0  0  1  0  0  0  0  0  0  0  0  0
  182.2000  177.9950  135.6900 O   0  0  0  0  0  0  0  0  0  0  0  0
  181.6560  172.2660  137.2350 C   0  0  0  0  0  2  0  0  0  0  0  0
  181.9660  175.4510  136.6790 C   0  0  1  0  0  0  0  0  0  0  0  0
  179.6370  173.0720  135.8540 C   0  0  0  0  0  2  0  0  0  0  0  0
  180.9380  174.8700  138.8040 O   0  0  0  0  0  1  0  0  0  0  0  0
  180.7890  174.7760  137.4160 C   0  0  2  0  0  3  0  0  0  0  0  0
  183.7160  173.6640  137.0290 C   0  0  0  0  0  3  0  0  0  0  0  0
  179.1750  172.8060  137.2830 C   0  0  0  0  0  2  0  0  0  0  0  0
  182.8900  172.5780  136.3970 C   0  0  1  0  0  3  0  0  0  0  0  0
  180.5740  173.3150  137.0160 C   0  0  0  0  0  0  0  0  0  0  0  0
  181.8470  175.2320  135.3040 O   0  0  0  0  0  1  0  0  0  0  0  0
  183.3040  174.9350  137.1530 C   0  0  0  0  0  3  0  0  0  0  0  0
  183.7050  171.3420  136.2060 C   0  0  0  0  0  0  0  0  0  0  0  0
  183.0890  170.1220  135.7990 N   0  0  0  0  0  1  0  0  0  0  0  0
  184.9540  171.3810  136.3820 O   0  0  0  0  0  0  0  0  0  0  0  0
  187.2870  178.4900  142.6330 C   0  0  0  0  0  2  0  0  0  0  0  0
  188.1730  177.6600  141.8180 N   0  0  0  0  0  2  0  0  0  0  0  0
  189.2120  178.4820  141.1860 C   0  0  1  0  0  3  0  0  0  0  0  0
  190.6150  177.8650  141.3220 C   0  0  1  0  0  3  0  0  0  0  0  0
  191.0530  176.0320  142.9580 C   0  0  0  0  0  3  0  0  0  0  0  0
  191.4140  176.4430  145.3150 C   0  0  0  0  0  3  0  0  0  0  0  0
  190.9910  178.2980  143.8150 C   0  0  0  0  0  0  0  0  0  0  0  0
  191.2530  177.8130  145.1000 C   0  0  0  0  0  3  0  0  0  0  0  0
  191.3110  175.5530  144.2460 C   0  0  0  0  0  3  0  0  0  0  0  0
  190.8930  177.4020  142.7300 C   0  0  0  0  0  0  0  0  0  0  0  0
  190.8280  179.6670  143.6260 O   0  0  0  0  0  1  0  0  0  0  0  0
  190.8140  176.7260  140.3210 C   0  0  0  0  0  2  0  0  0  0  0  0
  191.9700  177.0200  139.3740 C   0  0  0  0  0  2  0  0  0  0  0  0
  191.9400  176.1160  138.2760 O   0  0  0  0  0  0  0  0  0  0  0  0
  193.0900  175.8080  137.5450 C   0  0  0  0  0  0  0  0  0  0  0  0
  193.4090  174.3850  137.2510 C   0  0  0  0  0  1  0  0  0  0  0  0
  193.8600  176.7180  137.1340 O   0  0  0  0  0  0  0  0  0  0  0  0
  188.8640  178.8070  139.7300 C   0  0  0  0  0  2  0  0  0  0  0  0
  187.8350  177.8290  139.1830 C   0  0  0  0  0  2  0  0  0  0  0  0
  187.9090  177.7790  137.6620 C   0  0  0  0  0  2  0  0  0  0  0  0
  186.9670  176.7100  137.1220 C   0  0  0  0  0  2  0  0  0  0  0  0
  188.1140  173.8760  136.5920 C   0  0  0  0  0  0  0  0  0  0  0  0
  188.4010  172.6490  136.8730 N   0  0  0  0  0  2  0  0  0  0  0  0
  186.9620  174.5720  135.9570 C   0  0  0  0  0  2  0  0  0  0  0  0
  187.6820  175.7970  136.1300 C   0  0  2  0  0  3  0  0  0  0  0  0
  188.7730  175.1510  136.7650 O   0  0  0  0  0  0  0  0  0  0  0  0
  2  3  1  0  0  0  0
  2  7  1  0  0  0  0
  3 30  1  1  0  0  0
  3  5  1  0  0  0  0
  4  1  1  0  0  0  0
  5  1  1  0  0  0  0
  6  2  2  0  0  0  0
  7  4  1  0  0  0  0
  8  6  1  0  0  0  0
  9  8  1  0  0  0  0
 10  9  1  0  0  0  0
 11 10  2  0  0  0  0
 12 10  1  0  0  0  0
 14 15  2  6  0  0  0
 14 13  1  0  0  0  0
 14 12  1  0  0  0  0
 17 25  1  6  0  0  0
 17 14  1  0  0  0  0
 17 26  1  0  0  0  0
 17 20  1  0  0  0  0
 18 24  1  0  0  0  0
 18 22  1  0  0  0  0
 20 19  1  1  0  0  0
 21 26  2  0  0  0  0
 23 27  1  1  0  0  0
 23 21  1  0  0  0  0
 23 16  1  0  0  0  0
 24 16  1  0  0  0  0
 24 22  1  0  0  0  0
 24 20  1  0  0  0  0
 27 29  2  0  0  0  0
 28 27  1  0  0  0  0
 31 30  1  0  0  0  0
 32 47  1  6  0  0  0
 32 33  1  0  0  0  0
 32 31  1  0  0  0  0
 33 41  1  6  0  0  0
 33 39  1  0  0  0  0
 34 38  1  0  0  0  0
 36 37  2  0  0  0  0
 37 35  1  0  0  0  0
 38 35  2  0  0  0  0
 39 34  2  0  0  0  0
 39 36  1  0  0  0  0
 40 36  1  0  0  0  0
 42 41  1  0  0  0  0
 43 42  1  0  0  0  0
 44 43  1  0  0  0  0
 45 44  1  0  0  0  0
 46 44  2  0  0  0  0
 48 47  1  0  0  0  0
 49 48  1  0  0  0  0
 50 49  1  0  0  0  0
 51 55  1  0  0  0  0
 51 52  2  0  0  0  0
 53 54  1  0  0  0  0
 53 51  1  0  0  0  0
 54 55  1  0  0  0  0
 54 50  1  1  0  0  0
M  END
>  <MODEL>
8

>  <REMARK>
 VINA RESULT:      -5.6      1.916      5.000
  Name = 
  21 active torsions:
  status: ('A' for Active; 'I' for Inactive)
    1  A    between atoms: C_1  and  C_29
    2  A    between atoms: C_2  and  N_28
    3  A    between atoms: C_2  and  C_31
    4  A    between atoms: C_4  and  O_40
    5  A    between atoms: C_6  and  P_20
    6  A    between atoms: C_8  and  O_22
    7  A    between atoms: C_8  and  C_35
    8  A    between atoms: C_13  and  C_48
    9  A    between atoms: C_13  and  C_52
   10  A    between atoms: C_19  and  O_40
   11  A    between atoms: C_19  and  C_45
   12  A    between atoms: P_20  and  O_22
   13  A    between atoms: C_26  and  C_49
   14  A    between atoms: N_28  and  C_33
   15  A    between atoms: C_33  and  C_34
   16  A    between atoms: C_33  and  C_49
   17  A    between atoms: C_34  and  C_52
   18  A    between atoms: C_35  and  O_51
   19  A    between atoms: C_39  and  C_48
   20  A    between atoms: C_45  and  C_49
   21  A    between atoms: O_51  and  N_54
                            x       y       z     vdW  Elec       q    Type
                         _______ _______ _______ _____ _____    ______ ____

>  <TORSDO>
F 21

$$$$
=
 OpenBabel10262420403D

 55 59  0  0  1  0  0  0  0  0999 V2000
  186.9820  177.2120  146.4120 C   0  0  0  0  0  2  0  0  0  0  0  0
  185.5350  178.1680  144.1560 C   0  0  0  0  0  0  0  0  0  0  0  0
  186.6220  177.1790  143.8310 C   0  0  2  0  0  3  0  0  0  0  0  0
  186.8570  178.7160  146.2230 C   0  0  0  0  0  2  0  0  0  0  0  0
  187.2520  176.5080  145.0690 C   0  0  0  0  0  2  0  0  0  0  0  0
  184.5580  178.3160  143.3190 N   0  0  0  0  0  0  0  0  0  0  0  0
  185.6040  179.0130  145.4050 C   0  0  0  0  0  2  0  0  0  0  0  0
  183.5480  179.2210  143.5480 O   0  0  0  0  0  0  0  0  0  0  0  0
  182.3430  178.8050  144.1670 C   0  0  0  0  0  2  0  0  0  0  0  0
  181.2140  179.0070  143.2210 C   0  0  0  0  0  0  0  0  0  0  0  0
  180.1040  179.4110  143.6600 O   0  0  0  0  0  0  0  0  0  0  0  0
  181.3960  178.7310  141.8650 O   0  0  0  0  0  0  0  0  0  0  0  0
  178.9570  177.3750  141.7690 O   0  0  0  0  0  1  0  0  0  0  0  0
  180.1090  178.2080  140.8490 P   0  0  1  0  0  0  0  0  0  0  0  0
  179.4520  179.4160  140.2200 O   0  0  0  0  0  0  0  0  0  0  0  0
  181.5480  174.3740  137.9840 C   0  0  0  0  0  2  0  0  0  0  0  0
  180.7720  177.1120  139.5480 C   0  0  1  0  0  0  0  0  0  0  0  0
  179.3620  175.3080  136.9950 C   0  0  0  0  0  2  0  0  0  0  0  0
  180.0190  175.0640  140.6190 O   0  0  0  0  0  1  0  0  0  0  0  0
  179.8960  175.8430  139.4640 C   0  0  2  0  0  3  0  0  0  0  0  0
  183.0220  176.0560  139.0960 C   0  0  0  0  0  3  0  0  0  0  0  0
  179.0300  174.0810  137.8370 C   0  0  0  0  0  2  0  0  0  0  0  0
  182.5990  175.4590  137.7830 C   0  0  1  0  0  3  0  0  0  0  0  0
  180.1760  174.9870  138.2280 C   0  0  0  0  0  0  0  0  0  0  0  0
  180.7200  177.8010  138.3340 O   0  0  0  0  0  1  0  0  0  0  0  0
  182.2100  176.7870  139.8760 C   0  0  0  0  0  3  0  0  0  0  0  0
  183.7780  174.9010  137.0560 C   0  0  0  0  0  0  0  0  0  0  0  0
  184.4380  173.7300  137.5320 N   0  0  0  0  0  1  0  0  0  0  0  0
  184.1800  175.4570  135.9970 O   0  0  0  0  0  0  0  0  0  0  0  0
  187.6940  177.8580  142.9940 C   0  0  0  0  0  2  0  0  0  0  0  0
  188.5870  176.8560  142.4140 N   0  0  0  0  0  2  0  0  0  0  0  0
  189.8380  177.4790  141.9650 C   0  0  1  0  0  3  0  0  0  0  0  0
  189.8600  177.7270  140.4460 C   0  0  1  0  0  3  0  0  0  0  0  0
  192.3490  177.5520  140.3730 C   0  0  0  0  0  3  0  0  0  0  0  0
  193.5180  176.2640  138.6900 C   0  0  0  0  0  3  0  0  0  0  0  0
  191.0970  176.3710  138.6650 C   0  0  0  0  0  0  0  0  0  0  0  0
  192.2960  175.9070  138.1160 C   0  0  0  0  0  3  0  0  0  0  0  0
  193.5450  177.0870  139.8160 C   0  0  0  0  0  3  0  0  0  0  0  0
  191.1190  177.1990  139.8070 C   0  0  0  0  0  0  0  0  0  0  0  0
  189.8930  176.0070  138.0720 O   0  0  0  0  0  1  0  0  0  0  0  0
  188.6170  177.1420  139.7750 C   0  0  0  0  0  2  0  0  0  0  0  0
  187.7350  178.2390  139.1960 C   0  0  0  0  0  2  0  0  0  0  0  0
  187.1360  177.7920  137.9850 O   0  0  0  0  0  0  0  0  0  0  0  0
  187.2130  178.5370  136.8060 C   0  0  0  0  0  0  0  0  0  0  0  0
  186.9550  177.8690  135.5020 C   0  0  0  0  0  1  0  0  0  0  0  0
  187.5010  179.7640  136.8320 O   0  0  0  0  0  0  0  0  0  0  0  0
  190.1510  178.7500  142.7620 C   0  0  0  0  0  2  0  0  0  0  0  0
  191.4610  178.6090  143.5210 C   0  0  0  0  0  2  0  0  0  0  0  0
  191.2250  177.9220  144.8610 C   0  0  0  0  0  2  0  0  0  0  0  0
  191.5370  176.4340  144.7540 C   0  0  0  0  0  2  0  0  0  0  0  0
  192.2870  176.1380  147.7500 C   0  0  0  0  0  0  0  0  0  0  0  0
  192.9450  176.3920  148.8310 N   0  0  0  0  0  2  0  0  0  0  0  0
  191.0390  176.6570  147.1270 C   0  0  0  0  0  2  0  0  0  0  0  0
  191.2460  175.7150  146.0680 C   0  0  2  0  0  3  0  0  0  0  0  0
  192.4540  175.2320  146.6340 O   0  0  0  0  0  0  0  0  0  0  0  0
  2  7  1  0  0  0  0
  3 30  1  1  0  0  0
  3  2  1  0  0  0  0
  3  5  1  0  0  0  0
  4  1  1  0  0  0  0
  5  1  1  0  0  0  0
  6  8  1  0  0  0  0
  6  2  2  0  0  0  0
  7  4  1  0  0  0  0
  8  9  1  0  0  0  0
 10 11  2  0  0  0  0
 10  9  1  0  0  0  0
 12 10  1  0  0  0  0
 14 15  2  6  0  0  0
 14 13  1  0  0  0  0
 14 12  1  0  0  0  0
 16 24  1  0  0  0  0
 17 25  1  6  0  0  0
 17 26  1  0  0  0  0
 17 14  1  0  0  0  0
 18 22  1  0  0  0  0
 18 24  1  0  0  0  0
 20 17  1  0  0  0  0
 20 19  1  1  0  0  0
 21 26  2  0  0  0  0
 22 24  1  0  0  0  0
 23 27  1  1  0  0  0
 23 16  1  0  0  0  0
 23 21  1  0  0  0  0
 24 20  1  0  0  0  0
 27 28  1  0  0  0  0
 29 27  2  0  0  0  0
 31 30  1  0  0  0  0
 32 31  1  0  0  0  0
 32 47  1  1  0  0  0
 33 41  1  6  0  0  0
 33 32  1  0  0  0  0
 35 38  2  0  0  0  0
 36 39  1  0  0  0  0
 37 36  2  0  0  0  0
 37 35  1  0  0  0  0
 38 34  1  0  0  0  0
 39 34  2  0  0  0  0
 39 33  1  0  0  0  0
 40 36  1  0  0  0  0
 42 41  1  0  0  0  0
 43 42  1  0  0  0  0
 44 46  2  0  0  0  0
 44 43  1  0  0  0  0
 45 44  1  0  0  0  0
 47 48  1  0  0  0  0
 48 49  1  0  0  0  0
 50 49  1  0  0  0  0
 51 52  2  0  0  0  0
 53 51  1  0  0  0  0
 54 50  1  6  0  0  0
 54 55  1  0  0  0  0
 54 53  1  0  0  0  0
 55 51  1  0  0  0  0
M  END
>  <MODEL>
9

>  <REMARK>
 VINA RESULT:      -5.6      1.894      2.593
  Name = 
  21 active torsions:
  status: ('A' for Active; 'I' for Inactive)
    1  A    between atoms: C_1  and  C_29
    2  A    between atoms: C_2  and  N_28
    3  A    between atoms: C_2  and  C_31
    4  A    between atoms: C_4  and  O_40
    5  A    between atoms: C_6  and  P_20
    6  A    between atoms: C_8  and  O_22
    7  A    between atoms: C_8  and  C_35
    8  A    between atoms: C_13  and  C_48
    9  A    between atoms: C_13  and  C_52
   10  A    between atoms: C_19  and  O_40
   11  A    between atoms: C_19  and  C_45
   12  A    between atoms: P_20  and  O_22
   13  A    between atoms: C_26  and  C_49
   14  A    between atoms: N_28  and  C_33
   15  A    between atoms: C_33  and  C_34
   16  A    between atoms: C_33  and  C_49
   17  A    between atoms: C_34  and  C_52
   18  A    between atoms: C_35  and  O_51
   19  A    between atoms: C_39  and  C_48
   20  A    between atoms: C_45  and  C_49
   21  A    between atoms: O_51  and  N_54
                            x       y       z     vdW  Elec       q    Type
                         _______ _______ _______ _____ _____    ______ ____

>  <TORSDO>
F 21

$$$$
