=
 OpenBabel10262421143D

 32 37  0  0  1  0  0  0  0  0999 V2000
  186.7650  178.3550  139.9050 C   0  0  0  0  0  0  0  0  0  0  0  0
  187.5570  178.3850  142.2870 C   0  0  2  0  0  3  0  0  0  0  0  0
  187.0310  178.2460  138.5720 N   0  0  0  0  0  0  0  0  0  0  0  0
  187.8080  178.1540  140.8290 C   0  0  0  0  0  0  0  0  0  0  0  0
  188.6010  177.7320  143.1630 C   0  0  0  0  0  0  0  0  0  0  0  0
  184.8230  178.8930  146.2070 C   0  0  0  0  0  2  0  0  0  0  0  0
  186.1360  177.9870  142.6490 C   0  0  2  0  0  3  0  0  0  0  0  0
  187.0370  177.7730  146.4190 C   0  0  0  0  0  2  0  0  0  0  0  0
  187.0000  177.3410  144.9570 C   0  0  2  0  0  3  0  0  0  0  0  0
  189.0900  177.8190  140.3700 C   0  0  0  0  0  0  0  0  0  0  0  0
  188.3370  177.3690  144.3780 N   0  0  0  0  0  0  0  0  0  0  0  0
  190.1350  177.5670  141.2710 O   0  0  0  0  0  0  0  0  0  0  0  0
  189.3190  177.7080  138.9990 C   0  0  0  0  0  3  0  0  0  0  0  0
  185.1800  178.8450  141.8160 C   0  0  0  0  0  2  0  0  0  0  0  0
  185.4220  178.6410  140.3800 N   0  0  0  0  0  0  0  0  0  0  0  0
  185.9880  178.1170  144.1350 C   0  0  0  0  0  0  0  0  0  0  0  0
  190.0310  177.7470  142.6900 C   0  0  1  0  0  3  0  0  0  0  0  0
  188.2700  177.9340  138.1060 C   0  0  0  0  0  3  0  0  0  0  0  0
  185.6140  177.8260  146.9600 C   0  0  0  0  0  2  0  0  0  0  0  0
  184.9430  178.7400  144.7120 C   0  0  0  0  0  3  0  0  0  0  0  0
  183.1350  177.8410  137.4000 C   0  0  1  0  0  3  0  0  0  0  0  0
  180.1930  180.1840  138.2000 C   0  0  0  0  0  1  0  0  0  0  0  0
  183.1970  176.5930  136.5410 C   0  0  0  0  0  1  0  0  0  0  0  0
  182.6450  180.4540  138.4430 C   0  0  0  0  0  2  0  0  0  0  0  0
  184.3080  178.8170  139.4840 C   0  0  0  0  0  0  0  0  0  0  0  0
  181.6890  178.3440  137.4800 C   0  0  0  0  0  2  0  0  0  0  0  0
  183.7680  180.0450  139.3520 C   0  0  0  0  0  3  0  0  0  0  0  0
  183.7820  177.5870  138.7680 C   0  0  1  0  0  3  0  0  0  0  0  0
  182.9280  176.7310  139.6960 C   0  0  0  0  0  1  0  0  0  0  0  0
  181.4920  179.4650  138.4970 C   0  0  2  0  0  3  0  0  0  0  0  0
  190.7480  179.0210  143.1230 C   0  0  0  0  0  2  0  0  0  0  0  0
  191.6890  178.7480  144.1180 O   0  0  0  0  0  1  0  0  0  0  0  0
  1 15  1  0  0  0  0
  1  4  1  0  0  0  0
  2  4  1  6  0  0  0
  2  7  1  0  0  0  0
  2  5  1  0  0  0  0
  3  1  2  0  0  0  0
  5 11  2  0  0  0  0
  6 19  1  0  0  0  0
  7 14  1  6  0  0  0
  7 16  1  0  0  0  0
  8 19  1  0  0  0  0
  9  8  1  1  0  0  0
 10  4  2  0  0  0  0
 10 12  1  0  0  0  0
 11  9  1  0  0  0  0
 12 17  1  0  0  0  0
 13 10  1  0  0  0  0
 15 14  1  0  0  0  0
 16 20  2  0  0  0  0
 16  9  1  0  0  0  0
 17 31  1  6  0  0  0
 17  5  1  0  0  0  0
 18  3  1  0  0  0  0
 18 13  2  0  0  0  0
 20  6  1  0  0  0  0
 21 23  1  6  0  0  0
 21 26  1  0  0  0  0
 21 28  1  0  0  0  0
 24 30  1  0  0  0  0
 24 27  1  0  0  0  0
 25 15  1  0  0  0  0
 26 30  1  0  0  0  0
 27 25  2  0  0  0  0
 28 25  1  0  0  0  0
 28 29  1  1  0  0  0
 30 22  1  6  0  0  0
 31 32  1  0  0  0  0
M  END
>  <MODEL>
1

>  <REMARK>
 VINA RESULT:      -9.4      0.000      0.000
  Name = 
  2 active torsions:
  status: ('A' for Active; 'I' for Inactive)
    1  A    between atoms: C_13  and  C_29
    2  A    between atoms: C_16  and  N_27
                            x       y       z     vdW  Elec       q    Type
                         _______ _______ _______ _____ _____    ______ ____

>  <TORSDO>
F 2

$$$$
=
 OpenBabel10262421143D

 32 37  0  0  1  0  0  0  0  0999 V2000
  189.0630  177.4820  141.9220 C   0  0  0  0  0  0  0  0  0  0  0  0
  187.2000  177.7270  140.2570 C   0  0  2  0  0  3  0  0  0  0  0  0
  190.3870  177.3000  142.1970 N   0  0  0  0  0  0  0  0  0  0  0  0
  188.6590  177.6430  140.5830 C   0  0  0  0  0  0  0  0  0  0  0  0
  186.9460  178.3170  138.8890 C   0  0  0  0  0  0  0  0  0  0  0  0
  182.5520  178.4460  141.2490 C   0  0  0  0  0  2  0  0  0  0  0  0
  186.4500  178.4430  141.3680 C   0  0  2  0  0  3  0  0  0  0  0  0
  183.4340  179.1490  139.0280 C   0  0  0  0  0  2  0  0  0  0  0  0
  184.8400  179.3140  139.5970 C   0  0  2  0  0  3  0  0  0  0  0  0
  189.6190  177.6450  139.5600 C   0  0  0  0  0  0  0  0  0  0  0  0
  185.8410  178.9330  138.6100 N   0  0  0  0  0  0  0  0  0  0  0  0
  189.2490  177.8520  138.2230 O   0  0  0  0  0  0  0  0  0  0  0  0
  190.9640  177.4650  139.8840 C   0  0  0  0  0  3  0  0  0  0  0  0
  186.6480  177.6460  142.6600 C   0  0  0  0  0  2  0  0  0  0  0  0
  188.0780  177.5430  142.9870 N   0  0  0  0  0  0  0  0  0  0  0  0
  185.0270  178.6090  140.9260 C   0  0  0  0  0  0  0  0  0  0  0  0
  187.8900  177.9490  137.7750 C   0  0  1  0  0  3  0  0  0  0  0  0
  191.3320  177.2850  141.2190 C   0  0  0  0  0  3  0  0  0  0  0  0
  182.4150  179.4620  140.1170 C   0  0  0  0  0  2  0  0  0  0  0  0
  183.9790  178.3050  141.7160 C   0  0  0  0  0  3  0  0  0  0  0  0
  190.3260  176.7070  145.9880 C   0  0  1  0  0  3  0  0  0  0  0  0
  188.3000  178.3800  148.7950 C   0  0  0  0  0  1  0  0  0  0  0  0
  191.7920  176.3250  145.9210 C   0  0  0  0  0  1  0  0  0  0  0  0
  187.6120  177.1170  146.7760 C   0  0  0  0  0  2  0  0  0  0  0  0
  188.4380  177.4220  144.3780 C   0  0  0  0  0  0  0  0  0  0  0  0
  190.0440  177.4540  147.2960 C   0  0  0  0  0  2  0  0  0  0  0  0
  187.4570  177.3020  145.2940 C   0  0  0  0  0  3  0  0  0  0  0  0
  189.9130  177.4810  144.7280 C   0  0  1  0  0  3  0  0  0  0  0  0
  190.4330  178.9130  144.6960 C   0  0  0  0  0  1  0  0  0  0  0  0
  188.6470  178.0670  147.3550 C   0  0  2  0  0  3  0  0  0  0  0  0
  187.4600  176.6610  137.0820 C   0  0  0  0  0  2  0  0  0  0  0  0
  188.5690  175.9610  136.6030 O   0  0  0  0  0  1  0  0  0  0  0  0
  1  3  1  0  0  0  0
  1 15  1  0  0  0  0
  2  5  1  6  0  0  0
  2  4  1  0  0  0  0
  2  7  1  0  0  0  0
  4  1  2  0  0  0  0
  6 20  1  0  0  0  0
  7 14  1  1  0  0  0
  8 19  1  0  0  0  0
  9  8  1  6  0  0  0
  9 16  1  0  0  0  0
 10 13  2  0  0  0  0
 10  4  1  0  0  0  0
 11  5  2  0  0  0  0
 11  9  1  0  0  0  0
 12 10  1  0  0  0  0
 13 18  1  0  0  0  0
 14 15  1  0  0  0  0
 15 25  1  0  0  0  0
 16  7  1  0  0  0  0
 16 20  2  0  0  0  0
 17 31  1  1  0  0  0
 17 12  1  0  0  0  0
 17  5  1  0  0  0  0
 18  3  2  0  0  0  0
 19  6  1  0  0  0  0
 21 23  1  6  0  0  0
 21 26  1  0  0  0  0
 24 30  1  0  0  0  0
 25 28  1  0  0  0  0
 25 27  2  0  0  0  0
 26 30  1  0  0  0  0
 27 24  1  0  0  0  0
 28 29  1  1  0  0  0
 28 21  1  0  0  0  0
 30 22  1  1  0  0  0
 32 31  1  0  0  0  0
M  END
>  <MODEL>
2

>  <REMARK>
 VINA RESULT:      -8.6      2.132      7.215
  Name = 
  2 active torsions:
  status: ('A' for Active; 'I' for Inactive)
    1  A    between atoms: C_13  and  C_29
    2  A    between atoms: C_16  and  N_27
                            x       y       z     vdW  Elec       q    Type
                         _______ _______ _______ _____ _____    ______ ____

>  <TORSDO>
F 2

$$$$
=
 OpenBabel10262421143D

 32 37  0  0  1  0  0  0  0  0999 V2000
  185.7960  178.3020  142.8380 C   0  0  0  0  0  0  0  0  0  0  0  0
  185.8060  178.7770  140.3730 C   0  0  2  0  0  3  0  0  0  0  0  0
  185.1320  178.2380  144.0270 N   0  0  0  0  0  0  0  0  0  0  0  0
  185.0730  178.5890  141.6650 C   0  0  0  0  0  0  0  0  0  0  0  0
  184.9000  178.6480  139.1700 C   0  0  0  0  0  0  0  0  0  0  0  0
  189.5510  178.3550  137.3910 C   0  0  0  0  0  2  0  0  0  0  0  0
  187.0170  177.8620  140.3130 C   0  0  2  0  0  3  0  0  0  0  0  0
  187.2460  178.2330  136.4550 C   0  0  0  0  0  2  0  0  0  0  0  0
  186.6910  177.7430  137.7890 C   0  0  2  0  0  3  0  0  0  0  0  0
  183.6840  178.7730  141.7300 C   0  0  0  0  0  0  0  0  0  0  0  0
  185.3540  178.2760  138.0160 N   0  0  0  0  0  0  0  0  0  0  0  0
  182.9330  179.0110  140.5700 O   0  0  0  0  0  0  0  0  0  0  0  0
  183.0390  178.6890  142.9640 C   0  0  0  0  0  3  0  0  0  0  0  0
  187.9340  178.2170  141.4860 C   0  0  0  0  0  2  0  0  0  0  0  0
  187.2250  178.0500  142.7630 N   0  0  0  0  0  0  0  0  0  0  0  0
  187.6300  178.0020  138.9520 C   0  0  0  0  0  0  0  0  0  0  0  0
  183.5070  179.2110  139.2710 C   0  0  1  0  0  3  0  0  0  0  0  0
  183.7880  178.4260  144.1140 C   0  0  0  0  0  3  0  0  0  0  0  0
  188.6790  177.7390  136.2990 C   0  0  0  0  0  2  0  0  0  0  0  0
  188.9510  178.1830  138.7630 C   0  0  0  0  0  3  0  0  0  0  0  0
  190.2300  176.6480  144.7010 C   0  0  1  0  0  3  0  0  0  0  0  0
  189.4650  178.0680  148.1910 C   0  0  0  0  0  1  0  0  0  0  0  0
  191.5360  176.1710  144.0940 C   0  0  0  0  0  1  0  0  0  0  0  0
  188.0010  177.1470  146.4150 C   0  0  0  0  0  2  0  0  0  0  0  0
  188.0100  177.7150  143.9240 C   0  0  0  0  0  0  0  0  0  0  0  0
  190.4890  177.2280  146.0960 C   0  0  0  0  0  2  0  0  0  0  0  0
  187.3840  177.5440  145.1060 C   0  0  0  0  0  3  0  0  0  0  0  0
  189.5140  177.6150  143.7490 C   0  0  1  0  0  3  0  0  0  0  0  0
  190.1560  178.9950  143.6860 C   0  0  0  0  0  1  0  0  0  0  0  0
  189.2730  177.9300  146.6960 C   0  0  2  0  0  3  0  0  0  0  0  0
  183.4730  180.6860  138.8910 C   0  0  0  0  0  2  0  0  0  0  0  0
  182.1690  181.0970  138.6090 O   0  0  0  0  0  1  0  0  0  0  0  0
  1  3  1  0  0  0  0
  2  5  1  6  0  0  0
  2  4  1  0  0  0  0
  3 18  2  0  0  0  0
  4 10  1  0  0  0  0
  4  1  2  0  0  0  0
  5 17  1  0  0  0  0
  6 20  1  0  0  0  0
  7  2  1  0  0  0  0
  7 14  1  1  0  0  0
  9  8  1  6  0  0  0
  9 11  1  0  0  0  0
  9 16  1  0  0  0  0
 10 13  2  0  0  0  0
 11  5  2  0  0  0  0
 12 10  1  0  0  0  0
 13 18  1  0  0  0  0
 14 15  1  0  0  0  0
 15  1  1  0  0  0  0
 15 25  1  0  0  0  0
 16  7  1  0  0  0  0
 17 31  1  1  0  0  0
 17 12  1  0  0  0  0
 19  8  1  0  0  0  0
 19  6  1  0  0  0  0
 20 16  2  0  0  0  0
 21 23  1  6  0  0  0
 21 26  1  0  0  0  0
 24 30  1  0  0  0  0
 25 27  2  0  0  0  0
 26 30  1  0  0  0  0
 27 24  1  0  0  0  0
 28 29  1  1  0  0  0
 28 25  1  0  0  0  0
 28 21  1  0  0  0  0
 30 22  1  1  0  0  0
 32 31  1  0  0  0  0
M  END
>  <MODEL>
3

>  <REMARK>
 VINA RESULT:      -8.6      2.725      8.102
  Name = 
  2 active torsions:
  status: ('A' for Active; 'I' for Inactive)
    1  A    between atoms: C_13  and  C_29
    2  A    between atoms: C_16  and  N_27
                            x       y       z     vdW  Elec       q    Type
                         _______ _______ _______ _____ _____    ______ ____

>  <TORSDO>
F 2

$$$$
=
 OpenBabel10262421143D

 32 37  0  0  1  0  0  0  0  0999 V2000
  187.4060  178.0880  141.7070 C   0  0  0  0  0  0  0  0  0  0  0  0
  188.5730  177.9410  139.4900 C   0  0  2  0  0  3  0  0  0  0  0  0
  186.2980  178.3940  142.4430 N   0  0  0  0  0  0  0  0  0  0  0  0
  187.3350  178.1590  140.3030 C   0  0  0  0  0  0  0  0  0  0  0  0
  188.2660  177.6260  138.0430 C   0  0  0  0  0  0  0  0  0  0  0  0
  193.0490  176.3730  138.7100 C   0  0  0  0  0  2  0  0  0  0  0  0
  189.4660  176.9050  140.1530 C   0  0  2  0  0  3  0  0  0  0  0  0
  191.4020  176.2920  136.8430 C   0  0  0  0  0  2  0  0  0  0  0  0
  190.2370  176.2110  137.8260 C   0  0  2  0  0  3  0  0  0  0  0  0
  186.1270  178.5120  139.6830 C   0  0  0  0  0  0  0  0  0  0  0  0
  189.0800  176.9330  137.3130 N   0  0  0  0  0  0  0  0  0  0  0  0
  186.0170  178.5440  138.2850 O   0  0  0  0  0  0  0  0  0  0  0  0
  185.0150  178.8080  140.4700 C   0  0  0  0  0  3  0  0  0  0  0  0
  189.8430  177.4280  141.5410 C   0  0  0  0  0  2  0  0  0  0  0  0
  188.6370  177.6620  142.3490 N   0  0  0  0  0  0  0  0  0  0  0  0
  190.6180  176.6360  139.2310 C   0  0  0  0  0  0  0  0  0  0  0  0
  187.1210  178.3530  137.3890 C   0  0  1  0  0  3  0  0  0  0  0  0
  185.1220  178.7500  141.8610 C   0  0  0  0  0  3  0  0  0  0  0  0
  192.6200  175.6130  137.4560 C   0  0  0  0  0  2  0  0  0  0  0  0
  191.8970  176.6120  139.6520 C   0  0  0  0  0  3  0  0  0  0  0  0
  190.3520  176.8220  145.6810 C   0  0  1  0  0  3  0  0  0  0  0  0
  187.8620  178.4500  148.1160 C   0  0  0  0  0  1  0  0  0  0  0  0
  191.8130  176.4540  145.8620 C   0  0  0  0  0  1  0  0  0  0  0  0
  187.5400  177.1980  146.0010 C   0  0  0  0  0  2  0  0  0  0  0  0
  188.7570  177.5330  143.7790 C   0  0  0  0  0  0  0  0  0  0  0  0
  189.8440  177.5540  146.9280 C   0  0  0  0  0  2  0  0  0  0  0  0
  187.6360  177.3950  144.5160 C   0  0  0  0  0  3  0  0  0  0  0  0
  190.1500  177.6020  144.3760 C   0  0  1  0  0  3  0  0  0  0  0  0
  190.6530  179.0390  144.4410 C   0  0  0  0  0  1  0  0  0  0  0  0
  188.4510  178.1540  146.7540 C   0  0  2  0  0  3  0  0  0  0  0  0
  187.5700  179.6840  136.7990 C   0  0  0  0  0  2  0  0  0  0  0  0
  188.8140  180.0610  137.3120 O   0  0  0  0  0  1  0  0  0  0  0  0
  1 15  1  0  0  0  0
  1  3  1  0  0  0  0
  2  5  1  6  0  0  0
  2  7  1  0  0  0  0
  2  4  1  0  0  0  0
  4  1  2  0  0  0  0
  6 20  1  0  0  0  0
  7 14  1  1  0  0  0
  8 19  1  0  0  0  0
  9  8  1  6  0  0  0
  9 16  1  0  0  0  0
 10  4  1  0  0  0  0
 10 13  2  0  0  0  0
 11  9  1  0  0  0  0
 11  5  2  0  0  0  0
 12 10  1  0  0  0  0
 13 18  1  0  0  0  0
 14 15  1  0  0  0  0
 15 25  1  0  0  0  0
 16 20  2  0  0  0  0
 16  7  1  0  0  0  0
 17 31  1  1  0  0  0
 17  5  1  0  0  0  0
 17 12  1  0  0  0  0
 18  3  2  0  0  0  0
 19  6  1  0  0  0  0
 21 23  1  1  0  0  0
 21 26  1  0  0  0  0
 24 30  1  0  0  0  0
 25 28  1  0  0  0  0
 25 27  2  0  0  0  0
 27 24  1  0  0  0  0
 28 29  1  1  0  0  0
 28 21  1  0  0  0  0
 30 26  1  0  0  0  0
 30 22  1  1  0  0  0
 31 32  1  0  0  0  0
M  END
>  <MODEL>
4

>  <REMARK>
 VINA RESULT:      -8.5      2.895      7.953
  Name = 
  2 active torsions:
  status: ('A' for Active; 'I' for Inactive)
    1  A    between atoms: C_13  and  C_29
    2  A    between atoms: C_16  and  N_27
                            x       y       z     vdW  Elec       q    Type
                         _______ _______ _______ _____ _____    ______ ____

>  <TORSDO>
F 2

$$$$
=
 OpenBabel10262421143D

 32 37  0  0  1  0  0  0  0  0999 V2000
  187.7930  178.1110  140.7040 C   0  0  0  0  0  0  0  0  0  0  0  0
  188.7140  177.6930  138.4060 C   0  0  2  0  0  3  0  0  0  0  0  0
  186.7740  178.5200  141.5130 N   0  0  0  0  0  0  0  0  0  0  0  0
  187.5730  178.0270  139.3160 C   0  0  0  0  0  0  0  0  0  0  0  0
  188.2500  177.2270  137.0450 C   0  0  0  0  0  0  0  0  0  0  0  0
  193.0650  175.9520  137.3380 C   0  0  0  0  0  2  0  0  0  0  0  0
  189.6630  176.7190  139.0830 C   0  0  2  0  0  3  0  0  0  0  0  0
  191.2250  175.7000  135.6770 C   0  0  0  0  0  2  0  0  0  0  0  0
  190.1720  175.7540  136.7810 C   0  0  2  0  0  3  0  0  0  0  0  0
  186.3090  178.3360  138.7910 C   0  0  0  0  0  0  0  0  0  0  0  0
  188.9740  176.4390  136.3150 N   0  0  0  0  0  0  0  0  0  0  0  0
  186.0490  178.2150  137.4180 O   0  0  0  0  0  0  0  0  0  0  0  0
  185.2900  178.7410  139.6530 C   0  0  0  0  0  3  0  0  0  0  0  0
  190.1920  177.3840  140.3560 C   0  0  0  0  0  2  0  0  0  0  0  0
  189.0820  177.7320  141.2550 N   0  0  0  0  0  0  0  0  0  0  0  0
  190.7060  176.3240  138.0810 C   0  0  0  0  0  0  0  0  0  0  0  0
  187.0480  177.9020  136.4380 C   0  0  1  0  0  3  0  0  0  0  0  0
  185.5460  178.8350  141.0230 C   0  0  0  0  0  3  0  0  0  0  0  0
  192.4960  175.0670  136.2310 C   0  0  0  0  0  2  0  0  0  0  0  0
  192.0230  176.3190  138.3640 C   0  0  0  0  0  3  0  0  0  0  0  0
  188.2610  178.0050  144.9970 C   0  0  1  0  0  3  0  0  0  0  0  0
  191.6150  176.8470  146.4790 C   0  0  0  0  0  1  0  0  0  0  0  0
  186.8710  178.0320  145.6030 C   0  0  0  0  0  1  0  0  0  0  0  0
  191.0640  178.2430  144.5050 C   0  0  0  0  0  2  0  0  0  0  0  0
  189.3540  177.7600  142.6700 C   0  0  0  0  0  0  0  0  0  0  0  0
  189.2390  177.3420  145.9740 C   0  0  0  0  0  2  0  0  0  0  0  0
  190.5880  178.1040  143.0890 C   0  0  0  0  0  3  0  0  0  0  0  0
  188.2320  177.3550  143.6080 C   0  0  1  0  0  3  0  0  0  0  0  0
  188.0640  175.8410  143.6480 C   0  0  0  0  0  1  0  0  0  0  0  0
  190.6140  177.0740  145.3660 C   0  0  2  0  0  3  0  0  0  0  0  0
  187.4440  179.1490  135.6580 C   0  0  0  0  0  2  0  0  0  0  0  0
  187.2150  180.3010  136.4130 O   0  0  0  0  0  1  0  0  0  0  0  0
  1 15  1  0  0  0  0
  1  3  1  0  0  0  0
  2  5  1  6  0  0  0
  2  7  1  0  0  0  0
  2  4  1  0  0  0  0
  4  1  2  0  0  0  0
  6 20  1  0  0  0  0
  7 14  1  1  0  0  0
  8 19  1  0  0  0  0
  9  8  1  6  0  0  0
  9 16  1  0  0  0  0
 10  4  1  0  0  0  0
 10 13  2  0  0  0  0
 11  9  1  0  0  0  0
 11  5  2  0  0  0  0
 12 10  1  0  0  0  0
 13 18  1  0  0  0  0
 14 15  1  0  0  0  0
 15 25  1  0  0  0  0
 16 20  2  0  0  0  0
 16  7  1  0  0  0  0
 17 31  1  1  0  0  0
 17  5  1  0  0  0  0
 17 12  1  0  0  0  0
 18  3  2  0  0  0  0
 19  6  1  0  0  0  0
 21 23  1  1  0  0  0
 21 26  1  0  0  0  0
 24 30  1  0  0  0  0
 25 27  2  0  0  0  0
 25 28  1  0  0  0  0
 27 24  1  0  0  0  0
 28 29  1  1  0  0  0
 28 21  1  0  0  0  0
 30 26  1  0  0  0  0
 30 22  1  1  0  0  0
 31 32  1  0  0  0  0
M  END
>  <MODEL>
5

>  <REMARK>
 VINA RESULT:      -8.4      2.980      8.171
  Name = 
  2 active torsions:
  status: ('A' for Active; 'I' for Inactive)
    1  A    between atoms: C_13  and  C_29
    2  A    between atoms: C_16  and  N_27
                            x       y       z     vdW  Elec       q    Type
                         _______ _______ _______ _____ _____    ______ ____

>  <TORSDO>
F 2

$$$$
=
 OpenBabel10262421143D

 32 37  0  0  1  0  0  0  0  0999 V2000
  189.2670  177.6650  140.0730 C   0  0  0  0  0  0  0  0  0  0  0  0
  189.1660  178.0370  142.5530 C   0  0  2  0  0  3  0  0  0  0  0  0
  189.9900  177.4230  138.9420 N   0  0  0  0  0  0  0  0  0  0  0  0
  189.9230  177.6580  141.3180 C   0  0  0  0  0  0  0  0  0  0  0  0
  189.8560  177.5770  143.8170 C   0  0  0  0  0  0  0  0  0  0  0  0
  185.2100  178.7830  145.1780 C   0  0  0  0  0  2  0  0  0  0  0  0
  187.7230  177.5730  142.4530 C   0  0  2  0  0  3  0  0  0  0  0  0
  187.2430  177.8750  146.2940 C   0  0  0  0  0  2  0  0  0  0  0  0
  187.7390  177.2720  144.9830 C   0  0  2  0  0  3  0  0  0  0  0  0
  191.2950  177.3750  141.3810 C   0  0  0  0  0  0  0  0  0  0  0  0
  189.1920  177.3400  144.9030 N   0  0  0  0  0  0  0  0  0  0  0  0
  191.9630  177.3140  142.6130 O   0  0  0  0  0  0  0  0  0  0  0  0
  191.9970  177.1220  140.2030 C   0  0  0  0  0  3  0  0  0  0  0  0
  187.0940  178.2480  141.2320 C   0  0  0  0  0  2  0  0  0  0  0  0
  187.8340  177.8970  140.0110 N   0  0  0  0  0  0  0  0  0  0  0  0
  187.0560  177.8640  143.7650 C   0  0  0  0  0  0  0  0  0  0  0  0
  191.3590  177.6510  143.8700 C   0  0  1  0  0  3  0  0  0  0  0  0
  191.3230  177.1580  138.9800 C   0  0  0  0  0  3  0  0  0  0  0  0
  185.7200  177.8780  146.2980 C   0  0  0  0  0  2  0  0  0  0  0  0
  185.8550  178.4660  143.8530 C   0  0  0  0  0  3  0  0  0  0  0  0
  187.3590  177.8730  136.2000 C   0  0  1  0  0  3  0  0  0  0  0  0
  183.6140  177.0180  136.0240 C   0  0  0  0  0  1  0  0  0  0  0  0
  188.4580  177.7100  135.1670 C   0  0  0  0  0  1  0  0  0  0  0  0
  184.9200  178.4490  137.5700 C   0  0  0  0  0  2  0  0  0  0  0  0
  187.1030  177.8780  138.7690 C   0  0  0  0  0  0  0  0  0  0  0  0
  186.0540  177.2710  135.6660 C   0  0  0  0  0  2  0  0  0  0  0  0
  185.8350  178.3350  138.7550 C   0  0  0  0  0  3  0  0  0  0  0  0
  187.8010  177.2990  137.5530 C   0  0  1  0  0  3  0  0  0  0  0  0
  187.8130  175.7760  137.5940 C   0  0  0  0  0  1  0  0  0  0  0  0
  184.9490  177.1920  136.7170 C   0  0  2  0  0  3  0  0  0  0  0  0
  191.8340  179.0190  144.3430 C   0  0  0  0  0  2  0  0  0  0  0  0
  190.9300  180.0160  143.9690 O   0  0  0  0  0  1  0  0  0  0  0  0
  1  4  1  0  0  0  0
  2  4  1  6  0  0  0
  2  5  1  0  0  0  0
  3 18  1  0  0  0  0
  3  1  2  0  0  0  0
  4 10  2  0  0  0  0
  5 17  1  0  0  0  0
  5 11  2  0  0  0  0
  6 19  1  0  0  0  0
  7 14  1  6  0  0  0
  7  2  1  0  0  0  0
  7 16  1  0  0  0  0
  8 19  1  0  0  0  0
  9  8  1  1  0  0  0
 10 12  1  0  0  0  0
 11  9  1  0  0  0  0
 12 17  1  0  0  0  0
 13 10  1  0  0  0  0
 15  1  1  0  0  0  0
 15 14  1  0  0  0  0
 16 20  2  0  0  0  0
 16  9  1  0  0  0  0
 17 31  1  6  0  0  0
 18 13  2  0  0  0  0
 20  6  1  0  0  0  0
 21 23  1  6  0  0  0
 21 28  1  0  0  0  0
 24 27  1  0  0  0  0
 25 15  1  0  0  0  0
 26 21  1  0  0  0  0
 26 30  1  0  0  0  0
 27 25  2  0  0  0  0
 28 29  1  6  0  0  0
 28 25  1  0  0  0  0
 30 22  1  6  0  0  0
 30 24  1  0  0  0  0
 32 31  1  0  0  0  0
M  END
>  <MODEL>
6

>  <REMARK>
 VINA RESULT:      -8.0      1.950      2.952
  Name = 
  2 active torsions:
  status: ('A' for Active; 'I' for Inactive)
    1  A    between atoms: C_13  and  C_29
    2  A    between atoms: C_16  and  N_27
                            x       y       z     vdW  Elec       q    Type
                         _______ _______ _______ _____ _____    ______ ____

>  <TORSDO>
F 2

$$$$
=
 OpenBabel10262421143D

 32 37  0  0  1  0  0  0  0  0999 V2000
  185.1380  178.5890  143.0710 C   0  0  0  0  0  0  0  0  0  0  0  0
  182.9850  178.7070  141.7850 C   0  0  2  0  0  3  0  0  0  0  0  0
  185.8150  178.6670  144.2530 N   0  0  0  0  0  0  0  0  0  0  0  0
  183.7320  178.6740  143.0820 C   0  0  0  0  0  0  0  0  0  0  0  0
  181.5210  178.3700  141.9530 C   0  0  0  0  0  0  0  0  0  0  0  0
  182.4320  178.0210  137.0600 C   0  0  0  0  0  2  0  0  0  0  0  0
  183.6850  177.8440  140.7490 C   0  0  2  0  0  3  0  0  0  0  0  0
  180.4790  177.6710  138.5650 C   0  0  0  0  0  2  0  0  0  0  0  0
  181.3960  177.3540  139.7430 C   0  0  2  0  0  3  0  0  0  0  0  0
  183.0510  178.8080  144.3010 C   0  0  0  0  0  0  0  0  0  0  0  0
  180.8280  177.8570  140.9870 N   0  0  0  0  0  0  0  0  0  0  0  0
  181.6500  178.8470  144.3440 O   0  0  0  0  0  0  0  0  0  0  0  0
  183.7800  178.8740  145.4890 C   0  0  0  0  0  3  0  0  0  0  0  0
  185.0960  178.4000  140.5480 C   0  0  0  0  0  2  0  0  0  0  0  0
  185.8400  178.3880  141.8160 N   0  0  0  0  0  0  0  0  0  0  0  0
  182.8240  177.8140  139.5210 C   0  0  0  0  0  0  0  0  0  0  0  0
  180.8140  178.8830  143.1790 C   0  0  1  0  0  3  0  0  0  0  0  0
  185.1740  178.8090  145.4440 C   0  0  0  0  0  3  0  0  0  0  0  0
  181.1500  177.2200  137.2740 C   0  0  0  0  0  2  0  0  0  0  0  0
  183.3130  178.0210  138.2840 C   0  0  0  0  0  3  0  0  0  0  0  0
  189.4390  178.2820  143.1560 C   0  0  1  0  0  3  0  0  0  0  0  0
  191.2350  176.8660  140.0650 C   0  0  0  0  0  1  0  0  0  0  0  0
  189.8440  178.2870  144.6170 C   0  0  0  0  0  1  0  0  0  0  0  0
  189.3720  178.4830  140.3080 C   0  0  0  0  0  2  0  0  0  0  0  0
  187.2740  178.2540  141.7480 C   0  0  0  0  0  0  0  0  0  0  0  0
  190.4620  177.4870  142.3370 C   0  0  0  0  0  2  0  0  0  0  0  0
  187.8960  178.5130  140.5800 C   0  0  0  0  0  3  0  0  0  0  0  0
  187.9950  177.7860  142.9980 C   0  0  1  0  0  3  0  0  0  0  0  0
  187.8430  176.2830  143.1940 C   0  0  0  0  0  1  0  0  0  0  0  0
  190.0260  177.2430  140.8940 C   0  0  2  0  0  3  0  0  0  0  0  0
  180.2630  180.2870  142.9580 C   0  0  0  0  0  2  0  0  0  0  0  0
  178.9310  180.2380  142.5420 O   0  0  0  0  0  1  0  0  0  0  0  0
  1  4  2  0  0  0  0
  1  3  1  0  0  0  0
  2  5  1  1  0  0  0
  2  4  1  0  0  0  0
  3 18  2  0  0  0  0
  4 10  1  0  0  0  0
  5 17  1  0  0  0  0
  6 19  1  0  0  0  0
  6 20  1  0  0  0  0
  7 14  1  6  0  0  0
  7  2  1  0  0  0  0
  9  8  1  6  0  0  0
  9 11  1  0  0  0  0
 10 12  1  0  0  0  0
 10 13  2  0  0  0  0
 11  5  2  0  0  0  0
 14 15  1  0  0  0  0
 15  1  1  0  0  0  0
 16  9  1  0  0  0  0
 16  7  1  0  0  0  0
 17 31  1  6  0  0  0
 17 12  1  0  0  0  0
 18 13  1  0  0  0  0
 19  8  1  0  0  0  0
 20 16  2  0  0  0  0
 21 23  1  1  0  0  0
 24 27  1  0  0  0  0
 24 30  1  0  0  0  0
 25 15  1  0  0  0  0
 25 28  1  0  0  0  0
 26 21  1  0  0  0  0
 27 25  2  0  0  0  0
 28 21  1  0  0  0  0
 28 29  1  6  0  0  0
 30 22  1  6  0  0  0
 30 26  1  0  0  0  0
 32 31  1  0  0  0  0
M  END
>  <MODEL>
7

>  <REMARK>
 VINA RESULT:      -8.0      3.297      7.853
  Name = 
  2 active torsions:
  status: ('A' for Active; 'I' for Inactive)
    1  A    between atoms: C_13  and  C_29
    2  A    between atoms: C_16  and  N_27
                            x       y       z     vdW  Elec       q    Type
                         _______ _______ _______ _____ _____    ______ ____

>  <TORSDO>
F 2

$$$$
=
 OpenBabel10262421143D

 32 37  0  0  1  0  0  0  0  0999 V2000
  186.2960  178.4470  141.5040 C   0  0  0  0  0  0  0  0  0  0  0  0
  187.9420  178.2570  143.3890 C   0  0  2  0  0  3  0  0  0  0  0  0
  186.0300  178.5040  140.1670 N   0  0  0  0  0  0  0  0  0  0  0  0
  187.6160  178.2070  141.9290 C   0  0  0  0  0  0  0  0  0  0  0  0
  189.2510  177.5740  143.7130 C   0  0  0  0  0  0  0  0  0  0  0  0
  186.9190  178.1600  148.0850 C   0  0  0  0  0  2  0  0  0  0  0  0
  186.7740  177.7370  144.2110 C   0  0  2  0  0  3  0  0  0  0  0  0
  189.0580  177.1570  147.2970 C   0  0  0  0  0  2  0  0  0  0  0  0
  188.4670  176.8890  145.9160 C   0  0  2  0  0  3  0  0  0  0  0  0
  188.6280  178.0010  140.9790 C   0  0  0  0  0  0  0  0  0  0  0  0
  189.4780  177.0620  144.8810 N   0  0  0  0  0  0  0  0  0  0  0  0
  189.9420  177.7130  141.3760 O   0  0  0  0  0  0  0  0  0  0  0  0
  188.3130  178.0580  139.6210 C   0  0  0  0  0  3  0  0  0  0  0  0
  185.5620  178.6250  143.9190 C   0  0  0  0  0  2  0  0  0  0  0  0
  185.2360  178.5970  142.4860 N   0  0  0  0  0  0  0  0  0  0  0  0
  187.2080  177.6910  145.6460 C   0  0  0  0  0  0  0  0  0  0  0  0
  190.3890  177.7270  142.7390 C   0  0  1  0  0  3  0  0  0  0  0  0
  186.9990  178.3210  139.2310 C   0  0  0  0  0  3  0  0  0  0  0  0
  187.9520  177.0650  148.3400 C   0  0  0  0  0  2  0  0  0  0  0  0
  186.4570  178.1830  146.6490 C   0  0  0  0  0  3  0  0  0  0  0  0
  182.3080  179.4070  140.1350 C   0  0  1  0  0  3  0  0  0  0  0  0
  179.3710  178.3330  142.3720 C   0  0  0  0  0  1  0  0  0  0  0  0
  182.3950  179.5690  138.6290 C   0  0  0  0  0  1  0  0  0  0  0  0
  181.5160  179.4690  142.8780 C   0  0  0  0  0  2  0  0  0  0  0  0
  183.8600  178.8060  142.1100 C   0  0  0  0  0  0  0  0  0  0  0  0
  180.9340  178.8460  140.5170 C   0  0  0  0  0  2  0  0  0  0  0  0
  182.9730  179.1570  143.0610 C   0  0  0  0  0  3  0  0  0  0  0  0
  183.4870  178.5760  140.6570 C   0  0  1  0  0  3  0  0  0  0  0  0
  183.3690  177.0890  140.3460 C   0  0  0  0  0  1  0  0  0  0  0  0
  180.8310  178.4450  141.9870 C   0  0  2  0  0  3  0  0  0  0  0  0
  191.2010  178.9840  143.0240 C   0  0  0  0  0  2  0  0  0  0  0  0
  192.0170  178.8060  144.1430 O   0  0  0  0  0  1  0  0  0  0  0  0
  1  4  1  0  0  0  0
  1 15  1  0  0  0  0
  2  4  1  6  0  0  0
  2  5  1  0  0  0  0
  2  7  1  0  0  0  0
  3  1  2  0  0  0  0
  5 11  2  0  0  0  0
  6 19  1  0  0  0  0
  7 14  1  1  0  0  0
  7 16  1  0  0  0  0
  8 19  1  0  0  0  0
  9  8  1  1  0  0  0
 10 12  1  0  0  0  0
 10  4  2  0  0  0  0
 11  9  1  0  0  0  0
 12 17  1  0  0  0  0
 13 10  1  0  0  0  0
 15 14  1  0  0  0  0
 16  9  1  0  0  0  0
 16 20  2  0  0  0  0
 17 31  1  1  0  0  0
 17  5  1  0  0  0  0
 18 13  2  0  0  0  0
 18  3  1  0  0  0  0
 20  6  1  0  0  0  0
 21 23  1  6  0  0  0
 21 26  1  0  0  0  0
 21 28  1  0  0  0  0
 24 27  1  0  0  0  0
 25 15  1  0  0  0  0
 25 27  2  0  0  0  0
 26 30  1  0  0  0  0
 28 29  1  1  0  0  0
 28 25  1  0  0  0  0
 30 22  1  1  0  0  0
 30 24  1  0  0  0  0
 31 32  1  0  0  0  0
M  END
>  <MODEL>
8

>  <REMARK>
 VINA RESULT:      -7.9      1.764      2.395
  Name = 
  2 active torsions:
  status: ('A' for Active; 'I' for Inactive)
    1  A    between atoms: C_13  and  C_29
    2  A    between atoms: C_16  and  N_27
                            x       y       z     vdW  Elec       q    Type
                         _______ _______ _______ _____ _____    ______ ____

>  <TORSDO>
F 2

$$$$
=
 OpenBabel10262421143D

 32 37  0  0  1  0  0  0  0  0999 V2000
  185.8110  178.5220  142.6620 C   0  0  0  0  0  0  0  0  0  0  0  0
  185.6410  178.8410  140.1770 C   0  0  2  0  0  3  0  0  0  0  0  0
  185.2230  178.4870  143.8920 N   0  0  0  0  0  0  0  0  0  0  0  0
  185.0010  178.6830  141.5210 C   0  0  0  0  0  0  0  0  0  0  0  0
  184.6780  178.5730  139.0430 C   0  0  0  0  0  0  0  0  0  0  0  0
  189.2270  178.4930  136.9960 C   0  0  0  0  0  2  0  0  0  0  0  0
  186.9110  178.0100  140.0950 C   0  0  2  0  0  3  0  0  0  0  0  0
  186.8860  178.1530  136.2150 C   0  0  0  0  0  2  0  0  0  0  0  0
  186.4470  177.7100  137.6080 C   0  0  2  0  0  3  0  0  0  0  0  0
  183.6080  178.7740  141.6630 C   0  0  0  0  0  0  0  0  0  0  0  0
  185.0910  178.1610  137.8870 N   0  0  0  0  0  0  0  0  0  0  0  0
  182.7750  178.8860  140.5400 O   0  0  0  0  0  0  0  0  0  0  0  0
  183.0450  178.7230  142.9380 C   0  0  0  0  0  3  0  0  0  0  0  0
  187.8660  178.5010  141.1860 C   0  0  0  0  0  2  0  0  0  0  0  0
  187.2470  178.3660  142.5130 N   0  0  0  0  0  0  0  0  0  0  0  0
  187.4320  178.1060  138.6920 C   0  0  0  0  0  0  0  0  0  0  0  0
  183.2560  179.0430  139.1980 C   0  0  1  0  0  3  0  0  0  0  0  0
  183.8760  178.5860  144.0510 C   0  0  0  0  0  3  0  0  0  0  0  0
  188.3400  177.7500  135.9990 C   0  0  0  0  0  2  0  0  0  0  0  0
  188.7220  178.3670  138.4110 C   0  0  0  0  0  3  0  0  0  0  0  0
  188.2160  178.0960  146.2200 C   0  0  1  0  0  3  0  0  0  0  0  0
  191.7200  176.5540  145.8590 C   0  0  0  0  0  1  0  0  0  0  0  0
  187.2540  178.0990  147.3930 C   0  0  0  0  0  1  0  0  0  0  0  0
  190.5130  178.2660  144.5310 C   0  0  0  0  0  2  0  0  0  0  0  0
  188.1210  178.1600  143.6400 C   0  0  0  0  0  0  0  0  0  0  0  0
  189.4420  177.2410  146.5570 C   0  0  0  0  0  2  0  0  0  0  0  0
  189.4430  178.3720  143.4840 C   0  0  0  0  0  3  0  0  0  0  0  0
  187.4960  177.6710  144.9330 C   0  0  1  0  0  3  0  0  0  0  0  0
  187.1900  176.1800  144.8700 C   0  0  0  0  0  1  0  0  0  0  0  0
  190.3610  177.0010  145.3610 C   0  0  2  0  0  3  0  0  0  0  0  0
  183.0920  180.4860  138.7350 C   0  0  0  0  0  2  0  0  0  0  0  0
  181.7470  180.8590  138.7390 O   0  0  0  0  0  1  0  0  0  0  0  0
  1  3  1  0  0  0  0
  2  5  1  6  0  0  0
  2  4  1  0  0  0  0
  3 18  2  0  0  0  0
  4 10  1  0  0  0  0
  4  1  2  0  0  0  0
  5 17  1  0  0  0  0
  6 20  1  0  0  0  0
  7  2  1  0  0  0  0
  7 14  1  1  0  0  0
  9  8  1  6  0  0  0
  9 11  1  0  0  0  0
  9 16  1  0  0  0  0
 10 13  2  0  0  0  0
 11  5  2  0  0  0  0
 12 10  1  0  0  0  0
 13 18  1  0  0  0  0
 14 15  1  0  0  0  0
 15  1  1  0  0  0  0
 15 25  1  0  0  0  0
 16  7  1  0  0  0  0
 17 31  1  1  0  0  0
 17 12  1  0  0  0  0
 19  8  1  0  0  0  0
 19  6  1  0  0  0  0
 20 16  2  0  0  0  0
 21 26  1  0  0  0  0
 21 23  1  1  0  0  0
 24 30  1  0  0  0  0
 25 28  1  0  0  0  0
 27 25  2  0  0  0  0
 27 24  1  0  0  0  0
 28 29  1  6  0  0  0
 28 21  1  0  0  0  0
 30 22  1  1  0  0  0
 30 26  1  0  0  0  0
 31 32  1  0  0  0  0
M  END
>  <MODEL>
9

>  <REMARK>
 VINA RESULT:      -7.9      2.708      8.140
  Name = 
  2 active torsions:
  status: ('A' for Active; 'I' for Inactive)
    1  A    between atoms: C_13  and  C_29
    2  A    between atoms: C_16  and  N_27
                            x       y       z     vdW  Elec       q    Type
                         _______ _______ _______ _____ _____    ______ ____

>  <TORSDO>
F 2

$$$$
