=
 OpenBabel10262419323D

 31 34  0  0  1  0  0  0  0  0999 V2000
  188.3660  177.7800  143.9450 C   0  0  1  0  0  3  0  0  0  0  0  0
  189.0390  176.8180  144.9490 C   0  0  2  0  0  3  0  0  0  0  0  0
  189.9080  176.6060  147.3010 C   0  0  0  0  0  2  0  0  0  0  0  0
  188.9490  177.3560  146.3870 C   0  0  0  0  0  2  0  0  0  0  0  0
  190.7780  176.7100  143.0680 C   0  0  0  0  0  2  0  0  0  0  0  0
  191.3640  176.8550  146.8930 C   0  0  1  0  0  3  0  0  0  0  0  0
  188.4240  177.3130  142.5430 N   0  0  0  0  0  0  0  0  0  0  0  0
  192.2170  175.6740  147.3100 C   0  0  0  0  0  1  0  0  0  0  0  0
  189.5390  176.4010  142.2430 C   0  0  0  0  0  2  0  0  0  0  0  0
  190.4910  176.4450  144.5390 C   0  0  1  0  0  3  0  0  0  0  0  0
  191.5500  177.1400  145.3970 C   0  0  0  0  0  2  0  0  0  0  0  0
  185.0520  178.5130  145.9590 C   0  0  0  0  0  0  0  0  0  0  0  0
  186.9380  178.0430  144.3220 C   0  0  0  0  0  0  0  0  0  0  0  0
  184.0430  178.5960  144.9320 C   0  0  0  0  0  3  0  0  0  0  0  0
  184.6840  178.6890  147.2490 F   0  0  0  0  0  0  0  0  0  0  0  0
  185.0070  178.2330  142.3970 O   0  0  0  0  0  0  0  0  0  0  0  0
  186.4600  178.2460  145.6630 C   0  0  0  0  0  3  0  0  0  0  0  0
  185.9190  178.1520  143.4270 C   0  0  0  0  0  0  0  0  0  0  0  0
  184.6110  178.4020  143.7060 C   0  0  0  0  0  0  0  0  0  0  0  0
  188.5860  178.4850  141.6910 C   0  0  0  0  0  2  0  0  0  0  0  0
  187.8880  178.2700  140.3580 C   0  0  0  0  0  2  0  0  0  0  0  0
  188.8950  178.3320  139.2260 C   0  0  0  0  0  2  0  0  0  0  0  0
  189.0590  178.0020  136.5610 S   0  0  0  0  0  0  0  0  0  0  0  0
  188.1910  178.3130  137.9180 C   0  0  0  0  0  0  0  0  0  0  0  0
  186.7740  178.5450  137.8960 N   0  0  0  0  0  2  0  0  0  0  0  0
  186.0020  176.4280  137.2430 O   0  0  0  0  0  0  0  0  0  0  0  0
  185.7300  177.5950  137.6250 C   0  0  0  0  0  0  0  0  0  0  0  0
  184.3910  177.9620  137.7670 O   0  0  0  0  0  0  0  0  0  0  0  0
  183.8340  178.3530  139.0150 C   0  0  0  0  0  3  0  0  0  0  0  0
  183.0700  177.1980  139.6330 C   0  0  0  0  0  1  0  0  0  0  0  0
  182.8860  179.5140  138.7990 C   0  0  0  0  0  1  0  0  0  0  0  0
  1 13  1  1  0  0  0
  1  2  1  0  0  0  0
  2  4  1  1  0  0  0
  4  3  1  0  0  0  0
  6  3  1  0  0  0  0
  6  8  1  6  0  0  0
  7  1  1  0  0  0  0
  9  7  1  0  0  0  0
  9  5  1  0  0  0  0
 10  5  1  6  0  0  0
 10  2  1  0  0  0  0
 10 11  1  0  0  0  0
 11  6  1  0  0  0  0
 12 15  1  0  0  0  0
 13 17  2  0  0  0  0
 14 12  2  0  0  0  0
 16 18  1  0  0  0  0
 16 19  1  0  0  0  0
 17 12  1  0  0  0  0
 18 19  2  0  0  0  0
 18 13  1  0  0  0  0
 19 14  1  0  0  0  0
 20  7  1  0  0  0  0
 21 20  1  0  0  0  0
 22 21  1  0  0  0  0
 23 24  2  0  0  0  0
 24 22  1  0  0  0  0
 25 24  1  0  0  0  0
 26 27  2  0  0  0  0
 27 28  1  0  0  0  0
 27 25  1  0  0  0  0
 28 29  1  0  0  0  0
 29 30  1  0  0  0  0
 31 29  1  0  0  0  0
M  END
>  <MODEL>
1

>  <REMARK>
 VINA RESULT:      -9.1      0.000      0.000
  Name = 
  8 active torsions:
  status: ('A' for Active; 'I' for Inactive)
    1  A    between atoms: C_1  and  O_24
    2  A    between atoms: N_3  and  C_22
    3  A    between atoms: C_4  and  C_12
    4  A    between atoms: C_9  and  C_22
    5  A    between atoms: C_9  and  C_23
    6  A    between atoms: C_15  and  N_21
    7  A    between atoms: C_15  and  C_23
    8  A    between atoms: C_19  and  O_24
                            x       y       z     vdW  Elec       q    Type
                         _______ _______ _______ _____ _____    ______ ____

>  <TORSDO>
F 8

$$$$
=
 OpenBabel10262419323D

 31 34  0  0  1  0  0  0  0  0999 V2000
  188.3640  177.7710  143.7760 C   0  0  1  0  0  3  0  0  0  0  0  0
  189.0280  176.8190  144.7970 C   0  0  2  0  0  3  0  0  0  0  0  0
  189.8700  176.6320  147.1610 C   0  0  0  0  0  2  0  0  0  0  0  0
  188.9190  177.3710  146.2300 C   0  0  0  0  0  2  0  0  0  0  0  0
  190.7900  176.7000  142.9380 C   0  0  0  0  0  2  0  0  0  0  0  0
  191.3290  176.8820  146.7680 C   0  0  1  0  0  3  0  0  0  0  0  0
  188.4400  177.2910  142.3800 N   0  0  0  0  0  0  0  0  0  0  0  0
  192.1810  175.7080  147.2060 C   0  0  0  0  0  1  0  0  0  0  0  0
  189.5610  176.3790  142.1010 C   0  0  0  0  0  2  0  0  0  0  0  0
  190.4860  176.4480  144.4080 C   0  0  1  0  0  3  0  0  0  0  0  0
  191.5320  177.1530  145.2720 C   0  0  0  0  0  2  0  0  0  0  0  0
  185.0240  178.5130  145.7440 C   0  0  0  0  0  0  0  0  0  0  0  0
  186.9310  178.0320  144.1340 C   0  0  0  0  0  0  0  0  0  0  0  0
  184.0270  178.5810  144.7050 C   0  0  0  0  0  3  0  0  0  0  0  0
  184.6400  178.7020  147.0280 F   0  0  0  0  0  0  0  0  0  0  0  0
  185.0210  178.1940  142.1850 O   0  0  0  0  0  0  0  0  0  0  0  0
  186.4360  178.2490  145.4670 C   0  0  0  0  0  3  0  0  0  0  0  0
  185.9220  178.1280  143.2270 C   0  0  0  0  0  0  0  0  0  0  0  0
  184.6100  178.3750  143.4880 C   0  0  0  0  0  0  0  0  0  0  0  0
  188.6090  178.4550  141.5190 C   0  0  0  0  0  2  0  0  0  0  0  0
  188.0680  178.1660  140.1280 C   0  0  0  0  0  2  0  0  0  0  0  0
  189.0850  178.5730  139.0790 C   0  0  0  0  0  2  0  0  0  0  0  0
  187.4290  177.4290  137.2940 S   0  0  0  0  0  0  0  0  0  0  0  0
  188.9370  177.7220  137.8700 C   0  0  0  0  0  0  0  0  0  0  0  0
  190.1210  177.2080  137.2420 N   0  0  0  0  0  2  0  0  0  0  0  0
  190.7660  175.5820  138.8060 O   0  0  0  0  0  0  0  0  0  0  0  0
  190.9560  176.1260  137.6890 C   0  0  0  0  0  0  0  0  0  0  0  0
  192.0060  175.6720  136.8890 O   0  0  0  0  0  0  0  0  0  0  0  0
  193.3710  175.8520  137.2430 C   0  0  0  0  0  3  0  0  0  0  0  0
  194.1580  176.3590  136.0500 C   0  0  0  0  0  1  0  0  0  0  0  0
  193.9510  174.5290  137.6930 C   0  0  0  0  0  1  0  0  0  0  0  0
  1 13  1  1  0  0  0
  1  2  1  0  0  0  0
  2  4  1  1  0  0  0
  4  3  1  0  0  0  0
  6  3  1  0  0  0  0
  6  8  1  6  0  0  0
  7  1  1  0  0  0  0
  9  7  1  0  0  0  0
  9  5  1  0  0  0  0
 10  5  1  6  0  0  0
 10  2  1  0  0  0  0
 10 11  1  0  0  0  0
 11  6  1  0  0  0  0
 12 15  1  0  0  0  0
 13 17  2  0  0  0  0
 14 12  2  0  0  0  0
 16 18  1  0  0  0  0
 16 19  1  0  0  0  0
 17 12  1  0  0  0  0
 18 19  2  0  0  0  0
 18 13  1  0  0  0  0
 19 14  1  0  0  0  0
 20  7  1  0  0  0  0
 21 20  1  0  0  0  0
 22 21  1  0  0  0  0
 23 24  2  0  0  0  0
 24 22  1  0  0  0  0
 25 27  1  0  0  0  0
 25 24  1  0  0  0  0
 27 26  2  0  0  0  0
 28 29  1  0  0  0  0
 28 27  1  0  0  0  0
 29 31  1  0  0  0  0
 30 29  1  0  0  0  0
M  END
>  <MODEL>
2

>  <REMARK>
 VINA RESULT:      -9.1      2.584      4.109
  Name = 
  8 active torsions:
  status: ('A' for Active; 'I' for Inactive)
    1  A    between atoms: C_1  and  O_24
    2  A    between atoms: N_3  and  C_22
    3  A    between atoms: C_4  and  C_12
    4  A    between atoms: C_9  and  C_22
    5  A    between atoms: C_9  and  C_23
    6  A    between atoms: C_15  and  N_21
    7  A    between atoms: C_15  and  C_23
    8  A    between atoms: C_19  and  O_24
                            x       y       z     vdW  Elec       q    Type
                         _______ _______ _______ _____ _____    ______ ____

>  <TORSDO>
F 8

$$$$
=
 OpenBabel10262419323D

 31 34  0  0  1  0  0  0  0  0999 V2000
  188.4400  177.7100  143.9110 C   0  0  1  0  0  3  0  0  0  0  0  0
  189.0630  176.7920  144.9870 C   0  0  2  0  0  3  0  0  0  0  0  0
  189.8270  176.6860  147.3820 C   0  0  0  0  0  2  0  0  0  0  0  0
  188.9130  177.3970  146.3940 C   0  0  0  0  0  2  0  0  0  0  0  0
  190.8830  176.5930  143.1910 C   0  0  0  0  0  2  0  0  0  0  0  0
  191.3010  176.9110  147.0270 C   0  0  1  0  0  3  0  0  0  0  0  0
  188.5570  177.1780  142.5360 N   0  0  0  0  0  0  0  0  0  0  0  0
  192.1290  175.7480  147.5350 C   0  0  0  0  0  1  0  0  0  0  0  0
  189.6780  176.2500  142.3270 C   0  0  0  0  0  2  0  0  0  0  0  0
  190.5300  176.3970  144.6580 C   0  0  1  0  0  3  0  0  0  0  0  0
  191.5540  177.1260  145.5300 C   0  0  0  0  0  2  0  0  0  0  0  0
  185.0380  178.5020  145.7470 C   0  0  0  0  0  0  0  0  0  0  0  0
  186.9980  177.9940  144.2130 C   0  0  0  0  0  0  0  0  0  0  0  0
  184.0830  178.5890  144.6700 C   0  0  0  0  0  3  0  0  0  0  0  0
  184.6060  178.6930  147.0160 F   0  0  0  0  0  0  0  0  0  0  0  0
  185.1700  178.1930  142.1900 O   0  0  0  0  0  0  0  0  0  0  0  0
  186.4550  178.2150  145.5250 C   0  0  0  0  0  3  0  0  0  0  0  0
  186.0270  178.1090  143.2660 C   0  0  0  0  0  0  0  0  0  0  0  0
  184.7110  178.3780  143.4760 C   0  0  0  0  0  0  0  0  0  0  0  0
  188.7620  178.3090  141.6390 C   0  0  0  0  0  2  0  0  0  0  0  0
  188.8580  177.8310  140.1990 C   0  0  0  0  0  2  0  0  0  0  0  0
  187.6010  178.2090  139.4400 C   0  0  0  0  0  2  0  0  0  0  0  0
  188.8330  178.7590  137.1130 S   0  0  0  0  0  0  0  0  0  0  0  0
  187.7620  177.8880  137.9990 C   0  0  0  0  0  0  0  0  0  0  0  0
  186.9890  176.8120  137.4440 N   0  0  0  0  0  2  0  0  0  0  0  0
  188.6520  175.1760  137.1910 O   0  0  0  0  0  0  0  0  0  0  0  0
  187.4350  175.4840  137.1180 C   0  0  0  0  0  0  0  0  0  0  0  0
  186.5190  174.5180  136.6990 O   0  0  0  0  0  0  0  0  0  0  0  0
  186.4440  173.2280  137.2930 C   0  0  0  0  0  3  0  0  0  0  0  0
  186.8730  172.1680  136.2970 C   0  0  0  0  0  1  0  0  0  0  0  0
  185.0170  172.9570  137.7210 C   0  0  0  0  0  1  0  0  0  0  0  0
  1 13  1  1  0  0  0
  1  2  1  0  0  0  0
  2  4  1  1  0  0  0
  4  3  1  0  0  0  0
  6  3  1  0  0  0  0
  6  8  1  6  0  0  0
  7  1  1  0  0  0  0
  9  7  1  0  0  0  0
  9  5  1  0  0  0  0
 10  5  1  6  0  0  0
 10  2  1  0  0  0  0
 10 11  1  0  0  0  0
 11  6  1  0  0  0  0
 12 15  1  0  0  0  0
 13 17  2  0  0  0  0
 14 12  2  0  0  0  0
 16 18  1  0  0  0  0
 16 19  1  0  0  0  0
 17 12  1  0  0  0  0
 18 19  2  0  0  0  0
 18 13  1  0  0  0  0
 19 14  1  0  0  0  0
 20  7  1  0  0  0  0
 21 20  1  0  0  0  0
 22 21  1  0  0  0  0
 23 24  2  0  0  0  0
 24 22  1  0  0  0  0
 25 24  1  0  0  0  0
 27 26  2  0  0  0  0
 27 25  1  0  0  0  0
 28 27  1  0  0  0  0
 28 29  1  0  0  0  0
 29 31  1  0  0  0  0
 30 29  1  0  0  0  0
M  END
>  <MODEL>
3

>  <REMARK>
 VINA RESULT:      -9.0      1.814      2.393
  Name = 
  8 active torsions:
  status: ('A' for Active; 'I' for Inactive)
    1  A    between atoms: C_1  and  O_24
    2  A    between atoms: N_3  and  C_22
    3  A    between atoms: C_4  and  C_12
    4  A    between atoms: C_9  and  C_22
    5  A    between atoms: C_9  and  C_23
    6  A    between atoms: C_15  and  N_21
    7  A    between atoms: C_15  and  C_23
    8  A    between atoms: C_19  and  O_24
                            x       y       z     vdW  Elec       q    Type
                         _______ _______ _______ _____ _____    ______ ____

>  <TORSDO>
F 8

$$$$
=
 OpenBabel10262419323D

 31 34  0  0  1  0  0  0  0  0999 V2000
  186.9990  177.7400  143.4060 C   0  0  1  0  0  3  0  0  0  0  0  0
  187.6620  178.2280  144.7140 C   0  0  2  0  0  3  0  0  0  0  0  0
  189.2120  177.5690  146.5840 C   0  0  0  0  0  2  0  0  0  0  0  0
  188.8120  177.2990  145.1390 C   0  0  0  0  0  2  0  0  0  0  0  0
  185.2060  178.6190  145.3420 C   0  0  0  0  0  2  0  0  0  0  0  0
  188.0690  177.2230  147.5440 C   0  0  1  0  0  3  0  0  0  0  0  0
  185.8830  178.5970  142.9500 N   0  0  0  0  0  0  0  0  0  0  0  0
  188.1870  178.0640  148.7980 C   0  0  0  0  0  1  0  0  0  0  0  0
  185.2180  179.3630  144.0150 C   0  0  0  0  0  2  0  0  0  0  0  0
  186.6320  178.4660  145.8540 C   0  0  1  0  0  3  0  0  0  0  0  0
  186.6720  177.3810  146.9300 C   0  0  0  0  0  2  0  0  0  0  0  0
  189.0950  178.2760  140.1050 C   0  0  0  0  0  0  0  0  0  0  0  0
  188.0090  177.6120  142.3050 C   0  0  0  0  0  0  0  0  0  0  0  0
  190.1170  177.2620  140.1850 C   0  0  0  0  0  3  0  0  0  0  0  0
  189.0810  179.1020  139.0340 F   0  0  0  0  0  0  0  0  0  0  0  0
  189.9760  175.7180  142.4400 O   0  0  0  0  0  0  0  0  0  0  0  0
  188.0720  178.4470  141.1360 C   0  0  0  0  0  3  0  0  0  0  0  0
  189.0180  176.6990  142.2960 C   0  0  0  0  0  0  0  0  0  0  0  0
  189.9690  176.5430  141.3360 C   0  0  0  0  0  0  0  0  0  0  0  0
  184.8750  177.7310  142.3500 C   0  0  0  0  0  2  0  0  0  0  0  0
  183.8890  178.5520  141.5360 C   0  0  0  0  0  2  0  0  0  0  0  0
  183.1660  177.6640  140.5430 C   0  0  0  0  0  2  0  0  0  0  0  0
  182.4370  179.6210  138.8470 S   0  0  0  0  0  0  0  0  0  0  0  0
  183.2640  178.2440  139.1780 C   0  0  0  0  0  0  0  0  0  0  0  0
  184.0970  177.5880  138.2100 N   0  0  0  0  0  2  0  0  0  0  0  0
  186.0170  178.9340  138.3130 O   0  0  0  0  0  0  0  0  0  0  0  0
  185.4530  177.9080  137.8540 C   0  0  0  0  0  0  0  0  0  0  0  0
  186.1630  177.0860  136.9770 O   0  0  0  0  0  0  0  0  0  0  0  0
  187.5080  176.6920  137.2170 C   0  0  0  0  0  3  0  0  0  0  0  0
  188.4370  177.3770  136.2330 C   0  0  0  0  0  1  0  0  0  0  0  0
  187.6280  175.1930  137.0490 C   0  0  0  0  0  1  0  0  0  0  0  0
  1 13  1  6  0  0  0
  1  2  1  0  0  0  0
  2  4  1  1  0  0  0
  2 10  1  0  0  0  0
  3  6  1  0  0  0  0
  4  3  1  0  0  0  0
  6  8  1  1  0  0  0
  7  1  1  0  0  0  0
  7  9  1  0  0  0  0
  9  5  1  0  0  0  0
 10  5  1  6  0  0  0
 10 11  1  0  0  0  0
 11  6  1  0  0  0  0
 12 14  2  0  0  0  0
 12 17  1  0  0  0  0
 14 19  1  0  0  0  0
 15 12  1  0  0  0  0
 17 13  2  0  0  0  0
 18 13  1  0  0  0  0
 18 16  1  0  0  0  0
 19 18  2  0  0  0  0
 19 16  1  0  0  0  0
 20  7  1  0  0  0  0
 21 20  1  0  0  0  0
 22 21  1  0  0  0  0
 23 24  2  0  0  0  0
 24 22  1  0  0  0  0
 25 24  1  0  0  0  0
 27 25  1  0  0  0  0
 27 26  2  0  0  0  0
 28 29  1  0  0  0  0
 28 27  1  0  0  0  0
 30 29  1  0  0  0  0
 31 29  1  0  0  0  0
M  END
>  <MODEL>
4

>  <REMARK>
 VINA RESULT:      -8.7      2.783      4.916
  Name = 
  8 active torsions:
  status: ('A' for Active; 'I' for Inactive)
    1  A    between atoms: C_1  and  O_24
    2  A    between atoms: N_3  and  C_22
    3  A    between atoms: C_4  and  C_12
    4  A    between atoms: C_9  and  C_22
    5  A    between atoms: C_9  and  C_23
    6  A    between atoms: C_15  and  N_21
    7  A    between atoms: C_15  and  C_23
    8  A    between atoms: C_19  and  O_24
                            x       y       z     vdW  Elec       q    Type
                         _______ _______ _______ _____ _____    ______ ____

>  <TORSDO>
F 8

$$$$
=
 OpenBabel10262419323D

 31 34  0  0  1  0  0  0  0  0999 V2000
  188.5880  177.3720  143.2550 C   0  0  1  0  0  3  0  0  0  0  0  0
  187.4580  178.3030  143.7490 C   0  0  2  0  0  3  0  0  0  0  0  0
  185.4280  178.4370  145.2300 C   0  0  0  0  0  2  0  0  0  0  0  0
  186.7430  177.7130  144.9770 C   0  0  0  0  0  2  0  0  0  0  0  0
  187.0520  178.4890  141.2240 C   0  0  0  0  0  2  0  0  0  0  0  0
  184.4460  178.2130  144.0750 C   0  0  1  0  0  3  0  0  0  0  0  0
  189.3110  177.8890  142.0730 N   0  0  0  0  0  0  0  0  0  0  0  0
  183.4890  179.3830  143.9890 C   0  0  0  0  0  1  0  0  0  0  0  0
  188.5370  178.8190  141.2360 C   0  0  0  0  0  2  0  0  0  0  0  0
  186.4710  178.6990  142.6150 C   0  0  1  0  0  3  0  0  0  0  0  0
  185.1250  177.9820  142.7190 C   0  0  0  0  0  2  0  0  0  0  0  0
  190.3920  177.1220  146.7560 C   0  0  0  0  0  0  0  0  0  0  0  0
  189.5710  177.0870  144.3520 C   0  0  0  0  0  0  0  0  0  0  0  0
  191.6150  176.4190  146.4580 C   0  0  0  0  0  3  0  0  0  0  0  0
  190.1540  177.5010  148.0340 F   0  0  0  0  0  0  0  0  0  0  0  0
  191.8850  175.7300  143.8240 O   0  0  0  0  0  0  0  0  0  0  0  0
  189.3980  177.4450  145.7330 C   0  0  0  0  0  3  0  0  0  0  0  0
  190.7430  176.4180  144.1730 C   0  0  0  0  0  0  0  0  0  0  0  0
  191.6650  176.1180  145.1270 C   0  0  0  0  0  0  0  0  0  0  0  0
  189.6640  176.7490  141.2350 C   0  0  0  0  0  2  0  0  0  0  0  0
  190.3110  177.2230  139.9440 C   0  0  0  0  0  2  0  0  0  0  0  0
  190.3300  176.0980  138.9280 C   0  0  0  0  0  2  0  0  0  0  0  0
  190.5270  176.3690  136.2580 S   0  0  0  0  0  0  0  0  0  0  0  0
  189.6960  176.5470  137.6610 C   0  0  0  0  0  0  0  0  0  0  0  0
  188.3700  177.0970  137.7130 N   0  0  0  0  0  2  0  0  0  0  0  0
  188.8420  179.3780  137.4240 O   0  0  0  0  0  0  0  0  0  0  0  0
  187.9790  178.4690  137.5330 C   0  0  0  0  0  0  0  0  0  0  0  0
  186.6280  178.8150  137.4920 O   0  0  0  0  0  0  0  0  0  0  0  0
  185.5980  177.9290  137.9130 C   0  0  0  0  0  3  0  0  0  0  0  0
  184.9510  177.2700  136.7100 C   0  0  0  0  0  1  0  0  0  0  0  0
  184.5480  178.7080  138.6750 C   0  0  0  0  0  1  0  0  0  0  0  0
  1  2  1  0  0  0  0
  1 13  1  1  0  0  0
  2  4  1  1  0  0  0
  4  3  1  0  0  0  0
  5  9  1  0  0  0  0
  6  8  1  6  0  0  0
  6  3  1  0  0  0  0
  7  1  1  0  0  0  0
  9  7  1  0  0  0  0
 10  5  1  6  0  0  0
 10 11  1  0  0  0  0
 10  2  1  0  0  0  0
 11  6  1  0  0  0  0
 12 15  1  0  0  0  0
 13 17  1  0  0  0  0
 14 12  1  0  0  0  0
 16 18  1  0  0  0  0
 16 19  1  0  0  0  0
 17 12  2  0  0  0  0
 18 13  2  0  0  0  0
 18 19  1  0  0  0  0
 19 14  2  0  0  0  0
 20  7  1  0  0  0  0
 21 20  1  0  0  0  0
 22 21  1  0  0  0  0
 23 24  2  0  0  0  0
 24 25  1  0  0  0  0
 24 22  1  0  0  0  0
 26 27  2  0  0  0  0
 27 25  1  0  0  0  0
 28 27  1  0  0  0  0
 28 29  1  0  0  0  0
 29 31  1  0  0  0  0
 30 29  1  0  0  0  0
M  END
>  <MODEL>
5

>  <REMARK>
 VINA RESULT:      -8.6      2.230      4.649
  Name = 
  8 active torsions:
  status: ('A' for Active; 'I' for Inactive)
    1  A    between atoms: C_1  and  O_24
    2  A    between atoms: N_3  and  C_22
    3  A    between atoms: C_4  and  C_12
    4  A    between atoms: C_9  and  C_22
    5  A    between atoms: C_9  and  C_23
    6  A    between atoms: C_15  and  N_21
    7  A    between atoms: C_15  and  C_23
    8  A    between atoms: C_19  and  O_24
                            x       y       z     vdW  Elec       q    Type
                         _______ _______ _______ _____ _____    ______ ____

>  <TORSDO>
F 8

$$$$
=
 OpenBabel10262419323D

 31 34  0  0  1  0  0  0  0  0999 V2000
  188.4120  177.8020  143.9490 C   0  0  1  0  0  3  0  0  0  0  0  0
  189.0410  176.8250  144.9680 C   0  0  2  0  0  3  0  0  0  0  0  0
  189.8370  176.5900  147.3430 C   0  0  0  0  0  2  0  0  0  0  0  0
  188.9150  177.3580  146.4060 C   0  0  0  0  0  2  0  0  0  0  0  0
  190.8340  176.7030  143.1390 C   0  0  0  0  0  2  0  0  0  0  0  0
  191.3080  176.8220  146.9800 C   0  0  1  0  0  3  0  0  0  0  0  0
  188.5050  177.3400  142.5470 N   0  0  0  0  0  0  0  0  0  0  0  0
  192.1320  175.6280  147.4160 C   0  0  0  0  0  1  0  0  0  0  0  0
  189.6150  176.4140  142.2750 C   0  0  0  0  0  2  0  0  0  0  0  0
  190.5000  176.4350  144.5990 C   0  0  1  0  0  3  0  0  0  0  0  0
  191.5420  177.1110  145.4920 C   0  0  0  0  0  2  0  0  0  0  0  0
  184.5020  178.3090  143.7510 C   0  0  0  0  0  0  0  0  0  0  0  0
  186.9770  178.0810  144.2850 C   0  0  0  0  0  0  0  0  0  0  0  0
  184.1340  178.6320  145.1080 C   0  0  0  0  0  3  0  0  0  0  0  0
  183.5320  178.2530  142.8090 F   0  0  0  0  0  0  0  0  0  0  0  0
  186.2420  178.6690  146.8520 O   0  0  0  0  0  0  0  0  0  0  0  0
  185.8840  178.0390  143.3520 C   0  0  0  0  0  3  0  0  0  0  0  0
  186.5290  178.3800  145.5350 C   0  0  0  0  0  0  0  0  0  0  0  0
  185.2430  178.6290  145.9030 C   0  0  0  0  0  0  0  0  0  0  0  0
  188.7080  178.5140  141.7060 C   0  0  0  0  0  2  0  0  0  0  0  0
  188.1900  178.2530  140.3010 C   0  0  0  0  0  2  0  0  0  0  0  0
  189.3440  178.2210  139.3180 C   0  0  0  0  0  2  0  0  0  0  0  0
  190.1830  176.9160  137.1210 S   0  0  0  0  0  0  0  0  0  0  0  0
  188.9900  177.3810  138.1450 C   0  0  0  0  0  0  0  0  0  0  0  0
  187.6190  176.9910  137.9680 N   0  0  0  0  0  2  0  0  0  0  0  0
  186.9410  178.5340  136.3350 O   0  0  0  0  0  0  0  0  0  0  0  0
  186.6640  177.5280  137.0370 C   0  0  0  0  0  0  0  0  0  0  0  0
  185.4020  176.9460  136.9110 O   0  0  0  0  0  0  0  0  0  0  0  0
  184.2390  177.5020  137.5110 C   0  0  0  0  0  3  0  0  0  0  0  0
  184.6220  178.3340  138.7200 C   0  0  0  0  0  1  0  0  0  0  0  0
  183.3190  176.3840  137.9520 C   0  0  0  0  0  1  0  0  0  0  0  0
  1 13  1  1  0  0  0
  1  2  1  0  0  0  0
  2  4  1  1  0  0  0
  4  3  1  0  0  0  0
  6  3  1  0  0  0  0
  6  8  1  6  0  0  0
  7  1  1  0  0  0  0
  9  7  1  0  0  0  0
  9  5  1  0  0  0  0
 10  5  1  6  0  0  0
 10  2  1  0  0  0  0
 10 11  1  0  0  0  0
 11  6  1  0  0  0  0
 12 14  1  0  0  0  0
 13 18  2  0  0  0  0
 14 19  2  0  0  0  0
 15 12  1  0  0  0  0
 17 12  2  0  0  0  0
 17 13  1  0  0  0  0
 18 19  1  0  0  0  0
 18 16  1  0  0  0  0
 19 16  1  0  0  0  0
 20  7  1  0  0  0  0
 21 20  1  0  0  0  0
 22 21  1  0  0  0  0
 23 24  2  0  0  0  0
 24 22  1  0  0  0  0
 25 24  1  0  0  0  0
 26 27  2  0  0  0  0
 27 25  1  0  0  0  0
 28 27  1  0  0  0  0
 28 29  1  0  0  0  0
 29 31  1  0  0  0  0
 29 30  1  0  0  0  0
M  END
>  <MODEL>
6

>  <REMARK>
 VINA RESULT:      -8.6      1.453      1.799
  Name = 
  8 active torsions:
  status: ('A' for Active; 'I' for Inactive)
    1  A    between atoms: C_1  and  O_24
    2  A    between atoms: N_3  and  C_22
    3  A    between atoms: C_4  and  C_12
    4  A    between atoms: C_9  and  C_22
    5  A    between atoms: C_9  and  C_23
    6  A    between atoms: C_15  and  N_21
    7  A    between atoms: C_15  and  C_23
    8  A    between atoms: C_19  and  O_24
                            x       y       z     vdW  Elec       q    Type
                         _______ _______ _______ _____ _____    ______ ____

>  <TORSDO>
F 8

$$$$
=
 OpenBabel10262419323D

 31 34  0  0  1  0  0  0  0  0999 V2000
  187.2200  178.0570  143.2950 C   0  0  1  0  0  3  0  0  0  0  0  0
  187.0040  177.5290  144.7310 C   0  0  2  0  0  3  0  0  0  0  0  0
  186.2610  178.1700  147.0490 C   0  0  0  0  0  2  0  0  0  0  0  0
  186.1640  178.5100  145.5680 C   0  0  0  0  0  2  0  0  0  0  0  0
  189.4760  176.9100  144.4470 C   0  0  0  0  0  2  0  0  0  0  0  0
  187.6920  178.3590  147.5630 C   0  0  1  0  0  3  0  0  0  0  0  0
  188.0240  177.1540  142.4440 N   0  0  0  0  0  0  0  0  0  0  0  0
  187.9320  177.4420  148.7450 C   0  0  0  0  0  1  0  0  0  0  0  0
  188.9380  176.2660  143.1790 C   0  0  0  0  0  2  0  0  0  0  0  0
  188.3350  177.1340  145.4290 C   0  0  1  0  0  3  0  0  0  0  0  0
  188.7710  178.1400  146.4960 C   0  0  0  0  0  2  0  0  0  0  0  0
  183.3860  178.6280  142.5510 C   0  0  0  0  0  0  0  0  0  0  0  0
  185.9100  178.3400  142.6210 C   0  0  0  0  0  0  0  0  0  0  0  0
  183.3590  178.9620  141.1480 C   0  0  0  0  0  3  0  0  0  0  0  0
  182.2180  178.5900  143.2340 F   0  0  0  0  0  0  0  0  0  0  0  0
  185.8290  179.0030  139.9700 O   0  0  0  0  0  0  0  0  0  0  0  0
  184.6260  178.3280  143.2670 C   0  0  0  0  0  3  0  0  0  0  0  0
  185.7830  178.6770  141.3080 C   0  0  0  0  0  0  0  0  0  0  0  0
  184.6280  178.9570  140.6460 C   0  0  0  0  0  0  0  0  0  0  0  0
  188.8420  177.9820  141.5660 C   0  0  0  0  0  2  0  0  0  0  0  0
  189.5060  177.1260  140.5000 C   0  0  0  0  0  2  0  0  0  0  0  0
  188.6710  177.1280  139.2350 C   0  0  0  0  0  2  0  0  0  0  0  0
  188.6950  178.6710  137.0320 S   0  0  0  0  0  0  0  0  0  0  0  0
  189.4560  177.6950  138.1090 C   0  0  0  0  0  0  0  0  0  0  0  0
  190.8550  177.3850  138.0210 N   0  0  0  0  0  2  0  0  0  0  0  0
  190.7900  175.5010  136.6230 O   0  0  0  0  0  0  0  0  0  0  0  0
  191.4810  176.3510  137.2420 C   0  0  0  0  0  0  0  0  0  0  0  0
  192.8720  176.2660  137.1750 O   0  0  0  0  0  0  0  0  0  0  0  0
  193.5420  175.1750  136.5560 C   0  0  0  0  0  3  0  0  0  0  0  0
  193.9190  174.1350  137.5930 C   0  0  0  0  0  1  0  0  0  0  0  0
  194.8000  175.6780  135.8800 C   0  0  0  0  0  1  0  0  0  0  0  0
  1 13  1  6  0  0  0
  1  2  1  0  0  0  0
  2 10  1  0  0  0  0
  2  4  1  1  0  0  0
  3  6  1  0  0  0  0
  4  3  1  0  0  0  0
  6  8  1  1  0  0  0
  7  9  1  0  0  0  0
  7  1  1  0  0  0  0
  9  5  1  0  0  0  0
 10  5  1  6  0  0  0
 10 11  1  0  0  0  0
 11  6  1  0  0  0  0
 12 15  1  0  0  0  0
 12 17  1  0  0  0  0
 13 17  2  0  0  0  0
 14 12  2  0  0  0  0
 16 19  1  0  0  0  0
 16 18  1  0  0  0  0
 18 13  1  0  0  0  0
 19 14  1  0  0  0  0
 19 18  2  0  0  0  0
 20  7  1  0  0  0  0
 21 20  1  0  0  0  0
 22 21  1  0  0  0  0
 23 24  2  0  0  0  0
 24 22  1  0  0  0  0
 25 24  1  0  0  0  0
 26 27  2  0  0  0  0
 27 25  1  0  0  0  0
 28 27  1  0  0  0  0
 29 28  1  0  0  0  0
 29 30  1  0  0  0  0
 31 29  1  0  0  0  0
M  END
>  <MODEL>
7

>  <REMARK>
 VINA RESULT:      -8.2      3.181      4.908
  Name = 
  8 active torsions:
  status: ('A' for Active; 'I' for Inactive)
    1  A    between atoms: C_1  and  O_24
    2  A    between atoms: N_3  and  C_22
    3  A    between atoms: C_4  and  C_12
    4  A    between atoms: C_9  and  C_22
    5  A    between atoms: C_9  and  C_23
    6  A    between atoms: C_15  and  N_21
    7  A    between atoms: C_15  and  C_23
    8  A    between atoms: C_19  and  O_24
                            x       y       z     vdW  Elec       q    Type
                         _______ _______ _______ _____ _____    ______ ____

>  <TORSDO>
F 8

$$$$
=
 OpenBabel10262419323D

 31 34  0  0  1  0  0  0  0  0999 V2000
  187.7830  178.0190  144.0050 C   0  0  1  0  0  3  0  0  0  0  0  0
  188.4700  177.0890  145.0310 C   0  0  2  0  0  3  0  0  0  0  0  0
  189.4230  176.9710  147.3570 C   0  0  0  0  0  2  0  0  0  0  0  0
  188.4490  177.7010  146.4420 C   0  0  0  0  0  2  0  0  0  0  0  0
  190.1320  176.8410  143.0940 C   0  0  0  0  0  2  0  0  0  0  0  0
  190.8680  177.1600  146.8820 C   0  0  1  0  0  3  0  0  0  0  0  0
  187.7750  177.4810  142.6270 N   0  0  0  0  0  0  0  0  0  0  0  0
  191.7060  175.9790  147.3270 C   0  0  0  0  0  1  0  0  0  0  0  0
  188.8540  176.5250  142.3320 C   0  0  0  0  0  2  0  0  0  0  0  0
  189.8950  176.6580  144.5870 C   0  0  1  0  0  3  0  0  0  0  0  0
  191.0030  177.3650  145.3680 C   0  0  0  0  0  2  0  0  0  0  0  0
  183.8820  178.6130  144.0340 C   0  0  0  0  0  0  0  0  0  0  0  0
  186.3780  178.3380  144.4210 C   0  0  0  0  0  0  0  0  0  0  0  0
  183.6040  178.9710  145.4030 C   0  0  0  0  0  3  0  0  0  0  0  0
  182.8550  178.5630  143.1530 F   0  0  0  0  0  0  0  0  0  0  0  0
  185.8140  178.9910  147.0150 O   0  0  0  0  0  0  0  0  0  0  0  0
  185.2300  178.3040  143.5570 C   0  0  0  0  0  3  0  0  0  0  0  0
  186.0140  178.6710  145.6900 C   0  0  0  0  0  0  0  0  0  0  0  0
  184.7590  178.9560  146.1300 C   0  0  0  0  0  0  0  0  0  0  0  0
  187.9340  178.6040  141.7110 C   0  0  0  0  0  2  0  0  0  0  0  0
  187.3920  178.2460  140.3370 C   0  0  0  0  0  2  0  0  0  0  0  0
  185.9380  178.6620  140.2260 C   0  0  0  0  0  2  0  0  0  0  0  0
  183.8740  178.0220  138.6230 S   0  0  0  0  0  0  0  0  0  0  0  0
  185.4480  178.4310  138.8430 C   0  0  0  0  0  0  0  0  0  0  0  0
  186.3660  178.5960  137.7510 N   0  0  0  0  0  2  0  0  0  0  0  0
  186.5900  176.3720  137.0380 O   0  0  0  0  0  0  0  0  0  0  0  0
  186.8560  177.5870  136.8520 C   0  0  0  0  0  0  0  0  0  0  0  0
  187.6530  177.9430  135.7620 O   0  0  0  0  0  0  0  0  0  0  0  0
  189.0720  177.8680  135.7960 C   0  0  0  0  0  3  0  0  0  0  0  0
  189.5410  176.5570  135.1940 C   0  0  0  0  0  1  0  0  0  0  0  0
  189.5440  177.9510  137.2320 C   0  0  0  0  0  1  0  0  0  0  0  0
  1 13  1  1  0  0  0
  1  2  1  0  0  0  0
  2  4  1  1  0  0  0
  4  3  1  0  0  0  0
  6  8  1  6  0  0  0
  6  3  1  0  0  0  0
  7  1  1  0  0  0  0
  9  7  1  0  0  0  0
  9  5  1  0  0  0  0
 10  5  1  6  0  0  0
 10  2  1  0  0  0  0
 10 11  1  0  0  0  0
 11  6  1  0  0  0  0
 12 14  1  0  0  0  0
 13 18  2  0  0  0  0
 14 19  2  0  0  0  0
 15 12  1  0  0  0  0
 17 12  2  0  0  0  0
 17 13  1  0  0  0  0
 18 19  1  0  0  0  0
 18 16  1  0  0  0  0
 19 16  1  0  0  0  0
 20  7  1  0  0  0  0
 21 20  1  0  0  0  0
 22 21  1  0  0  0  0
 23 24  2  0  0  0  0
 24 22  1  0  0  0  0
 25 24  1  0  0  0  0
 27 26  2  0  0  0  0
 27 25  1  0  0  0  0
 28 29  1  0  0  0  0
 28 27  1  0  0  0  0
 29 31  1  0  0  0  0
 30 29  1  0  0  0  0
M  END
>  <MODEL>
8

>  <REMARK>
 VINA RESULT:      -8.2      1.949      3.043
  Name = 
  8 active torsions:
  status: ('A' for Active; 'I' for Inactive)
    1  A    between atoms: C_1  and  O_24
    2  A    between atoms: N_3  and  C_22
    3  A    between atoms: C_4  and  C_12
    4  A    between atoms: C_9  and  C_22
    5  A    between atoms: C_9  and  C_23
    6  A    between atoms: C_15  and  N_21
    7  A    between atoms: C_15  and  C_23
    8  A    between atoms: C_19  and  O_24
                            x       y       z     vdW  Elec       q    Type
                         _______ _______ _______ _____ _____    ______ ____

>  <TORSDO>
F 8

$$$$
=
 OpenBabel10262419323D

 31 34  0  0  1  0  0  0  0  0999 V2000
  188.1990  177.5240  143.3940 C   0  0  1  0  0  3  0  0  0  0  0  0
  187.0320  178.4310  143.8470 C   0  0  2  0  0  3  0  0  0  0  0  0
  184.9710  178.5340  145.2870 C   0  0  0  0  0  2  0  0  0  0  0  0
  186.3120  177.8450  145.0740 C   0  0  0  0  0  2  0  0  0  0  0  0
  186.6690  178.5500  141.3110 C   0  0  0  0  0  2  0  0  0  0  0  0
  184.0190  178.2550  144.1190 C   0  0  1  0  0  3  0  0  0  0  0  0
  188.9280  178.0380  142.2150 N   0  0  0  0  0  0  0  0  0  0  0  0
  183.0280  179.3930  143.9890 C   0  0  0  0  0  1  0  0  0  0  0  0
  188.1420  178.9250  141.3430 C   0  0  0  0  0  2  0  0  0  0  0  0
  186.0560  178.7720  142.6860 C   0  0  1  0  0  3  0  0  0  0  0  0
  184.7300  178.0160  142.7810 C   0  0  0  0  0  2  0  0  0  0  0  0
  189.8810  177.2490  146.9540 C   0  0  0  0  0  0  0  0  0  0  0  0
  189.1690  177.2930  144.5150 C   0  0  0  0  0  0  0  0  0  0  0  0
  191.2040  176.7530  146.6660 C   0  0  0  0  0  3  0  0  0  0  0  0
  189.5400  177.4830  148.2430 F   0  0  0  0  0  0  0  0  0  0  0  0
  191.6750  176.3280  144.0050 O   0  0  0  0  0  0  0  0  0  0  0  0
  188.8910  177.5090  145.9090 C   0  0  0  0  0  3  0  0  0  0  0  0
  190.4320  176.8150  144.3470 C   0  0  0  0  0  0  0  0  0  0  0  0
  191.3490  176.5730  145.3210 C   0  0  0  0  0  0  0  0  0  0  0  0
  189.3320  176.8920  141.4090 C   0  0  0  0  0  2  0  0  0  0  0  0
  189.8750  177.3550  140.0670 C   0  0  0  0  0  2  0  0  0  0  0  0
  191.3320  176.9570  139.9290 C   0  0  0  0  0  2  0  0  0  0  0  0
  190.4510  176.7040  137.4000 S   0  0  0  0  0  0  0  0  0  0  0  0
  191.6700  176.7540  138.4970 C   0  0  0  0  0  0  0  0  0  0  0  0
  193.0520  176.6320  138.1270 N   0  0  0  0  0  2  0  0  0  0  0  0
  193.1810  174.3270  137.7040 O   0  0  0  0  0  0  0  0  0  0  0  0
  193.7450  175.4510  137.6870 C   0  0  0  0  0  0  0  0  0  0  0  0
  195.0670  175.5350  137.2460 O   0  0  0  0  0  0  0  0  0  0  0  0
  195.9450  174.4170  137.2460 C   0  0  0  0  0  3  0  0  0  0  0  0
  196.4190  174.1250  138.6560 C   0  0  0  0  0  1  0  0  0  0  0  0
  197.1440  174.7220  136.3740 C   0  0  0  0  0  1  0  0  0  0  0  0
  1  2  1  0  0  0  0
  1 13  1  1  0  0  0
  2  4  1  1  0  0  0
  4  3  1  0  0  0  0
  5  9  1  0  0  0  0
  6  8  1  6  0  0  0
  6  3  1  0  0  0  0
  7  1  1  0  0  0  0
  9  7  1  0  0  0  0
 10  5  1  6  0  0  0
 10 11  1  0  0  0  0
 10  2  1  0  0  0  0
 11  6  1  0  0  0  0
 12 15  1  0  0  0  0
 13 17  1  0  0  0  0
 14 12  1  0  0  0  0
 16 18  1  0  0  0  0
 16 19  1  0  0  0  0
 17 12  2  0  0  0  0
 18 13  2  0  0  0  0
 18 19  1  0  0  0  0
 19 14  2  0  0  0  0
 20  7  1  0  0  0  0
 21 20  1  0  0  0  0
 22 21  1  0  0  0  0
 23 24  2  0  0  0  0
 24 22  1  0  0  0  0
 25 24  1  0  0  0  0
 27 26  2  0  0  0  0
 27 25  1  0  0  0  0
 28 27  1  0  0  0  0
 29 28  1  0  0  0  0
 29 30  1  0  0  0  0
 31 29  1  0  0  0  0
M  END
>  <MODEL>
9

>  <REMARK>
 VINA RESULT:      -8.1      4.189      6.944
  Name = 
  8 active torsions:
  status: ('A' for Active; 'I' for Inactive)
    1  A    between atoms: C_1  and  O_24
    2  A    between atoms: N_3  and  C_22
    3  A    between atoms: C_4  and  C_12
    4  A    between atoms: C_9  and  C_22
    5  A    between atoms: C_9  and  C_23
    6  A    between atoms: C_15  and  N_21
    7  A    between atoms: C_15  and  C_23
    8  A    between atoms: C_19  and  O_24
                            x       y       z     vdW  Elec       q    Type
                         _______ _______ _______ _____ _____    ______ ____

>  <TORSDO>
F 8

$$$$
