=
 OpenBabel10262421233D

 32 37  0  0  1  0  0  0  0  0999 V2000
  186.8030  177.5010  142.9060 C   0  0  0  0  0  2  0  0  0  0  0  0
  190.9310  177.2800  139.4960 C   0  0  1  0  0  3  0  0  0  0  0  0
  186.7630  176.1740  136.9950 C   0  0  0  0  0  2  0  0  0  0  0  0
  187.5210  174.8750  136.7170 C   0  0  0  0  0  2  0  0  0  0  0  0
  193.1270  176.3810  138.6740 C   0  0  0  0  0  0  0  0  0  0  0  0
  193.7800  175.3810  137.8990 N   0  0  0  0  0  0  0  0  0  0  0  0
  189.7260  177.0930  141.6890 C   0  0  1  0  0  3  0  0  0  0  0  0
  188.8630  178.6830  139.9410 C   0  0  0  0  0  2  0  0  0  0  0  0
  193.8640  173.3100  136.9630 C   0  0  0  0  0  0  0  0  0  0  0  0
  187.6390  178.4860  142.0870 C   0  0  0  0  0  2  0  0  0  0  0  0
  187.4310  176.9310  138.1390 C   0  0  0  0  0  2  0  0  0  0  0  0
  189.7060  177.9760  138.8720 C   0  0  2  0  0  3  0  0  0  0  0  0
  188.9200  177.1250  137.8380 C   0  0  1  0  0  3  0  0  0  0  0  0
  191.0610  175.9230  137.3150 C   0  0  2  0  0  3  0  0  0  0  0  0
  195.1080  173.5430  137.6190 N   0  0  0  0  0  0  0  0  0  0  0  0
  188.9250  176.9160  144.0370 C   0  0  0  0  0  2  0  0  0  0  0  0
  188.4690  177.7240  141.0630 C   0  0  2  0  0  3  0  0  0  0  0  0
  195.0260  174.7250  138.1620 C   0  0  0  0  0  3  0  0  0  0  0  0
  189.3840  176.1290  142.8170 C   0  0  0  0  0  2  0  0  0  0  0  0
  187.4610  176.9960  144.1220 N   0  0  0  0  0  0  0  0  0  0  0  0
  188.9120  175.1670  136.3710 N   0  0  0  0  0  2  0  0  0  0  0  0
  189.5590  175.7600  137.5420 C   0  0  2  0  0  3  0  0  0  0  0  0
  191.7170  174.6110  136.9300 C   0  0  0  0  0  3  0  0  0  0  0  0
  190.5150  176.3380  140.6260 C   0  0  0  0  0  2  0  0  0  0  0  0
  193.7640  177.0580  139.5260 O   0  0  0  0  0  0  0  0  0  0  0  0
  193.5620  172.2460  136.3600 O   0  0  0  0  0  0  0  0  0  0  0  0
  191.7100  176.5510  138.4910 N   0  0  0  0  0  0  0  0  0  0  0  0
  193.0210  174.4610  137.1480 C   0  0  0  0  0  0  0  0  0  0  0  0
  187.1420  177.9180  145.2020 C   0  0  0  0  0  2  0  0  0  0  0  0
  188.2140  177.8610  146.2830 C   0  0  0  0  0  2  0  0  0  0  0  0
  188.6400  178.2280  148.7140 C   0  0  0  0  0  1  0  0  0  0  0  0
  187.5960  177.8690  147.6720 C   0  0  0  0  0  2  0  0  0  0  0  0
  1 20  1  0  0  0  0
  2 24  1  1  0  0  0
  3 11  1  0  0  0  0
  4  3  1  0  0  0  0
  5 25  2  0  0  0  0
  6 18  1  0  0  0  0
  6  5  1  0  0  0  0
  7 24  1  6  0  0  0
  7 19  1  0  0  0  0
  9 28  1  0  0  0  0
  9 15  1  0  0  0  0
 10  1  1  0  0  0  0
 12  2  1  0  0  0  0
 12  8  1  1  0  0  0
 13 11  1  1  0  0  0
 13 12  1  0  0  0  0
 14 23  1  1  0  0  0
 14 22  1  0  0  0  0
 14 27  1  0  0  0  0
 15 18  2  0  0  0  0
 16 20  1  0  0  0  0
 17  8  1  6  0  0  0
 17  7  1  0  0  0  0
 17 10  1  0  0  0  0
 19 16  1  0  0  0  0
 20 29  1  0  0  0  0
 21  4  1  0  0  0  0
 22 21  1  6  0  0  0
 22 13  1  0  0  0  0
 23 28  2  0  0  0  0
 26  9  2  0  0  0  0
 27  5  1  0  0  0  0
 27  2  1  0  0  0  0
 28  6  1  0  0  0  0
 29 30  1  0  0  0  0
 30 32  1  0  0  0  0
 32 31  1  0  0  0  0
M  END
>  <MODEL>
1

>  <REMARK>
 VINA RESULT:      -8.6      0.000      0.000
  Name = 
  3 active torsions:
  status: ('A' for Active; 'I' for Inactive)
    1  A    between atoms: C_1  and  C_10
    2  A    between atoms: C_1  and  C_20
    3  A    between atoms: C_10  and  N_24
                            x       y       z     vdW  Elec       q    Type
                         _______ _______ _______ _____ _____    ______ ____

>  <TORSDO>
F 3

$$$$
=
 OpenBabel10262421233D

 32 37  0  0  1  0  0  0  0  0999 V2000
  186.8920  177.5470  142.8680 C   0  0  0  0  0  2  0  0  0  0  0  0
  190.8720  177.2510  139.2920 C   0  0  1  0  0  3  0  0  0  0  0  0
  186.6200  175.9830  137.0220 C   0  0  0  0  0  2  0  0  0  0  0  0
  187.3870  174.6860  136.7620 C   0  0  0  0  0  2  0  0  0  0  0  0
  193.0460  176.3540  138.4110 C   0  0  0  0  0  0  0  0  0  0  0  0
  193.6820  175.3330  137.6490 N   0  0  0  0  0  0  0  0  0  0  0  0
  189.7670  177.1350  141.5410 C   0  0  1  0  0  3  0  0  0  0  0  0
  188.8020  178.6400  139.7710 C   0  0  0  0  0  2  0  0  0  0  0  0
  193.7610  173.2280  136.7920 C   0  0  0  0  0  0  0  0  0  0  0  0
  187.6750  178.5110  141.9760 C   0  0  0  0  0  2  0  0  0  0  0  0
  187.3230  176.7950  138.1050 C   0  0  0  0  0  2  0  0  0  0  0  0
  189.6100  177.9030  138.6950 C   0  0  2  0  0  3  0  0  0  0  0  0
  188.7950  176.9990  137.7320 C   0  0  1  0  0  3  0  0  0  0  0  0
  190.9310  175.8110  137.1630 C   0  0  2  0  0  3  0  0  0  0  0  0
  195.0270  173.5060  137.3840 N   0  0  0  0  0  0  0  0  0  0  0  0
  189.0700  177.0400  143.9280 C   0  0  0  0  0  2  0  0  0  0  0  0
  188.4730  177.7210  140.9470 C   0  0  2  0  0  3  0  0  0  0  0  0
  194.9490  174.7080  137.8820 C   0  0  0  0  0  3  0  0  0  0  0  0
  189.4900  176.2120  142.7210 C   0  0  0  0  0  2  0  0  0  0  0  0
  187.6110  177.1010  144.0740 N   0  0  0  0  0  0  0  0  0  0  0  0
  188.7570  174.9840  136.3450 N   0  0  0  0  0  2  0  0  0  0  0  0
  189.4440  175.6330  137.4620 C   0  0  2  0  0  3  0  0  0  0  0  0
  191.5920  174.4940  136.8020 C   0  0  0  0  0  3  0  0  0  0  0  0
  190.5210  176.3500  140.4750 C   0  0  0  0  0  2  0  0  0  0  0  0
  193.7070  177.0740  139.2070 O   0  0  0  0  0  0  0  0  0  0  0  0
  193.4510  172.1370  136.2450 O   0  0  0  0  0  0  0  0  0  0  0  0
  191.6200  176.4950  138.2840 N   0  0  0  0  0  0  0  0  0  0  0  0
  192.9070  174.3730  136.9680 C   0  0  0  0  0  0  0  0  0  0  0  0
  187.3230  178.0610  145.1290 C   0  0  0  0  0  2  0  0  0  0  0  0
  186.2450  177.5200  146.0600 C   0  0  0  0  0  2  0  0  0  0  0  0
  184.3310  178.8920  145.2350 C   0  0  0  0  0  1  0  0  0  0  0  0
  185.2350  178.5990  146.4180 C   0  0  0  0  0  2  0  0  0  0  0  0
  1 20  1  0  0  0  0
  2 24  1  1  0  0  0
  3 11  1  0  0  0  0
  4  3  1  0  0  0  0
  5 25  2  0  0  0  0
  6 18  1  0  0  0  0
  6  5  1  0  0  0  0
  7 24  1  6  0  0  0
  7 19  1  0  0  0  0
  9 28  1  0  0  0  0
  9 15  1  0  0  0  0
 10  1  1  0  0  0  0
 12  2  1  0  0  0  0
 12  8  1  1  0  0  0
 13 11  1  1  0  0  0
 13 12  1  0  0  0  0
 14 23  1  1  0  0  0
 14 22  1  0  0  0  0
 14 27  1  0  0  0  0
 15 18  2  0  0  0  0
 16 20  1  0  0  0  0
 17  8  1  6  0  0  0
 17  7  1  0  0  0  0
 17 10  1  0  0  0  0
 19 16  1  0  0  0  0
 20 29  1  0  0  0  0
 21  4  1  0  0  0  0
 22 21  1  6  0  0  0
 22 13  1  0  0  0  0
 23 28  2  0  0  0  0
 26  9  2  0  0  0  0
 27  5  1  0  0  0  0
 27  2  1  0  0  0  0
 28  6  1  0  0  0  0
 29 30  1  0  0  0  0
 30 32  1  0  0  0  0
 31 32  1  0  0  0  0
M  END
>  <MODEL>
2

>  <REMARK>
 VINA RESULT:      -8.6      0.817      1.175
  Name = 
  3 active torsions:
  status: ('A' for Active; 'I' for Inactive)
    1  A    between atoms: C_1  and  C_10
    2  A    between atoms: C_1  and  C_20
    3  A    between atoms: C_10  and  N_24
                            x       y       z     vdW  Elec       q    Type
                         _______ _______ _______ _____ _____    ______ ____

>  <TORSDO>
F 3

$$$$
=
 OpenBabel10262421233D

 32 37  0  0  1  0  0  0  0  0999 V2000
  186.0370  177.9620  146.8800 C   0  0  0  0  0  2  0  0  0  0  0  0
  184.8220  179.0710  141.7790 C   0  0  1  0  0  3  0  0  0  0  0  0
  180.5730  178.5990  144.3420 C   0  0  0  0  0  2  0  0  0  0  0  0
  180.3130  177.5010  143.3100 C   0  0  0  0  0  2  0  0  0  0  0  0
  184.8220  178.6040  139.3120 C   0  0  0  0  0  0  0  0  0  0  0  0
  184.1700  177.9410  138.2330 N   0  0  0  0  0  0  0  0  0  0  0  0
  186.1420  178.1260  143.6930 C   0  0  1  0  0  3  0  0  0  0  0  0
  184.6870  180.1430  144.0760 C   0  0  0  0  0  2  0  0  0  0  0  0
  182.8470  176.2870  137.4060 C   0  0  0  0  0  0  0  0  0  0  0  0
  185.9560  179.2020  145.9870 C   0  0  0  0  0  2  0  0  0  0  0  0
  182.0490  178.9850  144.3320 C   0  0  0  0  0  2  0  0  0  0  0  0
  183.9420  179.8620  142.7650 C   0  0  2  0  0  3  0  0  0  0  0  0
  182.4840  179.3450  142.9080 C   0  0  1  0  0  3  0  0  0  0  0  0
  182.6370  178.4930  140.5520 C   0  0  2  0  0  3  0  0  0  0  0  0
  184.0110  176.3650  136.5870 N   0  0  0  0  0  0  0  0  0  0  0  0
  187.7710  177.1620  145.3060 C   0  0  0  0  0  2  0  0  0  0  0  0
  185.2280  178.8550  144.6950 C   0  0  2  0  0  3  0  0  0  0  0  0
  184.7590  177.3050  137.0930 C   0  0  0  0  0  3  0  0  0  0  0  0
  186.7090  176.8340  144.2670 C   0  0  0  0  0  2  0  0  0  0  0  0
  187.2350  177.1310  146.6720 N   0  0  0  0  0  0  0  0  0  0  0  0
  180.6950  177.9630  141.9750 N   0  0  0  0  0  2  0  0  0  0  0  0
  182.1410  178.1840  141.9630 C   0  0  2  0  0  3  0  0  0  0  0  0
  182.2390  177.4110  139.5670 C   0  0  0  0  0  3  0  0  0  0  0  0
  185.3650  177.7960  142.4240 C   0  0  0  0  0  2  0  0  0  0  0  0
  186.0120  179.0050  139.1990 O   0  0  0  0  0  0  0  0  0  0  0  0
  181.9130  175.4580  137.2430 O   0  0  0  0  0  0  0  0  0  0  0  0
  184.0980  178.7460  140.5470 N   0  0  0  0  0  0  0  0  0  0  0  0
  182.9490  177.2710  138.4500 C   0  0  0  0  0  0  0  0  0  0  0  0
  188.2740  177.6400  147.5550 C   0  0  0  0  0  2  0  0  0  0  0  0
  189.6060  177.7120  146.8210 C   0  0  0  0  0  2  0  0  0  0  0  0
  191.6720  176.4020  146.3280 C   0  0  0  0  0  1  0  0  0  0  0  0
  190.5830  176.6730  147.3500 C   0  0  0  0  0  2  0  0  0  0  0  0
  2 24  1  1  0  0  0
  2 12  1  0  0  0  0
  4  3  1  0  0  0  0
  5 27  1  0  0  0  0
  6 28  1  0  0  0  0
  6  5  1  0  0  0  0
  7 24  1  6  0  0  0
  7 19  1  0  0  0  0
  7 17  1  0  0  0  0
  9 28  1  0  0  0  0
 10  1  1  0  0  0  0
 11  3  1  0  0  0  0
 12 13  1  0  0  0  0
 12  8  1  1  0  0  0
 13 11  1  1  0  0  0
 14 23  1  6  0  0  0
 14 22  1  0  0  0  0
 15 18  2  0  0  0  0
 15  9  1  0  0  0  0
 16 20  1  0  0  0  0
 17  8  1  6  0  0  0
 17 10  1  0  0  0  0
 18  6  1  0  0  0  0
 19 16  1  0  0  0  0
 20  1  1  0  0  0  0
 20 29  1  0  0  0  0
 21  4  1  0  0  0  0
 22 21  1  6  0  0  0
 22 13  1  0  0  0  0
 25  5  2  0  0  0  0
 26  9  2  0  0  0  0
 27 14  1  0  0  0  0
 27  2  1  0  0  0  0
 28 23  2  0  0  0  0
 30 32  1  0  0  0  0
 30 29  1  0  0  0  0
 31 32  1  0  0  0  0
M  END
>  <MODEL>
3

>  <REMARK>
 VINA RESULT:      -6.9      5.970      7.833
  Name = 
  3 active torsions:
  status: ('A' for Active; 'I' for Inactive)
    1  A    between atoms: C_1  and  C_10
    2  A    between atoms: C_1  and  C_20
    3  A    between atoms: C_10  and  N_24
                            x       y       z     vdW  Elec       q    Type
                         _______ _______ _______ _____ _____    ______ ____

>  <TORSDO>
F 3

$$$$
=
 OpenBabel10262421233D

 32 37  0  0  1  0  0  0  0  0999 V2000
  181.6020  175.8480  136.5570 C   0  0  0  0  0  2  0  0  0  0  0  0
  183.2850  178.7170  140.7590 C   0  0  1  0  0  3  0  0  0  0  0  0
  187.0570  178.2990  137.5270 C   0  0  0  0  0  2  0  0  0  0  0  0
  187.7450  177.6530  138.7310 C   0  0  0  0  0  2  0  0  0  0  0  0
  183.7920  179.0590  143.1940 C   0  0  0  0  0  0  0  0  0  0  0  0
  184.7520  178.9090  144.2350 N   0  0  0  0  0  0  0  0  0  0  0  0
  181.9630  176.9820  139.5200 C   0  0  1  0  0  3  0  0  0  0  0  0
  182.7810  179.0170  138.2890 C   0  0  0  0  0  2  0  0  0  0  0  0
  186.5640  177.8900  145.1570 C   0  0  0  0  0  0  0  0  0  0  0  0
  181.5070  177.2960  137.0400 C   0  0  0  0  0  2  0  0  0  0  0  0
  185.5520  178.3740  137.7660 C   0  0  0  0  0  2  0  0  0  0  0  0
  183.7700  179.3140  139.4240 C   0  0  2  0  0  3  0  0  0  0  0  0
  185.2690  179.0720  139.1000 C   0  0  1  0  0  3  0  0  0  0  0  0
  185.7100  178.9910  141.5700 C   0  0  2  0  0  3  0  0  0  0  0  0
  185.5610  177.9930  146.1650 N   0  0  0  0  0  0  0  0  0  0  0  0
  180.3970  175.2620  138.6380 C   0  0  0  0  0  2  0  0  0  0  0  0
  182.4930  177.5210  138.1790 C   0  0  2  0  0  3  0  0  0  0  0  0
  184.5300  178.5620  145.6070 C   0  0  0  0  0  3  0  0  0  0  0  0
  181.6570  175.4910  139.4590 C   0  0  0  0  0  2  0  0  0  0  0  0
  180.7020  174.9080  137.2460 N   0  0  0  0  0  0  0  0  0  0  0  0
  187.4740  178.4280  139.9420 N   0  0  0  0  0  2  0  0  0  0  0  0
  186.0400  178.3570  140.2200 C   0  0  2  0  0  3  0  0  0  0  0  0
  186.5190  178.3730  142.6930 C   0  0  0  0  0  3  0  0  0  0  0  0
  182.9880  177.2240  140.6210 C   0  0  0  0  0  2  0  0  0  0  0  0
  182.5720  179.2360  143.4600 O   0  0  0  0  0  0  0  0  0  0  0  0
  187.6900  177.3520  145.3220 O   0  0  0  0  0  0  0  0  0  0  0  0
  184.2520  178.9430  141.8360 N   0  0  0  0  0  0  0  0  0  0  0  0
  186.0520  178.4550  143.9370 C   0  0  0  0  0  0  0  0  0  0  0  0
  179.4420  174.9020  136.5170 C   0  0  0  0  0  2  0  0  0  0  0  0
  178.9630  173.4730  136.2970 C   0  0  0  0  0  2  0  0  0  0  0  0
  180.1490  171.4730  137.2040 C   0  0  0  0  0  1  0  0  0  0  0  0
  180.1350  172.5220  136.1070 C   0  0  0  0  0  2  0  0  0  0  0  0
  1 10  1  0  0  0  0
  1 20  1  0  0  0  0
  2 24  1  6  0  0  0
  2 27  1  0  0  0  0
  3 11  1  0  0  0  0
  3  4  1  0  0  0  0
  4 21  1  0  0  0  0
  5 25  2  0  0  0  0
  5  6  1  0  0  0  0
  6 18  1  0  0  0  0
  7 19  1  6  0  0  0
  7 24  1  0  0  0  0
  9 26  2  0  0  0  0
  9 15  1  0  0  0  0
 12  8  1  6  0  0  0
 12  2  1  0  0  0  0
 13 11  1  6  0  0  0
 13 12  1  0  0  0  0
 13 22  1  0  0  0  0
 14 27  1  0  0  0  0
 14 23  1  1  0  0  0
 16 19  1  0  0  0  0
 17 10  1  6  0  0  0
 17  8  1  0  0  0  0
 17  7  1  0  0  0  0
 18 15  2  0  0  0  0
 20 16  1  0  0  0  0
 22 21  1  6  0  0  0
 22 14  1  0  0  0  0
 23 28  2  0  0  0  0
 27  5  1  0  0  0  0
 28  6  1  0  0  0  0
 28  9  1  0  0  0  0
 29 20  1  0  0  0  0
 30 29  1  0  0  0  0
 32 30  1  0  0  0  0
 32 31  1  0  0  0  0
M  END
>  <MODEL>
4

>  <REMARK>
 VINA RESULT:      -6.9      5.339      9.647
  Name = 
  3 active torsions:
  status: ('A' for Active; 'I' for Inactive)
    1  A    between atoms: C_1  and  C_10
    2  A    between atoms: C_1  and  C_20
    3  A    between atoms: C_10  and  N_24
                            x       y       z     vdW  Elec       q    Type
                         _______ _______ _______ _____ _____    ______ ____

>  <TORSDO>
F 3

$$$$
=
 OpenBabel10262421233D

 32 37  0  0  1  0  0  0  0  0999 V2000
  185.4660  177.7540  145.2610 C   0  0  0  0  0  2  0  0  0  0  0  0
  186.7550  178.7020  140.1470 C   0  0  1  0  0  3  0  0  0  0  0  0
  182.0200  177.1530  140.3160 C   0  0  0  0  0  2  0  0  0  0  0  0
  182.5620  176.0580  139.3960 C   0  0  0  0  0  2  0  0  0  0  0  0
  188.0920  178.3270  138.0550 C   0  0  0  0  0  0  0  0  0  0  0  0
  188.2320  177.5620  136.8610 N   0  0  0  0  0  0  0  0  0  0  0  0
  187.1120  178.0380  142.5400 C   0  0  1  0  0  3  0  0  0  0  0  0
  185.2560  179.6380  141.9690 C   0  0  0  0  0  2  0  0  0  0  0  0
  187.9040  175.6680  135.6460 C   0  0  0  0  0  0  0  0  0  0  0  0
  185.5710  178.9660  144.3350 C   0  0  0  0  0  2  0  0  0  0  0  0
  183.1760  177.8780  140.9980 C   0  0  0  0  0  2  0  0  0  0  0  0
  185.3490  179.2300  140.4930 C   0  0  2  0  0  3  0  0  0  0  0  0
  184.1720  178.3770  139.9470 C   0  0  1  0  0  3  0  0  0  0  0  0
  185.6670  177.6610  138.0620 C   0  0  2  0  0  3  0  0  0  0  0  0
  189.2710  176.0460  135.5040 N   0  0  0  0  0  0  0  0  0  0  0  0
  187.8830  177.4390  144.8280 C   0  0  0  0  0  2  0  0  0  0  0  0
  185.6840  178.4970  142.8900 C   0  0  2  0  0  3  0  0  0  0  0  0
  189.4360  177.1210  136.2230 C   0  0  0  0  0  3  0  0  0  0  0  0
  187.5860  176.9010  143.4350 C   0  0  0  0  0  2  0  0  0  0  0  0
  186.7570  177.2380  145.7480 N   0  0  0  0  0  0  0  0  0  0  0  0
  183.4460  176.6390  138.3860 N   0  0  0  0  0  2  0  0  0  0  0  0
  184.6140  177.1980  139.0680 C   0  0  2  0  0  3  0  0  0  0  0  0
  186.0650  176.5470  137.1130 C   0  0  0  0  0  3  0  0  0  0  0  0
  187.1680  177.5730  141.0900 C   0  0  0  0  0  2  0  0  0  0  0  0
  189.0550  179.0030  138.5060 O   0  0  0  0  0  0  0  0  0  0  0  0
  187.3870  174.6460  135.1220 O   0  0  0  0  0  0  0  0  0  0  0  0
  186.8370  178.2530  138.7540 N   0  0  0  0  0  0  0  0  0  0  0  0
  187.2490  176.6140  136.5100 C   0  0  0  0  0  0  0  0  0  0  0  0
  187.0730  177.9510  146.9770 C   0  0  0  0  0  2  0  0  0  0  0  0
  188.0300  177.1340  147.8350 C   0  0  0  0  0  2  0  0  0  0  0  0
  190.4580  176.8330  147.3420 C   0  0  0  0  0  1  0  0  0  0  0  0
  189.4060  177.7790  147.8910 C   0  0  0  0  0  2  0  0  0  0  0  0
  1 20  1  0  0  0  0
  2 12  1  0  0  0  0
  2 24  1  1  0  0  0
  3 11  1  0  0  0  0
  4  3  1  0  0  0  0
  5 25  2  0  0  0  0
  5 27  1  0  0  0  0
  6  5  1  0  0  0  0
  7 24  1  6  0  0  0
  7 17  1  0  0  0  0
  7 19  1  0  0  0  0
  9 28  1  0  0  0  0
 10  1  1  0  0  0  0
 12  8  1  1  0  0  0
 13 12  1  0  0  0  0
 13 11  1  1  0  0  0
 14 23  1  1  0  0  0
 14 27  1  0  0  0  0
 14 22  1  0  0  0  0
 15  9  1  0  0  0  0
 15 18  2  0  0  0  0
 16 20  1  0  0  0  0
 17  8  1  6  0  0  0
 17 10  1  0  0  0  0
 18  6  1  0  0  0  0
 19 16  1  0  0  0  0
 20 29  1  0  0  0  0
 21  4  1  0  0  0  0
 22 21  1  6  0  0  0
 22 13  1  0  0  0  0
 26  9  2  0  0  0  0
 27  2  1  0  0  0  0
 28  6  1  0  0  0  0
 28 23  2  0  0  0  0
 29 30  1  0  0  0  0
 30 32  1  0  0  0  0
 31 32  1  0  0  0  0
M  END
>  <MODEL>
5

>  <REMARK>
 VINA RESULT:      -6.6      3.360      4.763
  Name = 
  3 active torsions:
  status: ('A' for Active; 'I' for Inactive)
    1  A    between atoms: C_1  and  C_10
    2  A    between atoms: C_1  and  C_20
    3  A    between atoms: C_10  and  N_24
                            x       y       z     vdW  Elec       q    Type
                         _______ _______ _______ _____ _____    ______ ____

>  <TORSDO>
F 3

$$$$
=
 OpenBabel10262421233D

 32 37  0  0  1  0  0  0  0  0999 V2000
  184.4400  178.2530  143.8430 C   0  0  0  0  0  2  0  0  0  0  0  0
  186.0950  178.6800  138.7640 C   0  0  1  0  0  3  0  0  0  0  0  0
  182.0260  175.8020  138.8560 C   0  0  0  0  0  2  0  0  0  0  0  0
  182.9800  174.7890  138.2220 C   0  0  0  0  0  2  0  0  0  0  0  0
  187.7580  178.3890  136.9060 C   0  0  0  0  0  0  0  0  0  0  0  0
  188.2750  177.5160  135.9060 N   0  0  0  0  0  0  0  0  0  0  0  0
  186.2930  178.5690  141.2620 C   0  0  1  0  0  3  0  0  0  0  0  0
  184.1550  179.4010  140.2320 C   0  0  0  0  0  2  0  0  0  0  0  0
  188.6740  175.4380  135.0740 C   0  0  0  0  0  0  0  0  0  0  0  0
  184.3190  179.2650  142.7030 C   0  0  0  0  0  2  0  0  0  0  0  0
  182.8200  176.9510  139.4700 C   0  0  0  0  0  2  0  0  0  0  0  0
  184.5640  178.8010  138.8810 C   0  0  2  0  0  3  0  0  0  0  0  0
  183.7660  177.5480  138.4250 C   0  0  1  0  0  3  0  0  0  0  0  0
  185.6490  177.0210  136.8500 C   0  0  2  0  0  3  0  0  0  0  0  0
  189.8810  176.1880  134.9700 N   0  0  0  0  0  0  0  0  0  0  0  0
  186.8800  178.6280  143.6790 C   0  0  0  0  0  2  0  0  0  0  0  0
  184.7600  178.6180  141.3960 C   0  0  2  0  0  3  0  0  0  0  0  0
  189.6310  177.3660  135.4700 C   0  0  0  0  0  3  0  0  0  0  0  0
  186.9450  177.7990  142.4040 C   0  0  0  0  0  2  0  0  0  0  0  0
  185.7440  178.2470  144.5270 N   0  0  0  0  0  0  0  0  0  0  0  0
  183.7910  175.4360  137.1910 N   0  0  0  0  0  2  0  0  0  0  0  0
  184.6450  176.4330  137.8390 C   0  0  2  0  0  3  0  0  0  0  0  0
  186.4770  175.9410  136.1800 C   0  0  0  0  0  3  0  0  0  0  0  0
  186.6810  177.9070  139.9450 C   0  0  0  0  0  2  0  0  0  0  0  0
  188.4160  179.3940  137.2880 O   0  0  0  0  0  0  0  0  0  0  0  0
  188.5480  174.2340  134.7260 O   0  0  0  0  0  0  0  0  0  0  0  0
  186.4930  178.0520  137.5010 N   0  0  0  0  0  0  0  0  0  0  0  0
  187.6630  176.2670  135.6740 C   0  0  0  0  0  0  0  0  0  0  0  0
  185.6690  179.2190  145.6090 C   0  0  0  0  0  2  0  0  0  0  0  0
  185.8690  178.5320  146.9530 C   0  0  0  0  0  2  0  0  0  0  0  0
  187.9320  178.2530  148.3300 C   0  0  0  0  0  1  0  0  0  0  0  0
  187.2360  177.8710  147.0360 C   0  0  0  0  0  2  0  0  0  0  0  0
  1 20  1  0  0  0  0
  2 12  1  0  0  0  0
  2 24  1  1  0  0  0
  3 11  1  0  0  0  0
  4  3  1  0  0  0  0
  5 25  2  0  0  0  0
  5 27  1  0  0  0  0
  6  5  1  0  0  0  0
  7 24  1  6  0  0  0
  7 17  1  0  0  0  0
  7 19  1  0  0  0  0
  9 28  1  0  0  0  0
 10  1  1  0  0  0  0
 12  8  1  1  0  0  0
 13 12  1  0  0  0  0
 13 11  1  1  0  0  0
 14 23  1  1  0  0  0
 14 27  1  0  0  0  0
 14 22  1  0  0  0  0
 15  9  1  0  0  0  0
 15 18  2  0  0  0  0
 16 20  1  0  0  0  0
 17  8  1  6  0  0  0
 17 10  1  0  0  0  0
 18  6  1  0  0  0  0
 19 16  1  0  0  0  0
 20 29  1  0  0  0  0
 21  4  1  0  0  0  0
 22 21  1  6  0  0  0
 22 13  1  0  0  0  0
 26  9  2  0  0  0  0
 27  2  1  0  0  0  0
 28  6  1  0  0  0  0
 28 23  2  0  0  0  0
 29 30  1  0  0  0  0
 30 32  1  0  0  0  0
 32 31  1  0  0  0  0
M  END
>  <MODEL>
6

>  <REMARK>
 VINA RESULT:      -6.5      3.576      4.726
  Name = 
  3 active torsions:
  status: ('A' for Active; 'I' for Inactive)
    1  A    between atoms: C_1  and  C_10
    2  A    between atoms: C_1  and  C_20
    3  A    between atoms: C_10  and  N_24
                            x       y       z     vdW  Elec       q    Type
                         _______ _______ _______ _____ _____    ______ ____

>  <TORSDO>
F 3

$$$$
=
 OpenBabel10262421233D

 32 37  0  0  1  0  0  0  0  0999 V2000
  190.9740  173.7830  136.5530 C   0  0  0  0  0  2  0  0  0  0  0  0
  187.8620  177.7800  138.3030 C   0  0  1  0  0  3  0  0  0  0  0  0
  191.6710  177.2470  141.4740 C   0  0  0  0  0  2  0  0  0  0  0  0
  190.5370  177.0180  142.4740 C   0  0  0  0  0  2  0  0  0  0  0  0
  185.7020  178.7520  139.1360 C   0  0  0  0  0  0  0  0  0  0  0  0
  184.8780  179.0060  140.2690 N   0  0  0  0  0  0  0  0  0  0  0  0
  188.4320  175.6130  137.1730 C   0  0  1  0  0  3  0  0  0  0  0  0
  190.1800  177.4150  137.3350 C   0  0  0  0  0  2  0  0  0  0  0  0
  184.1780  178.5360  142.3820 C   0  0  0  0  0  0  0  0  0  0  0  0
  190.7730  175.2680  136.2460 C   0  0  0  0  0  2  0  0  0  0  0  0
  191.1390  177.1290  140.0480 C   0  0  0  0  0  2  0  0  0  0  0  0
  189.3590  178.1230  138.4210 C   0  0  2  0  0  3  0  0  0  0  0  0
  189.9390  178.0600  139.8600 C   0  0  1  0  0  3  0  0  0  0  0  0
  187.6490  178.6250  140.7220 C   0  0  2  0  0  3  0  0  0  0  0  0
  183.0210  178.7040  141.5660 N   0  0  0  0  0  0  0  0  0  0  0  0
  188.6130  173.5050  135.8650 C   0  0  0  0  0  2  0  0  0  0  0  0
  189.9340  175.9080  137.3450 C   0  0  2  0  0  3  0  0  0  0  0  0
  183.4490  178.9530  140.3600 C   0  0  0  0  0  3  0  0  0  0  0  0
  188.1360  174.1190  137.1740 C   0  0  0  0  0  2  0  0  0  0  0  0
  189.9410  172.8930  135.9950 N   0  0  0  0  0  0  0  0  0  0  0  0
  189.4710  177.9970  142.2610 N   0  0  0  0  0  2  0  0  0  0  0  0
  188.8880  177.7580  140.9400 C   0  0  2  0  0  3  0  0  0  0  0  0
  186.6230  178.4230  141.8200 C   0  0  0  0  0  3  0  0  0  0  0  0
  187.6410  176.2670  138.2990 C   0  0  0  0  0  2  0  0  0  0  0  0
  185.2250  178.7850  137.9700 O   0  0  0  0  0  0  0  0  0  0  0  0
  184.1530  178.2420  143.6060 O   0  0  0  0  0  0  0  0  0  0  0  0
  187.0780  178.4030  139.3720 N   0  0  0  0  0  0  0  0  0  0  0  0
  185.3490  178.7130  141.5650 C   0  0  0  0  0  0  0  0  0  0  0  0
  190.3730  172.5140  134.6580 C   0  0  0  0  0  2  0  0  0  0  0  0
  191.8750  172.2590  134.6380 C   0  0  0  0  0  2  0  0  0  0  0  0
  193.1870  170.4170  135.6920 C   0  0  0  0  0  1  0  0  0  0  0  0
  192.1810  170.7700  134.6120 C   0  0  0  0  0  2  0  0  0  0  0  0
  2 24  1  1  0  0  0
  2 12  1  0  0  0  0
  2 27  1  0  0  0  0
  3  4  1  0  0  0  0
  5 27  1  0  0  0  0
  5  6  1  0  0  0  0
  6 18  1  0  0  0  0
  6 28  1  0  0  0  0
  7 19  1  1  0  0  0
  7 17  1  0  0  0  0
  7 24  1  0  0  0  0
  8 17  1  0  0  0  0
  9 26  2  0  0  0  0
 10  1  1  0  0  0  0
 11  3  1  0  0  0  0
 12  8  1  6  0  0  0
 12 13  1  0  0  0  0
 13 11  1  6  0  0  0
 13 22  1  0  0  0  0
 14 22  1  0  0  0  0
 14 23  1  1  0  0  0
 15  9  1  0  0  0  0
 16 20  1  0  0  0  0
 16 19  1  0  0  0  0
 17 10  1  6  0  0  0
 18 15  2  0  0  0  0
 20  1  1  0  0  0  0
 21  4  1  0  0  0  0
 22 21  1  1  0  0  0
 25  5  2  0  0  0  0
 27 14  1  0  0  0  0
 28 23  2  0  0  0  0
 28  9  1  0  0  0  0
 29 20  1  0  0  0  0
 30 29  1  0  0  0  0
 32 30  1  0  0  0  0
 32 31  1  0  0  0  0
M  END
>  <MODEL>
7

>  <REMARK>
 VINA RESULT:      -6.2      3.791      8.901
  Name = 
  3 active torsions:
  status: ('A' for Active; 'I' for Inactive)
    1  A    between atoms: C_1  and  C_10
    2  A    between atoms: C_1  and  C_20
    3  A    between atoms: C_10  and  N_24
                            x       y       z     vdW  Elec       q    Type
                         _______ _______ _______ _____ _____    ______ ____

>  <TORSDO>
F 3

$$$$
=
 OpenBabel10262421233D

 32 37  0  0  1  0  0  0  0  0999 V2000
  179.2930  182.5190  138.9110 C   0  0  0  0  0  2  0  0  0  0  0  0
  183.2770  178.9370  139.0510 C   0  0  1  0  0  3  0  0  0  0  0  0
  181.0010  178.9320  143.4850 C   0  0  0  0  0  2  0  0  0  0  0  0
  182.4040  179.2940  143.9750 C   0  0  0  0  0  2  0  0  0  0  0  0
  185.6860  178.2420  138.9110 C   0  0  0  0  0  0  0  0  0  0  0  0
  186.9150  178.0840  139.6130 N   0  0  0  0  0  0  0  0  0  0  0  0
  182.0630  181.0250  138.3720 C   0  0  1  0  0  3  0  0  0  0  0  0
  180.7410  179.0100  139.0910 C   0  0  0  0  0  2  0  0  0  0  0  0
  188.3350  178.6140  141.3080 C   0  0  0  0  0  0  0  0  0  0  0  0
  179.5240  181.0760  138.4580 C   0  0  0  0  0  2  0  0  0  0  0  0
  180.9080  179.1360  141.9760 C   0  0  0  0  0  2  0  0  0  0  0  0
  181.9990  178.4010  139.7230 C   0  0  2  0  0  3  0  0  0  0  0  0
  182.0340  178.3710  141.2760 C   0  0  1  0  0  3  0  0  0  0  0  0
  184.5250  178.0970  141.1370 C   0  0  2  0  0  3  0  0  0  0  0  0
  189.0860  178.6070  140.0970 N   0  0  0  0  0  0  0  0  0  0  0  0
  181.1410  183.1090  137.3740 C   0  0  0  0  0  2  0  0  0  0  0  0
  180.7970  180.5370  139.0990 C   0  0  2  0  0  3  0  0  0  0  0  0
  188.2460  178.3200  139.1410 C   0  0  0  0  0  3  0  0  0  0  0  0
  182.1630  182.5450  138.3500 C   0  0  0  0  0  2  0  0  0  0  0  0
  179.9120  183.5410  138.0510 N   0  0  0  0  0  0  0  0  0  0  0  0
  183.4030  178.4640  143.3010 N   0  0  0  0  0  2  0  0  0  0  0  0
  183.3840  178.7930  141.8750 C   0  0  2  0  0  3  0  0  0  0  0  0
  185.8720  178.4160  141.7560 C   0  0  0  0  0  3  0  0  0  0  0  0
  183.3050  180.4650  139.0560 C   0  0  0  0  0  2  0  0  0  0  0  0
  185.6630  178.2860  137.6510 O   0  0  0  0  0  0  0  0  0  0  0  0
  188.8090  178.8930  142.4410 O   0  0  0  0  0  0  0  0  0  0  0  0
  184.4870  178.4070  139.6870 N   0  0  0  0  0  0  0  0  0  0  0  0
  186.9650  178.2970  141.0060 C   0  0  0  0  0  0  0  0  0  0  0  0
  178.9460  183.8790  137.0160 C   0  0  0  0  0  2  0  0  0  0  0  0
  179.6350  183.9900  135.6620 C   0  0  0  0  0  2  0  0  0  0  0  0
  179.4930  181.7330  134.6070 C   0  0  0  0  0  1  0  0  0  0  0  0
  178.9310  183.1430  134.6140 C   0  0  0  0  0  2  0  0  0  0  0  0
  2 24  1  1  0  0  0
  2 27  1  0  0  0  0
  2 12  1  0  0  0  0
  3  4  1  0  0  0  0
  5  6  1  0  0  0  0
  5 27  1  0  0  0  0
  6 28  1  0  0  0  0
  7 19  1  1  0  0  0
  7 24  1  0  0  0  0
  7 17  1  0  0  0  0
  8 17  1  0  0  0  0
  9 26  2  0  0  0  0
 10  1  1  0  0  0  0
 11  3  1  0  0  0  0
 12  8  1  1  0  0  0
 12 13  1  0  0  0  0
 13 22  1  0  0  0  0
 13 11  1  1  0  0  0
 14 23  1  1  0  0  0
 14 22  1  0  0  0  0
 15  9  1  0  0  0  0
 16 20  1  0  0  0  0
 16 19  1  0  0  0  0
 17 10  1  6  0  0  0
 18  6  1  0  0  0  0
 18 15  2  0  0  0  0
 20  1  1  0  0  0  0
 21  4  1  0  0  0  0
 22 21  1  1  0  0  0
 25  5  2  0  0  0  0
 27 14  1  0  0  0  0
 28  9  1  0  0  0  0
 28 23  2  0  0  0  0
 29 20  1  0  0  0  0
 30 29  1  0  0  0  0
 31 32  1  0  0  0  0
 32 30  1  0  0  0  0
M  END
>  <MODEL>
8

>  <REMARK>
 VINA RESULT:      -6.1      6.797      9.949
  Name = 
  3 active torsions:
  status: ('A' for Active; 'I' for Inactive)
    1  A    between atoms: C_1  and  C_10
    2  A    between atoms: C_1  and  C_20
    3  A    between atoms: C_10  and  N_24
                            x       y       z     vdW  Elec       q    Type
                         _______ _______ _______ _____ _____    ______ ____

>  <TORSDO>
F 3

$$$$
=
 OpenBabel10262421233D

 32 37  0  0  1  0  0  0  0  0999 V2000
  188.1010  177.7080  144.0260 C   0  0  0  0  0  2  0  0  0  0  0  0
  190.4340  177.3660  139.2130 C   0  0  1  0  0  3  0  0  0  0  0  0
  185.5370  178.0160  138.5460 C   0  0  0  0  0  2  0  0  0  0  0  0
  185.6720  176.6880  137.7990 C   0  0  0  0  0  2  0  0  0  0  0  0
  191.7670  176.1970  137.4350 C   0  0  0  0  0  0  0  0  0  0  0  0
  191.7340  175.3030  136.3270 N   0  0  0  0  0  0  0  0  0  0  0  0
  190.0940  176.9200  141.6590 C   0  0  1  0  0  3  0  0  0  0  0  0
  189.2460  179.0720  140.6700 C   0  0  0  0  0  2  0  0  0  0  0  0
  190.7920  173.5930  135.1610 C   0  0  0  0  0  0  0  0  0  0  0  0
  188.8690  178.6330  143.0810 C   0  0  0  0  0  2  0  0  0  0  0  0
  186.7760  178.2600  139.4020 C   0  0  0  0  0  2  0  0  0  0  0  0
  189.3720  178.4810  139.2590 C   0  0  2  0  0  3  0  0  0  0  0  0
  188.0370  178.1500  138.5390 C   0  0  1  0  0  3  0  0  0  0  0  0
  189.3280  176.6350  137.0100 C   0  0  2  0  0  3  0  0  0  0  0  0
  192.1890  173.3320  135.2660 N   0  0  0  0  0  0  0  0  0  0  0  0
  190.1650  176.3420  144.0770 C   0  0  0  0  0  2  0  0  0  0  0  0
  188.9810  177.9830  141.7080 C   0  0  2  0  0  3  0  0  0  0  0  0
  192.7010  174.3140  135.9530 C   0  0  0  0  0  3  0  0  0  0  0  0
  189.8750  175.8110  142.6800 C   0  0  0  0  0  2  0  0  0  0  0  0
  188.9410  176.7570  144.7740 N   0  0  0  0  0  0  0  0  0  0  0  0
  186.8640  176.7060  136.9510 N   0  0  0  0  0  2  0  0  0  0  0  0
  188.0400  176.7950  137.8160 C   0  0  2  0  0  3  0  0  0  0  0  0
  189.3320  175.3480  136.2080 C   0  0  0  0  0  3  0  0  0  0  0  0
  190.1580  176.2960  140.2700 C   0  0  0  0  0  2  0  0  0  0  0  0
  192.8500  176.4490  138.0300 O   0  0  0  0  0  0  0  0  0  0  0  0
  189.9630  172.8320  134.5960 O   0  0  0  0  0  0  0  0  0  0  0  0
  190.5190  176.7540  137.8840 N   0  0  0  0  0  0  0  0  0  0  0  0
  190.5000  174.8280  135.8390 C   0  0  0  0  0  0  0  0  0  0  0  0
  189.3490  177.4160  146.0060 C   0  0  0  0  0  2  0  0  0  0  0  0
  188.3890  177.0690  147.1370 C   0  0  0  0  0  2  0  0  0  0  0  0
  186.3460  178.4230  147.6040 C   0  0  0  0  0  1  0  0  0  0  0  0
  187.8470  178.3240  147.8030 C   0  0  0  0  0  2  0  0  0  0  0  0
  1 20  1  0  0  0  0
  2 12  1  0  0  0  0
  2 24  1  1  0  0  0
  3 11  1  0  0  0  0
  4  3  1  0  0  0  0
  5 27  1  0  0  0  0
  5 25  2  0  0  0  0
  6  5  1  0  0  0  0
  7 24  1  6  0  0  0
  7 17  1  0  0  0  0
  7 19  1  0  0  0  0
  9 15  1  0  0  0  0
  9 28  1  0  0  0  0
 10  1  1  0  0  0  0
 12  8  1  1  0  0  0
 13 12  1  0  0  0  0
 13 11  1  1  0  0  0
 14 23  1  1  0  0  0
 14 22  1  0  0  0  0
 14 27  1  0  0  0  0
 15 18  2  0  0  0  0
 16 20  1  0  0  0  0
 17  8  1  6  0  0  0
 17 10  1  0  0  0  0
 18  6  1  0  0  0  0
 19 16  1  0  0  0  0
 20 29  1  0  0  0  0
 21  4  1  0  0  0  0
 22 21  1  6  0  0  0
 22 13  1  0  0  0  0
 26  9  2  0  0  0  0
 27  2  1  0  0  0  0
 28 23  2  0  0  0  0
 28  6  1  0  0  0  0
 29 30  1  0  0  0  0
 30 32  1  0  0  0  0
 31 32  1  0  0  0  0
M  END
>  <MODEL>
9

>  <REMARK>
 VINA RESULT:      -5.9      1.740      2.140
  Name = 
  3 active torsions:
  status: ('A' for Active; 'I' for Inactive)
    1  A    between atoms: C_1  and  C_10
    2  A    between atoms: C_1  and  C_20
    3  A    between atoms: C_10  and  N_24
                            x       y       z     vdW  Elec       q    Type
                         _______ _______ _______ _____ _____    ______ ____

>  <TORSDO>
F 3

$$$$
