=
 OpenBabel10262420113D

 27 31  0  0  0  0  0  0  0  0999 V2000
  184.9260  178.5590  144.8400 N   0  0  0  0  0  0  0  0  0  0  0  0
  186.1530  178.3180  142.7300 C   0  0  0  0  0  0  0  0  0  0  0  0
  187.3120  176.9070  144.3760 O   0  0  0  0  0  0  0  0  0  0  0  0
  189.3630  177.8170  140.0850 C   0  0  0  0  0  3  0  0  0  0  0  0
  191.5270  176.8340  139.5240 N   0  0  0  0  0  1  0  0  0  0  0  0
  186.1880  178.9320  141.5120 N   0  0  0  0  0  0  0  0  0  0  0  0
  190.4650  176.3540  141.6700 C   0  0  0  0  0  3  0  0  0  0  0  0
  188.8290  177.8890  148.8230 O   0  0  0  0  0  1  0  0  0  0  0  0
  189.4040  176.5170  142.5650 C   0  0  0  0  0  3  0  0  0  0  0  0
  187.8950  178.0780  147.8140 C   0  0  0  0  0  0  0  0  0  0  0  0
  188.3100  177.3290  142.2270 C   0  0  0  0  0  0  0  0  0  0  0  0
  184.9140  178.4470  143.5430 C   0  0  0  0  0  0  0  0  0  0  0  0
  190.4440  177.0020  140.4320 C   0  0  0  0  0  0  0  0  0  0  0  0
  188.3000  177.9810  140.9770 C   0  0  0  0  0  0  0  0  0  0  0  0
  186.0140  178.4630  145.7640 C   0  0  0  0  0  0  0  0  0  0  0  0
  187.2450  177.5170  143.1240 C   0  0  0  0  0  0  0  0  0  0  0  0
  188.0350  177.4060  146.5980 C   0  0  0  0  0  3  0  0  0  0  0  0
  187.2230  178.7930  140.6450 C   0  0  0  0  0  3  0  0  0  0  0  0
  186.8140  178.9360  148.0120 C   0  0  0  0  0  3  0  0  0  0  0  0
  185.8720  179.1130  146.9970 C   0  0  0  0  0  3  0  0  0  0  0  0
  187.1090  177.5980  145.5660 C   0  0  0  0  0  0  0  0  0  0  0  0
  181.0820  178.7040  141.6120 C   0  0  0  0  0  3  0  0  0  0  0  0
  183.5960  178.5520  142.8640 C   0  0  0  0  0  0  0  0  0  0  0  0
  183.4390  178.1600  141.5230 C   0  0  0  0  0  3  0  0  0  0  0  0
  182.1900  178.2390  140.9000 C   0  0  0  0  0  3  0  0  0  0  0  0
  181.2220  179.0880  142.9470 C   0  0  0  0  0  3  0  0  0  0  0  0
  182.4710  179.0080  143.5700 C   0  0  0  0  0  3  0  0  0  0  0  0
  1 15  1  0  0  0  0
  2 16  1  0  0  0  0
  2 12  1  0  0  0  0
  3 21  1  0  0  0  0
  4 13  2  0  0  0  0
  4 14  1  0  0  0  0
  5 13  1  0  0  0  0
  6  2  2  0  0  0  0
  7  9  2  0  0  0  0
 10 19  1  0  0  0  0
 10  8  1  0  0  0  0
 11  9  1  0  0  0  0
 11 16  2  0  0  0  0
 12  1  2  0  0  0  0
 13  7  1  0  0  0  0
 14 11  1  0  0  0  0
 15 20  1  0  0  0  0
 16  3  1  0  0  0  0
 17 10  2  0  0  0  0
 18 14  2  0  0  0  0
 18  6  1  0  0  0  0
 20 19  2  0  0  0  0
 21 15  2  0  0  0  0
 21 17  1  0  0  0  0
 22 26  1  0  0  0  0
 23 12  1  0  0  0  0
 23 27  1  0  0  0  0
 24 23  2  0  0  0  0
 25 24  1  0  0  0  0
 25 22  2  0  0  0  0
 26 27  2  0  0  0  0
M  END
>  <MODEL>
1

>  <REMARK>
 VINA RESULT:     -10.3      0.000      0.000
  Name = 
  1 active torsions:
  status: ('A' for Active; 'I' for Inactive)
    1  A    between atoms: C_9  and  C_15
                            x       y       z     vdW  Elec       q    Type
                         _______ _______ _______ _____ _____    ______ ____

>  <TORSDO>
F 1

$$$$
=
 OpenBabel10262420113D

 27 31  0  0  0  0  0  0  0  0999 V2000
  185.8120  178.2440  144.0480 N   0  0  0  0  0  0  0  0  0  0  0  0
  187.9260  177.4950  143.0550 C   0  0  0  0  0  0  0  0  0  0  0  0
  186.9360  179.0900  141.4680 O   0  0  0  0  0  0  0  0  0  0  0  0
  190.7240  176.3780  140.1440 C   0  0  0  0  0  3  0  0  0  0  0  0
  191.6930  176.6250  137.9170 N   0  0  0  0  0  1  0  0  0  0  0  0
  188.8510  176.5180  143.2800 N   0  0  0  0  0  0  0  0  0  0  0  0
  189.8060  178.0120  138.6100 C   0  0  0  0  0  3  0  0  0  0  0  0
  182.5020  179.3470  139.6460 O   0  0  0  0  0  1  0  0  0  0  0  0
  188.8630  178.3910  139.5690 C   0  0  0  0  0  3  0  0  0  0  0  0
  183.3380  179.0390  140.7110 C   0  0  0  0  0  0  0  0  0  0  0  0
  188.8440  177.7690  140.8270 C   0  0  0  0  0  0  0  0  0  0  0  0
  187.0640  177.9160  144.1920 C   0  0  0  0  0  0  0  0  0  0  0  0
  190.7360  177.0080  138.8960 C   0  0  0  0  0  0  0  0  0  0  0  0
  189.7830  176.7550  141.1060 C   0  0  0  0  0  0  0  0  0  0  0  0
  185.0320  178.4060  142.8590 C   0  0  0  0  0  0  0  0  0  0  0  0
  187.8900  178.1270  141.7940 C   0  0  0  0  0  0  0  0  0  0  0  0
  184.7170  179.2190  140.5930 C   0  0  0  0  0  3  0  0  0  0  0  0
  189.7580  176.1320  142.3480 C   0  0  0  0  0  3  0  0  0  0  0  0
  182.8000  178.5520  141.9030 C   0  0  0  0  0  3  0  0  0  0  0  0
  183.6450  178.2530  142.9740 C   0  0  0  0  0  3  0  0  0  0  0  0
  185.5720  178.8970  141.6540 C   0  0  0  0  0  0  0  0  0  0  0  0
  188.6180  177.8660  148.2000 C   0  0  0  0  0  3  0  0  0  0  0  0
  187.6010  177.8780  145.5770 C   0  0  0  0  0  0  0  0  0  0  0  0
  188.9350  177.5090  145.8270 C   0  0  0  0  0  3  0  0  0  0  0  0
  189.4390  177.4990  147.1310 C   0  0  0  0  0  3  0  0  0  0  0  0
  187.2940  178.2430  147.9650 C   0  0  0  0  0  3  0  0  0  0  0  0
  186.7900  178.2530  146.6610 C   0  0  0  0  0  3  0  0  0  0  0  0
  1 12  2  0  0  0  0
  2  6  1  0  0  0  0
  2 12  1  0  0  0  0
  3 21  1  0  0  0  0
  3 16  1  0  0  0  0
  4 14  1  0  0  0  0
  5 13  1  0  0  0  0
  7 13  1  0  0  0  0
  7  9  2  0  0  0  0
  8 10  1  0  0  0  0
  9 11  1  0  0  0  0
 10 19  1  0  0  0  0
 11 14  2  0  0  0  0
 11 16  1  0  0  0  0
 12 23  1  0  0  0  0
 13  4  2  0  0  0  0
 14 18  1  0  0  0  0
 15 20  1  0  0  0  0
 15  1  1  0  0  0  0
 16  2  2  0  0  0  0
 17 10  2  0  0  0  0
 17 21  1  0  0  0  0
 18  6  2  0  0  0  0
 19 20  2  0  0  0  0
 21 15  2  0  0  0  0
 23 24  2  0  0  0  0
 23 27  1  0  0  0  0
 24 25  1  0  0  0  0
 25 22  2  0  0  0  0
 26 22  1  0  0  0  0
 27 26  2  0  0  0  0
M  END
>  <MODEL>
2

>  <REMARK>
 VINA RESULT:     -10.1      2.021      5.478
  Name = 
  1 active torsions:
  status: ('A' for Active; 'I' for Inactive)
    1  A    between atoms: C_9  and  C_15
                            x       y       z     vdW  Elec       q    Type
                         _______ _______ _______ _____ _____    ______ ____

>  <TORSDO>
F 1

$$$$
=
 OpenBabel10262420113D

 27 31  0  0  0  0  0  0  0  0999 V2000
  187.2640  178.2530  141.5520 N   0  0  0  0  0  0  0  0  0  0  0  0
  189.3380  177.7920  142.7760 C   0  0  0  0  0  0  0  0  0  0  0  0
  187.5010  176.9510  144.1760 O   0  0  0  0  0  0  0  0  0  0  0  0
  191.9770  177.2940  145.9930 C   0  0  0  0  0  3  0  0  0  0  0  0
  192.4300  176.5820  148.2840 N   0  0  0  0  0  1  0  0  0  0  0  0
  190.6540  178.1440  142.6930 N   0  0  0  0  0  0  0  0  0  0  0  0
  190.1860  176.3810  147.3440 C   0  0  0  0  0  3  0  0  0  0  0  0
  183.4100  179.0460  145.5590 O   0  0  0  0  0  1  0  0  0  0  0  0
  189.2930  176.5470  146.2810 C   0  0  0  0  0  3  0  0  0  0  0  0
  184.3930  178.8720  144.5950 C   0  0  0  0  0  0  0  0  0  0  0  0
  189.7350  177.0850  145.0630 C   0  0  0  0  0  0  0  0  0  0  0  0
  188.5120  177.8800  141.5430 C   0  0  0  0  0  0  0  0  0  0  0  0
  191.5250  176.7530  147.2000 C   0  0  0  0  0  0  0  0  0  0  0  0
  191.0870  177.4600  144.9280 C   0  0  0  0  0  0  0  0  0  0  0  0
  186.3900  178.5240  142.6510 C   0  0  0  0  0  0  0  0  0  0  0  0
  188.8440  177.2750  143.9920 C   0  0  0  0  0  0  0  0  0  0  0  0
  185.4570  178.0000  144.8310 C   0  0  0  0  0  3  0  0  0  0  0  0
  191.5230  178.0020  143.7250 C   0  0  0  0  0  3  0  0  0  0  0  0
  184.3190  179.5650  143.3870 C   0  0  0  0  0  3  0  0  0  0  0  0
  185.3050  179.3780  142.4170 C   0  0  0  0  0  3  0  0  0  0  0  0
  186.4630  177.8260  143.8730 C   0  0  0  0  0  0  0  0  0  0  0  0
  190.2700  177.1280  137.6930 C   0  0  0  0  0  3  0  0  0  0  0  0
  189.1370  177.6290  140.2180 C   0  0  0  0  0  0  0  0  0  0  0  0
  190.1540  176.6700  140.0660 C   0  0  0  0  0  3  0  0  0  0  0  0
  190.7190  176.4240  138.8120 C   0  0  0  0  0  3  0  0  0  0  0  0
  189.2540  178.0770  137.8270 C   0  0  0  0  0  3  0  0  0  0  0  0
  188.6890  178.3230  139.0820 C   0  0  0  0  0  3  0  0  0  0  0  0
  1 15  1  0  0  0  0
  2 16  1  0  0  0  0
  4 13  2  0  0  0  0
  6  2  2  0  0  0  0
  6 18  1  0  0  0  0
  9  7  2  0  0  0  0
 10 17  1  0  0  0  0
 10  8  1  0  0  0  0
 11  9  1  0  0  0  0
 12  1  2  0  0  0  0
 12  2  1  0  0  0  0
 13  7  1  0  0  0  0
 13  5  1  0  0  0  0
 14 11  1  0  0  0  0
 14  4  1  0  0  0  0
 15 21  1  0  0  0  0
 16  3  1  0  0  0  0
 16 11  2  0  0  0  0
 18 14  2  0  0  0  0
 19 10  2  0  0  0  0
 20 15  2  0  0  0  0
 20 19  1  0  0  0  0
 21  3  1  0  0  0  0
 21 17  2  0  0  0  0
 22 26  2  0  0  0  0
 22 25  1  0  0  0  0
 23 12  1  0  0  0  0
 24 23  1  0  0  0  0
 25 24  2  0  0  0  0
 26 27  1  0  0  0  0
 27 23  2  0  0  0  0
M  END
>  <MODEL>
3

>  <REMARK>
 VINA RESULT:     -10.1      2.707      5.785
  Name = 
  1 active torsions:
  status: ('A' for Active; 'I' for Inactive)
    1  A    between atoms: C_9  and  C_15
                            x       y       z     vdW  Elec       q    Type
                         _______ _______ _______ _____ _____    ______ ____

>  <TORSDO>
F 1

$$$$
=
 OpenBabel10262420113D

 27 31  0  0  0  0  0  0  0  0999 V2000
  187.2690  177.8890  145.1680 N   0  0  0  0  0  0  0  0  0  0  0  0
  187.4990  178.0980  142.7350 C   0  0  0  0  0  0  0  0  0  0  0  0
  189.0690  176.3420  143.4350 O   0  0  0  0  0  0  0  0  0  0  0  0
  189.2830  178.1400  138.9440 C   0  0  0  0  0  3  0  0  0  0  0  0
  190.9140  177.2690  137.3490 N   0  0  0  0  0  1  0  0  0  0  0  0
  187.1010  178.9640  141.7590 N   0  0  0  0  0  0  0  0  0  0  0  0
  190.7710  176.3460  139.6050 C   0  0  0  0  0  3  0  0  0  0  0  0
  192.3580  176.2970  146.9320 O   0  0  0  0  0  1  0  0  0  0  0  0
  190.1900  176.3260  140.8760 C   0  0  0  0  0  3  0  0  0  0  0  0
  191.1200  176.7180  146.4650 C   0  0  0  0  0  0  0  0  0  0  0  0
  189.1460  177.2090  141.1920 C   0  0  0  0  0  0  0  0  0  0  0  0
  186.7190  178.0650  144.0010 C   0  0  0  0  0  0  0  0  0  0  0  0
  190.3190  177.2510  138.6410 C   0  0  0  0  0  0  0  0  0  0  0  0
  188.6980  178.1200  140.2130 C   0  0  0  0  0  0  0  0  0  0  0  0
  188.6220  177.5750  145.5120 C   0  0  0  0  0  0  0  0  0  0  0  0
  188.5650  177.2120  142.4710 C   0  0  0  0  0  0  0  0  0  0  0  0
  190.6810  176.3280  145.1980 C   0  0  0  0  0  3  0  0  0  0  0  0
  187.6730  179.0030  140.5280 C   0  0  0  0  0  3  0  0  0  0  0  0
  190.3110  177.5290  147.2610 C   0  0  0  0  0  3  0  0  0  0  0  0
  189.0630  177.9400  146.7900 C   0  0  0  0  0  3  0  0  0  0  0  0
  189.4420  176.7570  144.7090 C   0  0  0  0  0  0  0  0  0  0  0  0
  182.5050  178.9050  143.8870 C   0  0  0  0  0  3  0  0  0  0  0  0
  185.2580  178.3380  143.9720 C   0  0  0  0  0  0  0  0  0  0  0  0
  184.5700  178.7250  145.1350 C   0  0  0  0  0  3  0  0  0  0  0  0
  183.2010  179.0030  145.0940 C   0  0  0  0  0  3  0  0  0  0  0  0
  183.1770  178.5310  142.7210 C   0  0  0  0  0  3  0  0  0  0  0  0
  184.5460  178.2530  142.7640 C   0  0  0  0  0  3  0  0  0  0  0  0
  1 15  1  0  0  0  0
  2 12  1  0  0  0  0
  3 21  1  0  0  0  0
  4 14  1  0  0  0  0
  5 13  1  0  0  0  0
  6  2  2  0  0  0  0
  7  9  2  0  0  0  0
  9 11  1  0  0  0  0
 10  8  1  0  0  0  0
 10 19  1  0  0  0  0
 11 16  2  0  0  0  0
 12  1  2  0  0  0  0
 13  4  2  0  0  0  0
 13  7  1  0  0  0  0
 14 18  2  0  0  0  0
 14 11  1  0  0  0  0
 15 20  1  0  0  0  0
 16  2  1  0  0  0  0
 16  3  1  0  0  0  0
 17 10  2  0  0  0  0
 18  6  1  0  0  0  0
 20 19  2  0  0  0  0
 21 17  1  0  0  0  0
 21 15  2  0  0  0  0
 22 25  1  0  0  0  0
 23 12  1  0  0  0  0
 23 24  1  0  0  0  0
 25 24  2  0  0  0  0
 26 27  1  0  0  0  0
 26 22  2  0  0  0  0
 27 23  2  0  0  0  0
M  END
>  <MODEL>
4

>  <REMARK>
 VINA RESULT:      -9.3      1.770      2.569
  Name = 
  1 active torsions:
  status: ('A' for Active; 'I' for Inactive)
    1  A    between atoms: C_9  and  C_15
                            x       y       z     vdW  Elec       q    Type
                         _______ _______ _______ _____ _____    ______ ____

>  <TORSDO>
F 1

$$$$
=
 OpenBabel10262420113D

 27 31  0  0  0  0  0  0  0  0999 V2000
  185.6700  178.4430  140.6610 N   0  0  0  0  0  0  0  0  0  0  0  0
  186.7500  177.8930  142.7930 C   0  0  0  0  0  0  0  0  0  0  0  0
  188.4610  178.9830  141.4050 O   0  0  0  0  0  0  0  0  0  0  0  0
  189.7260  176.7540  145.5140 C   0  0  0  0  0  3  0  0  0  0  0  0
  192.0550  176.7530  146.2440 N   0  0  0  0  0  1  0  0  0  0  0  0
  186.4700  177.1420  143.8980 N   0  0  0  0  0  0  0  0  0  0  0  0
  191.3990  177.9050  144.1930 C   0  0  0  0  0  3  0  0  0  0  0  0
  189.8050  178.1560  136.8720 O   0  0  0  0  0  1  0  0  0  0  0  0
  190.4180  178.2860  143.2740 C   0  0  0  0  0  3  0  0  0  0  0  0
  188.8010  178.1910  137.8300 C   0  0  0  0  0  0  0  0  0  0  0  0
  189.0800  177.9090  143.4680 C   0  0  0  0  0  0  0  0  0  0  0  0
  185.6110  178.3620  141.9600 C   0  0  0  0  0  0  0  0  0  0  0  0
  191.0540  177.1400  145.3120 C   0  0  0  0  0  0  0  0  0  0  0  0
  188.7420  177.1360  144.5980 C   0  0  0  0  0  0  0  0  0  0  0  0
  186.7760  178.2530  139.7740 C   0  0  0  0  0  0  0  0  0  0  0  0
  188.0860  178.2700  142.5430 C   0  0  0  0  0  0  0  0  0  0  0  0
  189.0970  178.5760  139.1390 C   0  0  0  0  0  3  0  0  0  0  0  0
  187.4200  176.7530  144.7850 C   0  0  0  0  0  3  0  0  0  0  0  0
  187.4950  177.8440  137.4870 C   0  0  0  0  0  3  0  0  0  0  0  0
  186.4880  177.8910  138.4530 C   0  0  0  0  0  3  0  0  0  0  0  0
  188.0970  178.6010  140.1190 C   0  0  0  0  0  0  0  0  0  0  0  0
  181.8380  179.1900  143.8450 C   0  0  0  0  0  3  0  0  0  0  0  0
  184.3050  178.6660  142.6020 C   0  0  0  0  0  0  0  0  0  0  0  0
  183.1090  178.6280  141.8640 C   0  0  0  0  0  3  0  0  0  0  0  0
  181.8830  178.8920  142.4820 C   0  0  0  0  0  3  0  0  0  0  0  0
  183.0170  179.2230  144.5920 C   0  0  0  0  0  3  0  0  0  0  0  0
  184.2430  178.9580  143.9740 C   0  0  0  0  0  3  0  0  0  0  0  0
  1 12  2  0  0  0  0
  2  6  1  0  0  0  0
  3 16  1  0  0  0  0
  6 18  2  0  0  0  0
  7 13  2  0  0  0  0
  8 10  1  0  0  0  0
  9 11  2  0  0  0  0
  9  7  1  0  0  0  0
 10 17  1  0  0  0  0
 11 14  1  0  0  0  0
 12 23  1  0  0  0  0
 12  2  1  0  0  0  0
 13  4  1  0  0  0  0
 13  5  1  0  0  0  0
 14 18  1  0  0  0  0
 14  4  2  0  0  0  0
 15 21  1  0  0  0  0
 15  1  1  0  0  0  0
 16  2  2  0  0  0  0
 16 11  1  0  0  0  0
 17 21  2  0  0  0  0
 19 10  2  0  0  0  0
 19 20  1  0  0  0  0
 20 15  2  0  0  0  0
 21  3  1  0  0  0  0
 22 26  1  0  0  0  0
 23 27  1  0  0  0  0
 24 25  1  0  0  0  0
 24 23  2  0  0  0  0
 25 22  2  0  0  0  0
 27 26  2  0  0  0  0
M  END
>  <MODEL>
5

>  <REMARK>
 VINA RESULT:      -9.1      2.717      5.362
  Name = 
  1 active torsions:
  status: ('A' for Active; 'I' for Inactive)
    1  A    between atoms: C_9  and  C_15
                            x       y       z     vdW  Elec       q    Type
                         _______ _______ _______ _____ _____    ______ ____

>  <TORSDO>
F 1

$$$$
=
 OpenBabel10262420113D

 27 31  0  0  0  0  0  0  0  0999 V2000
  187.2410  178.1360  142.8330 N   0  0  0  0  0  0  0  0  0  0  0  0
  188.8330  177.4890  141.0840 C   0  0  0  0  0  0  0  0  0  0  0  0
  187.2130  179.0060  140.0260 O   0  0  0  0  0  0  0  0  0  0  0  0
  190.3190  176.4840  137.2980 C   0  0  0  0  0  3  0  0  0  0  0  0
  190.3210  176.7530  134.8710 N   0  0  0  0  0  1  0  0  0  0  0  0
  189.8240  176.5660  140.9180 N   0  0  0  0  0  0  0  0  0  0  0  0
  188.7850  178.0450  136.2610 C   0  0  0  0  0  3  0  0  0  0  0  0
  182.4130  178.9990  140.0950 O   0  0  0  0  0  1  0  0  0  0  0  0
  188.2750  178.3860  137.5170 C   0  0  0  0  0  3  0  0  0  0  0  0
  183.6150  178.7510  140.7440 C   0  0  0  0  0  0  0  0  0  0  0  0
  188.7850  177.7810  138.6760 C   0  0  0  0  0  0  0  0  0  0  0  0
  188.4650  177.8780  142.4710 C   0  0  0  0  0  0  0  0  0  0  0  0
  189.8060  177.0970  136.1510 C   0  0  0  0  0  0  0  0  0  0  0  0
  189.8130  176.8230  138.5550 C   0  0  0  0  0  0  0  0  0  0  0  0
  186.0490  178.2400  142.0490 C   0  0  0  0  0  0  0  0  0  0  0  0
  188.2700  178.1000  139.9440 C   0  0  0  0  0  0  0  0  0  0  0  0
  184.8250  179.0030  140.0950 C   0  0  0  0  0  3  0  0  0  0  0  0
  190.3120  176.2170  139.7010 C   0  0  0  0  0  3  0  0  0  0  0  0
  183.6170  178.2520  142.0470 C   0  0  0  0  0  3  0  0  0  0  0  0
  184.8290  178.0130  142.6970 C   0  0  0  0  0  3  0  0  0  0  0  0
  186.0440  178.7430  140.7320 C   0  0  0  0  0  0  0  0  0  0  0  0
  191.5080  177.8740  145.5080 C   0  0  0  0  0  3  0  0  0  0  0  0
  189.5040  177.8880  143.5340 C   0  0  0  0  0  0  0  0  0  0  0  0
  189.3490  177.1300  144.7070 C   0  0  0  0  0  3  0  0  0  0  0  0
  190.3420  177.1260  145.6890 C   0  0  0  0  0  3  0  0  0  0  0  0
  191.6800  178.6240  144.3430 C   0  0  0  0  0  3  0  0  0  0  0  0
  190.6860  178.6280  143.3600 C   0  0  0  0  0  3  0  0  0  0  0  0
  2 12  1  0  0  0  0
  3 21  1  0  0  0  0
  4 14  1  0  0  0  0
  5 13  1  0  0  0  0
  6  2  1  0  0  0  0
  7  9  2  0  0  0  0
  8 10  1  0  0  0  0
  9 11  1  0  0  0  0
 10 19  1  0  0  0  0
 11 16  1  0  0  0  0
 12  1  2  0  0  0  0
 12 23  1  0  0  0  0
 13  7  1  0  0  0  0
 13  4  2  0  0  0  0
 14 11  2  0  0  0  0
 14 18  1  0  0  0  0
 15 20  1  0  0  0  0
 15  1  1  0  0  0  0
 16  3  1  0  0  0  0
 16  2  2  0  0  0  0
 17 21  1  0  0  0  0
 17 10  2  0  0  0  0
 18  6  2  0  0  0  0
 19 20  2  0  0  0  0
 21 15  2  0  0  0  0
 22 25  1  0  0  0  0
 23 24  1  0  0  0  0
 24 25  2  0  0  0  0
 26 22  2  0  0  0  0
 27 23  2  0  0  0  0
 27 26  1  0  0  0  0
M  END
>  <MODEL>
6

>  <REMARK>
 VINA RESULT:      -8.9      2.946      6.298
  Name = 
  1 active torsions:
  status: ('A' for Active; 'I' for Inactive)
    1  A    between atoms: C_9  and  C_15
                            x       y       z     vdW  Elec       q    Type
                         _______ _______ _______ _____ _____    ______ ____

>  <TORSDO>
F 1

$$$$
=
 OpenBabel10262420113D

 27 31  0  0  0  0  0  0  0  0999 V2000
  188.8020  177.5780  139.3440 N   0  0  0  0  0  0  0  0  0  0  0  0
  188.5070  177.4710  141.7770 C   0  0  0  0  0  0  0  0  0  0  0  0
  190.8530  178.0930  141.3850 O   0  0  0  0  0  0  0  0  0  0  0  0
  189.3900  176.8030  145.8180 C   0  0  0  0  0  3  0  0  0  0  0  0
  190.9640  176.8200  147.6840 N   0  0  0  0  0  1  0  0  0  0  0  0
  187.5680  177.0180  142.6560 N   0  0  0  0  0  0  0  0  0  0  0  0
  191.6800  177.5030  145.4510 C   0  0  0  0  0  3  0  0  0  0  0  0
  194.1680  176.1460  138.5100 O   0  0  0  0  0  1  0  0  0  0  0  0
  191.4020  177.7230  144.1000 C   0  0  0  0  0  3  0  0  0  0  0  0
  192.8390  176.4680  138.7500 C   0  0  0  0  0  0  0  0  0  0  0  0
  190.1140  177.4900  143.5950 C   0  0  0  0  0  0  0  0  0  0  0  0
  188.0680  177.8060  140.3960 C   0  0  0  0  0  0  0  0  0  0  0  0
  190.6760  177.0440  146.3090 C   0  0  0  0  0  0  0  0  0  0  0  0
  189.1080  177.0250  144.4670 C   0  0  0  0  0  0  0  0  0  0  0  0
  190.1520  177.1150  139.2440 C   0  0  0  0  0  0  0  0  0  0  0  0
  189.8240  177.6900  142.2340 C   0  0  0  0  0  0  0  0  0  0  0  0
  192.4810  177.1280  139.9280 C   0  0  0  0  0  3  0  0  0  0  0  0
  187.8350  176.7840  143.9660 C   0  0  0  0  0  3  0  0  0  0  0  0
  191.8600  176.1380  137.8140 C   0  0  0  0  0  3  0  0  0  0  0  0
  190.5260  176.4750  138.0560 C   0  0  0  0  0  3  0  0  0  0  0  0
  191.1430  177.4460  140.1890 C   0  0  0  0  0  0  0  0  0  0  0  0
  184.0850  179.2950  139.7680 C   0  0  0  0  0  3  0  0  0  0  0  0
  186.6990  178.3370  140.1680 C   0  0  0  0  0  0  0  0  0  0  0  0
  186.0900  178.2520  138.9030 C   0  0  0  0  0  3  0  0  0  0  0  0
  184.7930  178.7320  138.7040 C   0  0  0  0  0  3  0  0  0  0  0  0
  184.6730  179.3780  141.0320 C   0  0  0  0  0  3  0  0  0  0  0  0
  185.9710  178.8970  141.2300 C   0  0  0  0  0  3  0  0  0  0  0  0
  1 12  2  0  0  0  0
  2 16  2  0  0  0  0
  2  6  1  0  0  0  0
  3 16  1  0  0  0  0
  4 13  1  0  0  0  0
  6 18  2  0  0  0  0
  7 13  2  0  0  0  0
  8 10  1  0  0  0  0
  9  7  1  0  0  0  0
 10 17  1  0  0  0  0
 11  9  2  0  0  0  0
 11 14  1  0  0  0  0
 12  2  1  0  0  0  0
 13  5  1  0  0  0  0
 14  4  2  0  0  0  0
 15  1  1  0  0  0  0
 15 21  1  0  0  0  0
 16 11  1  0  0  0  0
 17 21  2  0  0  0  0
 18 14  1  0  0  0  0
 19 20  1  0  0  0  0
 19 10  2  0  0  0  0
 20 15  2  0  0  0  0
 21  3  1  0  0  0  0
 22 26  1  0  0  0  0
 23 12  1  0  0  0  0
 23 27  1  0  0  0  0
 24 23  2  0  0  0  0
 25 24  1  0  0  0  0
 25 22  2  0  0  0  0
 26 27  2  0  0  0  0
M  END
>  <MODEL>
7

>  <REMARK>
 VINA RESULT:      -8.3      3.139      6.261
  Name = 
  1 active torsions:
  status: ('A' for Active; 'I' for Inactive)
    1  A    between atoms: C_9  and  C_15
                            x       y       z     vdW  Elec       q    Type
                         _______ _______ _______ _____ _____    ______ ____

>  <TORSDO>
F 1

$$$$
=
 OpenBabel10262420113D

 27 31  0  0  0  0  0  0  0  0999 V2000
  184.6080  178.8790  138.2960 N   0  0  0  0  0  0  0  0  0  0  0  0
  183.7030  179.0260  140.5710 C   0  0  0  0  0  0  0  0  0  0  0  0
  186.1400  179.2700  140.7730 O   0  0  0  0  0  0  0  0  0  0  0  0
  183.4310  178.5940  144.7290 C   0  0  0  0  0  3  0  0  0  0  0  0
  184.4710  178.5470  146.9370 N   0  0  0  0  0  1  0  0  0  0  0  0
  182.5130  178.7910  141.1960 N   0  0  0  0  0  0  0  0  0  0  0  0
  185.8210  178.9230  144.9380 C   0  0  0  0  0  3  0  0  0  0  0  0
  189.7100  176.6260  138.9540 O   0  0  0  0  0  1  0  0  0  0  0  0
  185.9280  179.0630  143.5510 C   0  0  0  0  0  3  0  0  0  0  0  0
  188.4330  177.1550  138.8250 C   0  0  0  0  0  0  0  0  0  0  0  0
  184.7860  178.9740  142.7410 C   0  0  0  0  0  0  0  0  0  0  0  0
  183.6820  179.3000  139.1090 C   0  0  0  0  0  0  0  0  0  0  0  0
  184.5750  178.6900  145.5260 C   0  0  0  0  0  0  0  0  0  0  0  0
  183.5330  178.7350  143.3430 C   0  0  0  0  0  0  0  0  0  0  0  0
  185.8470  178.2200  138.5720 C   0  0  0  0  0  0  0  0  0  0  0  0
  184.8810  179.0940  141.3440 C   0  0  0  0  0  0  0  0  0  0  0  0
  187.9040  177.9590  139.8360 C   0  0  0  0  0  3  0  0  0  0  0  0
  182.4040  178.6360  142.5400 C   0  0  0  0  0  3  0  0  0  0  0  0
  187.6780  176.8880  137.6830 C   0  0  0  0  0  3  0  0  0  0  0  0
  186.3990  177.4320  137.5540 C   0  0  0  0  0  3  0  0  0  0  0  0
  186.6120  178.4870  139.7250 C   0  0  0  0  0  0  0  0  0  0  0  0
  180.3360  181.3160  137.3150 C   0  0  0  0  0  3  0  0  0  0  0  0
  182.5160  179.9990  138.5070 C   0  0  0  0  0  0  0  0  0  0  0  0
  182.3280  181.3810  138.6870 C   0  0  0  0  0  3  0  0  0  0  0  0
  181.2430  182.0350  138.0980 C   0  0  0  0  0  3  0  0  0  0  0  0
  180.5150  179.9450  137.1200 C   0  0  0  0  0  3  0  0  0  0  0  0
  181.6010  179.2920  137.7100 C   0  0  0  0  0  3  0  0  0  0  0  0
  1 15  1  0  0  0  0
  1 12  2  0  0  0  0
  2  6  2  0  0  0  0
  2 16  1  0  0  0  0
  3 16  1  0  0  0  0
  4 13  2  0  0  0  0
  6 18  1  0  0  0  0
  7 13  1  0  0  0  0
  9  7  2  0  0  0  0
 10  8  1  0  0  0  0
 10 17  1  0  0  0  0
 11 14  1  0  0  0  0
 11  9  1  0  0  0  0
 12  2  1  0  0  0  0
 13  5  1  0  0  0  0
 14  4  1  0  0  0  0
 15 21  1  0  0  0  0
 16 11  2  0  0  0  0
 18 14  2  0  0  0  0
 19 10  2  0  0  0  0
 20 19  1  0  0  0  0
 20 15  2  0  0  0  0
 21 17  2  0  0  0  0
 21  3  1  0  0  0  0
 22 25  1  0  0  0  0
 23 24  1  0  0  0  0
 23 12  1  0  0  0  0
 25 24  2  0  0  0  0
 26 22  2  0  0  0  0
 26 27  1  0  0  0  0
 27 23  2  0  0  0  0
M  END
>  <MODEL>
8

>  <REMARK>
 VINA RESULT:      -8.2      3.142      6.551
  Name = 
  1 active torsions:
  status: ('A' for Active; 'I' for Inactive)
    1  A    between atoms: C_9  and  C_15
                            x       y       z     vdW  Elec       q    Type
                         _______ _______ _______ _____ _____    ______ ____

>  <TORSDO>
F 1

$$$$
=
 OpenBabel10262420113D

 27 31  0  0  0  0  0  0  0  0999 V2000
  186.8550  178.1890  140.1790 N   0  0  0  0  0  0  0  0  0  0  0  0
  188.4260  178.0650  142.0580 C   0  0  0  0  0  0  0  0  0  0  0  0
  186.2620  177.2660  142.9050 O   0  0  0  0  0  0  0  0  0  0  0  0
  189.8760  178.2120  145.9860 C   0  0  0  0  0  3  0  0  0  0  0  0
  189.5760  177.8470  148.3820 N   0  0  0  0  0  1  0  0  0  0  0  0
  189.6830  178.5100  142.3480 N   0  0  0  0  0  0  0  0  0  0  0  0
  187.7730  177.3390  146.8140 C   0  0  0  0  0  3  0  0  0  0  0  0
  181.8720  179.1800  142.5720 O   0  0  0  0  0  1  0  0  0  0  0  0
  187.2740  177.2910  145.5090 C   0  0  0  0  0  3  0  0  0  0  0  0
  183.1230  178.9630  142.0120 C   0  0  0  0  0  0  0  0  0  0  0  0
  188.0730  177.6990  144.4300 C   0  0  0  0  0  0  0  0  0  0  0  0
  188.0490  177.9220  140.6270 C   0  0  0  0  0  0  0  0  0  0  0  0
  189.0720  177.7980  147.0520 C   0  0  0  0  0  0  0  0  0  0  0  0
  189.3810  178.1630  144.6800 C   0  0  0  0  0  0  0  0  0  0  0  0
  185.6590  178.5290  140.8870 C   0  0  0  0  0  0  0  0  0  0  0  0
  187.5780  177.6730  143.1150 C   0  0  0  0  0  0  0  0  0  0  0  0
  184.0800  178.2190  142.7050 C   0  0  0  0  0  3  0  0  0  0  0  0
  190.1690  178.5770  143.6140 C   0  0  0  0  0  3  0  0  0  0  0  0
  183.4260  179.4830  140.7540 C   0  0  0  0  0  3  0  0  0  0  0  0
  184.6830  179.2520  140.1910 C   0  0  0  0  0  3  0  0  0  0  0  0
  185.3510  178.0050  142.1580 C   0  0  0  0  0  0  0  0  0  0  0  0
  191.0020  176.8160  137.7060 C   0  0  0  0  0  3  0  0  0  0  0  0
  189.0840  177.5520  139.6260 C   0  0  0  0  0  0  0  0  0  0  0  0
  190.1850  176.7560  139.9830 C   0  0  0  0  0  3  0  0  0  0  0  0
  191.1400  176.3930  139.0290 C   0  0  0  0  0  3  0  0  0  0  0  0
  189.9080  177.6000  137.3340 C   0  0  0  0  0  3  0  0  0  0  0  0
  188.9530  177.9630  138.2890 C   0  0  0  0  0  3  0  0  0  0  0  0
  1 12  2  0  0  0  0
  1 15  1  0  0  0  0
  2  6  2  0  0  0  0
  2 16  1  0  0  0  0
  3 16  1  0  0  0  0
  4 13  2  0  0  0  0
  6 18  1  0  0  0  0
  7 13  1  0  0  0  0
  9  7  2  0  0  0  0
 10  8  1  0  0  0  0
 10 17  1  0  0  0  0
 11 14  1  0  0  0  0
 11  9  1  0  0  0  0
 12  2  1  0  0  0  0
 13  5  1  0  0  0  0
 14  4  1  0  0  0  0
 15 21  1  0  0  0  0
 16 11  2  0  0  0  0
 18 14  2  0  0  0  0
 19 10  2  0  0  0  0
 20 19  1  0  0  0  0
 20 15  2  0  0  0  0
 21 17  2  0  0  0  0
 21  3  1  0  0  0  0
 22 25  1  0  0  0  0
 23 24  1  0  0  0  0
 23 12  1  0  0  0  0
 25 24  2  0  0  0  0
 26 22  2  0  0  0  0
 26 27  1  0  0  0  0
 27 23  2  0  0  0  0
M  END
>  <MODEL>
9

>  <REMARK>
 VINA RESULT:      -8.2      2.338      6.446
  Name = 
  1 active torsions:
  status: ('A' for Active; 'I' for Inactive)
    1  A    between atoms: C_9  and  C_15
                            x       y       z     vdW  Elec       q    Type
                         _______ _______ _______ _____ _____    ______ ____

>  <TORSDO>
F 1

$$$$
