=
 OpenBabel10262419303D

 31 35  0  0  1  0  0  0  0  0999 V2000
  185.2860  178.3470  145.7670 C   0  0  0  0  0  0  0  0  0  0  0  0
  188.7990  177.8370  144.2950 C   0  0  2  0  0  3  0  0  0  0  0  0
  189.6210  177.4030  145.4970 C   0  0  0  0  0  0  0  0  0  0  0  0
  187.2550  178.2430  139.2990 O   0  0  0  0  0  0  0  0  0  0  0  0
  188.3680  177.6540  139.3150 C   0  0  0  0  0  0  0  0  0  0  0  0
  190.2140  177.6200  147.8480 C   0  0  0  0  0  0  0  0  0  0  0  0
  187.2960  177.9630  144.4550 C   0  0  0  0  0  0  0  0  0  0  0  0
  184.5290  178.4210  144.5960 C   0  0  0  0  0  3  0  0  0  0  0  0
  189.3860  177.9440  146.7710 C   0  0  0  0  0  3  0  0  0  0  0  0
  188.3670  177.4330  141.8640 C   0  0  0  0  0  0  0  0  0  0  0  0
  184.6860  178.4990  146.9710 F   0  0  0  0  0  0  0  0  0  0  0  0
  191.0930  176.0330  143.9450 C   0  0  0  0  0  2  0  0  0  0  0  0
  189.9510  178.1430  149.1060 O   0  0  0  0  0  1  0  0  0  0  0  0
  187.1500  177.8810  141.9930 N   0  0  0  0  0  0  0  0  0  0  0  0
  189.1020  176.9420  143.0840 C   0  0  1  0  0  3  0  0  0  0  0  0
  188.9510  177.2560  140.5660 N   0  0  0  0  0  2  0  0  0  0  0  0
  186.6650  178.1330  145.6960 C   0  0  0  0  0  3  0  0  0  0  0  0
  191.3100  176.7770  147.6580 C   0  0  0  0  0  3  0  0  0  0  0  0
  186.5230  178.0420  143.2760 C   0  0  0  0  0  0  0  0  0  0  0  0
  185.1470  178.2720  143.3510 C   0  0  0  0  0  3  0  0  0  0  0  0
  190.5440  176.8670  142.8760 N   0  0  0  0  0  2  0  0  0  0  0  0
  190.7680  176.5970  145.3030 C   0  0  0  0  0  0  0  0  0  0  0  0
  191.5870  176.2680  146.3870 C   0  0  0  0  0  3  0  0  0  0  0  0
  190.5740  176.7500  135.7340 C   0  0  0  0  0  0  0  0  0  0  0  0
  190.2750  176.6110  138.1270 C   0  0  0  0  0  3  0  0  0  0  0  0
  187.4190  178.6250  136.5800 C   0  0  0  0  0  1  0  0  0  0  0  0
  191.3020  176.4450  134.5940 O   0  0  0  0  0  1  0  0  0  0  0  0
  191.0100  176.3030  136.9810 C   0  0  0  0  0  3  0  0  0  0  0  0
  188.6590  177.8170  136.7760 C   0  0  0  0  0  0  0  0  0  0  0  0
  189.0940  177.3670  138.0500 C   0  0  0  0  0  0  0  0  0  0  0  0
  189.4030  177.5030  135.6340 C   0  0  0  0  0  3  0  0  0  0  0  0
  1 11  1  0  0  0  0
  2  7  1  1  0  0  0
  2  3  1  0  0  0  0
  3  9  1  0  0  0  0
  4  5  2  0  0  0  0
  5 16  1  0  0  0  0
  6 13  1  0  0  0  0
  7 17  2  0  0  0  0
  8  1  2  0  0  0  0
  9  6  2  0  0  0  0
 10 14  2  0  0  0  0
 12 22  1  0  0  0  0
 14 19  1  0  0  0  0
 15 10  1  6  0  0  0
 15  2  1  0  0  0  0
 16 10  1  0  0  0  0
 17  1  1  0  0  0  0
 18  6  1  0  0  0  0
 19 20  2  0  0  0  0
 19  7  1  0  0  0  0
 20  8  1  0  0  0  0
 21 15  1  0  0  0  0
 21 12  1  0  0  0  0
 22  3  2  0  0  0  0
 22 23  1  0  0  0  0
 23 18  2  0  0  0  0
 24 28  1  0  0  0  0
 26 29  1  0  0  0  0
 27 24  1  0  0  0  0
 28 25  2  0  0  0  0
 29 30  2  0  0  0  0
 30 25  1  0  0  0  0
 30  5  1  0  0  0  0
 31 24  2  0  0  0  0
 31 29  1  0  0  0  0
M  END
>  <MODEL>
1

>  <REMARK>
 VINA RESULT:     -11.2      0.000      0.000
  Name = 
  1 active torsions:
  status: ('A' for Active; 'I' for Inactive)
    1  A    between atoms: C_9  and  C_22
                            x       y       z     vdW  Elec       q    Type
                         _______ _______ _______ _____ _____    ______ ____

>  <TORSDO>
F 1

$$$$
=
 OpenBabel10262419303D

 31 35  0  0  1  0  0  0  0  0999 V2000
  185.7450  178.2110  144.6220 C   0  0  0  0  0  0  0  0  0  0  0  0
  189.4630  177.5670  143.8940 C   0  0  2  0  0  3  0  0  0  0  0  0
  190.0270  177.2050  145.2580 C   0  0  0  0  0  0  0  0  0  0  0  0
  188.9190  177.6550  138.6780 O   0  0  0  0  0  0  0  0  0  0  0  0
  189.9940  177.0560  138.9470 C   0  0  0  0  0  0  0  0  0  0  0  0
  190.1620  177.5730  147.6610 C   0  0  0  0  0  0  0  0  0  0  0  0
  187.9600  177.7190  143.7520 C   0  0  0  0  0  0  0  0  0  0  0  0
  185.2290  178.2150  143.3250 C   0  0  0  0  0  3  0  0  0  0  0  0
  189.5640  177.8330  146.4250 C   0  0  0  0  0  3  0  0  0  0  0  0
  189.4970  177.0060  141.4570 C   0  0  0  0  0  0  0  0  0  0  0  0
  184.9280  178.4500  145.6760 F   0  0  0  0  0  0  0  0  0  0  0  0
  191.7380  175.7190  144.1110 C   0  0  0  0  0  2  0  0  0  0  0  0
  189.6730  178.1810  148.8080 O   0  0  0  0  0  1  0  0  0  0  0  0
  188.2890  177.4750  141.3180 N   0  0  0  0  0  0  0  0  0  0  0  0
  189.9720  176.5900  142.8240 C   0  0  1  0  0  3  0  0  0  0  0  0
  190.3150  176.7360  140.3100 N   0  0  0  0  0  2  0  0  0  0  0  0
  187.1060  177.9790  144.8340 C   0  0  0  0  0  3  0  0  0  0  0  0
  191.2530  176.7070  147.7400 C   0  0  0  0  0  3  0  0  0  0  0  0
  187.4310  177.7280  142.4430 C   0  0  0  0  0  0  0  0  0  0  0  0
  186.0710  177.9770  142.2360 C   0  0  0  0  0  3  0  0  0  0  0  0
  191.4250  176.4850  142.9040 N   0  0  0  0  0  2  0  0  0  0  0  0
  191.1710  176.3760  145.3410 C   0  0  0  0  0  0  0  0  0  0  0  0
  191.7580  176.1110  146.5820 C   0  0  0  0  0  3  0  0  0  0  0  0
  192.8550  175.9830  135.9190 C   0  0  0  0  0  0  0  0  0  0  0  0
  192.3140  176.6630  138.1720 C   0  0  0  0  0  3  0  0  0  0  0  0
  189.1090  176.3160  136.1200 C   0  0  0  0  0  1  0  0  0  0  0  0
  193.7970  175.6400  134.9600 O   0  0  0  0  0  1  0  0  0  0  0  0
  193.2630  176.3180  137.2090 C   0  0  0  0  0  3  0  0  0  0  0  0
  190.5380  176.3340  136.5510 C   0  0  0  0  0  0  0  0  0  0  0  0
  190.9430  176.6780  137.8670 C   0  0  0  0  0  0  0  0  0  0  0  0
  191.4980  175.9910  135.5930 C   0  0  0  0  0  3  0  0  0  0  0  0
  1 17  1  0  0  0  0
  1 11  1  0  0  0  0
  2  7  1  1  0  0  0
  2  3  1  0  0  0  0
  3 22  2  0  0  0  0
  3  9  1  0  0  0  0
  4  5  2  0  0  0  0
  5 16  1  0  0  0  0
  6 18  1  0  0  0  0
  6 13  1  0  0  0  0
  7 17  2  0  0  0  0
  8  1  2  0  0  0  0
  9  6  2  0  0  0  0
 12 22  1  0  0  0  0
 14 10  2  0  0  0  0
 14 19  1  0  0  0  0
 15 10  1  6  0  0  0
 15 21  1  0  0  0  0
 15  2  1  0  0  0  0
 16 10  1  0  0  0  0
 19  7  1  0  0  0  0
 20 19  2  0  0  0  0
 20  8  1  0  0  0  0
 21 12  1  0  0  0  0
 22 23  1  0  0  0  0
 23 18  2  0  0  0  0
 24 28  1  0  0  0  0
 26 29  1  0  0  0  0
 27 24  1  0  0  0  0
 28 25  2  0  0  0  0
 29 30  2  0  0  0  0
 30 25  1  0  0  0  0
 30  5  1  0  0  0  0
 31 24  2  0  0  0  0
 31 29  1  0  0  0  0
M  END
>  <MODEL>
2

>  <REMARK>
 VINA RESULT:     -11.1      1.214      1.550
  Name = 
  1 active torsions:
  status: ('A' for Active; 'I' for Inactive)
    1  A    between atoms: C_9  and  C_22
                            x       y       z     vdW  Elec       q    Type
                         _______ _______ _______ _____ _____    ______ ____

>  <TORSDO>
F 1

$$$$
=
 OpenBabel10262419303D

 31 35  0  0  1  0  0  0  0  0999 V2000
  190.2120  177.5480  142.1000 C   0  0  0  0  0  0  0  0  0  0  0  0
  186.5400  178.0350  143.1240 C   0  0  2  0  0  3  0  0  0  0  0  0
  186.6150  178.1700  144.6360 C   0  0  0  0  0  0  0  0  0  0  0  0
  184.7920  178.6910  138.2230 O   0  0  0  0  0  0  0  0  0  0  0  0
  183.9350  179.1750  139.0090 C   0  0  0  0  0  0  0  0  0  0  0  0
  187.5260  177.4710  146.7830 C   0  0  0  0  0  0  0  0  0  0  0  0
  187.8370  178.0040  142.3370 C   0  0  0  0  0  0  0  0  0  0  0  0
  190.1210  177.7540  140.7220 C   0  0  0  0  0  3  0  0  0  0  0  0
  187.5360  177.4220  145.3870 C   0  0  0  0  0  3  0  0  0  0  0  0
  185.4610  178.9170  141.0470 C   0  0  0  0  0  0  0  0  0  0  0  0
  191.4020  177.2240  142.6590 F   0  0  0  0  0  0  0  0  0  0  0  0
  184.5740  179.6800  144.5610 C   0  0  0  0  0  2  0  0  0  0  0  0
  188.4610  176.7470  147.5080 O   0  0  0  0  0  1  0  0  0  0  0  0
  186.4940  178.5530  140.3400 N   0  0  0  0  0  0  0  0  0  0  0  0
  185.6180  179.1120  142.5320 C   0  0  1  0  0  3  0  0  0  0  0  0
  184.2290  179.2850  140.4110 N   0  0  0  0  0  2  0  0  0  0  0  0
  189.0730  177.6580  142.9020 C   0  0  0  0  0  3  0  0  0  0  0  0
  186.5720  178.2440  147.4480 C   0  0  0  0  0  3  0  0  0  0  0  0
  187.7520  178.2080  140.9420 C   0  0  0  0  0  0  0  0  0  0  0  0
  188.8920  178.0810  140.1430 C   0  0  0  0  0  3  0  0  0  0  0  0
  184.3400  179.1070  143.2360 N   0  0  0  0  0  2  0  0  0  0  0  0
  185.6160  178.9020  145.3200 C   0  0  0  0  0  0  0  0  0  0  0  0
  185.6180  178.9560  146.7170 C   0  0  0  0  0  3  0  0  0  0  0  0
  180.1470  180.6390  137.5910 C   0  0  0  0  0  0  0  0  0  0  0  0
  182.3080  180.9990  138.6070 C   0  0  0  0  0  3  0  0  0  0  0  0
  181.8720  177.2960  137.7700 C   0  0  0  0  0  1  0  0  0  0  0  0
  178.9320  181.1350  137.1410 O   0  0  0  0  0  1  0  0  0  0  0  0
  181.0870  181.5010  138.1550 C   0  0  0  0  0  3  0  0  0  0  0  0
  181.6510  178.7630  137.9290 C   0  0  0  0  0  0  0  0  0  0  0  0
  182.6140  179.6320  138.5050 C   0  0  0  0  0  0  0  0  0  0  0  0
  180.4290  179.2770  137.4790 C   0  0  0  0  0  3  0  0  0  0  0  0
  1 11  1  0  0  0  0
  1 17  1  0  0  0  0
  2  7  1  6  0  0  0
  2  3  1  0  0  0  0
  3 22  2  0  0  0  0
  3  9  1  0  0  0  0
  4  5  2  0  0  0  0
  5 16  1  0  0  0  0
  6 18  1  0  0  0  0
  6 13  1  0  0  0  0
  7 17  2  0  0  0  0
  8  1  2  0  0  0  0
  9  6  2  0  0  0  0
 12 22  1  0  0  0  0
 14 19  1  0  0  0  0
 14 10  2  0  0  0  0
 15 10  1  6  0  0  0
 15  2  1  0  0  0  0
 15 21  1  0  0  0  0
 16 10  1  0  0  0  0
 19  7  1  0  0  0  0
 20  8  1  0  0  0  0
 20 19  2  0  0  0  0
 21 12  1  0  0  0  0
 22 23  1  0  0  0  0
 23 18  2  0  0  0  0
 24 28  1  0  0  0  0
 26 29  1  0  0  0  0
 27 24  1  0  0  0  0
 28 25  2  0  0  0  0
 29 30  2  0  0  0  0
 30 25  1  0  0  0  0
 30  5  1  0  0  0  0
 31 24  2  0  0  0  0
 31 29  1  0  0  0  0
M  END
>  <MODEL>
3

>  <REMARK>
 VINA RESULT:     -11.1      4.131      6.384
  Name = 
  1 active torsions:
  status: ('A' for Active; 'I' for Inactive)
    1  A    between atoms: C_9  and  C_22
                            x       y       z     vdW  Elec       q    Type
                         _______ _______ _______ _____ _____    ______ ____

>  <TORSDO>
F 1

$$$$
=
 OpenBabel10262419303D

 31 35  0  0  1  0  0  0  0  0999 V2000
  191.5040  177.3060  141.2640 C   0  0  0  0  0  0  0  0  0  0  0  0
  188.8070  177.0820  143.9920 C   0  0  2  0  0  3  0  0  0  0  0  0
  189.6150  177.0240  145.2780 C   0  0  0  0  0  0  0  0  0  0  0  0
  184.8100  178.1120  140.7560 O   0  0  0  0  0  0  0  0  0  0  0  0
  184.4280  178.3500  141.9330 C   0  0  0  0  0  0  0  0  0  0  0  0
  191.5190  176.1920  146.5470 C   0  0  0  0  0  0  0  0  0  0  0  0
  189.5370  177.3560  142.6910 C   0  0  0  0  0  0  0  0  0  0  0  0
  190.7240  177.6780  140.1670 C   0  0  0  0  0  3  0  0  0  0  0  0
  190.8360  176.3320  145.3360 C   0  0  0  0  0  3  0  0  0  0  0  0
  186.7800  178.0580  142.8980 C   0  0  0  0  0  0  0  0  0  0  0  0
  192.8330  177.0960  141.1100 F   0  0  0  0  0  0  0  0  0  0  0  0
  187.7120  178.1990  146.4800 C   0  0  0  0  0  2  0  0  0  0  0  0
  192.7380  175.5300  146.5810 O   0  0  0  0  0  1  0  0  0  0  0  0
  187.3450  177.9550  141.7280 N   0  0  0  0  0  0  0  0  0  0  0  0
  187.6420  178.0740  144.1330 C   0  0  1  0  0  3  0  0  0  0  0  0
  185.3730  178.3150  143.0140 N   0  0  0  0  0  2  0  0  0  0  0  0
  190.9110  177.1320  142.5170 C   0  0  0  0  0  3  0  0  0  0  0  0
  190.9740  176.7140  147.7210 C   0  0  0  0  0  3  0  0  0  0  0  0
  188.7560  177.7300  141.5760 C   0  0  0  0  0  0  0  0  0  0  0  0
  189.3520  177.8870  140.3210 C   0  0  0  0  0  3  0  0  0  0  0  0
  186.8880  177.7790  145.3460 N   0  0  0  0  0  2  0  0  0  0  0  0
  189.0430  177.4950  146.4830 C   0  0  0  0  0  0  0  0  0  0  0  0
  189.7370  177.3620  147.6890 C   0  0  0  0  0  3  0  0  0  0  0  0
  180.2750  179.2390  142.6170 C   0  0  0  0  0  0  0  0  0  0  0  0
  182.1030  178.6750  141.1420 C   0  0  0  0  0  3  0  0  0  0  0  0
  183.3770  178.9580  144.7340 C   0  0  0  0  0  1  0  0  0  0  0  0
  178.9310  179.5230  142.8120 O   0  0  0  0  0  1  0  0  0  0  0  0
  180.7510  178.9610  141.3360 C   0  0  0  0  0  3  0  0  0  0  0  0
  182.5090  178.9470  143.5200 C   0  0  0  0  0  0  0  0  0  0  0  0
  183.0040  178.6610  142.2200 C   0  0  0  0  0  0  0  0  0  0  0  0
  181.1520  179.2310  143.7020 C   0  0  0  0  0  3  0  0  0  0  0  0
  1 17  1  0  0  0  0
  2  7  1  6  0  0  0
  2 15  1  0  0  0  0
  2  3  1  0  0  0  0
  3  9  2  0  0  0  0
  3 22  1  0  0  0  0
  4  5  2  0  0  0  0
  5 30  1  0  0  0  0
  5 16  1  0  0  0  0
  6 13  1  0  0  0  0
  6 18  2  0  0  0  0
  8 20  1  0  0  0  0
  8  1  2  0  0  0  0
  9  6  1  0  0  0  0
 10 16  1  0  0  0  0
 11  1  1  0  0  0  0
 12 22  1  0  0  0  0
 14 10  2  0  0  0  0
 15 10  1  6  0  0  0
 15 21  1  0  0  0  0
 17  7  2  0  0  0  0
 19 14  1  0  0  0  0
 19  7  1  0  0  0  0
 20 19  2  0  0  0  0
 21 12  1  0  0  0  0
 22 23  2  0  0  0  0
 23 18  1  0  0  0  0
 24 27  1  0  0  0  0
 24 31  1  0  0  0  0
 25 28  1  0  0  0  0
 25 30  2  0  0  0  0
 28 24  2  0  0  0  0
 29 31  2  0  0  0  0
 29 26  1  0  0  0  0
 30 29  1  0  0  0  0
M  END
>  <MODEL>
4

>  <REMARK>
 VINA RESULT:     -10.7      3.347      6.727
  Name = 
  1 active torsions:
  status: ('A' for Active; 'I' for Inactive)
    1  A    between atoms: C_9  and  C_22
                            x       y       z     vdW  Elec       q    Type
                         _______ _______ _______ _____ _____    ______ ____

>  <TORSDO>
F 1

$$$$
=
 OpenBabel10262419303D

 31 35  0  0  1  0  0  0  0  0999 V2000
  187.3410  177.9200  136.2140 C   0  0  0  0  0  0  0  0  0  0  0  0
  189.7070  176.8730  139.0560 C   0  0  2  0  0  3  0  0  0  0  0  0
  191.0500  176.7330  138.3580 C   0  0  0  0  0  0  0  0  0  0  0  0
  186.2430  177.7970  142.8850 O   0  0  0  0  0  0  0  0  0  0  0  0
  187.3950  177.7870  143.3970 C   0  0  0  0  0  0  0  0  0  0  0  0
  192.3830  176.0030  136.4560 C   0  0  0  0  0  0  0  0  0  0  0  0
  188.5430  177.4540  138.2740 C   0  0  0  0  0  0  0  0  0  0  0  0
  186.2310  178.3410  136.9500 C   0  0  0  0  0  3  0  0  0  0  0  0
  191.1390  176.2290  137.0510 C   0  0  0  0  0  3  0  0  0  0  0  0
  188.5540  177.6980  141.1170 C   0  0  0  0  0  0  0  0  0  0  0  0
  187.3020  177.9360  134.8610 F   0  0  0  0  0  0  0  0  0  0  0  0
  192.1980  177.4090  140.5200 C   0  0  0  0  0  2  0  0  0  0  0  0
  192.4520  175.5310  135.1530 O   0  0  0  0  0  1  0  0  0  0  0  0
  187.4480  177.8660  140.4470 N   0  0  0  0  0  0  0  0  0  0  0  0
  189.8630  177.6470  140.3740 C   0  0  1  0  0  3  0  0  0  0  0  0
  188.5540  177.7230  142.5510 N   0  0  0  0  0  2  0  0  0  0  0  0
  188.4860  177.4650  136.8730 C   0  0  0  0  0  3  0  0  0  0  0  0
  193.5540  176.2470  137.1740 C   0  0  0  0  0  3  0  0  0  0  0  0
  187.4160  177.8780  139.0110 C   0  0  0  0  0  0  0  0  0  0  0  0
  186.2670  178.3170  138.3470 C   0  0  0  0  0  3  0  0  0  0  0  0
  190.9350  177.0570  141.1680 N   0  0  0  0  0  2  0  0  0  0  0  0
  192.2420  176.9190  139.0970 C   0  0  0  0  0  0  0  0  0  0  0  0
  193.4840  176.7010  138.4930 C   0  0  0  0  0  3  0  0  0  0  0  0
  188.0460  177.8770  147.6470 C   0  0  0  0  0  0  0  0  0  0  0  0
  188.8180  177.4610  145.3970 C   0  0  0  0  0  3  0  0  0  0  0  0
  185.1890  178.6560  145.3210 C   0  0  0  0  0  1  0  0  0  0  0  0
  188.2810  177.8980  149.0150 O   0  0  0  0  0  1  0  0  0  0  0  0
  189.0570  177.4810  146.7720 C   0  0  0  0  0  3  0  0  0  0  0  0
  186.5490  178.2370  145.7710 C   0  0  0  0  0  0  0  0  0  0  0  0
  187.5710  177.8360  144.8710 C   0  0  0  0  0  0  0  0  0  0  0  0
  186.7990  178.2540  147.1470 C   0  0  0  0  0  3  0  0  0  0  0  0
  1 17  2  0  0  0  0
  1  8  1  0  0  0  0
  2  7  1  6  0  0  0
  2 15  1  0  0  0  0
  3  2  1  0  0  0  0
  3 22  1  0  0  0  0
  4  5  2  0  0  0  0
  5 30  1  0  0  0  0
  6  9  1  0  0  0  0
  6 18  2  0  0  0  0
  7 19  2  0  0  0  0
  8 20  2  0  0  0  0
  9  3  2  0  0  0  0
 10 16  1  0  0  0  0
 11  1  1  0  0  0  0
 12 21  1  0  0  0  0
 13  6  1  0  0  0  0
 14 10  2  0  0  0  0
 15 10  1  1  0  0  0
 15 21  1  0  0  0  0
 16  5  1  0  0  0  0
 17  7  1  0  0  0  0
 18 23  1  0  0  0  0
 19 14  1  0  0  0  0
 20 19  1  0  0  0  0
 22 12  1  0  0  0  0
 23 22  2  0  0  0  0
 24 27  1  0  0  0  0
 25 28  1  0  0  0  0
 26 29  1  0  0  0  0
 28 24  2  0  0  0  0
 29 31  2  0  0  0  0
 30 25  2  0  0  0  0
 30 29  1  0  0  0  0
 31 24  1  0  0  0  0
M  END
>  <MODEL>
5

>  <REMARK>
 VINA RESULT:     -10.3      2.753      8.376
  Name = 
  1 active torsions:
  status: ('A' for Active; 'I' for Inactive)
    1  A    between atoms: C_9  and  C_22
                            x       y       z     vdW  Elec       q    Type
                         _______ _______ _______ _____ _____    ______ ____

>  <TORSDO>
F 1

$$$$
=
 OpenBabel10262419303D

 31 35  0  0  1  0  0  0  0  0999 V2000
  186.6130  178.1890  147.3300 C   0  0  0  0  0  0  0  0  0  0  0  0
  189.2910  177.5430  144.6510 C   0  0  2  0  0  3  0  0  0  0  0  0
  190.3800  176.8100  145.4170 C   0  0  0  0  0  0  0  0  0  0  0  0
  186.2590  179.0030  140.6270 O   0  0  0  0  0  0  0  0  0  0  0  0
  187.1960  178.2950  140.1710 C   0  0  0  0  0  0  0  0  0  0  0  0
  191.7520  176.5380  147.4080 C   0  0  0  0  0  0  0  0  0  0  0  0
  187.9720  177.8130  145.3510 C   0  0  0  0  0  0  0  0  0  0  0  0
  185.5320  178.5570  146.5250 C   0  0  0  0  0  3  0  0  0  0  0  0
  190.6800  177.1420  146.7470 C   0  0  0  0  0  3  0  0  0  0  0  0
  188.0090  177.6290  142.5040 C   0  0  0  0  0  0  0  0  0  0  0  0
  186.4850  178.1940  148.6780 F   0  0  0  0  0  0  0  0  0  0  0  0
  190.9920  175.5750  143.2830 C   0  0  0  0  0  2  0  0  0  0  0  0
  192.0170  176.8570  148.7330 O   0  0  0  0  0  1  0  0  0  0  0  0
  187.0000  178.1850  143.1130 N   0  0  0  0  0  0  0  0  0  0  0  0
  189.0140  176.8470  143.3090 C   0  0  1  0  0  3  0  0  0  0  0  0
  188.0860  177.6170  141.0720 N   0  0  0  0  0  2  0  0  0  0  0  0
  187.8310  177.8320  146.7460 C   0  0  0  0  0  3  0  0  0  0  0  0
  192.5600  175.6200  146.7360 C   0  0  0  0  0  3  0  0  0  0  0  0
  186.8760  178.1880  144.5450 C   0  0  0  0  0  0  0  0  0  0  0  0
  185.6640  178.5600  145.1350 C   0  0  0  0  0  3  0  0  0  0  0  0
  190.2680  176.6430  142.5930 N   0  0  0  0  0  2  0  0  0  0  0  0
  191.2400  175.9240  144.7270 C   0  0  0  0  0  0  0  0  0  0  0  0
  192.3060  175.3150  145.3970 C   0  0  0  0  0  3  0  0  0  0  0  0
  187.9280  177.9030  135.9500 C   0  0  0  0  0  0  0  0  0  0  0  0
  188.7130  178.1910  138.2160 C   0  0  0  0  0  3  0  0  0  0  0  0
  184.9010  177.9330  138.1900 C   0  0  0  0  0  1  0  0  0  0  0  0
  188.1900  177.7780  134.5940 O   0  0  0  0  0  1  0  0  0  0  0  0
  188.9790  178.0660  136.8510 C   0  0  0  0  0  3  0  0  0  0  0  0
  186.3340  177.9870  137.7800 C   0  0  0  0  0  0  0  0  0  0  0  0
  187.3970  178.1540  138.7060 C   0  0  0  0  0  0  0  0  0  0  0  0
  186.6120  177.8630  136.4140 C   0  0  0  0  0  3  0  0  0  0  0  0
  1 11  1  0  0  0  0
  2  7  1  1  0  0  0
  2  3  1  0  0  0  0
  3  9  1  0  0  0  0
  5  4  2  0  0  0  0
  5 16  1  0  0  0  0
  6 13  1  0  0  0  0
  7 17  2  0  0  0  0
  8  1  2  0  0  0  0
  9  6  2  0  0  0  0
 10 14  2  0  0  0  0
 12 22  1  0  0  0  0
 14 19  1  0  0  0  0
 15 10  1  6  0  0  0
 15  2  1  0  0  0  0
 16 10  1  0  0  0  0
 17  1  1  0  0  0  0
 18  6  1  0  0  0  0
 19 20  2  0  0  0  0
 19  7  1  0  0  0  0
 20  8  1  0  0  0  0
 21 12  1  0  0  0  0
 21 15  1  0  0  0  0
 22 23  1  0  0  0  0
 22  3  2  0  0  0  0
 23 18  2  0  0  0  0
 24 31  2  0  0  0  0
 24 28  1  0  0  0  0
 25 30  1  0  0  0  0
 27 24  1  0  0  0  0
 28 25  2  0  0  0  0
 29 26  1  0  0  0  0
 29 30  2  0  0  0  0
 30  5  1  0  0  0  0
 31 29  1  0  0  0  0
M  END
>  <MODEL>
6

>  <REMARK>
 VINA RESULT:     -10.1      1.509      1.928
  Name = 
  1 active torsions:
  status: ('A' for Active; 'I' for Inactive)
    1  A    between atoms: C_9  and  C_22
                            x       y       z     vdW  Elec       q    Type
                         _______ _______ _______ _____ _____    ______ ____

>  <TORSDO>
F 1

$$$$
=
 OpenBabel10262419303D

 31 35  0  0  1  0  0  0  0  0999 V2000
  184.2670  178.6840  145.3340 C   0  0  0  0  0  0  0  0  0  0  0  0
  184.8560  178.2110  141.5670 C   0  0  2  0  0  3  0  0  0  0  0  0
  183.6030  178.8020  140.9410 C   0  0  0  0  0  0  0  0  0  0  0  0
  189.8760  176.7790  142.0750 O   0  0  0  0  0  0  0  0  0  0  0  0
  189.6990  177.1620  140.8880 C   0  0  0  0  0  0  0  0  0  0  0  0
  181.1880  179.1080  140.9200 C   0  0  0  0  0  0  0  0  0  0  0  0
  185.0660  178.3790  143.0600 C   0  0  0  0  0  0  0  0  0  0  0  0
  185.5500  178.4330  145.8250 C   0  0  0  0  0  3  0  0  0  0  0  0
  182.3480  178.6560  141.5530 C   0  0  0  0  0  3  0  0  0  0  0  0
  187.3440  178.0340  141.3770 C   0  0  0  0  0  0  0  0  0  0  0  0
  183.2540  178.9510  146.1930 F   0  0  0  0  0  0  0  0  0  0  0  0
  184.9770  179.4600  138.9100 C   0  0  0  0  0  2  0  0  0  0  0  0
  179.9600  178.9810  141.5510 O   0  0  0  0  0  1  0  0  0  0  0  0
  187.4420  177.8410  142.6620 N   0  0  0  0  0  0  0  0  0  0  0  0
  186.1090  178.6980  140.8250 C   0  0  1  0  0  3  0  0  0  0  0  0
  188.4550  177.7700  140.5090 N   0  0  0  0  0  2  0  0  0  0  0  0
  184.0220  178.6430  143.9590 C   0  0  0  0  0  3  0  0  0  0  0  0
  181.2640  179.6820  139.6500 C   0  0  0  0  0  3  0  0  0  0  0  0
  186.3590  178.1240  143.5650 C   0  0  0  0  0  0  0  0  0  0  0  0
  186.5940  178.1500  144.9420 C   0  0  0  0  0  3  0  0  0  0  0  0
  185.9500  178.4790  139.3920 N   0  0  0  0  0  2  0  0  0  0  0  0
  183.6620  179.3300  139.6300 C   0  0  0  0  0  0  0  0  0  0  0  0
  182.4990  179.7910  139.0060 C   0  0  0  0  0  3  0  0  0  0  0  0
  192.8860  176.7060  138.0350 C   0  0  0  0  0  0  0  0  0  0  0  0
  192.0850  177.2970  140.2350 C   0  0  0  0  0  3  0  0  0  0  0  0
  189.1590  176.1690  138.0510 C   0  0  0  0  0  1  0  0  0  0  0  0
  193.9310  176.5660  137.1330 O   0  0  0  0  0  1  0  0  0  0  0  0
  193.1380  177.1580  139.3300 C   0  0  0  0  0  3  0  0  0  0  0  0
  190.5200  176.5280  138.5470 C   0  0  0  0  0  0  0  0  0  0  0  0
  190.7650  176.9870  139.8670 C   0  0  0  0  0  0  0  0  0  0  0  0
  191.5830  176.3920  137.6470 C   0  0  0  0  0  3  0  0  0  0  0  0
  1  8  1  0  0  0  0
  1 11  1  0  0  0  0
  2  3  1  6  0  0  0
  2  7  1  0  0  0  0
  3  9  1  0  0  0  0
  5  4  2  0  0  0  0
  6 13  1  0  0  0  0
  6  9  2  0  0  0  0
  7 19  2  0  0  0  0
  7 17  1  0  0  0  0
 10 14  2  0  0  0  0
 12 21  1  0  0  0  0
 12 22  1  0  0  0  0
 14 19  1  0  0  0  0
 15 21  1  6  0  0  0
 15 10  1  0  0  0  0
 15  2  1  0  0  0  0
 16  5  1  0  0  0  0
 16 10  1  0  0  0  0
 17  1  2  0  0  0  0
 18  6  1  0  0  0  0
 19 20  1  0  0  0  0
 20  8  2  0  0  0  0
 22  3  2  0  0  0  0
 23 22  1  0  0  0  0
 23 18  2  0  0  0  0
 24 28  1  0  0  0  0
 26 29  1  0  0  0  0
 27 24  1  0  0  0  0
 28 25  2  0  0  0  0
 29 30  2  0  0  0  0
 30 25  1  0  0  0  0
 30  5  1  0  0  0  0
 31 24  2  0  0  0  0
 31 29  1  0  0  0  0
M  END
>  <MODEL>
7

>  <REMARK>
 VINA RESULT:     -10.1      3.023      6.013
  Name = 
  1 active torsions:
  status: ('A' for Active; 'I' for Inactive)
    1  A    between atoms: C_9  and  C_22
                            x       y       z     vdW  Elec       q    Type
                         _______ _______ _______ _____ _____    ______ ____

>  <TORSDO>
F 1

$$$$
=
 OpenBabel10262419303D

 31 35  0  0  1  0  0  0  0  0999 V2000
  183.2510  179.2720  139.2780 C   0  0  0  0  0  0  0  0  0  0  0  0
  186.8310  177.8960  139.5220 C   0  0  2  0  0  3  0  0  0  0  0  0
  187.3650  178.0610  138.1080 C   0  0  0  0  0  0  0  0  0  0  0  0
  186.8310  177.5750  144.7570 O   0  0  0  0  0  0  0  0  0  0  0  0
  188.0300  177.5810  144.3680 C   0  0  0  0  0  0  0  0  0  0  0  0
  187.0580  177.9150  135.6980 C   0  0  0  0  0  0  0  0  0  0  0  0
  185.4820  178.5020  139.8600 C   0  0  0  0  0  0  0  0  0  0  0  0
  182.9350  179.3970  140.6320 C   0  0  0  0  0  3  0  0  0  0  0  0
  186.5350  177.8680  136.9920 C   0  0  0  0  0  3  0  0  0  0  0  0
  187.3840  178.1200  141.9510 C   0  0  0  0  0  0  0  0  0  0  0  0
  182.3280  179.5790  138.3360 F   0  0  0  0  0  0  0  0  0  0  0  0
  189.6960  178.3710  139.0680 C   0  0  0  0  0  2  0  0  0  0  0  0
  186.2180  177.7500  134.6060 O   0  0  0  0  0  1  0  0  0  0  0  0
  186.1250  178.3070  142.2340 N   0  0  0  0  0  0  0  0  0  0  0  0
  187.8690  178.3770  140.5480 C   0  0  1  0  0  3  0  0  0  0  0  0
  188.3340  177.8300  142.9860 N   0  0  0  0  0  2  0  0  0  0  0  0
  184.5140  178.8130  138.8930 C   0  0  0  0  0  3  0  0  0  0  0  0
  188.4240  178.1230  135.5030 C   0  0  0  0  0  3  0  0  0  0  0  0
  185.1530  178.6290  141.2270 C   0  0  0  0  0  0  0  0  0  0  0  0
  183.8830  179.0740  141.6060 C   0  0  0  0  0  3  0  0  0  0  0  0
  189.1570  177.7490  140.2770 N   0  0  0  0  0  2  0  0  0  0  0  0
  188.7560  178.2110  137.9020 C   0  0  0  0  0  0  0  0  0  0  0  0
  189.2720  178.2690  136.6040 C   0  0  0  0  0  3  0  0  0  0  0  0
  191.3310  176.8070  147.0150 C   0  0  0  0  0  0  0  0  0  0  0  0
  190.3870  176.9510  144.7960 C   0  0  0  0  0  3  0  0  0  0  0  0
  187.7260  177.8270  147.3960 C   0  0  0  0  0  1  0  0  0  0  0  0
  192.4110  176.5530  147.8470 O   0  0  0  0  0  1  0  0  0  0  0  0
  191.4750  176.6950  145.6320 C   0  0  0  0  0  3  0  0  0  0  0  0
  189.0040  177.4360  146.7310 C   0  0  0  0  0  0  0  0  0  0  0  0
  189.1390  177.3250  145.3230 C   0  0  0  0  0  0  0  0  0  0  0  0
  190.1010  177.1770  147.5600 C   0  0  0  0  0  3  0  0  0  0  0  0
  1  8  1  0  0  0  0
  2  3  1  6  0  0  0
  2  7  1  0  0  0  0
  2 15  1  0  0  0  0
  5  4  2  0  0  0  0
  5 30  1  0  0  0  0
  6  9  1  0  0  0  0
  7 19  2  0  0  0  0
  8 20  2  0  0  0  0
  9  3  2  0  0  0  0
 10 14  2  0  0  0  0
 10 16  1  0  0  0  0
 11  1  1  0  0  0  0
 12 21  1  0  0  0  0
 13  6  1  0  0  0  0
 15 21  1  6  0  0  0
 15 10  1  0  0  0  0
 16  5  1  0  0  0  0
 17  1  2  0  0  0  0
 17  7  1  0  0  0  0
 18  6  2  0  0  0  0
 18 23  1  0  0  0  0
 19 20  1  0  0  0  0
 19 14  1  0  0  0  0
 22  3  1  0  0  0  0
 22 12  1  0  0  0  0
 23 22  2  0  0  0  0
 24 31  1  0  0  0  0
 24 27  1  0  0  0  0
 25 30  2  0  0  0  0
 25 28  1  0  0  0  0
 28 24  2  0  0  0  0
 29 26  1  0  0  0  0
 29 31  2  0  0  0  0
 30 29  1  0  0  0  0
M  END
>  <MODEL>
8

>  <REMARK>
 VINA RESULT:     -10.1      2.776      8.203
  Name = 
  1 active torsions:
  status: ('A' for Active; 'I' for Inactive)
    1  A    between atoms: C_9  and  C_22
                            x       y       z     vdW  Elec       q    Type
                         _______ _______ _______ _____ _____    ______ ____

>  <TORSDO>
F 1

$$$$
=
 OpenBabel10262419303D

 31 35  0  0  1  0  0  0  0  0999 V2000
  189.8710  177.5020  147.3650 C   0  0  0  0  0  0  0  0  0  0  0  0
  187.6120  177.4390  144.2560 C   0  0  2  0  0  3  0  0  0  0  0  0
  186.3160  178.0570  144.7550 C   0  0  0  0  0  0  0  0  0  0  0  0
  191.4510  176.0990  140.9420 O   0  0  0  0  0  0  0  0  0  0  0  0
  190.5110  176.5990  140.2670 C   0  0  0  0  0  0  0  0  0  0  0  0
  184.6060  178.2980  146.4700 C   0  0  0  0  0  0  0  0  0  0  0  0
  188.8210  177.4570  145.1740 C   0  0  0  0  0  0  0  0  0  0  0  0
  191.1120  177.2370  146.7820 C   0  0  0  0  0  3  0  0  0  0  0  0
  185.8500  177.8140  146.0560 C   0  0  0  0  0  3  0  0  0  0  0  0
  189.2330  177.3510  142.3520 C   0  0  0  0  0  0  0  0  0  0  0  0
  189.7710  177.6510  148.7070 F   0  0  0  0  0  0  0  0  0  0  0  0
  185.8970  178.9600  142.4180 C   0  0  0  0  0  2  0  0  0  0  0  0
  184.1730  178.0730  147.7690 O   0  0  0  0  0  1  0  0  0  0  0  0
  190.1960  177.0280  143.1690 N   0  0  0  0  0  0  0  0  0  0  0  0
  188.0050  178.0350  142.8960 C   0  0  1  0  0  3  0  0  0  0  0  0
  189.3950  177.2090  140.9340 N   0  0  0  0  0  2  0  0  0  0  0  0
  188.7280  177.5980  146.5660 C   0  0  0  0  0  3  0  0  0  0  0  0
  183.7980  179.0030  145.5760 C   0  0  0  0  0  3  0  0  0  0  0  0
  190.0790  177.1860  144.5930 C   0  0  0  0  0  0  0  0  0  0  0  0
  191.2160  177.0760  145.3980 C   0  0  0  0  0  3  0  0  0  0  0  0
  186.8720  177.9610  141.9800 N   0  0  0  0  0  2  0  0  0  0  0  0
  185.4640  178.7200  143.8400 C   0  0  0  0  0  0  0  0  0  0  0  0
  184.2260  179.2110  144.2630 C   0  0  0  0  0  3  0  0  0  0  0  0
  190.6830  176.3640  135.9760 C   0  0  0  0  0  0  0  0  0  0  0  0
  191.2750  175.5340  138.1650 C   0  0  0  0  0  3  0  0  0  0  0  0
  189.0560  178.6270  138.5080 C   0  0  0  0  0  1  0  0  0  0  0  0
  190.7530  176.2660  134.5940 O   0  0  0  0  0  1  0  0  0  0  0  0
  191.3480  175.4340  136.7750 C   0  0  0  0  0  3  0  0  0  0  0  0
  189.8660  177.5000  137.9590 C   0  0  0  0  0  0  0  0  0  0  0  0
  190.5390  176.5600  138.7820 C   0  0  0  0  0  0  0  0  0  0  0  0
  189.9460  177.3910  136.5660 C   0  0  0  0  0  3  0  0  0  0  0  0
  1 11  1  0  0  0  0
  2  3  1  1  0  0  0
  2  7  1  0  0  0  0
  3  9  1  0  0  0  0
  5 16  1  0  0  0  0
  5  4  2  0  0  0  0
  6 13  1  0  0  0  0
  7 17  1  0  0  0  0
  8  1  1  0  0  0  0
  9  6  2  0  0  0  0
 10 15  1  0  0  0  0
 10 14  2  0  0  0  0
 12 22  1  0  0  0  0
 14 19  1  0  0  0  0
 15 21  1  6  0  0  0
 15  2  1  0  0  0  0
 16 10  1  0  0  0  0
 17  1  2  0  0  0  0
 18  6  1  0  0  0  0
 19  7  2  0  0  0  0
 19 20  1  0  0  0  0
 20  8  2  0  0  0  0
 21 12  1  0  0  0  0
 22 23  1  0  0  0  0
 22  3  2  0  0  0  0
 23 18  2  0  0  0  0
 24 31  2  0  0  0  0
 24 28  1  0  0  0  0
 25 30  1  0  0  0  0
 27 24  1  0  0  0  0
 28 25  2  0  0  0  0
 29 26  1  0  0  0  0
 29 30  2  0  0  0  0
 30  5  1  0  0  0  0
 31 29  1  0  0  0  0
M  END
>  <MODEL>
9

>  <REMARK>
 VINA RESULT:      -9.9      1.964      4.213
  Name = 
  1 active torsions:
  status: ('A' for Active; 'I' for Inactive)
    1  A    between atoms: C_9  and  C_22
                            x       y       z     vdW  Elec       q    Type
                         _______ _______ _______ _____ _____    ______ ____

>  <TORSDO>
F 1

$$$$
