=
 OpenBabel10262421033D

 32 37  0  0  1  0  0  0  0  0999 V2000
  180.3300  177.6180  137.2150 C   0  0  1  0  0  3  0  0  0  0  0  0
  180.8580  177.3600  138.6420 C   0  0  1  0  0  3  0  0  0  0  0  0
  181.2250  175.2580  136.5500 C   0  0  2  0  0  3  0  0  0  0  0  0
  184.2800  179.1770  139.9170 C   0  0  0  0  0  2  0  0  0  0  0  0
  181.9820  176.3250  138.8130 C   0  0  1  0  0  3  0  0  0  0  0  0
  185.3170  177.8850  138.0100 C   0  0  0  0  0  2  0  0  0  0  0  0
  184.1240  176.9680  138.1100 C   0  0  0  0  0  0  0  0  0  0  0  0
  182.3470  175.5290  137.5570 C   0  0  2  0  0  3  0  0  0  0  0  0
  183.5960  176.1760  136.9660 C   0  0  0  0  0  2  0  0  0  0  0  0
  180.1980  176.3540  136.3460 C   0  0  1  0  0  3  0  0  0  0  0  0
  181.9740  178.4650  140.7440 C   0  0  0  0  0  2  0  0  0  0  0  0
  180.2770  174.3850  137.1120 O   0  0  0  0  0  0  0  0  0  0  0  0
  180.8140  178.5200  139.7050 C   0  0  1  0  0  0  0  0  0  0  0  0
  183.2360  177.0480  139.0990 C   0  0  0  0  0  0  0  0  0  0  0  0
  179.2580  175.3410  136.9520 C   0  0  0  0  0  2  0  0  0  0  0  0
  185.5830  178.6360  139.3230 C   0  0  0  0  0  2  0  0  0  0  0  0
  183.3530  178.0070  140.2450 C   0  0  1  0  0  3  0  0  0  0  0  0
  179.8870  182.2280  138.9150 C   0  0  0  0  0  3  0  0  0  0  0  0
  181.5890  181.4850  137.3840 C   0  0  0  0  0  3  0  0  0  0  0  0
  180.7760  179.9540  139.1260 C   0  0  0  0  0  0  0  0  0  0  0  0
  180.7380  182.4870  137.8360 C   0  0  0  0  0  0  0  0  0  0  0  0
  181.5990  180.2400  138.0140 C   0  0  0  0  0  3  0  0  0  0  0  0
  179.8860  180.9830  139.5520 C   0  0  0  0  0  0  0  0  0  0  0  0
  178.9310  180.8400  140.6800 C   0  0  0  0  0  1  0  0  0  0  0  0
  180.7500  183.6560  135.6420 C   0  0  0  0  0  1  0  0  0  0  0  0
  181.9320  184.6540  137.5930 C   0  0  0  0  0  1  0  0  0  0  0  0
  180.7450  183.8180  137.1510 C   0  0  0  0  0  3  0  0  0  0  0  0
  179.0960  178.2790  137.2660 O   0  0  0  0  0  0  0  0  0  0  0  0
  178.9310  178.8580  136.0050 C   0  0  0  0  0  1  0  0  0  0  0  0
  179.5140  178.2650  140.5020 C   0  0  0  0  0  2  0  0  0  0  0  0
  179.7210  177.4910  141.8000 C   0  0  0  0  0  2  0  0  0  0  0  0
  179.0740  178.1520  142.8420 O   0  0  0  0  0  1  0  0  0  0  0  0
  1 28  1  1  0  0  0
  1  2  1  0  0  0  0
  2  5  1  0  0  0  0
  2 13  1  0  0  0  0
  3 12  1  0  0  0  0
  3  8  1  0  0  0  0
  4 17  1  0  0  0  0
  5 14  1  0  0  0  0
  6  7  1  0  0  0  0
  6 16  1  0  0  0  0
  7 14  2  0  0  0  0
  8  5  1  0  0  0  0
  9  8  1  0  0  0  0
  9  7  1  0  0  0  0
 10  3  1  0  0  0  0
 10 15  1  0  0  0  0
 10  1  1  0  0  0  0
 13 30  1  0  0  0  0
 13 11  1  0  0  0  0
 14 17  1  0  0  0  0
 15 12  1  0  0  0  0
 16  4  1  0  0  0  0
 17 11  1  0  0  0  0
 18 23  1  0  0  0  0
 19 21  1  0  0  0  0
 19 22  2  0  0  0  0
 20 23  2  0  0  0  0
 20 13  1  0  0  0  0
 21 18  2  0  0  0  0
 22 20  1  0  0  0  0
 23 24  1  0  0  0  0
 25 27  1  0  0  0  0
 27 26  1  0  0  0  0
 27 21  1  0  0  0  0
 29 28  1  0  0  0  0
 30 31  1  0  0  0  0
 31 32  1  0  0  0  0
M  END
>  <MODEL>
1

>  <REMARK>
 VINA RESULT:      -5.0      0.000      0.000
  Name = 
  5 active torsions:
  status: ('A' for Active; 'I' for Inactive)
    1  A    between atoms: C_1  and  C_4
    2  A    between atoms: C_1  and  C_27
    3  A    between atoms: C_2  and  O_14
    4  A    between atoms: C_16  and  C_27
    5  A    between atoms: C_19  and  C_26
                            x       y       z     vdW  Elec       q    Type
                         _______ _______ _______ _____ _____    ______ ____

>  <TORSDO>
F 5

$$$$
=
 OpenBabel10262421033D

 32 37  0  0  1  0  0  0  0  0999 V2000
  181.1340  179.3970  137.7960 C   0  0  1  0  0  3  0  0  0  0  0  0
  180.7430  177.9050  137.7980 C   0  0  1  0  0  3  0  0  0  0  0  0
  180.7040  179.4180  135.2220 C   0  0  2  0  0  3  0  0  0  0  0  0
  183.6270  175.0360  138.0970 C   0  0  0  0  0  2  0  0  0  0  0  0
  180.8690  177.1310  136.4740 C   0  0  1  0  0  3  0  0  0  0  0  0
  184.4380  176.0530  135.9320 C   0  0  0  0  0  2  0  0  0  0  0  0
  183.0370  176.5870  135.7710 C   0  0  0  0  0  0  0  0  0  0  0  0
  181.2110  177.9740  135.2430 C   0  0  2  0  0  3  0  0  0  0  0  0
  182.7090  177.8160  134.9980 C   0  0  0  0  0  2  0  0  0  0  0  0
  180.6950  180.1700  136.5380 C   0  0  1  0  0  3  0  0  0  0  0  0
  181.2500  175.5610  138.8620 C   0  0  0  0  0  2  0  0  0  0  0  0
  179.3010  179.4320  135.1300 O   0  0  0  0  0  0  0  0  0  0  0  0
  180.9160  177.0610  139.1150 C   0  0  1  0  0  0  0  0  0  0  0  0
  182.0350  176.2340  136.5730 C   0  0  0  0  0  0  0  0  0  0  0  0
  179.2000  180.1390  136.3420 C   0  0  0  0  0  2  0  0  0  0  0  0
  184.4870  174.8220  136.8490 C   0  0  0  0  0  2  0  0  0  0  0  0
  182.1700  175.2280  137.6770 C   0  0  1  0  0  3  0  0  0  0  0  0
  182.6510  178.7470  142.1770 C   0  0  0  0  0  3  0  0  0  0  0  0
  184.3180  178.1210  140.5570 C   0  0  0  0  0  3  0  0  0  0  0  0
  181.9550  177.6050  140.1240 C   0  0  0  0  0  0  0  0  0  0  0  0
  183.9910  178.6920  141.7820 C   0  0  0  0  0  0  0  0  0  0  0  0
  183.3150  177.5960  139.7420 C   0  0  0  0  0  3  0  0  0  0  0  0
  181.6370  178.2270  141.3670 C   0  0  0  0  0  0  0  0  0  0  0  0
  180.2580  178.3530  141.9030 C   0  0  0  0  0  1  0  0  0  0  0  0
  186.1790  178.2220  142.8650 C   0  0  0  0  0  1  0  0  0  0  0  0
  184.5340  179.7220  143.9790 C   0  0  0  0  0  1  0  0  0  0  0  0
  185.0810  179.2460  142.6450 C   0  0  0  0  0  3  0  0  0  0  0  0
  180.6230  180.0350  138.9340 O   0  0  0  0  0  0  0  0  0  0  0  0
  181.3320  181.2340  139.0390 C   0  0  0  0  0  1  0  0  0  0  0  0
  179.5170  177.0820  139.7730 C   0  0  0  0  0  2  0  0  0  0  0  0
  178.9310  175.6980  140.0340 C   0  0  0  0  0  2  0  0  0  0  0  0
  178.9590  175.4330  141.4010 O   0  0  0  0  0  1  0  0  0  0  0  0
  1  2  1  0  0  0  0
  1 28  1  1  0  0  0
  2 13  1  0  0  0  0
  3  8  1  0  0  0  0
  3 10  1  0  0  0  0
  5 14  1  0  0  0  0
  5  2  1  0  0  0  0
  6 16  1  0  0  0  0
  7  6  1  0  0  0  0
  7 14  2  0  0  0  0
  8  5  1  0  0  0  0
  9  8  1  0  0  0  0
  9  7  1  0  0  0  0
 10  1  1  0  0  0  0
 11 13  1  0  0  0  0
 12  3  1  0  0  0  0
 12 15  1  0  0  0  0
 13 30  1  0  0  0  0
 13 20  1  0  0  0  0
 14 17  1  0  0  0  0
 15 10  1  0  0  0  0
 16  4  1  0  0  0  0
 17  4  1  0  0  0  0
 17 11  1  0  0  0  0
 19 21  2  0  0  0  0
 20 23  1  0  0  0  0
 21 18  1  0  0  0  0
 21 27  1  0  0  0  0
 22 20  2  0  0  0  0
 22 19  1  0  0  0  0
 23 24  1  0  0  0  0
 23 18  2  0  0  0  0
 27 25  1  0  0  0  0
 27 26  1  0  0  0  0
 28 29  1  0  0  0  0
 30 31  1  0  0  0  0
 31 32  1  0  0  0  0
M  END
>  <MODEL>
2

>  <REMARK>
 VINA RESULT:      -4.9      2.053      4.548
  Name = 
  5 active torsions:
  status: ('A' for Active; 'I' for Inactive)
    1  A    between atoms: C_1  and  C_4
    2  A    between atoms: C_1  and  C_27
    3  A    between atoms: C_2  and  O_14
    4  A    between atoms: C_16  and  C_27
    5  A    between atoms: C_19  and  C_26
                            x       y       z     vdW  Elec       q    Type
                         _______ _______ _______ _____ _____    ______ ____

>  <TORSDO>
F 5

$$$$
=
 OpenBabel10262421033D

 32 37  0  0  1  0  0  0  0  0999 V2000
  181.4890  178.9430  141.5880 C   0  0  1  0  0  3  0  0  0  0  0  0
  180.4210  178.3730  140.6320 C   0  0  1  0  0  3  0  0  0  0  0  0
  179.5920  180.2970  142.7630 C   0  0  2  0  0  3  0  0  0  0  0  0
  180.1420  179.7690  136.8100 C   0  0  0  0  0  2  0  0  0  0  0  0
  179.1230  179.1770  140.4480 C   0  0  1  0  0  3  0  0  0  0  0  0
  179.6590  181.9610  137.9670 C   0  0  0  0  0  2  0  0  0  0  0  0
  179.2650  181.1320  139.1630 C   0  0  0  0  0  0  0  0  0  0  0  0
  178.9560  180.3860  141.3730 C   0  0  2  0  0  3  0  0  0  0  0  0
  179.3460  181.6210  140.5670 C   0  0  0  0  0  2  0  0  0  0  0  0
  180.9230  179.5800  142.8710 C   0  0  1  0  0  3  0  0  0  0  0  0
  179.9400  177.6180  138.1660 C   0  0  0  0  0  2  0  0  0  0  0  0
  178.9310  179.3230  143.5310 O   0  0  0  0  0  0  0  0  0  0  0  0
  180.8680  177.4880  139.4090 C   0  0  1  0  0  0  0  0  0  0  0  0
  179.1540  179.8060  139.1140 C   0  0  0  0  0  0  0  0  0  0  0  0
  180.1250  178.5960  143.6900 C   0  0  0  0  0  2  0  0  0  0  0  0
  179.5510  181.1720  136.6540 C   0  0  0  0  0  2  0  0  0  0  0  0
  179.3450  179.0020  137.8640 C   0  0  1  0  0  3  0  0  0  0  0  0
  184.5160  176.9630  138.1230 C   0  0  0  0  0  3  0  0  0  0  0  0
  184.1980  179.2770  138.7050 C   0  0  0  0  0  3  0  0  0  0  0  0
  182.3230  177.7040  138.9280 C   0  0  0  0  0  0  0  0  0  0  0  0
  185.0220  178.2620  138.2310 C   0  0  0  0  0  0  0  0  0  0  0  0
  182.8770  178.9980  139.0540 C   0  0  0  0  0  3  0  0  0  0  0  0
  183.1940  176.6710  138.4730 C   0  0  0  0  0  0  0  0  0  0  0  0
  182.7860  175.2520  138.3140 C   0  0  0  0  0  1  0  0  0  0  0  0
  186.7620  178.0720  136.4650 C   0  0  0  0  0  1  0  0  0  0  0  0
  187.4120  178.0070  138.8670 C   0  0  0  0  0  1  0  0  0  0  0  0
  186.4360  178.5820  137.8570 C   0  0  0  0  0  3  0  0  0  0  0  0
  182.4140  177.9490  141.9320 O   0  0  0  0  0  0  0  0  0  0  0  0
  183.4960  178.6260  142.4990 C   0  0  0  0  0  1  0  0  0  0  0  0
  180.7150  176.0330  139.9090 C   0  0  0  0  0  2  0  0  0  0  0  0
  179.2680  175.5650  140.0280 C   0  0  0  0  0  2  0  0  0  0  0  0
  178.9950  175.2350  141.3530 O   0  0  0  0  0  1  0  0  0  0  0  0
  1 28  1  1  0  0  0
  1 10  1  0  0  0  0
  2  1  1  0  0  0  0
  3 10  1  0  0  0  0
  3 12  1  0  0  0  0
  4 17  1  0  0  0  0
  5  2  1  0  0  0  0
  5  8  1  0  0  0  0
  6  7  1  0  0  0  0
  7  9  1  0  0  0  0
  8  3  1  0  0  0  0
  9  8  1  0  0  0  0
 10 15  1  0  0  0  0
 11 13  1  0  0  0  0
 12 15  1  0  0  0  0
 13 30  1  0  0  0  0
 13  2  1  0  0  0  0
 14  7  2  0  0  0  0
 14  5  1  0  0  0  0
 16  4  1  0  0  0  0
 16  6  1  0  0  0  0
 17 11  1  0  0  0  0
 17 14  1  0  0  0  0
 18 21  2  0  0  0  0
 18 23  1  0  0  0  0
 19 22  2  0  0  0  0
 20 22  1  0  0  0  0
 20 13  1  0  0  0  0
 21 19  1  0  0  0  0
 23 20  2  0  0  0  0
 24 23  1  0  0  0  0
 25 27  1  0  0  0  0
 27 21  1  0  0  0  0
 27 26  1  0  0  0  0
 28 29  1  0  0  0  0
 30 31  1  0  0  0  0
 31 32  1  0  0  0  0
M  END
>  <MODEL>
3

>  <REMARK>
 VINA RESULT:      -4.8      2.008      5.986
  Name = 
  5 active torsions:
  status: ('A' for Active; 'I' for Inactive)
    1  A    between atoms: C_1  and  C_4
    2  A    between atoms: C_1  and  C_27
    3  A    between atoms: C_2  and  O_14
    4  A    between atoms: C_16  and  C_27
    5  A    between atoms: C_19  and  C_26
                            x       y       z     vdW  Elec       q    Type
                         _______ _______ _______ _____ _____    ______ ____

>  <TORSDO>
F 5

$$$$
=
 OpenBabel10262421033D

 32 37  0  0  1  0  0  0  0  0999 V2000
  180.8200  177.1870  140.4470 C   0  0  1  0  0  3  0  0  0  0  0  0
  181.5080  178.4700  139.9350 C   0  0  1  0  0  3  0  0  0  0  0  0
  180.5760  178.3480  142.7720 C   0  0  2  0  0  3  0  0  0  0  0  0
  185.5540  178.5550  139.4250 C   0  0  0  0  0  2  0  0  0  0  0  0
  182.1600  179.3950  140.9760 C   0  0  1  0  0  3  0  0  0  0  0  0
  185.5730  178.1010  141.9100 C   0  0  0  0  0  2  0  0  0  0  0  0
  184.1740  178.6630  141.9260 C   0  0  0  0  0  0  0  0  0  0  0  0
  181.9080  179.0280  142.4410 C   0  0  2  0  0  3  0  0  0  0  0  0
  183.1470  178.2860  142.9340 C   0  0  0  0  0  2  0  0  0  0  0  0
  180.0270  177.3670  141.7550 C   0  0  1  0  0  3  0  0  0  0  0  0
  183.3930  179.4090  138.3710 C   0  0  0  0  0  2  0  0  0  0  0  0
  179.5150  179.2490  142.5720 O   0  0  0  0  0  0  0  0  0  0  0  0
  182.1450  178.4860  138.4970 C   0  0  1  0  0  0  0  0  0  0  0  0
  183.6250  179.2540  140.8670 C   0  0  0  0  0  0  0  0  0  0  0  0
  178.9310  178.3940  141.6210 C   0  0  0  0  0  2  0  0  0  0  0  0
  186.3870  178.6040  140.7080 C   0  0  0  0  0  2  0  0  0  0  0  0
  184.3470  179.4810  139.5730 C   0  0  1  0  0  3  0  0  0  0  0  0
  182.5310  175.3360  136.2230 C   0  0  0  0  0  3  0  0  0  0  0  0
  183.4980  174.8890  138.3810 C   0  0  0  0  0  3  0  0  0  0  0  0
  182.5320  177.1010  137.9230 C   0  0  0  0  0  0  0  0  0  0  0  0
  183.1880  174.4620  137.0940 C   0  0  0  0  0  0  0  0  0  0  0  0
  183.1670  176.1820  138.7870 C   0  0  0  0  0  3  0  0  0  0  0  0
  182.1910  176.6330  136.6200 C   0  0  0  0  0  0  0  0  0  0  0  0
  181.4920  177.4550  135.6000 C   0  0  0  0  0  1  0  0  0  0  0  0
  182.3860  172.1220  136.8500 C   0  0  0  0  0  1  0  0  0  0  0  0
  184.7610  172.5700  137.4470 C   0  0  0  0  0  1  0  0  0  0  0  0
  183.5550  173.0730  136.6750 C   0  0  0  0  0  3  0  0  0  0  0  0
  179.9750  176.6630  139.4600 O   0  0  0  0  0  0  0  0  0  0  0  0
  179.8170  175.3130  139.7830 C   0  0  0  0  0  1  0  0  0  0  0  0
  181.0550  179.1150  137.5990 C   0  0  0  0  0  2  0  0  0  0  0  0
  181.1660  180.6300  137.4540 C   0  0  0  0  0  2  0  0  0  0  0  0
  180.1240  181.2390  138.1500 O   0  0  0  0  0  1  0  0  0  0  0  0
  1 28  1  6  0  0  0
  1 10  1  0  0  0  0
  2  1  1  0  0  0  0
  2  5  1  0  0  0  0
  4 17  1  0  0  0  0
  4 16  1  0  0  0  0
  5  8  1  0  0  0  0
  6  7  1  0  0  0  0
  7  9  1  0  0  0  0
  8  3  1  0  0  0  0
  8  9  1  0  0  0  0
 10  3  1  0  0  0  0
 11 13  1  0  0  0  0
 11 17  1  0  0  0  0
 12  3  1  0  0  0  0
 13  2  1  0  0  0  0
 14  5  1  0  0  0  0
 14  7  2  0  0  0  0
 15 10  1  0  0  0  0
 15 12  1  0  0  0  0
 16  6  1  0  0  0  0
 17 14  1  0  0  0  0
 18 23  2  0  0  0  0
 18 21  1  0  0  0  0
 19 22  1  0  0  0  0
 20 13  1  0  0  0  0
 20 22  2  0  0  0  0
 21 19  2  0  0  0  0
 23 20  1  0  0  0  0
 24 23  1  0  0  0  0
 27 25  1  0  0  0  0
 27 21  1  0  0  0  0
 27 26  1  0  0  0  0
 28 29  1  0  0  0  0
 30 13  1  0  0  0  0
 31 30  1  0  0  0  0
 31 32  1  0  0  0  0
M  END
>  <MODEL>
4

>  <REMARK>
 VINA RESULT:      -4.5      2.023      5.983
  Name = 
  5 active torsions:
  status: ('A' for Active; 'I' for Inactive)
    1  A    between atoms: C_1  and  C_4
    2  A    between atoms: C_1  and  C_27
    3  A    between atoms: C_2  and  O_14
    4  A    between atoms: C_16  and  C_27
    5  A    between atoms: C_19  and  C_26
                            x       y       z     vdW  Elec       q    Type
                         _______ _______ _______ _____ _____    ______ ____

>  <TORSDO>
F 5

$$$$
=
 OpenBabel10262421033D

 32 37  0  0  1  0  0  0  0  0999 V2000
  183.5400  177.5930  138.2620 C   0  0  1  0  0  3  0  0  0  0  0  0
  182.4600  177.6740  137.1640 C   0  0  1  0  0  3  0  0  0  0  0  0
  184.8600  175.9480  136.7250 C   0  0  2  0  0  3  0  0  0  0  0  0
  178.9310  175.6810  137.6160 C   0  0  0  0  0  2  0  0  0  0  0  0
  182.3700  176.5100  136.1630 C   0  0  1  0  0  3  0  0  0  0  0  0
  180.4310  173.6500  137.6660 C   0  0  0  0  0  2  0  0  0  0  0  0
  181.4500  174.5050  136.9550 C   0  0  0  0  0  0  0  0  0  0  0  0
  183.4830  175.4630  136.2610 C   0  0  2  0  0  3  0  0  0  0  0  0
  182.9190  174.2850  137.0480 C   0  0  0  0  0  2  0  0  0  0  0  0
  184.8920  177.0280  137.7880 C   0  0  1  0  0  3  0  0  0  0  0  0
  179.8840  177.8650  136.7050 C   0  0  0  0  0  2  0  0  0  0  0  0
  185.4220  176.7950  135.7540 O   0  0  0  0  0  0  0  0  0  0  0  0
  181.1210  178.4490  137.4500 C   0  0  1  0  0  0  0  0  0  0  0  0
  181.1680  175.7170  136.4830 C   0  0  0  0  0  0  0  0  0  0  0  0
  185.4970  177.8520  136.6800 C   0  0  0  0  0  2  0  0  0  0  0  0
  178.9980  174.1600  137.4560 C   0  0  0  0  0  2  0  0  0  0  0  0
  179.8050  176.3380  136.5480 C   0  0  1  0  0  3  0  0  0  0  0  0
  180.3230  179.8470  141.0050 C   0  0  0  0  0  3  0  0  0  0  0  0
  180.3490  177.4420  141.0790 C   0  0  0  0  0  3  0  0  0  0  0  0
  180.7390  178.5910  138.9430 C   0  0  0  0  0  0  0  0  0  0  0  0
  180.1880  178.6600  141.7300 C   0  0  0  0  0  0  0  0  0  0  0  0
  180.6280  177.4120  139.7130 C   0  0  0  0  0  3  0  0  0  0  0  0
  180.6050  179.8300  139.6360 C   0  0  0  0  0  0  0  0  0  0  0  0
  180.7270  181.1610  138.9890 C   0  0  0  0  0  1  0  0  0  0  0  0
  179.0170  179.8610  143.5660 C   0  0  0  0  0  1  0  0  0  0  0  0
  181.1600  178.6770  144.0190 C   0  0  0  0  0  1  0  0  0  0  0  0
  179.8840  178.6710  143.1960 C   0  0  0  0  0  3  0  0  0  0  0  0
  183.7410  178.8540  138.8400 O   0  0  0  0  0  0  0  0  0  0  0  0
  184.2050  178.6020  140.1330 C   0  0  0  0  0  1  0  0  0  0  0  0
  181.3540  179.8560  136.8540 C   0  0  0  0  0  2  0  0  0  0  0  0
  180.7480  180.0540  135.4680 C   0  0  0  0  0  2  0  0  0  0  0  0
  180.0310  181.2470  135.4410 O   0  0  0  0  0  1  0  0  0  0  0  0
  1 28  1  6  0  0  0
  2 13  1  0  0  0  0
  2  1  1  0  0  0  0
  3 10  1  0  0  0  0
  5  8  1  0  0  0  0
  5 14  1  0  0  0  0
  5  2  1  0  0  0  0
  7  9  1  0  0  0  0
  7  6  1  0  0  0  0
  8  3  1  0  0  0  0
  8  9  1  0  0  0  0
 10  1  1  0  0  0  0
 11 13  1  0  0  0  0
 12 15  1  0  0  0  0
 12  3  1  0  0  0  0
 13 20  1  0  0  0  0
 14 17  1  0  0  0  0
 14  7  2  0  0  0  0
 15 10  1  0  0  0  0
 16  4  1  0  0  0  0
 16  6  1  0  0  0  0
 17 11  1  0  0  0  0
 17  4  1  0  0  0  0
 18 21  1  0  0  0  0
 19 21  2  0  0  0  0
 20 23  1  0  0  0  0
 20 22  2  0  0  0  0
 21 27  1  0  0  0  0
 22 19  1  0  0  0  0
 23 18  2  0  0  0  0
 24 23  1  0  0  0  0
 27 25  1  0  0  0  0
 27 26  1  0  0  0  0
 28 29  1  0  0  0  0
 30 13  1  0  0  0  0
 31 30  1  0  0  0  0
 32 31  1  0  0  0  0
M  END
>  <MODEL>
5

>  <REMARK>
 VINA RESULT:      -4.3      2.266      5.311
  Name = 
  5 active torsions:
  status: ('A' for Active; 'I' for Inactive)
    1  A    between atoms: C_1  and  C_4
    2  A    between atoms: C_1  and  C_27
    3  A    between atoms: C_2  and  O_14
    4  A    between atoms: C_16  and  C_27
    5  A    between atoms: C_19  and  C_26
                            x       y       z     vdW  Elec       q    Type
                         _______ _______ _______ _____ _____    ______ ____

>  <TORSDO>
F 5

$$$$
=
 OpenBabel10262421033D

 32 37  0  0  1  0  0  0  0  0999 V2000
  182.1260  176.3490  139.3570 C   0  0  1  0  0  3  0  0  0  0  0  0
  181.3600  177.6870  139.4210 C   0  0  1  0  0  3  0  0  0  0  0  0
  179.8230  175.1400  139.1390 C   0  0  2  0  0  3  0  0  0  0  0  0
  180.9090  179.6170  142.9850 C   0  0  0  0  0  2  0  0  0  0  0  0
  179.8890  177.6490  139.8690 C   0  0  1  0  0  3  0  0  0  0  0  0
  179.6780  177.5080  143.6280 C   0  0  0  0  0  2  0  0  0  0  0  0
  179.4890  177.2830  142.1480 C   0  0  0  0  0  0  0  0  0  0  0  0
  179.2850  176.2530  140.0430 C   0  0  2  0  0  3  0  0  0  0  0  0
  179.3160  175.9380  141.5360 C   0  0  0  0  0  2  0  0  0  0  0  0
  181.3020  175.1680  138.8100 C   0  0  1  0  0  3  0  0  0  0  0  0
  181.3100  180.0740  140.5080 C   0  0  0  0  0  2  0  0  0  0  0  0
  179.4550  175.3870  137.8050 O   0  0  0  0  0  0  0  0  0  0  0  0
  182.1460  179.0150  139.7310 C   0  0  1  0  0  0  0  0  0  0  0  0
  179.8080  178.1970  141.2360 C   0  0  0  0  0  0  0  0  0  0  0  0
  180.8040  175.4210  137.4090 C   0  0  0  0  0  2  0  0  0  0  0  0
  179.9150  178.9880  143.9640 C   0  0  0  0  0  2  0  0  0  0  0  0
  180.3280  179.5620  141.5730 C   0  0  1  0  0  3  0  0  0  0  0  0
  185.9230  178.6310  140.6390 C   0  0  0  0  0  3  0  0  0  0  0  0
  184.5850  178.2520  142.6030 C   0  0  0  0  0  3  0  0  0  0  0  0
  183.4860  178.8360  140.4850 C   0  0  0  0  0  0  0  0  0  0  0  0
  185.8360  178.3260  142.0000 C   0  0  0  0  0  0  0  0  0  0  0  0
  183.4340  178.4940  141.8540 C   0  0  0  0  0  3  0  0  0  0  0  0
  184.7760  178.8720  139.8770 C   0  0  0  0  0  0  0  0  0  0  0  0
  185.0090  179.1800  138.4430 C   0  0  0  0  0  1  0  0  0  0  0  0
  188.1820  177.5030  141.9690 C   0  0  0  0  0  1  0  0  0  0  0  0
  186.7570  177.1310  143.9760 C   0  0  0  0  0  1  0  0  0  0  0  0
  187.0610  178.0680  142.8210 C   0  0  0  0  0  3  0  0  0  0  0  0
  183.2930  176.4920  138.5970 O   0  0  0  0  0  0  0  0  0  0  0  0
  183.7350  175.1920  138.3420 C   0  0  0  0  0  1  0  0  0  0  0  0
  182.4300  179.6290  138.3400 C   0  0  0  0  0  2  0  0  0  0  0  0
  181.5550  180.8310  138.0010 C   0  0  0  0  0  2  0  0  0  0  0  0
  180.7330  180.5160  136.9210 O   0  0  0  0  0  1  0  0  0  0  0  0
  1 28  1  6  0  0  0
  1  2  1  0  0  0  0
  2 13  1  0  0  0  0
  2  5  1  0  0  0  0
  3  8  1  0  0  0  0
  4 16  1  0  0  0  0
  5  8  1  0  0  0  0
  5 14  1  0  0  0  0
  6 16  1  0  0  0  0
  7  6  1  0  0  0  0
  8  9  1  0  0  0  0
  9  7  1  0  0  0  0
 10  3  1  0  0  0  0
 10  1  1  0  0  0  0
 11 17  1  0  0  0  0
 12  3  1  0  0  0  0
 13 20  1  0  0  0  0
 13 11  1  0  0  0  0
 14 17  1  0  0  0  0
 14  7  2  0  0  0  0
 15 12  1  0  0  0  0
 15 10  1  0  0  0  0
 17  4  1  0  0  0  0
 18 21  1  0  0  0  0
 20 22  2  0  0  0  0
 21 19  2  0  0  0  0
 21 27  1  0  0  0  0
 22 19  1  0  0  0  0
 23 20  1  0  0  0  0
 23 18  2  0  0  0  0
 24 23  1  0  0  0  0
 25 27  1  0  0  0  0
 27 26  1  0  0  0  0
 29 28  1  0  0  0  0
 30 13  1  0  0  0  0
 31 30  1  0  0  0  0
 32 31  1  0  0  0  0
M  END
>  <MODEL>
6

>  <REMARK>
 VINA RESULT:      -4.2      2.159      5.816
  Name = 
  5 active torsions:
  status: ('A' for Active; 'I' for Inactive)
    1  A    between atoms: C_1  and  C_4
    2  A    between atoms: C_1  and  C_27
    3  A    between atoms: C_2  and  O_14
    4  A    between atoms: C_16  and  C_27
    5  A    between atoms: C_19  and  C_26
                            x       y       z     vdW  Elec       q    Type
                         _______ _______ _______ _____ _____    ______ ____

>  <TORSDO>
F 5

$$$$
=
 OpenBabel10262421033D

 32 37  0  0  1  0  0  0  0  0999 V2000
  182.5970  176.0680  137.0110 C   0  0  1  0  0  3  0  0  0  0  0  0
  181.1360  176.5380  137.1720 C   0  0  1  0  0  3  0  0  0  0  0  0
  181.6850  173.9000  135.8800 C   0  0  2  0  0  3  0  0  0  0  0  0
  179.3210  176.3560  140.8190 C   0  0  0  0  0  2  0  0  0  0  0  0
  180.0350  175.4640  137.1700 C   0  0  1  0  0  3  0  0  0  0  0  0
  179.7570  173.8800  140.5770 C   0  0  0  0  0  2  0  0  0  0  0  0
  179.8480  174.1390  139.0940 C   0  0  0  0  0  0  0  0  0  0  0  0
  180.4960  174.0430  136.8350 C   0  0  2  0  0  3  0  0  0  0  0  0
  180.6430  173.2980  138.1580 C   0  0  0  0  0  2  0  0  0  0  0  0
  182.7920  174.9280  135.9930 C   0  0  1  0  0  3  0  0  0  0  0  0
  179.4590  177.8160  138.7330 C   0  0  0  0  0  2  0  0  0  0  0  0
  181.3220  174.3360  134.5940 O   0  0  0  0  0  0  0  0  0  0  0  0
  180.8290  177.8450  137.9930 C   0  0  1  0  0  0  0  0  0  0  0  0
  179.5350  175.3120  138.5490 C   0  0  0  0  0  0  0  0  0  0  0  0
  182.3320  175.3150  134.6100 C   0  0  0  0  0  2  0  0  0  0  0  0
  178.9380  174.9560  141.3050 C   0  0  0  0  0  2  0  0  0  0  0  0
  179.0020  176.4760  139.3300 C   0  0  1  0  0  3  0  0  0  0  0  0
  183.5060  179.7960  140.0570 C   0  0  0  0  0  3  0  0  0  0  0  0
  183.4640  177.4980  140.7700 C   0  0  0  0  0  3  0  0  0  0  0  0
  181.9070  178.2520  139.0260 C   0  0  0  0  0  0  0  0  0  0  0  0
  183.9940  178.7790  140.8820 C   0  0  0  0  0  0  0  0  0  0  0  0
  182.4460  177.2410  139.8520 C   0  0  0  0  0  3  0  0  0  0  0  0
  182.4880  179.5500  139.1310 C   0  0  0  0  0  0  0  0  0  0  0  0
  182.0660  180.7160  138.3140 C   0  0  0  0  0  1  0  0  0  0  0  0
  186.4490  178.7640  141.2740 C   0  0  0  0  0  1  0  0  0  0  0  0
  184.8870  178.2030  143.1300 C   0  0  0  0  0  1  0  0  0  0  0  0
  185.0830  179.0360  141.8760 C   0  0  0  0  0  3  0  0  0  0  0  0
  183.4190  177.1480  136.6620 O   0  0  0  0  0  0  0  0  0  0  0  0
  184.7100  176.7710  137.0400 C   0  0  0  0  0  1  0  0  0  0  0  0
  180.7140  178.9550  136.9220 C   0  0  0  0  0  2  0  0  0  0  0  0
  179.3720  178.9850  136.1980 C   0  0  0  0  0  2  0  0  0  0  0  0
  179.2730  180.1570  135.4530 O   0  0  0  0  0  1  0  0  0  0  0  0
  1 28  1  6  0  0  0
  1  2  1  0  0  0  0
  2 13  1  0  0  0  0
  3 10  1  0  0  0  0
  3  8  1  0  0  0  0
  4 16  1  0  0  0  0
  5  2  1  0  0  0  0
  5 14  1  0  0  0  0
  6 16  1  0  0  0  0
  7  6  1  0  0  0  0
  8  5  1  0  0  0  0
  8  9  1  0  0  0  0
  9  7  1  0  0  0  0
 10  1  1  0  0  0  0
 11 17  1  0  0  0  0
 12 15  1  0  0  0  0
 12  3  1  0  0  0  0
 13 11  1  0  0  0  0
 13 20  1  0  0  0  0
 14  7  2  0  0  0  0
 14 17  1  0  0  0  0
 15 10  1  0  0  0  0
 17  4  1  0  0  0  0
 18 21  1  0  0  0  0
 19 21  2  0  0  0  0
 20 23  1  0  0  0  0
 20 22  2  0  0  0  0
 21 27  1  0  0  0  0
 22 19  1  0  0  0  0
 23 18  2  0  0  0  0
 24 23  1  0  0  0  0
 25 27  1  0  0  0  0
 27 26  1  0  0  0  0
 28 29  1  0  0  0  0
 30 13  1  0  0  0  0
 31 30  1  0  0  0  0
 32 31  1  0  0  0  0
M  END
>  <MODEL>
7

>  <REMARK>
 VINA RESULT:      -4.2      2.417      5.096
  Name = 
  5 active torsions:
  status: ('A' for Active; 'I' for Inactive)
    1  A    between atoms: C_1  and  C_4
    2  A    between atoms: C_1  and  C_27
    3  A    between atoms: C_2  and  O_14
    4  A    between atoms: C_16  and  C_27
    5  A    between atoms: C_19  and  C_26
                            x       y       z     vdW  Elec       q    Type
                         _______ _______ _______ _____ _____    ______ ____

>  <TORSDO>
F 5

$$$$
=
 OpenBabel10262421033D

 32 37  0  0  1  0  0  0  0  0999 V2000
  186.6730  175.5130  137.4980 C   0  0  1  0  0  3  0  0  0  0  0  0
  186.0370  176.8910  137.2170 C   0  0  1  0  0  3  0  0  0  0  0  0
  184.4930  174.4150  136.5730 C   0  0  2  0  0  3  0  0  0  0  0  0
  184.5580  179.1250  140.2910 C   0  0  0  0  0  2  0  0  0  0  0  0
  184.5040  176.9670  137.1340 C   0  0  1  0  0  3  0  0  0  0  0  0
  183.0220  177.1430  140.5940 C   0  0  0  0  0  2  0  0  0  0  0  0
  183.3280  176.8100  139.1550 C   0  0  0  0  0  0  0  0  0  0  0  0
  183.7700  175.6250  137.1720 C   0  0  2  0  0  3  0  0  0  0  0  0
  183.2690  175.4300  138.6000 C   0  0  0  0  0  2  0  0  0  0  0  0
  185.9930  174.3370  136.7710 C   0  0  1  0  0  3  0  0  0  0  0  0
  185.8090  179.3570  138.0800 C   0  0  0  0  0  2  0  0  0  0  0  0
  184.6190  174.5720  135.1810 O   0  0  0  0  0  0  0  0  0  0  0  0
  186.7730  178.1950  137.7000 C   0  0  1  0  0  0  0  0  0  0  0  0
  184.0070  177.6290  138.3560 C   0  0  0  0  0  0  0  0  0  0  0  0
  186.0210  174.5020  135.2710 C   0  0  0  0  0  2  0  0  0  0  0  0
  183.2460  178.6310  140.9040 C   0  0  0  0  0  2  0  0  0  0  0  0
  184.4870  178.9870  138.7710 C   0  0  1  0  0  3  0  0  0  0  0  0
  189.9630  177.5920  139.8660 C   0  0  0  0  0  3  0  0  0  0  0  0
  188.0270  177.6590  141.2940 C   0  0  0  0  0  3  0  0  0  0  0  0
  187.7600  178.0070  138.8770 C   0  0  0  0  0  0  0  0  0  0  0  0
  189.4020  177.5150  141.1440 C   0  0  0  0  0  0  0  0  0  0  0  0
  187.2240  177.8920  140.1780 C   0  0  0  0  0  3  0  0  0  0  0  0
  189.1680  177.8220  138.7400 C   0  0  0  0  0  0  0  0  0  0  0  0
  189.8890  177.8760  137.4430 C   0  0  0  0  0  1  0  0  0  0  0  0
  190.0950  175.8450  142.8510 C   0  0  0  0  0  1  0  0  0  0  0  0
  189.9140  178.2510  143.4630 C   0  0  0  0  0  1  0  0  0  0  0  0
  190.2490  177.2700  142.3540 C   0  0  0  0  0  3  0  0  0  0  0  0
  188.0360  175.5320  137.1770 O   0  0  0  0  0  0  0  0  0  0  0  0
  188.4490  174.1980  137.2230 C   0  0  0  0  0  1  0  0  0  0  0  0
  187.5570  178.6780  136.4580 C   0  0  0  0  0  2  0  0  0  0  0  0
  187.0720  178.0770  135.1430 C   0  0  0  0  0  2  0  0  0  0  0  0
  188.0810  177.2890  134.5940 O   0  0  0  0  0  1  0  0  0  0  0  0
  1 28  1  6  0  0  0
  2  1  1  0  0  0  0
  2 13  1  0  0  0  0
  3 10  1  0  0  0  0
  3  8  1  0  0  0  0
  4 16  1  0  0  0  0
  5  8  1  0  0  0  0
  5  2  1  0  0  0  0
  5 14  1  0  0  0  0
  6 16  1  0  0  0  0
  7  6  1  0  0  0  0
  8  9  1  0  0  0  0
  9  7  1  0  0  0  0
 10  1  1  0  0  0  0
 11 17  1  0  0  0  0
 12 15  1  0  0  0  0
 12  3  1  0  0  0  0
 13 11  1  0  0  0  0
 13 20  1  0  0  0  0
 14 17  1  0  0  0  0
 14  7  2  0  0  0  0
 15 10  1  0  0  0  0
 17  4  1  0  0  0  0
 18 21  1  0  0  0  0
 20 22  2  0  0  0  0
 21 19  2  0  0  0  0
 21 27  1  0  0  0  0
 22 19  1  0  0  0  0
 23 20  1  0  0  0  0
 23 18  2  0  0  0  0
 24 23  1  0  0  0  0
 27 25  1  0  0  0  0
 27 26  1  0  0  0  0
 28 29  1  0  0  0  0
 30 13  1  0  0  0  0
 31 30  1  0  0  0  0
 32 31  1  0  0  0  0
M  END
>  <MODEL>
8

>  <REMARK>
 VINA RESULT:      -4.0      4.228      7.842
  Name = 
  5 active torsions:
  status: ('A' for Active; 'I' for Inactive)
    1  A    between atoms: C_1  and  C_4
    2  A    between atoms: C_1  and  C_27
    3  A    between atoms: C_2  and  O_14
    4  A    between atoms: C_16  and  C_27
    5  A    between atoms: C_19  and  C_26
                            x       y       z     vdW  Elec       q    Type
                         _______ _______ _______ _____ _____    ______ ____

>  <TORSDO>
F 5

$$$$
=
 OpenBabel10262421033D

 32 37  0  0  1  0  0  0  0  0999 V2000
  183.3800  177.3550  138.3160 C   0  0  1  0  0  3  0  0  0  0  0  0
  181.8880  177.7450  138.3590 C   0  0  1  0  0  3  0  0  0  0  0  0
  182.8150  175.7450  136.3410 C   0  0  2  0  0  3  0  0  0  0  0  0
  179.4750  176.2730  141.2990 C   0  0  0  0  0  2  0  0  0  0  0  0
  180.8720  176.7500  137.7710 C   0  0  1  0  0  3  0  0  0  0  0  0
  180.0980  174.0480  140.2800 C   0  0  0  0  0  2  0  0  0  0  0  0
  180.4320  174.8230  139.0300 C   0  0  0  0  0  0  0  0  0  0  0  0
  181.4710  175.5420  137.0460 C   0  0  2  0  0  3  0  0  0  0  0  0
  181.4280  174.3700  138.0220 C   0  0  0  0  0  2  0  0  0  0  0  0
  183.8200  176.6570  137.0150 C   0  0  1  0  0  3  0  0  0  0  0  0
  179.8880  178.3860  139.9310 C   0  0  0  0  0  2  0  0  0  0  0  0
  182.6580  176.6170  135.2500 O   0  0  0  0  0  0  0  0  0  0  0  0
  181.3620  178.6710  139.5170 C   0  0  1  0  0  0  0  0  0  0  0  0
  180.1470  176.1160  138.8880 C   0  0  0  0  0  0  0  0  0  0  0  0
  183.5870  177.5180  135.7990 C   0  0  0  0  0  2  0  0  0  0  0  0
  179.0990  174.7950  141.1760 C   0  0  0  0  0  2  0  0  0  0  0  0
  179.4160  176.9240  139.9180 C   0  0  1  0  0  3  0  0  0  0  0  0
  182.6580  179.1930  143.1620 C   0  0  0  0  0  3  0  0  0  0  0  0
  184.4240  178.2770  141.8080 C   0  0  0  0  0  3  0  0  0  0  0  0
  182.2150  178.6720  140.8090 C   0  0  0  0  0  0  0  0  0  0  0  0
  183.9750  178.7410  143.0390 C   0  0  0  0  0  0  0  0  0  0  0  0
  183.5600  178.2530  140.7130 C   0  0  0  0  0  3  0  0  0  0  0  0
  181.7840  179.1770  142.0710 C   0  0  0  0  0  0  0  0  0  0  0  0
  180.4160  179.6890  142.3360 C   0  0  0  0  0  1  0  0  0  0  0  0
  185.9930  177.6960  144.0500 C   0  0  0  0  0  1  0  0  0  0  0  0
  184.1700  178.5580  145.5110 C   0  0  0  0  0  1  0  0  0  0  0  0
  184.9160  178.7540  144.2040 C   0  0  0  0  0  3  0  0  0  0  0  0
  184.1830  178.4830  138.5320 O   0  0  0  0  0  0  0  0  0  0  0  0
  185.4750  178.0980  138.1660 C   0  0  0  0  0  1  0  0  0  0  0  0
  181.3690  180.0920  138.9090 C   0  0  0  0  0  2  0  0  0  0  0  0
  179.9800  180.6550  138.6250 C   0  0  0  0  0  2  0  0  0  0  0  0
  179.8620  181.9150  139.2070 O   0  0  0  0  0  1  0  0  0  0  0  0
  1  2  1  0  0  0  0
  1 28  1  6  0  0  0
  2 13  1  0  0  0  0
  3 10  1  0  0  0  0
  3  8  1  0  0  0  0
  5  2  1  0  0  0  0
  5 14  1  0  0  0  0
  6 16  1  0  0  0  0
  7  6  1  0  0  0  0
  8  5  1  0  0  0  0
  8  9  1  0  0  0  0
  9  7  1  0  0  0  0
 10  1  1  0  0  0  0
 12 15  1  0  0  0  0
 12  3  1  0  0  0  0
 13 11  1  0  0  0  0
 13 20  1  0  0  0  0
 14  7  2  0  0  0  0
 14 17  1  0  0  0  0
 15 10  1  0  0  0  0
 16  4  1  0  0  0  0
 17 11  1  0  0  0  0
 17  4  1  0  0  0  0
 19 21  2  0  0  0  0
 20 23  1  0  0  0  0
 21 18  1  0  0  0  0
 21 27  1  0  0  0  0
 22 20  2  0  0  0  0
 22 19  1  0  0  0  0
 23 24  1  0  0  0  0
 23 18  2  0  0  0  0
 25 27  1  0  0  0  0
 27 26  1  0  0  0  0
 29 28  1  0  0  0  0
 30 13  1  0  0  0  0
 31 30  1  0  0  0  0
 31 32  1  0  0  0  0
M  END
>  <MODEL>
9

>  <REMARK>
 VINA RESULT:      -3.8      2.482      5.310
  Name = 
  5 active torsions:
  status: ('A' for Active; 'I' for Inactive)
    1  A    between atoms: C_1  and  C_4
    2  A    between atoms: C_1  and  C_27
    3  A    between atoms: C_2  and  O_14
    4  A    between atoms: C_16  and  C_27
    5  A    between atoms: C_19  and  C_26
                            x       y       z     vdW  Elec       q    Type
                         _______ _______ _______ _____ _____    ______ ____

>  <TORSDO>
F 5

$$$$
