=
 OpenBabel10262420233D

 55 59  0  0  1  0  0  0  0  0999 V2000
  186.6470  178.4180  142.1820 C   0  0  0  0  0  2  0  0  0  0  0  0
  188.6850  177.7600  135.5220 S   0  0  0  0  0  0  0  0  0  0  0  0
  184.9930  176.3510  135.4960 O   0  0  0  0  0  0  0  0  0  0  0  0
  182.0440  174.1210  135.4140 C   0  0  0  0  0  3  0  0  0  0  0  0
  180.7870  173.9350  135.9910 C   0  0  0  0  0  3  0  0  0  0  0  0
  182.6610  175.6370  137.2170 C   0  0  0  0  0  0  0  0  0  0  0  0
  181.3970  175.4290  137.7910 C   0  0  0  0  0  3  0  0  0  0  0  0
  184.7560  174.2430  134.5990 O   0  0  0  0  0  0  0  0  0  0  0  0
  180.4630  174.5920  137.1790 C   0  0  0  0  0  3  0  0  0  0  0  0
  182.9880  174.9710  136.0070 C   0  0  0  0  0  0  0  0  0  0  0  0
  184.5520  178.0530  140.8690 C   0  0  0  0  0  2  0  0  0  0  0  0
  188.4390  179.1000  140.5420 C   0  0  0  0  0  2  0  0  0  0  0  0
  184.6490  178.1430  139.3590 C   0  0  0  0  0  2  0  0  0  0  0  0
  188.7740  179.7770  137.4890 O   0  0  0  0  0  1  0  0  0  0  0  0
  183.6800  176.4260  137.9470 C   0  0  0  0  0  3  0  0  0  0  0  0
  186.8690  177.8280  135.5520 C   0  0  0  0  0  2  0  0  0  0  0  0
  186.3170  176.5220  135.0200 C   0  0  0  0  0  2  0  0  0  0  0  0
  188.8930  177.4840  137.3320 C   0  0  1  0  0  3  0  0  0  0  0  0
  185.4670  179.0890  141.4970 C   0  0  0  0  0  2  0  0  0  0  0  0
  184.2900  175.1580  135.3320 C   0  0  0  0  0  0  0  0  0  0  0  0
  187.6880  177.9310  141.1750 C   0  0  1  0  0  3  0  0  0  0  0  0
  188.4570  178.6310  138.1430 N   0  0  0  0  0  0  0  0  0  0  0  0
  183.4650  177.5020  138.7100 C   0  0  0  0  0  0  0  0  0  0  0  0
  189.2710  178.6360  139.3510 C   0  0  0  0  0  2  0  0  0  0  0  0
  182.1130  178.1530  138.8130 C   0  0  1  0  0  3  0  0  0  0  0  0
  181.5980  180.1010  137.8660 C   0  0  1  0  0  3  0  0  0  0  0  0
  182.0950  179.0820  139.8700 O   0  0  0  0  0  0  0  0  0  0  0  0
  181.4460  180.1970  139.3490 C   0  0  0  0  0  2  0  0  0  0  0  0
  181.7670  178.7490  137.5820 O   0  0  0  0  0  0  0  0  0  0  0  0
  180.3540  180.6280  137.1720 C   0  0  0  0  0  3  0  0  0  0  0  0
  180.7390  181.1680  135.8080 C   0  0  0  0  0  2  0  0  0  0  0  0
  180.4880  182.1240  136.9570 C   0  0  0  0  0  2  0  0  0  0  0  0
  188.1440  176.2200  137.7470 C   0  0  0  0  0  2  0  0  0  0  0  0
  188.6690  174.9990  137.0230 C   0  0  0  0  0  2  0  0  0  0  0  0
  190.1190  174.7780  137.4190 C   0  0  0  0  0  2  0  0  0  0  0  0
  191.0020  175.0740  136.2950 N   0  0  0  0  0  0  0  0  0  0  0  0
  192.4140  176.4480  137.6680 C   0  0  0  0  0  2  0  0  0  0  0  0
  192.1780  175.8870  136.4800 C   0  0  0  0  0  0  0  0  0  0  0  0
  194.4420  176.7840  135.8610 C   0  0  0  0  0  2  0  0  0  0  0  0
  194.5700  175.3100  136.1620 C   0  0  1  0  0  3  0  0  0  0  0  0
  193.3110  175.8360  135.4870 C   0  0  1  0  0  3  0  0  0  0  0  0
  195.4450  174.6530  135.1150 C   0  0  0  0  0  2  0  0  0  0  0  0
  196.1810  173.4810  135.7450 C   0  0  0  0  0  2  0  0  0  0  0  0
  196.3560  173.6970  137.2410 C   0  0  0  0  0  2  0  0  0  0  0  0
  195.9400  171.1540  137.5410 C   0  0  0  0  0  1  0  0  0  0  0  0
  195.1760  172.7780  139.0590 O   0  0  0  0  0  0  0  0  0  0  0  0
  195.7840  172.5570  138.0240 C   0  0  0  0  0  0  0  0  0  0  0  0
  190.7080  174.4720  134.9970 C   0  0  0  0  0  2  0  0  0  0  0  0
  189.8130  172.1100  135.1300 C   0  0  0  0  0  1  0  0  0  0  0  0
  192.1040  172.6180  135.9790 C   0  0  0  0  0  1  0  0  0  0  0  0
  191.0450  172.9800  134.9550 C   0  0  0  0  0  3  0  0  0  0  0  0
  188.6480  176.9450  141.8390 C   0  0  0  0  0  2  0  0  0  0  0  0
  188.8370  177.2060  143.3240 C   0  0  0  0  0  2  0  0  0  0  0  0
  191.0460  176.1520  143.6640 C   0  0  0  0  0  1  0  0  0  0  0  0
  190.3000  177.4730  143.6160 C   0  0  0  0  0  2  0  0  0  0  0  0
  2 16  1  0  0  0  0
  2 18  1  0  0  0  0
  4  5  2  0  0  0  0
  4 10  1  0  0  0  0
  5  9  1  0  0  0  0
  6  7  1  0  0  0  0
  6 15  1  0  0  0  0
  8 20  2  0  0  0  0
  9  7  2  0  0  0  0
 10  6  2  0  0  0  0
 11 19  1  0  0  0  0
 12 21  1  0  0  0  0
 13 11  1  0  0  0  0
 14 22  1  0  0  0  0
 15 23  2  0  0  0  0
 17  3  1  0  0  0  0
 17 16  1  0  0  0  0
 18 33  1  1  0  0  0
 18 22  1  0  0  0  0
 19  1  1  0  0  0  0
 20  3  1  0  0  0  0
 20 10  1  0  0  0  0
 21 52  1  1  0  0  0
 21  1  1  0  0  0  0
 22 24  1  0  0  0  0
 23 13  1  0  0  0  0
 24 12  1  0  0  0  0
 25 23  1  6  0  0  0
 25 27  1  0  0  0  0
 26 30  1  6  0  0  0
 26 28  1  0  0  0  0
 28 27  1  0  0  0  0
 29 26  1  0  0  0  0
 29 25  1  0  0  0  0
 31 32  1  0  0  0  0
 31 30  1  0  0  0  0
 32 30  1  0  0  0  0
 34 35  1  0  0  0  0
 34 33  1  0  0  0  0
 36 38  1  0  0  0  0
 36 35  1  0  0  0  0
 38 37  2  0  0  0  0
 39 40  1  0  0  0  0
 40 42  1  6  0  0  0
 41 39  1  0  0  0  0
 41 40  1  0  0  0  0
 41 38  1  1  0  0  0
 42 43  1  0  0  0  0
 43 44  1  0  0  0  0
 44 47  1  0  0  0  0
 45 47  1  0  0  0  0
 47 46  2  0  0  0  0
 48 36  1  0  0  0  0
 51 48  1  0  0  0  0
 51 49  1  0  0  0  0
 51 50  1  0  0  0  0
 52 53  1  0  0  0  0
 53 55  1  0  0  0  0
 55 54  1  0  0  0  0
M  END
>  <MODEL>
1

>  <REMARK>
 VINA RESULT:      -5.9      0.000      0.000
  Name = 
  17 active torsions:
  status: ('A' for Active; 'I' for Inactive)
    1  A    between atoms: C_3  and  C_14
    2  A    between atoms: C_3  and  C_21
    3  A    between atoms: C_6  and  C_14
    4  A    between atoms: C_6  and  C_38
    5  A    between atoms: C_8  and  C_20
    6  A    between atoms: C_8  and  C_22
    7  A    between atoms: C_10  and  C_32
    8  A    between atoms: N_12  and  C_20
    9  A    between atoms: N_12  and  C_42
   10  A    between atoms: N_12  and  C_46
   11  A    between atoms: C_13  and  C_52
   12  A    between atoms: C_22  and  C_43
   13  A    between atoms: C_27  and  C_49
   14  A    between atoms: C_27  and  C_55
   15  A    between atoms: C_41  and  C_55
   16  A    between atoms: C_42  and  C_50
   17  A    between atoms: C_46  and  C_53
                            x       y       z     vdW  Elec       q    Type
                         _______ _______ _______ _____ _____    ______ ____

>  <TORSDO>
F 17

$$$$
=
 OpenBabel10262420233D

 55 59  0  0  1  0  0  0  0  0999 V2000
  186.7610  178.4050  142.1740 C   0  0  0  0  0  2  0  0  0  0  0  0
  187.4030  177.3670  135.2860 S   0  0  0  0  0  0  0  0  0  0  0  0
  183.8350  175.8810  136.1100 O   0  0  0  0  0  0  0  0  0  0  0  0
  181.0100  173.5870  136.7720 C   0  0  0  0  0  3  0  0  0  0  0  0
  179.9070  173.4110  137.6090 C   0  0  0  0  0  3  0  0  0  0  0  0
  181.9340  175.2280  138.3170 C   0  0  0  0  0  0  0  0  0  0  0  0
  180.8240  175.0300  139.1520 C   0  0  0  0  0  3  0  0  0  0  0  0
  183.4900  173.7150  135.4050 O   0  0  0  0  0  0  0  0  0  0  0  0
  179.8120  174.1360  138.7980 C   0  0  0  0  0  3  0  0  0  0  0  0
  182.0270  174.4940  137.1060 C   0  0  0  0  0  0  0  0  0  0  0  0
  184.4540  177.9120  141.3500 C   0  0  0  0  0  2  0  0  0  0  0  0
  188.1510  179.0190  140.1610 C   0  0  0  0  0  2  0  0  0  0  0  0
  184.2340  177.9070  139.8500 C   0  0  0  0  0  2  0  0  0  0  0  0
  187.8270  179.5070  137.0710 O   0  0  0  0  0  1  0  0  0  0  0  0
  183.0540  176.0840  138.7720 C   0  0  0  0  0  3  0  0  0  0  0  0
  185.6310  177.3980  135.6890 C   0  0  0  0  0  2  0  0  0  0  0  0
  185.0250  176.0490  135.3600 C   0  0  0  0  0  2  0  0  0  0  0  0
  187.9890  177.2120  137.0260 C   0  0  1  0  0  3  0  0  0  0  0  0
  185.4430  179.0050  141.7120 C   0  0  0  0  0  2  0  0  0  0  0  0
  183.1550  174.6640  136.1650 C   0  0  0  0  0  0  0  0  0  0  0  0
  187.5880  177.8760  141.0030 C   0  0  1  0  0  3  0  0  0  0  0  0
  187.6910  178.3980  137.8420 N   0  0  0  0  0  0  0  0  0  0  0  0
  182.9650  177.2020  139.5000 C   0  0  0  0  0  0  0  0  0  0  0  0
  188.7360  178.4980  138.8520 C   0  0  0  0  0  2  0  0  0  0  0  0
  181.6410  177.8290  139.8440 C   0  0  1  0  0  3  0  0  0  0  0  0
  181.1080  179.9380  139.3720 C   0  0  1  0  0  3  0  0  0  0  0  0
  181.7270  178.5120  141.0710 O   0  0  0  0  0  0  0  0  0  0  0  0
  181.0700  179.7190  140.8490 C   0  0  0  0  0  2  0  0  0  0  0  0
  181.2190  178.6760  138.7970 O   0  0  0  0  0  0  0  0  0  0  0  0
  179.8290  180.6120  138.9050 C   0  0  0  0  0  3  0  0  0  0  0  0
  180.1340  182.0510  138.5380 C   0  0  0  0  0  2  0  0  0  0  0  0
  179.4680  181.7330  139.8610 C   0  0  0  0  0  2  0  0  0  0  0  0
  187.3850  175.9610  137.6600 C   0  0  0  0  0  2  0  0  0  0  0  0
  187.5670  174.7450  136.7760 C   0  0  0  0  0  2  0  0  0  0  0  0
  188.8300  174.0150  137.1980 C   0  0  0  0  0  2  0  0  0  0  0  0
  189.5190  173.4760  136.0300 N   0  0  0  0  0  0  0  0  0  0  0  0
  191.6730  172.5130  135.5860 C   0  0  0  0  0  2  0  0  0  0  0  0
  190.9510  173.5890  135.9050 C   0  0  0  0  0  0  0  0  0  0  0  0
  191.7730  175.6160  137.1400 C   0  0  0  0  0  2  0  0  0  0  0  0
  192.9540  174.9280  136.4960 C   0  0  1  0  0  3  0  0  0  0  0  0
  191.6070  174.9400  135.7860 C   0  0  1  0  0  3  0  0  0  0  0  0
  193.8540  175.9610  135.8520 C   0  0  0  0  0  2  0  0  0  0  0  0
  195.3060  175.5760  136.0890 C   0  0  0  0  0  2  0  0  0  0  0  0
  195.4060  174.1390  136.5810 C   0  0  0  0  0  2  0  0  0  0  0  0
  195.8470  174.2480  139.1350 C   0  0  0  0  0  1  0  0  0  0  0  0
  197.5180  173.7680  137.5530 O   0  0  0  0  0  0  0  0  0  0  0  0
  196.3410  174.0280  137.7440 C   0  0  0  0  0  0  0  0  0  0  0  0
  188.7360  172.7590  135.0250 C   0  0  0  0  0  2  0  0  0  0  0  0
  188.8120  170.2340  134.9070 C   0  0  0  0  0  1  0  0  0  0  0  0
  186.6570  171.3880  135.4110 C   0  0  0  0  0  1  0  0  0  0  0  0
  188.1660  171.4430  135.5590 C   0  0  0  0  0  3  0  0  0  0  0  0
  188.6980  176.9560  141.5090 C   0  0  0  0  0  2  0  0  0  0  0  0
  188.4520  176.4450  142.9190 C   0  0  0  0  0  2  0  0  0  0  0  0
  190.8430  176.0170  143.3720 C   0  0  0  0  0  1  0  0  0  0  0  0
  189.6230  176.8090  143.8080 C   0  0  0  0  0  2  0  0  0  0  0  0
  2 16  1  0  0  0  0
  2 18  1  0  0  0  0
  3 20  1  0  0  0  0
  4 10  2  0  0  0  0
  4  5  1  0  0  0  0
  5  9  2  0  0  0  0
  6 15  1  0  0  0  0
  6  7  2  0  0  0  0
  8 20  2  0  0  0  0
  9  7  1  0  0  0  0
 10  6  1  0  0  0  0
 11 19  1  0  0  0  0
 12 21  1  0  0  0  0
 13 11  1  0  0  0  0
 14 22  1  0  0  0  0
 15 23  2  0  0  0  0
 17 16  1  0  0  0  0
 17  3  1  0  0  0  0
 18 33  1  1  0  0  0
 18 22  1  0  0  0  0
 19  1  1  0  0  0  0
 20 10  1  0  0  0  0
 21 52  1  1  0  0  0
 21  1  1  0  0  0  0
 22 24  1  0  0  0  0
 23 13  1  0  0  0  0
 24 12  1  0  0  0  0
 25 23  1  6  0  0  0
 25 27  1  0  0  0  0
 26 30  1  6  0  0  0
 26 28  1  0  0  0  0
 28 27  1  0  0  0  0
 29 26  1  0  0  0  0
 29 25  1  0  0  0  0
 30 32  1  0  0  0  0
 31 30  1  0  0  0  0
 31 32  1  0  0  0  0
 34 35  1  0  0  0  0
 34 33  1  0  0  0  0
 36 35  1  0  0  0  0
 37 38  2  0  0  0  0
 38 36  1  0  0  0  0
 40 42  1  6  0  0  0
 40 39  1  0  0  0  0
 41 38  1  1  0  0  0
 41 40  1  0  0  0  0
 41 39  1  0  0  0  0
 42 43  1  0  0  0  0
 43 44  1  0  0  0  0
 44 47  1  0  0  0  0
 46 47  2  0  0  0  0
 47 45  1  0  0  0  0
 48 51  1  0  0  0  0
 48 36  1  0  0  0  0
 49 51  1  0  0  0  0
 50 51  1  0  0  0  0
 52 53  1  0  0  0  0
 53 55  1  0  0  0  0
 54 55  1  0  0  0  0
M  END
>  <MODEL>
2

>  <REMARK>
 VINA RESULT:      -5.7      1.335      1.962
  Name = 
  17 active torsions:
  status: ('A' for Active; 'I' for Inactive)
    1  A    between atoms: C_3  and  C_14
    2  A    between atoms: C_3  and  C_21
    3  A    between atoms: C_6  and  C_14
    4  A    between atoms: C_6  and  C_38
    5  A    between atoms: C_8  and  C_20
    6  A    between atoms: C_8  and  C_22
    7  A    between atoms: C_10  and  C_32
    8  A    between atoms: N_12  and  C_20
    9  A    between atoms: N_12  and  C_42
   10  A    between atoms: N_12  and  C_46
   11  A    between atoms: C_13  and  C_52
   12  A    between atoms: C_22  and  C_43
   13  A    between atoms: C_27  and  C_49
   14  A    between atoms: C_27  and  C_55
   15  A    between atoms: C_41  and  C_55
   16  A    between atoms: C_42  and  C_50
   17  A    between atoms: C_46  and  C_53
                            x       y       z     vdW  Elec       q    Type
                         _______ _______ _______ _____ _____    ______ ____

>  <TORSDO>
F 17

$$$$
=
 OpenBabel10262420233D

 55 59  0  0  1  0  0  0  0  0999 V2000
  182.8380  177.3220  139.7320 C   0  0  0  0  0  2  0  0  0  0  0  0
  189.0280  178.3790  136.6500 S   0  0  0  0  0  0  0  0  0  0  0  0
  188.1090  174.6770  135.6170 O   0  0  0  0  0  0  0  0  0  0  0  0
  187.9710  170.9900  135.3720 C   0  0  0  0  0  3  0  0  0  0  0  0
  187.0760  169.9270  135.2470 C   0  0  0  0  0  3  0  0  0  0  0  0
  186.1470  172.4640  136.0270 C   0  0  0  0  0  0  0  0  0  0  0  0
  185.2630  171.3820  135.9090 C   0  0  0  0  0  3  0  0  0  0  0  0
  189.7230  173.1010  136.0850 O   0  0  0  0  0  0  0  0  0  0  0  0
  185.7200  170.1240  135.5130 C   0  0  0  0  0  3  0  0  0  0  0  0
  187.5260  172.2630  135.7520 C   0  0  0  0  0  0  0  0  0  0  0  0
  183.0660  175.5000  138.0350 C   0  0  0  0  0  2  0  0  0  0  0  0
  184.5150  179.1080  139.1300 C   0  0  0  0  0  2  0  0  0  0  0  0
  184.1880  175.6240  137.0240 C   0  0  0  0  0  2  0  0  0  0  0  0
  186.5990  179.7900  136.8750 O   0  0  0  0  0  1  0  0  0  0  0  0
  185.6630  173.7550  136.5700 C   0  0  0  0  0  3  0  0  0  0  0  0
  188.1650  177.0620  135.7440 C   0  0  0  0  0  2  0  0  0  0  0  0
  188.9660  175.7800  135.8510 C   0  0  0  0  0  2  0  0  0  0  0  0
  187.9110  178.3630  138.1150 C   0  0  1  0  0  3  0  0  0  0  0  0
  182.4890  176.8760  138.3210 C   0  0  0  0  0  2  0  0  0  0  0  0
  188.5140  173.3600  135.8340 C   0  0  0  0  0  0  0  0  0  0  0  0
  184.2930  177.7750  139.8420 C   0  0  1  0  0  3  0  0  0  0  0  0
  186.5420  178.7990  137.8010 N   0  0  0  0  0  0  0  0  0  0  0  0
  184.4640  174.3090  136.3710 C   0  0  0  0  0  0  0  0  0  0  0  0
  186.0020  179.4190  139.0020 C   0  0  0  0  0  2  0  0  0  0  0  0
  183.4610  173.7250  135.4130 C   0  0  1  0  0  3  0  0  0  0  0  0
  181.3060  173.4440  135.8920 C   0  0  1  0  0  3  0  0  0  0  0  0
  183.3130  172.3440  135.6410 O   0  0  0  0  0  0  0  0  0  0  0  0
  181.9400  172.1250  135.5940 C   0  0  0  0  0  2  0  0  0  0  0  0
  182.2330  174.4120  135.5190 O   0  0  0  0  0  0  0  0  0  0  0  0
  180.0270  173.6090  135.0890 C   0  0  0  0  0  3  0  0  0  0  0  0
  178.9650  174.2360  135.9720 C   0  0  0  0  0  2  0  0  0  0  0  0
  178.9340  172.7470  135.6900 C   0  0  0  0  0  2  0  0  0  0  0  0
  187.9000  176.9680  138.7350 C   0  0  0  0  0  2  0  0  0  0  0  0
  189.1800  176.6840  139.4920 C   0  0  0  0  0  2  0  0  0  0  0  0
  189.4270  177.8100  140.4800 C   0  0  0  0  0  2  0  0  0  0  0  0
  189.9340  177.2760  141.7410 N   0  0  0  0  0  0  0  0  0  0  0  0
  189.4240  175.4650  143.2320 C   0  0  0  0  0  2  0  0  0  0  0  0
  189.0480  176.6140  142.6660 C   0  0  0  0  0  0  0  0  0  0  0  0
  186.9270  176.4070  143.9960 C   0  0  0  0  0  2  0  0  0  0  0  0
  187.9160  177.2320  144.7850 C   0  0  1  0  0  3  0  0  0  0  0  0
  187.8770  177.3470  143.2670 C   0  0  1  0  0  3  0  0  0  0  0  0
  187.2120  178.4320  145.3820 C   0  0  0  0  0  2  0  0  0  0  0  0
  186.3670  177.9790  146.5620 C   0  0  0  0  0  2  0  0  0  0  0  0
  186.9700  178.4630  147.8720 C   0  0  0  0  0  2  0  0  0  0  0  0
  189.4680  178.4090  148.5690 C   0  0  0  0  0  1  0  0  0  0  0  0
  188.1860  176.4740  148.2000 O   0  0  0  0  0  0  0  0  0  0  0  0
  188.2070  177.6940  148.2180 C   0  0  0  0  0  0  0  0  0  0  0  0
  191.3670  177.3650  142.0120 C   0  0  0  0  0  2  0  0  0  0  0  0
  191.4190  176.9760  144.5100 C   0  0  0  0  0  1  0  0  0  0  0  0
  190.8830  179.2450  143.6190 C   0  0  0  0  0  1  0  0  0  0  0  0
  191.6660  177.9660  143.3860 C   0  0  0  0  0  3  0  0  0  0  0  0
  184.7170  177.8480  141.3080 C   0  0  0  0  0  2  0  0  0  0  0  0
  183.7180  178.5900  142.1810 C   0  0  0  0  0  2  0  0  0  0  0  0
  182.9600  178.9120  144.5100 C   0  0  0  0  0  1  0  0  0  0  0  0
  184.1180  178.4670  143.6370 C   0  0  0  0  0  2  0  0  0  0  0  0
  1 21  1  0  0  0  0
  2 18  1  0  0  0  0
  3 20  1  0  0  0  0
  3 17  1  0  0  0  0
  4 10  1  0  0  0  0
  5  4  2  0  0  0  0
  5  9  1  0  0  0  0
  6 15  1  0  0  0  0
  7  6  1  0  0  0  0
  9  7  2  0  0  0  0
 10 20  1  0  0  0  0
 10  6  2  0  0  0  0
 11 19  1  0  0  0  0
 12 21  1  0  0  0  0
 13 11  1  0  0  0  0
 14 22  1  0  0  0  0
 16 17  1  0  0  0  0
 16  2  1  0  0  0  0
 18 33  1  6  0  0  0
 19  1  1  0  0  0  0
 20  8  2  0  0  0  0
 21 52  1  1  0  0  0
 22 18  1  0  0  0  0
 22 24  1  0  0  0  0
 23 15  2  0  0  0  0
 23 13  1  0  0  0  0
 24 12  1  0  0  0  0
 25 29  1  0  0  0  0
 25 27  1  0  0  0  0
 25 23  1  1  0  0  0
 26 30  1  6  0  0  0
 28 27  1  0  0  0  0
 28 26  1  0  0  0  0
 29 26  1  0  0  0  0
 30 32  1  0  0  0  0
 30 31  1  0  0  0  0
 32 31  1  0  0  0  0
 33 34  1  0  0  0  0
 34 35  1  0  0  0  0
 35 36  1  0  0  0  0
 36 48  1  0  0  0  0
 36 38  1  0  0  0  0
 38 37  2  0  0  0  0
 39 40  1  0  0  0  0
 40 42  1  1  0  0  0
 41 38  1  6  0  0  0
 41 39  1  0  0  0  0
 41 40  1  0  0  0  0
 42 43  1  0  0  0  0
 43 44  1  0  0  0  0
 44 47  1  0  0  0  0
 46 47  2  0  0  0  0
 47 45  1  0  0  0  0
 48 51  1  0  0  0  0
 51 50  1  0  0  0  0
 51 49  1  0  0  0  0
 52 53  1  0  0  0  0
 53 55  1  0  0  0  0
 55 54  1  0  0  0  0
M  END
>  <MODEL>
3

>  <REMARK>
 VINA RESULT:      -4.6      3.644      7.549
  Name = 
  17 active torsions:
  status: ('A' for Active; 'I' for Inactive)
    1  A    between atoms: C_3  and  C_14
    2  A    between atoms: C_3  and  C_21
    3  A    between atoms: C_6  and  C_14
    4  A    between atoms: C_6  and  C_38
    5  A    between atoms: C_8  and  C_20
    6  A    between atoms: C_8  and  C_22
    7  A    between atoms: C_10  and  C_32
    8  A    between atoms: N_12  and  C_20
    9  A    between atoms: N_12  and  C_42
   10  A    between atoms: N_12  and  C_46
   11  A    between atoms: C_13  and  C_52
   12  A    between atoms: C_22  and  C_43
   13  A    between atoms: C_27  and  C_49
   14  A    between atoms: C_27  and  C_55
   15  A    between atoms: C_41  and  C_55
   16  A    between atoms: C_42  and  C_50
   17  A    between atoms: C_46  and  C_53
                            x       y       z     vdW  Elec       q    Type
                         _______ _______ _______ _____ _____    ______ ____

>  <TORSDO>
F 17

$$$$
=
 OpenBabel10262420233D

 55 59  0  0  1  0  0  0  0  0999 V2000
  188.5620  174.5970  136.6590 C   0  0  0  0  0  2  0  0  0  0  0  0
  183.2540  178.9990  137.8360 S   0  0  0  0  0  0  0  0  0  0  0  0
  185.1570  178.9090  141.2990 O   0  0  0  0  0  0  0  0  0  0  0  0
  186.1220  178.2280  144.8040 C   0  0  0  0  0  3  0  0  0  0  0  0
  187.2230  177.9140  145.6020 C   0  0  0  0  0  3  0  0  0  0  0  0
  187.3740  177.6010  142.8110 C   0  0  0  0  0  0  0  0  0  0  0  0
  188.4670  177.2790  143.6290 C   0  0  0  0  0  3  0  0  0  0  0  0
  183.8460  178.4030  143.1240 O   0  0  0  0  0  0  0  0  0  0  0  0
  188.3980  177.4420  145.0140 C   0  0  0  0  0  3  0  0  0  0  0  0
  186.1820  178.0850  143.4100 C   0  0  0  0  0  0  0  0  0  0  0  0
  189.1510  175.8160  138.7610 C   0  0  0  0  0  2  0  0  0  0  0  0
  186.7520  175.9290  135.5140 C   0  0  0  0  0  2  0  0  0  0  0  0
  188.3160  177.0280  139.1230 C   0  0  0  0  0  2  0  0  0  0  0  0
  185.2000  178.6460  135.8270 O   0  0  0  0  0  1  0  0  0  0  0  0
  187.4260  177.3000  141.3610 C   0  0  0  0  0  3  0  0  0  0  0  0
  184.5730  179.3730  139.0300 C   0  0  0  0  0  2  0  0  0  0  0  0
  184.0570  179.1210  140.4320 C   0  0  0  0  0  2  0  0  0  0  0  0
  183.9500  177.3830  137.2890 C   0  0  1  0  0  3  0  0  0  0  0  0
  189.3370  175.7620  137.2550 C   0  0  0  0  0  2  0  0  0  0  0  0
  184.9970  178.4660  142.6120 C   0  0  0  0  0  0  0  0  0  0  0  0
  187.0640  174.8880  136.5870 C   0  0  1  0  0  3  0  0  0  0  0  0
  185.2310  177.5170  136.5800 N   0  0  0  0  0  0  0  0  0  0  0  0
  188.4940  177.3860  140.5620 C   0  0  0  0  0  0  0  0  0  0  0  0
  185.3120  176.4180  135.6280 C   0  0  0  0  0  2  0  0  0  0  0  0
  189.8030  177.9590  141.0340 C   0  0  1  0  0  3  0  0  0  0  0  0
  191.7930  177.1590  140.4390 C   0  0  1  0  0  3  0  0  0  0  0  0
  190.2680  177.2550  142.1610 O   0  0  0  0  0  0  0  0  0  0  0  0
  191.6230  177.0590  141.9200 C   0  0  0  0  0  2  0  0  0  0  0  0
  190.7430  177.9500  139.9820 O   0  0  0  0  0  0  0  0  0  0  0  0
  193.1220  177.8120  140.1020 C   0  0  0  0  0  3  0  0  0  0  0  0
  193.6950  177.1570  138.8590 C   0  0  0  0  0  2  0  0  0  0  0  0
  194.2360  176.7900  140.2260 C   0  0  0  0  0  2  0  0  0  0  0  0
  184.0980  176.4560  138.4930 C   0  0  0  0  0  2  0  0  0  0  0  0
  182.9500  175.4740  138.5850 C   0  0  0  0  0  2  0  0  0  0  0  0
  182.3710  175.2630  137.1980 C   0  0  0  0  0  2  0  0  0  0  0  0
  180.9130  175.2430  137.2540 N   0  0  0  0  0  0  0  0  0  0  0  0
  180.0430  177.4750  137.0860 C   0  0  0  0  0  2  0  0  0  0  0  0
  180.1840  176.3590  137.8040 C   0  0  0  0  0  0  0  0  0  0  0  0
  179.8350  175.1220  139.9620 C   0  0  0  0  0  2  0  0  0  0  0  0
  180.0430  176.5860  140.2710 C   0  0  1  0  0  3  0  0  0  0  0  0
  179.2960  176.1780  139.0080 C   0  0  1  0  0  3  0  0  0  0  0  0
  179.0360  177.0330  141.3090 C   0  0  0  0  0  2  0  0  0  0  0  0
  179.6390  178.1560  142.1380 C   0  0  0  0  0  2  0  0  0  0  0  0
  180.6360  178.9570  141.3130 C   0  0  0  0  0  2  0  0  0  0  0  0
  180.0180  180.7130  139.5070 C   0  0  0  0  0  1  0  0  0  0  0  0
  179.6850  181.0520  141.8090 O   0  0  0  0  0  0  0  0  0  0  0  0
  180.0800  180.2940  140.9380 C   0  0  0  0  0  0  0  0  0  0  0  0
  180.2050  174.1020  136.6780 C   0  0  0  0  0  2  0  0  0  0  0  0
  181.1710  172.1800  135.3460 C   0  0  0  0  0  1  0  0  0  0  0  0
  180.4800  171.8220  137.7180 C   0  0  0  0  0  1  0  0  0  0  0  0
  181.0370  172.8180  136.7170 C   0  0  0  0  0  3  0  0  0  0  0  0
  186.2830  173.5950  136.3550 C   0  0  0  0  0  2  0  0  0  0  0  0
  187.1400  172.3480  136.4910 C   0  0  0  0  0  2  0  0  0  0  0  0
  185.0860  171.3050  135.5990 C   0  0  0  0  0  1  0  0  0  0  0  0
  186.6030  171.2550  135.5900 C   0  0  0  0  0  2  0  0  0  0  0  0
  1 19  1  0  0  0  0
  2 16  1  0  0  0  0
  3 20  1  0  0  0  0
  4  5  1  0  0  0  0
  6 10  1  0  0  0  0
  6  7  2  0  0  0  0
  7  9  1  0  0  0  0
  9  5  2  0  0  0  0
 10  4  2  0  0  0  0
 11 13  1  0  0  0  0
 12 24  1  0  0  0  0
 12 21  1  0  0  0  0
 13 23  1  0  0  0  0
 14 22  1  0  0  0  0
 15  6  1  0  0  0  0
 16 17  1  0  0  0  0
 17  3  1  0  0  0  0
 18  2  1  0  0  0  0
 18 33  1  1  0  0  0
 19 11  1  0  0  0  0
 20  8  2  0  0  0  0
 20 10  1  0  0  0  0
 21 52  1  6  0  0  0
 21  1  1  0  0  0  0
 22 18  1  0  0  0  0
 23 15  2  0  0  0  0
 24 22  1  0  0  0  0
 25 23  1  6  0  0  0
 25 27  1  0  0  0  0
 26 30  1  1  0  0  0
 26 28  1  0  0  0  0
 28 27  1  0  0  0  0
 29 26  1  0  0  0  0
 29 25  1  0  0  0  0
 30 32  1  0  0  0  0
 31 30  1  0  0  0  0
 31 32  1  0  0  0  0
 33 34  1  0  0  0  0
 35 36  1  0  0  0  0
 35 34  1  0  0  0  0
 36 38  1  0  0  0  0
 37 38  2  0  0  0  0
 39 40  1  0  0  0  0
 40 42  1  1  0  0  0
 41 38  1  6  0  0  0
 41 39  1  0  0  0  0
 41 40  1  0  0  0  0
 42 43  1  0  0  0  0
 44 43  1  0  0  0  0
 45 47  1  0  0  0  0
 47 44  1  0  0  0  0
 47 46  2  0  0  0  0
 48 51  1  0  0  0  0
 48 36  1  0  0  0  0
 49 51  1  0  0  0  0
 51 50  1  0  0  0  0
 52 53  1  0  0  0  0
 55 54  1  0  0  0  0
 55 53  1  0  0  0  0
M  END
>  <MODEL>
4

>  <REMARK>
 VINA RESULT:      -4.2      3.099     10.646
  Name = 
  17 active torsions:
  status: ('A' for Active; 'I' for Inactive)
    1  A    between atoms: C_3  and  C_14
    2  A    between atoms: C_3  and  C_21
    3  A    between atoms: C_6  and  C_14
    4  A    between atoms: C_6  and  C_38
    5  A    between atoms: C_8  and  C_20
    6  A    between atoms: C_8  and  C_22
    7  A    between atoms: C_10  and  C_32
    8  A    between atoms: N_12  and  C_20
    9  A    between atoms: N_12  and  C_42
   10  A    between atoms: N_12  and  C_46
   11  A    between atoms: C_13  and  C_52
   12  A    between atoms: C_22  and  C_43
   13  A    between atoms: C_27  and  C_49
   14  A    between atoms: C_27  and  C_55
   15  A    between atoms: C_41  and  C_55
   16  A    between atoms: C_42  and  C_50
   17  A    between atoms: C_46  and  C_53
                            x       y       z     vdW  Elec       q    Type
                         _______ _______ _______ _____ _____    ______ ____

>  <TORSDO>
F 17

$$$$
=
 OpenBabel10262420233D

 55 59  0  0  1  0  0  0  0  0999 V2000
  190.3200  174.9340  137.2880 C   0  0  0  0  0  2  0  0  0  0  0  0
  184.6590  179.0440  137.2670 S   0  0  0  0  0  0  0  0  0  0  0  0
  185.5710  178.7570  141.1020 O   0  0  0  0  0  0  0  0  0  0  0  0
  185.6010  177.8450  144.6860 C   0  0  0  0  0  3  0  0  0  0  0  0
  186.4650  177.5100  145.7300 C   0  0  0  0  0  3  0  0  0  0  0  0
  187.3720  177.4160  143.0700 C   0  0  0  0  0  0  0  0  0  0  0  0
  188.2230  177.0710  144.1300 C   0  0  0  0  0  3  0  0  0  0  0  0
  183.8500  178.0670  142.4680 O   0  0  0  0  0  0  0  0  0  0  0  0
  187.7780  177.1260  145.4520 C   0  0  0  0  0  3  0  0  0  0  0  0
  186.0380  177.8110  143.3540 C   0  0  0  0  0  0  0  0  0  0  0  0
  190.2600  176.0090  139.5440 C   0  0  0  0  0  2  0  0  0  0  0  0
  188.8110  176.2850  135.7840 C   0  0  0  0  0  2  0  0  0  0  0  0
  189.2930  177.1600  139.7430 C   0  0  0  0  0  2  0  0  0  0  0  0
  187.0860  178.9140  135.8400 O   0  0  0  0  0  1  0  0  0  0  0  0
  187.8250  177.2290  141.6720 C   0  0  0  0  0  3  0  0  0  0  0  0
  185.5890  179.3720  138.7940 C   0  0  0  0  0  2  0  0  0  0  0  0
  184.7320  178.9950  139.9850 C   0  0  0  0  0  2  0  0  0  0  0  0
  185.5620  177.4990  136.8260 C   0  0  1  0  0  3  0  0  0  0  0  0
  190.8430  176.0770  138.1440 C   0  0  0  0  0  2  0  0  0  0  0  0
  185.0910  178.2090  142.2920 C   0  0  0  0  0  0  0  0  0  0  0  0
  188.8820  175.1770  136.8320 C   0  0  1  0  0  3  0  0  0  0  0  0
  186.9760  177.7330  136.4990 N   0  0  0  0  0  0  0  0  0  0  0  0
  189.0610  177.4130  141.1970 C   0  0  0  0  0  0  0  0  0  0  0  0
  187.3680  176.7130  135.5360 C   0  0  0  0  0  2  0  0  0  0  0  0
  190.1630  177.9940  142.0410 C   0  0  1  0  0  3  0  0  0  0  0  0
  190.6620  177.2810  144.0900 C   0  0  1  0  0  3  0  0  0  0  0  0
  189.6510  178.9780  142.9070 O   0  0  0  0  0  0  0  0  0  0  0  0
  190.2550  178.7180  144.1330 C   0  0  0  0  0  2  0  0  0  0  0  0
  190.8270  176.9660  142.7450 O   0  0  0  0  0  0  0  0  0  0  0  0
  191.9700  177.0810  144.8360 C   0  0  0  0  0  3  0  0  0  0  0  0
  191.9930  175.6840  145.4290 C   0  0  0  0  0  2  0  0  0  0  0  0
  191.6870  176.8770  146.3120 C   0  0  0  0  0  2  0  0  0  0  0  0
  185.4340  176.4890  137.9630 C   0  0  0  0  0  2  0  0  0  0  0  0
  184.9120  175.1570  137.4690 C   0  0  0  0  0  2  0  0  0  0  0  0
  184.0700  175.3890  136.2270 C   0  0  0  0  0  2  0  0  0  0  0  0
  182.6610  175.1380  136.5160 N   0  0  0  0  0  0  0  0  0  0  0  0
  181.4360  177.1930  136.7090 C   0  0  0  0  0  2  0  0  0  0  0  0
  181.8910  176.0810  137.2880 C   0  0  0  0  0  0  0  0  0  0  0  0
  182.2480  175.9700  139.7720 C   0  0  0  0  0  2  0  0  0  0  0  0
  181.1060  176.9170  139.4880 C   0  0  1  0  0  3  0  0  0  0  0  0
  181.2990  175.6840  138.6170 C   0  0  1  0  0  3  0  0  0  0  0  0
  179.9750  176.6540  140.4590 C   0  0  0  0  0  2  0  0  0  0  0  0
  179.4410  177.9810  140.9750 C   0  0  0  0  0  2  0  0  0  0  0  0
  180.5860  178.9220  141.3200 C   0  0  0  0  0  2  0  0  0  0  0  0
  180.7460  178.6490  143.8950 C   0  0  0  0  0  1  0  0  0  0  0  0
  180.0320  180.6280  142.8460 O   0  0  0  0  0  0  0  0  0  0  0  0
  180.4310  179.4840  142.6990 C   0  0  0  0  0  0  0  0  0  0  0  0
  182.0320  173.9480  135.9470 C   0  0  0  0  0  2  0  0  0  0  0  0
  183.0900  171.7070  136.4500 C   0  0  0  0  0  1  0  0  0  0  0  0
  180.7100  172.1240  137.0770 C   0  0  0  0  0  1  0  0  0  0  0  0
  182.0810  172.7490  136.8960 C   0  0  0  0  0  3  0  0  0  0  0  0
  188.2620  173.8790  136.3150 C   0  0  0  0  0  2  0  0  0  0  0  0
  187.8420  172.9340  137.4290 C   0  0  0  0  0  2  0  0  0  0  0  0
  186.4620  172.3150  135.4750 C   0  0  0  0  0  1  0  0  0  0  0  0
  186.8010  171.9630  136.9120 C   0  0  0  0  0  2  0  0  0  0  0  0
  1 19  1  0  0  0  0
  2 16  1  0  0  0  0
  3 20  1  0  0  0  0
  4  5  1  0  0  0  0
  6 10  1  0  0  0  0
  6  7  2  0  0  0  0
  7  9  1  0  0  0  0
  9  5  2  0  0  0  0
 10  4  2  0  0  0  0
 11 13  1  0  0  0  0
 12 21  1  0  0  0  0
 13 23  1  0  0  0  0
 14 22  1  0  0  0  0
 15  6  1  0  0  0  0
 16 17  1  0  0  0  0
 17  3  1  0  0  0  0
 18  2  1  0  0  0  0
 18 33  1  1  0  0  0
 19 11  1  0  0  0  0
 20  8  2  0  0  0  0
 20 10  1  0  0  0  0
 21 52  1  6  0  0  0
 21  1  1  0  0  0  0
 22 18  1  0  0  0  0
 23 15  2  0  0  0  0
 24 12  1  0  0  0  0
 24 22  1  0  0  0  0
 25 23  1  1  0  0  0
 25 29  1  0  0  0  0
 25 27  1  0  0  0  0
 26 28  1  0  0  0  0
 26 30  1  1  0  0  0
 27 28  1  0  0  0  0
 29 26  1  0  0  0  0
 30 31  1  0  0  0  0
 30 32  1  0  0  0  0
 31 32  1  0  0  0  0
 34 33  1  0  0  0  0
 35 36  1  0  0  0  0
 35 34  1  0  0  0  0
 36 38  1  0  0  0  0
 37 38  2  0  0  0  0
 40 39  1  0  0  0  0
 40 42  1  1  0  0  0
 41 38  1  6  0  0  0
 41 40  1  0  0  0  0
 41 39  1  0  0  0  0
 42 43  1  0  0  0  0
 43 44  1  0  0  0  0
 44 47  1  0  0  0  0
 47 46  2  0  0  0  0
 47 45  1  0  0  0  0
 48 36  1  0  0  0  0
 48 51  1  0  0  0  0
 49 51  1  0  0  0  0
 51 50  1  0  0  0  0
 52 53  1  0  0  0  0
 54 55  1  0  0  0  0
 55 53  1  0  0  0  0
M  END
>  <MODEL>
5

>  <REMARK>
 VINA RESULT:      -3.8      3.252     10.165
  Name = 
  17 active torsions:
  status: ('A' for Active; 'I' for Inactive)
    1  A    between atoms: C_3  and  C_14
    2  A    between atoms: C_3  and  C_21
    3  A    between atoms: C_6  and  C_14
    4  A    between atoms: C_6  and  C_38
    5  A    between atoms: C_8  and  C_20
    6  A    between atoms: C_8  and  C_22
    7  A    between atoms: C_10  and  C_32
    8  A    between atoms: N_12  and  C_20
    9  A    between atoms: N_12  and  C_42
   10  A    between atoms: N_12  and  C_46
   11  A    between atoms: C_13  and  C_52
   12  A    between atoms: C_22  and  C_43
   13  A    between atoms: C_27  and  C_49
   14  A    between atoms: C_27  and  C_55
   15  A    between atoms: C_41  and  C_55
   16  A    between atoms: C_42  and  C_50
   17  A    between atoms: C_46  and  C_53
                            x       y       z     vdW  Elec       q    Type
                         _______ _______ _______ _____ _____    ______ ____

>  <TORSDO>
F 17

$$$$
=
 OpenBabel10262420233D

 55 59  0  0  1  0  0  0  0  0999 V2000
  183.4880  178.0220  140.2840 C   0  0  0  0  0  2  0  0  0  0  0  0
  188.3560  177.5880  135.2790 S   0  0  0  0  0  0  0  0  0  0  0  0
  186.5350  174.0850  135.0950 O   0  0  0  0  0  0  0  0  0  0  0  0
  185.7060  170.4940  135.3980 C   0  0  0  0  0  3  0  0  0  0  0  0
  184.6560  169.6280  135.7080 C   0  0  0  0  0  3  0  0  0  0  0  0
  184.4860  172.3490  136.3990 C   0  0  0  0  0  0  0  0  0  0  0  0
  183.4450  171.4620  136.7130 C   0  0  0  0  0  3  0  0  0  0  0  0
  187.9230  172.2520  135.2290 O   0  0  0  0  0  0  0  0  0  0  0  0
  183.5230  170.1130  136.3630 C   0  0  0  0  0  3  0  0  0  0  0  0
  185.6350  171.8550  135.7280 C   0  0  0  0  0  0  0  0  0  0  0  0
  182.8200  176.0780  138.8610 C   0  0  0  0  0  2  0  0  0  0  0  0
  185.1370  179.3850  138.9480 C   0  0  0  0  0  2  0  0  0  0  0  0
  183.5380  175.9020  137.5380 C   0  0  0  0  0  2  0  0  0  0  0  0
  186.4190  179.4730  136.0770 O   0  0  0  0  0  1  0  0  0  0  0  0
  184.4370  173.7450  136.8910 C   0  0  0  0  0  3  0  0  0  0  0  0
  187.0290  176.4120  134.8790 C   0  0  0  0  0  2  0  0  0  0  0  0
  187.5930  175.0060  134.8950 C   0  0  0  0  0  2  0  0  0  0  0  0
  187.8140  177.9000  137.0120 C   0  0  1  0  0  3  0  0  0  0  0  0
  182.6130  177.5580  139.1310 C   0  0  0  0  0  2  0  0  0  0  0  0
  186.7620  172.7310  135.3440 C   0  0  0  0  0  0  0  0  0  0  0  0
  184.9490  178.1780  139.8630 C   0  0  1  0  0  3  0  0  0  0  0  0
  186.5130  178.5800  137.0950 N   0  0  0  0  0  0  0  0  0  0  0  0
  183.3520  174.5160  137.0130 C   0  0  0  0  0  0  0  0  0  0  0  0
  186.5230  179.3790  138.3120 C   0  0  0  0  0  2  0  0  0  0  0  0
  182.0020  174.0810  136.5110 C   0  0  1  0  0  3  0  0  0  0  0  0
  180.1400  175.2730  136.7690 C   0  0  1  0  0  3  0  0  0  0  0  0
  181.2860  173.4280  137.5320 O   0  0  0  0  0  0  0  0  0  0  0  0
  180.0000  173.9510  137.4520 C   0  0  0  0  0  2  0  0  0  0  0  0
  181.2950  175.1900  135.9980 O   0  0  0  0  0  0  0  0  0  0  0  0
  178.9380  175.5380  135.8790 C   0  0  0  0  0  3  0  0  0  0  0  0
  179.0740  174.7230  134.6070 C   0  0  0  0  0  2  0  0  0  0  0  0
  179.3940  176.2040  134.5950 C   0  0  0  0  0  2  0  0  0  0  0  0
  187.7790  176.5820  137.7830 C   0  0  0  0  0  2  0  0  0  0  0  0
  189.1740  176.0610  138.0580 C   0  0  0  0  0  2  0  0  0  0  0  0
  189.8920  177.0360  138.9740 C   0  0  0  0  0  2  0  0  0  0  0  0
  191.3340  176.8240  138.9100 N   0  0  0  0  0  0  0  0  0  0  0  0
  193.3950  177.4640  139.9640 C   0  0  0  0  0  2  0  0  0  0  0  0
  192.1540  176.9890  140.0850 C   0  0  0  0  0  0  0  0  0  0  0  0
  191.9450  178.1810  142.2860 C   0  0  0  0  0  2  0  0  0  0  0  0
  190.5890  178.1510  141.6200 C   0  0  1  0  0  3  0  0  0  0  0  0
  191.5360  176.9700  141.4600 C   0  0  1  0  0  3  0  0  0  0  0  0
  189.5310  177.7910  142.6410 C   0  0  0  0  0  2  0  0  0  0  0  0
  189.9780  178.2690  144.0140 C   0  0  0  0  0  2  0  0  0  0  0  0
  189.4650  177.3350  145.1000 C   0  0  0  0  0  2  0  0  0  0  0  0
  191.7510  176.1480  145.4070 C   0  0  0  0  0  1  0  0  0  0  0  0
  190.5210  177.0660  147.1870 O   0  0  0  0  0  0  0  0  0  0  0  0
  190.5790  176.8680  145.9840 C   0  0  0  0  0  0  0  0  0  0  0  0
  191.9200  176.3710  137.6490 C   0  0  0  0  0  2  0  0  0  0  0  0
  194.1400  175.1920  137.9260 C   0  0  0  0  0  1  0  0  0  0  0  0
  192.3060  174.0960  136.6360 C   0  0  0  0  0  1  0  0  0  0  0  0
  192.6370  175.0270  137.7880 C   0  0  0  0  0  3  0  0  0  0  0  0
  185.8500  178.2660  141.0950 C   0  0  0  0  0  2  0  0  0  0  0  0
  185.1100  177.9930  142.3940 C   0  0  0  0  0  2  0  0  0  0  0  0
  184.0590  179.5780  143.9710 C   0  0  0  0  0  1  0  0  0  0  0  0
  185.3770  179.1120  143.3800 C   0  0  0  0  0  2  0  0  0  0  0  0
  2 18  1  0  0  0  0
  3 20  1  0  0  0  0
  4  5  2  0  0  0  0
  4 10  1  0  0  0  0
  5  9  1  0  0  0  0
  6  7  1  0  0  0  0
  6 15  1  0  0  0  0
  8 20  2  0  0  0  0
  9  7  2  0  0  0  0
 10  6  2  0  0  0  0
 11 19  1  0  0  0  0
 12 21  1  0  0  0  0
 13 11  1  0  0  0  0
 14 22  1  0  0  0  0
 15 23  2  0  0  0  0
 16 17  1  0  0  0  0
 16  2  1  0  0  0  0
 17  3  1  0  0  0  0
 18 22  1  0  0  0  0
 18 33  1  1  0  0  0
 19  1  1  0  0  0  0
 20 10  1  0  0  0  0
 21  1  1  0  0  0  0
 21 52  1  1  0  0  0
 22 24  1  0  0  0  0
 23 13  1  0  0  0  0
 24 12  1  0  0  0  0
 25 23  1  1  0  0  0
 25 27  1  0  0  0  0
 26 30  1  6  0  0  0
 26 28  1  0  0  0  0
 28 27  1  0  0  0  0
 29 25  1  0  0  0  0
 29 26  1  0  0  0  0
 31 30  1  0  0  0  0
 32 31  1  0  0  0  0
 32 30  1  0  0  0  0
 33 34  1  0  0  0  0
 34 35  1  0  0  0  0
 36 35  1  0  0  0  0
 36 38  1  0  0  0  0
 37 38  2  0  0  0  0
 40 39  1  0  0  0  0
 40 42  1  1  0  0  0
 41 38  1  6  0  0  0
 41 40  1  0  0  0  0
 41 39  1  0  0  0  0
 42 43  1  0  0  0  0
 43 44  1  0  0  0  0
 44 47  1  0  0  0  0
 45 47  1  0  0  0  0
 47 46  2  0  0  0  0
 48 51  1  0  0  0  0
 48 36  1  0  0  0  0
 50 51  1  0  0  0  0
 51 49  1  0  0  0  0
 52 53  1  0  0  0  0
 53 55  1  0  0  0  0
 55 54  1  0  0  0  0
M  END
>  <MODEL>
6

>  <REMARK>
 VINA RESULT:      -3.6      2.721      5.396
  Name = 
  17 active torsions:
  status: ('A' for Active; 'I' for Inactive)
    1  A    between atoms: C_3  and  C_14
    2  A    between atoms: C_3  and  C_21
    3  A    between atoms: C_6  and  C_14
    4  A    between atoms: C_6  and  C_38
    5  A    between atoms: C_8  and  C_20
    6  A    between atoms: C_8  and  C_22
    7  A    between atoms: C_10  and  C_32
    8  A    between atoms: N_12  and  C_20
    9  A    between atoms: N_12  and  C_42
   10  A    between atoms: N_12  and  C_46
   11  A    between atoms: C_13  and  C_52
   12  A    between atoms: C_22  and  C_43
   13  A    between atoms: C_27  and  C_49
   14  A    between atoms: C_27  and  C_55
   15  A    between atoms: C_41  and  C_55
   16  A    between atoms: C_42  and  C_50
   17  A    between atoms: C_46  and  C_53
                            x       y       z     vdW  Elec       q    Type
                         _______ _______ _______ _____ _____    ______ ____

>  <TORSDO>
F 17

$$$$
=
 OpenBabel10262420233D

 55 59  0  0  1  0  0  0  0  0999 V2000
  182.9600  177.4490  140.4500 C   0  0  0  0  0  2  0  0  0  0  0  0
  188.3420  178.0520  136.0220 S   0  0  0  0  0  0  0  0  0  0  0  0
  186.9900  174.4040  135.3320 O   0  0  0  0  0  0  0  0  0  0  0  0
  186.5770  170.7300  135.2310 C   0  0  0  0  0  3  0  0  0  0  0  0
  185.6140  169.7260  135.3430 C   0  0  0  0  0  3  0  0  0  0  0  0
  185.0420  172.3300  136.2380 C   0  0  0  0  0  0  0  0  0  0  0  0
  184.0900  171.3070  136.3540 C   0  0  0  0  0  3  0  0  0  0  0  0
  188.5690  172.7320  135.4700 O   0  0  0  0  0  0  0  0  0  0  0  0
  184.3680  170.0160  135.9020 C   0  0  0  0  0  3  0  0  0  0  0  0
  186.3070  172.0360  135.6650 C   0  0  0  0  0  0  0  0  0  0  0  0
  182.6860  175.5920  138.7990 C   0  0  0  0  0  2  0  0  0  0  0  0
  184.5620  179.1120  139.4330 C   0  0  0  0  0  2  0  0  0  0  0  0
  183.5550  175.6270  137.5580 C   0  0  0  0  0  2  0  0  0  0  0  0
  186.1170  179.6230  136.7480 O   0  0  0  0  0  1  0  0  0  0  0  0
  184.7730  173.6580  136.8380 C   0  0  0  0  0  3  0  0  0  0  0  0
  187.2170  176.7810  135.3730 C   0  0  0  0  0  2  0  0  0  0  0  0
  187.9440  175.4520  135.3340 C   0  0  0  0  0  2  0  0  0  0  0  0
  187.5880  178.1310  137.7010 C   0  0  1  0  0  3  0  0  0  0  0  0
  182.2730  177.0060  139.1680 C   0  0  0  0  0  2  0  0  0  0  0  0
  187.3530  173.0660  135.4900 C   0  0  0  0  0  0  0  0  0  0  0  0
  184.4270  177.8070  140.2150 C   0  0  1  0  0  3  0  0  0  0  0  0
  186.2120  178.6510  137.6910 N   0  0  0  0  0  0  0  0  0  0  0  0
  183.5960  174.2870  136.8990 C   0  0  0  0  0  0  0  0  0  0  0  0
  185.9980  179.3230  138.9640 C   0  0  0  0  0  2  0  0  0  0  0  0
  182.3680  173.7550  136.2090 C   0  0  1  0  0  3  0  0  0  0  0  0
  180.2910  174.3560  136.7370 C   0  0  1  0  0  3  0  0  0  0  0  0
  181.8400  172.6630  136.9210 O   0  0  0  0  0  0  0  0  0  0  0  0
  180.4670  172.8870  136.9440 C   0  0  0  0  0  2  0  0  0  0  0  0
  181.4190  174.7870  136.0460 O   0  0  0  0  0  0  0  0  0  0  0  0
  179.0420  174.6270  135.9160 C   0  0  0  0  0  3  0  0  0  0  0  0
  179.1290  173.8570  134.6120 C   0  0  0  0  0  2  0  0  0  0  0  0
  179.4220  175.3430  134.6340 C   0  0  0  0  0  2  0  0  0  0  0  0
  187.6330  176.7490  138.3480 C   0  0  0  0  0  2  0  0  0  0  0  0
  188.6830  176.6770  139.4370 C   0  0  0  0  0  2  0  0  0  0  0  0
  188.5540  177.9020  140.3250 C   0  0  0  0  0  2  0  0  0  0  0  0
  189.5640  177.8730  141.3780 N   0  0  0  0  0  0  0  0  0  0  0  0
  191.4510  176.4990  141.9380 C   0  0  0  0  0  2  0  0  0  0  0  0
  190.8920  177.3810  141.1080 C   0  0  0  0  0  0  0  0  0  0  0  0
  193.0230  177.3410  139.7790 C   0  0  0  0  0  2  0  0  0  0  0  0
  192.1110  176.2520  139.2660 C   0  0  1  0  0  3  0  0  0  0  0  0
  191.5190  177.5680  139.7500 C   0  0  1  0  0  3  0  0  0  0  0  0
  192.1230  176.2520  137.7520 C   0  0  0  0  0  2  0  0  0  0  0  0
  191.5590  174.9320  137.2480 C   0  0  0  0  0  2  0  0  0  0  0  0
  192.3140  174.4620  136.0140 C   0  0  0  0  0  2  0  0  0  0  0  0
  194.5630  173.5640  136.9430 C   0  0  0  0  0  1  0  0  0  0  0  0
  192.8690  172.1750  136.0910 O   0  0  0  0  0  0  0  0  0  0  0  0
  193.2230  173.3170  136.3360 C   0  0  0  0  0  0  0  0  0  0  0  0
  189.2230  178.4190  142.6900 C   0  0  0  0  0  2  0  0  0  0  0  0
  187.7700  176.5240  143.5240 C   0  0  0  0  0  1  0  0  0  0  0  0
  189.0670  177.9010  145.1520 C   0  0  0  0  0  1  0  0  0  0  0  0
  189.0380  177.3280  143.7470 C   0  0  0  0  0  3  0  0  0  0  0  0
  185.1760  177.8740  141.5460 C   0  0  0  0  0  2  0  0  0  0  0  0
  184.2940  178.3050  142.7060 C   0  0  0  0  0  2  0  0  0  0  0  0
  184.1960  179.5920  144.8120 C   0  0  0  0  0  1  0  0  0  0  0  0
  185.0750  179.2090  143.6360 C   0  0  0  0  0  2  0  0  0  0  0  0
  2 18  1  0  0  0  0
  3 17  1  0  0  0  0
  3 20  1  0  0  0  0
  4  5  2  0  0  0  0
  4 10  1  0  0  0  0
  5  9  1  0  0  0  0
  6  7  1  0  0  0  0
  6 15  1  0  0  0  0
  8 20  2  0  0  0  0
  9  7  2  0  0  0  0
 10  6  2  0  0  0  0
 11 19  1  0  0  0  0
 12 21  1  0  0  0  0
 13 11  1  0  0  0  0
 14 22  1  0  0  0  0
 15 23  2  0  0  0  0
 16  2  1  0  0  0  0
 17 16  1  0  0  0  0
 18 33  1  6  0  0  0
 19  1  1  0  0  0  0
 20 10  1  0  0  0  0
 21  1  1  0  0  0  0
 21 52  1  1  0  0  0
 22 18  1  0  0  0  0
 22 24  1  0  0  0  0
 23 13  1  0  0  0  0
 24 12  1  0  0  0  0
 25 23  1  1  0  0  0
 25 27  1  0  0  0  0
 26 30  1  6  0  0  0
 26 28  1  0  0  0  0
 27 28  1  0  0  0  0
 29 25  1  0  0  0  0
 29 26  1  0  0  0  0
 31 32  1  0  0  0  0
 31 30  1  0  0  0  0
 32 30  1  0  0  0  0
 33 34  1  0  0  0  0
 34 35  1  0  0  0  0
 35 36  1  0  0  0  0
 36 48  1  0  0  0  0
 38 36  1  0  0  0  0
 38 37  2  0  0  0  0
 40 42  1  6  0  0  0
 40 41  1  0  0  0  0
 40 39  1  0  0  0  0
 41 39  1  0  0  0  0
 41 38  1  1  0  0  0
 43 42  1  0  0  0  0
 44 47  1  0  0  0  0
 44 43  1  0  0  0  0
 46 47  2  0  0  0  0
 47 45  1  0  0  0  0
 48 51  1  0  0  0  0
 49 51  1  0  0  0  0
 51 50  1  0  0  0  0
 52 53  1  0  0  0  0
 53 55  1  0  0  0  0
 55 54  1  0  0  0  0
M  END
>  <MODEL>
7

>  <REMARK>
 VINA RESULT:      -3.4      2.460      5.195
  Name = 
  17 active torsions:
  status: ('A' for Active; 'I' for Inactive)
    1  A    between atoms: C_3  and  C_14
    2  A    between atoms: C_3  and  C_21
    3  A    between atoms: C_6  and  C_14
    4  A    between atoms: C_6  and  C_38
    5  A    between atoms: C_8  and  C_20
    6  A    between atoms: C_8  and  C_22
    7  A    between atoms: C_10  and  C_32
    8  A    between atoms: N_12  and  C_20
    9  A    between atoms: N_12  and  C_42
   10  A    between atoms: N_12  and  C_46
   11  A    between atoms: C_13  and  C_52
   12  A    between atoms: C_22  and  C_43
   13  A    between atoms: C_27  and  C_49
   14  A    between atoms: C_27  and  C_55
   15  A    between atoms: C_41  and  C_55
   16  A    between atoms: C_42  and  C_50
   17  A    between atoms: C_46  and  C_53
                            x       y       z     vdW  Elec       q    Type
                         _______ _______ _______ _____ _____    ______ ____

>  <TORSDO>
F 17

$$$$
