=
 OpenBabel10262421403D

 32 32  0  0  1  0  0  0  0  0999 V2000
  188.1000  178.2330  140.7240 C   0  0  2  0  0  3  0  0  0  0  0  0
  187.7820  178.0650  139.2180 C   0  0  2  0  0  3  0  0  0  0  0  0
  190.6540  176.9200  137.2650 C   0  0  0  0  0  3  0  0  0  0  0  0
  189.7510  177.7210  137.7550 C   0  0  0  0  0  0  0  0  0  0  0  0
  188.8440  178.5240  138.2470 C   0  0  0  0  0  3  0  0  0  0  0  0
  190.6850  175.5200  137.6700 C   0  0  0  0  0  3  0  0  0  0  0  0
  191.8420  174.8880  137.7890 C   0  0  0  0  0  2  0  0  0  0  0  0
  186.4900  178.5070  138.8510 O   0  0  0  0  0  0  0  0  0  0  0  0
  186.2640  178.1720  137.5050 C   0  0  0  0  0  1  0  0  0  0  0  0
  188.5120  176.9150  141.3970 C   0  0  0  0  0  2  0  0  0  0  0  0
  190.0130  176.6320  141.3320 C   0  0  1  0  0  3  0  0  0  0  0  0
  190.7040  177.8380  141.1980 O   0  0  0  0  0  0  0  0  0  0  0  0
  191.9740  177.4720  140.7530 C   0  0  0  0  0  1  0  0  0  0  0  0
  190.4400  175.9790  142.4910 O   0  0  0  0  0  0  0  0  0  0  0  0
  189.3800  176.1240  143.3880 C   0  0  0  0  0  2  0  0  0  0  0  0
  189.4790  178.3070  144.5550 C   0  0  0  0  0  2  0  0  0  0  0  0
  191.3740  176.8160  144.7200 C   0  0  1  0  0  3  0  0  0  0  0  0
  191.7400  178.2390  144.5060 C   0  0  0  0  0  3  0  0  0  0  0  0
  190.7240  179.0060  144.4200 N   0  0  0  0  0  0  0  0  0  0  0  0
  191.8110  176.3890  146.1070 C   0  0  0  0  0  1  0  0  0  0  0  0
  189.8510  176.8310  144.6490 C   0  0  2  0  0  3  0  0  0  0  0  0
  186.9420  178.8850  141.4700 C   0  0  0  0  0  2  0  0  0  0  0  0
  186.5390  178.0700  142.5310 O   0  0  0  0  0  0  0  0  0  0  0  0
  185.1500  178.2080  142.5780 C   0  0  0  0  0  2  0  0  0  0  0  0
  184.6960  178.3770  144.0160 C   0  0  2  0  0  3  0  0  0  0  0  0
  183.7870  179.5860  144.1130 C   0  0  0  0  0  1  0  0  0  0  0  0
  185.8540  178.5570  144.8800 N   0  0  0  0  0  2  0  0  0  0  0  0
  185.7650  178.5180  146.3060 C   0  0  0  0  0  0  0  0  0  0  0  0
  184.6600  178.2850  146.8690 O   0  0  0  0  0  0  0  0  0  0  0  0
  186.9170  178.7340  147.0640 O   0  0  0  0  0  0  0  0  0  0  0  0
  187.5510  177.6850  147.7790 C   0  0  0  0  0  2  0  0  0  0  0  0
  188.9420  178.1210  148.1870 C   0  0  0  0  0  1  0  0  0  0  0  0
  1 10  1  1  0  0  0
  1 22  1  0  0  0  0
  2  5  1  6  0  0  0
  2  1  1  0  0  0  0
  3  6  1  0  0  0  0
  3  4  2  0  0  0  0
  4  5  2  0  0  0  0
  6  7  2  0  0  0  0
  8  2  1  0  0  0  0
  9  8  1  0  0  0  0
 11 10  1  1  0  0  0
 11 14  1  0  0  0  0
 12 11  1  0  0  0  0
 13 12  1  0  0  0  0
 14 15  1  0  0  0  0
 16 21  1  0  0  0  0
 17 20  1  1  0  0  0
 18 17  1  0  0  0  0
 19 18  2  0  0  0  0
 19 16  1  0  0  0  0
 21 15  1  6  0  0  0
 21 17  1  0  0  0  0
 22 23  1  0  0  0  0
 23 24  1  0  0  0  0
 24 25  1  0  0  0  0
 25 26  1  6  0  0  0
 25 27  1  0  0  0  0
 27 28  1  0  0  0  0
 28 29  2  0  0  0  0
 28 30  1  0  0  0  0
 30 31  1  0  0  0  0
 31 32  1  0  0  0  0
M  END
>  <MODEL>
1

>  <REMARK>
 VINA RESULT:      -6.4      0.000      0.000
  Name = 
  17 active torsions:
  status: ('A' for Active; 'I' for Inactive)
    1  A    between atoms: C_1  and  O_20
    2  A    between atoms: C_2  and  C_9
    3  A    between atoms: C_2  and  O_23
    4  A    between atoms: O_3  and  C_14
    5  A    between atoms: C_4  and  C_5
    6  A    between atoms: O_6  and  C_31
    7  A    between atoms: C_8  and  O_23
    8  A    between atoms: C_8  and  C_28
    9  A    between atoms: C_9  and  N_10
   10  A    between atoms: C_13  and  C_28
   11  A    between atoms: C_13  and  C_31
   12  A    between atoms: C_14  and  C_26
   13  A    between atoms: C_14  and  C_28
   14  A    between atoms: O_16  and  C_27
   15  A    between atoms: O_16  and  C_31
   16  A    between atoms: C_19  and  O_20
   17  A    between atoms: C_27  and  C_32
                            x       y       z     vdW  Elec       q    Type
                         _______ _______ _______ _____ _____    ______ ____

>  <TORSDO>
F 17

$$$$
=
 OpenBabel10262421403D

 32 32  0  0  1  0  0  0  0  0999 V2000
  187.2140  178.0670  141.2050 C   0  0  2  0  0  3  0  0  0  0  0  0
  185.9820  178.9450  141.5350 C   0  0  2  0  0  3  0  0  0  0  0  0
  184.8130  178.3270  144.9450 C   0  0  0  0  0  3  0  0  0  0  0  0
  184.8460  178.3090  143.6420 C   0  0  0  0  0  0  0  0  0  0  0  0
  184.8800  178.2920  142.3360 C   0  0  0  0  0  3  0  0  0  0  0  0
  185.8830  178.9750  145.6940 C   0  0  0  0  0  3  0  0  0  0  0  0
  185.9070  178.9020  147.0150 C   0  0  0  0  0  2  0  0  0  0  0  0
  185.4850  179.6750  140.4310 O   0  0  0  0  0  0  0  0  0  0  0  0
  184.2590  179.1150  140.0350 C   0  0  0  0  0  1  0  0  0  0  0  0
  188.2510  178.0470  142.3380 C   0  0  0  0  0  2  0  0  0  0  0  0
  189.0120  176.7260  142.4550 C   0  0  1  0  0  3  0  0  0  0  0  0
  189.8280  176.5620  141.3330 O   0  0  0  0  0  0  0  0  0  0  0  0
  191.0040  177.2420  141.6470 C   0  0  0  0  0  1  0  0  0  0  0  0
  189.8000  176.7120  143.6080 O   0  0  0  0  0  0  0  0  0  0  0  0
  188.9220  177.0550  144.6390 C   0  0  0  0  0  2  0  0  0  0  0  0
  191.1640  177.7320  145.4460 C   0  0  0  0  0  2  0  0  0  0  0  0
  189.5220  176.9970  147.0600 C   0  0  1  0  0  3  0  0  0  0  0  0
  190.8880  176.4650  147.2990 C   0  0  0  0  0  3  0  0  0  0  0  0
  191.7360  176.8630  146.4340 N   0  0  0  0  0  0  0  0  0  0  0  0
  189.1560  177.9570  148.1750 C   0  0  0  0  0  1  0  0  0  0  0  0
  189.6710  177.7680  145.7530 C   0  0  2  0  0  3  0  0  0  0  0  0
  187.8560  178.4780  139.8870 C   0  0  0  0  0  2  0  0  0  0  0  0
  187.3310  177.7150  138.8410 O   0  0  0  0  0  0  0  0  0  0  0  0
  188.2320  177.8860  137.7880 C   0  0  0  0  0  2  0  0  0  0  0  0
  188.5170  176.5490  137.1280 C   0  0  2  0  0  3  0  0  0  0  0  0
  187.2900  175.6650  137.2400 C   0  0  0  0  0  1  0  0  0  0  0  0
  189.6500  175.9090  137.7820 N   0  0  0  0  0  2  0  0  0  0  0  0
  190.4880  174.9610  137.1180 C   0  0  0  0  0  0  0  0  0  0  0  0
  190.2870  174.6710  135.9070 O   0  0  0  0  0  0  0  0  0  0  0  0
  191.5340  174.3670  137.8270 O   0  0  0  0  0  0  0  0  0  0  0  0
  192.8720  174.8280  137.7140 C   0  0  0  0  0  2  0  0  0  0  0  0
  193.7400  173.7250  137.1490 C   0  0  0  0  0  1  0  0  0  0  0  0
  1 22  1  6  0  0  0
  1  2  1  0  0  0  0
  1 10  1  0  0  0  0
  2  5  1  6  0  0  0
  3  6  1  0  0  0  0
  4  3  2  0  0  0  0
  5  4  2  0  0  0  0
  6  7  2  0  0  0  0
  8  2  1  0  0  0  0
  9  8  1  0  0  0  0
 11 10  1  6  0  0  0
 11 14  1  0  0  0  0
 12 13  1  0  0  0  0
 12 11  1  0  0  0  0
 14 15  1  0  0  0  0
 16 21  1  0  0  0  0
 16 19  1  0  0  0  0
 17 18  1  0  0  0  0
 17 20  1  1  0  0  0
 19 18  2  0  0  0  0
 21 15  1  6  0  0  0
 21 17  1  0  0  0  0
 23 22  1  0  0  0  0
 24 23  1  0  0  0  0
 25 26  1  1  0  0  0
 25 27  1  0  0  0  0
 25 24  1  0  0  0  0
 28 27  1  0  0  0  0
 28 30  1  0  0  0  0
 29 28  2  0  0  0  0
 31 30  1  0  0  0  0
 32 31  1  0  0  0  0
M  END
>  <MODEL>
2

>  <REMARK>
 VINA RESULT:      -6.2      2.391      6.817
  Name = 
  17 active torsions:
  status: ('A' for Active; 'I' for Inactive)
    1  A    between atoms: C_1  and  O_20
    2  A    between atoms: C_2  and  C_9
    3  A    between atoms: C_2  and  O_23
    4  A    between atoms: O_3  and  C_14
    5  A    between atoms: C_4  and  C_5
    6  A    between atoms: O_6  and  C_31
    7  A    between atoms: C_8  and  O_23
    8  A    between atoms: C_8  and  C_28
    9  A    between atoms: C_9  and  N_10
   10  A    between atoms: C_13  and  C_28
   11  A    between atoms: C_13  and  C_31
   12  A    between atoms: C_14  and  C_26
   13  A    between atoms: C_14  and  C_28
   14  A    between atoms: O_16  and  C_27
   15  A    between atoms: O_16  and  C_31
   16  A    between atoms: C_19  and  O_20
   17  A    between atoms: C_27  and  C_32
                            x       y       z     vdW  Elec       q    Type
                         _______ _______ _______ _____ _____    ______ ____

>  <TORSDO>
F 17

$$$$
=
 OpenBabel10262421403D

 32 32  0  0  1  0  0  0  0  0999 V2000
  187.1630  178.0130  141.5890 C   0  0  2  0  0  3  0  0  0  0  0  0
  185.9400  178.9400  141.7860 C   0  0  2  0  0  3  0  0  0  0  0  0
  184.5260  178.5360  145.1350 C   0  0  0  0  0  3  0  0  0  0  0  0
  184.6450  178.4490  143.8400 C   0  0  0  0  0  0  0  0  0  0  0  0
  184.7660  178.3620  142.5410 C   0  0  0  0  0  3  0  0  0  0  0  0
  185.5630  179.1930  145.9210 C   0  0  0  0  0  3  0  0  0  0  0  0
  186.0330  178.6140  147.0150 C   0  0  0  0  0  2  0  0  0  0  0  0
  185.5410  179.6220  140.6130 O   0  0  0  0  0  0  0  0  0  0  0  0
  184.3840  179.0080  140.1050 C   0  0  0  0  0  1  0  0  0  0  0  0
  187.9990  177.8500  142.8680 C   0  0  0  0  0  2  0  0  0  0  0  0
  189.3320  177.1360  142.6480 C   0  0  1  0  0  3  0  0  0  0  0  0
  190.3000  178.0710  142.2760 O   0  0  0  0  0  0  0  0  0  0  0  0
  191.3590  177.3100  141.7800 C   0  0  0  0  0  1  0  0  0  0  0  0
  189.7410  176.4850  143.8140 O   0  0  0  0  0  0  0  0  0  0  0  0
  188.9260  177.0150  144.8170 C   0  0  0  0  0  2  0  0  0  0  0  0
  191.2450  177.5440  145.5090 C   0  0  0  0  0  2  0  0  0  0  0  0
  189.6140  177.0290  147.2160 C   0  0  1  0  0  3  0  0  0  0  0  0
  190.9400  176.3980  147.4360 C   0  0  0  0  0  3  0  0  0  0  0  0
  191.7830  176.6820  146.5220 N   0  0  0  0  0  0  0  0  0  0  0  0
  189.3700  178.0700  148.2910 C   0  0  0  0  0  1  0  0  0  0  0  0
  189.7730  177.7190  145.8650 C   0  0  2  0  0  3  0  0  0  0  0  0
  188.0340  178.4750  140.4270 C   0  0  0  0  0  2  0  0  0  0  0  0
  187.7320  177.7340  139.2820 O   0  0  0  0  0  0  0  0  0  0  0  0
  188.9510  177.1800  138.8840 C   0  0  0  0  0  2  0  0  0  0  0  0
  188.7530  176.3310  137.6420 C   0  0  2  0  0  3  0  0  0  0  0  0
  189.6230  176.8710  136.5240 C   0  0  0  0  0  1  0  0  0  0  0  0
  187.3540  176.3630  137.2420 N   0  0  0  0  0  2  0  0  0  0  0  0
  186.6030  175.1790  136.9640 C   0  0  0  0  0  0  0  0  0  0  0  0
  187.1360  174.0430  137.0960 O   0  0  0  0  0  0  0  0  0  0  0  0
  185.2750  175.2980  136.5520 O   0  0  0  0  0  0  0  0  0  0  0  0
  184.3290  176.0590  137.2860 C   0  0  0  0  0  2  0  0  0  0  0  0
  183.7750  177.1610  136.4080 C   0  0  0  0  0  1  0  0  0  0  0  0
  1 22  1  6  0  0  0
  1  2  1  0  0  0  0
  1 10  1  0  0  0  0
  2  5  1  6  0  0  0
  3  6  1  0  0  0  0
  4  3  2  0  0  0  0
  5  4  2  0  0  0  0
  6  7  2  0  0  0  0
  8  2  1  0  0  0  0
  9  8  1  0  0  0  0
 11 10  1  1  0  0  0
 11 14  1  0  0  0  0
 12 11  1  0  0  0  0
 13 12  1  0  0  0  0
 14 15  1  0  0  0  0
 16 21  1  0  0  0  0
 16 19  1  0  0  0  0
 17 18  1  0  0  0  0
 17 20  1  1  0  0  0
 19 18  2  0  0  0  0
 21 15  1  6  0  0  0
 21 17  1  0  0  0  0
 23 22  1  0  0  0  0
 24 23  1  0  0  0  0
 25 26  1  6  0  0  0
 25 24  1  0  0  0  0
 27 25  1  0  0  0  0
 28 29  2  0  0  0  0
 28 27  1  0  0  0  0
 30 28  1  0  0  0  0
 30 31  1  0  0  0  0
 32 31  1  0  0  0  0
M  END
>  <MODEL>
3

>  <REMARK>
 VINA RESULT:      -6.1      2.431      6.709
  Name = 
  17 active torsions:
  status: ('A' for Active; 'I' for Inactive)
    1  A    between atoms: C_1  and  O_20
    2  A    between atoms: C_2  and  C_9
    3  A    between atoms: C_2  and  O_23
    4  A    between atoms: O_3  and  C_14
    5  A    between atoms: C_4  and  C_5
    6  A    between atoms: O_6  and  C_31
    7  A    between atoms: C_8  and  O_23
    8  A    between atoms: C_8  and  C_28
    9  A    between atoms: C_9  and  N_10
   10  A    between atoms: C_13  and  C_28
   11  A    between atoms: C_13  and  C_31
   12  A    between atoms: C_14  and  C_26
   13  A    between atoms: C_14  and  C_28
   14  A    between atoms: O_16  and  C_27
   15  A    between atoms: O_16  and  C_31
   16  A    between atoms: C_19  and  O_20
   17  A    between atoms: C_27  and  C_32
                            x       y       z     vdW  Elec       q    Type
                         _______ _______ _______ _____ _____    ______ ____

>  <TORSDO>
F 17

$$$$
=
 OpenBabel10262421403D

 32 32  0  0  1  0  0  0  0  0999 V2000
  189.6890  177.7440  142.0790 C   0  0  2  0  0  3  0  0  0  0  0  0
  189.5690  177.5020  143.6030 C   0  0  2  0  0  3  0  0  0  0  0  0
  187.6600  177.4830  146.7230 C   0  0  0  0  0  3  0  0  0  0  0  0
  187.9140  177.4410  145.4450 C   0  0  0  0  0  0  0  0  0  0  0  0
  188.1700  177.3980  144.1640 C   0  0  0  0  0  3  0  0  0  0  0  0
  188.7520  177.6120  147.6800 C   0  0  0  0  0  3  0  0  0  0  0  0
  188.5480  178.2110  148.8430 C   0  0  0  0  0  2  0  0  0  0  0  0
  190.4010  178.3370  144.3840 O   0  0  0  0  0  0  0  0  0  0  0  0
  191.4280  177.5570  144.9410 C   0  0  0  0  0  1  0  0  0  0  0  0
  188.3710  177.4910  141.3310 C   0  0  0  0  0  2  0  0  0  0  0  0
  187.8060  178.7310  140.6380 C   0  0  1  0  0  3  0  0  0  0  0  0
  188.3100  178.8020  139.3370 O   0  0  0  0  0  0  0  0  0  0  0  0
  187.5530  177.8830  138.6110 C   0  0  0  0  0  1  0  0  0  0  0  0
  186.4110  178.6770  140.5920 O   0  0  0  0  0  0  0  0  0  0  0  0
  185.9960  179.3320  141.7540 C   0  0  0  0  0  2  0  0  0  0  0  0
  183.9070  178.0050  141.6490 C   0  0  0  0  0  2  0  0  0  0  0  0
  184.3910  179.2500  143.6640 C   0  0  1  0  0  3  0  0  0  0  0  0
  182.9750  179.3330  143.2260 C   0  0  0  0  0  3  0  0  0  0  0  0
  182.7440  178.6710  142.1610 N   0  0  0  0  0  0  0  0  0  0  0  0
  184.4700  178.4760  144.9650 C   0  0  0  0  0  1  0  0  0  0  0  0
  185.0550  178.4440  142.5520 C   0  0  2  0  0  3  0  0  0  0  0  0
  190.8240  176.9300  141.4710 C   0  0  0  0  0  2  0  0  0  0  0  0
  191.1210  177.4060  140.1920 O   0  0  0  0  0  0  0  0  0  0  0  0
  190.8550  176.3320  139.3410 C   0  0  0  0  0  2  0  0  0  0  0  0
  191.6690  176.4670  138.0670 C   0  0  2  0  0  3  0  0  0  0  0  0
  190.7300  176.6560  136.8920 C   0  0  0  0  0  1  0  0  0  0  0  0
  192.4760  175.2710  137.8700 N   0  0  0  0  0  2  0  0  0  0  0  0
  193.7880  175.3110  137.3050 C   0  0  0  0  0  0  0  0  0  0  0  0
  194.3110  176.4140  136.9860 O   0  0  0  0  0  0  0  0  0  0  0  0
  194.4820  174.1150  137.1170 O   0  0  0  0  0  0  0  0  0  0  0  0
  194.9710  173.3530  138.2110 C   0  0  0  0  0  2  0  0  0  0  0  0
  195.7740  174.2470  139.1310 C   0  0  0  0  0  1  0  0  0  0  0  0
  1 10  1  6  0  0  0
  1  2  1  0  0  0  0
  2  5  1  1  0  0  0
  2  8  1  0  0  0  0
  3  6  1  0  0  0  0
  4  3  2  0  0  0  0
  5  4  2  0  0  0  0
  6  7  2  0  0  0  0
  8  9  1  0  0  0  0
 11 10  1  6  0  0  0
 12 11  1  0  0  0  0
 13 12  1  0  0  0  0
 14 11  1  0  0  0  0
 14 15  1  0  0  0  0
 16 19  1  0  0  0  0
 16 21  1  0  0  0  0
 17 20  1  1  0  0  0
 18 17  1  0  0  0  0
 19 18  2  0  0  0  0
 21 15  1  6  0  0  0
 21 17  1  0  0  0  0
 22  1  1  0  0  0  0
 23 22  1  0  0  0  0
 24 23  1  0  0  0  0
 25 26  1  6  0  0  0
 25 24  1  0  0  0  0
 27 25  1  0  0  0  0
 28 27  1  0  0  0  0
 29 28  2  0  0  0  0
 30 28  1  0  0  0  0
 30 31  1  0  0  0  0
 31 32  1  0  0  0  0
M  END
>  <MODEL>
4

>  <REMARK>
 VINA RESULT:      -6.1      2.701      8.413
  Name = 
  17 active torsions:
  status: ('A' for Active; 'I' for Inactive)
    1  A    between atoms: C_1  and  O_20
    2  A    between atoms: C_2  and  C_9
    3  A    between atoms: C_2  and  O_23
    4  A    between atoms: O_3  and  C_14
    5  A    between atoms: C_4  and  C_5
    6  A    between atoms: O_6  and  C_31
    7  A    between atoms: C_8  and  O_23
    8  A    between atoms: C_8  and  C_28
    9  A    between atoms: C_9  and  N_10
   10  A    between atoms: C_13  and  C_28
   11  A    between atoms: C_13  and  C_31
   12  A    between atoms: C_14  and  C_26
   13  A    between atoms: C_14  and  C_28
   14  A    between atoms: O_16  and  C_27
   15  A    between atoms: O_16  and  C_31
   16  A    between atoms: C_19  and  O_20
   17  A    between atoms: C_27  and  C_32
                            x       y       z     vdW  Elec       q    Type
                         _______ _______ _______ _____ _____    ______ ____

>  <TORSDO>
F 17

$$$$
=
 OpenBabel10262421403D

 32 32  0  0  1  0  0  0  0  0999 V2000
  185.5030  178.1820  142.8790 C   0  0  2  0  0  3  0  0  0  0  0  0
  186.4200  177.5110  143.9300 C   0  0  2  0  0  3  0  0  0  0  0  0
  187.8850  177.9310  147.2540 C   0  0  0  0  0  3  0  0  0  0  0  0
  186.9810  177.8420  146.3190 C   0  0  0  0  0  0  0  0  0  0  0  0
  186.0760  177.7520  145.3810 C   0  0  0  0  0  3  0  0  0  0  0  0
  189.2960  177.7730  146.9240 C   0  0  0  0  0  3  0  0  0  0  0  0
  189.9320  176.6580  147.2470 C   0  0  0  0  0  2  0  0  0  0  0  0
  187.8010  177.6670  143.6710 O   0  0  0  0  0  0  0  0  0  0  0  0
  188.3580  176.4050  143.4080 C   0  0  0  0  0  1  0  0  0  0  0  0
  186.2910  178.9230  141.7880 C   0  0  0  0  0  2  0  0  0  0  0  0
  185.7540  178.6940  140.3750 C   0  0  1  0  0  3  0  0  0  0  0  0
  184.8860  179.7350  140.0380 O   0  0  0  0  0  0  0  0  0  0  0  0
  183.9510  179.1550  139.1810 C   0  0  0  0  0  1  0  0  0  0  0  0
  186.8010  178.6460  139.4520 O   0  0  0  0  0  0  0  0  0  0  0  0
  187.9160  178.2690  140.2040 C   0  0  0  0  0  2  0  0  0  0  0  0
  188.7670  178.5940  137.9000 C   0  0  0  0  0  2  0  0  0  0  0  0
  189.8030  176.9120  139.2920 C   0  0  1  0  0  3  0  0  0  0  0  0
  189.5730  176.4810  137.8910 C   0  0  0  0  0  3  0  0  0  0  0  0
  189.0230  177.3820  137.1760 N   0  0  0  0  0  0  0  0  0  0  0  0
  191.2930  177.0300  139.5430 C   0  0  0  0  0  1  0  0  0  0  0  0
  189.1670  178.2980  139.3410 C   0  0  2  0  0  3  0  0  0  0  0  0
  184.4840  179.1050  143.5340 C   0  0  0  0  0  2  0  0  0  0  0  0
  183.2420  178.9650  142.9090 O   0  0  0  0  0  0  0  0  0  0  0  0
  182.3110  179.0390  143.9470 C   0  0  0  0  0  2  0  0  0  0  0  0
  180.9070  179.1240  143.3770 C   0  0  2  0  0  3  0  0  0  0  0  0
  180.0650  178.0030  143.9530 C   0  0  0  0  0  1  0  0  0  0  0  0
  180.9570  179.0110  141.9270 N   0  0  0  0  0  2  0  0  0  0  0  0
  180.3720  179.9830  141.0570 C   0  0  0  0  0  0  0  0  0  0  0  0
  179.8140  181.0090  141.5330 O   0  0  0  0  0  0  0  0  0  0  0  0
  180.4340  179.7830  139.6770 O   0  0  0  0  0  0  0  0  0  0  0  0
  180.0040  180.7740  138.7560 C   0  0  0  0  0  2  0  0  0  0  0  0
  181.1980  181.5740  138.2810 C   0  0  0  0  0  1  0  0  0  0  0  0
  1 10  1  6  0  0  0
  1 22  1  0  0  0  0
  1  2  1  0  0  0  0
  2  5  1  1  0  0  0
  4  3  2  0  0  0  0
  5  4  2  0  0  0  0
  6  7  2  0  0  0  0
  6  3  1  0  0  0  0
  8  2  1  0  0  0  0
  9  8  1  0  0  0  0
 11 10  1  1  0  0  0
 12 11  1  0  0  0  0
 13 12  1  0  0  0  0
 14 15  1  0  0  0  0
 14 11  1  0  0  0  0
 16 21  1  0  0  0  0
 17 21  1  0  0  0  0
 17 20  1  6  0  0  0
 18 17  1  0  0  0  0
 19 18  2  0  0  0  0
 19 16  1  0  0  0  0
 21 15  1  1  0  0  0
 23 22  1  0  0  0  0
 23 24  1  0  0  0  0
 25 24  1  0  0  0  0
 25 26  1  1  0  0  0
 27 25  1  0  0  0  0
 28 29  2  0  0  0  0
 28 27  1  0  0  0  0
 30 28  1  0  0  0  0
 31 30  1  0  0  0  0
 32 31  1  0  0  0  0
M  END
>  <MODEL>
5

>  <REMARK>
 VINA RESULT:      -6.1      3.416      7.117
  Name = 
  17 active torsions:
  status: ('A' for Active; 'I' for Inactive)
    1  A    between atoms: C_1  and  O_20
    2  A    between atoms: C_2  and  C_9
    3  A    between atoms: C_2  and  O_23
    4  A    between atoms: O_3  and  C_14
    5  A    between atoms: C_4  and  C_5
    6  A    between atoms: O_6  and  C_31
    7  A    between atoms: C_8  and  O_23
    8  A    between atoms: C_8  and  C_28
    9  A    between atoms: C_9  and  N_10
   10  A    between atoms: C_13  and  C_28
   11  A    between atoms: C_13  and  C_31
   12  A    between atoms: C_14  and  C_26
   13  A    between atoms: C_14  and  C_28
   14  A    between atoms: O_16  and  C_27
   15  A    between atoms: O_16  and  C_31
   16  A    between atoms: C_19  and  O_20
   17  A    between atoms: C_27  and  C_32
                            x       y       z     vdW  Elec       q    Type
                         _______ _______ _______ _____ _____    ______ ____

>  <TORSDO>
F 17

$$$$
=
 OpenBabel10262421403D

 32 32  0  0  1  0  0  0  0  0999 V2000
  190.0820  177.3860  144.6670 C   0  0  2  0  0  3  0  0  0  0  0  0
  190.5550  176.6230  145.9280 C   0  0  2  0  0  3  0  0  0  0  0  0
  188.1250  178.2470  148.1270 C   0  0  0  0  0  3  0  0  0  0  0  0
  189.2670  177.7950  147.6890 C   0  0  0  0  0  0  0  0  0  0  0  0
  190.4110  177.3410  147.2490 C   0  0  0  0  0  3  0  0  0  0  0  0
  186.9210  178.0910  147.3200 C   0  0  0  0  0  3  0  0  0  0  0  0
  185.9290  178.9610  147.4330 C   0  0  0  0  0  2  0  0  0  0  0  0
  191.8200  176.0070  145.7860 O   0  0  0  0  0  0  0  0  0  0  0  0
  192.2970  175.6570  147.0610 C   0  0  0  0  0  1  0  0  0  0  0  0
  189.1050  176.5700  143.8080 C   0  0  0  0  0  2  0  0  0  0  0  0
  188.0570  177.4190  143.0890 C   0  0  1  0  0  3  0  0  0  0  0  0
  188.3370  177.4360  141.7210 O   0  0  0  0  0  0  0  0  0  0  0  0
  188.4340  178.7890  141.3940 C   0  0  0  0  0  1  0  0  0  0  0  0
  186.7770  176.8990  143.2940 O   0  0  0  0  0  0  0  0  0  0  0  0
  186.1360  177.8480  144.0930 C   0  0  0  0  0  2  0  0  0  0  0  0
  184.4970  179.7060  144.0940 C   0  0  0  0  0  2  0  0  0  0  0  0
  184.5500  178.2050  142.1990 C   0  0  1  0  0  3  0  0  0  0  0  0
  183.1820  178.5550  142.6560 C   0  0  0  0  0  3  0  0  0  0  0  0
  183.1780  179.3450  143.6570 N   0  0  0  0  0  0  0  0  0  0  0  0
  184.7930  178.8110  140.8310 C   0  0  0  0  0  1  0  0  0  0  0  0
  185.4480  178.8890  143.2250 C   0  0  2  0  0  3  0  0  0  0  0  0
  191.2610  177.8740  143.8350 C   0  0  0  0  0  2  0  0  0  0  0  0
  191.4850  177.0000  142.7670 O   0  0  0  0  0  0  0  0  0  0  0  0
  191.7690  177.8300  141.6810 C   0  0  0  0  0  2  0  0  0  0  0  0
  191.9410  176.9970  140.4240 C   0  0  2  0  0  3  0  0  0  0  0  0
  193.3330  177.2180  139.8660 C   0  0  0  0  0  1  0  0  0  0  0  0
  190.9440  177.3850  139.4370 N   0  0  0  0  0  2  0  0  0  0  0  0
  190.3840  176.4610  138.5010 C   0  0  0  0  0  0  0  0  0  0  0  0
  190.7210  175.2450  138.5290 O   0  0  0  0  0  0  0  0  0  0  0  0
  189.4580  176.9210  137.5640 O   0  0  0  0  0  0  0  0  0  0  0  0
  188.0900  176.5450  137.6150 C   0  0  0  0  0  2  0  0  0  0  0  0
  187.2600  177.7220  138.0810 C   0  0  0  0  0  1  0  0  0  0  0  0
  1 10  1  6  0  0  0
  1  2  1  0  0  0  0
  2  5  1  1  0  0  0
  4  3  2  0  0  0  0
  5  4  2  0  0  0  0
  6  7  2  0  0  0  0
  6  3  1  0  0  0  0
  8  2  1  0  0  0  0
  8  9  1  0  0  0  0
 11 14  1  0  0  0  0
 11 10  1  1  0  0  0
 12 11  1  0  0  0  0
 13 12  1  0  0  0  0
 14 15  1  0  0  0  0
 17 20  1  6  0  0  0
 17 18  1  0  0  0  0
 17 21  1  0  0  0  0
 18 19  2  0  0  0  0
 19 16  1  0  0  0  0
 21 15  1  1  0  0  0
 21 16  1  0  0  0  0
 22  1  1  0  0  0  0
 23 22  1  0  0  0  0
 24 23  1  0  0  0  0
 25 26  1  6  0  0  0
 25 24  1  0  0  0  0
 27 25  1  0  0  0  0
 28 29  2  0  0  0  0
 28 27  1  0  0  0  0
 30 31  1  0  0  0  0
 30 28  1  0  0  0  0
 31 32  1  0  0  0  0
M  END
>  <MODEL>
6

>  <REMARK>
 VINA RESULT:      -5.9      2.053      8.092
  Name = 
  17 active torsions:
  status: ('A' for Active; 'I' for Inactive)
    1  A    between atoms: C_1  and  O_20
    2  A    between atoms: C_2  and  C_9
    3  A    between atoms: C_2  and  O_23
    4  A    between atoms: O_3  and  C_14
    5  A    between atoms: C_4  and  C_5
    6  A    between atoms: O_6  and  C_31
    7  A    between atoms: C_8  and  O_23
    8  A    between atoms: C_8  and  C_28
    9  A    between atoms: C_9  and  N_10
   10  A    between atoms: C_13  and  C_28
   11  A    between atoms: C_13  and  C_31
   12  A    between atoms: C_14  and  C_26
   13  A    between atoms: C_14  and  C_28
   14  A    between atoms: O_16  and  C_27
   15  A    between atoms: O_16  and  C_31
   16  A    between atoms: C_19  and  O_20
   17  A    between atoms: C_27  and  C_32
                            x       y       z     vdW  Elec       q    Type
                         _______ _______ _______ _____ _____    ______ ____

>  <TORSDO>
F 17

$$$$
=
 OpenBabel10262421403D

 32 32  0  0  1  0  0  0  0  0999 V2000
  186.4210  178.3300  142.1160 C   0  0  2  0  0  3  0  0  0  0  0  0
  186.2580  178.0650  143.6330 C   0  0  2  0  0  3  0  0  0  0  0  0
  188.1300  177.1420  146.6360 C   0  0  0  0  0  3  0  0  0  0  0  0
  187.6320  177.0640  145.4340 C   0  0  0  0  0  0  0  0  0  0  0  0
  187.1330  176.9870  144.2290 C   0  0  0  0  0  3  0  0  0  0  0  0
  187.8710  178.3180  147.4590 C   0  0  0  0  0  3  0  0  0  0  0  0
  187.9140  178.2270  148.7780 C   0  0  0  0  0  2  0  0  0  0  0  0
  184.9140  177.9630  144.0570 O   0  0  0  0  0  0  0  0  0  0  0  0
  184.6340  179.0270  144.9310 C   0  0  0  0  0  1  0  0  0  0  0  0
  187.8820  178.5700  141.7070 C   0  0  0  0  0  2  0  0  0  0  0  0
  188.4380  177.5110  140.7560 C   0  0  1  0  0  3  0  0  0  0  0  0
  188.1820  177.8940  139.4380 O   0  0  0  0  0  0  0  0  0  0  0  0
  189.3800  178.4520  138.9910 C   0  0  0  0  0  1  0  0  0  0  0  0
  189.8160  177.3610  140.9370 O   0  0  0  0  0  0  0  0  0  0  0  0
  189.9410  176.7180  142.1700 C   0  0  0  0  0  2  0  0  0  0  0  0
  191.8520  176.0080  143.5780 C   0  0  0  0  0  2  0  0  0  0  0  0
  190.8100  178.1430  144.0250 C   0  0  1  0  0  3  0  0  0  0  0  0
  191.1360  177.3600  145.2440 C   0  0  0  0  0  3  0  0  0  0  0  0
  191.6820  176.2370  144.9840 N   0  0  0  0  0  0  0  0  0  0  0  0
  191.6880  179.3770  143.9720 C   0  0  0  0  0  1  0  0  0  0  0  0
  191.1900  177.1980  142.8900 C   0  0  2  0  0  3  0  0  0  0  0  0
  185.5310  179.4760  141.6510 C   0  0  0  0  0  2  0  0  0  0  0  0
  185.2960  179.3700  140.2780 O   0  0  0  0  0  0  0  0  0  0  0  0
  183.9160  179.1910  140.1660 C   0  0  0  0  0  2  0  0  0  0  0  0
  183.6150  178.1120  139.1410 C   0  0  2  0  0  3  0  0  0  0  0  0
  182.8470  176.9890  139.8090 C   0  0  0  0  0  1  0  0  0  0  0  0
  184.8600  177.6000  138.5870 N   0  0  0  0  0  2  0  0  0  0  0  0
  184.9730  177.1410  137.2380 C   0  0  0  0  0  0  0  0  0  0  0  0
  183.9810  177.2020  136.4600 O   0  0  0  0  0  0  0  0  0  0  0  0
  186.1940  176.6320  136.7940 O   0  0  0  0  0  0  0  0  0  0  0  0
  186.8860  177.2000  135.6920 C   0  0  0  0  0  2  0  0  0  0  0  0
  187.2800  178.6240  136.0220 C   0  0  0  0  0  1  0  0  0  0  0  0
  1 22  1  1  0  0  0
  1  2  1  0  0  0  0
  2  8  1  0  0  0  0
  2  5  1  6  0  0  0
  3  6  1  0  0  0  0
  4  3  2  0  0  0  0
  5  4  2  0  0  0  0
  6  7  2  0  0  0  0
  8  9  1  0  0  0  0
 10  1  1  0  0  0  0
 11 14  1  0  0  0  0
 11 10  1  1  0  0  0
 12 11  1  0  0  0  0
 13 12  1  0  0  0  0
 14 15  1  0  0  0  0
 16 19  1  0  0  0  0
 17 20  1  6  0  0  0
 17 18  1  0  0  0  0
 19 18  2  0  0  0  0
 21 15  1  1  0  0  0
 21 16  1  0  0  0  0
 21 17  1  0  0  0  0
 23 22  1  0  0  0  0
 24 23  1  0  0  0  0
 25 26  1  1  0  0  0
 25 24  1  0  0  0  0
 27 25  1  0  0  0  0
 28 27  1  0  0  0  0
 29 28  2  0  0  0  0
 30 28  1  0  0  0  0
 31 32  1  0  0  0  0
 31 30  1  0  0  0  0
M  END
>  <MODEL>
7

>  <REMARK>
 VINA RESULT:      -5.7      2.267      6.532
  Name = 
  17 active torsions:
  status: ('A' for Active; 'I' for Inactive)
    1  A    between atoms: C_1  and  O_20
    2  A    between atoms: C_2  and  C_9
    3  A    between atoms: C_2  and  O_23
    4  A    between atoms: O_3  and  C_14
    5  A    between atoms: C_4  and  C_5
    6  A    between atoms: O_6  and  C_31
    7  A    between atoms: C_8  and  O_23
    8  A    between atoms: C_8  and  C_28
    9  A    between atoms: C_9  and  N_10
   10  A    between atoms: C_13  and  C_28
   11  A    between atoms: C_13  and  C_31
   12  A    between atoms: C_14  and  C_26
   13  A    between atoms: C_14  and  C_28
   14  A    between atoms: O_16  and  C_27
   15  A    between atoms: O_16  and  C_31
   16  A    between atoms: C_19  and  O_20
   17  A    between atoms: C_27  and  C_32
                            x       y       z     vdW  Elec       q    Type
                         _______ _______ _______ _____ _____    ______ ____

>  <TORSDO>
F 17

$$$$
=
 OpenBabel10262421403D

 32 32  0  0  1  0  0  0  0  0999 V2000
  188.6920  178.0830  141.3030 C   0  0  2  0  0  3  0  0  0  0  0  0
  187.4630  178.1910  142.2380 C   0  0  2  0  0  3  0  0  0  0  0  0
  186.0210  177.8180  145.5780 C   0  0  0  0  0  3  0  0  0  0  0  0
  186.7430  177.5640  144.5230 C   0  0  0  0  0  0  0  0  0  0  0  0
  187.4670  177.3100  143.4650 C   0  0  0  0  0  3  0  0  0  0  0  0
  185.1810  179.0090  145.6180 C   0  0  0  0  0  3  0  0  0  0  0  0
  183.9580  178.9760  145.1120 C   0  0  0  0  0  2  0  0  0  0  0  0
  186.2220  178.1650  141.5610 O   0  0  0  0  0  0  0  0  0  0  0  0
  185.5540  179.3780  141.7950 C   0  0  0  0  0  1  0  0  0  0  0  0
  188.3060  177.8000  139.8430 C   0  0  0  0  0  2  0  0  0  0  0  0
  189.4870  177.8420  138.8730 C   0  0  1  0  0  3  0  0  0  0  0  0
  189.8890  176.5370  138.5800 O   0  0  0  0  0  0  0  0  0  0  0  0
  191.1210  176.6780  137.9420 C   0  0  0  0  0  1  0  0  0  0  0  0
  189.1310  178.4950  137.6910 O   0  0  0  0  0  0  0  0  0  0  0  0
  187.7700  178.2230  137.5350 C   0  0  0  0  0  2  0  0  0  0  0  0
  186.9350  177.9840  135.2150 C   0  0  0  0  0  2  0  0  0  0  0  0
  186.5180  176.1980  136.7880 C   0  0  1  0  0  3  0  0  0  0  0  0
  185.3560  176.5290  135.9250 C   0  0  0  0  0  3  0  0  0  0  0  0
  185.5980  177.4750  135.1050 N   0  0  0  0  0  0  0  0  0  0  0  0
  187.0290  174.8160  136.4330 C   0  0  0  0  0  1  0  0  0  0  0  0
  187.5560  177.2420  136.3940 C   0  0  2  0  0  3  0  0  0  0  0  0
  189.6920  177.0520  141.8100 C   0  0  0  0  0  2  0  0  0  0  0  0
  190.9950  177.5160  141.6170 O   0  0  0  0  0  0  0  0  0  0  0  0
  191.6800  177.1470  142.7770 C   0  0  0  0  0  2  0  0  0  0  0  0
  191.0760  177.8490  143.9790 C   0  0  2  0  0  3  0  0  0  0  0  0
  191.6510  179.2480  144.0810 C   0  0  0  0  0  1  0  0  0  0  0  0
  191.3810  177.0990  145.1900 N   0  0  0  0  0  2  0  0  0  0  0  0
  190.5430  177.1300  146.3480 C   0  0  0  0  0  0  0  0  0  0  0  0
  189.4720  177.7970  146.3400 O   0  0  0  0  0  0  0  0  0  0  0  0
  190.9240  176.4100  147.4800 O   0  0  0  0  0  0  0  0  0  0  0  0
  192.0370  175.5290  147.4690 C   0  0  0  0  0  2  0  0  0  0  0  0
  193.0540  175.9880  148.4910 C   0  0  0  0  0  1  0  0  0  0  0  0
  1 10  1  6  0  0  0
  1 22  1  0  0  0  0
  1  2  1  0  0  0  0
  2  5  1  1  0  0  0
  3  6  1  0  0  0  0
  4  3  2  0  0  0  0
  5  4  2  0  0  0  0
  7  6  2  0  0  0  0
  8  9  1  0  0  0  0
  8  2  1  0  0  0  0
 11 10  1  1  0  0  0
 12 11  1  0  0  0  0
 13 12  1  0  0  0  0
 14 11  1  0  0  0  0
 15 14  1  0  0  0  0
 16 21  1  0  0  0  0
 17 20  1  6  0  0  0
 18 17  1  0  0  0  0
 19 16  1  0  0  0  0
 19 18  2  0  0  0  0
 21 17  1  0  0  0  0
 21 15  1  1  0  0  0
 23 22  1  0  0  0  0
 23 24  1  0  0  0  0
 24 25  1  0  0  0  0
 25 26  1  1  0  0  0
 25 27  1  0  0  0  0
 27 28  1  0  0  0  0
 28 30  1  0  0  0  0
 29 28  2  0  0  0  0
 31 30  1  0  0  0  0
 31 32  1  0  0  0  0
M  END
>  <MODEL>
8

>  <REMARK>
 VINA RESULT:      -5.7      2.646      6.820
  Name = 
  17 active torsions:
  status: ('A' for Active; 'I' for Inactive)
    1  A    between atoms: C_1  and  O_20
    2  A    between atoms: C_2  and  C_9
    3  A    between atoms: C_2  and  O_23
    4  A    between atoms: O_3  and  C_14
    5  A    between atoms: C_4  and  C_5
    6  A    between atoms: O_6  and  C_31
    7  A    between atoms: C_8  and  O_23
    8  A    between atoms: C_8  and  C_28
    9  A    between atoms: C_9  and  N_10
   10  A    between atoms: C_13  and  C_28
   11  A    between atoms: C_13  and  C_31
   12  A    between atoms: C_14  and  C_26
   13  A    between atoms: C_14  and  C_28
   14  A    between atoms: O_16  and  C_27
   15  A    between atoms: O_16  and  C_31
   16  A    between atoms: C_19  and  O_20
   17  A    between atoms: C_27  and  C_32
                            x       y       z     vdW  Elec       q    Type
                         _______ _______ _______ _____ _____    ______ ____

>  <TORSDO>
F 17

$$$$
=
 OpenBabel10262421403D

 32 32  0  0  1  0  0  0  0  0999 V2000
  185.7260  178.2650  142.8070 C   0  0  2  0  0  3  0  0  0  0  0  0
  184.9010  178.2480  144.1170 C   0  0  2  0  0  3  0  0  0  0  0  0
  181.5310  179.3440  143.2150 C   0  0  0  0  0  3  0  0  0  0  0  0
  182.7150  179.3550  143.7590 C   0  0  0  0  0  0  0  0  0  0  0  0
  183.9030  179.3660  144.3040 C   0  0  0  0  0  3  0  0  0  0  0  0
  181.1300  178.2310  142.3630 C   0  0  0  0  0  3  0  0  0  0  0  0
  179.9430  178.2380  141.7760 C   0  0  0  0  0  2  0  0  0  0  0  0
  185.6730  178.0170  145.2790 O   0  0  0  0  0  0  0  0  0  0  0  0
  184.9800  178.5250  146.3910 C   0  0  0  0  0  1  0  0  0  0  0  0
  187.2370  178.3810  143.0570 C   0  0  0  0  0  2  0  0  0  0  0  0
  188.0240  177.1270  142.6750 C   0  0  1  0  0  3  0  0  0  0  0  0
  188.3060  177.1580  141.3080 O   0  0  0  0  0  0  0  0  0  0  0  0
  189.4260  177.9820  141.1950 C   0  0  0  0  0  1  0  0  0  0  0  0
  189.2190  177.0570  143.3950 O   0  0  0  0  0  0  0  0  0  0  0  0
  188.8260  176.7530  144.7000 C   0  0  0  0  0  2  0  0  0  0  0  0
  191.0850  177.5400  145.3460 C   0  0  0  0  0  2  0  0  0  0  0  0
  189.5040  176.9940  147.0900 C   0  0  1  0  0  3  0  0  0  0  0  0
  190.8820  176.5060  147.3470 C   0  0  0  0  0  3  0  0  0  0  0  0
  191.6980  176.8030  146.4130 N   0  0  0  0  0  0  0  0  0  0  0  0
  189.1610  178.0790  148.0920 C   0  0  0  0  0  1  0  0  0  0  0  0
  189.6020  177.6010  145.6950 C   0  0  2  0  0  3  0  0  0  0  0  0
  185.2460  179.3580  141.8600 C   0  0  0  0  0  2  0  0  0  0  0  0
  185.8400  179.1960  140.6060 O   0  0  0  0  0  0  0  0  0  0  0  0
  184.7730  178.9710  139.7340 C   0  0  0  0  0  2  0  0  0  0  0  0
  185.2940  178.5130  138.3840 C   0  0  2  0  0  3  0  0  0  0  0  0
  184.5550  177.2580  137.9620 C   0  0  0  0  0  1  0  0  0  0  0  0
  186.7210  178.2390  138.4760 N   0  0  0  0  0  2  0  0  0  0  0  0
  187.6080  178.3840  137.3640 C   0  0  0  0  0  0  0  0  0  0  0  0
  187.1730  178.7980  136.2540 O   0  0  0  0  0  0  0  0  0  0  0  0
  188.9570  178.0680  137.5260 O   0  0  0  0  0  0  0  0  0  0  0  0
  189.3940  176.7340  137.7320 C   0  0  0  0  0  2  0  0  0  0  0  0
  190.8980  176.6640  137.5710 C   0  0  0  0  0  1  0  0  0  0  0  0
  1 22  1  6  0  0  0
  1 10  1  0  0  0  0
  1  2  1  0  0  0  0
  2  5  1  1  0  0  0
  2  8  1  0  0  0  0
  3  4  2  0  0  0  0
  4  5  2  0  0  0  0
  6  3  1  0  0  0  0
  7  6  2  0  0  0  0
  8  9  1  0  0  0  0
 11 10  1  1  0  0  0
 11 14  1  0  0  0  0
 12 11  1  0  0  0  0
 13 12  1  0  0  0  0
 14 15  1  0  0  0  0
 16 21  1  0  0  0  0
 16 19  1  0  0  0  0
 17 18  1  0  0  0  0
 17 20  1  1  0  0  0
 19 18  2  0  0  0  0
 21 15  1  6  0  0  0
 21 17  1  0  0  0  0
 23 22  1  0  0  0  0
 24 23  1  0  0  0  0
 25 26  1  1  0  0  0
 25 27  1  0  0  0  0
 25 24  1  0  0  0  0
 28 30  1  0  0  0  0
 28 27  1  0  0  0  0
 29 28  2  0  0  0  0
 30 31  1  0  0  0  0
 32 31  1  0  0  0  0
M  END
>  <MODEL>
9

>  <REMARK>
 VINA RESULT:      -5.6      2.239      6.774
  Name = 
  17 active torsions:
  status: ('A' for Active; 'I' for Inactive)
    1  A    between atoms: C_1  and  O_20
    2  A    between atoms: C_2  and  C_9
    3  A    between atoms: C_2  and  O_23
    4  A    between atoms: O_3  and  C_14
    5  A    between atoms: C_4  and  C_5
    6  A    between atoms: O_6  and  C_31
    7  A    between atoms: C_8  and  O_23
    8  A    between atoms: C_8  and  C_28
    9  A    between atoms: C_9  and  N_10
   10  A    between atoms: C_13  and  C_28
   11  A    between atoms: C_13  and  C_31
   12  A    between atoms: C_14  and  C_26
   13  A    between atoms: C_14  and  C_28
   14  A    between atoms: O_16  and  C_27
   15  A    between atoms: O_16  and  C_31
   16  A    between atoms: C_19  and  O_20
   17  A    between atoms: C_27  and  C_32
                            x       y       z     vdW  Elec       q    Type
                         _______ _______ _______ _____ _____    ______ ____

>  <TORSDO>
F 17

$$$$
