=
 OpenBabel10262423163D

 34 38  0  0  1  0  0  0  0  0999 V2000
  191.1280  177.4670  139.6400 C   0  0  0  0  0  2  0  0  0  0  0  0
  189.0310  177.8320  138.2920 C   0  0  0  0  0  0  0  0  0  0  0  0
  187.5990  175.9780  135.3430 C   0  0  0  0  0  3  0  0  0  0  0  0
  189.6300  175.6610  136.6800 N   0  0  0  0  0  0  0  0  0  0  0  0
  188.7310  178.9330  139.0890 O   0  0  0  0  0  1  0  0  0  0  0  0
  190.4830  175.9870  137.6880 C   0  0  0  0  0  0  0  0  0  0  0  0
  190.1950  177.0820  138.5280 C   0  0  0  0  0  0  0  0  0  0  0  0
  186.3750  176.5090  135.2480 C   0  0  0  0  0  3  0  0  0  0  0  0
  185.8400  177.4410  136.3060 C   0  0  2  0  0  3  0  0  0  0  0  0
  188.4950  176.3670  136.4440 C   0  0  0  0  0  0  0  0  0  0  0  0
  186.9580  178.3000  136.9150 C   0  0  0  0  0  2  0  0  0  0  0  0
  188.1710  177.4710  137.2500 C   0  0  0  0  0  0  0  0  0  0  0  0
  191.7630  174.0520  136.8500 C   0  0  0  0  0  1  0  0  0  0  0  0
  191.6990  175.1440  137.8990 C   0  0  0  0  0  2  0  0  0  0  0  0
  185.2210  176.6950  137.3140 O   0  0  0  0  0  0  0  0  0  0  0  0
  183.1050  177.7640  137.4300 C   0  0  0  0  0  2  0  0  0  0  0  0
  183.2920  176.9280  138.6760 C   0  0  0  0  0  2  0  0  0  0  0  0
  184.4810  177.6250  138.0480 C   0  0  0  0  0  3  0  0  0  0  0  0
  190.7120  176.7980  140.9410 C   0  0  0  0  0  2  0  0  0  0  0  0
  190.6200  177.8170  142.0670 C   0  0  0  0  0  2  0  0  0  0  0  0
  187.7060  177.2520  142.0460 O   0  0  0  0  0  0  0  0  0  0  0  0
  190.1710  177.1290  144.4960 C   0  0  0  0  0  0  0  0  0  0  0  0
  186.3780  177.7840  146.3010 C   0  0  1  0  0  3  0  0  0  0  0  0
  186.7530  177.9050  144.8230 C   0  0  0  0  0  2  0  0  0  0  0  0
  187.7870  176.8420  144.4440 C   0  0  2  0  0  3  0  0  0  0  0  0
  189.7850  177.3040  143.1470 N   0  0  0  0  0  0  0  0  0  0  0  0
  188.9270  177.8790  146.5070 C   0  0  0  0  0  2  0  0  0  0  0  0
  189.0190  176.8280  145.3990 C   0  0  2  0  0  3  0  0  0  0  0  0
  187.5930  177.7650  147.2440 C   0  0  0  0  0  2  0  0  0  0  0  0
  191.3680  177.1960  144.8830 O   0  0  0  0  0  0  0  0  0  0  0  0
  188.3790  177.1510  143.1080 C   0  0  0  0  0  0  0  0  0  0  0  0
  184.1700  178.9470  146.1280 O   0  0  0  0  0  0  0  0  0  0  0  0
  185.4400  178.8780  146.6880 C   0  0  0  0  0  0  0  0  0  0  0  0
  185.8040  179.7450  147.5230 O   0  0  0  0  0  1  0  0  0  0  0  0
  1 19  1  0  0  0  0
  2  7  1  0  0  0  0
  2  5  1  0  0  0  0
  3 10  1  0  0  0  0
  4  6  1  0  0  0  0
  6 14  1  0  0  0  0
  6  7  2  0  0  0  0
  7  1  1  0  0  0  0
  8  3  2  0  0  0  0
  8  9  1  0  0  0  0
  9 11  1  0  0  0  0
  9 15  1  1  0  0  0
 10  4  2  0  0  0  0
 10 12  1  0  0  0  0
 11 12  1  0  0  0  0
 12  2  2  0  0  0  0
 13 14  1  0  0  0  0
 15 18  1  0  0  0  0
 16 18  1  0  0  0  0
 16 17  1  0  0  0  0
 18 17  1  0  0  0  0
 19 20  1  0  0  0  0
 20 26  1  0  0  0  0
 21 31  2  0  0  0  0
 22 30  2  0  0  0  0
 22 28  1  0  0  0  0
 23 33  1  1  0  0  0
 23 29  1  0  0  0  0
 24 23  1  0  0  0  0
 25 24  1  1  0  0  0
 25 28  1  0  0  0  0
 26 22  1  0  0  0  0
 27 29  1  0  0  0  0
 28 27  1  1  0  0  0
 31 26  1  0  0  0  0
 31 25  1  0  0  0  0
 32 33  2  0  0  0  0
 33 34  1  0  0  0  0
M  END
>  <MODEL>
1

>  <REMARK>
 VINA RESULT:      -8.4      0.000      0.000
  Name = 
  8 active torsions:
  status: ('A' for Active; 'I' for Inactive)
    1  A    between atoms: C_7  and  C_15
    2  A    between atoms: C_8  and  C_17
    3  A    between atoms: C_8  and  N_18
    4  A    between atoms: C_10  and  C_17
    5  A    between atoms: C_10  and  C_20
    6  A    between atoms: C_19  and  C_22
    7  A    between atoms: C_24  and  O_25
    8  A    between atoms: O_25  and  C_27
                            x       y       z     vdW  Elec       q    Type
                         _______ _______ _______ _____ _____    ______ ____

>  <TORSDO>
F 8

$$$$
=
 OpenBabel10262423163D

 34 38  0  0  1  0  0  0  0  0999 V2000
  190.0370  176.3980  142.4240 C   0  0  0  0  0  2  0  0  0  0  0  0
  188.1660  176.7290  144.0780 C   0  0  0  0  0  0  0  0  0  0  0  0
  188.0730  178.4110  147.4460 C   0  0  0  0  0  3  0  0  0  0  0  0
  189.8660  178.0650  145.8080 N   0  0  0  0  0  0  0  0  0  0  0  0
  187.3100  176.0460  143.2190 O   0  0  0  0  0  1  0  0  0  0  0  0
  190.3600  177.6020  144.6280 C   0  0  0  0  0  0  0  0  0  0  0  0
  189.5120  176.9280  143.7260 C   0  0  0  0  0  0  0  0  0  0  0  0
  186.7610  178.4590  147.6970 C   0  0  0  0  0  3  0  0  0  0  0  0
  185.7470  178.0770  146.6480 C   0  0  2  0  0  3  0  0  0  0  0  0
  188.5660  177.8930  146.1590 C   0  0  0  0  0  0  0  0  0  0  0  0
  186.2720  176.9530  145.7430 C   0  0  0  0  0  2  0  0  0  0  0  0
  187.6860  177.2190  145.2960 C   0  0  0  0  0  0  0  0  0  0  0  0
  192.0090  179.3260  144.0010 C   0  0  0  0  0  1  0  0  0  0  0  0
  191.7970  177.8560  144.3030 C   0  0  0  0  0  2  0  0  0  0  0  0
  185.4360  179.1970  145.8710 O   0  0  0  0  0  0  0  0  0  0  0  0
  183.3400  179.0530  144.7670 C   0  0  0  0  0  2  0  0  0  0  0  0
  184.2950  179.8330  143.8900 C   0  0  0  0  0  2  0  0  0  0  0  0
  184.8090  178.6850  144.7340 C   0  0  0  0  0  3  0  0  0  0  0  0
  189.6310  177.3080  141.2750 C   0  0  0  0  0  2  0  0  0  0  0  0
  190.7140  177.3480  140.2070 C   0  0  0  0  0  2  0  0  0  0  0  0
  189.0680  179.3150  138.7130 O   0  0  0  0  0  0  0  0  0  0  0  0
  190.0700  176.0430  138.0970 C   0  0  0  0  0  0  0  0  0  0  0  0
  186.4420  176.8510  136.0330 C   0  0  1  0  0  3  0  0  0  0  0  0
  187.0970  177.6710  137.1460 C   0  0  0  0  0  2  0  0  0  0  0  0
  188.6210  177.6260  137.0180 C   0  0  2  0  0  3  0  0  0  0  0  0
  190.1220  177.2180  138.8810 N   0  0  0  0  0  0  0  0  0  0  0  0
  188.0800  175.1090  136.9470 C   0  0  0  0  0  2  0  0  0  0  0  0
  189.1780  176.1740  136.9050 C   0  0  2  0  0  3  0  0  0  0  0  0
  186.9940  175.4200  135.9170 C   0  0  0  0  0  2  0  0  0  0  0  0
  190.7310  175.0060  138.3680 O   0  0  0  0  0  0  0  0  0  0  0  0
  189.2590  178.1530  138.2620 C   0  0  0  0  0  0  0  0  0  0  0  0
  184.1160  177.0200  135.1300 O   0  0  0  0  0  0  0  0  0  0  0  0
  184.9620  176.8220  136.2140 C   0  0  0  0  0  0  0  0  0  0  0  0
  184.4780  176.6200  137.3570 O   0  0  0  0  0  1  0  0  0  0  0  0
  1  7  1  0  0  0  0
  2 12  1  0  0  0  0
  3  8  2  0  0  0  0
  4 10  1  0  0  0  0
  5  2  1  0  0  0  0
  6  4  2  0  0  0  0
  7  2  2  0  0  0  0
  7  6  1  0  0  0  0
  9 15  1  6  0  0  0
  9  8  1  0  0  0  0
 10  3  1  0  0  0  0
 11  9  1  0  0  0  0
 12 11  1  0  0  0  0
 12 10  2  0  0  0  0
 13 14  1  0  0  0  0
 14  6  1  0  0  0  0
 17 18  1  0  0  0  0
 17 16  1  0  0  0  0
 18 16  1  0  0  0  0
 18 15  1  0  0  0  0
 19  1  1  0  0  0  0
 20 19  1  0  0  0  0
 22 30  2  0  0  0  0
 22 26  1  0  0  0  0
 23 33  1  1  0  0  0
 23 24  1  0  0  0  0
 25 24  1  1  0  0  0
 25 31  1  0  0  0  0
 26 20  1  0  0  0  0
 28 27  1  1  0  0  0
 28 25  1  0  0  0  0
 28 22  1  0  0  0  0
 29 23  1  0  0  0  0
 29 27  1  0  0  0  0
 31 21  2  0  0  0  0
 31 26  1  0  0  0  0
 32 33  2  0  0  0  0
 33 34  1  0  0  0  0
M  END
>  <MODEL>
2

>  <REMARK>
 VINA RESULT:      -8.1      1.701      8.197
  Name = 
  8 active torsions:
  status: ('A' for Active; 'I' for Inactive)
    1  A    between atoms: C_7  and  C_15
    2  A    between atoms: C_8  and  C_17
    3  A    between atoms: C_8  and  N_18
    4  A    between atoms: C_10  and  C_17
    5  A    between atoms: C_10  and  C_20
    6  A    between atoms: C_19  and  C_22
    7  A    between atoms: C_24  and  O_25
    8  A    between atoms: O_25  and  C_27
                            x       y       z     vdW  Elec       q    Type
                         _______ _______ _______ _____ _____    ______ ____

>  <TORSDO>
F 8

$$$$
=
 OpenBabel10262423163D

 34 38  0  0  1  0  0  0  0  0999 V2000
  186.1870  179.3760  141.7890 C   0  0  0  0  0  2  0  0  0  0  0  0
  184.6330  178.8290  139.8830 C   0  0  0  0  0  0  0  0  0  0  0  0
  180.9920  177.8670  139.8230 C   0  0  0  0  0  3  0  0  0  0  0  0
  182.5400  178.4040  141.6470 N   0  0  0  0  0  0  0  0  0  0  0  0
  185.6830  179.0270  138.9920 O   0  0  0  0  0  1  0  0  0  0  0  0
  183.7560  178.7610  142.1430 C   0  0  0  0  0  0  0  0  0  0  0  0
  184.8340  178.9920  141.2640 C   0  0  0  0  0  0  0  0  0  0  0  0
  180.7050  177.9450  138.5190 C   0  0  0  0  0  3  0  0  0  0  0  0
  181.6920  178.5150  137.5310 C   0  0  2  0  0  3  0  0  0  0  0  0
  182.3240  178.2530  140.3150 C   0  0  0  0  0  0  0  0  0  0  0  0
  183.1390  178.2000  137.9380 C   0  0  0  0  0  2  0  0  0  0  0  0
  183.3710  178.4650  139.4030 C   0  0  0  0  0  0  0  0  0  0  0  0
  182.5750  178.7040  144.3070 C   0  0  0  0  0  1  0  0  0  0  0  0
  183.9060  178.9330  143.6200 C   0  0  0  0  0  2  0  0  0  0  0  0
  181.5200  179.9010  137.4480 O   0  0  0  0  0  0  0  0  0  0  0  0
  179.5440  181.1110  136.9370 C   0  0  0  0  0  2  0  0  0  0  0  0
  180.6230  181.5130  135.9560 C   0  0  0  0  0  2  0  0  0  0  0  0
  180.5520  180.0860  136.4590 C   0  0  0  0  0  3  0  0  0  0  0  0
  187.1930  178.2630  141.5360 C   0  0  0  0  0  2  0  0  0  0  0  0
  187.1710  177.2470  142.6680 C   0  0  0  0  0  2  0  0  0  0  0  0
  190.1100  177.6540  142.6160 O   0  0  0  0  0  0  0  0  0  0  0  0
  187.6950  177.8220  145.1110 C   0  0  0  0  0  0  0  0  0  0  0  0
  191.4740  176.8990  146.8250 C   0  0  1  0  0  3  0  0  0  0  0  0
  191.0700  176.8520  145.3500 C   0  0  0  0  0  2  0  0  0  0  0  0
  190.0900  177.9820  145.0280 C   0  0  2  0  0  3  0  0  0  0  0  0
  188.0490  177.6750  143.7500 N   0  0  0  0  0  0  0  0  0  0  0  0
  188.9270  176.9340  147.0730 C   0  0  0  0  0  2  0  0  0  0  0  0
  188.8750  178.0290  146.0040 C   0  0  2  0  0  3  0  0  0  0  0  0
  190.2770  176.9500  147.7890 C   0  0  0  0  0  2  0  0  0  0  0  0
  186.5020  177.8050  145.5160 O   0  0  0  0  0  0  0  0  0  0  0  0
  189.4610  177.7530  143.6920 C   0  0  0  0  0  0  0  0  0  0  0  0
  192.5620  174.7260  146.2320 O   0  0  0  0  0  0  0  0  0  0  0  0
  192.3570  175.7440  147.1570 C   0  0  0  0  0  0  0  0  0  0  0  0
  192.9160  175.6880  148.2820 O   0  0  0  0  0  1  0  0  0  0  0  0
  2  7  1  0  0  0  0
  3 10  1  0  0  0  0
  4  6  1  0  0  0  0
  5  2  1  0  0  0  0
  6 14  1  0  0  0  0
  7  1  1  0  0  0  0
  7  6  2  0  0  0  0
  8  3  2  0  0  0  0
  9 15  1  1  0  0  0
  9 11  1  0  0  0  0
  9  8  1  0  0  0  0
 10  4  2  0  0  0  0
 11 12  1  0  0  0  0
 12  2  2  0  0  0  0
 12 10  1  0  0  0  0
 14 13  1  0  0  0  0
 17 18  1  0  0  0  0
 17 16  1  0  0  0  0
 18 16  1  0  0  0  0
 18 15  1  0  0  0  0
 19  1  1  0  0  0  0
 19 20  1  0  0  0  0
 20 26  1  0  0  0  0
 21 31  2  0  0  0  0
 22 30  2  0  0  0  0
 22 28  1  0  0  0  0
 23 33  1  1  0  0  0
 23 29  1  0  0  0  0
 24 23  1  0  0  0  0
 25 24  1  1  0  0  0
 25 28  1  0  0  0  0
 26 22  1  0  0  0  0
 27 29  1  0  0  0  0
 28 27  1  1  0  0  0
 31 26  1  0  0  0  0
 31 25  1  0  0  0  0
 32 33  2  0  0  0  0
 33 34  1  0  0  0  0
M  END
>  <MODEL>
3

>  <REMARK>
 VINA RESULT:      -8.0      3.688      5.989
  Name = 
  8 active torsions:
  status: ('A' for Active; 'I' for Inactive)
    1  A    between atoms: C_7  and  C_15
    2  A    between atoms: C_8  and  C_17
    3  A    between atoms: C_8  and  N_18
    4  A    between atoms: C_10  and  C_17
    5  A    between atoms: C_10  and  C_20
    6  A    between atoms: C_19  and  C_22
    7  A    between atoms: C_24  and  O_25
    8  A    between atoms: O_25  and  C_27
                            x       y       z     vdW  Elec       q    Type
                         _______ _______ _______ _____ _____    ______ ____

>  <TORSDO>
F 8

$$$$
=
 OpenBabel10262423163D

 34 38  0  0  1  0  0  0  0  0999 V2000
  188.8840  178.1300  138.6120 C   0  0  0  0  0  2  0  0  0  0  0  0
  188.1990  176.2600  137.0690 C   0  0  0  0  0  0  0  0  0  0  0  0
  189.8940  173.0230  136.1560 C   0  0  0  0  0  3  0  0  0  0  0  0
  190.5220  174.8670  137.6460 N   0  0  0  0  0  0  0  0  0  0  0  0
  187.0360  176.9620  136.7630 O   0  0  0  0  0  1  0  0  0  0  0  0
  190.3120  176.0710  138.2440 C   0  0  0  0  0  0  0  0  0  0  0  0
  189.1320  176.7940  137.9730 C   0  0  0  0  0  0  0  0  0  0  0  0
  188.9270  172.3800  135.4930 C   0  0  0  0  0  3  0  0  0  0  0  0
  187.5190  172.9180  135.4430 C   0  0  2  0  0  3  0  0  0  0  0  0
  189.6260  174.3300  136.7790 C   0  0  0  0  0  0  0  0  0  0  0  0
  187.5050  174.4540  135.4360 C   0  0  0  0  0  2  0  0  0  0  0  0
  188.4410  175.0180  136.4730 C   0  0  0  0  0  0  0  0  0  0  0  0
  192.6970  176.6210  138.5470 C   0  0  0  0  0  1  0  0  0  0  0  0
  191.3330  176.5810  139.2080 C   0  0  0  0  0  2  0  0  0  0  0  0
  186.8000  172.4470  136.5460 O   0  0  0  0  0  0  0  0  0  0  0  0
  184.4710  172.0340  136.7270 C   0  0  0  0  0  2  0  0  0  0  0  0
  184.8710  173.0180  137.8040 C   0  0  0  0  0  2  0  0  0  0  0  0
  185.5500  173.0610  136.4500 C   0  0  0  0  0  3  0  0  0  0  0  0
  187.9370  177.9880  139.7940 C   0  0  0  0  0  2  0  0  0  0  0  0
  188.4230  178.8090  140.9790 C   0  0  0  0  0  2  0  0  0  0  0  0
  186.2050  177.8080  142.6790 O   0  0  0  0  0  0  0  0  0  0  0  0
  189.6720  177.6160  142.8740 C   0  0  0  0  0  0  0  0  0  0  0  0
  187.9920  177.3160  146.7670 C   0  0  1  0  0  3  0  0  0  0  0  0
  187.3070  177.7700  145.4770 C   0  0  0  0  0  2  0  0  0  0  0  0
  187.8360  176.9730  144.2820 C   0  0  2  0  0  3  0  0  0  0  0  0
  188.4970  177.9780  142.1740 N   0  0  0  0  0  0  0  0  0  0  0  0
  190.0540  177.7710  145.3200 C   0  0  0  0  0  2  0  0  0  0  0  0
  189.3920  176.9730  144.1930 C   0  0  2  0  0  3  0  0  0  0  0  0
  189.5280  177.3120  146.6790 C   0  0  0  0  0  2  0  0  0  0  0  0
  190.8290  177.7970  142.4110 O   0  0  0  0  0  0  0  0  0  0  0  0
  187.4080  177.6170  143.0030 C   0  0  0  0  0  0  0  0  0  0  0  0
  186.4940  179.0560  147.7590 O   0  0  0  0  0  0  0  0  0  0  0  0
  187.5420  178.1560  147.9140 C   0  0  0  0  0  0  0  0  0  0  0  0
  188.1180  178.0530  149.0280 O   0  0  0  0  0  1  0  0  0  0  0  0
  1 19  1  0  0  0  0
  2  7  1  0  0  0  0
  3 10  1  0  0  0  0
  4  6  1  0  0  0  0
  5  2  1  0  0  0  0
  6 14  1  0  0  0  0
  7  6  2  0  0  0  0
  7  1  1  0  0  0  0
  8  3  2  0  0  0  0
  9  8  1  0  0  0  0
  9 15  1  1  0  0  0
 10  4  2  0  0  0  0
 11  9  1  0  0  0  0
 11 12  1  0  0  0  0
 12 10  1  0  0  0  0
 12  2  2  0  0  0  0
 13 14  1  0  0  0  0
 16 17  1  0  0  0  0
 18 15  1  0  0  0  0
 18 16  1  0  0  0  0
 18 17  1  0  0  0  0
 19 20  1  0  0  0  0
 20 26  1  0  0  0  0
 21 31  2  0  0  0  0
 22 28  1  0  0  0  0
 23 33  1  1  0  0  0
 24 23  1  0  0  0  0
 25 24  1  1  0  0  0
 26 22  1  0  0  0  0
 26 31  1  0  0  0  0
 27 29  1  0  0  0  0
 28 25  1  0  0  0  0
 28 27  1  1  0  0  0
 29 23  1  0  0  0  0
 30 22  2  0  0  0  0
 31 25  1  0  0  0  0
 32 33  2  0  0  0  0
 33 34  1  0  0  0  0
M  END
>  <MODEL>
4

>  <REMARK>
 VINA RESULT:      -8.0      2.236      2.995
  Name = 
  8 active torsions:
  status: ('A' for Active; 'I' for Inactive)
    1  A    between atoms: C_7  and  C_15
    2  A    between atoms: C_8  and  C_17
    3  A    between atoms: C_8  and  N_18
    4  A    between atoms: C_10  and  C_17
    5  A    between atoms: C_10  and  C_20
    6  A    between atoms: C_19  and  C_22
    7  A    between atoms: C_24  and  O_25
    8  A    between atoms: O_25  and  C_27
                            x       y       z     vdW  Elec       q    Type
                         _______ _______ _______ _____ _____    ______ ____

>  <TORSDO>
F 8

$$$$
=
 OpenBabel10262423163D

 34 38  0  0  1  0  0  0  0  0999 V2000
  188.8980  178.6250  139.5300 C   0  0  0  0  0  2  0  0  0  0  0  0
  187.3920  177.6310  137.7710 C   0  0  0  0  0  0  0  0  0  0  0  0
  187.8580  174.7100  135.4410 C   0  0  0  0  0  3  0  0  0  0  0  0
  189.2910  175.7100  137.1610 N   0  0  0  0  0  0  0  0  0  0  0  0
  186.4390  178.6030  138.0630 O   0  0  0  0  0  1  0  0  0  0  0  0
  189.5670  176.6210  138.1330 C   0  0  0  0  0  0  0  0  0  0  0  0
  188.6120  177.6030  138.4680 C   0  0  0  0  0  0  0  0  0  0  0  0
  186.6290  174.5550  134.9390 C   0  0  0  0  0  3  0  0  0  0  0  0
  185.4550  175.3290  135.4850 C   0  0  2  0  0  3  0  0  0  0  0  0
  188.1140  175.7150  136.4850 C   0  0  0  0  0  0  0  0  0  0  0  0
  185.8760  176.7300  135.9540 C   0  0  0  0  0  2  0  0  0  0  0  0
  187.1360  176.6790  136.7790 C   0  0  0  0  0  0  0  0  0  0  0  0
  192.0060  176.3860  137.8510 C   0  0  0  0  0  1  0  0  0  0  0  0
  190.8750  176.5320  138.8500 C   0  0  0  0  0  2  0  0  0  0  0  0
  184.8900  174.6270  136.5540 O   0  0  0  0  0  0  0  0  0  0  0  0
  184.7690  172.2790  136.8750 C   0  0  0  0  0  2  0  0  0  0  0  0
  183.3670  172.8460  136.9290 C   0  0  0  0  0  2  0  0  0  0  0  0
  184.3920  173.4510  135.9910 C   0  0  0  0  0  3  0  0  0  0  0  0
  188.0240  178.3850  140.7520 C   0  0  0  0  0  2  0  0  0  0  0  0
  188.5430  177.2080  141.5640 C   0  0  0  0  0  2  0  0  0  0  0  0
  191.2570  177.9760  142.4870 O   0  0  0  0  0  0  0  0  0  0  0  0
  188.1760  177.6440  144.0640 C   0  0  0  0  0  0  0  0  0  0  0  0
  191.3060  177.0580  146.8810 C   0  0  1  0  0  3  0  0  0  0  0  0
  191.4020  177.0800  145.3540 C   0  0  0  0  0  2  0  0  0  0  0  0
  190.4250  178.1040  144.7710 C   0  0  2  0  0  3  0  0  0  0  0  0
  188.9610  177.6520  142.8880 N   0  0  0  0  0  0  0  0  0  0  0  0
  188.8330  176.7600  146.2860 C   0  0  0  0  0  2  0  0  0  0  0  0
  188.9690  177.9220  145.2990 C   0  0  2  0  0  3  0  0  0  0  0  0
  189.8690  176.8840  147.4040 C   0  0  0  0  0  2  0  0  0  0  0  0
  186.9310  177.4490  144.0580 O   0  0  0  0  0  0  0  0  0  0  0  0
  190.2920  177.9070  143.2960 C   0  0  0  0  0  0  0  0  0  0  0  0
  192.8940  176.2160  148.6200 O   0  0  0  0  0  1  0  0  0  0  0  0
  192.1920  175.9970  147.4400 C   0  0  0  0  0  0  0  0  0  0  0  0
  192.3080  174.9000  146.8370 O   0  0  0  0  0  0  0  0  0  0  0  0
  1 19  1  0  0  0  0
  2  5  1  0  0  0  0
  2  7  1  0  0  0  0
  3 10  1  0  0  0  0
  4  6  1  0  0  0  0
  6  7  2  0  0  0  0
  6 14  1  0  0  0  0
  7  1  1  0  0  0  0
  8  3  2  0  0  0  0
  8  9  1  0  0  0  0
  9 11  1  0  0  0  0
  9 15  1  1  0  0  0
 10 12  1  0  0  0  0
 10  4  2  0  0  0  0
 11 12  1  0  0  0  0
 12  2  2  0  0  0  0
 13 14  1  0  0  0  0
 16 17  1  0  0  0  0
 18 15  1  0  0  0  0
 18 16  1  0  0  0  0
 18 17  1  0  0  0  0
 19 20  1  0  0  0  0
 20 26  1  0  0  0  0
 21 31  2  0  0  0  0
 22 28  1  0  0  0  0
 23 29  1  0  0  0  0
 23 33  1  6  0  0  0
 24 23  1  0  0  0  0
 25 28  1  0  0  0  0
 25 24  1  1  0  0  0
 26 31  1  0  0  0  0
 26 22  1  0  0  0  0
 27 29  1  0  0  0  0
 28 27  1  1  0  0  0
 30 22  2  0  0  0  0
 31 25  1  0  0  0  0
 33 32  1  0  0  0  0
 34 33  2  0  0  0  0
M  END
>  <MODEL>
5

>  <REMARK>
 VINA RESULT:      -7.9      2.199      3.683
  Name = 
  8 active torsions:
  status: ('A' for Active; 'I' for Inactive)
    1  A    between atoms: C_7  and  C_15
    2  A    between atoms: C_8  and  C_17
    3  A    between atoms: C_8  and  N_18
    4  A    between atoms: C_10  and  C_17
    5  A    between atoms: C_10  and  C_20
    6  A    between atoms: C_19  and  C_22
    7  A    between atoms: C_24  and  O_25
    8  A    between atoms: O_25  and  C_27
                            x       y       z     vdW  Elec       q    Type
                         _______ _______ _______ _____ _____    ______ ____

>  <TORSDO>
F 8

$$$$
=
 OpenBabel10262423163D

 34 38  0  0  1  0  0  0  0  0999 V2000
  189.0640  178.5020  138.5750 C   0  0  0  0  0  2  0  0  0  0  0  0
  190.6210  176.6100  137.9880 C   0  0  0  0  0  0  0  0  0  0  0  0
  190.6740  174.2280  135.0720 C   0  0  0  0  0  3  0  0  0  0  0  0
  189.1820  176.0760  135.6830 N   0  0  0  0  0  0  0  0  0  0  0  0
  191.3400  176.8640  139.1520 O   0  0  0  0  0  1  0  0  0  0  0  0
  188.7770  177.0930  136.4900 C   0  0  0  0  0  0  0  0  0  0  0  0
  189.4990  177.3910  137.6630 C   0  0  0  0  0  0  0  0  0  0  0  0
  191.8630  173.6350  135.2180 C   0  0  0  0  0  3  0  0  0  0  0  0
  192.8610  174.1210  136.2390 C   0  0  2  0  0  3  0  0  0  0  0  0
  190.2700  175.3180  135.9740 C   0  0  0  0  0  0  0  0  0  0  0  0
  192.1620  174.6630  137.4950 C   0  0  0  0  0  2  0  0  0  0  0  0
  191.0150  175.5730  137.1370 C   0  0  0  0  0  0  0  0  0  0  0  0
  186.3120  177.1500  136.4310 C   0  0  0  0  0  1  0  0  0  0  0  0
  187.5840  177.8980  136.0850 C   0  0  0  0  0  2  0  0  0  0  0  0
  193.6550  175.1250  135.6750 O   0  0  0  0  0  0  0  0  0  0  0  0
  195.7830  174.1900  136.1550 C   0  0  0  0  0  2  0  0  0  0  0  0
  195.9740  175.6260  135.7170 C   0  0  0  0  0  2  0  0  0  0  0  0
  194.7540  175.2380  136.5280 C   0  0  0  0  0  3  0  0  0  0  0  0
  188.1370  177.9720  139.6580 C   0  0  0  0  0  2  0  0  0  0  0  0
  188.1960  178.8500  140.8980 C   0  0  0  0  0  2  0  0  0  0  0  0
  186.0030  177.8830  142.6480 O   0  0  0  0  0  0  0  0  0  0  0  0
  189.4700  177.6570  142.7770 C   0  0  0  0  0  0  0  0  0  0  0  0
  187.8640  177.4010  146.7050 C   0  0  1  0  0  3  0  0  0  0  0  0
  187.1580  177.8530  145.4240 C   0  0  0  0  0  2  0  0  0  0  0  0
  187.6550  177.0420  144.2250 C   0  0  2  0  0  3  0  0  0  0  0  0
  188.2860  178.0260  142.0980 N   0  0  0  0  0  0  0  0  0  0  0  0
  189.9010  177.8240  145.2140 C   0  0  0  0  0  2  0  0  0  0  0  0
  189.2100  177.0260  144.1060 C   0  0  2  0  0  3  0  0  0  0  0  0
  189.3970  177.3800  146.5870 C   0  0  0  0  0  2  0  0  0  0  0  0
  190.6200  177.8230  142.2910 O   0  0  0  0  0  0  0  0  0  0  0  0
  187.2100  177.6820  142.9500 C   0  0  0  0  0  0  0  0  0  0  0  0
  186.3800  179.1380  147.7230 O   0  0  0  0  0  0  0  0  0  0  0  0
  187.4450  178.2530  147.8540 C   0  0  0  0  0  0  0  0  0  0  0  0
  188.0610  178.1740  148.9480 O   0  0  0  0  0  1  0  0  0  0  0  0
  1 19  1  0  0  0  0
  2  5  1  0  0  0  0
  3  8  2  0  0  0  0
  3 10  1  0  0  0  0
  4 10  2  0  0  0  0
  4  6  1  0  0  0  0
  6  7  2  0  0  0  0
  7  2  1  0  0  0  0
  7  1  1  0  0  0  0
  8  9  1  0  0  0  0
  9 15  1  6  0  0  0
  9 11  1  0  0  0  0
 10 12  1  0  0  0  0
 12 11  1  0  0  0  0
 12  2  2  0  0  0  0
 14 13  1  0  0  0  0
 14  6  1  0  0  0  0
 15 18  1  0  0  0  0
 16 18  1  0  0  0  0
 17 16  1  0  0  0  0
 17 18  1  0  0  0  0
 19 20  1  0  0  0  0
 20 26  1  0  0  0  0
 21 31  2  0  0  0  0
 22 28  1  0  0  0  0
 23 33  1  1  0  0  0
 24 23  1  0  0  0  0
 25 24  1  1  0  0  0
 26 22  1  0  0  0  0
 26 31  1  0  0  0  0
 27 29  1  0  0  0  0
 28 25  1  0  0  0  0
 28 27  1  1  0  0  0
 29 23  1  0  0  0  0
 30 22  2  0  0  0  0
 31 25  1  0  0  0  0
 32 33  2  0  0  0  0
 33 34  1  0  0  0  0
M  END
>  <MODEL>
6

>  <REMARK>
 VINA RESULT:      -7.8      2.254      5.071
  Name = 
  8 active torsions:
  status: ('A' for Active; 'I' for Inactive)
    1  A    between atoms: C_7  and  C_15
    2  A    between atoms: C_8  and  C_17
    3  A    between atoms: C_8  and  N_18
    4  A    between atoms: C_10  and  C_17
    5  A    between atoms: C_10  and  C_20
    6  A    between atoms: C_19  and  C_22
    7  A    between atoms: C_24  and  O_25
    8  A    between atoms: O_25  and  C_27
                            x       y       z     vdW  Elec       q    Type
                         _______ _______ _______ _____ _____    ______ ____

>  <TORSDO>
F 8

$$$$
=
 OpenBabel10262423163D

 34 38  0  0  1  0  0  0  0  0999 V2000
  182.3180  179.6820  143.5410 C   0  0  0  0  0  2  0  0  0  0  0  0
  181.9830  178.6440  141.2690 C   0  0  0  0  0  0  0  0  0  0  0  0
  179.2190  176.4940  139.8850 C   0  0  0  0  0  3  0  0  0  0  0  0
  179.5860  177.5210  142.0810 N   0  0  0  0  0  0  0  0  0  0  0  0
  183.1940  179.1930  140.8590 O   0  0  0  0  0  1  0  0  0  0  0  0
  180.2940  178.2700  142.9680 C   0  0  0  0  0  0  0  0  0  0  0  0
  181.5130  178.8600  142.5750 C   0  0  0  0  0  0  0  0  0  0  0  0
  179.5080  176.4750  138.5800 C   0  0  0  0  0  3  0  0  0  0  0  0
  180.5900  177.3530  138.0030 C   0  0  2  0  0  3  0  0  0  0  0  0
  180.0180  177.3110  140.8120 C   0  0  0  0  0  0  0  0  0  0  0  0
  181.7430  177.5500  138.9980 C   0  0  0  0  0  2  0  0  0  0  0  0
  181.2310  177.8720  140.3790 C   0  0  0  0  0  0  0  0  0  0  0  0
  178.9380  179.7630  144.3870 C   0  0  0  0  0  1  0  0  0  0  0  0
  179.7370  178.4760  144.3400 C   0  0  0  0  0  2  0  0  0  0  0  0
  180.0490  178.5960  137.6610 O   0  0  0  0  0  0  0  0  0  0  0  0
  180.4800  179.8000  135.6620 C   0  0  0  0  0  2  0  0  0  0  0  0
  180.7220  180.7180  136.8400 C   0  0  0  0  0  2  0  0  0  0  0  0
  181.0590  179.2450  136.9470 C   0  0  0  0  0  3  0  0  0  0  0  0
  183.3200  178.8080  144.2790 C   0  0  0  0  0  2  0  0  0  0  0  0
  184.7090  179.4260  144.2390 C   0  0  0  0  0  2  0  0  0  0  0  0
  186.1440  178.1360  146.4950 O   0  0  0  0  0  0  0  0  0  0  0  0
  186.3670  177.8850  143.0330 C   0  0  0  0  0  0  0  0  0  0  0  0
  190.0990  176.8630  144.7950 C   0  0  1  0  0  3  0  0  0  0  0  0
  188.9050  177.5590  145.4510 C   0  0  0  0  0  2  0  0  0  0  0  0
  187.5910  176.9990  144.9010 C   0  0  2  0  0  3  0  0  0  0  0  0
  185.7260  178.3820  144.1920 N   0  0  0  0  0  0  0  0  0  0  0  0
  188.8050  177.5690  142.7020 C   0  0  0  0  0  2  0  0  0  0  0  0
  187.5340  177.0050  143.3430 C   0  0  2  0  0  3  0  0  0  0  0  0
  190.0420  176.8640  143.2570 C   0  0  0  0  0  2  0  0  0  0  0  0
  185.9700  178.1420  141.8660 O   0  0  0  0  0  0  0  0  0  0  0  0
  186.4500  177.8780  145.2990 C   0  0  0  0  0  0  0  0  0  0  0  0
  191.8430  178.6530  144.6980 O   0  0  0  0  0  0  0  0  0  0  0  0
  191.3750  177.4730  145.2650 C   0  0  0  0  0  0  0  0  0  0  0  0
  192.0350  176.9130  146.1780 O   0  0  0  0  0  1  0  0  0  0  0  0
  1 19  1  0  0  0  0
  2  7  1  0  0  0  0
  3 10  1  0  0  0  0
  4  6  1  0  0  0  0
  5  2  1  0  0  0  0
  6 14  1  0  0  0  0
  7  6  2  0  0  0  0
  7  1  1  0  0  0  0
  8  3  2  0  0  0  0
  9 15  1  1  0  0  0
  9  8  1  0  0  0  0
  9 11  1  0  0  0  0
 10  4  2  0  0  0  0
 11 12  1  0  0  0  0
 12 10  1  0  0  0  0
 12  2  2  0  0  0  0
 14 13  1  0  0  0  0
 16 17  1  0  0  0  0
 16 18  1  0  0  0  0
 17 18  1  0  0  0  0
 18 15  1  0  0  0  0
 20 19  1  0  0  0  0
 22 28  1  0  0  0  0
 22 26  1  0  0  0  0
 23 33  1  6  0  0  0
 23 24  1  0  0  0  0
 25 31  1  0  0  0  0
 25 24  1  6  0  0  0
 26 20  1  0  0  0  0
 26 31  1  0  0  0  0
 27 29  1  0  0  0  0
 28 27  1  6  0  0  0
 28 25  1  0  0  0  0
 29 23  1  0  0  0  0
 30 22  2  0  0  0  0
 31 21  2  0  0  0  0
 32 33  2  0  0  0  0
 33 34  1  0  0  0  0
M  END
>  <MODEL>
7

>  <REMARK>
 VINA RESULT:      -7.8      4.104      7.448
  Name = 
  8 active torsions:
  status: ('A' for Active; 'I' for Inactive)
    1  A    between atoms: C_7  and  C_15
    2  A    between atoms: C_8  and  C_17
    3  A    between atoms: C_8  and  N_18
    4  A    between atoms: C_10  and  C_17
    5  A    between atoms: C_10  and  C_20
    6  A    between atoms: C_19  and  C_22
    7  A    between atoms: C_24  and  O_25
    8  A    between atoms: O_25  and  C_27
                            x       y       z     vdW  Elec       q    Type
                         _______ _______ _______ _____ _____    ______ ____

>  <TORSDO>
F 8

$$$$
=
 OpenBabel10262423163D

 34 38  0  0  1  0  0  0  0  0999 V2000
  188.4490  178.2980  138.1400 C   0  0  0  0  0  2  0  0  0  0  0  0
  185.9830  177.9180  137.7900 C   0  0  0  0  0  0  0  0  0  0  0  0
  184.1130  175.4710  135.6240 C   0  0  0  0  0  3  0  0  0  0  0  0
  186.5030  175.8760  135.9930 N   0  0  0  0  0  0  0  0  0  0  0  0
  185.7150  178.9530  138.6820 O   0  0  0  0  0  1  0  0  0  0  0  0
  187.5490  176.5240  136.5720 C   0  0  0  0  0  0  0  0  0  0  0  0
  187.3100  177.5610  137.4970 C   0  0  0  0  0  0  0  0  0  0  0  0
  182.8580  175.6150  136.0610 C   0  0  0  0  0  3  0  0  0  0  0  0
  182.5420  176.4440  137.2810 C   0  0  2  0  0  3  0  0  0  0  0  0
  185.2140  176.2000  136.2720 C   0  0  0  0  0  0  0  0  0  0  0  0
  183.4960  177.6410  137.4080 C   0  0  0  0  0  2  0  0  0  0  0  0
  184.9280  177.2310  137.1820 C   0  0  0  0  0  0  0  0  0  0  0  0
  189.2230  174.7330  136.8410 C   0  0  0  0  0  1  0  0  0  0  0  0
  188.9390  176.0910  136.2310 C   0  0  0  0  0  2  0  0  0  0  0  0
  182.6370  175.6450  138.4250 O   0  0  0  0  0  0  0  0  0  0  0  0
  180.3890  176.2930  138.8190 C   0  0  0  0  0  2  0  0  0  0  0  0
  180.7770  175.2510  139.8450 C   0  0  0  0  0  2  0  0  0  0  0  0
  181.8030  176.2570  139.3620 C   0  0  0  0  0  3  0  0  0  0  0  0
  188.8480  177.6290  139.4460 C   0  0  0  0  0  2  0  0  0  0  0  0
  188.6400  178.5710  140.6220 C   0  0  0  0  0  2  0  0  0  0  0  0
  186.0430  178.2550  142.0250 O   0  0  0  0  0  0  0  0  0  0  0  0
  189.2900  177.2030  142.6920 C   0  0  0  0  0  0  0  0  0  0  0  0
  187.1110  177.5450  146.3260 C   0  0  1  0  0  3  0  0  0  0  0  0
  186.7350  178.0880  144.9460 C   0  0  0  0  0  2  0  0  0  0  0  0
  187.1870  177.1210  143.8500 C   0  0  2  0  0  3  0  0  0  0  0  0
  188.3460  177.8130  141.8320 N   0  0  0  0  0  0  0  0  0  0  0  0
  189.3860  177.3850  145.1630 C   0  0  0  0  0  2  0  0  0  0  0  0
  188.6890  176.7230  143.9730 C   0  0  2  0  0  3  0  0  0  0  0  0
  188.5920  177.1480  146.4480 C   0  0  0  0  0  2  0  0  0  0  0  0
  190.5040  177.0600  142.3870 O   0  0  0  0  0  0  0  0  0  0  0  0
  187.1060  177.7830  142.5130 C   0  0  0  0  0  0  0  0  0  0  0  0
  187.5920  178.7320  148.4750 O   0  0  0  0  0  1  0  0  0  0  0  0
  186.7520  178.5310  147.3850 C   0  0  0  0  0  0  0  0  0  0  0  0
  185.6800  179.1830  147.2940 O   0  0  0  0  0  0  0  0  0  0  0  0
  1 19  1  0  0  0  0
  2  5  1  0  0  0  0
  3  8  2  0  0  0  0
  3 10  1  0  0  0  0
  4 10  2  0  0  0  0
  4  6  1  0  0  0  0
  6  7  2  0  0  0  0
  7  2  1  0  0  0  0
  7  1  1  0  0  0  0
  8  9  1  0  0  0  0
  9 11  1  0  0  0  0
  9 15  1  1  0  0  0
 10 12  1  0  0  0  0
 12 11  1  0  0  0  0
 12  2  2  0  0  0  0
 14  6  1  0  0  0  0
 14 13  1  0  0  0  0
 15 18  1  0  0  0  0
 16 18  1  0  0  0  0
 16 17  1  0  0  0  0
 18 17  1  0  0  0  0
 19 20  1  0  0  0  0
 20 26  1  0  0  0  0
 21 31  2  0  0  0  0
 22 28  1  0  0  0  0
 23 29  1  0  0  0  0
 23 33  1  1  0  0  0
 24 23  1  0  0  0  0
 25 28  1  0  0  0  0
 25 24  1  1  0  0  0
 26 31  1  0  0  0  0
 26 22  1  0  0  0  0
 27 29  1  0  0  0  0
 28 27  1  1  0  0  0
 30 22  2  0  0  0  0
 31 25  1  0  0  0  0
 33 32  1  0  0  0  0
 34 33  2  0  0  0  0
M  END
>  <MODEL>
8

>  <REMARK>
 VINA RESULT:      -7.7      1.809      2.734
  Name = 
  8 active torsions:
  status: ('A' for Active; 'I' for Inactive)
    1  A    between atoms: C_7  and  C_15
    2  A    between atoms: C_8  and  C_17
    3  A    between atoms: C_8  and  N_18
    4  A    between atoms: C_10  and  C_17
    5  A    between atoms: C_10  and  C_20
    6  A    between atoms: C_19  and  C_22
    7  A    between atoms: C_24  and  O_25
    8  A    between atoms: O_25  and  C_27
                            x       y       z     vdW  Elec       q    Type
                         _______ _______ _______ _____ _____    ______ ____

>  <TORSDO>
F 8

$$$$
=
 OpenBabel10262423163D

 34 38  0  0  1  0  0  0  0  0999 V2000
  184.6010  179.2830  139.4780 C   0  0  0  0  0  2  0  0  0  0  0  0
  183.1260  177.8430  138.0300 C   0  0  0  0  0  0  0  0  0  0  0  0
  183.9180  175.5620  135.1400 C   0  0  0  0  0  3  0  0  0  0  0  0
  185.3160  176.9800  136.5710 N   0  0  0  0  0  0  0  0  0  0  0  0
  182.0190  178.2830  138.7500 O   0  0  0  0  0  1  0  0  0  0  0  0
  185.5100  177.8590  137.5920 C   0  0  0  0  0  0  0  0  0  0  0  0
  184.4120  178.3050  138.3550 C   0  0  0  0  0  0  0  0  0  0  0  0
  182.7590  174.9190  134.9670 C   0  0  0  0  0  3  0  0  0  0  0  0
  181.6230  175.0710  135.9470 C   0  0  2  0  0  3  0  0  0  0  0  0
  184.0820  176.5140  136.2510 C   0  0  0  0  0  0  0  0  0  0  0  0
  181.5860  176.4840  136.5490 C   0  0  0  0  0  2  0  0  0  0  0  0
  182.9580  176.9370  136.9780 C   0  0  0  0  0  0  0  0  0  0  0  0
  187.6530  178.5890  136.6130 C   0  0  0  0  0  1  0  0  0  0  0  0
  186.9030  178.3050  137.8990 C   0  0  0  0  0  2  0  0  0  0  0  0
  181.7630  174.1290  136.9720 O   0  0  0  0  0  0  0  0  0  0  0  0
  182.4710  171.8720  137.1540 C   0  0  0  0  0  2  0  0  0  0  0  0
  180.9600  171.9100  137.2160 C   0  0  0  0  0  2  0  0  0  0  0  0
  181.7050  172.8900  136.3330 C   0  0  0  0  0  3  0  0  0  0  0  0
  184.7360  178.5530  140.8050 C   0  0  0  0  0  2  0  0  0  0  0  0
  185.7190  179.2690  141.7200 C   0  0  0  0  0  2  0  0  0  0  0  0
  184.6710  178.2570  144.3060 O   0  0  0  0  0  0  0  0  0  0  0  0
  187.6530  177.8180  142.5720 C   0  0  0  0  0  0  0  0  0  0  0  0
  188.3100  177.2540  146.7340 C   0  0  1  0  0  3  0  0  0  0  0  0
  187.0920  177.8750  146.0470 C   0  0  0  0  0  2  0  0  0  0  0  0
  186.8050  177.1640  144.7220 C   0  0  2  0  0  3  0  0  0  0  0  0
  186.3330  178.3230  142.6420 N   0  0  0  0  0  0  0  0  0  0  0  0
  189.3040  177.7080  144.4190 C   0  0  0  0  0  2  0  0  0  0  0  0
  188.0580  177.0700  143.8000 C   0  0  2  0  0  3  0  0  0  0  0  0
  189.5460  177.1560  145.8240 C   0  0  0  0  0  2  0  0  0  0  0  0
  188.3910  177.9650  141.5630 O   0  0  0  0  0  0  0  0  0  0  0  0
  185.8300  177.9560  143.9130 C   0  0  0  0  0  0  0  0  0  0  0  0
  189.9440  178.0240  148.4640 O   0  0  0  0  0  0  0  0  0  0  0  0
  188.6420  178.0070  147.9780 C   0  0  0  0  0  0  0  0  0  0  0  0
  187.7360  178.6270  148.5920 O   0  0  0  0  0  1  0  0  0  0  0  0
  1 19  1  0  0  0  0
  2  7  1  0  0  0  0
  2  5  1  0  0  0  0
  3 10  1  0  0  0  0
  4  6  1  0  0  0  0
  6 14  1  0  0  0  0
  6  7  2  0  0  0  0
  7  1  1  0  0  0  0
  8  3  2  0  0  0  0
  8  9  1  0  0  0  0
  9 11  1  0  0  0  0
  9 15  1  1  0  0  0
 10  4  2  0  0  0  0
 10 12  1  0  0  0  0
 11 12  1  0  0  0  0
 12  2  2  0  0  0  0
 13 14  1  0  0  0  0
 16 17  1  0  0  0  0
 18 15  1  0  0  0  0
 18 16  1  0  0  0  0
 18 17  1  0  0  0  0
 19 20  1  0  0  0  0
 20 26  1  0  0  0  0
 22 26  1  0  0  0  0
 22 28  1  0  0  0  0
 23 33  1  1  0  0  0
 24 23  1  0  0  0  0
 25 24  1  1  0  0  0
 26 31  1  0  0  0  0
 27 29  1  0  0  0  0
 28 27  1  1  0  0  0
 28 25  1  0  0  0  0
 29 23  1  0  0  0  0
 30 22  2  0  0  0  0
 31 21  2  0  0  0  0
 31 25  1  0  0  0  0
 33 32  2  0  0  0  0
 33 34  1  0  0  0  0
M  END
>  <MODEL>
9

>  <REMARK>
 VINA RESULT:      -7.5      2.772      4.680
  Name = 
  8 active torsions:
  status: ('A' for Active; 'I' for Inactive)
    1  A    between atoms: C_7  and  C_15
    2  A    between atoms: C_8  and  C_17
    3  A    between atoms: C_8  and  N_18
    4  A    between atoms: C_10  and  C_17
    5  A    between atoms: C_10  and  C_20
    6  A    between atoms: C_19  and  C_22
    7  A    between atoms: C_24  and  O_25
    8  A    between atoms: O_25  and  C_27
                            x       y       z     vdW  Elec       q    Type
                         _______ _______ _______ _____ _____    ______ ____

>  <TORSDO>
F 8

$$$$
