=
 OpenBabel10262419373D

 31 35  0  0  1  0  0  0  0  0999 V2000
  187.2150  177.9350  147.2920 C   0  0  0  0  0  0  0  0  0  0  0  0
  187.6390  177.8360  143.5960 C   0  0  0  0  0  0  0  0  0  0  0  0
  189.1170  177.5490  143.4290 C   0  0  2  0  0  3  0  0  0  0  0  0
  182.6040  178.9500  142.5850 O   0  0  0  0  0  0  0  0  0  0  0  0
  183.2180  178.7890  141.4960 C   0  0  0  0  0  0  0  0  0  0  0  0
  191.4480  178.3410  143.9080 C   0  0  0  0  0  2  0  0  0  0  0  0
  187.0700  177.9660  144.8790 C   0  0  0  0  0  0  0  0  0  0  0  0
  185.8920  178.2400  147.3730 N   0  0  0  0  0  0  0  0  0  0  0  0
  189.9800  178.7570  143.7980 C   0  0  0  0  0  2  0  0  0  0  0  0
  185.4570  178.3160  142.6280 C   0  0  0  0  0  0  0  0  0  0  0  0
  188.0110  177.7530  148.5340 C   0  0  0  0  0  1  0  0  0  0  0  0
  188.8820  177.8870  141.0600 C   0  0  0  0  0  2  0  0  0  0  0  0
  191.7990  177.1080  143.0660 C   0  0  1  0  0  3  0  0  0  0  0  0
  184.9420  178.4450  143.8820 N   0  0  0  0  0  0  0  0  0  0  0  0
  186.8180  178.0120  142.4600 C   0  0  0  0  0  0  0  0  0  0  0  0
  184.6160  178.4810  141.4770 N   0  0  0  0  0  2  0  0  0  0  0  0
  187.8270  177.7920  146.0450 C   0  0  0  0  0  3  0  0  0  0  0  0
  191.7220  175.8450  143.9050 C   0  0  0  0  0  1  0  0  0  0  0  0
  185.7020  178.2790  144.9930 C   0  0  0  0  0  0  0  0  0  0  0  0
  185.1300  178.4130  146.2600 C   0  0  0  0  0  3  0  0  0  0  0  0
  187.3650  177.7750  141.0800 C   0  0  0  0  0  2  0  0  0  0  0  0
  189.4590  177.0210  142.0860 N   0  0  1  0  0  0  0  0  0  0  0  0
  190.9100  176.9890  141.8180 C   0  0  0  0  0  2  0  0  0  0  0  0
  183.1550  176.7480  138.3040 C   0  0  1  0  0  3  0  0  0  0  0  0
  181.5370  177.7440  139.9430 C   0  0  0  0  0  2  0  0  0  0  0  0
  184.3290  180.1670  139.2350 O   0  0  0  0  0  1  0  0  0  0  0  0
  183.9020  175.4860  137.9270 C   0  0  0  0  0  1  0  0  0  0  0  0
  182.2960  176.4800  139.5350 C   0  0  0  0  0  2  0  0  0  0  0  0
  183.4170  179.1410  138.9810 C   0  0  2  0  0  3  0  0  0  0  0  0
  182.4890  178.9190  140.1890 C   0  0  2  0  0  3  0  0  0  0  0  0
  184.1560  177.8630  138.5910 C   0  0  0  0  0  2  0  0  0  0  0  0
  1  8  1  0  0  0  0
  1 11  1  0  0  0  0
  2  7  1  0  0  0  0
  3  2  1  0  0  0  0
  3  9  1  6  0  0  0
  5  4  2  0  0  0  0
  7 19  2  0  0  0  0
  7 17  1  0  0  0  0
  9  6  1  0  0  0  0
 10 14  2  0  0  0  0
 12 21  1  0  0  0  0
 13 18  1  1  0  0  0
 13  6  1  0  0  0  0
 14 19  1  0  0  0  0
 15 10  1  0  0  0  0
 15  2  2  0  0  0  0
 16  5  1  0  0  0  0
 16 10  1  0  0  0  0
 17  1  2  0  0  0  0
 19 20  1  0  0  0  0
 20  8  2  0  0  0  0
 21 15  1  0  0  0  0
 22 12  1  6  0  0  0
 22  3  1  0  0  0  0
 23 22  1  0  0  0  0
 23 13  1  0  0  0  0
 24 27  1  1  0  0  0
 24 31  1  0  0  0  0
 24 28  1  0  0  0  0
 25 30  1  0  0  0  0
 28 25  1  0  0  0  0
 29 26  1  1  0  0  0
 29 30  1  0  0  0  0
 30  5  1  1  0  0  0
 31 29  1  0  0  0  0
M  END
>  <MODEL>
1

>  <REMARK>
 VINA RESULT:     -11.1      0.000      0.000
  Name = 
  1 active torsions:
  status: ('A' for Active; 'I' for Inactive)
    1  A    between atoms: C_9  and  C_22
                            x       y       z     vdW  Elec       q    Type
                         _______ _______ _______ _____ _____    ______ ____

>  <TORSDO>
F 1

$$$$
=
 OpenBabel10262419373D

 31 35  0  0  1  0  0  0  0  0999 V2000
  187.1800  177.6980  147.1860 C   0  0  0  0  0  0  0  0  0  0  0  0
  187.6410  177.7690  143.4940 C   0  0  0  0  0  0  0  0  0  0  0  0
  189.1230  177.4950  143.3290 C   0  0  2  0  0  3  0  0  0  0  0  0
  182.6130  178.9110  142.4830 O   0  0  0  0  0  0  0  0  0  0  0  0
  183.2390  178.8010  141.3940 C   0  0  0  0  0  0  0  0  0  0  0  0
  191.4450  178.2720  143.8670 C   0  0  0  0  0  2  0  0  0  0  0  0
  187.0600  177.8380  144.7750 C   0  0  0  0  0  0  0  0  0  0  0  0
  185.8550  177.9940  147.2670 N   0  0  0  0  0  0  0  0  0  0  0  0
  189.9770  178.6880  143.7620 C   0  0  0  0  0  2  0  0  0  0  0  0
  185.4670  178.2850  142.5270 C   0  0  0  0  0  0  0  0  0  0  0  0
  187.9640  177.4620  148.4260 C   0  0  0  0  0  1  0  0  0  0  0  0
  188.9110  177.9400  140.9760 C   0  0  0  0  0  2  0  0  0  0  0  0
  191.8100  177.0810  142.9740 C   0  0  1  0  0  3  0  0  0  0  0  0
  184.9400  178.3550  143.7790 N   0  0  0  0  0  0  0  0  0  0  0  0
  186.8320  177.9940  142.3590 C   0  0  0  0  0  0  0  0  0  0  0  0
  184.6380  178.4990  141.3750 N   0  0  0  0  0  2  0  0  0  0  0  0
  187.8050  177.6140  145.9400 C   0  0  0  0  0  3  0  0  0  0  0  0
  191.7290  175.7800  143.7540 C   0  0  0  0  0  1  0  0  0  0  0  0
  185.6890  178.1410  144.8900 C   0  0  0  0  0  0  0  0  0  0  0  0
  185.1040  178.2150  146.1550 C   0  0  0  0  0  3  0  0  0  0  0  0
  187.3940  177.8220  140.9750 C   0  0  0  0  0  2  0  0  0  0  0  0
  189.4800  177.0300  141.9670 N   0  0  1  0  0  0  0  0  0  0  0  0
  190.9340  177.0150  141.7130 C   0  0  0  0  0  2  0  0  0  0  0  0
  180.7650  176.7120  139.4260 C   0  0  1  0  0  3  0  0  0  0  0  0
  181.0030  179.0630  140.2710 C   0  0  0  0  0  2  0  0  0  0  0  0
  184.2860  177.8330  138.9020 O   0  0  0  0  0  1  0  0  0  0  0  0
  180.1650  175.3540  139.7250 C   0  0  0  0  0  1  0  0  0  0  0  0
  180.4010  177.6840  140.5440 C   0  0  0  0  0  2  0  0  0  0  0  0
  182.9000  177.9480  139.0180 C   0  0  2  0  0  3  0  0  0  0  0  0
  182.5230  178.9890  140.0870 C   0  0  2  0  0  3  0  0  0  0  0  0
  182.2800  176.5830  139.3110 C   0  0  0  0  0  2  0  0  0  0  0  0
  1  8  1  0  0  0  0
  1 11  1  0  0  0  0
  2  7  1  0  0  0  0
  3  2  1  0  0  0  0
  3  9  1  6  0  0  0
  5  4  2  0  0  0  0
  7 19  2  0  0  0  0
  7 17  1  0  0  0  0
  9  6  1  0  0  0  0
 10 14  2  0  0  0  0
 13 18  1  1  0  0  0
 13  6  1  0  0  0  0
 14 19  1  0  0  0  0
 15 10  1  0  0  0  0
 15  2  2  0  0  0  0
 16  5  1  0  0  0  0
 16 10  1  0  0  0  0
 17  1  2  0  0  0  0
 19 20  1  0  0  0  0
 20  8  2  0  0  0  0
 21 12  1  0  0  0  0
 21 15  1  0  0  0  0
 22 12  1  6  0  0  0
 22  3  1  0  0  0  0
 23 22  1  0  0  0  0
 23 13  1  0  0  0  0
 24 27  1  1  0  0  0
 24 28  1  0  0  0  0
 25 28  1  0  0  0  0
 29 26  1  1  0  0  0
 29 31  1  0  0  0  0
 29 30  1  0  0  0  0
 30 25  1  0  0  0  0
 30  5  1  1  0  0  0
 31 24  1  0  0  0  0
M  END
>  <MODEL>
2

>  <REMARK>
 VINA RESULT:     -10.0      0.793      1.217
  Name = 
  1 active torsions:
  status: ('A' for Active; 'I' for Inactive)
    1  A    between atoms: C_9  and  C_22
                            x       y       z     vdW  Elec       q    Type
                         _______ _______ _______ _____ _____    ______ ____

>  <TORSDO>
F 1

$$$$
=
 OpenBabel10262419373D

 31 35  0  0  1  0  0  0  0  0999 V2000
  190.8980  176.7530  145.8810 C   0  0  0  0  0  0  0  0  0  0  0  0
  188.2100  177.7480  143.5080 C   0  0  0  0  0  0  0  0  0  0  0  0
  187.0630  178.1180  144.4260 C   0  0  2  0  0  3  0  0  0  0  0  0
  191.0670  176.7320  139.2170 O   0  0  0  0  0  0  0  0  0  0  0  0
  189.9380  177.1710  138.8670 C   0  0  0  0  0  0  0  0  0  0  0  0
  185.5030  177.3170  146.2190 C   0  0  0  0  0  2  0  0  0  0  0  0
  189.4360  177.2950  144.0330 C   0  0  0  0  0  0  0  0  0  0  0  0
  191.8710  176.3910  145.0030 N   0  0  0  0  0  0  0  0  0  0  0  0
  186.4390  176.8880  145.0880 C   0  0  0  0  0  2  0  0  0  0  0  0
  189.1060  177.4370  141.2650 C   0  0  0  0  0  0  0  0  0  0  0  0
  191.1470  176.6600  147.3430 C   0  0  0  0  0  1  0  0  0  0  0  0
  185.6390  178.3490  142.5020 C   0  0  0  0  0  2  0  0  0  0  0  0
  184.9280  178.7270  146.0360 C   0  0  1  0  0  3  0  0  0  0  0  0
  190.2740  176.9940  141.8060 N   0  0  0  0  0  0  0  0  0  0  0  0
  188.0470  177.8200  142.1070 C   0  0  0  0  0  0  0  0  0  0  0  0
  188.9500  177.5230  139.8410 N   0  0  0  0  0  2  0  0  0  0  0  0
  189.6650  177.2110  145.4130 C   0  0  0  0  0  3  0  0  0  0  0  0
  185.7640  179.7490  146.7860 C   0  0  0  0  0  1  0  0  0  0  0  0
  190.4630  176.9160  143.1470 C   0  0  0  0  0  0  0  0  0  0  0  0
  191.6800  176.4630  143.6580 C   0  0  0  0  0  3  0  0  0  0  0  0
  186.7940  178.3990  141.5130 C   0  0  0  0  0  2  0  0  0  0  0  0
  186.0390  178.9640  143.7650 N   0  0  1  0  0  0  0  0  0  0  0  0
  184.7990  179.1100  144.5530 C   0  0  0  0  0  2  0  0  0  0  0  0
  186.6980  177.4650  136.9250 C   0  0  1  0  0  3  0  0  0  0  0  0
  188.8960  178.6600  137.1280 C   0  0  0  0  0  2  0  0  0  0  0  0
  189.4330  174.9340  137.1390 O   0  0  0  0  0  1  0  0  0  0  0  0
  185.2610  177.4490  137.4000 C   0  0  0  0  0  1  0  0  0  0  0  0
  187.4370  178.6260  137.5840 C   0  0  0  0  0  2  0  0  0  0  0  0
  188.8210  176.1470  136.8200 C   0  0  2  0  0  3  0  0  0  0  0  0
  189.6060  177.3310  137.4110 C   0  0  2  0  0  3  0  0  0  0  0  0
  187.3660  176.1420  137.2860 C   0  0  0  0  0  2  0  0  0  0  0  0
  1 11  1  0  0  0  0
  2  7  1  0  0  0  0
  2  3  1  0  0  0  0
  3  9  1  6  0  0  0
  5  4  2  0  0  0  0
  5 16  1  0  0  0  0
  7 17  2  0  0  0  0
  8  1  2  0  0  0  0
  9  6  1  0  0  0  0
 10 14  2  0  0  0  0
 10 15  1  0  0  0  0
 13  6  1  0  0  0  0
 13 18  1  1  0  0  0
 14 19  1  0  0  0  0
 15  2  2  0  0  0  0
 16 10  1  0  0  0  0
 17  1  1  0  0  0  0
 19 20  2  0  0  0  0
 19  7  1  0  0  0  0
 20  8  1  0  0  0  0
 21 15  1  0  0  0  0
 21 12  1  0  0  0  0
 22 12  1  6  0  0  0
 22  3  1  0  0  0  0
 22 23  1  0  0  0  0
 23 13  1  0  0  0  0
 24 31  1  0  0  0  0
 24 27  1  1  0  0  0
 24 28  1  0  0  0  0
 25 30  1  0  0  0  0
 25 28  1  0  0  0  0
 29 26  1  1  0  0  0
 29 31  1  0  0  0  0
 29 30  1  0  0  0  0
 30  5  1  1  0  0  0
M  END
>  <MODEL>
3

>  <REMARK>
 VINA RESULT:      -9.8      3.023      5.517
  Name = 
  1 active torsions:
  status: ('A' for Active; 'I' for Inactive)
    1  A    between atoms: C_9  and  C_22
                            x       y       z     vdW  Elec       q    Type
                         _______ _______ _______ _____ _____    ______ ____

>  <TORSDO>
F 1

$$$$
=
 OpenBabel10262419373D

 31 35  0  0  1  0  0  0  0  0999 V2000
  185.3530  178.2870  145.5300 C   0  0  0  0  0  0  0  0  0  0  0  0
  188.2830  177.5700  143.3500 C   0  0  0  0  0  0  0  0  0  0  0  0
  189.3740  177.2300  144.3450 C   0  0  2  0  0  3  0  0  0  0  0  0
  185.7210  178.6050  138.8810 O   0  0  0  0  0  0  0  0  0  0  0  0
  186.9000  178.2530  138.6080 C   0  0  0  0  0  0  0  0  0  0  0  0
  190.7290  178.0420  146.2920 C   0  0  0  0  0  2  0  0  0  0  0  0
  186.9920  177.9220  143.7890 C   0  0  0  0  0  0  0  0  0  0  0  0
  184.4330  178.6280  144.5890 N   0  0  0  0  0  0  0  0  0  0  0  0
  189.8610  178.4640  145.1060 C   0  0  0  0  0  2  0  0  0  0  0  0
  187.5530  177.9290  141.0550 C   0  0  0  0  0  0  0  0  0  0  0  0
  184.9820  178.2970  146.9680 C   0  0  0  0  0  1  0  0  0  0  0  0
  190.9610  177.1770  142.5380 C   0  0  0  0  0  2  0  0  0  0  0  0
  191.4080  176.6810  146.1010 C   0  0  1  0  0  3  0  0  0  0  0  0
  186.3180  178.2730  141.5140 N   0  0  0  0  0  0  0  0  0  0  0  0
  188.5630  177.5730  141.9660 C   0  0  0  0  0  0  0  0  0  0  0  0
  187.8280  177.9180  139.6460 N   0  0  0  0  0  2  0  0  0  0  0  0
  186.6480  177.9280  145.1480 C   0  0  0  0  0  3  0  0  0  0  0  0
  190.5830  175.5760  146.7360 C   0  0  0  0  0  1  0  0  0  0  0  0
  186.0170  178.2770  142.8370 C   0  0  0  0  0  0  0  0  0  0  0  0
  184.7350  178.6300  143.2630 C   0  0  0  0  0  3  0  0  0  0  0  0
  189.8950  177.1010  141.4550 C   0  0  0  0  0  2  0  0  0  0  0  0
  190.5010  176.4810  143.7380 N   0  0  1  0  0  0  0  0  0  0  0  0
  191.6810  176.3750  144.6190 C   0  0  0  0  0  2  0  0  0  0  0  0
  189.5500  176.2410  136.7950 C   0  0  1  0  0  3  0  0  0  0  0  0
  187.1130  176.7970  136.5680 C   0  0  0  0  0  2  0  0  0  0  0  0
  189.0560  179.8540  137.5910 O   0  0  0  0  0  1  0  0  0  0  0  0
  190.5320  175.2130  137.3130 C   0  0  0  0  0  1  0  0  0  0  0  0
  188.1260  175.7690  137.0740 C   0  0  0  0  0  2  0  0  0  0  0  0
  188.8170  178.6260  136.9730 C   0  0  2  0  0  3  0  0  0  0  0  0
  187.3590  178.1810  137.1800 C   0  0  2  0  0  3  0  0  0  0  0  0
  189.8070  177.5790  137.4810 C   0  0  0  0  0  2  0  0  0  0  0  0
  1 11  1  0  0  0  0
  2  7  1  0  0  0  0
  2  3  1  0  0  0  0
  3  9  1  6  0  0  0
  5  4  2  0  0  0  0
  5 16  1  0  0  0  0
  7 17  2  0  0  0  0
  8  1  2  0  0  0  0
  9  6  1  0  0  0  0
 10 14  2  0  0  0  0
 10 15  1  0  0  0  0
 13  6  1  0  0  0  0
 13 18  1  6  0  0  0
 14 19  1  0  0  0  0
 15  2  2  0  0  0  0
 16 10  1  0  0  0  0
 17  1  1  0  0  0  0
 19 20  2  0  0  0  0
 19  7  1  0  0  0  0
 20  8  1  0  0  0  0
 21 15  1  0  0  0  0
 21 12  1  0  0  0  0
 22 12  1  6  0  0  0
 22  3  1  0  0  0  0
 22 23  1  0  0  0  0
 23 13  1  0  0  0  0
 24 28  1  0  0  0  0
 24 27  1  1  0  0  0
 24 31  1  0  0  0  0
 25 28  1  0  0  0  0
 25 30  1  0  0  0  0
 29 30  1  0  0  0  0
 29 31  1  0  0  0  0
 29 26  1  1  0  0  0
 30  5  1  1  0  0  0
M  END
>  <MODEL>
4

>  <REMARK>
 VINA RESULT:      -9.7      2.575      3.919
  Name = 
  1 active torsions:
  status: ('A' for Active; 'I' for Inactive)
    1  A    between atoms: C_9  and  C_22
                            x       y       z     vdW  Elec       q    Type
                         _______ _______ _______ _____ _____    ______ ____

>  <TORSDO>
F 1

$$$$
=
 OpenBabel10262419373D

 31 35  0  0  1  0  0  0  0  0999 V2000
  186.7570  178.0310  146.6200 C   0  0  0  0  0  0  0  0  0  0  0  0
  187.7500  177.9440  143.0340 C   0  0  0  0  0  0  0  0  0  0  0  0
  189.2280  177.6160  143.0970 C   0  0  2  0  0  3  0  0  0  0  0  0
  182.9680  179.2110  141.2630 O   0  0  0  0  0  0  0  0  0  0  0  0
  183.7400  179.0380  140.2810 C   0  0  0  0  0  0  0  0  0  0  0  0
  191.4760  178.3370  143.9420 C   0  0  0  0  0  2  0  0  0  0  0  0
  186.9930  178.0820  144.2140 C   0  0  0  0  0  0  0  0  0  0  0  0
  185.4470  178.3740  146.4970 N   0  0  0  0  0  0  0  0  0  0  0  0
  190.0560  178.7960  143.6090 C   0  0  0  0  0  2  0  0  0  0  0  0
  185.7600  178.4940  141.7440 C   0  0  0  0  0  0  0  0  0  0  0  0
  187.3450  177.8180  147.9680 C   0  0  0  0  0  1  0  0  0  0  0  0
  189.3760  177.9760  140.7240 C   0  0  0  0  0  2  0  0  0  0  0  0
  191.9210  177.1000  143.1510 C   0  0  1  0  0  3  0  0  0  0  0  0
  185.0600  178.6290  142.9030 N   0  0  0  0  0  0  0  0  0  0  0  0
  187.1230  178.1520  141.7860 C   0  0  0  0  0  0  0  0  0  0  0  0
  185.1150  178.6900  140.4770 N   0  0  0  0  0  2  0  0  0  0  0  0
  187.5530  177.8790  145.4820 C   0  0  0  0  0  3  0  0  0  0  0  0
  191.6790  175.8340  143.9550 C   0  0  0  0  0  1  0  0  0  0  0  0
  185.6320  178.4340  144.1170 C   0  0  0  0  0  0  0  0  0  0  0  0
  184.8740  178.5760  145.2800 C   0  0  0  0  0  3  0  0  0  0  0  0
  187.8720  177.9080  140.5060 C   0  0  0  0  0  2  0  0  0  0  0  0
  189.7610  177.0870  141.8180 N   0  0  1  0  0  0  0  0  0  0  0  0
  191.2340  177.0150  141.7790 C   0  0  0  0  0  2  0  0  0  0  0  0
  180.2920  178.9590  138.7140 C   0  0  1  0  0  3  0  0  0  0  0  0
  182.3260  180.4290  138.7340 C   0  0  0  0  0  2  0  0  0  0  0  0
  183.3370  176.8100  138.5160 O   0  0  0  0  0  1  0  0  0  0  0  0
  178.9310  178.7360  139.3380 C   0  0  0  0  0  1  0  0  0  0  0  0
  180.9430  180.1870  139.3420 C   0  0  0  0  0  2  0  0  0  0  0  0
  182.5410  177.9400  138.3210 C   0  0  2  0  0  3  0  0  0  0  0  0
  183.2280  179.1990  138.8780 C   0  0  2  0  0  3  0  0  0  0  0  0
  181.1610  177.7260  138.9390 C   0  0  0  0  0  2  0  0  0  0  0  0
  1 11  1  0  0  0  0
  2  3  1  0  0  0  0
  2  7  1  0  0  0  0
  3  9  1  6  0  0  0
  5 16  1  0  0  0  0
  5  4  2  0  0  0  0
  7 17  1  0  0  0  0
  8  1  1  0  0  0  0
  9  6  1  0  0  0  0
 10 15  1  0  0  0  0
 10 14  2  0  0  0  0
 13  6  1  0  0  0  0
 13 18  1  1  0  0  0
 14 19  1  0  0  0  0
 15  2  2  0  0  0  0
 16 10  1  0  0  0  0
 17  1  2  0  0  0  0
 19  7  2  0  0  0  0
 19 20  1  0  0  0  0
 20  8  2  0  0  0  0
 21 12  1  0  0  0  0
 21 15  1  0  0  0  0
 22 12  1  6  0  0  0
 22  3  1  0  0  0  0
 23 22  1  0  0  0  0
 23 13  1  0  0  0  0
 24 31  1  0  0  0  0
 24 27  1  1  0  0  0
 24 28  1  0  0  0  0
 25 30  1  0  0  0  0
 25 28  1  0  0  0  0
 29 26  1  1  0  0  0
 29 30  1  0  0  0  0
 29 31  1  0  0  0  0
 30  5  1  1  0  0  0
M  END
>  <MODEL>
5

>  <REMARK>
 VINA RESULT:      -9.6      1.268      1.941
  Name = 
  1 active torsions:
  status: ('A' for Active; 'I' for Inactive)
    1  A    between atoms: C_9  and  C_22
                            x       y       z     vdW  Elec       q    Type
                         _______ _______ _______ _____ _____    ______ ____

>  <TORSDO>
F 1

$$$$
=
 OpenBabel10262419373D

 31 35  0  0  1  0  0  0  0  0999 V2000
  185.5990  178.2460  145.5830 C   0  0  0  0  0  0  0  0  0  0  0  0
  188.7350  177.4420  143.7460 C   0  0  0  0  0  0  0  0  0  0  0  0
  189.6890  177.0470  144.8560 C   0  0  2  0  0  3  0  0  0  0  0  0
  186.7510  178.6280  139.0280 O   0  0  0  0  0  0  0  0  0  0  0  0
  187.9410  178.2330  138.8880 C   0  0  0  0  0  0  0  0  0  0  0  0
  190.8360  177.7830  146.9600 C   0  0  0  0  0  2  0  0  0  0  0  0
  187.4150  177.8380  144.0390 C   0  0  0  0  0  0  0  0  0  0  0  0
  184.8080  178.6330  144.5470 N   0  0  0  0  0  0  0  0  0  0  0  0
  190.1290  178.2530  145.6880 C   0  0  0  0  0  2  0  0  0  0  0  0
  188.2900  177.8550  141.3880 C   0  0  0  0  0  0  0  0  0  0  0  0
  185.0630  178.2530  146.9690 C   0  0  0  0  0  1  0  0  0  0  0  0
  191.4720  176.9540  143.2450 C   0  0  0  0  0  2  0  0  0  0  0  0
  191.4820  176.3990  146.8270 C   0  0  1  0  0  3  0  0  0  0  0  0
  187.0250  178.2420  141.7070 N   0  0  0  0  0  0  0  0  0  0  0  0
  189.1730  177.4500  142.4040 C   0  0  0  0  0  0  0  0  0  0  0  0
  188.7270  177.8500  140.0210 N   0  0  0  0  0  2  0  0  0  0  0  0
  186.9150  177.8410  145.3480 C   0  0  0  0  0  3  0  0  0  0  0  0
  190.5470  175.3190  147.3440 C   0  0  0  0  0  1  0  0  0  0  0  0
  186.5710  178.2420  142.9850 C   0  0  0  0  0  0  0  0  0  0  0  0
  185.2630  178.6400  143.2650 C   0  0  0  0  0  3  0  0  0  0  0  0
  190.5380  176.9320  142.0440 C   0  0  0  0  0  2  0  0  0  0  0  0
  190.8500  176.2620  144.3710 N   0  0  1  0  0  0  0  0  0  0  0  0
  191.9140  176.1000  145.3820 C   0  0  0  0  0  2  0  0  0  0  0  0
  187.1740  176.2440  135.7560 C   0  0  1  0  0  3  0  0  0  0  0  0
  187.5910  178.6250  136.4280 C   0  0  0  0  0  2  0  0  0  0  0  0
  189.9830  176.3310  138.2130 O   0  0  0  0  0  1  0  0  0  0  0  0
  186.0970  175.2160  135.4810 C   0  0  0  0  0  1  0  0  0  0  0  0
  186.5230  177.5700  136.1360 C   0  0  0  0  0  2  0  0  0  0  0  0
  189.1550  176.7830  137.1830 C   0  0  2  0  0  3  0  0  0  0  0  0
  188.5590  178.1610  137.5220 C   0  0  2  0  0  3  0  0  0  0  0  0
  188.0680  175.7510  136.8890 C   0  0  0  0  0  2  0  0  0  0  0  0
  1 11  1  0  0  0  0
  2  7  1  0  0  0  0
  2  3  1  0  0  0  0
  3  9  1  6  0  0  0
  5  4  2  0  0  0  0
  5 16  1  0  0  0  0
  7 17  2  0  0  0  0
  8  1  2  0  0  0  0
  9  6  1  0  0  0  0
 10 14  2  0  0  0  0
 10 15  1  0  0  0  0
 13  6  1  0  0  0  0
 13 18  1  6  0  0  0
 14 19  1  0  0  0  0
 15  2  2  0  0  0  0
 16 10  1  0  0  0  0
 17  1  1  0  0  0  0
 19 20  2  0  0  0  0
 19  7  1  0  0  0  0
 20  8  1  0  0  0  0
 21 15  1  0  0  0  0
 21 12  1  0  0  0  0
 22 12  1  6  0  0  0
 22  3  1  0  0  0  0
 22 23  1  0  0  0  0
 23 13  1  0  0  0  0
 24 27  1  1  0  0  0
 24 28  1  0  0  0  0
 24 31  1  0  0  0  0
 25 30  1  0  0  0  0
 28 25  1  0  0  0  0
 29 30  1  0  0  0  0
 29 26  1  1  0  0  0
 30  5  1  1  0  0  0
 31 29  1  0  0  0  0
M  END
>  <MODEL>
6

>  <REMARK>
 VINA RESULT:      -9.2      2.722      4.052
  Name = 
  1 active torsions:
  status: ('A' for Active; 'I' for Inactive)
    1  A    between atoms: C_9  and  C_22
                            x       y       z     vdW  Elec       q    Type
                         _______ _______ _______ _____ _____    ______ ____

>  <TORSDO>
F 1

$$$$
=
 OpenBabel10262419373D

 31 35  0  0  1  0  0  0  0  0999 V2000
  191.0750  176.7710  145.4590 C   0  0  0  0  0  0  0  0  0  0  0  0
  187.9130  177.7850  143.7790 C   0  0  0  0  0  0  0  0  0  0  0  0
  187.0070  178.1380  144.9410 C   0  0  2  0  0  3  0  0  0  0  0  0
  189.7130  176.8390  138.9340 O   0  0  0  0  0  0  0  0  0  0  0  0
  188.5330  177.2770  138.8580 C   0  0  0  0  0  0  0  0  0  0  0  0
  185.9000  177.3060  147.0320 C   0  0  0  0  0  2  0  0  0  0  0  0
  189.2270  177.3310  144.0030 C   0  0  0  0  0  0  0  0  0  0  0  0
  191.8210  176.4250  144.3770 N   0  0  0  0  0  0  0  0  0  0  0  0
  186.5530  176.8960  145.7100 C   0  0  0  0  0  2  0  0  0  0  0  0
  188.2720  177.5080  141.3870 C   0  0  0  0  0  0  0  0  0  0  0  0
  191.6530  176.6600  146.8240 C   0  0  0  0  0  1  0  0  0  0  0  0
  185.1790  178.3870  143.3980 C   0  0  0  0  0  2  0  0  0  0  0  0
  185.2970  178.7160  147.0050 C   0  0  1  0  0  3  0  0  0  0  0  0
  189.5330  177.0630  141.6390 N   0  0  0  0  0  0  0  0  0  0  0  0
  187.4340  177.8750  142.4540 C   0  0  0  0  0  0  0  0  0  0  0  0
  187.7940  177.6120  140.0370 N   0  0  0  0  0  2  0  0  0  0  0  0
  189.7670  177.2290  145.2930 C   0  0  0  0  0  3  0  0  0  0  0  0
  186.2810  179.7310  147.5580 C   0  0  0  0  0  1  0  0  0  0  0  0
  190.0250  176.9680  142.9000 C   0  0  0  0  0  0  0  0  0  0  0  0
  191.3280  176.5140  143.1120 C   0  0  0  0  0  3  0  0  0  0  0  0
  186.0770  178.4560  142.1710 C   0  0  0  0  0  2  0  0  0  0  0  0
  185.8570  178.9870  144.5440 N   0  0  1  0  0  0  0  0  0  0  0  0
  184.8310  179.1180  145.5970 C   0  0  0  0  0  2  0  0  0  0  0  0
  189.5180  176.3990  135.3060 C   0  0  1  0  0  3  0  0  0  0  0  0
  187.5610  176.1120  136.8510 C   0  0  0  0  0  2  0  0  0  0  0  0
  188.9970  179.5740  137.1980 O   0  0  0  0  0  1  0  0  0  0  0  0
  190.7650  175.7310  134.7660 C   0  0  0  0  0  1  0  0  0  0  0  0
  188.8210  175.4570  136.2840 C   0  0  0  0  0  2  0  0  0  0  0  0
  188.6520  178.3790  136.5640 C   0  0  2  0  0  3  0  0  0  0  0  0
  187.8760  177.4550  137.5190 C   0  0  2  0  0  3  0  0  0  0  0  0
  189.9010  177.6980  136.0070 C   0  0  0  0  0  2  0  0  0  0  0  0
  1 11  1  0  0  0  0
  2  7  1  0  0  0  0
  2  3  1  0  0  0  0
  3  9  1  6  0  0  0
  5  4  2  0  0  0  0
  5 16  1  0  0  0  0
  7 17  2  0  0  0  0
  8  1  2  0  0  0  0
  9  6  1  0  0  0  0
 10 14  2  0  0  0  0
 10 15  1  0  0  0  0
 13  6  1  0  0  0  0
 13 18  1  6  0  0  0
 14 19  1  0  0  0  0
 15  2  2  0  0  0  0
 16 10  1  0  0  0  0
 17  1  1  0  0  0  0
 19 20  2  0  0  0  0
 19  7  1  0  0  0  0
 20  8  1  0  0  0  0
 21 15  1  0  0  0  0
 21 12  1  0  0  0  0
 22 12  1  6  0  0  0
 22  3  1  0  0  0  0
 22 23  1  0  0  0  0
 23 13  1  0  0  0  0
 24 27  1  1  0  0  0
 24 31  1  0  0  0  0
 24 28  1  0  0  0  0
 25 30  1  0  0  0  0
 28 25  1  0  0  0  0
 29 26  1  1  0  0  0
 29 30  1  0  0  0  0
 30  5  1  1  0  0  0
 31 29  1  0  0  0  0
M  END
>  <MODEL>
7

>  <REMARK>
 VINA RESULT:      -9.1      3.160      5.576
  Name = 
  1 active torsions:
  status: ('A' for Active; 'I' for Inactive)
    1  A    between atoms: C_9  and  C_22
                            x       y       z     vdW  Elec       q    Type
                         _______ _______ _______ _____ _____    ______ ____

>  <TORSDO>
F 1

$$$$
=
 OpenBabel10262419373D

 31 35  0  0  1  0  0  0  0  0999 V2000
  190.4840  177.3410  142.6930 C   0  0  0  0  0  0  0  0  0  0  0  0
  187.2100  178.1090  144.2880 C   0  0  0  0  0  0  0  0  0  0  0  0
  187.5270  178.0410  145.7680 C   0  0  2  0  0  3  0  0  0  0  0  0
  184.6350  178.5430  139.7280 O   0  0  0  0  0  0  0  0  0  0  0  0
  183.8360  178.7710  140.6770 C   0  0  0  0  0  0  0  0  0  0  0  0
  188.3650  176.6030  147.6430 C   0  0  0  0  0  2  0  0  0  0  0  0
  188.2080  177.8590  143.3250 C   0  0  0  0  0  0  0  0  0  0  0  0
  190.1240  177.3710  141.3820 N   0  0  0  0  0  0  0  0  0  0  0  0
  187.7610  176.6050  146.2380 C   0  0  0  0  0  2  0  0  0  0  0  0
  185.6060  178.4120  142.4810 C   0  0  0  0  0  0  0  0  0  0  0  0
  191.8910  177.0490  143.0690 C   0  0  0  0  0  1  0  0  0  0  0  0
  185.1830  178.2820  146.2480 C   0  0  0  0  0  2  0  0  0  0  0  0
  188.0230  177.8560  148.4580 C   0  0  1  0  0  3  0  0  0  0  0  0
  186.5910  178.1550  141.5780 N   0  0  0  0  0  0  0  0  0  0  0  0
  185.8950  178.3900  143.8560 C   0  0  0  0  0  0  0  0  0  0  0  0
  184.2740  178.7120  142.0390 N   0  0  0  0  0  2  0  0  0  0  0  0
  189.5340  177.5850  143.6870 C   0  0  0  0  0  3  0  0  0  0  0  0
  189.1290  178.8900  148.3420 C   0  0  0  0  0  1  0  0  0  0  0  0
  187.8650  177.8850  141.9590 C   0  0  0  0  0  0  0  0  0  0  0  0
  188.8460  177.6350  140.9990 C   0  0  0  0  0  3  0  0  0  0  0  0
  184.8310  178.7670  144.8490 C   0  0  0  0  0  2  0  0  0  0  0  0
  186.5230  178.7370  146.6090 N   0  0  1  0  0  0  0  0  0  0  0  0
  186.6680  178.4570  148.0510 C   0  0  0  0  0  2  0  0  0  0  0  0
  181.3410  177.6560  138.0530 C   0  0  1  0  0  3  0  0  0  0  0  0
  181.4840  177.8900  140.5470 C   0  0  0  0  0  2  0  0  0  0  0  0
  183.0650  180.8650  138.8690 O   0  0  0  0  0  1  0  0  0  0  0  0
  181.4910  176.6880  136.8990 C   0  0  0  0  0  1  0  0  0  0  0  0
  181.6210  176.9300  139.3650 C   0  0  0  0  0  2  0  0  0  0  0  0
  182.1810  179.7970  139.0350 C   0  0  2  0  0  3  0  0  0  0  0  0
  182.4000  179.1080  140.3940 C   0  0  2  0  0  3  0  0  0  0  0  0
  182.3160  178.8160  137.8730 C   0  0  0  0  0  2  0  0  0  0  0  0
  1 11  1  0  0  0  0
  1 17  1  0  0  0  0
  2  3  1  0  0  0  0
  3  9  1  1  0  0  0
  3 22  1  0  0  0  0
  4  5  2  0  0  0  0
  5 16  1  0  0  0  0
  6 13  1  0  0  0  0
  7 17  2  0  0  0  0
  7  2  1  0  0  0  0
  8  1  2  0  0  0  0
  9  6  1  0  0  0  0
 10 15  1  0  0  0  0
 13 18  1  6  0  0  0
 14 19  1  0  0  0  0
 14 10  2  0  0  0  0
 15  2  2  0  0  0  0
 15 21  1  0  0  0  0
 16 10  1  0  0  0  0
 19  7  1  0  0  0  0
 20  8  1  0  0  0  0
 20 19  2  0  0  0  0
 21 12  1  0  0  0  0
 22 12  1  6  0  0  0
 22 23  1  0  0  0  0
 23 13  1  0  0  0  0
 24 27  1  6  0  0  0
 24 28  1  0  0  0  0
 28 25  1  0  0  0  0
 29 26  1  6  0  0  0
 29 30  1  0  0  0  0
 30 25  1  0  0  0  0
 30  5  1  6  0  0  0
 31 24  1  0  0  0  0
 31 29  1  0  0  0  0
M  END
>  <MODEL>
8

>  <REMARK>
 VINA RESULT:      -8.8      1.339      4.143
  Name = 
  1 active torsions:
  status: ('A' for Active; 'I' for Inactive)
    1  A    between atoms: C_9  and  C_22
                            x       y       z     vdW  Elec       q    Type
                         _______ _______ _______ _____ _____    ______ ____

>  <TORSDO>
F 1

$$$$
=
 OpenBabel10262419373D

 31 35  0  0  1  0  0  0  0  0999 V2000
  190.6010  177.2640  138.5640 C   0  0  0  0  0  0  0  0  0  0  0  0
  188.2580  177.8670  141.3920 C   0  0  0  0  0  0  0  0  0  0  0  0
  189.1110  177.5780  142.6100 C   0  0  2  0  0  3  0  0  0  0  0  0
  184.1750  179.0190  138.2910 O   0  0  0  0  0  0  0  0  0  0  0  0
  183.8210  179.1250  139.4960 C   0  0  0  0  0  0  0  0  0  0  0  0
  190.4890  175.8630  143.8140 C   0  0  0  0  0  2  0  0  0  0  0  0
  188.7880  177.7360  140.0940 C   0  0  0  0  0  0  0  0  0  0  0  0
  189.7700  177.4920  137.5120 N   0  0  0  0  0  0  0  0  0  0  0  0
  189.3940  176.0830  142.7690 C   0  0  0  0  0  2  0  0  0  0  0  0
  186.1130  178.4660  140.4070 C   0  0  0  0  0  0  0  0  0  0  0  0
  192.0180  176.8870  138.3220 C   0  0  0  0  0  1  0  0  0  0  0  0
  187.1550  177.8010  143.9920 C   0  0  0  0  0  2  0  0  0  0  0  0
  190.5830  176.9920  144.8480 C   0  0  1  0  0  3  0  0  0  0  0  0
  186.6550  178.3210  139.1670 N   0  0  0  0  0  0  0  0  0  0  0  0
  186.9040  178.2380  141.5460 C   0  0  0  0  0  0  0  0  0  0  0  0
  184.7410  178.8590  140.5610 N   0  0  0  0  0  2  0  0  0  0  0  0
  190.1260  177.3820  139.8720 C   0  0  0  0  0  3  0  0  0  0  0  0
  191.6370  178.0070  144.4400 C   0  0  0  0  0  1  0  0  0  0  0  0
  187.9520  177.9690  138.9840 C   0  0  0  0  0  0  0  0  0  0  0  0
  188.4670  177.8390  137.6940 C   0  0  0  0  0  3  0  0  0  0  0  0
  186.3340  178.4920  142.9140 C   0  0  0  0  0  2  0  0  0  0  0  0
  188.5630  178.1670  143.8560 N   0  0  1  0  0  0  0  0  0  0  0  0
  189.2270  177.6770  145.0800 C   0  0  0  0  0  2  0  0  0  0  0  0
  180.4810  178.7960  137.7380 C   0  0  1  0  0  3  0  0  0  0  0  0
  181.4880  178.3230  139.9870 C   0  0  0  0  0  2  0  0  0  0  0  0
  182.6990  181.6430  138.6920 O   0  0  0  0  0  1  0  0  0  0  0  0
  180.1290  178.1880  136.3970 C   0  0  0  0  0  1  0  0  0  0  0  0
  181.1150  177.7310  138.6280 C   0  0  0  0  0  2  0  0  0  0  0  0
  181.8200  180.5740  138.8770 C   0  0  2  0  0  3  0  0  0  0  0  0
  182.4170  179.5330  139.8400 C   0  0  2  0  0  3  0  0  0  0  0  0
  181.4500  179.9560  137.5310 C   0  0  0  0  0  2  0  0  0  0  0  0
  1 17  1  0  0  0  0
  2 15  2  0  0  0  0
  2  3  1  0  0  0  0
  3  9  1  1  0  0  0
  3 22  1  0  0  0  0
  4  5  2  0  0  0  0
  5 16  1  0  0  0  0
  6 13  1  0  0  0  0
  7  2  1  0  0  0  0
  8 20  1  0  0  0  0
  8  1  2  0  0  0  0
  9  6  1  0  0  0  0
 10 16  1  0  0  0  0
 10 15  1  0  0  0  0
 11  1  1  0  0  0  0
 13 18  1  6  0  0  0
 13 23  1  0  0  0  0
 14 10  2  0  0  0  0
 15 21  1  0  0  0  0
 17  7  2  0  0  0  0
 19 14  1  0  0  0  0
 19  7  1  0  0  0  0
 20 19  2  0  0  0  0
 21 12  1  0  0  0  0
 22 12  1  1  0  0  0
 22 23  1  0  0  0  0
 24 27  1  6  0  0  0
 24 28  1  0  0  0  0
 28 25  1  0  0  0  0
 29 26  1  6  0  0  0
 29 30  1  0  0  0  0
 30  5  1  6  0  0  0
 30 25  1  0  0  0  0
 31 24  1  0  0  0  0
 31 29  1  0  0  0  0
M  END
>  <MODEL>
9

>  <REMARK>
 VINA RESULT:      -8.3      2.164      4.769
  Name = 
  1 active torsions:
  status: ('A' for Active; 'I' for Inactive)
    1  A    between atoms: C_9  and  C_22
                            x       y       z     vdW  Elec       q    Type
                         _______ _______ _______ _____ _____    ______ ____

>  <TORSDO>
F 1

$$$$
