=
 OpenBabel10262419173D

 34 38  0  0  1  0  0  0  0  0999 V2000
  189.2690  177.3870  138.3270 C   0  0  0  0  0  0  0  0  0  0  0  0
  191.4380  176.8390  139.2990 C   0  0  0  0  0  0  0  0  0  0  0  0
  189.5650  177.7540  140.7030 C   0  0  0  0  0  0  0  0  0  0  0  0
  189.8800  178.5390  142.9770 C   0  0  2  0  0  3  0  0  0  0  0  0
  189.7070  176.9090  137.0900 C   0  0  0  0  0  3  0  0  0  0  0  0
  191.8520  176.3710  138.0480 C   0  0  0  0  0  3  0  0  0  0  0  0
  190.3070  176.1240  142.3840 C   0  0  0  0  0  2  0  0  0  0  0  0
  190.1060  177.3140  139.4690 C   0  0  0  0  0  0  0  0  0  0  0  0
  191.1980  175.9830  143.6090 C   0  0  0  0  0  2  0  0  0  0  0  0
  190.6660  178.3470  144.2750 C   0  0  0  0  0  2  0  0  0  0  0  0
  190.9900  176.3870  136.9540 C   0  0  0  0  0  3  0  0  0  0  0  0
  188.2850  178.3440  140.7200 C   0  0  0  0  0  0  0  0  0  0  0  0
  188.0380  177.9470  138.4190 N   0  0  0  0  0  0  0  0  0  0  0  0
  192.6930  176.9370  140.5270 Cl  0  0  0  0  0  0  0  0  0  0  0  0
  188.4410  178.5240  143.2160 N   0  0  0  0  0  2  0  0  0  0  0  0
  187.7460  178.9730  141.9980 C   0  0  2  0  0  3  0  0  0  0  0  0
  190.6700  176.8840  144.7200 C   0  0  2  0  0  3  0  0  0  0  0  0
  190.2010  177.5260  141.9660 N   0  0  0  0  0  0  0  0  0  0  0  0
  187.5720  178.4310  139.5680 N   0  0  0  0  0  0  0  0  0  0  0  0
  184.3160  178.3940  143.5390 C   0  0  0  0  0  0  0  0  0  0  0  0
  183.5140  178.3320  142.3950 C   0  0  0  0  0  3  0  0  0  0  0  0
  186.2720  178.7540  142.1500 C   0  0  0  0  0  0  0  0  0  0  0  0
  184.0900  178.4810  141.1300 C   0  0  0  0  0  3  0  0  0  0  0  0
  185.6920  178.6040  143.4180 C   0  0  0  0  0  3  0  0  0  0  0  0
  185.4670  178.6920  141.0080 C   0  0  0  0  0  3  0  0  0  0  0  0
  183.7590  178.2490  144.7660 F   0  0  0  0  0  0  0  0  0  0  0  0
  191.4090  176.6960  145.9700 N   0  0  0  0  0  2  0  0  0  0  0  0
  190.6940  177.3020  147.0940 C   0  0  0  0  0  2  0  0  0  0  0  0
  189.1910  175.5620  147.7590 F   0  0  0  0  0  0  0  0  0  0  0  0
  189.2510  176.8050  147.1530 C   0  0  1  0  0  3  0  0  0  0  0  0
  187.1160  178.0990  146.9340 C   0  0  0  0  0  1  0  0  0  0  0  0
  188.2960  177.7880  147.8370 C   0  0  0  0  0  0  0  0  0  0  0  0
  188.9530  178.9630  148.1550 F   0  0  0  0  0  0  0  0  0  0  0  0
  187.8180  177.2160  149.0010 F   0  0  0  0  0  0  0  0  0  0  0  0
  1 13  2  0  0  0  0
  1  8  1  0  0  0  0
  2  8  1  0  0  0  0
  2 14  1  0  0  0  0
  3 12  1  0  0  0  0
  3 18  1  0  0  0  0
  4 15  1  0  0  0  0
  4 10  1  1  0  0  0
  5  1  1  0  0  0  0
  6  2  2  0  0  0  0
  7  9  1  0  0  0  0
  8  3  2  0  0  0  0
  9 17  1  0  0  0  0
 10 17  1  0  0  0  0
 11  5  2  0  0  0  0
 11  6  1  0  0  0  0
 12 16  1  0  0  0  0
 13 19  1  0  0  0  0
 16 22  1  1  0  0  0
 16 15  1  0  0  0  0
 17 27  1  1  0  0  0
 18  7  1  0  0  0  0
 18  4  1  0  0  0  0
 19 12  2  0  0  0  0
 20 26  1  0  0  0  0
 21 20  2  0  0  0  0
 22 24  2  0  0  0  0
 23 21  1  0  0  0  0
 24 20  1  0  0  0  0
 25 23  2  0  0  0  0
 25 22  1  0  0  0  0
 27 28  1  0  0  0  0
 28 30  1  0  0  0  0
 30 29  1  1  0  0  0
 30 32  1  0  0  0  0
 31 32  1  0  0  0  0
 32 33  1  0  0  0  0
 32 34  1  0  0  0  0
M  END
>  <MODEL>
1

>  <REMARK>
 VINA RESULT:      -9.4      0.000      0.000
  Name = 
  5 active torsions:
  status: ('A' for Active; 'I' for Inactive)
    1  A    between atoms: N_3  and  C_13
    2  A    between atoms: N_3  and  C_29
    3  A    between atoms: C_12  and  C_28
    4  A    between atoms: C_13  and  C_33
    5  A    between atoms: C_20  and  C_33
                            x       y       z     vdW  Elec       q    Type
                         _______ _______ _______ _____ _____    ______ ____

>  <TORSDO>
F 5

$$$$
=
 OpenBabel10262419173D

 34 38  0  0  1  0  0  0  0  0999 V2000
  188.0290  177.9290  147.4430 C   0  0  0  0  0  0  0  0  0  0  0  0
  190.3660  177.4540  146.9360 C   0  0  0  0  0  0  0  0  0  0  0  0
  188.5940  177.3750  145.1540 C   0  0  0  0  0  0  0  0  0  0  0  0
  188.9790  176.4400  142.9490 C   0  0  2  0  0  3  0  0  0  0  0  0
  188.3790  178.2220  148.7630 C   0  0  0  0  0  3  0  0  0  0  0  0
  190.6890  177.7490  148.2640 C   0  0  0  0  0  3  0  0  0  0  0  0
  190.2740  178.4600  143.7280 C   0  0  0  0  0  2  0  0  0  0  0  0
  189.0210  177.5890  146.4890 C   0  0  0  0  0  0  0  0  0  0  0  0
  191.3590  178.1560  142.7060 C   0  0  0  0  0  2  0  0  0  0  0  0
  190.0080  176.2240  141.8370 C   0  0  0  0  0  2  0  0  0  0  0  0
  189.7080  178.1470  149.1690 C   0  0  0  0  0  3  0  0  0  0  0  0
  187.2160  177.3910  144.8620 C   0  0  0  0  0  0  0  0  0  0  0  0
  186.7190  177.9480  147.0890 N   0  0  0  0  0  0  0  0  0  0  0  0
  191.6710  176.7770  145.9680 Cl  0  0  0  0  0  0  0  0  0  0  0  0
  187.7620  177.0620  142.4370 N   0  0  0  0  0  2  0  0  0  0  0  0
  186.7190  177.0040  143.4750 C   0  0  2  0  0  3  0  0  0  0  0  0
  190.7240  177.5250  141.4720 C   0  0  2  0  0  3  0  0  0  0  0  0
  189.4990  177.2570  144.0500 N   0  0  0  0  0  0  0  0  0  0  0  0
  186.3250  177.6640  145.8500 N   0  0  0  0  0  0  0  0  0  0  0  0
  183.4480  178.9450  143.5600 C   0  0  0  0  0  0  0  0  0  0  0  0
  183.3450  179.3560  142.2270 C   0  0  0  0  0  3  0  0  0  0  0  0
  185.5420  177.8270  143.0540 C   0  0  0  0  0  0  0  0  0  0  0  0
  184.3380  179.0030  141.3090 C   0  0  0  0  0  3  0  0  0  0  0  0
  184.5430  178.1810  143.9730 C   0  0  0  0  0  3  0  0  0  0  0  0
  185.4340  178.2410  141.7220 C   0  0  0  0  0  3  0  0  0  0  0  0
  182.4850  179.2840  144.4500 F   0  0  0  0  0  0  0  0  0  0  0  0
  191.7000  177.3270  140.3980 N   0  0  0  0  0  2  0  0  0  0  0  0
  191.1230  176.5390  139.3090 C   0  0  0  0  0  2  0  0  0  0  0  0
  190.9620  176.7860  136.9340 F   0  0  0  0  0  0  0  0  0  0  0  0
  190.7330  177.4350  138.1350 C   0  0  1  0  0  3  0  0  0  0  0  0
  188.7770  178.2950  136.8240 C   0  0  0  0  0  1  0  0  0  0  0  0
  189.2900  177.9430  138.2090 C   0  0  0  0  0  0  0  0  0  0  0  0
  189.2070  179.0570  139.0260 F   0  0  0  0  0  0  0  0  0  0  0  0
  188.4880  176.9470  138.7330 F   0  0  0  0  0  0  0  0  0  0  0  0
  1  5  2  0  0  0  0
  2  6  1  0  0  0  0
  3  8  1  0  0  0  0
  4 10  1  6  0  0  0
  4 18  1  0  0  0  0
  5 11  1  0  0  0  0
  6 11  2  0  0  0  0
  7 18  1  0  0  0  0
  8  2  2  0  0  0  0
  8  1  1  0  0  0  0
  9  7  1  0  0  0  0
 12  3  2  0  0  0  0
 12 19  1  0  0  0  0
 13  1  1  0  0  0  0
 14  2  1  0  0  0  0
 15  4  1  0  0  0  0
 15 16  1  0  0  0  0
 16 22  1  6  0  0  0
 16 12  1  0  0  0  0
 17 27  1  6  0  0  0
 17 10  1  0  0  0  0
 17  9  1  0  0  0  0
 18  3  1  0  0  0  0
 19 13  2  0  0  0  0
 20 24  1  0  0  0  0
 20 26  1  0  0  0  0
 21 20  2  0  0  0  0
 22 24  2  0  0  0  0
 23 25  2  0  0  0  0
 23 21  1  0  0  0  0
 25 22  1  0  0  0  0
 28 27  1  0  0  0  0
 30 29  1  6  0  0  0
 30 32  1  0  0  0  0
 30 28  1  0  0  0  0
 31 32  1  0  0  0  0
 32 34  1  0  0  0  0
 32 33  1  0  0  0  0
M  END
>  <MODEL>
2

>  <REMARK>
 VINA RESULT:      -8.8      3.221      6.725
  Name = 
  5 active torsions:
  status: ('A' for Active; 'I' for Inactive)
    1  A    between atoms: N_3  and  C_13
    2  A    between atoms: N_3  and  C_29
    3  A    between atoms: C_12  and  C_28
    4  A    between atoms: C_13  and  C_33
    5  A    between atoms: C_20  and  C_33
                            x       y       z     vdW  Elec       q    Type
                         _______ _______ _______ _____ _____    ______ ____

>  <TORSDO>
F 5

$$$$
=
 OpenBabel10262419173D

 34 38  0  0  1  0  0  0  0  0999 V2000
  181.2930  178.7190  143.5310 C   0  0  0  0  0  0  0  0  0  0  0  0
  180.5440  178.7730  141.2110 C   0  0  0  0  0  0  0  0  0  0  0  0
  182.9870  178.7170  141.7990 C   0  0  0  0  0  0  0  0  0  0  0  0
  184.7460  179.1250  140.1790 C   0  0  2  0  0  3  0  0  0  0  0  0
  179.9640  178.6580  143.9550 C   0  0  0  0  0  3  0  0  0  0  0  0
  179.2220  178.7150  141.6620 C   0  0  0  0  0  3  0  0  0  0  0  0
  183.1920  177.1550  139.9140 C   0  0  0  0  0  2  0  0  0  0  0  0
  181.6130  178.7250  142.1490 C   0  0  0  0  0  0  0  0  0  0  0  0
  183.5160  177.1010  138.4290 C   0  0  0  0  0  2  0  0  0  0  0  0
  185.1660  178.9750  138.7160 C   0  0  0  0  0  2  0  0  0  0  0  0
  178.9310  178.6400  143.0230 C   0  0  0  0  0  3  0  0  0  0  0  0
  183.9560  178.8210  142.8160 C   0  0  0  0  0  0  0  0  0  0  0  0
  182.2780  178.7990  144.4600 N   0  0  0  0  0  0  0  0  0  0  0  0
  180.7460  179.0630  139.4870 Cl  0  0  0  0  0  0  0  0  0  0  0  0
  185.7500  178.5760  141.0830 N   0  0  0  0  0  2  0  0  0  0  0  0
  185.4290  178.9790  142.4620 C   0  0  2  0  0  3  0  0  0  0  0  0
  184.9590  177.5450  138.2140 C   0  0  2  0  0  3  0  0  0  0  0  0
  183.4560  178.4890  140.4650 N   0  0  0  0  0  0  0  0  0  0  0  0
  183.5620  178.8730  144.1140 N   0  0  0  0  0  0  0  0  0  0  0  0
  188.1680  176.7450  143.8690 C   0  0  0  0  0  0  0  0  0  0  0  0
  187.9460  176.8810  145.2430 C   0  0  0  0  0  3  0  0  0  0  0  0
  186.3160  178.2480  143.4210 C   0  0  0  0  0  0  0  0  0  0  0  0
  186.9110  177.6980  145.7060 C   0  0  0  0  0  3  0  0  0  0  0  0
  187.3550  177.4260  142.9590 C   0  0  0  0  0  3  0  0  0  0  0  0
  186.0980  178.3800  144.7960 C   0  0  0  0  0  3  0  0  0  0  0  0
  189.1710  175.9530  143.4190 F   0  0  0  0  0  0  0  0  0  0  0  0
  185.3730  177.3910  136.8180 N   0  0  0  0  0  2  0  0  0  0  0  0
  186.6950  176.7690  136.7320 C   0  0  0  0  0  2  0  0  0  0  0  0
  187.1570  179.0050  136.0130 F   0  0  0  0  0  0  0  0  0  0  0  0
  187.7500  177.7890  136.3060 C   0  0  1  0  0  3  0  0  0  0  0  0
  188.5680  177.1870  138.5970 C   0  0  0  0  0  1  0  0  0  0  0  0
  188.8740  177.9670  137.3310 C   0  0  0  0  0  0  0  0  0  0  0  0
  189.0380  179.3050  137.6450 F   0  0  0  0  0  0  0  0  0  0  0  0
  190.0540  177.4880  136.7950 F   0  0  0  0  0  0  0  0  0  0  0  0
  1  5  1  0  0  0  0
  1 13  1  0  0  0  0
  2  6  2  0  0  0  0
  2  8  1  0  0  0  0
  3  8  1  0  0  0  0
  3 12  2  0  0  0  0
  4 10  1  6  0  0  0
  4 18  1  0  0  0  0
  4 15  1  0  0  0  0
  6 11  1  0  0  0  0
  7 18  1  0  0  0  0
  8  1  2  0  0  0  0
  9  7  1  0  0  0  0
 11  5  2  0  0  0  0
 12 19  1  0  0  0  0
 14  2  1  0  0  0  0
 15 16  1  0  0  0  0
 16 12  1  0  0  0  0
 16 22  1  1  0  0  0
 17 27  1  6  0  0  0
 17  9  1  0  0  0  0
 17 10  1  0  0  0  0
 18  3  1  0  0  0  0
 19 13  2  0  0  0  0
 20 21  1  0  0  0  0
 21 23  2  0  0  0  0
 22 25  2  0  0  0  0
 24 22  1  0  0  0  0
 24 20  2  0  0  0  0
 25 23  1  0  0  0  0
 26 20  1  0  0  0  0
 28 27  1  0  0  0  0
 30 29  1  1  0  0  0
 30 28  1  0  0  0  0
 30 32  1  0  0  0  0
 32 33  1  0  0  0  0
 32 31  1  0  0  0  0
 34 32  1  0  0  0  0
M  END
>  <MODEL>
3

>  <REMARK>
 VINA RESULT:      -8.6      4.478      8.776
  Name = 
  5 active torsions:
  status: ('A' for Active; 'I' for Inactive)
    1  A    between atoms: N_3  and  C_13
    2  A    between atoms: N_3  and  C_29
    3  A    between atoms: C_12  and  C_28
    4  A    between atoms: C_13  and  C_33
    5  A    between atoms: C_20  and  C_33
                            x       y       z     vdW  Elec       q    Type
                         _______ _______ _______ _____ _____    ______ ____

>  <TORSDO>
F 5

$$$$
=
 OpenBabel10262419173D

 34 38  0  0  1  0  0  0  0  0999 V2000
  188.4290  177.6510  138.9330 C   0  0  0  0  0  0  0  0  0  0  0  0
  189.4510  177.8540  141.1380 C   0  0  0  0  0  0  0  0  0  0  0  0
  187.0190  178.3720  140.7660 C   0  0  0  0  0  0  0  0  0  0  0  0
  185.6370  179.4840  142.4210 C   0  0  2  0  0  3  0  0  0  0  0  0
  189.6360  177.1680  138.4230 C   0  0  0  0  0  3  0  0  0  0  0  0
  190.6480  177.3720  140.6000 C   0  0  0  0  0  3  0  0  0  0  0  0
  186.6620  177.2320  142.9120 C   0  0  0  0  0  2  0  0  0  0  0  0
  188.2960  177.9550  140.3120 C   0  0  0  0  0  0  0  0  0  0  0  0
  186.5220  177.4950  144.4030 C   0  0  0  0  0  2  0  0  0  0  0  0
  185.3780  179.6780  143.9160 C   0  0  0  0  0  2  0  0  0  0  0  0
  190.7390  177.0140  139.2570 C   0  0  0  0  0  3  0  0  0  0  0  0
  185.9890  178.5780  139.8270 C   0  0  0  0  0  0  0  0  0  0  0  0
  187.3890  177.8520  138.0860 N   0  0  0  0  0  0  0  0  0  0  0  0
  189.5440  178.4480  142.7910 Cl  0  0  0  0  0  0  0  0  0  0  0  0
  184.4210  179.0950  141.7140 N   0  0  0  0  0  2  0  0  0  0  0  0
  184.6600  179.1810  140.2630 C   0  0  2  0  0  3  0  0  0  0  0  0
  185.2770  178.3400  144.6490 C   0  0  2  0  0  3  0  0  0  0  0  0
  186.6780  178.4860  142.1530 N   0  0  0  0  0  0  0  0  0  0  0  0
  186.2190  178.3220  138.5140 N   0  0  0  0  0  0  0  0  0  0  0  0
  181.7740  178.7100  137.8300 C   0  0  0  0  0  0  0  0  0  0  0  0
  181.3360  177.4290  138.1770 C   0  0  0  0  0  3  0  0  0  0  0  0
  183.5050  178.5790  139.5260 C   0  0  0  0  0  0  0  0  0  0  0  0
  181.9810  176.7230  139.1960 C   0  0  0  0  0  3  0  0  0  0  0  0
  182.8550  179.2860  138.5030 C   0  0  0  0  0  3  0  0  0  0  0  0
  183.0630  177.2970  139.8690 C   0  0  0  0  0  3  0  0  0  0  0  0
  181.1490  179.3960  136.8430 F   0  0  0  0  0  0  0  0  0  0  0  0
  185.0140  178.5200  146.0780 N   0  0  0  0  0  2  0  0  0  0  0  0
  185.9290  177.7080  146.8820 C   0  0  0  0  0  2  0  0  0  0  0  0
  186.9160  179.3770  148.2870 F   0  0  0  0  0  0  0  0  0  0  0  0
  187.1830  178.5010  147.2480 C   0  0  1  0  0  3  0  0  0  0  0  0
  189.3010  178.3140  148.5730 C   0  0  0  0  0  1  0  0  0  0  0  0
  188.3870  177.6160  147.5820 C   0  0  0  0  0  0  0  0  0  0  0  0
  189.1010  177.3130  146.4360 F   0  0  0  0  0  0  0  0  0  0  0  0
  187.9390  176.4410  148.1510 F   0  0  0  0  0  0  0  0  0  0  0  0
  1  8  1  0  0  0  0
  2 14  1  0  0  0  0
  3 18  1  0  0  0  0
  4 10  1  1  0  0  0
  5  1  2  0  0  0  0
  5 11  1  0  0  0  0
  6  2  1  0  0  0  0
  7  9  1  0  0  0  0
  8  3  1  0  0  0  0
  8  2  2  0  0  0  0
  9 17  1  0  0  0  0
 10 17  1  0  0  0  0
 11  6  2  0  0  0  0
 12 16  1  0  0  0  0
 12  3  2  0  0  0  0
 13 19  2  0  0  0  0
 13  1  1  0  0  0  0
 15  4  1  0  0  0  0
 16 22  1  6  0  0  0
 16 15  1  0  0  0  0
 17 27  1  1  0  0  0
 18  4  1  0  0  0  0
 18  7  1  0  0  0  0
 19 12  1  0  0  0  0
 20 21  2  0  0  0  0
 20 24  1  0  0  0  0
 21 23  1  0  0  0  0
 22 25  1  0  0  0  0
 23 25  2  0  0  0  0
 24 22  2  0  0  0  0
 26 20  1  0  0  0  0
 27 28  1  0  0  0  0
 28 30  1  0  0  0  0
 30 32  1  0  0  0  0
 30 29  1  1  0  0  0
 32 34  1  0  0  0  0
 32 31  1  0  0  0  0
 33 32  1  0  0  0  0
M  END
>  <MODEL>
4

>  <REMARK>
 VINA RESULT:      -8.4      2.572      3.981
  Name = 
  5 active torsions:
  status: ('A' for Active; 'I' for Inactive)
    1  A    between atoms: N_3  and  C_13
    2  A    between atoms: N_3  and  C_29
    3  A    between atoms: C_12  and  C_28
    4  A    between atoms: C_13  and  C_33
    5  A    between atoms: C_20  and  C_33
                            x       y       z     vdW  Elec       q    Type
                         _______ _______ _______ _____ _____    ______ ____

>  <TORSDO>
F 5

$$$$
=
 OpenBabel10262419173D

 34 38  0  0  1  0  0  0  0  0999 V2000
  191.0180  176.8110  144.4540 C   0  0  0  0  0  0  0  0  0  0  0  0
  189.1410  177.5580  145.8200 C   0  0  0  0  0  0  0  0  0  0  0  0
  189.0800  177.7060  143.3110 C   0  0  0  0  0  0  0  0  0  0  0  0
  187.3830  178.9500  142.1030 C   0  0  2  0  0  3  0  0  0  0  0  0
  191.6810  176.3820  145.6060 C   0  0  0  0  0  3  0  0  0  0  0  0
  189.8280  177.1240  146.9580 C   0  0  0  0  0  3  0  0  0  0  0  0
  186.7450  176.9720  143.5330 C   0  0  0  0  0  2  0  0  0  0  0  0
  189.7130  177.3600  144.5310 C   0  0  0  0  0  0  0  0  0  0  0  0
  185.3240  177.5030  143.6300 C   0  0  0  0  0  2  0  0  0  0  0  0
  185.9210  179.4010  142.0950 C   0  0  0  0  0  2  0  0  0  0  0  0
  191.0810  176.5240  146.8540 C   0  0  0  0  0  3  0  0  0  0  0  0
  189.8040  177.6030  142.1070 C   0  0  0  0  0  0  0  0  0  0  0  0
  191.6510  176.7200  143.2580 N   0  0  0  0  0  0  0  0  0  0  0  0
  187.6670  178.4700  146.1230 Cl  0  0  0  0  0  0  0  0  0  0  0  0
  187.7450  178.2920  140.8520 N   0  0  0  0  0  2  0  0  0  0  0  0
  189.2070  178.1200  140.8040 C   0  0  2  0  0  3  0  0  0  0  0  0
  184.9690  178.2290  142.3370 C   0  0  2  0  0  3  0  0  0  0  0  0
  187.6910  178.0480  143.2170 N   0  0  0  0  0  0  0  0  0  0  0  0
  191.0740  177.1240  142.1280 N   0  0  0  0  0  0  0  0  0  0  0  0
  191.2240  176.0210  138.3540 C   0  0  0  0  0  0  0  0  0  0  0  0
  190.2330  175.6500  137.4400 C   0  0  0  0  0  3  0  0  0  0  0  0
  189.5760  177.2550  139.6390 C   0  0  0  0  0  0  0  0  0  0  0  0
  188.9160  176.0800  137.6240 C   0  0  0  0  0  3  0  0  0  0  0  0
  190.8970  176.8230  139.4520 C   0  0  0  0  0  3  0  0  0  0  0  0
  188.5880  176.8810  138.7220 C   0  0  0  0  0  3  0  0  0  0  0  0
  192.5000  175.6060  138.1760 F   0  0  0  0  0  0  0  0  0  0  0  0
  183.5670  178.6520  142.3170 N   0  0  0  0  0  2  0  0  0  0  0  0
  183.0490  178.6730  140.9490 C   0  0  0  0  0  2  0  0  0  0  0  0
  183.0540  176.5300  139.8820 F   0  0  0  0  0  0  0  0  0  0  0  0
  183.8030  177.6800  140.0650 C   0  0  1  0  0  3  0  0  0  0  0  0
  183.2470  177.8760  137.6300 C   0  0  0  0  0  1  0  0  0  0  0  0
  184.2310  178.2680  138.7170 C   0  0  0  0  0  0  0  0  0  0  0  0
  185.4960  177.8250  138.3730 F   0  0  0  0  0  0  0  0  0  0  0  0
  184.2520  179.6460  138.8120 F   0  0  0  0  0  0  0  0  0  0  0  0
  1  8  1  0  0  0  0
  1  5  2  0  0  0  0
  2 14  1  0  0  0  0
  2  6  1  0  0  0  0
  3  8  1  0  0  0  0
  4 10  1  6  0  0  0
  4 18  1  0  0  0  0
  5 11  1  0  0  0  0
  7  9  1  0  0  0  0
  8  2  2  0  0  0  0
 10 17  1  0  0  0  0
 11  6  2  0  0  0  0
 12 19  1  0  0  0  0
 12  3  2  0  0  0  0
 13  1  1  0  0  0  0
 15  4  1  0  0  0  0
 16 22  1  6  0  0  0
 16 15  1  0  0  0  0
 16 12  1  0  0  0  0
 17 27  1  1  0  0  0
 17  9  1  0  0  0  0
 18  3  1  0  0  0  0
 18  7  1  0  0  0  0
 19 13  2  0  0  0  0
 20 24  1  0  0  0  0
 21 23  1  0  0  0  0
 21 20  2  0  0  0  0
 23 25  2  0  0  0  0
 24 22  2  0  0  0  0
 25 22  1  0  0  0  0
 26 20  1  0  0  0  0
 28 27  1  0  0  0  0
 30 29  1  6  0  0  0
 30 28  1  0  0  0  0
 31 32  1  0  0  0  0
 32 34  1  0  0  0  0
 32 30  1  0  0  0  0
 33 32  1  0  0  0  0
M  END
>  <MODEL>
5

>  <REMARK>
 VINA RESULT:      -8.4      3.648      7.374
  Name = 
  5 active torsions:
  status: ('A' for Active; 'I' for Inactive)
    1  A    between atoms: N_3  and  C_13
    2  A    between atoms: N_3  and  C_29
    3  A    between atoms: C_12  and  C_28
    4  A    between atoms: C_13  and  C_33
    5  A    between atoms: C_20  and  C_33
                            x       y       z     vdW  Elec       q    Type
                         _______ _______ _______ _____ _____    ______ ____

>  <TORSDO>
F 5

$$$$
=
 OpenBabel10262419173D

 34 38  0  0  1  0  0  0  0  0999 V2000
  187.9810  178.0130  147.4220 C   0  0  0  0  0  0  0  0  0  0  0  0
  190.3380  177.5290  147.0260 C   0  0  0  0  0  0  0  0  0  0  0  0
  188.6480  177.4320  145.1670 C   0  0  0  0  0  0  0  0  0  0  0  0
  189.1320  176.4710  142.9920 C   0  0  2  0  0  3  0  0  0  0  0  0
  188.2710  178.3210  148.7520 C   0  0  0  0  0  3  0  0  0  0  0  0
  190.6000  177.8390  148.3640 C   0  0  0  0  0  3  0  0  0  0  0  0
  190.3940  178.4980  143.8060 C   0  0  0  0  0  2  0  0  0  0  0  0
  189.0140  177.6610  146.5170 C   0  0  0  0  0  0  0  0  0  0  0  0
  191.5230  178.1810  142.8380 C   0  0  0  0  0  2  0  0  0  0  0  0
  190.2090  176.2410  141.9310 C   0  0  0  0  0  2  0  0  0  0  0  0
  189.5800  178.2500  149.2190 C   0  0  0  0  0  3  0  0  0  0  0  0
  187.2850  177.4460  144.8120 C   0  0  0  0  0  0  0  0  0  0  0  0
  186.6890  178.0290  147.0080 N   0  0  0  0  0  0  0  0  0  0  0  0
  191.6840  176.8400  146.1270 Cl  0  0  0  0  0  0  0  0  0  0  0  0
  187.9400  177.0880  142.4190 N   0  0  0  0  0  2  0  0  0  0  0  0
  186.8510  177.0440  143.4090 C   0  0  2  0  0  3  0  0  0  0  0  0
  190.9440  177.5370  141.5840 C   0  0  2  0  0  3  0  0  0  0  0  0
  189.6030  177.3000  144.1060 N   0  0  0  0  0  0  0  0  0  0  0  0
  186.3510  177.7320  145.7550 N   0  0  0  0  0  0  0  0  0  0  0  0
  183.5900  179.0010  143.3260 C   0  0  0  0  0  0  0  0  0  0  0  0
  183.5410  179.3840  141.9820 C   0  0  0  0  0  3  0  0  0  0  0  0
  185.6960  177.8630  142.9250 C   0  0  0  0  0  0  0  0  0  0  0  0
  184.5660  179.0070  141.1110 C   0  0  0  0  0  3  0  0  0  0  0  0
  184.6640  178.2420  143.7980 C   0  0  0  0  0  3  0  0  0  0  0  0
  185.6420  178.2480  141.5810 C   0  0  0  0  0  3  0  0  0  0  0  0
  182.5960  179.3650  144.1710 F   0  0  0  0  0  0  0  0  0  0  0  0
  191.9670  177.3250  140.5580 N   0  0  0  0  0  2  0  0  0  0  0  0
  191.3540  177.1280  139.2440 C   0  0  0  0  0  2  0  0  0  0  0  0
  193.5790  176.3240  138.8790 F   0  0  0  0  0  0  0  0  0  0  0  0
  192.3570  176.5260  138.2600 C   0  0  1  0  0  3  0  0  0  0  0  0
  191.6930  175.4290  136.1070 C   0  0  0  0  0  1  0  0  0  0  0  0
  191.8630  175.2330  137.6030 C   0  0  0  0  0  0  0  0  0  0  0  0
  190.6580  174.8370  138.1540 F   0  0  0  0  0  0  0  0  0  0  0  0
  192.7970  174.2370  137.8100 F   0  0  0  0  0  0  0  0  0  0  0  0
  1  5  2  0  0  0  0
  2  6  1  0  0  0  0
  3  8  1  0  0  0  0
  4 10  1  6  0  0  0
  4 18  1  0  0  0  0
  5 11  1  0  0  0  0
  6 11  2  0  0  0  0
  7 18  1  0  0  0  0
  8  2  2  0  0  0  0
  8  1  1  0  0  0  0
  9  7  1  0  0  0  0
 12  3  2  0  0  0  0
 12 19  1  0  0  0  0
 13  1  1  0  0  0  0
 14  2  1  0  0  0  0
 15  4  1  0  0  0  0
 15 16  1  0  0  0  0
 16 22  1  6  0  0  0
 16 12  1  0  0  0  0
 17 27  1  6  0  0  0
 17 10  1  0  0  0  0
 17  9  1  0  0  0  0
 18  3  1  0  0  0  0
 19 13  2  0  0  0  0
 20 24  1  0  0  0  0
 20 26  1  0  0  0  0
 21 20  2  0  0  0  0
 22 24  2  0  0  0  0
 23 25  2  0  0  0  0
 23 21  1  0  0  0  0
 25 22  1  0  0  0  0
 28 27  1  0  0  0  0
 30 29  1  1  0  0  0
 30 28  1  0  0  0  0
 31 32  1  0  0  0  0
 32 34  1  0  0  0  0
 32 33  1  0  0  0  0
 32 30  1  0  0  0  0
M  END
>  <MODEL>
6

>  <REMARK>
 VINA RESULT:      -8.3      3.522      7.031
  Name = 
  5 active torsions:
  status: ('A' for Active; 'I' for Inactive)
    1  A    between atoms: N_3  and  C_13
    2  A    between atoms: N_3  and  C_29
    3  A    between atoms: C_12  and  C_28
    4  A    between atoms: C_13  and  C_33
    5  A    between atoms: C_20  and  C_33
                            x       y       z     vdW  Elec       q    Type
                         _______ _______ _______ _____ _____    ______ ____

>  <TORSDO>
F 5

$$$$
=
 OpenBabel10262419173D

 34 38  0  0  1  0  0  0  0  0999 V2000
  187.4690  177.7760  143.3410 C   0  0  0  0  0  0  0  0  0  0  0  0
  185.2090  178.5150  143.8830 C   0  0  0  0  0  0  0  0  0  0  0  0
  186.0230  178.4170  141.5070 C   0  0  0  0  0  0  0  0  0  0  0  0
  184.8160  179.4160  139.6540 C   0  0  2  0  0  3  0  0  0  0  0  0
  187.7000  177.5080  144.6920 C   0  0  0  0  0  3  0  0  0  0  0  0
  185.4680  178.2430  145.2290 C   0  0  0  0  0  3  0  0  0  0  0  0
  183.7850  177.5440  140.9950 C   0  0  0  0  0  2  0  0  0  0  0  0
  186.2020  178.2360  142.9010 C   0  0  0  0  0  0  0  0  0  0  0  0
  182.4020  177.9790  140.5360 C   0  0  0  0  0  2  0  0  0  0  0  0
  183.4350  179.7580  139.0930 C   0  0  0  0  0  2  0  0  0  0  0  0
  186.6980  177.7260  145.6320 C   0  0  0  0  0  3  0  0  0  0  0  0
  187.1260  178.2510  140.6450 C   0  0  0  0  0  0  0  0  0  0  0  0
  188.4820  177.6160  142.4540 N   0  0  0  0  0  0  0  0  0  0  0  0
  183.6920  179.3450  143.5540 Cl  0  0  0  0  0  0  0  0  0  0  0  0
  185.6140  178.6680  138.6890 N   0  0  0  0  0  2  0  0  0  0  0  0
  187.0050  178.5970  139.1670 C   0  0  2  0  0  3  0  0  0  0  0  0
  182.4980  178.5500  139.1250 C   0  0  2  0  0  3  0  0  0  0  0  0
  184.7450  178.6490  140.9020 N   0  0  0  0  0  0  0  0  0  0  0  0
  188.3230  177.8680  141.1570 N   0  0  0  0  0  0  0  0  0  0  0  0
  189.8890  176.8950  137.3600 C   0  0  0  0  0  0  0  0  0  0  0  0
  189.2150  175.8780  136.6770 C   0  0  0  0  0  3  0  0  0  0  0  0
  187.7860  177.6530  138.3070 C   0  0  0  0  0  0  0  0  0  0  0  0
  187.8290  175.7480  136.8080 C   0  0  0  0  0  3  0  0  0  0  0  0
  189.1770  177.7820  138.1730 C   0  0  0  0  0  3  0  0  0  0  0  0
  187.1170  176.6340  137.6220 C   0  0  0  0  0  3  0  0  0  0  0  0
  191.2310  177.0230  137.2330 F   0  0  0  0  0  0  0  0  0  0  0  0
  181.1780  178.8690  138.5760 N   0  0  0  0  0  2  0  0  0  0  0  0
  181.2670  179.9590  137.6050 C   0  0  0  0  0  2  0  0  0  0  0  0
  180.5120  181.3160  139.4260 F   0  0  0  0  0  0  0  0  0  0  0  0
  180.4320  181.1580  138.0530 C   0  0  1  0  0  3  0  0  0  0  0  0
  179.6400  183.4380  137.3820 C   0  0  0  0  0  1  0  0  0  0  0  0
  180.8000  182.4590  137.3360 C   0  0  0  0  0  0  0  0  0  0  0  0
  181.1370  182.2100  136.0170 F   0  0  0  0  0  0  0  0  0  0  0  0
  181.8830  183.0340  137.9710 F   0  0  0  0  0  0  0  0  0  0  0  0
  1  5  2  0  0  0  0
  2  6  1  0  0  0  0
  3  8  1  0  0  0  0
  4 10  1  6  0  0  0
  4 18  1  0  0  0  0
  5 11  1  0  0  0  0
  6 11  2  0  0  0  0
  8  1  1  0  0  0  0
  8  2  2  0  0  0  0
  9  7  1  0  0  0  0
 10 17  1  0  0  0  0
 12 19  1  0  0  0  0
 12  3  2  0  0  0  0
 13  1  1  0  0  0  0
 14  2  1  0  0  0  0
 15 16  1  0  0  0  0
 15  4  1  0  0  0  0
 16 22  1  6  0  0  0
 16 12  1  0  0  0  0
 17 27  1  1  0  0  0
 17  9  1  0  0  0  0
 18  7  1  0  0  0  0
 18  3  1  0  0  0  0
 19 13  2  0  0  0  0
 20 24  1  0  0  0  0
 21 23  1  0  0  0  0
 21 20  2  0  0  0  0
 23 25  2  0  0  0  0
 24 22  2  0  0  0  0
 25 22  1  0  0  0  0
 26 20  1  0  0  0  0
 28 30  1  0  0  0  0
 28 27  1  0  0  0  0
 30 29  1  1  0  0  0
 32 31  1  0  0  0  0
 32 34  1  0  0  0  0
 32 30  1  0  0  0  0
 33 32  1  0  0  0  0
M  END
>  <MODEL>
7

>  <REMARK>
 VINA RESULT:      -8.0      4.538      9.050
  Name = 
  5 active torsions:
  status: ('A' for Active; 'I' for Inactive)
    1  A    between atoms: N_3  and  C_13
    2  A    between atoms: N_3  and  C_29
    3  A    between atoms: C_12  and  C_28
    4  A    between atoms: C_13  and  C_33
    5  A    between atoms: C_20  and  C_33
                            x       y       z     vdW  Elec       q    Type
                         _______ _______ _______ _____ _____    ______ ____

>  <TORSDO>
F 5

$$$$
=
 OpenBabel10262419173D

 34 38  0  0  1  0  0  0  0  0999 V2000
  190.8670  176.9740  144.7470 C   0  0  0  0  0  0  0  0  0  0  0  0
  188.8430  177.6670  145.9170 C   0  0  0  0  0  0  0  0  0  0  0  0
  189.0210  177.7960  143.4130 C   0  0  0  0  0  0  0  0  0  0  0  0
  187.4100  178.9750  142.0340 C   0  0  2  0  0  3  0  0  0  0  0  0
  191.4290  176.5750  145.9610 C   0  0  0  0  0  3  0  0  0  0  0  0
  189.4300  177.2630  147.1200 C   0  0  0  0  0  3  0  0  0  0  0  0
  186.7010  176.9870  143.4150 C   0  0  0  0  0  2  0  0  0  0  0  0
  189.5440  177.4800  144.6920 C   0  0  0  0  0  0  0  0  0  0  0  0
  185.2600  177.4710  143.3700 C   0  0  0  0  0  2  0  0  0  0  0  0
  185.9420  179.3770  141.8810 C   0  0  0  0  0  2  0  0  0  0  0  0
  190.7060  176.7040  147.1440 C   0  0  0  0  0  3  0  0  0  0  0  0
  189.8610  177.7100  142.2860 C   0  0  0  0  0  0  0  0  0  0  0  0
  191.6150  176.8960  143.6180 N   0  0  0  0  0  0  0  0  0  0  0  0
  187.3190  178.5310  146.0680 Cl  0  0  0  0  0  0  0  0  0  0  0  0
  187.9130  178.3220  140.8310 N   0  0  0  0  0  2  0  0  0  0  0  0
  189.3770  178.1980  140.9270 C   0  0  2  0  0  3  0  0  0  0  0  0
  185.0090  178.1760  142.0410 C   0  0  2  0  0  3  0  0  0  0  0  0
  187.6380  178.0910  143.1820 N   0  0  0  0  0  0  0  0  0  0  0  0
  191.1380  177.2740  142.4340 N   0  0  0  0  0  0  0  0  0  0  0  0
  191.7160  176.3470  138.5660 C   0  0  0  0  0  0  0  0  0  0  0  0
  190.8000  175.7360  137.7040 C   0  0  0  0  0  3  0  0  0  0  0  0
  189.8850  177.3380  139.8110 C   0  0  0  0  0  0  0  0  0  0  0  0
  189.4290  175.9260  137.8950 C   0  0  0  0  0  3  0  0  0  0  0  0
  191.2610  177.1470  139.6170 C   0  0  0  0  0  3  0  0  0  0  0  0
  188.9720  176.7260  138.9460 C   0  0  0  0  0  3  0  0  0  0  0  0
  193.0460  176.1640  138.3810 F   0  0  0  0  0  0  0  0  0  0  0  0
  183.6030  178.5520  141.8820 N   0  0  0  0  0  2  0  0  0  0  0  0
  182.9910  178.8430  143.1780 C   0  0  0  0  0  2  0  0  0  0  0  0
  181.3510  179.7030  141.6610 F   0  0  0  0  0  0  0  0  0  0  0  0
  181.6020  179.4550  143.0000 C   0  0  1  0  0  3  0  0  0  0  0  0
  179.6920  177.9040  142.5270 C   0  0  0  0  0  1  0  0  0  0  0  0
  180.4810  178.6120  143.6140 C   0  0  0  0  0  0  0  0  0  0  0  0
  179.6260  179.4060  144.3570 F   0  0  0  0  0  0  0  0  0  0  0  0
  181.0370  177.6580  144.4440 F   0  0  0  0  0  0  0  0  0  0  0  0
  1  5  2  0  0  0  0
  2 14  1  0  0  0  0
  2  6  1  0  0  0  0
  3  8  1  0  0  0  0
  4 10  1  6  0  0  0
  4 18  1  0  0  0  0
  5 11  1  0  0  0  0
  6 11  2  0  0  0  0
  8  1  1  0  0  0  0
  8  2  2  0  0  0  0
  9  7  1  0  0  0  0
 10 17  1  0  0  0  0
 12 19  1  0  0  0  0
 12  3  2  0  0  0  0
 13  1  1  0  0  0  0
 15 16  1  0  0  0  0
 15  4  1  0  0  0  0
 16 22  1  6  0  0  0
 16 12  1  0  0  0  0
 17 27  1  1  0  0  0
 17  9  1  0  0  0  0
 18  3  1  0  0  0  0
 18  7  1  0  0  0  0
 19 13  2  0  0  0  0
 20 24  1  0  0  0  0
 21 23  1  0  0  0  0
 21 20  2  0  0  0  0
 23 25  2  0  0  0  0
 24 22  2  0  0  0  0
 25 22  1  0  0  0  0
 26 20  1  0  0  0  0
 27 28  1  0  0  0  0
 30 29  1  6  0  0  0
 30 28  1  0  0  0  0
 30 32  1  0  0  0  0
 31 32  1  0  0  0  0
 32 33  1  0  0  0  0
 32 34  1  0  0  0  0
M  END
>  <MODEL>
8

>  <REMARK>
 VINA RESULT:      -8.0      3.170      7.265
  Name = 
  5 active torsions:
  status: ('A' for Active; 'I' for Inactive)
    1  A    between atoms: N_3  and  C_13
    2  A    between atoms: N_3  and  C_29
    3  A    between atoms: C_12  and  C_28
    4  A    between atoms: C_13  and  C_33
    5  A    between atoms: C_20  and  C_33
                            x       y       z     vdW  Elec       q    Type
                         _______ _______ _______ _____ _____    ______ ____

>  <TORSDO>
F 5

$$$$
=
 OpenBabel10262419173D

 34 38  0  0  1  0  0  0  0  0999 V2000
  191.5800  176.0970  136.5350 C   0  0  0  0  0  0  0  0  0  0  0  0
  192.5290  176.6540  138.7110 C   0  0  0  0  0  0  0  0  0  0  0  0
  190.1180  177.1190  138.1730 C   0  0  0  0  0  0  0  0  0  0  0  0
  188.6940  178.4960  139.5740 C   0  0  2  0  0  3  0  0  0  0  0  0
  192.7970  175.5290  136.1530 C   0  0  0  0  0  3  0  0  0  0  0  0
  193.7380  176.0840  138.3020 C   0  0  0  0  0  3  0  0  0  0  0  0
  189.6760  176.3500  140.4650 C   0  0  0  0  0  2  0  0  0  0  0  0
  191.4040  176.6240  137.8390 C   0  0  0  0  0  0  0  0  0  0  0  0
  189.4890  176.8560  141.8860 C   0  0  0  0  0  2  0  0  0  0  0  0
  188.3870  178.9360  141.0070 C   0  0  0  0  0  2  0  0  0  0  0  0
  193.8700  175.5080  137.0400 C   0  0  0  0  0  3  0  0  0  0  0  0
  189.1220  177.1730  137.1780 C   0  0  0  0  0  0  0  0  0  0  0  0
  190.5710  176.1610  135.6310 N   0  0  0  0  0  0  0  0  0  0  0  0
  192.5750  177.5120  140.2460 Cl  0  0  0  0  0  0  0  0  0  0  0  0
  187.4980  178.0040  138.8980 N   0  0  0  0  0  2  0  0  0  0  0  0
  187.7870  177.8470  137.4630 C   0  0  2  0  0  3  0  0  0  0  0  0
  188.2460  177.7370  141.9460 C   0  0  2  0  0  3  0  0  0  0  0  0
  189.7320  177.4620  139.5100 N   0  0  0  0  0  0  0  0  0  0  0  0
  189.3930  176.7020  135.9340 N   0  0  0  0  0  0  0  0  0  0  0  0
  185.1180  175.2630  136.6440 C   0  0  0  0  0  0  0  0  0  0  0  0
  184.5300  175.8330  135.5100 C   0  0  0  0  0  3  0  0  0  0  0  0
  186.6490  177.1390  136.7940 C   0  0  0  0  0  0  0  0  0  0  0  0
  185.0010  177.0540  135.0190 C   0  0  0  0  0  3  0  0  0  0  0  0
  186.1760  175.9130  137.2850 C   0  0  0  0  0  3  0  0  0  0  0  0
  186.0590  177.7050  135.6600 C   0  0  0  0  0  3  0  0  0  0  0  0
  184.6630  174.0790  137.1200 F   0  0  0  0  0  0  0  0  0  0  0  0
  187.9380  178.1520  143.3160 N   0  0  0  0  0  2  0  0  0  0  0  0
  186.6280  177.6500  143.7300 C   0  0  0  0  0  2  0  0  0  0  0  0
  187.6810  178.0500  145.8420 F   0  0  0  0  0  0  0  0  0  0  0  0
  186.4780  177.7060  145.2500 C   0  0  1  0  0  3  0  0  0  0  0  0
  184.4380  178.9890  144.5600 C   0  0  0  0  0  1  0  0  0  0  0  0
  185.3580  178.6410  145.7170 C   0  0  0  0  0  0  0  0  0  0  0  0
  185.8860  179.8040  146.2490 F   0  0  0  0  0  0  0  0  0  0  0  0
  184.6150  178.0030  146.6910 F   0  0  0  0  0  0  0  0  0  0  0  0
  1  8  1  0  0  0  0
  2 14  1  0  0  0  0
  3 18  1  0  0  0  0
  4 10  1  1  0  0  0
  5  1  2  0  0  0  0
  5 11  1  0  0  0  0
  6  2  1  0  0  0  0
  7  9  1  0  0  0  0
  8  3  1  0  0  0  0
  8  2  2  0  0  0  0
  9 17  1  0  0  0  0
 10 17  1  0  0  0  0
 11  6  2  0  0  0  0
 12 16  1  0  0  0  0
 12  3  2  0  0  0  0
 13 19  2  0  0  0  0
 13  1  1  0  0  0  0
 15  4  1  0  0  0  0
 16 22  1  1  0  0  0
 16 15  1  0  0  0  0
 17 27  1  1  0  0  0
 18  4  1  0  0  0  0
 18  7  1  0  0  0  0
 19 12  1  0  0  0  0
 20 26  1  0  0  0  0
 20 24  1  0  0  0  0
 21 20  2  0  0  0  0
 22 24  2  0  0  0  0
 23 21  1  0  0  0  0
 23 25  2  0  0  0  0
 25 22  1  0  0  0  0
 27 28  1  0  0  0  0
 28 30  1  0  0  0  0
 30 32  1  0  0  0  0
 30 29  1  1  0  0  0
 31 32  1  0  0  0  0
 32 33  1  0  0  0  0
 32 34  1  0  0  0  0
M  END
>  <MODEL>
9

>  <REMARK>
 VINA RESULT:      -7.8      2.915      4.438
  Name = 
  5 active torsions:
  status: ('A' for Active; 'I' for Inactive)
    1  A    between atoms: N_3  and  C_13
    2  A    between atoms: N_3  and  C_29
    3  A    between atoms: C_12  and  C_28
    4  A    between atoms: C_13  and  C_33
    5  A    between atoms: C_20  and  C_33
                            x       y       z     vdW  Elec       q    Type
                         _______ _______ _______ _____ _____    ______ ____

>  <TORSDO>
F 5

$$$$
