=
 OpenBabel10262419553D

 25 29  0  0  1  0  0  0  0  0999 V2000
  188.1610  177.5520  143.7590 C   0  0  1  0  0  0  0  0  0  0  0  0
  186.8000  178.1480  143.4980 C   0  0  0  0  0  0  0  0  0  0  0  0
  187.6200  177.3570  146.2170 C   0  0  0  0  0  2  0  0  0  0  0  0
  189.3130  178.0970  142.9210 C   0  0  0  0  0  2  0  0  0  0  0  0
  191.8600  177.8710  143.4400 C   0  0  0  0  0  2  0  0  0  0  0  0
  186.2660  177.8220  145.8970 N   0  0  0  0  0  2  0  0  0  0  0  0
  190.4840  178.0000  143.8890 C   0  0  1  0  0  0  0  0  0  0  0  0
  191.3340  179.1940  143.8270 N   0  0  0  0  0  2  0  0  0  0  0  0
  184.5620  178.6670  144.3170 C   0  0  0  0  0  0  0  0  0  0  0  0
  183.5560  178.7550  145.4130 C   0  0  0  0  0  1  0  0  0  0  0  0
  186.4080  178.5330  142.2080 C   0  0  0  0  0  3  0  0  0  0  0  0
  188.5690  177.9340  145.1800 C   0  0  1  0  0  3  0  0  0  0  0  0
  190.0550  177.6900  145.3080 C   0  0  0  0  0  2  0  0  0  0  0  0
  184.1950  179.0650  143.0290 C   0  0  0  0  0  3  0  0  0  0  0  0
  185.1150  179.0010  141.9690 C   0  0  0  0  0  0  0  0  0  0  0  0
  185.8630  178.1990  144.5620 C   0  0  0  0  0  0  0  0  0  0  0  0
  184.7560  179.3930  140.6390 N   0  0  0  0  0  0  0  0  0  0  0  0
  183.5970  179.1490  140.1180 C   0  0  0  0  0  3  0  0  0  0  0  0
  181.9360  180.1760  138.5290 C   0  0  2  0  0  3  0  0  0  0  0  0
  183.2970  179.5860  138.7210 C   0  0  1  0  0  3  0  0  0  0  0  0
  183.0830  180.9760  138.7030 O   0  0  0  0  0  0  0  0  0  0  0  0
  180.2180  181.1860  139.4840 C   0  0  0  0  0  1  0  0  0  0  0  0
  181.1750  180.1940  139.7030 O   0  0  0  0  0  0  0  0  0  0  0  0
  188.0940  176.0260  143.5890 C   0  0  0  0  0  2  0  0  0  0  0  0
  189.1470  175.5660  142.8180 F   0  0  0  0  0  0  0  0  0  0  0  0
  1 24  1  6  0  0  0
  1 12  1  0  0  0  0
  2  1  1  0  0  0  0
  2 16  1  0  0  0  0
  4  1  1  0  0  0  0
  5  8  1  0  0  0  0
  5  7  1  0  0  0  0
  6  3  1  0  0  0  0
  7  4  1  6  0  0  0
  7 13  1  0  0  0  0
  8  7  1  0  0  0  0
  9 16  2  0  0  0  0
  9 10  1  0  0  0  0
 11  2  2  0  0  0  0
 12 13  1  1  0  0  0
 12  3  1  0  0  0  0
 14  9  1  0  0  0  0
 15 11  1  0  0  0  0
 15 14  2  0  0  0  0
 16  6  1  0  0  0  0
 17 15  1  0  0  0  0
 18 17  2  0  0  0  0
 19 21  1  0  0  0  0
 19 20  1  0  0  0  0
 19 23  1  1  0  0  0
 20 18  1  1  0  0  0
 21 20  1  0  0  0  0
 22 23  1  0  0  0  0
 25 24  1  0  0  0  0
M  END
>  <MODEL>
1

>  <REMARK>
 VINA RESULT:      -8.4      0.000      0.000
  Name = 
  4 active torsions:
  status: ('A' for Active; 'I' for Inactive)
    1  A    between atoms: C_1  and  C_17
    2  A    between atoms: C_2  and  O_12
    3  A    between atoms: N_6  and  C_23
    4  A    between atoms: C_15  and  C_21
                            x       y       z     vdW  Elec       q    Type
                         _______ _______ _______ _____ _____    ______ ____

>  <TORSDO>
F 4

$$$$
=
 OpenBabel10262419553D

 25 29  0  0  1  0  0  0  0  0999 V2000
  188.0970  177.5950  143.6230 C   0  0  1  0  0  0  0  0  0  0  0  0
  186.8050  178.1110  143.0390 C   0  0  0  0  0  0  0  0  0  0  0  0
  187.0820  177.6250  145.9330 C   0  0  0  0  0  2  0  0  0  0  0  0
  189.3830  178.0950  142.9740 C   0  0  0  0  0  2  0  0  0  0  0  0
  191.7790  178.0160  144.0020 C   0  0  0  0  0  2  0  0  0  0  0  0
  185.8100  178.0070  145.3080 N   0  0  0  0  0  2  0  0  0  0  0  0
  190.3400  178.1390  144.1570 C   0  0  1  0  0  0  0  0  0  0  0  0
  191.1650  179.3510  144.1370 N   0  0  0  0  0  2  0  0  0  0  0  0
  184.4410  178.6270  143.3450 C   0  0  0  0  0  0  0  0  0  0  0  0
  183.2360  178.7860  144.2080 C   0  0  0  0  0  1  0  0  0  0  0  0
  186.6700  178.3510  141.6650 C   0  0  0  0  0  3  0  0  0  0  0  0
  188.2090  178.1310  145.0480 C   0  0  1  0  0  3  0  0  0  0  0  0
  189.6430  177.9560  145.4890 C   0  0  0  0  0  2  0  0  0  0  0  0
  184.3300  178.8800  141.9760 C   0  0  0  0  0  3  0  0  0  0  0  0
  185.4420  178.7450  141.1290 C   0  0  0  0  0  0  0  0  0  0  0  0
  185.6750  178.2340  143.8880 C   0  0  0  0  0  0  0  0  0  0  0  0
  185.3490  178.9900  139.7210 N   0  0  0  0  0  0  0  0  0  0  0  0
  185.8400  178.1890  138.8300 C   0  0  0  0  0  3  0  0  0  0  0  0
  186.9710  178.3870  136.5900 C   0  0  2  0  0  3  0  0  0  0  0  0
  185.7060  178.5130  137.3780 C   0  0  1  0  0  3  0  0  0  0  0  0
  185.9990  177.3670  136.6160 O   0  0  0  0  0  0  0  0  0  0  0  0
  189.0580  178.9380  137.0670 C   0  0  0  0  0  1  0  0  0  0  0  0
  188.0680  178.0030  137.3700 O   0  0  0  0  0  0  0  0  0  0  0  0
  188.0890  176.0580  143.6040 C   0  0  0  0  0  2  0  0  0  0  0  0
  189.1420  175.5660  142.8510 F   0  0  0  0  0  0  0  0  0  0  0  0
  1 24  1  1  0  0  0
  1 12  1  0  0  0  0
  2  1  1  0  0  0  0
  2 16  1  0  0  0  0
  4  1  1  0  0  0  0
  5  8  1  0  0  0  0
  5  7  1  0  0  0  0
  6  3  1  0  0  0  0
  7  4  1  6  0  0  0
  7 13  1  0  0  0  0
  8  7  1  0  0  0  0
  9 16  2  0  0  0  0
  9 10  1  0  0  0  0
 11  2  2  0  0  0  0
 12 13  1  1  0  0  0
 12  3  1  0  0  0  0
 14  9  1  0  0  0  0
 15 11  1  0  0  0  0
 15 14  2  0  0  0  0
 16  6  1  0  0  0  0
 17 15  1  0  0  0  0
 18 17  2  0  0  0  0
 19 21  1  0  0  0  0
 19 23  1  1  0  0  0
 19 20  1  0  0  0  0
 20 18  1  1  0  0  0
 21 20  1  0  0  0  0
 22 23  1  0  0  0  0
 25 24  1  0  0  0  0
M  END
>  <MODEL>
2

>  <REMARK>
 VINA RESULT:      -8.2      2.357      3.036
  Name = 
  4 active torsions:
  status: ('A' for Active; 'I' for Inactive)
    1  A    between atoms: C_1  and  C_17
    2  A    between atoms: C_2  and  O_12
    3  A    between atoms: N_6  and  C_23
    4  A    between atoms: C_15  and  C_21
                            x       y       z     vdW  Elec       q    Type
                         _______ _______ _______ _____ _____    ______ ____

>  <TORSDO>
F 4

$$$$
=
 OpenBabel10262419553D

 25 29  0  0  1  0  0  0  0  0999 V2000
  188.0770  177.5620  143.7930 C   0  0  1  0  0  0  0  0  0  0  0  0
  186.7190  178.1390  143.4830 C   0  0  0  0  0  0  0  0  0  0  0  0
  187.4930  177.4670  146.2460 C   0  0  0  0  0  2  0  0  0  0  0  0
  189.2420  178.0770  142.9530 C   0  0  0  0  0  2  0  0  0  0  0  0
  191.7800  177.8860  143.5260 C   0  0  0  0  0  2  0  0  0  0  0  0
  186.1430  177.9120  145.8840 N   0  0  0  0  0  2  0  0  0  0  0  0
  190.3960  178.0270  143.9440 C   0  0  1  0  0  0  0  0  0  0  0  0
  191.2410  179.2220  143.8470 N   0  0  0  0  0  2  0  0  0  0  0  0
  184.4650  178.6810  144.2390 C   0  0  0  0  0  0  0  0  0  0  0  0
  183.4390  178.8090  145.3140 C   0  0  0  0  0  1  0  0  0  0  0  0
  186.3480  178.4670  142.1720 C   0  0  0  0  0  3  0  0  0  0  0  0
  188.4590  178.0060  145.2040 C   0  0  1  0  0  3  0  0  0  0  0  0
  189.9430  177.7740  145.3680 C   0  0  0  0  0  2  0  0  0  0  0  0
  184.1190  179.0220  142.9300 C   0  0  0  0  0  3  0  0  0  0  0  0
  185.0570  178.9180  141.8900 C   0  0  0  0  0  0  0  0  0  0  0  0
  185.7630  178.2300  144.5270 C   0  0  0  0  0  0  0  0  0  0  0  0
  184.7210  179.2520  140.5380 N   0  0  0  0  0  0  0  0  0  0  0  0
  183.7530  178.6870  139.8900 C   0  0  0  0  0  3  0  0  0  0  0  0
  183.2660  177.9440  137.5350 C   0  0  2  0  0  3  0  0  0  0  0  0
  183.4640  179.0850  138.4790 C   0  0  1  0  0  3  0  0  0  0  0  0
  182.1830  178.6290  138.1200 O   0  0  0  0  0  0  0  0  0  0  0  0
  183.7990  175.8400  137.1160 C   0  0  0  0  0  1  0  0  0  0  0  0
  183.4080  176.6930  138.1470 O   0  0  0  0  0  0  0  0  0  0  0  0
  188.0200  176.0290  143.6860 C   0  0  0  0  0  2  0  0  0  0  0  0
  188.9710  175.5580  142.7970 F   0  0  0  0  0  0  0  0  0  0  0  0
  1 24  1  6  0  0  0
  1 12  1  0  0  0  0
  2  1  1  0  0  0  0
  2 16  1  0  0  0  0
  4  1  1  0  0  0  0
  5  8  1  0  0  0  0
  5  7  1  0  0  0  0
  6  3  1  0  0  0  0
  7  4  1  6  0  0  0
  7 13  1  0  0  0  0
  8  7  1  0  0  0  0
  9 16  2  0  0  0  0
  9 10  1  0  0  0  0
 11  2  2  0  0  0  0
 12 13  1  1  0  0  0
 12  3  1  0  0  0  0
 14  9  1  0  0  0  0
 15 11  1  0  0  0  0
 15 14  2  0  0  0  0
 16  6  1  0  0  0  0
 17 15  1  0  0  0  0
 18 17  2  0  0  0  0
 19 21  1  0  0  0  0
 19 23  1  1  0  0  0
 19 20  1  0  0  0  0
 20 18  1  1  0  0  0
 21 20  1  0  0  0  0
 22 23  1  0  0  0  0
 25 24  1  0  0  0  0
M  END
>  <MODEL>
3

>  <REMARK>
 VINA RESULT:      -8.0      1.366      1.811
  Name = 
  4 active torsions:
  status: ('A' for Active; 'I' for Inactive)
    1  A    between atoms: C_1  and  C_17
    2  A    between atoms: C_2  and  O_12
    3  A    between atoms: N_6  and  C_23
    4  A    between atoms: C_15  and  C_21
                            x       y       z     vdW  Elec       q    Type
                         _______ _______ _______ _____ _____    ______ ____

>  <TORSDO>
F 4

$$$$
=
 OpenBabel10262419553D

 25 29  0  0  1  0  0  0  0  0999 V2000
  189.7100  178.0290  144.4050 C   0  0  1  0  0  0  0  0  0  0  0  0
  189.1740  177.8860  143.0020 C   0  0  0  0  0  0  0  0  0  0  0  0
  191.6810  176.5670  143.8160 C   0  0  0  0  0  2  0  0  0  0  0  0
  188.6750  178.0910  145.5240 C   0  0  0  0  0  2  0  0  0  0  0  0
  189.1020  177.6830  148.0650 C   0  0  0  0  0  2  0  0  0  0  0  0
  191.1900  176.5590  142.4340 N   0  0  0  0  0  2  0  0  0  0  0  0
  189.4060  177.4080  146.6720 C   0  0  1  0  0  0  0  0  0  0  0  0
  188.5220  176.4970  147.4070 N   0  0  0  0  0  2  0  0  0  0  0  0
  189.5260  177.1510  140.7040 C   0  0  0  0  0  0  0  0  0  0  0  0
  190.3210  176.4380  139.6630 C   0  0  0  0  0  1  0  0  0  0  0  0
  187.9780  178.5050  142.6120 C   0  0  0  0  0  3  0  0  0  0  0  0
  190.4870  176.7560  144.7360 C   0  0  1  0  0  3  0  0  0  0  0  0
  190.6820  176.7190  146.2340 C   0  0  0  0  0  2  0  0  0  0  0  0
  188.3220  177.7570  140.3370 C   0  0  0  0  0  3  0  0  0  0  0  0
  187.5420  178.4360  141.2870 C   0  0  0  0  0  0  0  0  0  0  0  0
  189.9660  177.2160  142.0350 C   0  0  0  0  0  0  0  0  0  0  0  0
  186.3100  179.0740  140.9310 N   0  0  0  0  0  0  0  0  0  0  0  0
  185.5240  178.6270  140.0050 C   0  0  0  0  0  3  0  0  0  0  0  0
  183.1010  178.4630  139.3430 C   0  0  2  0  0  3  0  0  0  0  0  0
  184.2560  179.3490  139.6860 C   0  0  1  0  0  3  0  0  0  0  0  0
  183.2730  179.0060  140.6330 O   0  0  0  0  0  0  0  0  0  0  0  0
  182.1980  176.4500  139.4600 C   0  0  0  0  0  1  0  0  0  0  0  0
  183.4260  177.1030  139.3650 O   0  0  0  0  0  0  0  0  0  0  0  0
  190.6120  179.2710  144.4860 C   0  0  0  0  0  2  0  0  0  0  0  0
  190.9310  179.7350  143.2210 F   0  0  0  0  0  0  0  0  0  0  0  0
  1 24  1  1  0  0  0
  1 12  1  0  0  0  0
  1  4  1  0  0  0  0
  2  1  1  0  0  0  0
  6  3  1  0  0  0  0
  7  4  1  6  0  0  0
  7  8  1  0  0  0  0
  7  5  1  0  0  0  0
  8  5  1  0  0  0  0
  9 16  1  0  0  0  0
 10  9  1  0  0  0  0
 11  2  1  0  0  0  0
 12  3  1  6  0  0  0
 12 13  1  0  0  0  0
 13  7  1  0  0  0  0
 14  9  2  0  0  0  0
 14 15  1  0  0  0  0
 15 11  2  0  0  0  0
 16  6  1  0  0  0  0
 16  2  2  0  0  0  0
 17 15  1  0  0  0  0
 18 17  2  0  0  0  0
 19 23  1  1  0  0  0
 19 20  1  0  0  0  0
 19 21  1  0  0  0  0
 20 18  1  1  0  0  0
 20 21  1  0  0  0  0
 23 22  1  0  0  0  0
 25 24  1  0  0  0  0
M  END
>  <MODEL>
4

>  <REMARK>
 VINA RESULT:      -7.0      2.537      4.171
  Name = 
  4 active torsions:
  status: ('A' for Active; 'I' for Inactive)
    1  A    between atoms: C_1  and  C_17
    2  A    between atoms: C_2  and  O_12
    3  A    between atoms: N_6  and  C_23
    4  A    between atoms: C_15  and  C_21
                            x       y       z     vdW  Elec       q    Type
                         _______ _______ _______ _____ _____    ______ ____

>  <TORSDO>
F 4

$$$$
=
 OpenBabel10262419553D

 25 29  0  0  1  0  0  0  0  0999 V2000
  188.5510  177.2940  143.8460 C   0  0  1  0  0  0  0  0  0  0  0  0
  187.1830  177.9240  143.9290 C   0  0  0  0  0  0  0  0  0  0  0  0
  188.6430  177.1270  146.3620 C   0  0  0  0  0  2  0  0  0  0  0  0
  189.4670  177.8030  142.7370 C   0  0  0  0  0  2  0  0  0  0  0  0
  192.0560  177.5130  142.6000 C   0  0  0  0  0  2  0  0  0  0  0  0
  187.2640  177.6270  146.3890 N   0  0  0  0  0  2  0  0  0  0  0  0
  190.8420  177.6810  143.3800 C   0  0  1  0  0  0  0  0  0  0  0  0
  191.6760  178.8520  143.0910 N   0  0  0  0  0  2  0  0  0  0  0  0
  185.2370  178.5070  145.2790 C   0  0  0  0  0  0  0  0  0  0  0  0
  184.5430  178.6280  146.5930 C   0  0  0  0  0  1  0  0  0  0  0  0
  186.4870  178.3120  142.7750 C   0  0  0  0  0  3  0  0  0  0  0  0
  189.3140  177.6730  145.1130 C   0  0  1  0  0  3  0  0  0  0  0  0
  190.7770  177.3900  144.8650 C   0  0  0  0  0  2  0  0  0  0  0  0
  184.5670  178.9070  144.1210 C   0  0  0  0  0  3  0  0  0  0  0  0
  185.1870  178.8130  142.8640 C   0  0  0  0  0  0  0  0  0  0  0  0
  186.5460  178.0060  145.1940 C   0  0  0  0  0  0  0  0  0  0  0  0
  184.5140  179.2060  141.6620 N   0  0  0  0  0  0  0  0  0  0  0  0
  184.2820  178.3930  140.6830 C   0  0  0  0  0  3  0  0  0  0  0  0
  182.6530  177.8820  138.8330 C   0  0  2  0  0  3  0  0  0  0  0  0
  183.5770  178.8770  139.4580 C   0  0  1  0  0  3  0  0  0  0  0  0
  182.1900  178.8960  139.6950 O   0  0  0  0  0  0  0  0  0  0  0  0
  182.3460  175.7160  138.5150 C   0  0  0  0  0  1  0  0  0  0  0  0
  182.6300  176.6550  139.5060 O   0  0  0  0  0  0  0  0  0  0  0  0
  188.4060  175.7690  143.7170 C   0  0  0  0  0  2  0  0  0  0  0  0
  189.3480  175.2530  142.8440 F   0  0  0  0  0  0  0  0  0  0  0  0
  1 24  1  6  0  0  0
  1  2  1  0  0  0  0
  1 12  1  0  0  0  0
  2 16  1  0  0  0  0
  3  6  1  0  0  0  0
  4  7  1  0  0  0  0
  4  1  1  0  0  0  0
  5  8  1  0  0  0  0
  7  5  1  6  0  0  0
  7 13  1  0  0  0  0
  8  7  1  0  0  0  0
  9 10  1  0  0  0  0
 11 15  1  0  0  0  0
 11  2  2  0  0  0  0
 12 13  1  6  0  0  0
 12  3  1  0  0  0  0
 14  9  1  0  0  0  0
 15 14  2  0  0  0  0
 16  9  2  0  0  0  0
 16  6  1  0  0  0  0
 17 15  1  0  0  0  0
 18 17  2  0  0  0  0
 19 20  1  0  0  0  0
 19 23  1  1  0  0  0
 19 21  1  0  0  0  0
 20 21  1  0  0  0  0
 20 18  1  1  0  0  0
 22 23  1  0  0  0  0
 25 24  1  0  0  0  0
M  END
>  <MODEL>
5

>  <REMARK>
 VINA RESULT:      -6.9      1.446      1.789
  Name = 
  4 active torsions:
  status: ('A' for Active; 'I' for Inactive)
    1  A    between atoms: C_1  and  C_17
    2  A    between atoms: C_2  and  O_12
    3  A    between atoms: N_6  and  C_23
    4  A    between atoms: C_15  and  C_21
                            x       y       z     vdW  Elec       q    Type
                         _______ _______ _______ _____ _____    ______ ____

>  <TORSDO>
F 4

$$$$
=
 OpenBabel10262419553D

 25 29  0  0  1  0  0  0  0  0999 V2000
  188.4860  177.4940  137.7740 C   0  0  1  0  0  0  0  0  0  0  0  0
  188.3120  177.7050  139.2570 C   0  0  0  0  0  0  0  0  0  0  0  0
  186.0910  178.1870  137.3810 C   0  0  0  0  0  2  0  0  0  0  0  0
  189.3850  176.3360  137.3520 C   0  0  0  0  0  2  0  0  0  0  0  0
  189.4660  175.2010  135.0050 C   0  0  0  0  0  2  0  0  0  0  0  0
  186.0060  178.4970  138.8120 N   0  0  0  0  0  2  0  0  0  0  0  0
  188.7290  175.8780  136.0580 C   0  0  1  0  0  0  0  0  0  0  0  0
  188.6730  174.4150  135.9700 N   0  0  0  0  0  2  0  0  0  0  0  0
  186.9550  178.5570  141.0950 C   0  0  0  0  0  0  0  0  0  0  0  0
  185.6880  179.1330  141.6300 C   0  0  0  0  0  1  0  0  0  0  0  0
  189.3640  177.4710  140.1550 C   0  0  0  0  0  3  0  0  0  0  0  0
  187.1290  177.0910  137.2010 C   0  0  1  0  0  3  0  0  0  0  0  0
  187.3690  176.5060  135.8280 C   0  0  0  0  0  2  0  0  0  0  0  0
  188.0060  178.2990  141.9770 C   0  0  0  0  0  3  0  0  0  0  0  0
  189.2140  177.7540  141.5130 C   0  0  0  0  0  0  0  0  0  0  0  0
  187.1000  178.2710  139.7280 C   0  0  0  0  0  0  0  0  0  0  0  0
  190.3090  177.4910  142.3990 N   0  0  0  0  0  0  0  0  0  0  0  0
  190.4590  178.0920  143.5360 C   0  0  0  0  0  3  0  0  0  0  0  0
  191.2790  177.1680  145.7290 C   0  0  2  0  0  3  0  0  0  0  0  0
  191.6300  177.7680  144.4050 C   0  0  1  0  0  3  0  0  0  0  0  0
  191.6740  176.3800  144.6290 O   0  0  0  0  0  0  0  0  0  0  0  0
  189.7560  176.8420  147.2970 C   0  0  0  0  0  1  0  0  0  0  0  0
  189.9000  177.0340  145.9230 O   0  0  0  0  0  0  0  0  0  0  0  0
  189.0010  178.7910  137.1280 C   0  0  0  0  0  2  0  0  0  0  0  0
  189.2800  179.7470  138.0900 F   0  0  0  0  0  0  0  0  0  0  0  0
  1 24  1  6  0  0  0
  1  2  1  0  0  0  0
  2 16  2  0  0  0  0
  2 11  1  0  0  0  0
  3  6  1  0  0  0  0
  4  1  1  0  0  0  0
  5  8  1  0  0  0  0
  6 16  1  0  0  0  0
  7  5  1  6  0  0  0
  7  4  1  0  0  0  0
  8  7  1  0  0  0  0
  9 10  1  0  0  0  0
  9 14  2  0  0  0  0
 11 15  2  0  0  0  0
 12 13  1  6  0  0  0
 12  3  1  0  0  0  0
 12  1  1  0  0  0  0
 13  7  1  0  0  0  0
 15 14  1  0  0  0  0
 15 17  1  0  0  0  0
 16  9  1  0  0  0  0
 17 18  2  0  0  0  0
 19 23  1  6  0  0  0
 20 18  1  6  0  0  0
 20 21  1  0  0  0  0
 20 19  1  0  0  0  0
 21 19  1  0  0  0  0
 23 22  1  0  0  0  0
 24 25  1  0  0  0  0
M  END
>  <MODEL>
6

>  <REMARK>
 VINA RESULT:      -6.9      5.224      8.018
  Name = 
  4 active torsions:
  status: ('A' for Active; 'I' for Inactive)
    1  A    between atoms: C_1  and  C_17
    2  A    between atoms: C_2  and  O_12
    3  A    between atoms: N_6  and  C_23
    4  A    between atoms: C_15  and  C_21
                            x       y       z     vdW  Elec       q    Type
                         _______ _______ _______ _____ _____    ______ ____

>  <TORSDO>
F 4

$$$$
=
 OpenBabel10262419553D

 25 29  0  0  1  0  0  0  0  0999 V2000
  188.0430  177.3030  143.2680 C   0  0  1  0  0  0  0  0  0  0  0  0
  187.1870  177.8280  144.3930 C   0  0  0  0  0  0  0  0  0  0  0  0
  190.0870  177.4340  144.7430 C   0  0  0  0  0  2  0  0  0  0  0  0
  187.6650  177.7520  141.8600 C   0  0  0  0  0  2  0  0  0  0  0  0
  189.1760  177.6540  139.7360 C   0  0  0  0  0  2  0  0  0  0  0  0
  189.1980  177.8220  145.8430 N   0  0  0  0  0  2  0  0  0  0  0  0
  189.0210  177.8140  141.1710 C   0  0  1  0  0  0  0  0  0  0  0  0
  189.1420  179.0060  140.3250 N   0  0  0  0  0  2  0  0  0  0  0  0
  186.9740  178.4070  146.7530 C   0  0  0  0  0  0  0  0  0  0  0  0
  187.5600  178.6220  148.1070 C   0  0  0  0  0  1  0  0  0  0  0  0
  185.8080  178.0250  144.2300 C   0  0  0  0  0  3  0  0  0  0  0  0
  189.4440  177.8840  143.4410 C   0  0  1  0  0  3  0  0  0  0  0  0
  190.1820  177.6910  142.1360 C   0  0  0  0  0  2  0  0  0  0  0  0
  185.6060  178.6170  146.5670 C   0  0  0  0  0  3  0  0  0  0  0  0
  185.0160  178.4290  145.3060 C   0  0  0  0  0  0  0  0  0  0  0  0
  187.7750  178.0040  145.6720 C   0  0  0  0  0  0  0  0  0  0  0  0
  183.6130  178.6280  145.0960 N   0  0  0  0  0  0  0  0  0  0  0  0
  183.1370  179.3250  144.1150 C   0  0  0  0  0  3  0  0  0  0  0  0
  181.1210  179.0940  142.6250 C   0  0  2  0  0  3  0  0  0  0  0  0
  181.6610  179.4920  143.9620 C   0  0  1  0  0  3  0  0  0  0  0  0
  181.0700  178.2340  143.7410 O   0  0  0  0  0  0  0  0  0  0  0  0
  181.4100  178.0200  140.7150 C   0  0  0  0  0  1  0  0  0  0  0  0
  182.1120  178.6490  141.7430 O   0  0  0  0  0  0  0  0  0  0  0  0
  188.0660  175.7660  143.3160 C   0  0  0  0  0  2  0  0  0  0  0  0
  189.2730  175.2740  142.8500 F   0  0  0  0  0  0  0  0  0  0  0  0
  1 24  1  1  0  0  0
  1 12  1  0  0  0  0
  1  2  1  0  0  0  0
  2 16  1  0  0  0  0
  3  6  1  0  0  0  0
  4  1  1  0  0  0  0
  5  8  1  0  0  0  0
  7  5  1  6  0  0  0
  7  4  1  0  0  0  0
  7 13  1  0  0  0  0
  8  7  1  0  0  0  0
  9 10  1  0  0  0  0
 11  2  2  0  0  0  0
 11 15  1  0  0  0  0
 12 13  1  6  0  0  0
 12  3  1  0  0  0  0
 14  9  1  0  0  0  0
 15 14  2  0  0  0  0
 16  6  1  0  0  0  0
 16  9  2  0  0  0  0
 17 15  1  0  0  0  0
 18 17  2  0  0  0  0
 19 23  1  6  0  0  0
 19 21  1  0  0  0  0
 19 20  1  0  0  0  0
 20 18  1  6  0  0  0
 21 20  1  0  0  0  0
 22 23  1  0  0  0  0
 25 24  1  0  0  0  0
M  END
>  <MODEL>
7

>  <REMARK>
 VINA RESULT:      -6.7      2.235      3.458
  Name = 
  4 active torsions:
  status: ('A' for Active; 'I' for Inactive)
    1  A    between atoms: C_1  and  C_17
    2  A    between atoms: C_2  and  O_12
    3  A    between atoms: N_6  and  C_23
    4  A    between atoms: C_15  and  C_21
                            x       y       z     vdW  Elec       q    Type
                         _______ _______ _______ _____ _____    ______ ____

>  <TORSDO>
F 4

$$$$
=
 OpenBabel10262419553D

 25 29  0  0  1  0  0  0  0  0999 V2000
  181.1070  178.6220  140.9010 C   0  0  1  0  0  0  0  0  0  0  0  0
  182.4230  178.6500  141.6390 C   0  0  0  0  0  0  0  0  0  0  0  0
  179.8620  178.5670  143.0960 C   0  0  0  0  0  2  0  0  0  0  0  0
  181.0780  177.8370  139.5930 C   0  0  0  0  0  2  0  0  0  0  0  0
  178.9580  176.9730  138.3430 C   0  0  0  0  0  2  0  0  0  0  0  0
  181.1560  178.7210  143.7690 N   0  0  0  0  0  2  0  0  0  0  0  0
  179.6530  177.3030  139.5750 C   0  0  1  0  0  0  0  0  0  0  0  0
  179.6070  175.9060  139.1290 N   0  0  0  0  0  2  0  0  0  0  0  0
  183.6230  178.8890  143.7480 C   0  0  0  0  0  0  0  0  0  0  0  0
  183.6500  179.0000  145.2350 C   0  0  0  0  0  1  0  0  0  0  0  0
  183.6440  178.6810  140.9510 C   0  0  0  0  0  3  0  0  0  0  0  0
  180.1050  177.8650  141.7700 C   0  0  1  0  0  3  0  0  0  0  0  0
  178.9310  177.4950  140.8930 C   0  0  0  0  0  2  0  0  0  0  0  0
  184.8310  178.9000  143.0470 C   0  0  0  0  0  3  0  0  0  0  0  0
  184.8490  178.7950  141.6470 C   0  0  0  0  0  0  0  0  0  0  0  0
  182.4090  178.7720  143.0520 C   0  0  0  0  0  0  0  0  0  0  0  0
  186.0760  178.8140  140.9070 N   0  0  0  0  0  0  0  0  0  0  0  0
  187.2200  178.5070  141.4270 C   0  0  0  0  0  3  0  0  0  0  0  0
  189.4710  177.5030  140.9180 C   0  0  2  0  0  3  0  0  0  0  0  0
  188.4590  178.5540  140.5940 C   0  0  1  0  0  3  0  0  0  0  0  0
  188.5640  177.3650  139.8490 O   0  0  0  0  0  0  0  0  0  0  0  0
  190.2760  176.2240  142.5310 C   0  0  0  0  0  1  0  0  0  0  0  0
  189.0790  176.6680  141.9700 O   0  0  0  0  0  0  0  0  0  0  0  0
  180.6390  180.0610  140.6330 C   0  0  0  0  0  2  0  0  0  0  0  0
  180.8480  180.4130  139.3110 F   0  0  0  0  0  0  0  0  0  0  0  0
  1 24  1  6  0  0  0
  1  2  1  0  0  0  0
  1 12  1  0  0  0  0
  2 16  1  0  0  0  0
  3  6  1  0  0  0  0
  4  1  1  0  0  0  0
  5  8  1  0  0  0  0
  7  5  1  6  0  0  0
  7  4  1  0  0  0  0
  7 13  1  0  0  0  0
  8  7  1  0  0  0  0
  9 10  1  0  0  0  0
 11  2  2  0  0  0  0
 11 15  1  0  0  0  0
 12 13  1  6  0  0  0
 12  3  1  0  0  0  0
 14  9  1  0  0  0  0
 15 14  2  0  0  0  0
 16  9  2  0  0  0  0
 16  6  1  0  0  0  0
 17 18  2  0  0  0  0
 17 15  1  0  0  0  0
 19 23  1  1  0  0  0
 20 19  1  0  0  0  0
 20 18  1  1  0  0  0
 21 20  1  0  0  0  0
 21 19  1  0  0  0  0
 23 22  1  0  0  0  0
 25 24  1  0  0  0  0
M  END
>  <MODEL>
8

>  <REMARK>
 VINA RESULT:      -6.6      4.052      7.948
  Name = 
  4 active torsions:
  status: ('A' for Active; 'I' for Inactive)
    1  A    between atoms: C_1  and  C_17
    2  A    between atoms: C_2  and  O_12
    3  A    between atoms: N_6  and  C_23
    4  A    between atoms: C_15  and  C_21
                            x       y       z     vdW  Elec       q    Type
                         _______ _______ _______ _____ _____    ______ ____

>  <TORSDO>
F 4

$$$$
=
 OpenBabel10262419553D

 25 29  0  0  1  0  0  0  0  0999 V2000
  190.0600  177.2050  141.7400 C   0  0  1  0  0  0  0  0  0  0  0  0
  190.2090  177.2330  140.2390 C   0  0  0  0  0  0  0  0  0  0  0  0
  187.9890  178.6380  141.5730 C   0  0  0  0  0  2  0  0  0  0  0  0
  191.3510  177.2180  142.5520 C   0  0  0  0  0  2  0  0  0  0  0  0
  191.5970  177.8260  145.0770 C   0  0  0  0  0  2  0  0  0  0  0  0
  188.1020  178.5340  140.1150 N   0  0  0  0  0  2  0  0  0  0  0  0
  190.9380  177.9960  143.7930 C   0  0  1  0  0  0  0  0  0  0  0  0
  191.9740  178.9510  144.2000 N   0  0  0  0  0  2  0  0  0  0  0  0
  189.2640  177.7920  138.0620 C   0  0  0  0  0  0  0  0  0  0  0  0
  188.2180  178.4310  137.2130 C   0  0  0  0  0  1  0  0  0  0  0  0
  191.2680  176.5720  139.6000 C   0  0  0  0  0  3  0  0  0  0  0  0
  189.3840  178.5080  142.1620 C   0  0  1  0  0  3  0  0  0  0  0  0
  189.5850  178.6630  143.6520 C   0  0  0  0  0  2  0  0  0  0  0  0
  190.3360  177.1450  137.4420 C   0  0  0  0  0  3  0  0  0  0  0  0
  191.3430  176.5340  138.2060 C   0  0  0  0  0  0  0  0  0  0  0  0
  189.1860  177.8350  139.4630 C   0  0  0  0  0  0  0  0  0  0  0  0
  192.4460  175.8570  137.5910 N   0  0  0  0  0  0  0  0  0  0  0  0
  193.0460  176.2980  136.5330 C   0  0  0  0  0  3  0  0  0  0  0  0
  195.3000  176.3810  135.4170 C   0  0  2  0  0  3  0  0  0  0  0  0
  194.1870  175.5340  135.9460 C   0  0  1  0  0  3  0  0  0  0  0  0
  195.3510  175.7870  136.6940 O   0  0  0  0  0  0  0  0  0  0  0  0
  196.0930  178.3620  134.8420 C   0  0  0  0  0  1  0  0  0  0  0  0
  195.0590  177.7520  135.5530 O   0  0  0  0  0  0  0  0  0  0  0  0
  189.2210  175.9830  142.1490 C   0  0  0  0  0  2  0  0  0  0  0  0
  189.9700  175.0990  142.9070 F   0  0  0  0  0  0  0  0  0  0  0  0
  1 24  1  1  0  0  0
  1 12  1  0  0  0  0
  1  4  1  0  0  0  0
  2  1  1  0  0  0  0
  6  3  1  0  0  0  0
  7  4  1  6  0  0  0
  7  8  1  0  0  0  0
  7  5  1  0  0  0  0
  8  5  1  0  0  0  0
  9 16  1  0  0  0  0
 10  9  1  0  0  0  0
 11  2  1  0  0  0  0
 12  3  1  1  0  0  0
 12 13  1  0  0  0  0
 13  7  1  0  0  0  0
 14  9  2  0  0  0  0
 14 15  1  0  0  0  0
 15 11  2  0  0  0  0
 16  6  1  0  0  0  0
 16  2  2  0  0  0  0
 17 15  1  0  0  0  0
 18 17  2  0  0  0  0
 19 23  1  1  0  0  0
 19 20  1  0  0  0  0
 19 21  1  0  0  0  0
 20 18  1  1  0  0  0
 20 21  1  0  0  0  0
 22 23  1  0  0  0  0
 24 25  1  0  0  0  0
M  END
>  <MODEL>
9

>  <REMARK>
 VINA RESULT:      -6.6      5.879      8.218
  Name = 
  4 active torsions:
  status: ('A' for Active; 'I' for Inactive)
    1  A    between atoms: C_1  and  C_17
    2  A    between atoms: C_2  and  O_12
    3  A    between atoms: N_6  and  C_23
    4  A    between atoms: C_15  and  C_21
                            x       y       z     vdW  Elec       q    Type
                         _______ _______ _______ _____ _____    ______ ____

>  <TORSDO>
F 4

$$$$
