=
 OpenBabel10262419103D

 34 39  0  0  1  0  0  0  0  0999 V2000
  191.3350  177.4450  146.7410 C   0  0  2  0  0  3  0  0  0  0  0  0
  191.6060  175.3630  145.3120 C   0  0  0  0  0  0  0  0  0  0  0  0
  190.3270  177.3310  144.4690 N   0  0  0  0  0  0  0  0  0  0  0  0
  189.2910  177.4630  142.2030 C   0  0  0  0  0  0  0  0  0  0  0  0
  192.2480  175.3080  147.6590 C   0  0  0  0  0  2  0  0  0  0  0  0
  192.0560  174.7240  146.3440 N   0  0  0  0  0  0  0  0  0  0  0  0
  191.7040  177.4350  142.4720 C   0  0  0  0  0  3  0  0  0  0  0  0
  191.4400  176.8780  145.3220 C   0  0  1  0  0  3  0  0  0  0  0  0
  191.8540  177.5040  141.0100 C   0  0  0  0  0  3  0  0  0  0  0  0
  189.3880  177.3500  140.7070 C   0  0  0  0  0  2  0  0  0  0  0  0
  192.4240  176.8250  147.6060 C   0  0  0  0  0  2  0  0  0  0  0  0
  189.0120  177.5900  145.0230 C   0  0  0  0  0  0  0  0  0  0  0  0
  189.9520  177.1590  147.3190 C   0  0  0  0  0  2  0  0  0  0  0  0
  191.4740  174.6050  144.0330 C   0  0  0  0  0  1  0  0  0  0  0  0
  188.1280  177.5750  142.7660 N   0  0  0  0  0  0  0  0  0  0  0  0
  187.9430  177.7050  144.1890 C   0  0  0  0  0  0  0  0  0  0  0  0
  190.7970  177.4830  140.1820 C   0  0  0  0  0  0  0  0  0  0  0  0
  190.4960  177.4090  143.0420 C   0  0  0  0  0  0  0  0  0  0  0  0
  188.8820  177.8580  146.5000 C   0  0  0  0  0  2  0  0  0  0  0  0
  184.2630  178.5730  144.1220 C   0  0  0  0  0  0  0  0  0  0  0  0
  183.9380  178.5770  145.4800 C   0  0  0  0  0  3  0  0  0  0  0  0
  186.5580  177.9680  144.6590 C   0  0  0  0  0  0  0  0  0  0  0  0
  184.9190  178.2880  146.4310 C   0  0  0  0  0  3  0  0  0  0  0  0
  185.5670  178.2770  143.7150 C   0  0  0  0  0  3  0  0  0  0  0  0
  186.2220  177.9920  146.0230 C   0  0  0  0  0  3  0  0  0  0  0  0
  183.2230  178.8890  143.1080 C   0  0  0  0  0  1  0  0  0  0  0  0
  190.9670  177.5600  138.7960 O   0  0  0  0  0  0  0  0  0  0  0  0
  190.2700  176.7250  137.8790 C   0  0  0  0  0  2  0  0  0  0  0  0
  188.9450  179.7130  137.5530 O   0  0  0  0  0  1  0  0  0  0  0  0
  188.5110  178.4010  137.3630 C   0  0  2  0  0  3  0  0  0  0  0  0
  187.7700  177.5000  135.3260 C   0  0  0  0  0  2  0  0  0  0  0  0
  188.9710  176.6960  135.7640 C   0  0  0  0  0  2  0  0  0  0  0  0
  189.6360  177.5690  136.7890 C   0  0  2  0  0  3  0  0  0  0  0  0
  187.3940  178.3840  136.4240 N   0  0  0  0  0  2  0  0  0  0  0  0
  1 13  1  1  0  0  0
  1 11  1  0  0  0  0
  2  6  2  0  0  0  0
  3 12  1  0  0  0  0
  3  8  1  0  0  0  0
  4 15  2  0  0  0  0
  4 18  1  0  0  0  0
  6  5  1  0  0  0  0
  7 18  2  0  0  0  0
  8  2  1  1  0  0  0
  8  1  1  0  0  0  0
  9  7  1  0  0  0  0
 10  4  1  0  0  0  0
 11  5  1  0  0  0  0
 12 19  1  0  0  0  0
 14  2  1  0  0  0  0
 15 16  1  0  0  0  0
 16 22  1  0  0  0  0
 16 12  2  0  0  0  0
 17 10  1  0  0  0  0
 17  9  2  0  0  0  0
 18  3  1  0  0  0  0
 19 13  1  0  0  0  0
 20 21  1  0  0  0  0
 21 23  2  0  0  0  0
 22 25  2  0  0  0  0
 24 20  2  0  0  0  0
 24 22  1  0  0  0  0
 25 23  1  0  0  0  0
 26 20  1  0  0  0  0
 27 17  1  0  0  0  0
 28 27  1  0  0  0  0
 30 29  1  6  0  0  0
 31 32  1  0  0  0  0
 31 34  1  0  0  0  0
 32 33  1  0  0  0  0
 33 30  1  0  0  0  0
 33 28  1  1  0  0  0
 34 30  1  0  0  0  0
M  END
>  <MODEL>
1

>  <REMARK>
 VINA RESULT:      -9.2      0.000      0.000
  Name = 
  4 active torsions:
  status: ('A' for Active; 'I' for Inactive)
    1  A    between atoms: O_3  and  C_13
    2  A    between atoms: O_3  and  C_29
    3  A    between atoms: C_12  and  C_28
    4  A    between atoms: C_13  and  C_33
                            x       y       z     vdW  Elec       q    Type
                         _______ _______ _______ _____ _____    ______ ____

>  <TORSDO>
F 4

$$$$
=
 OpenBabel10262419103D

 34 39  0  0  1  0  0  0  0  0999 V2000
  191.3230  177.4410  146.7220 C   0  0  2  0  0  3  0  0  0  0  0  0
  191.6030  175.3590  145.2950 C   0  0  0  0  0  0  0  0  0  0  0  0
  190.3310  177.3290  144.4430 N   0  0  0  0  0  0  0  0  0  0  0  0
  189.3120  177.4620  142.1700 C   0  0  0  0  0  0  0  0  0  0  0  0
  192.2290  175.3030  147.6460 C   0  0  0  0  0  2  0  0  0  0  0  0
  192.0450  174.7200  146.3290 N   0  0  0  0  0  0  0  0  0  0  0  0
  191.7220  177.4320  142.4570 C   0  0  0  0  0  3  0  0  0  0  0  0
  191.4380  176.8750  145.3040 C   0  0  1  0  0  3  0  0  0  0  0  0
  191.8830  177.5030  140.9960 C   0  0  0  0  0  3  0  0  0  0  0  0
  189.4190  177.3490  140.6750 C   0  0  0  0  0  2  0  0  0  0  0  0
  192.4050  176.8190  147.5950 C   0  0  0  0  0  2  0  0  0  0  0  0
  189.0120  177.5880  144.9880 C   0  0  0  0  0  0  0  0  0  0  0  0
  189.9360  177.1550  147.2910 C   0  0  0  0  0  2  0  0  0  0  0  0
  191.4800  174.6020  144.0140 C   0  0  0  0  0  1  0  0  0  0  0  0
  188.1440  177.5740  142.7250 N   0  0  0  0  0  0  0  0  0  0  0  0
  187.9490  177.7040  144.1470 C   0  0  0  0  0  0  0  0  0  0  0  0
  190.8320  177.4820  140.1600 C   0  0  0  0  0  0  0  0  0  0  0  0
  190.5100  177.4070  143.0180 C   0  0  0  0  0  0  0  0  0  0  0  0
  188.8720  177.8550  146.4650 C   0  0  0  0  0  2  0  0  0  0  0  0
  184.2630  178.5440  144.0500 C   0  0  0  0  0  0  0  0  0  0  0  0
  183.9340  178.5750  145.4070 C   0  0  0  0  0  3  0  0  0  0  0  0
  186.5610  177.9670  144.6070 C   0  0  0  0  0  0  0  0  0  0  0  0
  184.9150  178.3140  146.3670 C   0  0  0  0  0  3  0  0  0  0  0  0
  185.5710  178.2490  143.6530 C   0  0  0  0  0  3  0  0  0  0  0  0
  186.2210  178.0180  145.9690 C   0  0  0  0  0  3  0  0  0  0  0  0
  183.2240  178.8310  143.0270 C   0  0  0  0  0  1  0  0  0  0  0  0
  191.0120  177.5600  138.7750 O   0  0  0  0  0  0  0  0  0  0  0  0
  190.6650  176.5050  137.8860 C   0  0  0  0  0  2  0  0  0  0  0  0
  193.9080  176.2110  138.3140 O   0  0  0  0  0  1  0  0  0  0  0  0
  192.9940  175.8480  137.3250 C   0  0  2  0  0  3  0  0  0  0  0  0
  192.5650  173.6520  136.6150 C   0  0  0  0  0  2  0  0  0  0  0  0
  191.2700  174.2130  137.1520 C   0  0  0  0  0  2  0  0  0  0  0  0
  191.7010  175.3990  137.9660 C   0  0  2  0  0  3  0  0  0  0  0  0
  193.5320  174.7420  136.5400 N   0  0  0  0  0  2  0  0  0  0  0  0
  1 13  1  1  0  0  0
  1 11  1  0  0  0  0
  2  6  2  0  0  0  0
  3 12  1  0  0  0  0
  3  8  1  0  0  0  0
  4 15  2  0  0  0  0
  4 18  1  0  0  0  0
  6  5  1  0  0  0  0
  7 18  2  0  0  0  0
  8  2  1  1  0  0  0
  8  1  1  0  0  0  0
  9  7  1  0  0  0  0
 10  4  1  0  0  0  0
 11  5  1  0  0  0  0
 12 19  1  0  0  0  0
 14  2  1  0  0  0  0
 15 16  1  0  0  0  0
 16 22  1  0  0  0  0
 16 12  2  0  0  0  0
 17 10  1  0  0  0  0
 17  9  2  0  0  0  0
 18  3  1  0  0  0  0
 19 13  1  0  0  0  0
 20 21  1  0  0  0  0
 21 23  2  0  0  0  0
 22 25  2  0  0  0  0
 24 20  2  0  0  0  0
 24 22  1  0  0  0  0
 25 23  1  0  0  0  0
 26 20  1  0  0  0  0
 27 17  1  0  0  0  0
 28 27  1  0  0  0  0
 30 33  1  0  0  0  0
 30 29  1  1  0  0  0
 31 32  1  0  0  0  0
 32 33  1  0  0  0  0
 33 28  1  6  0  0  0
 34 31  1  0  0  0  0
 34 30  1  0  0  0  0
M  END
>  <MODEL>
2

>  <REMARK>
 VINA RESULT:      -9.0      1.701      2.291
  Name = 
  4 active torsions:
  status: ('A' for Active; 'I' for Inactive)
    1  A    between atoms: O_3  and  C_13
    2  A    between atoms: O_3  and  C_29
    3  A    between atoms: C_12  and  C_28
    4  A    between atoms: C_13  and  C_33
                            x       y       z     vdW  Elec       q    Type
                         _______ _______ _______ _____ _____    ______ ____

>  <TORSDO>
F 4

$$$$
=
 OpenBabel10262419103D

 34 39  0  0  1  0  0  0  0  0999 V2000
  188.8000  178.6840  138.8390 C   0  0  2  0  0  3  0  0  0  0  0  0
  187.0960  177.0290  137.9400 C   0  0  0  0  0  0  0  0  0  0  0  0
  186.5250  178.5460  139.8370 N   0  0  0  0  0  0  0  0  0  0  0  0
  184.2900  178.6250  140.9420 C   0  0  0  0  0  0  0  0  0  0  0  0
  189.4170  176.8770  137.2270 C   0  0  0  0  0  2  0  0  0  0  0  0
  188.0320  176.4460  137.2640 N   0  0  0  0  0  0  0  0  0  0  0  0
  184.5760  179.3770  138.6510 C   0  0  0  0  0  3  0  0  0  0  0  0
  187.3170  178.3840  138.6040 C   0  0  1  0  0  3  0  0  0  0  0  0
  183.1390  179.6900  138.5890 C   0  0  0  0  0  3  0  0  0  0  0  0
  182.7940  178.7550  140.8700 C   0  0  0  0  0  3  0  0  0  0  0  0
  189.5800  178.3560  137.5730 C   0  0  0  0  0  2  0  0  0  0  0  0
  187.0970  178.2690  141.1400 C   0  0  0  0  0  0  0  0  0  0  0  0
  189.3190  177.8730  140.0220 C   0  0  0  0  0  2  0  0  0  0  0  0
  185.7210  176.4520  137.8590 C   0  0  0  0  0  1  0  0  0  0  0  0
  184.8510  178.2610  142.0530 N   0  0  0  0  0  0  0  0  0  0  0  0
  186.2770  178.1280  142.2170 C   0  0  0  0  0  0  0  0  0  0  0  0
  182.3070  179.4250  139.6090 C   0  0  0  0  0  0  0  0  0  0  0  0
  185.1250  178.8680  139.7580 C   0  0  1  0  0  3  0  0  0  0  0  0
  188.5960  178.2740  141.2960 C   0  0  0  0  0  2  0  0  0  0  0  0
  186.4290  178.0250  145.9940 C   0  0  0  0  0  0  0  0  0  0  0  0
  187.6710  177.4260  146.2210 C   0  0  0  0  0  3  0  0  0  0  0  0
  186.7660  177.8420  143.5910 C   0  0  0  0  0  0  0  0  0  0  0  0
  188.4680  177.0450  145.1390 C   0  0  0  0  0  3  0  0  0  0  0  0
  185.9830  178.2370  144.6860 C   0  0  0  0  0  3  0  0  0  0  0  0
  188.0200  177.2570  143.8330 C   0  0  0  0  0  3  0  0  0  0  0  0
  185.5840  178.4410  147.1440 C   0  0  0  0  0  1  0  0  0  0  0  0
  180.9460  179.7430  139.5270 O   0  0  0  0  0  0  0  0  0  0  0  0
  179.9120  178.8120  139.8250 C   0  0  0  0  0  2  0  0  0  0  0  0
  178.9330  181.6160  141.2270 O   0  0  0  0  0  1  0  0  0  0  0  0
  179.7440  180.5430  141.5980 C   0  0  2  0  0  3  0  0  0  0  0  0
  179.3590  179.1210  143.4250 C   0  0  0  0  0  2  0  0  0  0  0  0
  179.3530  178.2660  142.1810 C   0  0  0  0  0  2  0  0  0  0  0  0
  179.1590  179.2540  141.0660 C   0  0  2  0  0  3  0  0  0  0  0  0
  179.8110  180.4570  143.0530 N   0  0  0  0  0  2  0  0  0  0  0  0
  1 11  1  6  0  0  0
  1 13  1  0  0  0  0
  3 12  1  0  0  0  0
  4 15  2  0  0  0  0
  5  6  1  0  0  0  0
  5 11  1  0  0  0  0
  6  2  2  0  0  0  0
  8  2  1  1  0  0  0
  8  1  1  0  0  0  0
  8  3  1  0  0  0  0
  9  7  2  0  0  0  0
  9 17  1  0  0  0  0
 10  4  1  0  0  0  0
 12 19  1  0  0  0  0
 12 16  2  0  0  0  0
 13 19  1  0  0  0  0
 14  2  1  0  0  0  0
 15 16  1  0  0  0  0
 16 22  1  0  0  0  0
 17 10  2  0  0  0  0
 18  7  1  1  0  0  0
 18  3  1  0  0  0  0
 18  4  1  0  0  0  0
 20 21  1  0  0  0  0
 20 26  1  0  0  0  0
 22 25  2  0  0  0  0
 22 24  1  0  0  0  0
 23 21  2  0  0  0  0
 24 20  2  0  0  0  0
 25 23  1  0  0  0  0
 27 17  1  0  0  0  0
 27 28  1  0  0  0  0
 30 29  1  1  0  0  0
 30 34  1  0  0  0  0
 32 31  1  0  0  0  0
 33 28  1  6  0  0  0
 33 30  1  0  0  0  0
 33 32  1  0  0  0  0
 34 31  1  0  0  0  0
M  END
>  <MODEL>
3

>  <REMARK>
 VINA RESULT:      -8.7      3.839      7.944
  Name = 
  4 active torsions:
  status: ('A' for Active; 'I' for Inactive)
    1  A    between atoms: O_3  and  C_13
    2  A    between atoms: O_3  and  C_29
    3  A    between atoms: C_12  and  C_28
    4  A    between atoms: C_13  and  C_33
                            x       y       z     vdW  Elec       q    Type
                         _______ _______ _______ _____ _____    ______ ____

>  <TORSDO>
F 4

$$$$
=
 OpenBabel10262419103D

 34 39  0  0  1  0  0  0  0  0999 V2000
  188.6910  178.6260  138.6190 C   0  0  2  0  0  3  0  0  0  0  0  0
  186.9790  176.9480  137.7800 C   0  0  0  0  0  0  0  0  0  0  0  0
  186.4310  178.5040  139.6520 N   0  0  0  0  0  0  0  0  0  0  0  0
  184.2120  178.6020  140.7870 C   0  0  0  0  0  0  0  0  0  0  0  0
  189.2910  176.7860  137.0370 C   0  0  0  0  0  2  0  0  0  0  0  0
  187.9070  176.3530  137.1020 N   0  0  0  0  0  0  0  0  0  0  0  0
  184.4640  179.3050  138.4760 C   0  0  0  0  0  3  0  0  0  0  0  0
  187.2060  178.3170  138.4110 C   0  0  1  0  0  3  0  0  0  0  0  0
  183.0260  179.6140  138.4280 C   0  0  0  0  0  3  0  0  0  0  0  0
  182.7150  178.7270  140.7330 C   0  0  0  0  0  3  0  0  0  0  0  0
  189.4540  178.2730  137.3490 C   0  0  0  0  0  2  0  0  0  0  0  0
  187.0220  178.2560  140.9520 C   0  0  0  0  0  0  0  0  0  0  0  0
  189.2290  177.8420  139.8120 C   0  0  0  0  0  2  0  0  0  0  0  0
  185.6050  176.3660  137.7310 C   0  0  0  0  0  1  0  0  0  0  0  0
  184.7900  178.2630  141.8970 N   0  0  0  0  0  0  0  0  0  0  0  0
  186.2190  178.1360  142.0440 C   0  0  0  0  0  0  0  0  0  0  0  0
  182.2080  179.3690  139.4650 C   0  0  0  0  0  0  0  0  0  0  0  0
  185.0290  178.8210  139.5860 C   0  0  1  0  0  3  0  0  0  0  0  0
  188.5230  178.2670  141.0860 C   0  0  0  0  0  2  0  0  0  0  0  0
  186.4110  178.0900  145.8200 C   0  0  0  0  0  0  0  0  0  0  0  0
  187.6680  177.5220  146.0420 C   0  0  0  0  0  3  0  0  0  0  0  0
  186.7270  177.8800  143.4160 C   0  0  0  0  0  0  0  0  0  0  0  0
  188.4620  177.1430  144.9570 C   0  0  0  0  0  3  0  0  0  0  0  0
  185.9470  178.2740  144.5140 C   0  0  0  0  0  3  0  0  0  0  0  0
  187.9960  177.3270  143.6530 C   0  0  0  0  0  3  0  0  0  0  0  0
  185.5680  178.5030  146.9720 C   0  0  0  0  0  1  0  0  0  0  0  0
  180.8460  179.6810  139.3960 O   0  0  0  0  0  0  0  0  0  0  0  0
  180.2940  180.8760  139.9370 C   0  0  0  0  0  2  0  0  0  0  0  0
  180.7060  181.4760  136.7340 O   0  0  0  0  0  1  0  0  0  0  0  0
  180.6550  182.2460  137.8960 C   0  0  2  0  0  3  0  0  0  0  0  0
  179.0820  183.9320  138.3370 C   0  0  0  0  0  2  0  0  0  0  0  0
  178.9310  182.8830  139.4120 C   0  0  0  0  0  2  0  0  0  0  0  0
  179.6190  181.6770  138.8390 C   0  0  2  0  0  3  0  0  0  0  0  0
  180.2780  183.6160  137.5630 N   0  0  0  0  0  2  0  0  0  0  0  0
  1 11  1  6  0  0  0
  1 13  1  0  0  0  0
  3 12  1  0  0  0  0
  4 15  2  0  0  0  0
  5  6  1  0  0  0  0
  5 11  1  0  0  0  0
  6  2  2  0  0  0  0
  8  2  1  1  0  0  0
  8  1  1  0  0  0  0
  8  3  1  0  0  0  0
  9  7  2  0  0  0  0
  9 17  1  0  0  0  0
 10  4  1  0  0  0  0
 12 19  1  0  0  0  0
 12 16  2  0  0  0  0
 13 19  1  0  0  0  0
 14  2  1  0  0  0  0
 15 16  1  0  0  0  0
 16 22  1  0  0  0  0
 17 10  2  0  0  0  0
 18  7  1  1  0  0  0
 18  3  1  0  0  0  0
 18  4  1  0  0  0  0
 20 21  1  0  0  0  0
 20 26  1  0  0  0  0
 22 25  2  0  0  0  0
 22 24  1  0  0  0  0
 23 21  2  0  0  0  0
 24 20  2  0  0  0  0
 25 23  1  0  0  0  0
 27 17  1  0  0  0  0
 27 28  1  0  0  0  0
 30 29  1  6  0  0  0
 30 33  1  0  0  0  0
 31 32  1  0  0  0  0
 33 32  1  0  0  0  0
 33 28  1  1  0  0  0
 34 30  1  0  0  0  0
 34 31  1  0  0  0  0
M  END
>  <MODEL>
4

>  <REMARK>
 VINA RESULT:      -8.5      4.175      7.856
  Name = 
  4 active torsions:
  status: ('A' for Active; 'I' for Inactive)
    1  A    between atoms: O_3  and  C_13
    2  A    between atoms: O_3  and  C_29
    3  A    between atoms: C_12  and  C_28
    4  A    between atoms: C_13  and  C_33
                            x       y       z     vdW  Elec       q    Type
                         _______ _______ _______ _____ _____    ______ ____

>  <TORSDO>
F 4

$$$$
=
 OpenBabel10262419103D

 34 39  0  0  1  0  0  0  0  0999 V2000
  186.8510  176.1910  136.5850 C   0  0  2  0  0  3  0  0  0  0  0  0
  188.6170  178.0050  136.7820 C   0  0  0  0  0  0  0  0  0  0  0  0
  187.1190  177.4690  138.7030 N   0  0  0  0  0  0  0  0  0  0  0  0
  187.2550  178.5740  140.9350 C   0  0  0  0  0  0  0  0  0  0  0  0
  188.1050  177.0500  134.6020 C   0  0  0  0  0  2  0  0  0  0  0  0
  188.7950  177.9580  135.5010 N   0  0  0  0  0  0  0  0  0  0  0  0
  189.0300  177.1110  140.1570 C   0  0  0  0  0  3  0  0  0  0  0  0
  187.8110  176.9380  137.5140 C   0  0  1  0  0  3  0  0  0  0  0  0
  189.7630  177.3560  141.4100 C   0  0  0  0  0  3  0  0  0  0  0  0
  188.0420  179.0000  142.1430 C   0  0  0  0  0  3  0  0  0  0  0  0
  187.5920  175.8000  135.3140 C   0  0  0  0  0  2  0  0  0  0  0  0
  185.7350  177.8950  138.6400 C   0  0  0  0  0  0  0  0  0  0  0  0
  185.6440  177.0670  136.2630 C   0  0  0  0  0  2  0  0  0  0  0  0
  189.4170  179.0010  137.5550 C   0  0  0  0  0  1  0  0  0  0  0  0
  186.0500  179.0210  140.7630 N   0  0  0  0  0  0  0  0  0  0  0  0
  185.2180  178.6530  139.6440 C   0  0  0  0  0  0  0  0  0  0  0  0
  189.3140  178.2110  142.3430 C   0  0  0  0  0  0  0  0  0  0  0  0
  187.8480  177.6880  139.9240 C   0  0  1  0  0  3  0  0  0  0  0  0
  184.8620  177.3760  137.5260 C   0  0  0  0  0  2  0  0  0  0  0  0
  181.5770  178.9750  140.6140 C   0  0  0  0  0  0  0  0  0  0  0  0
  181.1180  179.9360  139.7100 C   0  0  0  0  0  3  0  0  0  0  0  0
  183.8150  179.1400  139.6700 C   0  0  0  0  0  0  0  0  0  0  0  0
  181.9970  180.4920  138.7790 C   0  0  0  0  0  3  0  0  0  0  0  0
  182.9170  178.5750  140.5890 C   0  0  0  0  0  3  0  0  0  0  0  0
  183.3350  180.0920  138.7550 C   0  0  0  0  0  3  0  0  0  0  0  0
  180.6420  178.3740  141.6000 C   0  0  0  0  0  1  0  0  0  0  0  0
  190.0250  178.4190  143.5300 O   0  0  0  0  0  0  0  0  0  0  0  0
  190.2190  177.4030  144.5080 C   0  0  0  0  0  2  0  0  0  0  0  0
  191.0010  177.2030  147.6910 O   0  0  0  0  0  1  0  0  0  0  0  0
  189.9220  176.8080  146.9000 C   0  0  2  0  0  3  0  0  0  0  0  0
  187.7090  177.5460  147.1610 C   0  0  0  0  0  2  0  0  0  0  0  0
  188.1580  177.9500  145.7770 C   0  0  0  0  0  2  0  0  0  0  0  0
  189.6560  177.8550  145.8420 C   0  0  2  0  0  3  0  0  0  0  0  0
  188.7290  176.6720  147.7290 N   0  0  0  0  0  2  0  0  0  0  0  0
  1 11  1  6  0  0  0
  1  8  1  0  0  0  0
  2 14  1  0  0  0  0
  3 18  1  0  0  0  0
  4 10  1  0  0  0  0
  5 11  1  0  0  0  0
  5  6  1  0  0  0  0
  6  2  2  0  0  0  0
  7  9  2  0  0  0  0
  8  2  1  6  0  0  0
  8  3  1  0  0  0  0
  9 17  1  0  0  0  0
 10 17  2  0  0  0  0
 12  3  1  0  0  0  0
 12 16  2  0  0  0  0
 13  1  1  0  0  0  0
 13 19  1  0  0  0  0
 15  4  2  0  0  0  0
 16 22  1  0  0  0  0
 16 15  1  0  0  0  0
 17 27  1  0  0  0  0
 18  7  1  1  0  0  0
 18  4  1  0  0  0  0
 19 12  1  0  0  0  0
 20 26  1  0  0  0  0
 21 20  2  0  0  0  0
 22 24  2  0  0  0  0
 23 21  1  0  0  0  0
 24 20  1  0  0  0  0
 25 23  2  0  0  0  0
 25 22  1  0  0  0  0
 27 28  1  0  0  0  0
 30 29  1  1  0  0  0
 30 34  1  0  0  0  0
 31 34  1  0  0  0  0
 32 33  1  0  0  0  0
 32 31  1  0  0  0  0
 33 28  1  6  0  0  0
 33 30  1  0  0  0  0
M  END
>  <MODEL>
5

>  <REMARK>
 VINA RESULT:      -8.5      3.026      8.188
  Name = 
  4 active torsions:
  status: ('A' for Active; 'I' for Inactive)
    1  A    between atoms: O_3  and  C_13
    2  A    between atoms: O_3  and  C_29
    3  A    between atoms: C_12  and  C_28
    4  A    between atoms: C_13  and  C_33
                            x       y       z     vdW  Elec       q    Type
                         _______ _______ _______ _____ _____    ______ ____

>  <TORSDO>
F 4

$$$$
=
 OpenBabel10262419103D

 34 39  0  0  1  0  0  0  0  0999 V2000
  188.3720  178.7530  138.5180 C   0  0  2  0  0  3  0  0  0  0  0  0
  186.6540  177.0480  137.7510 C   0  0  0  0  0  0  0  0  0  0  0  0
  186.1860  178.5490  139.6880 N   0  0  0  0  0  0  0  0  0  0  0  0
  184.0420  178.5630  140.9630 C   0  0  0  0  0  0  0  0  0  0  0  0
  188.9170  176.9640  136.8610 C   0  0  0  0  0  2  0  0  0  0  0  0
  187.5520  176.4930  137.0040 N   0  0  0  0  0  0  0  0  0  0  0  0
  184.1280  179.3210  138.6580 C   0  0  0  0  0  3  0  0  0  0  0  0
  186.8850  178.4090  138.3980 C   0  0  1  0  0  3  0  0  0  0  0  0
  182.6820  179.5920  138.7070 C   0  0  0  0  0  3  0  0  0  0  0  0
  182.5420  178.6490  141.0070 C   0  0  0  0  0  3  0  0  0  0  0  0
  189.0620  178.4480  137.1950 C   0  0  0  0  0  2  0  0  0  0  0  0
  186.8650  178.2900  140.9430 C   0  0  0  0  0  0  0  0  0  0  0  0
  189.0050  177.9590  139.6570 C   0  0  0  0  0  2  0  0  0  0  0  0
  185.2950  176.4300  137.7760 C   0  0  0  0  0  1  0  0  0  0  0  0
  184.6980  178.2170  142.0270 N   0  0  0  0  0  0  0  0  0  0  0  0
  186.1350  178.1260  142.0800 C   0  0  0  0  0  0  0  0  0  0  0  0
  181.9390  179.3030  139.7880 C   0  0  0  0  0  0  0  0  0  0  0  0
  184.7750  178.8290  139.7180 C   0  0  1  0  0  3  0  0  0  0  0  0
  188.3710  178.3390  140.9830 C   0  0  0  0  0  2  0  0  0  0  0  0
  186.5910  178.0490  145.8330 C   0  0  0  0  0  0  0  0  0  0  0  0
  187.8560  177.4700  145.9630 C   0  0  0  0  0  3  0  0  0  0  0  0
  186.7360  177.8560  143.4120 C   0  0  0  0  0  0  0  0  0  0  0  0
  188.5680  177.0920  144.8220 C   0  0  0  0  0  3  0  0  0  0  0  0
  186.0390  178.2470  144.5640 C   0  0  0  0  0  3  0  0  0  0  0  0
  188.0140  177.2890  143.5550 C   0  0  0  0  0  3  0  0  0  0  0  0
  185.8360  178.4610  147.0440 C   0  0  0  0  0  1  0  0  0  0  0  0
  180.5680  179.5800  139.8120 O   0  0  0  0  0  0  0  0  0  0  0  0
  179.6650  178.9600  140.7200 C   0  0  0  0  0  2  0  0  0  0  0  0
  178.9340  175.8080  141.2840 O   0  0  0  0  0  1  0  0  0  0  0  0
  179.6260  176.5130  140.2990 C   0  0  2  0  0  3  0  0  0  0  0  0
  179.0610  176.5690  138.0210 C   0  0  0  0  0  2  0  0  0  0  0  0
  179.0000  177.9870  138.5360 C   0  0  0  0  0  2  0  0  0  0  0  0
  178.9310  177.8270  140.0280 C   0  0  2  0  0  3  0  0  0  0  0  0
  179.6500  175.7360  139.0640 N   0  0  0  0  0  2  0  0  0  0  0  0
  1 11  1  6  0  0  0
  1 13  1  0  0  0  0
  2 14  1  0  0  0  0
  3 18  1  0  0  0  0
  3 12  1  0  0  0  0
  4 10  1  0  0  0  0
  4 15  2  0  0  0  0
  5  6  1  0  0  0  0
  5 11  1  0  0  0  0
  6  2  2  0  0  0  0
  7  9  2  0  0  0  0
  8  2  1  1  0  0  0
  8  1  1  0  0  0  0
  8  3  1  0  0  0  0
  9 17  1  0  0  0  0
 12 19  1  0  0  0  0
 12 16  2  0  0  0  0
 13 19  1  0  0  0  0
 15 16  1  0  0  0  0
 16 22  1  0  0  0  0
 17 27  1  0  0  0  0
 17 10  2  0  0  0  0
 18  7  1  1  0  0  0
 18  4  1  0  0  0  0
 20 21  1  0  0  0  0
 20 26  1  0  0  0  0
 22 25  2  0  0  0  0
 22 24  1  0  0  0  0
 23 21  2  0  0  0  0
 24 20  2  0  0  0  0
 25 23  1  0  0  0  0
 27 28  1  0  0  0  0
 30 29  1  1  0  0  0
 31 32  1  0  0  0  0
 31 34  1  0  0  0  0
 32 33  1  0  0  0  0
 33 30  1  0  0  0  0
 33 28  1  1  0  0  0
 34 30  1  0  0  0  0
M  END
>  <MODEL>
6

>  <REMARK>
 VINA RESULT:      -8.4      4.175      7.966
  Name = 
  4 active torsions:
  status: ('A' for Active; 'I' for Inactive)
    1  A    between atoms: O_3  and  C_13
    2  A    between atoms: O_3  and  C_29
    3  A    between atoms: C_12  and  C_28
    4  A    between atoms: C_13  and  C_33
                            x       y       z     vdW  Elec       q    Type
                         _______ _______ _______ _____ _____    ______ ____

>  <TORSDO>
F 4

$$$$
=
 OpenBabel10262419103D

 34 39  0  0  1  0  0  0  0  0999 V2000
  191.8150  174.5700  137.5780 C   0  0  2  0  0  3  0  0  0  0  0  0
  192.8620  176.6770  138.5350 C   0  0  0  0  0  0  0  0  0  0  0  0
  190.4530  176.1610  138.9210 N   0  0  0  0  0  0  0  0  0  0  0  0
  188.9190  177.5760  140.2880 C   0  0  0  0  0  0  0  0  0  0  0  0
  194.0930  175.3500  136.9070 C   0  0  0  0  0  2  0  0  0  0  0  0
  193.9070  176.4830  137.7960 N   0  0  0  0  0  0  0  0  0  0  0  0
  190.7450  176.3540  141.3230 C   0  0  0  0  0  3  0  0  0  0  0  0
  191.8000  175.5990  138.7120 C   0  0  1  0  0  3  0  0  0  0  0  0
  190.3490  176.8990  142.6320 C   0  0  0  0  0  3  0  0  0  0  0  0
  188.5890  178.2990  141.5640 C   0  0  0  0  0  3  0  0  0  0  0  0
  193.2530  174.1410  137.3160 C   0  0  0  0  0  2  0  0  0  0  0  0
  189.5250  176.3220  137.8170 C   0  0  0  0  0  0  0  0  0  0  0  0
  191.1880  175.1650  136.3210 C   0  0  0  0  0  2  0  0  0  0  0  0
  192.8400  177.8970  139.3940 C   0  0  0  0  0  1  0  0  0  0  0  0
  188.1950  177.7740  139.2310 N   0  0  0  0  0  0  0  0  0  0  0  0
  188.4280  177.1110  137.9720 C   0  0  0  0  0  0  0  0  0  0  0  0
  189.3470  177.7840  142.7630 C   0  0  0  0  0  0  0  0  0  0  0  0
  190.0770  176.6750  140.2110 C   0  0  1  0  0  3  0  0  0  0  0  0
  189.7300  175.5050  136.5670 C   0  0  0  0  0  2  0  0  0  0  0  0
  185.1690  176.9720  136.0580 C   0  0  0  0  0  0  0  0  0  0  0  0
  185.4950  177.6450  134.8770 C   0  0  0  0  0  3  0  0  0  0  0  0
  187.4220  177.3400  136.9020 C   0  0  0  0  0  0  0  0  0  0  0  0
  186.7830  178.1560  134.7000 C   0  0  0  0  0  3  0  0  0  0  0  0
  186.1300  176.8150  137.0610 C   0  0  0  0  0  3  0  0  0  0  0  0
  187.7410  177.9990  135.7040 C   0  0  0  0  0  3  0  0  0  0  0  0
  183.8030  176.4190  136.2450 C   0  0  0  0  0  1  0  0  0  0  0  0
  188.9850  178.2790  144.0210 O   0  0  0  0  0  0  0  0  0  0  0  0
  189.6690  177.9330  145.2190 C   0  0  0  0  0  2  0  0  0  0  0  0
  186.4840  177.1470  145.3690 O   0  0  0  0  0  1  0  0  0  0  0  0
  187.3340  178.0110  146.0600 C   0  0  2  0  0  3  0  0  0  0  0  0
  187.7970  177.9060  148.3590 C   0  0  0  0  0  2  0  0  0  0  0  0
  189.1060  177.7260  147.6270 C   0  0  0  0  0  2  0  0  0  0  0  0
  188.6900  177.3650  146.2290 C   0  0  2  0  0  3  0  0  0  0  0  0
  186.7830  178.2890  147.3820 N   0  0  0  0  0  2  0  0  0  0  0  0
  1 13  1  6  0  0  0
  1  8  1  0  0  0  0
  2 14  1  0  0  0  0
  3 18  1  0  0  0  0
  4 10  1  0  0  0  0
  5 11  1  0  0  0  0
  5  6  1  0  0  0  0
  6  2  2  0  0  0  0
  7  9  2  0  0  0  0
  8  2  1  6  0  0  0
  8  3  1  0  0  0  0
  9 17  1  0  0  0  0
 10 17  2  0  0  0  0
 11  1  1  0  0  0  0
 12 16  2  0  0  0  0
 12  3  1  0  0  0  0
 13 19  1  0  0  0  0
 15  4  2  0  0  0  0
 16 15  1  0  0  0  0
 17 27  1  0  0  0  0
 18  4  1  0  0  0  0
 18  7  1  1  0  0  0
 19 12  1  0  0  0  0
 20 26  1  0  0  0  0
 20 24  1  0  0  0  0
 21 20  2  0  0  0  0
 22 24  2  0  0  0  0
 22 16  1  0  0  0  0
 23 21  1  0  0  0  0
 23 25  2  0  0  0  0
 25 22  1  0  0  0  0
 27 28  1  0  0  0  0
 30 29  1  1  0  0  0
 30 33  1  0  0  0  0
 30 34  1  0  0  0  0
 32 31  1  0  0  0  0
 33 28  1  6  0  0  0
 33 32  1  0  0  0  0
 34 31  1  0  0  0  0
M  END
>  <MODEL>
7

>  <REMARK>
 VINA RESULT:      -8.3      3.056      8.209
  Name = 
  4 active torsions:
  status: ('A' for Active; 'I' for Inactive)
    1  A    between atoms: O_3  and  C_13
    2  A    between atoms: O_3  and  C_29
    3  A    between atoms: C_12  and  C_28
    4  A    between atoms: C_13  and  C_33
                            x       y       z     vdW  Elec       q    Type
                         _______ _______ _______ _____ _____    ______ ____

>  <TORSDO>
F 4

$$$$
=
 OpenBabel10262419103D

 34 39  0  0  1  0  0  0  0  0999 V2000
  186.3920  177.1270  145.5070 C   0  0  2  0  0  3  0  0  0  0  0  0
  185.4850  179.4660  145.1120 C   0  0  0  0  0  0  0  0  0  0  0  0
  186.0370  177.9710  143.1930 N   0  0  0  0  0  0  0  0  0  0  0  0
  185.7000  178.5830  140.7990 C   0  0  0  0  0  0  0  0  0  0  0  0
  186.1950  178.8090  147.3450 C   0  0  0  0  0  2  0  0  0  0  0  0
  185.6800  179.7430  146.3610 N   0  0  0  0  0  0  0  0  0  0  0  0
  183.8050  178.2380  142.2770 C   0  0  0  0  0  3  0  0  0  0  0  0
  185.5690  178.0370  144.5900 C   0  0  1  0  0  3  0  0  0  0  0  0
  182.8960  178.5460  141.1620 C   0  0  0  0  0  3  0  0  0  0  0  0
  184.8250  179.0810  139.6820 C   0  0  0  0  0  2  0  0  0  0  0  0
  185.9580  177.3520  146.9490 C   0  0  0  0  0  2  0  0  0  0  0  0
  187.4340  177.7380  142.8780 C   0  0  0  0  0  0  0  0  0  0  0  0
  187.8800  177.4160  145.3360 C   0  0  0  0  0  2  0  0  0  0  0  0
  184.9450  180.5500  144.2390 C   0  0  0  0  0  1  0  0  0  0  0  0
  186.9780  178.4690  140.6120 N   0  0  0  0  0  0  0  0  0  0  0  0
  187.8890  177.9850  141.6200 C   0  0  0  0  0  0  0  0  0  0  0  0
  183.3490  178.9200  139.9540 C   0  0  0  0  0  0  0  0  0  0  0  0
  185.1310  178.2600  142.1140 C   0  0  0  0  0  0  0  0  0  0  0  0
  188.3200  177.1020  143.9180 C   0  0  0  0  0  2  0  0  0  0  0  0
  190.8750  177.1500  139.4560 C   0  0  0  0  0  0  0  0  0  0  0  0
  191.9340  177.2740  140.3580 C   0  0  0  0  0  3  0  0  0  0  0  0
  189.2990  177.7800  141.2000 C   0  0  0  0  0  0  0  0  0  0  0  0
  191.6810  177.6380  141.6830 C   0  0  0  0  0  3  0  0  0  0  0  0
  189.5650  177.3950  139.8770 C   0  0  0  0  0  3  0  0  0  0  0  0
  190.3710  177.8840  142.1020 C   0  0  0  0  0  3  0  0  0  0  0  0
  191.1410  176.7530  138.0490 C   0  0  0  0  0  1  0  0  0  0  0  0
  182.4630  179.1980  138.9080 O   0  0  0  0  0  0  0  0  0  0  0  0
  181.0910  179.5120  139.1140 C   0  0  0  0  0  2  0  0  0  0  0  0
  179.3480  181.6260  140.9230 O   0  0  0  0  0  1  0  0  0  0  0  0
  179.4770  181.3450  139.5630 C   0  0  2  0  0  3  0  0  0  0  0  0
  180.2190  182.8590  137.9290 C   0  0  0  0  0  2  0  0  0  0  0  0
  181.1780  181.6920  137.9310 C   0  0  0  0  0  2  0  0  0  0  0  0
  180.9170  181.0130  139.2450 C   0  0  2  0  0  3  0  0  0  0  0  0
  179.0850  182.5120  138.7800 N   0  0  0  0  0  2  0  0  0  0  0  0
  1 13  1  1  0  0  0
  1 11  1  0  0  0  0
  2  6  2  0  0  0  0
  3  8  1  0  0  0  0
  4 18  1  0  0  0  0
  6  5  1  0  0  0  0
  8  2  1  1  0  0  0
  8  1  1  0  0  0  0
  9  7  1  0  0  0  0
 10 17  1  0  0  0  0
 10  4  1  0  0  0  0
 11  5  1  0  0  0  0
 12  3  1  0  0  0  0
 12 19  1  0  0  0  0
 14  2  1  0  0  0  0
 15  4  2  0  0  0  0
 15 16  1  0  0  0  0
 16 12  2  0  0  0  0
 17  9  2  0  0  0  0
 18  7  2  0  0  0  0
 18  3  1  0  0  0  0
 19 13  1  0  0  0  0
 20 24  2  0  0  0  0
 20 21  1  0  0  0  0
 21 23  2  0  0  0  0
 22 16  1  0  0  0  0
 22 25  2  0  0  0  0
 23 25  1  0  0  0  0
 24 22  1  0  0  0  0
 26 20  1  0  0  0  0
 27 28  1  0  0  0  0
 27 17  1  0  0  0  0
 30 29  1  1  0  0  0
 31 32  1  0  0  0  0
 31 34  1  0  0  0  0
 32 33  1  0  0  0  0
 33 28  1  6  0  0  0
 33 30  1  0  0  0  0
 34 30  1  0  0  0  0
M  END
>  <MODEL>
8

>  <REMARK>
 VINA RESULT:      -8.2      3.882      7.329
  Name = 
  4 active torsions:
  status: ('A' for Active; 'I' for Inactive)
    1  A    between atoms: O_3  and  C_13
    2  A    between atoms: O_3  and  C_29
    3  A    between atoms: C_12  and  C_28
    4  A    between atoms: C_13  and  C_33
                            x       y       z     vdW  Elec       q    Type
                         _______ _______ _______ _____ _____    ______ ____

>  <TORSDO>
F 4

$$$$
=
 OpenBabel10262419103D

 34 39  0  0  1  0  0  0  0  0999 V2000
  193.1740  176.7530  137.6840 C   0  0  2  0  0  3  0  0  0  0  0  0
  191.3480  175.0550  137.2010 C   0  0  0  0  0  0  0  0  0  0  0  0
  190.8720  177.0850  138.5690 N   0  0  0  0  0  0  0  0  0  0  0  0
  188.6280  177.6530  139.4990 C   0  0  0  0  0  0  0  0  0  0  0  0
  193.6630  174.5210  136.6720 C   0  0  0  0  0  2  0  0  0  0  0  0
  192.2430  174.2310  136.7600 N   0  0  0  0  0  0  0  0  0  0  0  0
  189.0360  177.7020  137.1060 C   0  0  0  0  0  3  0  0  0  0  0  0
  191.6760  176.5190  137.4700 C   0  0  1  0  0  3  0  0  0  0  0  0
  187.6360  178.1000  136.8900 C   0  0  0  0  0  3  0  0  0  0  0  0
  187.1530  177.8780  139.3220 C   0  0  0  0  0  3  0  0  0  0  0  0
  193.9510  176.0190  136.5990 C   0  0  0  0  0  2  0  0  0  0  0  0
  191.3860  177.1420  139.9240 C   0  0  0  0  0  0  0  0  0  0  0  0
  193.5890  176.2700  139.0700 C   0  0  0  0  0  2  0  0  0  0  0  0
  189.9290  174.5900  137.2180 C   0  0  0  0  0  1  0  0  0  0  0  0
  189.1280  177.5740  140.6940 N   0  0  0  0  0  0  0  0  0  0  0  0
  190.5320  177.3770  140.9570 C   0  0  0  0  0  0  0  0  0  0  0  0
  186.7580  178.2020  137.9010 C   0  0  0  0  0  0  0  0  0  0  0  0
  189.5100  177.4840  138.3360 C   0  0  1  0  0  3  0  0  0  0  0  0
  192.8750  177.0700  140.1440 C   0  0  0  0  0  2  0  0  0  0  0  0
  191.6760  176.2930  144.3940 C   0  0  0  0  0  0  0  0  0  0  0  0
  191.6800  177.5010  145.0960 C   0  0  0  0  0  3  0  0  0  0  0  0
  190.9590  177.4520  142.3780 C   0  0  0  0  0  0  0  0  0  0  0  0
  191.3150  178.6840  144.4480 C   0  0  0  0  0  3  0  0  0  0  0  0
  191.3110  176.2690  143.0450 C   0  0  0  0  0  3  0  0  0  0  0  0
  190.9510  178.6570  143.0990 C   0  0  0  0  0  3  0  0  0  0  0  0
  192.0550  175.0330  145.0830 C   0  0  0  0  0  1  0  0  0  0  0  0
  185.4350  178.5920  137.6690 O   0  0  0  0  0  0  0  0  0  0  0  0
  184.3160  177.9180  138.2320 C   0  0  0  0  0  2  0  0  0  0  0  0
  184.8810  179.5700  141.0140 O   0  0  0  0  0  1  0  0  0  0  0  0
  183.9780  178.5900  140.5990 C   0  0  2  0  0  3  0  0  0  0  0  0
  181.6430  178.8300  140.5540 C   0  0  0  0  0  2  0  0  0  0  0  0
  182.0950  178.5530  139.1400 C   0  0  0  0  0  2  0  0  0  0  0  0
  183.5670  178.8490  139.1670 C   0  0  2  0  0  3  0  0  0  0  0  0
  182.7860  178.6320  141.4390 N   0  0  0  0  0  2  0  0  0  0  0  0
  1 11  1  6  0  0  0
  1 13  1  0  0  0  0
  2 14  1  0  0  0  0
  3 12  1  0  0  0  0
  4 15  2  0  0  0  0
  5  6  1  0  0  0  0
  6  2  2  0  0  0  0
  8  2  1  1  0  0  0
  8  1  1  0  0  0  0
  8  3  1  0  0  0  0
  9  7  2  0  0  0  0
  9 17  1  0  0  0  0
 10  4  1  0  0  0  0
 11  5  1  0  0  0  0
 12 19  1  0  0  0  0
 12 16  2  0  0  0  0
 13 19  1  0  0  0  0
 15 16  1  0  0  0  0
 16 22  1  0  0  0  0
 17 10  2  0  0  0  0
 18  7  1  1  0  0  0
 18  3  1  0  0  0  0
 18  4  1  0  0  0  0
 20 26  1  0  0  0  0
 20 21  1  0  0  0  0
 22 24  1  0  0  0  0
 22 25  2  0  0  0  0
 23 21  2  0  0  0  0
 24 20  2  0  0  0  0
 25 23  1  0  0  0  0
 27 17  1  0  0  0  0
 27 28  1  0  0  0  0
 30 29  1  1  0  0  0
 30 34  1  0  0  0  0
 31 34  1  0  0  0  0
 32 33  1  0  0  0  0
 32 31  1  0  0  0  0
 33 28  1  6  0  0  0
 33 30  1  0  0  0  0
M  END
>  <MODEL>
9

>  <REMARK>
 VINA RESULT:      -8.0      3.196      7.004
  Name = 
  4 active torsions:
  status: ('A' for Active; 'I' for Inactive)
    1  A    between atoms: O_3  and  C_13
    2  A    between atoms: O_3  and  C_29
    3  A    between atoms: C_12  and  C_28
    4  A    between atoms: C_13  and  C_33
                            x       y       z     vdW  Elec       q    Type
                         _______ _______ _______ _____ _____    ______ ____

>  <TORSDO>
F 4

$$$$
