=
 OpenBabel10262422293D

 43 49  0  0  1  0  0  0  0  0999 V2000
  190.7960  176.7510  139.5930 C   0  0  0  0  0  2  0  0  0  0  0  0
  185.2720  178.3650  144.3910 C   0  0  0  0  0  0  0  0  0  0  0  0
  189.0280  177.3360  141.2220 C   0  0  0  0  0  0  0  0  0  0  0  0
  187.3110  177.5170  143.3940 C   0  0  0  0  0  0  0  0  0  0  0  0
  184.9580  179.0310  143.2000 C   0  0  0  0  0  3  0  0  0  0  0  0
  184.4370  178.4530  145.4530 F   0  0  0  0  0  0  0  0  0  0  0  0
  186.9890  178.1930  142.1880 C   0  0  0  0  0  0  0  0  0  0  0  0
  186.4460  177.6100  144.4870 C   0  0  0  0  0  3  0  0  0  0  0  0
  185.8140  178.9470  142.0980 C   0  0  0  0  0  3  0  0  0  0  0  0
  187.7480  178.6580  139.8220 N   0  0  0  0  0  0  0  0  0  0  0  0
  187.8760  178.0800  141.1170 C   0  0  0  0  0  0  0  0  0  0  0  0
  189.3680  176.6550  142.3910 C   0  0  0  0  0  3  0  0  0  0  0  0
  189.6940  177.4240  139.9340 C   0  0  0  0  0  0  0  0  0  0  0  0
  188.8970  178.2860  139.1040 N   0  0  0  0  0  0  0  0  0  0  0  0
  188.4920  176.7540  143.4880 C   0  0  0  0  0  3  0  0  0  0  0  0
  188.1480  177.6770  136.8050 C   0  0  1  0  0  3  0  0  0  0  0  0
  187.8270  179.0050  137.1400 O   0  0  0  0  0  0  0  0  0  0  0  0
  189.0420  178.5240  137.6660 C   0  0  1  0  0  3  0  0  0  0  0  0
  185.5600  176.7970  134.8020 O   0  0  0  0  0  1  0  0  0  0  0  0
  185.5460  176.0350  135.9740 C   0  0  2  0  0  0  0  0  0  0  0  0
  187.2100  176.7090  137.5540 C   0  0  1  0  0  3  0  0  0  0  0  0
  188.8100  174.8460  136.8220 C   0  0  0  0  0  1  0  0  0  0  0  0
  185.7680  176.9320  137.1840 C   0  0  1  0  0  3  0  0  0  0  0  0
  186.5860  175.0820  135.9220 O   0  0  0  0  0  0  0  0  0  0  0  0
  185.4460  178.2600  136.9460 F   0  0  0  0  0  0  0  0  0  0  0  0
  187.3720  175.2760  137.0710 C   0  0  2  0  0  3  0  0  0  0  0  0
  184.2850  175.3800  136.1120 O   0  0  0  0  0  0  0  0  0  0  0  0
  183.7390  174.9720  137.3350 C   0  0  0  0  0  0  0  0  0  0  0  0
  184.2860  174.0270  137.9630 O   0  0  0  0  0  0  0  0  0  0  0  0
  182.5230  175.6330  137.9100 C   0  0  2  0  0  3  0  0  0  0  0  0
  180.2710  175.3660  138.5870 C   0  0  0  0  0  2  0  0  0  0  0  0
  181.5180  176.7250  139.8830 C   0  0  0  0  0  2  0  0  0  0  0  0
  180.5670  175.6900  139.9250 O   0  0  0  0  0  0  0  0  0  0  0  0
  182.8270  176.2120  139.2910 C   0  0  0  0  0  2  0  0  0  0  0  0
  181.4130  174.6830  137.9790 N   0  0  0  0  0  2  0  0  0  0  0  0
  191.3690  176.8270  138.2900 N   0  0  0  0  0  2  0  0  0  0  0  0
  194.5130  174.7220  137.9410 C   0  0  0  0  0  2  0  0  0  0  0  0
  192.6150  174.4600  135.6930 C   0  0  0  0  0  2  0  0  0  0  0  0
  194.1220  174.3350  135.4510 C   0  0  0  0  0  2  0  0  0  0  0  0
  193.6120  175.8780  138.3550 C   0  0  0  0  0  2  0  0  0  0  0  0
  192.2030  175.7530  137.7770 C   0  0  0  0  0  3  0  0  0  0  0  0
  195.0210  174.9570  136.5250 C   0  0  0  0  0  2  0  0  0  0  0  0
  192.2100  175.8150  136.2550 C   0  0  0  0  0  2  0  0  0  0  0  0
  1 13  1  0  0  0  0
  2  8  1  0  0  0  0
  2  6  1  0  0  0  0
  3 12  1  0  0  0  0
  4 15  1  0  0  0  0
  4  8  2  0  0  0  0
  5  2  2  0  0  0  0
  7  4  1  0  0  0  0
  9  7  2  0  0  0  0
  9  5  1  0  0  0  0
 10 11  2  0  0  0  0
 11  3  1  0  0  0  0
 11  7  1  0  0  0  0
 12 15  2  0  0  0  0
 13  3  2  0  0  0  0
 14 10  1  0  0  0  0
 14 13  1  0  0  0  0
 16 17  1  1  0  0  0
 16 18  1  0  0  0  0
 17 18  1  0  0  0  0
 18 14  1  1  0  0  0
 20 19  1  6  0  0  0
 20 27  1  0  0  0  0
 20 23  1  0  0  0  0
 21 16  1  6  0  0  0
 23 25  1  6  0  0  0
 23 21  1  0  0  0  0
 24 20  1  0  0  0  0
 24 26  1  0  0  0  0
 26 22  1  6  0  0  0
 26 21  1  0  0  0  0
 27 28  1  0  0  0  0
 28 29  2  0  0  0  0
 30 28  1  1  0  0  0
 30 35  1  0  0  0  0
 30 34  1  0  0  0  0
 31 33  1  0  0  0  0
 32 33  1  0  0  0  0
 34 32  1  0  0  0  0
 35 31  1  0  0  0  0
 36  1  1  0  0  0  0
 37 40  1  0  0  0  0
 38 43  1  0  0  0  0
 39 38  1  0  0  0  0
 39 42  1  0  0  0  0
 41 36  1  0  0  0  0
 41 40  1  0  0  0  0
 42 37  1  0  0  0  0
 43 41  1  0  0  0  0
M  END
>  <MODEL>
1

>  <REMARK>
 VINA RESULT:      -9.1      0.000      0.000
  Name = 
  7 active torsions:
  status: ('A' for Active; 'I' for Inactive)
    1  A    between atoms: C_1  and  N_28
    2  A    between atoms: C_2  and  C_6
    3  A    between atoms: C_4  and  O_22
    4  A    between atoms: C_11  and  C_14
    5  A    between atoms: C_13  and  N_38
    6  A    between atoms: C_14  and  O_22
    7  A    between atoms: N_28  and  C_35
                            x       y       z     vdW  Elec       q    Type
                         _______ _______ _______ _____ _____    ______ ____

>  <TORSDO>
F 7

$$$$
=
 OpenBabel10262422293D

 43 49  0  0  1  0  0  0  0  0999 V2000
  185.8870  178.6630  141.7120 C   0  0  0  0  0  2  0  0  0  0  0  0
  190.8900  176.6710  146.9210 C   0  0  0  0  0  0  0  0  0  0  0  0
  187.5100  177.9220  143.4270 C   0  0  0  0  0  0  0  0  0  0  0  0
  188.8300  177.1670  145.7480 C   0  0  0  0  0  0  0  0  0  0  0  0
  191.6250  176.9370  145.7600 C   0  0  0  0  0  3  0  0  0  0  0  0
  191.5320  176.3010  148.0560 F   0  0  0  0  0  0  0  0  0  0  0  0
  189.5790  177.4370  144.5720 C   0  0  0  0  0  0  0  0  0  0  0  0
  189.4960  176.7870  146.9150 C   0  0  0  0  0  3  0  0  0  0  0  0
  190.9730  177.3200  144.5840 C   0  0  0  0  0  3  0  0  0  0  0  0
  189.4250  178.1400  142.1470 N   0  0  0  0  0  0  0  0  0  0  0  0
  188.8820  177.8130  143.4230 C   0  0  0  0  0  0  0  0  0  0  0  0
  186.7480  177.6710  144.5680 C   0  0  0  0  0  3  0  0  0  0  0  0
  187.1280  178.3440  142.0890 C   0  0  0  0  0  0  0  0  0  0  0  0
  188.3330  178.4260  141.3110 N   0  0  0  0  0  0  0  0  0  0  0  0
  187.4260  177.2870  145.7390 C   0  0  0  0  0  3  0  0  0  0  0  0
  189.1750  178.0850  138.9890 C   0  0  1  0  0  3  0  0  0  0  0  0
  187.7760  178.2230  139.0370 O   0  0  0  0  0  0  0  0  0  0  0  0
  188.4940  178.9950  139.9710 C   0  0  1  0  0  3  0  0  0  0  0  0
  190.4810  176.2170  136.4810 O   0  0  0  0  0  1  0  0  0  0  0  0
  190.6440  175.5640  137.7060 C   0  0  2  0  0  0  0  0  0  0  0  0
  189.5810  176.6970  139.5240 C   0  0  1  0  0  3  0  0  0  0  0  0
  191.7750  177.8000  140.2580 C   0  0  0  0  0  1  0  0  0  0  0  0
  189.3490  175.6160  138.5030 C   0  0  1  0  0  3  0  0  0  0  0  0
  191.6560  176.2130  138.4470 O   0  0  0  0  0  0  0  0  0  0  0  0
  188.2270  175.8200  137.7120 F   0  0  0  0  0  0  0  0  0  0  0  0
  191.0890  176.5700  139.6830 C   0  0  2  0  0  3  0  0  0  0  0  0
  190.9960  174.1980  137.4860 O   0  0  0  0  0  0  0  0  0  0  0  0
  191.6990  173.7370  136.3660 C   0  0  0  0  0  0  0  0  0  0  0  0
  191.0610  173.1970  135.4250 O   0  0  0  0  0  0  0  0  0  0  0  0
  193.1880  173.8730  136.2650 C   0  0  2  0  0  3  0  0  0  0  0  0
  194.9970  175.2230  135.5530 C   0  0  0  0  0  2  0  0  0  0  0  0
  195.3170  174.1160  137.4910 C   0  0  0  0  0  2  0  0  0  0  0  0
  195.4930  175.3620  136.8630 O   0  0  0  0  0  0  0  0  0  0  0  0
  193.8300  173.8130  137.6490 C   0  0  0  0  0  2  0  0  0  0  0  0
  193.5380  175.1200  135.5840 N   0  0  0  0  0  2  0  0  0  0  0  0
  185.5810  179.1340  140.4020 N   0  0  0  0  0  2  0  0  0  0  0  0
  182.4360  179.3910  138.2850 C   0  0  0  0  0  2  0  0  0  0  0  0
  182.6690  176.8800  139.8220 C   0  0  0  0  0  2  0  0  0  0  0  0
  181.2920  177.4880  139.5380 C   0  0  0  0  0  2  0  0  0  0  0  0
  183.6200  179.8320  139.1360 C   0  0  0  0  0  2  0  0  0  0  0  0
  184.4130  178.6480  139.6880 C   0  0  0  0  0  3  0  0  0  0  0  0
  181.2840  178.9800  139.1920 C   0  0  0  0  0  2  0  0  0  0  0  0
  183.5730  177.7970  140.6320 C   0  0  0  0  0  2  0  0  0  0  0  0
  1 13  1  0  0  0  0
  2  6  1  0  0  0  0
  3 12  1  0  0  0  0
  4  8  2  0  0  0  0
  5  2  2  0  0  0  0
  7  9  2  0  0  0  0
  7  4  1  0  0  0  0
  8  2  1  0  0  0  0
  9  5  1  0  0  0  0
 10 11  2  0  0  0  0
 11  3  1  0  0  0  0
 11  7  1  0  0  0  0
 12 15  2  0  0  0  0
 13  3  2  0  0  0  0
 14 13  1  0  0  0  0
 14 10  1  0  0  0  0
 15  4  1  0  0  0  0
 16 17  1  6  0  0  0
 16 18  1  0  0  0  0
 17 18  1  0  0  0  0
 18 14  1  1  0  0  0
 20 19  1  6  0  0  0
 20 24  1  0  0  0  0
 20 23  1  0  0  0  0
 21 16  1  6  0  0  0
 21 26  1  0  0  0  0
 23 25  1  6  0  0  0
 23 21  1  0  0  0  0
 24 26  1  0  0  0  0
 26 22  1  6  0  0  0
 27 20  1  0  0  0  0
 28 27  1  0  0  0  0
 29 28  2  0  0  0  0
 30 28  1  1  0  0  0
 30 34  1  0  0  0  0
 31 35  1  0  0  0  0
 31 33  1  0  0  0  0
 32 34  1  0  0  0  0
 33 32  1  0  0  0  0
 35 30  1  0  0  0  0
 36  1  1  0  0  0  0
 37 40  1  0  0  0  0
 37 42  1  0  0  0  0
 38 43  1  0  0  0  0
 39 38  1  0  0  0  0
 40 41  1  0  0  0  0
 41 36  1  0  0  0  0
 41 43  1  0  0  0  0
 42 39  1  0  0  0  0
M  END
>  <MODEL>
2

>  <REMARK>
 VINA RESULT:      -8.5      3.127      8.029
  Name = 
  7 active torsions:
  status: ('A' for Active; 'I' for Inactive)
    1  A    between atoms: C_1  and  N_28
    2  A    between atoms: C_2  and  C_6
    3  A    between atoms: C_4  and  O_22
    4  A    between atoms: C_11  and  C_14
    5  A    between atoms: C_13  and  N_38
    6  A    between atoms: C_14  and  O_22
    7  A    between atoms: N_28  and  C_35
                            x       y       z     vdW  Elec       q    Type
                         _______ _______ _______ _____ _____    ______ ____

>  <TORSDO>
F 7

$$$$
=
 OpenBabel10262422293D

 43 49  0  0  1  0  0  0  0  0999 V2000
  188.0670  178.2410  138.1760 C   0  0  0  0  0  2  0  0  0  0  0  0
  183.6100  178.8780  144.1650 C   0  0  0  0  0  0  0  0  0  0  0  0
  186.5540  178.3770  140.1290 C   0  0  0  0  0  0  0  0  0  0  0  0
  184.4590  178.8080  141.8970 C   0  0  0  0  0  0  0  0  0  0  0  0
  184.8700  178.5180  144.6560 C   0  0  0  0  0  3  0  0  0  0  0  0
  182.5850  179.0880  145.0250 F   0  0  0  0  0  0  0  0  0  0  0  0
  185.7360  178.4420  142.3990 C   0  0  0  0  0  0  0  0  0  0  0  0
  183.4060  179.0230  142.7890 C   0  0  0  0  0  3  0  0  0  0  0  0
  185.9350  178.2990  143.7760 C   0  0  0  0  0  3  0  0  0  0  0  0
  188.1160  177.8770  141.7590 N   0  0  0  0  0  0  0  0  0  0  0  0
  186.7660  178.2340  141.4810 C   0  0  0  0  0  0  0  0  0  0  0  0
  185.3130  178.7420  139.6070 C   0  0  0  0  0  3  0  0  0  0  0  0
  187.8260  178.1040  139.4820 C   0  0  0  0  0  0  0  0  0  0  0  0
  188.7600  177.7550  140.5170 N   0  0  0  0  0  0  0  0  0  0  0  0
  184.2560  178.9550  140.5100 C   0  0  0  0  0  3  0  0  0  0  0  0
  190.9310  177.4410  141.7020 C   0  0  1  0  0  3  0  0  0  0  0  0
  190.5930  176.3350  140.9020 O   0  0  0  0  0  0  0  0  0  0  0  0
  190.2110  177.5910  140.3930 C   0  0  1  0  0  3  0  0  0  0  0  0
  192.3910  175.6250  144.1630 O   0  0  0  0  0  1  0  0  0  0  0  0
  191.2750  176.3050  144.6600 C   0  0  2  0  0  0  0  0  0  0  0  0
  190.0470  177.4620  142.9650 C   0  0  1  0  0  3  0  0  0  0  0  0
  191.1750  179.6950  143.5240 C   0  0  0  0  0  1  0  0  0  0  0  0
  190.1000  176.1520  143.7050 C   0  0  1  0  0  3  0  0  0  0  0  0
  191.5830  177.6780  144.7800 O   0  0  0  0  0  0  0  0  0  0  0  0
  190.2090  175.0420  142.8790 F   0  0  0  0  0  0  0  0  0  0  0  0
  190.6140  178.3770  144.0400 C   0  0  2  0  0  3  0  0  0  0  0  0
  190.9080  175.7710  145.9320 O   0  0  0  0  0  0  0  0  0  0  0  0
  190.7720  176.5350  147.0980 C   0  0  0  0  0  0  0  0  0  0  0  0
  191.8080  176.9480  147.6810 O   0  0  0  0  0  0  0  0  0  0  0  0
  189.4250  176.8710  147.6630 C   0  0  2  0  0  3  0  0  0  0  0  0
  188.1800  178.3310  149.0470 C   0  0  0  0  0  2  0  0  0  0  0  0
  187.1260  177.6310  147.1810 C   0  0  0  0  0  2  0  0  0  0  0  0
  187.3750  178.7640  147.9760 O   0  0  0  0  0  0  0  0  0  0  0  0
  188.4230  177.1440  146.5420 C   0  0  0  0  0  2  0  0  0  0  0  0
  189.5240  178.0210  148.5620 N   0  0  0  0  0  2  0  0  0  0  0  0
  189.3540  178.0220  137.6050 N   0  0  0  0  0  2  0  0  0  0  0  0
  188.8260  174.4560  136.4050 C   0  0  0  0  0  2  0  0  0  0  0  0
  191.5610  175.4900  135.9890 C   0  0  0  0  0  2  0  0  0  0  0  0
  191.3310  174.0020  136.2720 C   0  0  0  0  0  2  0  0  0  0  0  0
  188.6490  175.7190  137.2370 C   0  0  0  0  0  2  0  0  0  0  0  0
  189.6410  176.8150  136.8490 C   0  0  0  0  0  3  0  0  0  0  0  0
  190.0000  173.6520  136.9450 C   0  0  0  0  0  2  0  0  0  0  0  0
  191.0810  176.3940  137.1140 C   0  0  0  0  0  2  0  0  0  0  0  0
  1 13  1  0  0  0  0
  2  5  1  0  0  0  0
  2  6  1  0  0  0  0
  3 11  1  0  0  0  0
  4  7  2  0  0  0  0
  4  8  1  0  0  0  0
  7  9  1  0  0  0  0
  8  2  2  0  0  0  0
  9  5  2  0  0  0  0
 11 10  2  0  0  0  0
 11  7  1  0  0  0  0
 12  3  1  0  0  0  0
 12 15  2  0  0  0  0
 13  3  2  0  0  0  0
 13 14  1  0  0  0  0
 14 10  1  0  0  0  0
 15  4  1  0  0  0  0
 16 17  1  6  0  0  0
 18 14  1  1  0  0  0
 18 17  1  0  0  0  0
 18 16  1  0  0  0  0
 20 19  1  6  0  0  0
 20 24  1  0  0  0  0
 20 27  1  0  0  0  0
 21 16  1  6  0  0  0
 21 23  1  0  0  0  0
 21 26  1  0  0  0  0
 23 25  1  6  0  0  0
 23 20  1  0  0  0  0
 26 22  1  6  0  0  0
 26 24  1  0  0  0  0
 27 28  1  0  0  0  0
 28 29  2  0  0  0  0
 30 28  1  6  0  0  0
 30 35  1  0  0  0  0
 32 33  1  0  0  0  0
 33 31  1  0  0  0  0
 34 32  1  0  0  0  0
 34 30  1  0  0  0  0
 35 31  1  0  0  0  0
 36  1  1  0  0  0  0
 37 42  1  0  0  0  0
 37 40  1  0  0  0  0
 38 39  1  0  0  0  0
 38 43  1  0  0  0  0
 39 42  1  0  0  0  0
 41 43  1  0  0  0  0
 41 40  1  0  0  0  0
 41 36  1  0  0  0  0
M  END
>  <MODEL>
3

>  <REMARK>
 VINA RESULT:      -8.4      4.394      7.211
  Name = 
  7 active torsions:
  status: ('A' for Active; 'I' for Inactive)
    1  A    between atoms: C_1  and  N_28
    2  A    between atoms: C_2  and  C_6
    3  A    between atoms: C_4  and  O_22
    4  A    between atoms: C_11  and  C_14
    5  A    between atoms: C_13  and  N_38
    6  A    between atoms: C_14  and  O_22
    7  A    between atoms: N_28  and  C_35
                            x       y       z     vdW  Elec       q    Type
                         _______ _______ _______ _____ _____    ______ ____

>  <TORSDO>
F 7

$$$$
=
 OpenBabel10262422293D

 43 49  0  0  1  0  0  0  0  0999 V2000
  186.2100  176.8520  137.1760 C   0  0  0  0  0  2  0  0  0  0  0  0
  179.9060  172.8290  137.6430 C   0  0  0  0  0  0  0  0  0  0  0  0
  184.1690  175.4690  137.3870 C   0  0  0  0  0  0  0  0  0  0  0  0
  182.1690  173.5570  137.1760 C   0  0  0  0  0  0  0  0  0  0  0  0
  179.6530  174.0270  138.3210 C   0  0  0  0  0  3  0  0  0  0  0  0
  178.9330  171.8930  137.5390 F   0  0  0  0  0  0  0  0  0  0  0  0
  181.9080  174.7710  137.8650 C   0  0  0  0  0  0  0  0  0  0  0  0
  181.1610  172.5960  137.0720 C   0  0  0  0  0  3  0  0  0  0  0  0
  180.6510  175.0000  138.4340 C   0  0  0  0  0  3  0  0  0  0  0  0
  182.8940  176.9880  138.5780 N   0  0  0  0  0  0  0  0  0  0  0  0
  182.9370  175.7100  137.9510 C   0  0  0  0  0  0  0  0  0  0  0  0
  184.4530  174.2900  136.6990 C   0  0  0  0  0  3  0  0  0  0  0  0
  184.9790  176.6470  137.6510 C   0  0  0  0  0  0  0  0  0  0  0  0
  184.1740  177.5480  138.4280 N   0  0  0  0  0  0  0  0  0  0  0  0
  183.4340  173.3250  136.5990 C   0  0  0  0  0  3  0  0  0  0  0  0
  184.3950  179.2490  140.2390 C   0  0  1  0  0  3  0  0  0  0  0  0
  185.6160  178.9980  139.5860 O   0  0  0  0  0  0  0  0  0  0  0  0
  184.4700  178.9420  138.7700 C   0  0  1  0  0  3  0  0  0  0  0  0
  185.1460  180.0180  143.4530 O   0  0  0  0  0  1  0  0  0  0  0  0
  184.4500  178.8070  143.3950 C   0  0  2  0  0  0  0  0  0  0  0  0
  184.0430  178.0630  141.1590 C   0  0  1  0  0  3  0  0  0  0  0  0
  181.6540  178.9910  141.1730 C   0  0  0  0  0  1  0  0  0  0  0  0
  185.0230  177.9260  142.2940 C   0  0  1  0  0  3  0  0  0  0  0  0
  183.0920  179.0650  143.1060 O   0  0  0  0  0  0  0  0  0  0  0  0
  186.3280  178.2550  141.9540 F   0  0  0  0  0  0  0  0  0  0  0  0
  182.7740  178.3210  141.9560 C   0  0  2  0  0  3  0  0  0  0  0  0
  184.5660  178.1200  144.6410 O   0  0  0  0  0  0  0  0  0  0  0  0
  185.5200  178.4220  145.6210 C   0  0  0  0  0  0  0  0  0  0  0  0
  185.3170  179.3970  146.3900 O   0  0  0  0  0  0  0  0  0  0  0  0
  186.7710  177.6110  145.7730 C   0  0  2  0  0  3  0  0  0  0  0  0
  188.9210  177.1280  144.9100 C   0  0  0  0  0  2  0  0  0  0  0  0
  188.7600  177.1420  147.1590 C   0  0  0  0  0  2  0  0  0  0  0  0
  189.5610  177.5670  146.0840 O   0  0  0  0  0  0  0  0  0  0  0  0
  187.4190  177.8690  147.1320 C   0  0  0  0  0  2  0  0  0  0  0  0
  187.7050  177.9100  144.6880 N   0  0  0  0  0  2  0  0  0  0  0  0
  186.9340  178.0570  137.4150 N   0  0  0  0  0  2  0  0  0  0  0  0
  190.5980  177.0880  137.1590 C   0  0  0  0  0  2  0  0  0  0  0  0
  189.7680  178.0210  139.8350 C   0  0  0  0  0  2  0  0  0  0  0  0
  190.8660  176.9630  139.6910 C   0  0  0  0  0  2  0  0  0  0  0  0
  189.1030  177.0900  136.8720 C   0  0  0  0  0  2  0  0  0  0  0  0
  188.3320  178.0240  137.8040 C   0  0  0  0  0  3  0  0  0  0  0  0
  190.8830  176.2010  138.3620 C   0  0  0  0  0  2  0  0  0  0  0  0
  188.4310  177.5790  139.2580 C   0  0  0  0  0  2  0  0  0  0  0  0
  1 36  1  0  0  0  0
  1 13  1  0  0  0  0
  2  5  1  0  0  0  0
  3 13  2  0  0  0  0
  3 11  1  0  0  0  0
  4  7  2  0  0  0  0
  5  9  2  0  0  0  0
  6  2  1  0  0  0  0
  7 11  1  0  0  0  0
  7  9  1  0  0  0  0
  8  4  1  0  0  0  0
  8  2  2  0  0  0  0
 11 10  2  0  0  0  0
 12  3  1  0  0  0  0
 13 14  1  0  0  0  0
 14 10  1  0  0  0  0
 15 12  2  0  0  0  0
 15  4  1  0  0  0  0
 16 17  1  1  0  0  0
 18 14  1  1  0  0  0
 18 17  1  0  0  0  0
 18 16  1  0  0  0  0
 20 19  1  1  0  0  0
 20 27  1  0  0  0  0
 21 16  1  6  0  0  0
 21 26  1  0  0  0  0
 21 23  1  0  0  0  0
 23 25  1  6  0  0  0
 23 20  1  0  0  0  0
 24 20  1  0  0  0  0
 26 22  1  6  0  0  0
 26 24  1  0  0  0  0
 27 28  1  0  0  0  0
 28 29  2  0  0  0  0
 30 28  1  6  0  0  0
 30 34  1  0  0  0  0
 31 33  1  0  0  0  0
 33 32  1  0  0  0  0
 34 32  1  0  0  0  0
 35 31  1  0  0  0  0
 35 30  1  0  0  0  0
 36 41  1  0  0  0  0
 37 42  1  0  0  0  0
 39 38  1  0  0  0  0
 40 37  1  0  0  0  0
 40 41  1  0  0  0  0
 41 43  1  0  0  0  0
 42 39  1  0  0  0  0
 43 38  1  0  0  0  0
M  END
>  <MODEL>
4

>  <REMARK>
 VINA RESULT:      -8.1      3.585      7.698
  Name = 
  7 active torsions:
  status: ('A' for Active; 'I' for Inactive)
    1  A    between atoms: C_1  and  N_28
    2  A    between atoms: C_2  and  C_6
    3  A    between atoms: C_4  and  O_22
    4  A    between atoms: C_11  and  C_14
    5  A    between atoms: C_13  and  N_38
    6  A    between atoms: C_14  and  O_22
    7  A    between atoms: N_28  and  C_35
                            x       y       z     vdW  Elec       q    Type
                         _______ _______ _______ _____ _____    ______ ____

>  <TORSDO>
F 7

$$$$
=
 OpenBabel10262422293D

 43 49  0  0  1  0  0  0  0  0999 V2000
  183.7560  178.5890  141.3670 C   0  0  0  0  0  2  0  0  0  0  0  0
  190.5060  177.6730  144.4890 C   0  0  0  0  0  0  0  0  0  0  0  0
  185.9650  178.2010  142.4120 C   0  0  0  0  0  0  0  0  0  0  0  0
  188.1170  177.8610  144.1310 C   0  0  0  0  0  0  0  0  0  0  0  0
  190.7310  177.8290  143.1160 C   0  0  0  0  0  3  0  0  0  0  0  0
  191.5540  177.5050  145.3300 F   0  0  0  0  0  0  0  0  0  0  0  0
  188.3500  178.0200  142.7390 C   0  0  0  0  0  0  0  0  0  0  0  0
  189.2020  177.6900  144.9940 C   0  0  0  0  0  3  0  0  0  0  0  0
  189.6560  178.0020  142.2390 C   0  0  0  0  0  3  0  0  0  0  0  0
  187.2440  178.3740  140.4930 N   0  0  0  0  0  0  0  0  0  0  0  0
  187.2440  178.1880  141.9050 C   0  0  0  0  0  0  0  0  0  0  0  0
  185.7060  178.0560  143.7750 C   0  0  0  0  0  3  0  0  0  0  0  0
  185.0770  178.4100  141.2810 C   0  0  0  0  0  0  0  0  0  0  0  0
  185.8980  178.4680  140.1030 N   0  0  0  0  0  0  0  0  0  0  0  0
  186.8020  177.8810  144.6380 C   0  0  0  0  0  3  0  0  0  0  0  0
  186.3560  178.2960  137.6580 C   0  0  1  0  0  3  0  0  0  0  0  0
  185.1250  177.7170  138.0150 O   0  0  0  0  0  0  0  0  0  0  0  0
  185.4930  178.8600  138.7510 C   0  0  1  0  0  3  0  0  0  0  0  0
  187.3990  176.3700  135.0710 O   0  0  0  0  0  1  0  0  0  0  0  0
  188.2620  176.2250  136.1620 C   0  0  2  0  0  0  0  0  0  0  0  0
  187.5130  177.3840  138.1150 C   0  0  1  0  0  3  0  0  0  0  0  0
  189.0550  179.3780  137.6520 C   0  0  0  0  0  1  0  0  0  0  0  0
  187.4610  176.0380  137.4420 C   0  0  1  0  0  3  0  0  0  0  0  0
  189.0500  177.3900  136.2880 O   0  0  0  0  0  0  0  0  0  0  0  0
  186.1750  175.5690  137.2180 F   0  0  0  0  0  0  0  0  0  0  0  0
  188.8580  177.8700  137.5960 C   0  0  2  0  0  3  0  0  0  0  0  0
  189.0990  175.0850  135.9700 O   0  0  0  0  0  0  0  0  0  0  0  0
  190.1110  174.6930  136.8540 C   0  0  0  0  0  0  0  0  0  0  0  0
  189.9210  173.6910  137.5940 O   0  0  0  0  0  0  0  0  0  0  0  0
  191.4100  175.4360  136.9380 C   0  0  2  0  0  3  0  0  0  0  0  0
  192.9470  176.5600  138.3430 C   0  0  0  0  0  2  0  0  0  0  0  0
  193.8640  175.3160  136.7020 C   0  0  0  0  0  2  0  0  0  0  0  0
  193.9740  175.6370  138.0670 O   0  0  0  0  0  0  0  0  0  0  0  0
  192.5620  174.5640  136.4420 C   0  0  0  0  0  2  0  0  0  0  0  0
  191.6510  175.8830  138.3100 N   0  0  0  0  0  2  0  0  0  0  0  0
  182.9420  178.8540  140.2270 N   0  0  0  0  0  2  0  0  0  0  0  0
  179.4590  177.3720  140.5530 C   0  0  0  0  0  2  0  0  0  0  0  0
  181.3520  175.7090  139.0130 C   0  0  0  0  0  2  0  0  0  0  0  0
  180.2490  175.0530  139.8490 C   0  0  0  0  0  2  0  0  0  0  0  0
  180.7030  178.1750  140.9080 C   0  0  0  0  0  2  0  0  0  0  0  0
  181.8260  177.9880  139.8880 C   0  0  0  0  0  3  0  0  0  0  0  0
  179.6570  175.9200  140.9640 C   0  0  0  0  0  2  0  0  0  0  0  0
  182.3150  176.5460  139.8430 C   0  0  0  0  0  2  0  0  0  0  0  0
  2  8  1  0  0  0  0
  2  6  1  0  0  0  0
  3 12  1  0  0  0  0
  4 15  1  0  0  0  0
  4  8  2  0  0  0  0
  5  2  2  0  0  0  0
  7  4  1  0  0  0  0
  9  7  2  0  0  0  0
  9  5  1  0  0  0  0
 10 11  2  0  0  0  0
 11  3  1  0  0  0  0
 11  7  1  0  0  0  0
 12 15  2  0  0  0  0
 13  1  1  0  0  0  0
 13  3  2  0  0  0  0
 14 10  1  0  0  0  0
 14 13  1  0  0  0  0
 16 17  1  6  0  0  0
 16 18  1  0  0  0  0
 17 18  1  0  0  0  0
 18 14  1  1  0  0  0
 20 19  1  6  0  0  0
 20 24  1  0  0  0  0
 20 23  1  0  0  0  0
 21 16  1  6  0  0  0
 23 25  1  6  0  0  0
 23 21  1  0  0  0  0
 24 26  1  0  0  0  0
 26 22  1  6  0  0  0
 26 21  1  0  0  0  0
 27 20  1  0  0  0  0
 27 28  1  0  0  0  0
 28 29  2  0  0  0  0
 30 28  1  1  0  0  0
 30 35  1  0  0  0  0
 32 33  1  0  0  0  0
 33 31  1  0  0  0  0
 34 32  1  0  0  0  0
 34 30  1  0  0  0  0
 35 31  1  0  0  0  0
 36  1  1  0  0  0  0
 37 40  1  0  0  0  0
 37 42  1  0  0  0  0
 38 43  1  0  0  0  0
 38 39  1  0  0  0  0
 39 42  1  0  0  0  0
 41 36  1  0  0  0  0
 41 40  1  0  0  0  0
 43 41  1  0  0  0  0
M  END
>  <MODEL>
5

>  <REMARK>
 VINA RESULT:      -8.1      2.380      7.767
  Name = 
  7 active torsions:
  status: ('A' for Active; 'I' for Inactive)
    1  A    between atoms: C_1  and  N_28
    2  A    between atoms: C_2  and  C_6
    3  A    between atoms: C_4  and  O_22
    4  A    between atoms: C_11  and  C_14
    5  A    between atoms: C_13  and  N_38
    6  A    between atoms: C_14  and  O_22
    7  A    between atoms: N_28  and  C_35
                            x       y       z     vdW  Elec       q    Type
                         _______ _______ _______ _____ _____    ______ ____

>  <TORSDO>
F 7

$$$$
=
 OpenBabel10262422293D

 43 49  0  0  1  0  0  0  0  0999 V2000
  180.2900  178.8450  138.1930 C   0  0  0  0  0  2  0  0  0  0  0  0
  183.8040  172.3230  137.0720 C   0  0  0  0  0  0  0  0  0  0  0  0
  181.4320  176.6980  137.7370 C   0  0  0  0  0  0  0  0  0  0  0  0
  182.1170  174.0500  137.2670 C   0  0  0  0  0  0  0  0  0  0  0  0
  184.8060  173.2600  137.3540 C   0  0  0  0  0  3  0  0  0  0  0  0
  184.1350  171.0300  136.8410 F   0  0  0  0  0  0  0  0  0  0  0  0
  183.1350  174.9970  137.5520 C   0  0  0  0  0  0  0  0  0  0  0  0
  182.4630  172.7180  137.0290 C   0  0  0  0  0  3  0  0  0  0  0  0
  184.4740  174.5970  137.5950 C   0  0  0  0  0  3  0  0  0  0  0  0
  183.5980  177.4230  138.0970 N   0  0  0  0  0  0  0  0  0  0  0  0
  182.7540  176.3190  137.7830 C   0  0  0  0  0  0  0  0  0  0  0  0
  180.4090  175.7890  137.4660 C   0  0  0  0  0  3  0  0  0  0  0  0
  181.4000  178.1190  138.0370 C   0  0  0  0  0  0  0  0  0  0  0  0
  182.7620  178.5450  138.2100 N   0  0  0  0  0  0  0  0  0  0  0  0
  180.7650  174.4500  137.2260 C   0  0  0  0  0  3  0  0  0  0  0  0
  183.6650  179.8130  140.1580 C   0  0  1  0  0  3  0  0  0  0  0  0
  184.5880  179.7270  139.0990 O   0  0  0  0  0  0  0  0  0  0  0  0
  183.2360  179.8350  138.7190 C   0  0  1  0  0  3  0  0  0  0  0  0
  185.0990  180.0060  143.2230 O   0  0  0  0  0  1  0  0  0  0  0  0
  184.4420  178.7800  143.0710 C   0  0  2  0  0  0  0  0  0  0  0  0
  183.5630  178.4510  140.8720 C   0  0  1  0  0  3  0  0  0  0  0  0
  181.2130  179.1830  141.5880 C   0  0  0  0  0  1  0  0  0  0  0  0
  184.7770  178.1710  141.7180 C   0  0  1  0  0  3  0  0  0  0  0  0
  183.0480  178.9900  143.1400 O   0  0  0  0  0  0  0  0  0  0  0  0
  185.9610  178.6530  141.1790 F   0  0  0  0  0  0  0  0  0  0  0  0
  182.4990  178.4590  141.9600 C   0  0  2  0  0  3  0  0  0  0  0  0
  184.8550  177.8780  144.0980 O   0  0  0  0  0  0  0  0  0  0  0  0
  185.3410  178.2780  145.3490 C   0  0  0  0  0  0  0  0  0  0  0  0
  184.5250  178.6660  146.2250 O   0  0  0  0  0  0  0  0  0  0  0  0
  186.8060  178.2520  145.6660 C   0  0  2  0  0  3  0  0  0  0  0  0
  188.4590  177.7990  147.2970 C   0  0  0  0  0  2  0  0  0  0  0  0
  188.9940  177.2140  145.1860 C   0  0  0  0  0  2  0  0  0  0  0  0
  189.0350  176.7750  146.5220 O   0  0  0  0  0  0  0  0  0  0  0  0
  187.5470  177.3170  144.7130 C   0  0  0  0  0  2  0  0  0  0  0  0
  187.0180  177.8500  147.0560 N   0  0  0  0  0  2  0  0  0  0  0  0
  180.3190  180.2240  138.5520 N   0  0  0  0  0  2  0  0  0  0  0  0
  179.7910  181.7260  135.1020 C   0  0  0  0  0  2  0  0  0  0  0  0
  180.1360  183.7150  137.2570 C   0  0  0  0  0  2  0  0  0  0  0  0
  180.6300  184.0180  135.8390 C   0  0  0  0  0  2  0  0  0  0  0  0
  180.2240  180.7310  136.1710 C   0  0  0  0  0  2  0  0  0  0  0  0
  179.9800  181.2550  137.5860 C   0  0  0  0  0  3  0  0  0  0  0  0
  180.8600  182.7970  134.9420 C   0  0  0  0  0  2  0  0  0  0  0  0
  180.8090  182.5000  137.8780 C   0  0  0  0  0  2  0  0  0  0  0  0
  1 36  1  0  0  0  0
  2  5  1  0  0  0  0
  3 11  1  0  0  0  0
  3 13  2  0  0  0  0
  4  7  2  0  0  0  0
  5  9  2  0  0  0  0
  6  2  1  0  0  0  0
  7  9  1  0  0  0  0
  7 11  1  0  0  0  0
  8  2  2  0  0  0  0
  8  4  1  0  0  0  0
 10 14  1  0  0  0  0
 11 10  2  0  0  0  0
 12  3  1  0  0  0  0
 13  1  1  0  0  0  0
 13 14  1  0  0  0  0
 15  4  1  0  0  0  0
 15 12  2  0  0  0  0
 16 17  1  6  0  0  0
 18 14  1  1  0  0  0
 18 17  1  0  0  0  0
 18 16  1  0  0  0  0
 20 24  1  0  0  0  0
 20 19  1  1  0  0  0
 20 27  1  0  0  0  0
 21 16  1  1  0  0  0
 21 23  1  0  0  0  0
 21 26  1  0  0  0  0
 23 25  1  6  0  0  0
 23 20  1  0  0  0  0
 26 22  1  6  0  0  0
 26 24  1  0  0  0  0
 27 28  1  0  0  0  0
 28 29  2  0  0  0  0
 30 28  1  6  0  0  0
 30 35  1  0  0  0  0
 32 33  1  0  0  0  0
 33 31  1  0  0  0  0
 34 32  1  0  0  0  0
 34 30  1  0  0  0  0
 35 31  1  0  0  0  0
 37 40  1  0  0  0  0
 38 43  1  0  0  0  0
 39 38  1  0  0  0  0
 40 41  1  0  0  0  0
 41 43  1  0  0  0  0
 41 36  1  0  0  0  0
 42 37  1  0  0  0  0
 42 39  1  0  0  0  0
M  END
>  <MODEL>
6

>  <REMARK>
 VINA RESULT:      -8.0      5.077      9.951
  Name = 
  7 active torsions:
  status: ('A' for Active; 'I' for Inactive)
    1  A    between atoms: C_1  and  N_28
    2  A    between atoms: C_2  and  C_6
    3  A    between atoms: C_4  and  O_22
    4  A    between atoms: C_11  and  C_14
    5  A    between atoms: C_13  and  N_38
    6  A    between atoms: C_14  and  O_22
    7  A    between atoms: N_28  and  C_35
                            x       y       z     vdW  Elec       q    Type
                         _______ _______ _______ _____ _____    ______ ____

>  <TORSDO>
F 7

$$$$
=
 OpenBabel10262422293D

 43 49  0  0  1  0  0  0  0  0999 V2000
  185.4530  178.9370  140.7740 C   0  0  0  0  0  2  0  0  0  0  0  0
  191.2050  176.4560  144.8860 C   0  0  0  0  0  0  0  0  0  0  0  0
  187.3130  178.0380  142.1370 C   0  0  0  0  0  0  0  0  0  0  0  0
  189.0130  177.1850  144.1580 C   0  0  0  0  0  0  0  0  0  0  0  0
  191.6910  176.5880  143.5790 C   0  0  0  0  0  3  0  0  0  0  0  0
  192.0320  176.0380  145.8740 F   0  0  0  0  0  0  0  0  0  0  0  0
  189.5090  177.3180  142.8340 C   0  0  0  0  0  0  0  0  0  0  0  0
  189.8690  176.7540  145.1740 C   0  0  0  0  0  3  0  0  0  0  0  0
  190.8460  177.0190  142.5520 C   0  0  0  0  0  3  0  0  0  0  0  0
  188.9080  177.9630  140.4640 N   0  0  0  0  0  0  0  0  0  0  0  0
  188.6260  177.7490  141.8440 C   0  0  0  0  0  0  0  0  0  0  0  0
  186.7990  177.9240  143.4290 C   0  0  0  0  0  3  0  0  0  0  0  0
  186.6980  178.4670  140.8920 C   0  0  0  0  0  0  0  0  0  0  0  0
  187.7010  178.3660  139.8680 N   0  0  0  0  0  0  0  0  0  0  0  0
  187.6670  177.4880  144.4460 C   0  0  0  0  0  3  0  0  0  0  0  0
  187.9070  177.8350  137.4410 C   0  0  1  0  0  3  0  0  0  0  0  0
  186.5980  178.2080  137.8000 O   0  0  0  0  0  0  0  0  0  0  0  0
  187.6290  178.8700  138.4950 C   0  0  1  0  0  3  0  0  0  0  0  0
  187.7160  175.6230  134.8800 O   0  0  0  0  0  1  0  0  0  0  0  0
  188.2130  174.9960  136.0270 C   0  0  2  0  0  0  0  0  0  0  0  0
  188.2020  176.4120  137.9530 C   0  0  1  0  0  3  0  0  0  0  0  0
  190.6810  176.9960  137.6680 C   0  0  0  0  0  1  0  0  0  0  0  0
  187.3740  175.3780  137.2370 C   0  0  1  0  0  3  0  0  0  0  0  0
  189.5430  175.4160  136.2470 O   0  0  0  0  0  0  0  0  0  0  0  0
  186.0980  175.8090  136.9050 F   0  0  0  0  0  0  0  0  0  0  0  0
  189.5910  175.9410  137.5510 C   0  0  2  0  0  3  0  0  0  0  0  0
  188.1670  173.5780  135.8630 O   0  0  0  0  0  0  0  0  0  0  0  0
  187.3610  172.7230  136.6230 C   0  0  0  0  0  0  0  0  0  0  0  0
  187.8720  172.1050  137.5940 O   0  0  0  0  0  0  0  0  0  0  0  0
  185.9070  172.5300  136.3100 C   0  0  2  0  0  3  0  0  0  0  0  0
  184.2640  171.0880  135.4050 C   0  0  0  0  0  2  0  0  0  0  0  0
  183.6270  172.2660  137.2180 C   0  0  0  0  0  2  0  0  0  0  0  0
  183.5830  170.9880  136.6320 O   0  0  0  0  0  0  0  0  0  0  0  0
  185.0650  172.6270  137.5800 C   0  0  0  0  0  2  0  0  0  0  0  0
  185.6980  171.2440  135.6460 N   0  0  0  0  0  2  0  0  0  0  0  0
  184.9240  179.4050  139.5360 N   0  0  0  0  0  2  0  0  0  0  0  0
  181.3630  179.7260  138.2510 C   0  0  0  0  0  2  0  0  0  0  0  0
  182.0290  177.0650  139.3440 C   0  0  0  0  0  2  0  0  0  0  0  0
  180.6060  177.6180  139.4680 C   0  0  0  0  0  2  0  0  0  0  0  0
  182.7000  180.1310  138.8580 C   0  0  0  0  0  2  0  0  0  0  0  0
  183.6370  178.9390  139.0510 C   0  0  0  0  0  3  0  0  0  0  0  0
  180.4710  179.1380  139.3340 C   0  0  0  0  0  2  0  0  0  0  0  0
  183.0690  177.9290  140.0410 C   0  0  0  0  0  2  0  0  0  0  0  0
  1 13  1  0  0  0  0
  2  8  1  0  0  0  0
  2  6  1  0  0  0  0
  3 12  1  0  0  0  0
  4 15  1  0  0  0  0
  4  8  2  0  0  0  0
  5  2  2  0  0  0  0
  7  4  1  0  0  0  0
  9  7  2  0  0  0  0
  9  5  1  0  0  0  0
 10 11  2  0  0  0  0
 11  3  1  0  0  0  0
 11  7  1  0  0  0  0
 12 15  2  0  0  0  0
 13  3  2  0  0  0  0
 14 10  1  0  0  0  0
 14 13  1  0  0  0  0
 16 17  1  6  0  0  0
 16 18  1  0  0  0  0
 17 18  1  0  0  0  0
 18 14  1  1  0  0  0
 20 19  1  6  0  0  0
 20 24  1  0  0  0  0
 20 23  1  0  0  0  0
 21 16  1  6  0  0  0
 23 25  1  6  0  0  0
 23 21  1  0  0  0  0
 24 26  1  0  0  0  0
 26 22  1  6  0  0  0
 26 21  1  0  0  0  0
 27 20  1  0  0  0  0
 27 28  1  0  0  0  0
 28 29  2  0  0  0  0
 30 28  1  1  0  0  0
 30 34  1  0  0  0  0
 31 35  1  0  0  0  0
 31 33  1  0  0  0  0
 32 34  1  0  0  0  0
 33 32  1  0  0  0  0
 35 30  1  0  0  0  0
 36  1  1  0  0  0  0
 37 40  1  0  0  0  0
 37 42  1  0  0  0  0
 38 39  1  0  0  0  0
 38 43  1  0  0  0  0
 40 41  1  0  0  0  0
 41 36  1  0  0  0  0
 41 43  1  0  0  0  0
 42 39  1  0  0  0  0
M  END
>  <MODEL>
7

>  <REMARK>
 VINA RESULT:      -7.9      2.888      6.350
  Name = 
  7 active torsions:
  status: ('A' for Active; 'I' for Inactive)
    1  A    between atoms: C_1  and  N_28
    2  A    between atoms: C_2  and  C_6
    3  A    between atoms: C_4  and  O_22
    4  A    between atoms: C_11  and  C_14
    5  A    between atoms: C_13  and  N_38
    6  A    between atoms: C_14  and  O_22
    7  A    between atoms: N_28  and  C_35
                            x       y       z     vdW  Elec       q    Type
                         _______ _______ _______ _____ _____    ______ ____

>  <TORSDO>
F 7

$$$$
=
 OpenBabel10262422293D

 43 49  0  0  1  0  0  0  0  0999 V2000
  191.2660  176.7720  138.0130 C   0  0  0  0  0  2  0  0  0  0  0  0
  184.4550  179.0570  140.1420 C   0  0  0  0  0  0  0  0  0  0  0  0
  188.9880  177.4430  138.7110 C   0  0  0  0  0  0  0  0  0  0  0  0
  186.3230  178.2000  138.8600 C   0  0  0  0  0  0  0  0  0  0  0  0
  185.2690  179.1560  141.2770 C   0  0  0  0  0  3  0  0  0  0  0  0
  183.1530  179.4240  140.2120 F   0  0  0  0  0  0  0  0  0  0  0  0
  187.1460  178.3020  140.0120 C   0  0  0  0  0  0  0  0  0  0  0  0
  184.9810  178.5800  138.9370 C   0  0  0  0  0  3  0  0  0  0  0  0
  186.6140  178.7800  141.2150 C   0  0  0  0  0  3  0  0  0  0  0  0
  189.4800  177.9420  140.9150 N   0  0  0  0  0  0  0  0  0  0  0  0
  188.4810  177.9120  139.9000 C   0  0  0  0  0  0  0  0  0  0  0  0
  188.2070  177.3380  137.5600 C   0  0  0  0  0  3  0  0  0  0  0  0
  190.3920  177.1510  138.9490 C   0  0  0  0  0  0  0  0  0  0  0  0
  190.6520  177.4280  140.3350 N   0  0  0  0  0  0  0  0  0  0  0  0
  186.8560  177.7210  137.6460 C   0  0  0  0  0  3  0  0  0  0  0  0
  191.8740  177.6160  142.5000 C   0  0  1  0  0  3  0  0  0  0  0  0
  192.0880  176.3770  141.8700 O   0  0  0  0  0  0  0  0  0  0  0  0
  191.9530  177.4810  141.0060 C   0  0  1  0  0  3  0  0  0  0  0  0
  191.8820  176.2120  145.5850 O   0  0  0  0  0  1  0  0  0  0  0  0
  190.6440  176.8090  145.3270 C   0  0  2  0  0  0  0  0  0  0  0  0
  190.4550  177.6580  143.1000 C   0  0  1  0  0  3  0  0  0  0  0  0
  191.0150  180.0440  143.8490 C   0  0  0  0  0  1  0  0  0  0  0  0
  190.1640  176.4380  143.9320 C   0  0  1  0  0  3  0  0  0  0  0  0
  190.7810  178.2130  145.3990 O   0  0  0  0  0  0  0  0  0  0  0  0
  190.7420  175.2740  143.4460 F   0  0  0  0  0  0  0  0  0  0  0  0
  190.3240  178.7280  144.1730 C   0  0  2  0  0  3  0  0  0  0  0  0
  189.6810  176.3610  146.2810 O   0  0  0  0  0  0  0  0  0  0  0  0
  188.8510  177.2110  147.0220 C   0  0  0  0  0  0  0  0  0  0  0  0
  189.3330  177.8220  148.0130 O   0  0  0  0  0  0  0  0  0  0  0  0
  187.4100  177.4100  146.6630 C   0  0  2  0  0  3  0  0  0  0  0  0
  185.4340  178.6480  147.0670 C   0  0  0  0  0  2  0  0  0  0  0  0
  185.8020  178.0830  144.9150 C   0  0  0  0  0  2  0  0  0  0  0  0
  185.3970  179.1410  145.7490 O   0  0  0  0  0  0  0  0  0  0  0  0
  187.2650  177.7390  145.1790 C   0  0  0  0  0  2  0  0  0  0  0  0
  186.8220  178.4650  147.4880 N   0  0  0  0  0  2  0  0  0  0  0  0
  192.6470  176.5620  138.2930 N   0  0  0  0  0  2  0  0  0  0  0  0
  193.3380  173.9700  135.6010 C   0  0  0  0  0  2  0  0  0  0  0  0
  195.5690  174.3920  137.4900 C   0  0  0  0  0  2  0  0  0  0  0  0
  195.3330  173.0120  136.8680 C   0  0  0  0  0  2  0  0  0  0  0  0
  192.5530  174.8200  136.5910 C   0  0  0  0  0  2  0  0  0  0  0  0
  193.4600  175.7070  137.4440 C   0  0  0  0  0  3  0  0  0  0  0  0
  193.9240  172.7640  136.3210 C   0  0  0  0  0  2  0  0  0  0  0  0
  194.3940  174.8820  138.3210 C   0  0  0  0  0  2  0  0  0  0  0  0
  1 36  1  0  0  0  0
  1 13  1  0  0  0  0
  2  6  1  0  0  0  0
  2  5  1  0  0  0  0
  3 13  2  0  0  0  0
  3 11  1  0  0  0  0
  4  8  1  0  0  0  0
  4  7  2  0  0  0  0
  7  9  1  0  0  0  0
  8  2  2  0  0  0  0
  9  5  2  0  0  0  0
 11  7  1  0  0  0  0
 11 10  2  0  0  0  0
 12 15  2  0  0  0  0
 12  3  1  0  0  0  0
 13 14  1  0  0  0  0
 14 10  1  0  0  0  0
 15  4  1  0  0  0  0
 16 17  1  1  0  0  0
 18 14  1  6  0  0  0
 18 17  1  0  0  0  0
 18 16  1  0  0  0  0
 20 24  1  0  0  0  0
 20 19  1  1  0  0  0
 20 27  1  0  0  0  0
 21 16  1  1  0  0  0
 21 23  1  0  0  0  0
 21 26  1  0  0  0  0
 23 25  1  6  0  0  0
 23 20  1  0  0  0  0
 26 22  1  6  0  0  0
 26 24  1  0  0  0  0
 27 28  1  0  0  0  0
 28 29  2  0  0  0  0
 30 28  1  1  0  0  0
 30 35  1  0  0  0  0
 31 35  1  0  0  0  0
 32 34  1  0  0  0  0
 32 33  1  0  0  0  0
 33 31  1  0  0  0  0
 34 30  1  0  0  0  0
 37 42  1  0  0  0  0
 37 40  1  0  0  0  0
 38 43  1  0  0  0  0
 39 38  1  0  0  0  0
 40 41  1  0  0  0  0
 41 36  1  0  0  0  0
 41 43  1  0  0  0  0
 42 39  1  0  0  0  0
M  END
>  <MODEL>
8

>  <REMARK>
 VINA RESULT:      -7.7      4.215      6.835
  Name = 
  7 active torsions:
  status: ('A' for Active; 'I' for Inactive)
    1  A    between atoms: C_1  and  N_28
    2  A    between atoms: C_2  and  C_6
    3  A    between atoms: C_4  and  O_22
    4  A    between atoms: C_11  and  C_14
    5  A    between atoms: C_13  and  N_38
    6  A    between atoms: C_14  and  O_22
    7  A    between atoms: N_28  and  C_35
                            x       y       z     vdW  Elec       q    Type
                         _______ _______ _______ _____ _____    ______ ____

>  <TORSDO>
F 7

$$$$
=
 OpenBabel10262422293D

 43 49  0  0  1  0  0  0  0  0999 V2000
  183.4400  178.6060  141.0420 C   0  0  0  0  0  2  0  0  0  0  0  0
  189.8650  177.7770  144.8060 C   0  0  0  0  0  0  0  0  0  0  0  0
  185.5430  178.2460  142.2950 C   0  0  0  0  0  0  0  0  0  0  0  0
  187.5210  177.9140  144.2130 C   0  0  0  0  0  0  0  0  0  0  0  0
  190.2230  177.9760  143.4670 C   0  0  0  0  0  3  0  0  0  0  0  0
  190.8280  177.6130  145.7440 F   0  0  0  0  0  0  0  0  0  0  0  0
  187.8870  178.1170  142.8560 C   0  0  0  0  0  0  0  0  0  0  0  0
  188.5170  177.7460  145.1770 C   0  0  0  0  0  3  0  0  0  0  0  0
  189.2370  178.1470  142.4910 C   0  0  0  0  0  3  0  0  0  0  0  0
  187.0030  178.5050  140.5200 N   0  0  0  0  0  0  0  0  0  0  0  0
  186.8660  178.2800  141.9190 C   0  0  0  0  0  0  0  0  0  0  0  0
  185.1520  178.0560  143.6200 C   0  0  0  0  0  3  0  0  0  0  0  0
  184.7670  178.4630  141.0860 C   0  0  0  0  0  0  0  0  0  0  0  0
  185.7000  178.5750  139.9980 N   0  0  0  0  0  0  0  0  0  0  0  0
  186.1610  177.8860  144.5850 C   0  0  0  0  0  3  0  0  0  0  0  0
  186.3280  178.3800  137.5930 C   0  0  1  0  0  3  0  0  0  0  0  0
  185.0400  177.8770  137.8540 O   0  0  0  0  0  0  0  0  0  0  0  0
  185.4220  178.9940  138.6220 C   0  0  1  0  0  3  0  0  0  0  0  0
  187.5610  176.5130  135.0470 O   0  0  0  0  0  1  0  0  0  0  0  0
  188.2940  176.2840  136.2150 C   0  0  2  0  0  0  0  0  0  0  0  0
  187.3890  177.3970  138.1280 C   0  0  1  0  0  3  0  0  0  0  0  0
  189.0550  179.3340  137.9210 C   0  0  0  0  0  1  0  0  0  0  0  0
  187.3530  176.0830  137.3940 C   0  0  1  0  0  3  0  0  0  0  0  0
  189.1130  177.4050  136.4770 O   0  0  0  0  0  0  0  0  0  0  0  0
  186.0790  175.6840  137.0150 F   0  0  0  0  0  0  0  0  0  0  0  0
  188.8010  177.8410  137.7760 C   0  0  2  0  0  3  0  0  0  0  0  0
  189.0980  175.1140  136.0620 O   0  0  0  0  0  0  0  0  0  0  0  0
  190.1850  174.7930  136.8830 C   0  0  0  0  0  0  0  0  0  0  0  0
  190.1310  173.7510  137.5890 O   0  0  0  0  0  0  0  0  0  0  0  0
  191.4090  175.6570  136.9390 C   0  0  2  0  0  3  0  0  0  0  0  0
  192.9950  176.7350  138.3250 C   0  0  0  0  0  2  0  0  0  0  0  0
  193.8140  175.8490  136.4200 C   0  0  0  0  0  2  0  0  0  0  0  0
  194.0620  175.9830  137.7980 O   0  0  0  0  0  0  0  0  0  0  0  0
  192.5670  175.0010  136.1910 C   0  0  0  0  0  2  0  0  0  0  0  0
  191.7750  175.9290  138.3290 N   0  0  0  0  0  2  0  0  0  0  0  0
  182.7370  178.8820  139.8330 N   0  0  0  0  0  2  0  0  0  0  0  0
  179.5690  180.9460  140.2120 C   0  0  0  0  0  2  0  0  0  0  0  0
  181.4590  181.9740  138.1900 C   0  0  0  0  0  2  0  0  0  0  0  0
  179.9500  182.1580  138.0020 C   0  0  0  0  0  2  0  0  0  0  0  0
  180.4840  179.7280  140.2130 C   0  0  0  0  0  2  0  0  0  0  0  0
  181.8900  180.0570  139.7130 C   0  0  0  0  0  3  0  0  0  0  0  0
  179.0610  181.1990  138.8000 C   0  0  0  0  0  2  0  0  0  0  0  0
  181.8810  180.5140  138.2600 C   0  0  0  0  0  2  0  0  0  0  0  0
  1 13  1  0  0  0  0
  2  8  1  0  0  0  0
  2  6  1  0  0  0  0
  3 12  1  0  0  0  0
  4 15  1  0  0  0  0
  4  8  2  0  0  0  0
  5  2  2  0  0  0  0
  7  4  1  0  0  0  0
  9  7  2  0  0  0  0
  9  5  1  0  0  0  0
 10 11  2  0  0  0  0
 11  3  1  0  0  0  0
 11  7  1  0  0  0  0
 12 15  2  0  0  0  0
 13  3  2  0  0  0  0
 14 10  1  0  0  0  0
 14 13  1  0  0  0  0
 16 17  1  6  0  0  0
 16 18  1  0  0  0  0
 17 18  1  0  0  0  0
 18 14  1  1  0  0  0
 20 19  1  6  0  0  0
 20 24  1  0  0  0  0
 20 23  1  0  0  0  0
 21 16  1  6  0  0  0
 23 25  1  6  0  0  0
 23 21  1  0  0  0  0
 24 26  1  0  0  0  0
 26 22  1  6  0  0  0
 26 21  1  0  0  0  0
 27 20  1  0  0  0  0
 27 28  1  0  0  0  0
 28 29  2  0  0  0  0
 30 28  1  1  0  0  0
 30 35  1  0  0  0  0
 31 35  1  0  0  0  0
 32 33  1  0  0  0  0
 33 31  1  0  0  0  0
 34 32  1  0  0  0  0
 34 30  1  0  0  0  0
 36  1  1  0  0  0  0
 37 40  1  0  0  0  0
 38 43  1  0  0  0  0
 39 38  1  0  0  0  0
 39 42  1  0  0  0  0
 41 36  1  0  0  0  0
 41 40  1  0  0  0  0
 42 37  1  0  0  0  0
 43 41  1  0  0  0  0
M  END
>  <MODEL>
9

>  <REMARK>
 VINA RESULT:      -7.6      2.929      8.088
  Name = 
  7 active torsions:
  status: ('A' for Active; 'I' for Inactive)
    1  A    between atoms: C_1  and  N_28
    2  A    between atoms: C_2  and  C_6
    3  A    between atoms: C_4  and  O_22
    4  A    between atoms: C_11  and  C_14
    5  A    between atoms: C_13  and  N_38
    6  A    between atoms: C_14  and  O_22
    7  A    between atoms: N_28  and  C_35
                            x       y       z     vdW  Elec       q    Type
                         _______ _______ _______ _____ _____    ______ ____

>  <TORSDO>
F 7

$$$$
