=
 OpenBabel10262421313D

 32 36  0  0  1  0  0  0  0  0999 V2000
  182.1430  178.4250  140.1380 C   0  0  1  0  0  3  0  0  0  0  0  0
  186.8910  178.2960  142.2210 C   0  0  0  0  0  0  0  0  0  0  0  0
  186.0060  177.8860  146.9890 C   0  0  0  0  0  3  0  0  0  0  0  0
  187.3790  177.8620  147.2400 C   0  0  0  0  0  3  0  0  0  0  0  0
  185.0390  178.9780  140.6560 C   0  0  2  0  0  3  0  0  0  0  0  0
  184.5230  178.2620  142.9730 C   0  0  0  0  0  3  0  0  0  0  0  0
  182.6020  178.7470  141.5640 C   0  0  0  0  0  2  0  0  0  0  0  0
  185.5360  177.9960  145.6790 C   0  0  0  0  0  3  0  0  0  0  0  0
  185.9680  178.2020  143.2770 C   0  0  0  0  0  0  0  0  0  0  0  0
  186.4330  178.0830  144.6020 C   0  0  0  0  0  0  0  0  0  0  0  0
  188.7390  178.1500  143.7860 C   0  0  0  0  0  0  0  0  0  0  0  0
  183.0470  179.1010  139.1070 C   0  0  0  0  0  2  0  0  0  0  0  0
  184.0770  178.5460  141.7470 C   0  0  0  0  0  0  0  0  0  0  0  0
  184.4950  178.6450  139.2680 C   0  0  0  0  0  2  0  0  0  0  0  0
  188.2850  177.9470  146.1820 C   0  0  0  0  0  3  0  0  0  0  0  0
  187.8300  178.0590  144.8580 C   0  0  0  0  0  0  0  0  0  0  0  0
  186.4150  178.3180  140.7990 C   0  0  0  0  0  2  0  0  0  0  0  0
  188.2620  178.2590  142.4780 C   0  0  0  0  0  3  0  0  0  0  0  0
  182.0610  176.9220  139.8970 C   0  0  0  0  0  2  0  0  0  0  0  0
  180.6910  176.5430  139.3620 C   0  0  0  0  0  2  0  0  0  0  0  0
  179.9140  175.8460  140.4210 C   0  0  0  0  0  0  0  0  0  0  0  0
  179.7270  174.6040  140.3510 O   0  0  0  0  0  0  0  0  0  0  0  0
  179.3630  176.5720  141.4700 O   0  0  0  0  0  1  0  0  0  0  0  0
  190.2200  178.1660  144.0030 C   0  0  0  0  0  2  0  0  0  0  0  0
  191.7220  176.6170  145.4240 C   0  0  1  0  0  3  0  0  0  0  0  0
  190.8210  175.7630  143.5150 C   0  0  0  0  0  0  0  0  0  0  0  0
  191.8310  174.8510  143.9880 C   0  0  0  0  0  3  0  0  0  0  0  0
  192.3390  175.3310  145.0770 N   0  0  0  0  0  0  0  0  0  0  0  0
  190.1600  175.6370  142.4510 O   0  0  0  0  0  0  0  0  0  0  0  0
  190.6930  176.8490  144.4100 N   0  0  0  0  0  0  0  0  0  0  0  0
  191.1260  176.5750  146.8310 C   0  0  0  0  0  2  0  0  0  0  0  0
  192.0400  175.8780  147.8270 C   0  0  0  0  0  1  0  0  0  0  0  0
  1 19  1  6  0  0  0
  1  7  1  0  0  0  0
  2 18  2  0  0  0  0
  2  9  1  0  0  0  0
  3  4  1  0  0  0  0
  5 14  1  6  0  0  0
  5 17  1  0  0  0  0
  5 13  1  0  0  0  0
  6  9  1  0  0  0  0
  7 13  1  0  0  0  0
  8  3  2  0  0  0  0
  9 10  2  0  0  0  0
 10 16  1  0  0  0  0
 10  8  1  0  0  0  0
 11 24  1  0  0  0  0
 11 16  2  0  0  0  0
 12 14  1  0  0  0  0
 12  1  1  0  0  0  0
 13  6  2  0  0  0  0
 15  4  2  0  0  0  0
 16 15  1  0  0  0  0
 17  2  1  0  0  0  0
 18 11  1  0  0  0  0
 20 19  1  0  0  0  0
 20 21  1  0  0  0  0
 21 23  1  0  0  0  0
 22 21  2  0  0  0  0
 24 30  1  0  0  0  0
 25 31  1  1  0  0  0
 26 27  1  0  0  0  0
 26 30  1  0  0  0  0
 27 28  2  0  0  0  0
 28 25  1  0  0  0  0
 29 26  2  0  0  0  0
 30 25  1  0  0  0  0
 31 32  1  0  0  0  0
M  END
>  <MODEL>
1

>  <REMARK>
 VINA RESULT:      -8.8      0.000      0.000
  Name = 
  6 active torsions:
  status: ('A' for Active; 'I' for Inactive)
    1  A    between atoms: C_1  and  C_10
    2  A    between atoms: C_2  and  C_24
    3  A    between atoms: C_6  and  C_7
    4  A    between atoms: C_10  and  C_24
    5  A    between atoms: C_16  and  C_27
    6  A    between atoms: C_27  and  N_32
                            x       y       z     vdW  Elec       q    Type
                         _______ _______ _______ _____ _____    ______ ____

>  <TORSDO>
F 6

$$$$
=
 OpenBabel10262421313D

 32 36  0  0  1  0  0  0  0  0999 V2000
  181.0090  179.3850  142.4660 C   0  0  1  0  0  3  0  0  0  0  0  0
  185.8640  177.7030  143.1750 C   0  0  0  0  0  0  0  0  0  0  0  0
  186.6510  178.5350  147.9050 C   0  0  0  0  0  3  0  0  0  0  0  0
  187.9340  177.9980  147.7850 C   0  0  0  0  0  3  0  0  0  0  0  0
  183.9100  178.7920  142.0180 C   0  0  2  0  0  3  0  0  0  0  0  0
  184.0470  178.7690  144.4940 C   0  0  0  0  0  3  0  0  0  0  0  0
  182.0240  179.7370  143.5580 C   0  0  0  0  0  2  0  0  0  0  0  0
  185.8100  178.5940  146.7930 C   0  0  0  0  0  3  0  0  0  0  0  0
  185.4010  178.1800  144.4140 C   0  0  0  0  0  0  0  0  0  0  0  0
  186.2400  178.1170  145.5440 C   0  0  0  0  0  0  0  0  0  0  0  0
  187.9900  177.0950  144.1730 C   0  0  0  0  0  0  0  0  0  0  0  0
  181.6550  179.4420  141.0810 C   0  0  0  0  0  2  0  0  0  0  0  0
  183.3140  178.9890  143.4010 C   0  0  0  0  0  0  0  0  0  0  0  0
  182.8310  178.4720  140.9870 C   0  0  0  0  0  2  0  0  0  0  0  0
  188.3790  177.5200  146.5510 C   0  0  0  0  0  3  0  0  0  0  0  0
  187.5460  177.5730  145.4220 C   0  0  0  0  0  0  0  0  0  0  0  0
  184.9490  177.6660  141.9880 C   0  0  0  0  0  2  0  0  0  0  0  0
  187.1430  177.1570  143.0650 C   0  0  0  0  0  3  0  0  0  0  0  0
  180.3590  178.0290  142.7150 C   0  0  0  0  0  2  0  0  0  0  0  0
  179.2590  177.7720  141.7000 C   0  0  0  0  0  2  0  0  0  0  0  0
  179.5020  176.4760  141.0130 C   0  0  0  0  0  0  0  0  0  0  0  0
  179.1820  175.3960  141.5740 O   0  0  0  0  0  1  0  0  0  0  0  0
  180.1150  176.4540  139.7660 O   0  0  0  0  0  0  0  0  0  0  0  0
  189.3690  176.5450  143.9800 C   0  0  0  0  0  2  0  0  0  0  0  0
  190.1210  176.8840  141.5320 C   0  0  1  0  0  3  0  0  0  0  0  0
  191.2950  177.9570  143.1610 C   0  0  0  0  0  0  0  0  0  0  0  0
  192.0400  178.0470  141.9320 C   0  0  0  0  0  3  0  0  0  0  0  0
  191.3710  177.4450  141.0020 N   0  0  0  0  0  0  0  0  0  0  0  0
  191.6750  178.3900  144.2810 O   0  0  0  0  0  0  0  0  0  0  0  0
  190.0740  177.2820  142.9380 N   0  0  0  0  0  0  0  0  0  0  0  0
  188.9150  177.4140  140.7560 C   0  0  0  0  0  2  0  0  0  0  0  0
  189.0250  177.1500  139.2620 C   0  0  0  0  0  1  0  0  0  0  0  0
  1 19  1  1  0  0  0
  1  7  1  0  0  0  0
  2  9  1  0  0  0  0
  4  3  1  0  0  0  0
  5 14  1  6  0  0  0
  5 13  1  0  0  0  0
  8  3  2  0  0  0  0
  9  6  1  0  0  0  0
  9 10  2  0  0  0  0
 10  8  1  0  0  0  0
 11 16  2  0  0  0  0
 12  1  1  0  0  0  0
 13  7  1  0  0  0  0
 13  6  2  0  0  0  0
 14 12  1  0  0  0  0
 15  4  2  0  0  0  0
 16 10  1  0  0  0  0
 16 15  1  0  0  0  0
 17  5  1  0  0  0  0
 17  2  1  0  0  0  0
 18  2  2  0  0  0  0
 18 11  1  0  0  0  0
 20 19  1  0  0  0  0
 21 22  1  0  0  0  0
 21 20  1  0  0  0  0
 23 21  2  0  0  0  0
 24 11  1  0  0  0  0
 25 31  1  6  0  0  0
 25 30  1  0  0  0  0
 26 29  2  0  0  0  0
 27 26  1  0  0  0  0
 28 25  1  0  0  0  0
 28 27  2  0  0  0  0
 30 26  1  0  0  0  0
 30 24  1  0  0  0  0
 32 31  1  0  0  0  0
M  END
>  <MODEL>
2

>  <REMARK>
 VINA RESULT:      -8.7      1.940      2.988
  Name = 
  6 active torsions:
  status: ('A' for Active; 'I' for Inactive)
    1  A    between atoms: C_1  and  C_10
    2  A    between atoms: C_2  and  C_24
    3  A    between atoms: C_6  and  C_7
    4  A    between atoms: C_10  and  C_24
    5  A    between atoms: C_16  and  C_27
    6  A    between atoms: C_27  and  N_32
                            x       y       z     vdW  Elec       q    Type
                         _______ _______ _______ _____ _____    ______ ____

>  <TORSDO>
F 6

$$$$
=
 OpenBabel10262421313D

 32 36  0  0  1  0  0  0  0  0999 V2000
  191.3420  177.7490  144.5100 C   0  0  1  0  0  3  0  0  0  0  0  0
  189.2310  177.1930  139.8050 C   0  0  0  0  0  0  0  0  0  0  0  0
  193.0560  176.1370  136.9860 C   0  0  0  0  0  3  0  0  0  0  0  0
  192.2110  176.0390  135.8800 C   0  0  0  0  0  3  0  0  0  0  0  0
  189.5960  178.1410  142.1100 C   0  0  2  0  0  3  0  0  0  0  0  0
  191.4800  177.1190  140.8620 C   0  0  0  0  0  3  0  0  0  0  0  0
  191.9850  177.8520  143.1240 C   0  0  0  0  0  2  0  0  0  0  0  0
  192.5300  176.4440  138.2430 C   0  0  0  0  0  3  0  0  0  0  0  0
  190.6140  176.9760  139.6720 C   0  0  0  0  0  0  0  0  0  0  0  0
  191.1530  176.6570  138.4090 C   0  0  0  0  0  0  0  0  0  0  0  0
  188.9100  176.7750  137.4370 C   0  0  0  0  0  0  0  0  0  0  0  0
  190.0340  178.5380  144.5660 C   0  0  0  0  0  2  0  0  0  0  0  0
  191.0060  177.5870  142.0190 C   0  0  0  0  0  0  0  0  0  0  0  0
  189.0400  178.0240  143.5270 C   0  0  0  0  0  2  0  0  0  0  0  0
  190.8390  176.2480  136.0260 C   0  0  0  0  0  3  0  0  0  0  0  0
  190.2940  176.5590  137.2830 C   0  0  0  0  0  0  0  0  0  0  0  0
  188.6290  177.4290  141.1580 C   0  0  0  0  0  2  0  0  0  0  0  0
  188.3920  177.0810  138.6970 C   0  0  0  0  0  3  0  0  0  0  0  0
  191.1270  176.2980  144.9260 C   0  0  0  0  0  2  0  0  0  0  0  0
  191.9750  175.9620  146.1400 C   0  0  0  0  0  2  0  0  0  0  0  0
  191.3830  176.5860  147.3540 C   0  0  0  0  0  0  0  0  0  0  0  0
  192.1320  177.0770  148.2380 O   0  0  0  0  0  1  0  0  0  0  0  0
  190.0050  176.5970  147.5280 O   0  0  0  0  0  0  0  0  0  0  0  0
  187.9650  176.7190  136.2780 C   0  0  0  0  0  2  0  0  0  0  0  0
  186.8170  174.4120  136.0860 C   0  0  1  0  0  3  0  0  0  0  0  0
  185.5180  176.2030  136.6240 C   0  0  0  0  0  0  0  0  0  0  0  0
  184.6540  175.0990  136.2910 C   0  0  0  0  0  3  0  0  0  0  0  0
  185.3910  174.0770  135.9930 N   0  0  0  0  0  0  0  0  0  0  0  0
  185.1390  177.3680  136.9120 O   0  0  0  0  0  0  0  0  0  0  0  0
  186.8690  175.7970  136.5530 N   0  0  0  0  0  0  0  0  0  0  0  0
  187.5380  173.4660  137.0490 C   0  0  0  0  0  2  0  0  0  0  0  0
  188.9420  173.1180  136.5770 C   0  0  0  0  0  1  0  0  0  0  0  0
  1 12  1  0  0  0  0
  1 19  1  6  0  0  0
  2 17  1  0  0  0  0
  3  8  2  0  0  0  0
  4 15  2  0  0  0  0
  4  3  1  0  0  0  0
  5 17  1  6  0  0  0
  5 14  1  0  0  0  0
  6 13  2  0  0  0  0
  7  1  1  0  0  0  0
  8 10  1  0  0  0  0
  9  2  1  0  0  0  0
  9  6  1  0  0  0  0
 10  9  2  0  0  0  0
 11 18  1  0  0  0  0
 13  5  1  0  0  0  0
 13  7  1  0  0  0  0
 14 12  1  0  0  0  0
 15 16  1  0  0  0  0
 16 11  2  0  0  0  0
 16 10  1  0  0  0  0
 18  2  2  0  0  0  0
 19 20  1  0  0  0  0
 20 21  1  0  0  0  0
 21 23  2  0  0  0  0
 21 22  1  0  0  0  0
 24 30  1  0  0  0  0
 24 11  1  0  0  0  0
 25 30  1  0  0  0  0
 25 31  1  1  0  0  0
 26 29  2  0  0  0  0
 27 26  1  0  0  0  0
 28 25  1  0  0  0  0
 28 27  2  0  0  0  0
 30 26  1  0  0  0  0
 32 31  1  0  0  0  0
M  END
>  <MODEL>
3

>  <REMARK>
 VINA RESULT:      -8.2      5.023      9.590
  Name = 
  6 active torsions:
  status: ('A' for Active; 'I' for Inactive)
    1  A    between atoms: C_1  and  C_10
    2  A    between atoms: C_2  and  C_24
    3  A    between atoms: C_6  and  C_7
    4  A    between atoms: C_10  and  C_24
    5  A    between atoms: C_16  and  C_27
    6  A    between atoms: C_27  and  N_32
                            x       y       z     vdW  Elec       q    Type
                         _______ _______ _______ _____ _____    ______ ____

>  <TORSDO>
F 6

$$$$
=
 OpenBabel10262421313D

 32 36  0  0  1  0  0  0  0  0999 V2000
  179.9960  178.8970  141.8280 C   0  0  1  0  0  3  0  0  0  0  0  0
  185.1800  178.7970  141.9350 C   0  0  0  0  0  0  0  0  0  0  0  0
  186.3750  178.0080  137.2830 C   0  0  0  0  0  3  0  0  0  0  0  0
  187.7270  178.0490  137.6250 C   0  0  0  0  0  3  0  0  0  0  0  0
  182.8150  178.4030  142.7060 C   0  0  2  0  0  3  0  0  0  0  0  0
  183.3430  178.5150  140.2860 C   0  0  0  0  0  3  0  0  0  0  0  0
  180.9890  178.2720  140.8440 C   0  0  0  0  0  2  0  0  0  0  0  0
  185.3990  178.1860  138.2650 C   0  0  0  0  0  3  0  0  0  0  0  0
  184.7850  178.5830  140.6020 C   0  0  0  0  0  0  0  0  0  0  0  0
  185.7630  178.4100  139.6030 C   0  0  0  0  0  0  0  0  0  0  0  0
  187.5150  178.6700  141.2900 C   0  0  0  0  0  0  0  0  0  0  0  0
  180.3560  178.5390  143.2710 C   0  0  0  0  0  2  0  0  0  0  0  0
  182.4150  178.5060  141.2460 C   0  0  0  0  0  0  0  0  0  0  0  0
  181.7610  179.0250  143.6190 C   0  0  0  0  0  2  0  0  0  0  0  0
  188.1080  178.2700  138.9500 C   0  0  0  0  0  3  0  0  0  0  0  0
  187.1390  178.4510  139.9510 C   0  0  0  0  0  0  0  0  0  0  0  0
  184.1570  179.0870  142.9910 C   0  0  0  0  0  2  0  0  0  0  0  0
  186.5340  178.8490  142.2670 C   0  0  0  0  0  3  0  0  0  0  0  0
  179.8940  180.4070  141.6460 C   0  0  0  0  0  2  0  0  0  0  0  0
  179.0250  180.7400  140.4460 C   0  0  0  0  0  2  0  0  0  0  0  0
  179.7770  181.6180  139.5100 C   0  0  0  0  0  0  0  0  0  0  0  0
  179.2540  182.6820  139.0860 O   0  0  0  0  0  1  0  0  0  0  0  0
  181.0430  181.2480  139.0740 O   0  0  0  0  0  0  0  0  0  0  0  0
  188.9500  178.6870  141.7180 C   0  0  0  0  0  2  0  0  0  0  0  0
  189.4780  177.5170  143.9590 C   0  0  1  0  0  3  0  0  0  0  0  0
  190.0670  176.4460  142.0380 C   0  0  0  0  0  0  0  0  0  0  0  0
  190.6980  175.7730  143.1440 C   0  0  0  0  0  3  0  0  0  0  0  0
  190.3580  176.3750  144.2380 N   0  0  0  0  0  0  0  0  0  0  0  0
  190.2210  176.1590  140.8220 O   0  0  0  0  0  0  0  0  0  0  0  0
  189.2630  177.5060  142.5130 N   0  0  0  0  0  0  0  0  0  0  0  0
  188.1610  177.3900  144.7250 C   0  0  0  0  0  2  0  0  0  0  0  0
  188.3440  177.5610  146.2260 C   0  0  0  0  0  1  0  0  0  0  0  0
  1 19  1  1  0  0  0
  1 12  1  0  0  0  0
  2 18  1  0  0  0  0
  2 17  1  0  0  0  0
  3  4  2  0  0  0  0
  3  8  1  0  0  0  0
  4 15  1  0  0  0  0
  5 17  1  6  0  0  0
  5 14  1  0  0  0  0
  6  9  1  0  0  0  0
  6 13  2  0  0  0  0
  7 13  1  0  0  0  0
  7  1  1  0  0  0  0
  8 10  2  0  0  0  0
  9  2  2  0  0  0  0
 10 16  1  0  0  0  0
 10  9  1  0  0  0  0
 11 24  1  0  0  0  0
 11 18  2  0  0  0  0
 12 14  1  0  0  0  0
 13  5  1  0  0  0  0
 15 16  2  0  0  0  0
 16 11  1  0  0  0  0
 20 19  1  0  0  0  0
 21 20  1  0  0  0  0
 22 21  1  0  0  0  0
 23 21  2  0  0  0  0
 24 30  1  0  0  0  0
 25 28  1  0  0  0  0
 25 31  1  1  0  0  0
 26 30  1  0  0  0  0
 26 27  1  0  0  0  0
 27 28  2  0  0  0  0
 29 26  2  0  0  0  0
 30 25  1  0  0  0  0
 31 32  1  0  0  0  0
M  END
>  <MODEL>
4

>  <REMARK>
 VINA RESULT:      -8.2      2.442      4.691
  Name = 
  6 active torsions:
  status: ('A' for Active; 'I' for Inactive)
    1  A    between atoms: C_1  and  C_10
    2  A    between atoms: C_2  and  C_24
    3  A    between atoms: C_6  and  C_7
    4  A    between atoms: C_10  and  C_24
    5  A    between atoms: C_16  and  C_27
    6  A    between atoms: C_27  and  N_32
                            x       y       z     vdW  Elec       q    Type
                         _______ _______ _______ _____ _____    ______ ____

>  <TORSDO>
F 6

$$$$
=
 OpenBabel10262421313D

 32 36  0  0  1  0  0  0  0  0999 V2000
  182.3390  178.1930  140.2210 C   0  0  1  0  0  3  0  0  0  0  0  0
  187.0500  178.5120  142.3670 C   0  0  0  0  0  0  0  0  0  0  0  0
  186.2020  177.5560  147.0640 C   0  0  0  0  0  3  0  0  0  0  0  0
  187.5640  177.6930  147.3360 C   0  0  0  0  0  3  0  0  0  0  0  0
  185.1320  179.0790  140.8370 C   0  0  2  0  0  3  0  0  0  0  0  0
  184.7040  178.0930  143.0720 C   0  0  0  0  0  3  0  0  0  0  0  0
  182.7430  178.4430  141.6780 C   0  0  0  0  0  2  0  0  0  0  0  0
  185.7290  177.7210  145.7610 C   0  0  0  0  0  3  0  0  0  0  0  0
  186.1420  178.2000  143.3950 C   0  0  0  0  0  0  0  0  0  0  0  0
  186.6120  178.0240  144.7120 C   0  0  0  0  0  0  0  0  0  0  0  0
  188.8920  178.4730  143.9460 C   0  0  0  0  0  0  0  0  0  0  0  0
  183.1500  179.0750  139.2710 C   0  0  0  0  0  2  0  0  0  0  0  0
  184.2300  178.4260  141.8680 C   0  0  0  0  0  0  0  0  0  0  0  0
  184.6450  178.8040  139.4160 C   0  0  0  0  0  2  0  0  0  0  0  0
  188.4560  177.9950  146.3060 C   0  0  0  0  0  3  0  0  0  0  0  0
  187.9970  178.1650  144.9900 C   0  0  0  0  0  0  0  0  0  0  0  0
  186.5830  178.5990  140.9460 C   0  0  0  0  0  2  0  0  0  0  0  0
  188.4110  178.6360  142.6450 C   0  0  0  0  0  3  0  0  0  0  0  0
  182.4620  176.7210  139.8460 C   0  0  0  0  0  2  0  0  0  0  0  0
  181.5240  176.3850  138.7000 C   0  0  0  0  0  2  0  0  0  0  0  0
  180.6510  175.2430  139.0840 C   0  0  0  0  0  0  0  0  0  0  0  0
  180.0980  175.2260  140.2140 O   0  0  0  0  0  1  0  0  0  0  0  0
  180.4750  174.1790  138.2100 O   0  0  0  0  0  0  0  0  0  0  0  0
  190.3560  178.6680  144.1890 C   0  0  0  0  0  2  0  0  0  0  0  0
  190.8240  176.5900  142.7260 C   0  0  1  0  0  3  0  0  0  0  0  0
  191.5890  176.5730  144.8710 C   0  0  0  0  0  0  0  0  0  0  0  0
  191.6990  175.2380  144.3390 C   0  0  0  0  0  3  0  0  0  0  0  0
  191.2720  175.2470  143.1180 N   0  0  0  0  0  0  0  0  0  0  0  0
  191.8660  176.9160  146.0500 O   0  0  0  0  0  0  0  0  0  0  0  0
  191.0940  177.4490  143.8790 N   0  0  0  0  0  0  0  0  0  0  0  0
  191.5680  177.0720  141.4800 C   0  0  0  0  0  2  0  0  0  0  0  0
  190.6740  177.1080  140.2500 C   0  0  0  0  0  1  0  0  0  0  0  0
  1 19  1  6  0  0  0
  1  7  1  0  0  0  0
  2 18  2  0  0  0  0
  2  9  1  0  0  0  0
  3  4  1  0  0  0  0
  5 14  1  6  0  0  0
  5 17  1  0  0  0  0
  5 13  1  0  0  0  0
  6  9  1  0  0  0  0
  7 13  1  0  0  0  0
  8  3  2  0  0  0  0
  9 10  2  0  0  0  0
 10 16  1  0  0  0  0
 10  8  1  0  0  0  0
 11 24  1  0  0  0  0
 11 16  2  0  0  0  0
 12 14  1  0  0  0  0
 12  1  1  0  0  0  0
 13  6  2  0  0  0  0
 15  4  2  0  0  0  0
 16 15  1  0  0  0  0
 17  2  1  0  0  0  0
 18 11  1  0  0  0  0
 20 21  1  0  0  0  0
 20 19  1  0  0  0  0
 21 22  1  0  0  0  0
 23 21  2  0  0  0  0
 25 31  1  6  0  0  0
 25 28  1  0  0  0  0
 25 30  1  0  0  0  0
 26 29  2  0  0  0  0
 27 26  1  0  0  0  0
 28 27  2  0  0  0  0
 30 24  1  0  0  0  0
 30 26  1  0  0  0  0
 32 31  1  0  0  0  0
M  END
>  <MODEL>
5

>  <REMARK>
 VINA RESULT:      -8.2      1.302      2.156
  Name = 
  6 active torsions:
  status: ('A' for Active; 'I' for Inactive)
    1  A    between atoms: C_1  and  C_10
    2  A    between atoms: C_2  and  C_24
    3  A    between atoms: C_6  and  C_7
    4  A    between atoms: C_10  and  C_24
    5  A    between atoms: C_16  and  C_27
    6  A    between atoms: C_27  and  N_32
                            x       y       z     vdW  Elec       q    Type
                         _______ _______ _______ _____ _____    ______ ____

>  <TORSDO>
F 6

$$$$
=
 OpenBabel10262421313D

 32 36  0  0  1  0  0  0  0  0999 V2000
  189.5190  176.8370  144.3380 C   0  0  1  0  0  3  0  0  0  0  0  0
  185.8520  178.5450  141.0940 C   0  0  0  0  0  0  0  0  0  0  0  0
  181.8800  178.7320  143.9010 C   0  0  0  0  0  3  0  0  0  0  0  0
  181.1390  179.2070  142.8180 C   0  0  0  0  0  3  0  0  0  0  0  0
  187.8780  177.2680  141.8720 C   0  0  2  0  0  3  0  0  0  0  0  0
  186.0560  177.8190  143.4620 C   0  0  0  0  0  3  0  0  0  0  0  0
  187.9950  176.7090  144.4200 C   0  0  0  0  0  2  0  0  0  0  0  0
  183.2390  178.4510  143.7490 C   0  0  0  0  0  3  0  0  0  0  0  0
  185.2450  178.3530  142.3480 C   0  0  0  0  0  0  0  0  0  0  0  0
  183.8750  178.6420  142.5120 C   0  0  0  0  0  0  0  0  0  0  0  0
  183.7470  179.3140  140.1630 C   0  0  0  0  0  0  0  0  0  0  0  0
  190.0240  176.4730  142.9420 C   0  0  0  0  0  2  0  0  0  0  0  0
  187.3040  177.3820  143.2720 C   0  0  0  0  0  0  0  0  0  0  0  0
  189.4010  177.3790  141.8830 C   0  0  0  0  0  2  0  0  0  0  0  0
  181.7540  179.4020  141.5810 C   0  0  0  0  0  3  0  0  0  0  0  0
  183.1200  179.1240  141.4100 C   0  0  0  0  0  0  0  0  0  0  0  0
  187.3280  178.3430  140.9280 C   0  0  0  0  0  2  0  0  0  0  0  0
  185.1070  179.0320  140.0190 C   0  0  0  0  0  3  0  0  0  0  0  0
  189.9920  178.2260  144.7500 C   0  0  0  0  0  2  0  0  0  0  0  0
  191.3600  178.1500  145.4050 C   0  0  0  0  0  2  0  0  0  0  0  0
  191.3870  177.0290  146.3820 C   0  0  0  0  0  0  0  0  0  0  0  0
  192.1310  176.0340  146.1800 O   0  0  0  0  0  0  0  0  0  0  0  0
  190.5650  177.0630  147.5010 O   0  0  0  0  0  1  0  0  0  0  0  0
  182.9910  179.7860  138.9600 C   0  0  0  0  0  2  0  0  0  0  0  0
  182.7840  177.6920  137.4610 C   0  0  1  0  0  3  0  0  0  0  0  0
  180.8740  178.8130  137.9890 C   0  0  0  0  0  0  0  0  0  0  0  0
  180.5740  177.8770  136.9360 C   0  0  0  0  0  3  0  0  0  0  0  0
  181.6560  177.2330  136.6400 N   0  0  0  0  0  0  0  0  0  0  0  0
  180.0650  179.6410  138.4850 O   0  0  0  0  0  0  0  0  0  0  0  0
  182.2280  178.6920  138.3730 N   0  0  0  0  0  0  0  0  0  0  0  0
  183.4150  176.5260  138.2230 C   0  0  0  0  0  2  0  0  0  0  0  0
  182.5340  176.0320  139.3610 C   0  0  0  0  0  1  0  0  0  0  0  0
  1  7  1  0  0  0  0
  1 19  1  6  0  0  0
  2  9  1  0  0  0  0
  4  3  1  0  0  0  0
  5 17  1  6  0  0  0
  5 14  1  0  0  0  0
  5 13  1  0  0  0  0
  8  3  2  0  0  0  0
  9 10  2  0  0  0  0
  9  6  1  0  0  0  0
 10  8  1  0  0  0  0
 11 16  2  0  0  0  0
 12  1  1  0  0  0  0
 13  6  2  0  0  0  0
 13  7  1  0  0  0  0
 14 12  1  0  0  0  0
 15  4  2  0  0  0  0
 16 15  1  0  0  0  0
 16 10  1  0  0  0  0
 17  2  1  0  0  0  0
 18 11  1  0  0  0  0
 18  2  2  0  0  0  0
 19 20  1  0  0  0  0
 20 21  1  0  0  0  0
 21 23  1  0  0  0  0
 22 21  2  0  0  0  0
 24 11  1  0  0  0  0
 25 31  1  1  0  0  0
 25 30  1  0  0  0  0
 26 30  1  0  0  0  0
 26 29  2  0  0  0  0
 27 26  1  0  0  0  0
 28 27  2  0  0  0  0
 28 25  1  0  0  0  0
 30 24  1  0  0  0  0
 31 32  1  0  0  0  0
M  END
>  <MODEL>
6

>  <REMARK>
 VINA RESULT:      -8.0      3.587      8.941
  Name = 
  6 active torsions:
  status: ('A' for Active; 'I' for Inactive)
    1  A    between atoms: C_1  and  C_10
    2  A    between atoms: C_2  and  C_24
    3  A    between atoms: C_6  and  C_7
    4  A    between atoms: C_10  and  C_24
    5  A    between atoms: C_16  and  C_27
    6  A    between atoms: C_27  and  N_32
                            x       y       z     vdW  Elec       q    Type
                         _______ _______ _______ _____ _____    ______ ____

>  <TORSDO>
F 6

$$$$
=
 OpenBabel10262421313D

 32 36  0  0  1  0  0  0  0  0999 V2000
  191.1690  177.8250  144.3690 C   0  0  1  0  0  3  0  0  0  0  0  0
  189.4300  177.0360  139.5470 C   0  0  0  0  0  0  0  0  0  0  0  0
  193.4990  176.1700  137.0220 C   0  0  0  0  0  3  0  0  0  0  0  0
  192.7410  175.9950  135.8640 C   0  0  0  0  0  3  0  0  0  0  0  0
  189.5730  178.0530  141.8470 C   0  0  2  0  0  3  0  0  0  0  0  0
  191.5990  177.1290  140.7560 C   0  0  0  0  0  3  0  0  0  0  0  0
  191.8990  177.9410  143.0280 C   0  0  0  0  0  2  0  0  0  0  0  0
  192.8700  176.4690  138.2320 C   0  0  0  0  0  3  0  0  0  0  0  0
  190.8290  176.9060  139.5140 C   0  0  0  0  0  0  0  0  0  0  0  0
  191.4730  176.5960  138.2990 C   0  0  0  0  0  0  0  0  0  0  0  0
  189.3010  176.5490  137.1740 C   0  0  0  0  0  0  0  0  0  0  0  0
  189.8130  178.5290  144.3160 C   0  0  0  0  0  2  0  0  0  0  0  0
  191.0180  177.5890  141.8660 C   0  0  0  0  0  0  0  0  0  0  0  0
  188.9280  177.9300  143.2250 C   0  0  0  0  0  2  0  0  0  0  0  0
  191.3520  176.1180  135.9110 C   0  0  0  0  0  3  0  0  0  0  0  0
  190.7020  176.4190  137.1200 C   0  0  0  0  0  0  0  0  0  0  0  0
  188.7210  177.2610  140.8490 C   0  0  0  0  0  2  0  0  0  0  0  0
  188.6780  176.8470  138.3880 C   0  0  0  0  0  3  0  0  0  0  0  0
  191.0170  176.3720  144.8060 C   0  0  0  0  0  2  0  0  0  0  0  0
  191.9070  176.0810  146.0020 C   0  0  0  0  0  2  0  0  0  0  0  0
  191.3140  176.6800  147.2270 C   0  0  0  0  0  0  0  0  0  0  0  0
  192.0610  177.1270  148.1350 O   0  0  0  0  0  1  0  0  0  0  0  0
  189.9340  176.7150  147.3850 O   0  0  0  0  0  0  0  0  0  0  0  0
  188.4440  176.4080  135.9550 C   0  0  0  0  0  2  0  0  0  0  0  0
  186.5570  174.9950  137.0130 C   0  0  1  0  0  3  0  0  0  0  0  0
  188.1320  173.9090  135.7790 C   0  0  0  0  0  0  0  0  0  0  0  0
  187.3620  172.9270  136.4990 C   0  0  0  0  0  3  0  0  0  0  0  0
  186.4610  173.5410  137.1950 N   0  0  0  0  0  0  0  0  0  0  0  0
  189.1250  173.6660  135.0450 O   0  0  0  0  0  0  0  0  0  0  0  0
  187.6270  175.2020  136.0380 N   0  0  0  0  0  0  0  0  0  0  0  0
  185.2290  175.5720  136.5210 C   0  0  0  0  0  2  0  0  0  0  0  0
  185.0660  177.0410  136.8820 C   0  0  0  0  0  1  0  0  0  0  0  0
  1 19  1  6  0  0  0
  2 17  1  0  0  0  0
  3  8  2  0  0  0  0
  4 15  2  0  0  0  0
  4  3  1  0  0  0  0
  5 17  1  6  0  0  0
  5 13  1  0  0  0  0
  5 14  1  0  0  0  0
  6 13  2  0  0  0  0
  7  1  1  0  0  0  0
  8 10  1  0  0  0  0
  9  2  1  0  0  0  0
  9  6  1  0  0  0  0
 10  9  2  0  0  0  0
 11 18  1  0  0  0  0
 12  1  1  0  0  0  0
 13  7  1  0  0  0  0
 14 12  1  0  0  0  0
 15 16  1  0  0  0  0
 16 11  2  0  0  0  0
 16 10  1  0  0  0  0
 18  2  2  0  0  0  0
 19 20  1  0  0  0  0
 20 21  1  0  0  0  0
 21 23  2  0  0  0  0
 21 22  1  0  0  0  0
 24 30  1  0  0  0  0
 24 11  1  0  0  0  0
 25 31  1  6  0  0  0
 25 28  1  0  0  0  0
 26 30  1  0  0  0  0
 26 27  1  0  0  0  0
 27 28  2  0  0  0  0
 29 26  2  0  0  0  0
 30 25  1  0  0  0  0
 31 32  1  0  0  0  0
M  END
>  <MODEL>
7

>  <REMARK>
 VINA RESULT:      -7.7      5.061      9.574
  Name = 
  6 active torsions:
  status: ('A' for Active; 'I' for Inactive)
    1  A    between atoms: C_1  and  C_10
    2  A    between atoms: C_2  and  C_24
    3  A    between atoms: C_6  and  C_7
    4  A    between atoms: C_10  and  C_24
    5  A    between atoms: C_16  and  C_27
    6  A    between atoms: C_27  and  N_32
                            x       y       z     vdW  Elec       q    Type
                         _______ _______ _______ _____ _____    ______ ____

>  <TORSDO>
F 6

$$$$
=
 OpenBabel10262421313D

 32 36  0  0  1  0  0  0  0  0999 V2000
  190.7730  176.4770  144.3220 C   0  0  1  0  0  3  0  0  0  0  0  0
  186.8060  178.1850  141.4510 C   0  0  0  0  0  0  0  0  0  0  0  0
  183.2000  178.6370  144.6890 C   0  0  0  0  0  3  0  0  0  0  0  0
  182.3520  179.0940  143.6780 C   0  0  0  0  0  3  0  0  0  0  0  0
  188.8670  176.8660  142.0460 C   0  0  2  0  0  3  0  0  0  0  0  0
  187.2640  177.5510  143.8100 C   0  0  0  0  0  3  0  0  0  0  0  0
  189.2650  176.4100  144.5860 C   0  0  0  0  0  2  0  0  0  0  0  0
  184.5220  178.2990  144.3930 C   0  0  0  0  0  3  0  0  0  0  0  0
  186.3440  178.0670  142.7740 C   0  0  0  0  0  0  0  0  0  0  0  0
  185.0140  178.4140  143.0830 C   0  0  0  0  0  0  0  0  0  0  0  0
  184.6320  178.9920  140.7370 C   0  0  0  0  0  0  0  0  0  0  0  0
  191.0980  176.0370  142.8940 C   0  0  0  0  0  2  0  0  0  0  0  0
  188.4660  177.0600  143.4970 C   0  0  0  0  0  0  0  0  0  0  0  0
  190.3840  176.9210  141.8740 C   0  0  0  0  0  2  0  0  0  0  0  0
  182.8240  179.2140  142.3700 C   0  0  0  0  0  3  0  0  0  0  0  0
  184.1510  178.8770  142.0550 C   0  0  0  0  0  0  0  0  0  0  0  0
  188.2450  177.9210  141.1240 C   0  0  0  0  0  2  0  0  0  0  0  0
  185.9560  178.6530  140.4490 C   0  0  0  0  0  3  0  0  0  0  0  0
  191.3350  177.8640  144.6120 C   0  0  0  0  0  2  0  0  0  0  0  0
  190.8050  178.3870  145.9350 C   0  0  0  0  0  2  0  0  0  0  0  0
  190.9880  177.3560  146.9920 C   0  0  0  0  0  0  0  0  0  0  0  0
  192.1170  176.8290  147.1680 O   0  0  0  0  0  0  0  0  0  0  0  0
  189.9050  176.9500  147.7610 O   0  0  0  0  0  1  0  0  0  0  0  0
  183.7550  179.4410  139.6090 C   0  0  0  0  0  2  0  0  0  0  0  0
  182.2610  177.3360  139.5180 C   0  0  1  0  0  3  0  0  0  0  0  0
  183.8990  177.5440  137.9500 C   0  0  0  0  0  0  0  0  0  0  0  0
  183.3890  176.1980  137.8970 C   0  0  0  0  0  3  0  0  0  0  0  0
  182.4530  176.0790  138.7820 N   0  0  0  0  0  0  0  0  0  0  0  0
  184.8540  177.9930  137.2620 O   0  0  0  0  0  0  0  0  0  0  0  0
  183.1870  178.2930  138.9130 N   0  0  0  0  0  0  0  0  0  0  0  0
  180.8120  177.8130  139.4140 C   0  0  0  0  0  2  0  0  0  0  0  0
  179.8150  176.6740  139.5640 C   0  0  0  0  0  1  0  0  0  0  0  0
  1  7  1  0  0  0  0
  1 19  1  6  0  0  0
  2  9  1  0  0  0  0
  4  3  1  0  0  0  0
  5 17  1  6  0  0  0
  5 13  1  0  0  0  0
  8  3  2  0  0  0  0
  9 10  2  0  0  0  0
  9  6  1  0  0  0  0
 10  8  1  0  0  0  0
 11 16  2  0  0  0  0
 12  1  1  0  0  0  0
 13  6  2  0  0  0  0
 13  7  1  0  0  0  0
 14  5  1  0  0  0  0
 14 12  1  0  0  0  0
 15  4  2  0  0  0  0
 16 15  1  0  0  0  0
 16 10  1  0  0  0  0
 17  2  1  0  0  0  0
 18 11  1  0  0  0  0
 18  2  2  0  0  0  0
 19 20  1  0  0  0  0
 20 21  1  0  0  0  0
 21 22  2  0  0  0  0
 21 23  1  0  0  0  0
 24 11  1  0  0  0  0
 25 31  1  6  0  0  0
 26 30  1  0  0  0  0
 27 26  1  0  0  0  0
 27 28  2  0  0  0  0
 28 25  1  0  0  0  0
 29 26  2  0  0  0  0
 30 25  1  0  0  0  0
 30 24  1  0  0  0  0
 31 32  1  0  0  0  0
M  END
>  <MODEL>
8

>  <REMARK>
 VINA RESULT:      -7.4      3.543      8.555
  Name = 
  6 active torsions:
  status: ('A' for Active; 'I' for Inactive)
    1  A    between atoms: C_1  and  C_10
    2  A    between atoms: C_2  and  C_24
    3  A    between atoms: C_6  and  C_7
    4  A    between atoms: C_10  and  C_24
    5  A    between atoms: C_16  and  C_27
    6  A    between atoms: C_27  and  N_32
                            x       y       z     vdW  Elec       q    Type
                         _______ _______ _______ _____ _____    ______ ____

>  <TORSDO>
F 6

$$$$
=
 OpenBabel10262421313D

 32 36  0  0  1  0  0  0  0  0999 V2000
  185.0700  179.3950  143.8540 C   0  0  1  0  0  3  0  0  0  0  0  0
  183.6240  177.4900  139.2520 C   0  0  0  0  0  0  0  0  0  0  0  0
  187.5310  178.2530  136.4520 C   0  0  0  0  0  3  0  0  0  0  0  0
  186.8720  177.6600  135.3740 C   0  0  0  0  0  3  0  0  0  0  0  0
  183.4160  178.6750  141.4650 C   0  0  2  0  0  3  0  0  0  0  0  0
  185.5870  178.6280  140.2660 C   0  0  0  0  0  3  0  0  0  0  0  0
  185.6090  179.6930  142.4510 C   0  0  0  0  0  2  0  0  0  0  0  0
  186.8940  178.3580  137.6900 C   0  0  0  0  0  3  0  0  0  0  0  0
  184.9340  177.9790  139.1090 C   0  0  0  0  0  0  0  0  0  0  0  0
  185.5890  177.8700  137.8660 C   0  0  0  0  0  0  0  0  0  0  0  0
  183.6070  176.7800  136.9320 C   0  0  0  0  0  0  0  0  0  0  0  0
  183.5420  179.4320  143.8720 C   0  0  0  0  0  2  0  0  0  0  0  0
  184.9170  178.8890  141.3910 C   0  0  0  0  0  0  0  0  0  0  0  0
  182.9590  178.4110  142.8970 C   0  0  0  0  0  2  0  0  0  0  0  0
  185.5740  177.1700  135.5300 C   0  0  0  0  0  3  0  0  0  0  0  0
  184.9180  177.2680  136.7680 C   0  0  0  0  0  0  0  0  0  0  0  0
  182.9530  177.5030  140.5920 C   0  0  0  0  0  2  0  0  0  0  0  0
  182.9760  176.8880  138.1730 C   0  0  0  0  0  3  0  0  0  0  0  0
  185.5950  178.0670  144.3900 C   0  0  0  0  0  2  0  0  0  0  0  0
  186.4680  178.2950  145.6110 C   0  0  0  0  0  2  0  0  0  0  0  0
  185.6360  178.8030  146.7350 C   0  0  0  0  0  0  0  0  0  0  0  0
  184.5370  178.2530  147.0030 O   0  0  0  0  0  0  0  0  0  0  0  0
  186.0560  179.9060  147.4670 O   0  0  0  0  0  1  0  0  0  0  0  0
  182.8410  176.1690  135.8000 C   0  0  0  0  0  2  0  0  0  0  0  0
  183.5310  173.7260  135.3240 C   0  0  1  0  0  3  0  0  0  0  0  0
  181.4590  174.0940  136.1940 C   0  0  0  0  0  0  0  0  0  0  0  0
  181.5260  172.7270  135.7450 C   0  0  0  0  0  3  0  0  0  0  0  0
  182.7050  172.5130  135.2570 N   0  0  0  0  0  0  0  0  0  0  0  0
  180.4410  174.6580  136.6740 O   0  0  0  0  0  0  0  0  0  0  0  0
  182.7040  174.7310  135.9910 N   0  0  0  0  0  0  0  0  0  0  0  0
  184.8260  173.4620  136.0930 C   0  0  0  0  0  2  0  0  0  0  0  0
  184.5990  173.3640  137.5940 C   0  0  0  0  0  1  0  0  0  0  0  0
  1 12  1  0  0  0  0
  1 19  1  6  0  0  0
  2 17  1  0  0  0  0
  3  8  2  0  0  0  0
  4 15  2  0  0  0  0
  4  3  1  0  0  0  0
  5 17  1  6  0  0  0
  5 14  1  0  0  0  0
  6 13  2  0  0  0  0
  7  1  1  0  0  0  0
  8 10  1  0  0  0  0
  9  2  1  0  0  0  0
  9  6  1  0  0  0  0
 10  9  2  0  0  0  0
 11 18  1  0  0  0  0
 13  5  1  0  0  0  0
 13  7  1  0  0  0  0
 14 12  1  0  0  0  0
 15 16  1  0  0  0  0
 16 11  2  0  0  0  0
 16 10  1  0  0  0  0
 18  2  2  0  0  0  0
 19 20  1  0  0  0  0
 20 21  1  0  0  0  0
 21 22  2  0  0  0  0
 21 23  1  0  0  0  0
 24 30  1  0  0  0  0
 24 11  1  0  0  0  0
 25 30  1  0  0  0  0
 25 31  1  1  0  0  0
 26 29  2  0  0  0  0
 27 26  1  0  0  0  0
 28 25  1  0  0  0  0
 28 27  2  0  0  0  0
 30 26  1  0  0  0  0
 31 32  1  0  0  0  0
M  END
>  <MODEL>
9

>  <REMARK>
 VINA RESULT:      -7.4      4.684      9.029
  Name = 
  6 active torsions:
  status: ('A' for Active; 'I' for Inactive)
    1  A    between atoms: C_1  and  C_10
    2  A    between atoms: C_2  and  C_24
    3  A    between atoms: C_6  and  C_7
    4  A    between atoms: C_10  and  C_24
    5  A    between atoms: C_16  and  C_27
    6  A    between atoms: C_27  and  N_32
                            x       y       z     vdW  Elec       q    Type
                         _______ _______ _______ _____ _____    ______ ____

>  <TORSDO>
F 6

$$$$
