=
 OpenBabel10262419523D

 25 28  0  0  1  0  0  0  0  0999 V2000
  187.0610  178.1030  145.3640 C   0  0  0  0  0  0  0  0  0  0  0  0
  188.3480  177.8500  144.8820 C   0  0  0  0  0  0  0  0  0  0  0  0
  187.7670  177.9320  147.6670 C   0  0  0  0  0  3  0  0  0  0  0  0
  185.7940  178.3670  144.7130 C   0  0  2  0  0  3  0  0  0  0  0  0
  190.4090  177.4740  141.6580 N   0  0  0  0  0  2  0  0  0  0  0  0
  183.1080  178.9160  144.0580 C   0  0  0  0  0  3  0  0  0  0  0  0
  189.0740  177.6740  147.2150 C   0  0  0  0  0  3  0  0  0  0  0  0
  184.8470  178.5440  145.7990 C   0  0  0  0  0  0  0  0  0  0  0  0
  183.4000  178.8390  145.5460 C   0  0  0  0  0  3  0  0  0  0  0  0
  190.7250  177.3650  145.3530 C   0  0  0  0  0  0  0  0  0  0  0  0
  191.6670  177.1640  146.1650 O   0  0  0  0  0  0  0  0  0  0  0  0
  188.6280  177.8110  143.4040 C   0  0  0  0  0  2  0  0  0  0  0  0
  184.0430  178.7400  143.1030 C   0  0  0  0  0  3  0  0  0  0  0  0
  186.7760  178.1440  146.7120 C   0  0  0  0  0  0  0  0  0  0  0  0
  185.3940  178.4190  146.9700 N   0  0  0  0  0  0  0  0  0  0  0  0
  190.9840  177.3300  143.9470 N   0  0  0  0  0  0  0  0  0  0  0  0
  185.4560  178.4510  143.4320 C   0  0  0  0  0  3  0  0  0  0  0  0
  190.0670  177.5260  143.0430 C   0  0  0  0  0  0  0  0  0  0  0  0
  189.3650  177.6320  145.8330 C   0  0  0  0  0  0  0  0  0  0  0  0
  191.7630  177.2070  141.1970 C   0  0  0  0  0  2  0  0  0  0  0  0
  191.7630  177.0590  139.6890 C   0  0  0  0  0  2  0  0  0  0  0  0
  190.7940  176.0520  139.2930 N   0  0  0  0  0  2  0  0  0  0  0  0
  190.1960  176.5000  138.0460 C   0  0  0  0  0  2  0  0  0  0  0  0
  188.9480  178.7980  137.2280 S   0  0  0  0  0  1  0  0  0  0  0  0
  188.9780  177.3580  138.3350 C   0  0  0  0  0  2  0  0  0  0  0  0
  1 14  1  0  0  0  0
  2  1  2  0  0  0  0
  2 19  1  0  0  0  0
  4 17  1  6  0  0  0
  4  1  1  0  0  0  0
  4  8  1  0  0  0  0
  5 18  1  0  0  0  0
  6  9  2  0  0  0  0
  7  3  1  0  0  0  0
  8 15  2  0  0  0  0
  9  8  1  0  0  0  0
 10 19  1  0  0  0  0
 10 11  2  0  0  0  0
 12  2  1  0  0  0  0
 13 17  2  0  0  0  0
 13  6  1  0  0  0  0
 14 15  1  0  0  0  0
 14  3  2  0  0  0  0
 16 10  1  0  0  0  0
 18 12  1  0  0  0  0
 18 16  2  0  0  0  0
 19  7  2  0  0  0  0
 20  5  1  0  0  0  0
 21 20  1  0  0  0  0
 22 21  1  0  0  0  0
 23 25  1  0  0  0  0
 23 22  1  0  0  0  0
 24 25  1  0  0  0  0
M  END
>  <MODEL>
1

>  <REMARK>
 VINA RESULT:      -9.2      0.000      0.000
  Name = 
  5 active torsions:
  status: ('A' for Active; 'I' for Inactive)
    1  A    between atoms: C_2  and  C_12
    2  A    between atoms: C_2  and  N_25
    3  A    between atoms: N_6  and  C_15
    4  A    between atoms: C_15  and  C_21
    5  A    between atoms: C_21  and  N_25
                            x       y       z     vdW  Elec       q    Type
                         _______ _______ _______ _____ _____    ______ ____

>  <TORSDO>
F 5

$$$$
=
 OpenBabel10262419523D

 25 28  0  0  1  0  0  0  0  0999 V2000
  186.9740  177.9810  145.2590 C   0  0  0  0  0  0  0  0  0  0  0  0
  186.0820  178.3000  144.2310 C   0  0  0  0  0  0  0  0  0  0  0  0
  185.2880  178.2710  146.9630 C   0  0  0  0  0  3  0  0  0  0  0  0
  188.3750  177.6160  145.2760 C   0  0  0  0  0  0  0  0  0  0  0  0
  185.7970  178.7040  140.4170 N   0  0  0  0  0  2  0  0  0  0  0  0
  191.0100  176.8750  145.9530 C   0  0  0  0  0  3  0  0  0  0  0  0
  184.3660  178.5970  145.9540 C   0  0  0  0  0  3  0  0  0  0  0  0
  188.6900  177.4140  146.6790 C   0  0  0  0  0  0  0  0  0  0  0  0
  190.0620  177.0190  147.1320 C   0  0  0  0  0  3  0  0  0  0  0  0
  183.8010  178.9520  143.5360 C   0  0  0  0  0  0  0  0  0  0  0  0
  182.6070  179.2380  143.8130 O   0  0  0  0  0  0  0  0  0  0  0  0
  186.5280  178.3090  142.7940 C   0  0  0  0  0  2  0  0  0  0  0  0
  190.6430  177.0800  144.6710 C   0  0  0  0  0  3  0  0  0  0  0  0
  186.5930  177.9650  146.5840 C   0  0  2  0  0  3  0  0  0  0  0  0
  187.6700  177.6110  147.4570 N   0  0  0  0  0  0  0  0  0  0  0  0
  184.2320  178.9580  142.1720 N   0  0  0  0  0  0  0  0  0  0  0  0
  189.2650  177.4700  144.3010 C   0  0  0  0  0  3  0  0  0  0  0  0
  185.4480  178.6740  141.8020 C   0  0  0  0  0  0  0  0  0  0  0  0
  184.7570  178.6130  144.5960 C   0  0  0  0  0  0  0  0  0  0  0  0
  184.8380  179.0430  139.3780 C   0  0  0  0  0  2  0  0  0  0  0  0
  185.1680  178.2700  138.1160 C   0  0  0  0  0  2  0  0  0  0  0  0
  186.5460  178.5200  137.7320 N   0  0  0  0  0  2  0  0  0  0  0  0
  187.1130  177.2470  137.3180 C   0  0  0  0  0  2  0  0  0  0  0  0
  189.1340  178.4000  138.7660 S   0  0  0  0  0  1  0  0  0  0  0  0
  188.2920  176.8910  138.2040 C   0  0  0  0  0  2  0  0  0  0  0  0
  1  4  2  0  0  0  0
  1 14  1  0  0  0  0
  2 19  2  0  0  0  0
  2  1  1  0  0  0  0
  4  8  1  0  0  0  0
  5 18  1  0  0  0  0
  6  9  2  0  0  0  0
  7  3  2  0  0  0  0
  8  9  1  0  0  0  0
  8 15  2  0  0  0  0
 10 11  2  0  0  0  0
 10 19  1  0  0  0  0
 12  2  1  0  0  0  0
 13  6  1  0  0  0  0
 14  3  1  1  0  0  0
 14 15  1  0  0  0  0
 16 10  1  0  0  0  0
 17 13  2  0  0  0  0
 17  4  1  0  0  0  0
 18 16  2  0  0  0  0
 18 12  1  0  0  0  0
 19  7  1  0  0  0  0
 20  5  1  0  0  0  0
 21 20  1  0  0  0  0
 22 21  1  0  0  0  0
 23 22  1  0  0  0  0
 23 25  1  0  0  0  0
 25 24  1  0  0  0  0
M  END
>  <MODEL>
2

>  <REMARK>
 VINA RESULT:      -9.2      2.994      5.177
  Name = 
  5 active torsions:
  status: ('A' for Active; 'I' for Inactive)
    1  A    between atoms: C_2  and  C_12
    2  A    between atoms: C_2  and  N_25
    3  A    between atoms: N_6  and  C_15
    4  A    between atoms: C_15  and  C_21
    5  A    between atoms: C_21  and  N_25
                            x       y       z     vdW  Elec       q    Type
                         _______ _______ _______ _____ _____    ______ ____

>  <TORSDO>
F 5

$$$$
=
 OpenBabel10262419523D

 25 28  0  0  0  0  0  0  0  0999 V2000
  185.4120  178.2390  144.7270 C   0  0  0  0  0  0  0  0  0  0  0  0
  186.7340  177.7980  144.8310 C   0  0  0  0  0  0  0  0  0  0  0  0
  185.2750  178.7380  147.0850 C   0  0  0  0  0  3  0  0  0  0  0  0
  184.4900  178.3500  143.6160 C   0  0  0  0  0  0  0  0  0  0  0  0
  189.6750  176.3810  142.7980 N   0  0  0  0  0  2  0  0  0  0  0  0
  182.2890  178.7920  141.9100 C   0  0  0  0  0  3  0  0  0  0  0  0
  186.6040  178.3010  147.2250 C   0  0  0  0  0  3  0  0  0  0  0  0
  183.2710  178.8860  144.1950 C   0  0  0  0  0  0  0  0  0  0  0  0
  182.0530  179.1530  143.3660 C   0  0  0  0  0  2  0  0  0  0  0  0
  188.7180  177.3740  146.2430 C   0  0  0  0  0  0  0  0  0  0  0  0
  189.2930  177.3870  147.3630 O   0  0  0  0  0  0  0  0  0  0  0  0
  187.4830  177.3040  143.6220 C   0  0  0  0  0  2  0  0  0  0  0  0
  183.4530  178.2960  141.4430 C   0  0  0  0  0  3  0  0  0  0  0  0
  184.7020  178.6960  145.8160 C   0  0  0  0  0  0  0  0  0  0  0  0
  183.3710  179.0950  145.4720 N   0  0  0  0  0  0  0  0  0  0  0  0
  189.4240  176.9070  145.0910 N   0  0  0  0  0  0  0  0  0  0  0  0
  184.6160  178.0590  142.3260 C   0  0  0  0  0  3  0  0  0  0  0  0
  188.9010  176.8620  143.8980 C   0  0  0  0  0  0  0  0  0  0  0  0
  187.3310  177.8320  146.1070 C   0  0  0  0  0  0  0  0  0  0  0  0
  191.0500  175.9290  142.9490 C   0  0  0  0  0  2  0  0  0  0  0  0
  191.9950  177.0430  142.5450 C   0  0  0  0  0  2  0  0  0  0  0  0
  191.4520  177.7570  141.4020 N   0  0  0  0  0  2  0  0  0  0  0  0
  192.1530  177.2720  140.2240 C   0  0  0  0  0  2  0  0  0  0  0  0
  189.6160  177.7850  139.3240 S   0  0  0  0  0  1  0  0  0  0  0  0
  191.1530  176.8300  139.1710 C   0  0  0  0  0  2  0  0  0  0  0  0
  1  2  2  0  0  0  0
  1 14  1  0  0  0  0
  2 19  1  0  0  0  0
  3  7  1  0  0  0  0
  4  8  1  0  0  0  0
  4  1  1  0  0  0  0
  5 20  1  0  0  0  0
  5 18  1  0  0  0  0
  6  9  1  0  0  0  0
  8 15  2  0  0  0  0
  9  8  1  0  0  0  0
 10 11  2  0  0  0  0
 12 18  1  0  0  0  0
 12  2  1  0  0  0  0
 13  6  2  0  0  0  0
 13 17  1  0  0  0  0
 14  3  2  0  0  0  0
 15 14  1  0  0  0  0
 16 10  1  0  0  0  0
 17  4  2  0  0  0  0
 18 16  2  0  0  0  0
 19 10  1  0  0  0  0
 19  7  2  0  0  0  0
 21 20  1  0  0  0  0
 22 21  1  0  0  0  0
 23 22  1  0  0  0  0
 25 24  1  0  0  0  0
 25 23  1  0  0  0  0
M  END
>  <MODEL>
3

>  <REMARK>
 VINA RESULT:      -9.1      1.562      2.248
  Name = 
  5 active torsions:
  status: ('A' for Active; 'I' for Inactive)
    1  A    between atoms: C_2  and  C_12
    2  A    between atoms: C_2  and  N_25
    3  A    between atoms: N_6  and  C_15
    4  A    between atoms: C_15  and  C_21
    5  A    between atoms: C_21  and  N_25
                            x       y       z     vdW  Elec       q    Type
                         _______ _______ _______ _____ _____    ______ ____

>  <TORSDO>
F 5

$$$$
=
 OpenBabel10262419523D

 25 28  0  0  1  0  0  0  0  0999 V2000
  187.7040  177.7530  144.5010 C   0  0  0  0  0  0  0  0  0  0  0  0
  188.5700  177.5560  143.4220 C   0  0  0  0  0  0  0  0  0  0  0  0
  189.4280  177.2610  146.1190 C   0  0  0  0  0  3  0  0  0  0  0  0
  186.3050  178.1150  144.5940 C   0  0  0  0  0  0  0  0  0  0  0  0
  188.7650  177.6050  139.5820 N   0  0  0  0  0  2  0  0  0  0  0  0
  183.6900  178.7750  145.4160 C   0  0  0  0  0  3  0  0  0  0  0  0
  190.3250  177.0550  145.0570 C   0  0  0  0  0  3  0  0  0  0  0  0
  186.0240  178.1510  146.0180 C   0  0  0  0  0  0  0  0  0  0  0  0
  184.6640  178.4920  146.5470 C   0  0  0  0  0  3  0  0  0  0  0  0
  190.8320  176.9880  142.6010 C   0  0  0  0  0  0  0  0  0  0  0  0
  192.0310  176.6690  142.8140 O   0  0  0  0  0  0  0  0  0  0  0  0
  188.0910  177.7170  142.0050 C   0  0  0  0  0  2  0  0  0  0  0  0
  184.0260  178.7220  144.1110 C   0  0  0  0  0  3  0  0  0  0  0  0
  188.1160  177.6120  145.8090 C   0  0  2  0  0  3  0  0  0  0  0  0
  187.0600  177.8620  146.7430 N   0  0  0  0  0  0  0  0  0  0  0  0
  190.3690  177.1430  141.2570 N   0  0  0  0  0  0  0  0  0  0  0  0
  185.3940  178.3770  143.6650 C   0  0  0  0  0  3  0  0  0  0  0  0
  189.1460  177.4700  140.9520 C   0  0  0  0  0  0  0  0  0  0  0  0
  189.9020  177.2000  143.7160 C   0  0  0  0  0  0  0  0  0  0  0  0
  189.6980  177.3900  138.4870 C   0  0  0  0  0  2  0  0  0  0  0  0
  189.3550  178.3220  137.3410 C   0  0  0  0  0  2  0  0  0  0  0  0
  188.0290  178.8800  137.5420 N   0  0  0  0  0  2  0  0  0  0  0  0
  187.1880  178.3810  136.4650 C   0  0  0  0  0  2  0  0  0  0  0  0
  186.4190  175.7820  136.8670 S   0  0  0  0  0  1  0  0  0  0  0  0
  186.0520  177.5530  137.0360 C   0  0  0  0  0  2  0  0  0  0  0  0
  1  4  2  0  0  0  0
  1 14  1  0  0  0  0
  2 19  2  0  0  0  0
  2  1  1  0  0  0  0
  4  8  1  0  0  0  0
  5 18  1  0  0  0  0
  6  9  2  0  0  0  0
  7  3  2  0  0  0  0
  8  9  1  0  0  0  0
  8 15  2  0  0  0  0
 10 11  2  0  0  0  0
 10 19  1  0  0  0  0
 12  2  1  0  0  0  0
 13  6  1  0  0  0  0
 14  3  1  6  0  0  0
 14 15  1  0  0  0  0
 16 10  1  0  0  0  0
 17 13  2  0  0  0  0
 17  4  1  0  0  0  0
 18 16  2  0  0  0  0
 18 12  1  0  0  0  0
 19  7  1  0  0  0  0
 20  5  1  0  0  0  0
 21 22  1  0  0  0  0
 21 20  1  0  0  0  0
 23 25  1  0  0  0  0
 23 22  1  0  0  0  0
 24 25  1  0  0  0  0
M  END
>  <MODEL>
4

>  <REMARK>
 VINA RESULT:      -8.9      1.907      2.533
  Name = 
  5 active torsions:
  status: ('A' for Active; 'I' for Inactive)
    1  A    between atoms: C_2  and  C_12
    2  A    between atoms: C_2  and  N_25
    3  A    between atoms: N_6  and  C_15
    4  A    between atoms: C_15  and  C_21
    5  A    between atoms: C_21  and  N_25
                            x       y       z     vdW  Elec       q    Type
                         _______ _______ _______ _____ _____    ______ ____

>  <TORSDO>
F 5

$$$$
=
 OpenBabel10262419523D

 25 28  0  0  1  0  0  0  0  0999 V2000
  187.1000  177.8160  144.6280 C   0  0  0  0  0  0  0  0  0  0  0  0
  188.2760  177.4650  143.9590 C   0  0  0  0  0  0  0  0  0  0  0  0
  188.1160  177.5300  146.8000 C   0  0  0  0  0  3  0  0  0  0  0  0
  185.7810  178.2040  144.1730 C   0  0  2  0  0  3  0  0  0  0  0  0
  189.8050  176.9900  140.4630 N   0  0  0  0  0  2  0  0  0  0  0  0
  183.0870  178.9980  143.9260 C   0  0  0  0  0  3  0  0  0  0  0  0
  189.3150  177.1710  146.1580 C   0  0  0  0  0  3  0  0  0  0  0  0
  185.0210  178.4360  145.3890 C   0  0  0  0  0  0  0  0  0  0  0  0
  183.5850  178.8600  145.3550 C   0  0  0  0  0  3  0  0  0  0  0  0
  190.6440  176.7650  144.0700 C   0  0  0  0  0  0  0  0  0  0  0  0
  191.6720  176.4650  144.7320 O   0  0  0  0  0  0  0  0  0  0  0  0
  188.3330  177.4380  142.4550 C   0  0  0  0  0  2  0  0  0  0  0  0
  183.8540  178.7640  142.8420 C   0  0  0  0  0  3  0  0  0  0  0  0
  187.0190  177.8500  146.0040 C   0  0  0  0  0  0  0  0  0  0  0  0
  185.7200  178.2360  146.4640 N   0  0  0  0  0  0  0  0  0  0  0  0
  190.6920  176.7420  142.6410 N   0  0  0  0  0  0  0  0  0  0  0  0
  185.2690  178.3470  142.9570 C   0  0  0  0  0  3  0  0  0  0  0  0
  189.6730  177.0380  141.8840 C   0  0  0  0  0  0  0  0  0  0  0  0
  189.3980  177.1380  144.7480 C   0  0  0  0  0  0  0  0  0  0  0  0
  191.0480  176.6180  139.8050 C   0  0  0  0  0  2  0  0  0  0  0  0
  190.7750  176.3110  138.3460 C   0  0  0  0  0  2  0  0  0  0  0  0
  190.8250  174.8760  138.1280 N   0  0  0  0  0  2  0  0  0  0  0  0
  192.0840  174.5880  137.4620 C   0  0  0  0  0  2  0  0  0  0  0  0
  193.9450  176.0720  136.1040 S   0  0  0  0  0  1  0  0  0  0  0  0
  192.2370  175.4690  136.2360 C   0  0  0  0  0  2  0  0  0  0  0  0
  1 14  1  0  0  0  0
  2  1  2  0  0  0  0
  2 19  1  0  0  0  0
  4 17  1  1  0  0  0
  4  1  1  0  0  0  0
  4  8  1  0  0  0  0
  5 18  1  0  0  0  0
  6  9  2  0  0  0  0
  7  3  1  0  0  0  0
  8 15  2  0  0  0  0
  9  8  1  0  0  0  0
 10 11  2  0  0  0  0
 10 19  1  0  0  0  0
 12  2  1  0  0  0  0
 13 17  2  0  0  0  0
 13  6  1  0  0  0  0
 14 15  1  0  0  0  0
 14  3  2  0  0  0  0
 16 10  1  0  0  0  0
 18 12  1  0  0  0  0
 18 16  2  0  0  0  0
 19  7  2  0  0  0  0
 20  5  1  0  0  0  0
 21 20  1  0  0  0  0
 22 21  1  0  0  0  0
 23 22  1  0  0  0  0
 24 25  1  0  0  0  0
 25 23  1  0  0  0  0
M  END
>  <MODEL>
5

>  <REMARK>
 VINA RESULT:      -8.8      1.679      1.875
  Name = 
  5 active torsions:
  status: ('A' for Active; 'I' for Inactive)
    1  A    between atoms: C_2  and  C_12
    2  A    between atoms: C_2  and  N_25
    3  A    between atoms: N_6  and  C_15
    4  A    between atoms: C_15  and  C_21
    5  A    between atoms: C_21  and  N_25
                            x       y       z     vdW  Elec       q    Type
                         _______ _______ _______ _____ _____    ______ ____

>  <TORSDO>
F 5

$$$$
=
 OpenBabel10262419523D

 25 28  0  0  1  0  0  0  0  0999 V2000
  187.8030  177.7430  145.5460 C   0  0  0  0  0  0  0  0  0  0  0  0
  186.6480  178.0810  144.8360 C   0  0  0  0  0  0  0  0  0  0  0  0
  186.8160  178.3550  147.6640 C   0  0  0  0  0  3  0  0  0  0  0  0
  189.0940  177.2210  145.1470 C   0  0  2  0  0  3  0  0  0  0  0  0
  185.1360  178.2190  141.3030 N   0  0  0  0  0  2  0  0  0  0  0  0
  191.7320  176.2370  145.0080 C   0  0  0  0  0  3  0  0  0  0  0  0
  185.6390  178.7060  146.9800 C   0  0  0  0  0  3  0  0  0  0  0  0
  189.8430  177.0930  146.3840 C   0  0  0  0  0  0  0  0  0  0  0  0
  191.2500  176.5790  146.4070 C   0  0  0  0  0  3  0  0  0  0  0  0
  184.3280  178.9350  144.8530 C   0  0  0  0  0  0  0  0  0  0  0  0
  183.3240  179.3760  145.4700 O   0  0  0  0  0  0  0  0  0  0  0  0
  186.5860  177.9280  143.3400 C   0  0  0  0  0  2  0  0  0  0  0  0
  190.9760  176.3840  143.9010 C   0  0  0  0  0  3  0  0  0  0  0  0
  187.8880  177.8730  146.9160 C   0  0  0  0  0  0  0  0  0  0  0  0
  189.1630  177.4660  147.4250 N   0  0  0  0  0  0  0  0  0  0  0  0
  184.2760  178.7860  143.4320 N   0  0  0  0  0  0  0  0  0  0  0  0
  189.5900  176.8990  143.9590 C   0  0  0  0  0  3  0  0  0  0  0  0
  185.2710  178.3370  142.7200 C   0  0  0  0  0  0  0  0  0  0  0  0
  185.5520  178.5720  145.5750 C   0  0  0  0  0  0  0  0  0  0  0  0
  183.9160  178.5840  140.6010 C   0  0  0  0  0  2  0  0  0  0  0  0
  184.2670  179.1580  139.2430 C   0  0  0  0  0  2  0  0  0  0  0  0
  183.6460  180.4620  139.0850 N   0  0  0  0  0  2  0  0  0  0  0  0
  182.2090  180.2470  139.0260 C   0  0  0  0  0  2  0  0  0  0  0  0
  180.8070  180.9020  136.7640 S   0  0  0  0  0  1  0  0  0  0  0  0
  181.5360  181.4240  138.3440 C   0  0  0  0  0  2  0  0  0  0  0  0
  1 14  1  0  0  0  0
  2  1  2  0  0  0  0
  2 19  1  0  0  0  0
  4 17  1  6  0  0  0
  4  1  1  0  0  0  0
  4  8  1  0  0  0  0
  5 18  1  0  0  0  0
  6  9  2  0  0  0  0
  7  3  1  0  0  0  0
  8  9  1  0  0  0  0
  8 15  2  0  0  0  0
 10 11  2  0  0  0  0
 10 19  1  0  0  0  0
 12  2  1  0  0  0  0
 13 17  2  0  0  0  0
 13  6  1  0  0  0  0
 14 15  1  0  0  0  0
 14  3  2  0  0  0  0
 16 10  1  0  0  0  0
 18 12  1  0  0  0  0
 18 16  2  0  0  0  0
 19  7  2  0  0  0  0
 20  5  1  0  0  0  0
 21 20  1  0  0  0  0
 22 21  1  0  0  0  0
 23 22  1  0  0  0  0
 24 25  1  0  0  0  0
 25 23  1  0  0  0  0
M  END
>  <MODEL>
6

>  <REMARK>
 VINA RESULT:      -8.8      3.812      6.174
  Name = 
  5 active torsions:
  status: ('A' for Active; 'I' for Inactive)
    1  A    between atoms: C_2  and  C_12
    2  A    between atoms: C_2  and  N_25
    3  A    between atoms: N_6  and  C_15
    4  A    between atoms: C_15  and  C_21
    5  A    between atoms: C_21  and  N_25
                            x       y       z     vdW  Elec       q    Type
                         _______ _______ _______ _____ _____    ______ ____

>  <TORSDO>
F 5

$$$$
=
 OpenBabel10262419523D

 25 28  0  0  1  0  0  0  0  0999 V2000
  187.7280  177.8590  144.4550 C   0  0  0  0  0  0  0  0  0  0  0  0
  187.4680  178.1080  143.1040 C   0  0  0  0  0  0  0  0  0  0  0  0
  185.4550  178.3600  145.0990 C   0  0  0  0  0  3  0  0  0  0  0  0
  188.9160  177.4530  145.1760 C   0  0  0  0  0  0  0  0  0  0  0  0
  189.0890  178.1610  139.6180 N   0  0  0  0  0  2  0  0  0  0  0  0
  190.8340  176.6970  147.0990 C   0  0  0  0  0  3  0  0  0  0  0  0
  185.1610  178.6190  143.7490 C   0  0  0  0  0  3  0  0  0  0  0  0
  188.4990  177.3740  146.5650 C   0  0  0  0  0  0  0  0  0  0  0  0
  189.4490  176.9800  147.6540 C   0  0  0  0  0  3  0  0  0  0  0  0
  185.8610  178.7630  141.3450 C   0  0  0  0  0  0  0  0  0  0  0  0
  184.7060  179.1110  140.9850 O   0  0  0  0  0  0  0  0  0  0  0  0
  188.5520  177.9680  142.0690 C   0  0  0  0  0  2  0  0  0  0  0  0
  191.1480  176.7920  145.7910 C   0  0  0  0  0  3  0  0  0  0  0  0
  186.7550  177.9790  145.4240 C   0  0  2  0  0  3  0  0  0  0  0  0
  187.2480  177.6750  146.7330 N   0  0  0  0  0  0  0  0  0  0  0  0
  186.8950  178.6280  140.3670 N   0  0  0  0  0  0  0  0  0  0  0  0
  190.1520  177.1880  144.7710 C   0  0  0  0  0  3  0  0  0  0  0  0
  188.1150  178.2720  140.6560 C   0  0  0  0  0  0  0  0  0  0  0  0
  186.1580  178.4960  142.7560 C   0  0  0  0  0  0  0  0  0  0  0  0
  188.7790  178.4300  138.2220 C   0  0  0  0  0  2  0  0  0  0  0  0
  189.6790  177.5950  137.3340 C   0  0  0  0  0  2  0  0  0  0  0  0
  190.7180  176.9710  138.1360 N   0  0  0  0  0  2  0  0  0  0  0  0
  191.6720  176.3780  137.2130 C   0  0  0  0  0  2  0  0  0  0  0  0
  193.7380  174.6180  137.5940 S   0  0  0  0  0  1  0  0  0  0  0  0
  193.0340  176.2690  137.8730 C   0  0  0  0  0  2  0  0  0  0  0  0
  1  4  2  0  0  0  0
  1 14  1  0  0  0  0
  2  1  1  0  0  0  0
  4  8  1  0  0  0  0
  5 18  1  0  0  0  0
  6  9  2  0  0  0  0
  7  3  2  0  0  0  0
  8 15  2  0  0  0  0
  8  9  1  0  0  0  0
 10 19  1  0  0  0  0
 11 10  2  0  0  0  0
 12  2  1  0  0  0  0
 13  6  1  0  0  0  0
 14  3  1  1  0  0  0
 14 15  1  0  0  0  0
 16 18  2  0  0  0  0
 16 10  1  0  0  0  0
 17  4  1  0  0  0  0
 17 13  2  0  0  0  0
 18 12  1  0  0  0  0
 19  2  2  0  0  0  0
 19  7  1  0  0  0  0
 20  5  1  0  0  0  0
 21 22  1  0  0  0  0
 21 20  1  0  0  0  0
 23 25  1  0  0  0  0
 23 22  1  0  0  0  0
 24 25  1  0  0  0  0
M  END
>  <MODEL>
7

>  <REMARK>
 VINA RESULT:      -8.6      2.813      4.760
  Name = 
  5 active torsions:
  status: ('A' for Active; 'I' for Inactive)
    1  A    between atoms: C_2  and  C_12
    2  A    between atoms: C_2  and  N_25
    3  A    between atoms: N_6  and  C_15
    4  A    between atoms: C_15  and  C_21
    5  A    between atoms: C_21  and  N_25
                            x       y       z     vdW  Elec       q    Type
                         _______ _______ _______ _____ _____    ______ ____

>  <TORSDO>
F 5

$$$$
=
 OpenBabel10262419523D

 25 28  0  0  1  0  0  0  0  0999 V2000
  186.9670  177.9450  145.1470 C   0  0  0  0  0  0  0  0  0  0  0  0
  186.0620  178.2760  144.1360 C   0  0  0  0  0  0  0  0  0  0  0  0
  185.3260  178.2880  146.8850 C   0  0  0  0  0  3  0  0  0  0  0  0
  188.3600  177.5480  145.1380 C   0  0  0  0  0  0  0  0  0  0  0  0
  185.7050  178.6530  140.3260 N   0  0  0  0  0  2  0  0  0  0  0  0
  190.9910  176.7520  145.7660 C   0  0  0  0  0  3  0  0  0  0  0  0
  184.3900  178.6270  145.8920 C   0  0  0  0  0  3  0  0  0  0  0  0
  188.7000  177.3500  146.5360 C   0  0  0  0  0  0  0  0  0  0  0  0
  190.0720  176.9270  146.9630 C   0  0  0  0  0  3  0  0  0  0  0  0
  183.7820  178.9740  143.4830 C   0  0  0  0  0  0  0  0  0  0  0  0
  182.6010  179.2890  143.7830 O   0  0  0  0  0  0  0  0  0  0  0  0
  186.4770  178.2620  142.6890 C   0  0  0  0  0  2  0  0  0  0  0  0
  190.6020  176.9550  144.4910 C   0  0  0  0  0  3  0  0  0  0  0  0
  186.6150  177.9490  146.4800 C   0  0  2  0  0  3  0  0  0  0  0  0
  187.7020  177.5770  147.3340 N   0  0  0  0  0  0  0  0  0  0  0  0
  184.1830  178.9590  142.1110 N   0  0  0  0  0  0  0  0  0  0  0  0
  189.2250  177.3730  144.1460 C   0  0  0  0  0  3  0  0  0  0  0  0
  185.3850  178.6440  141.7180 C   0  0  0  0  0  0  0  0  0  0  0  0
  184.7520  178.6220  144.5260 C   0  0  0  0  0  0  0  0  0  0  0  0
  184.7320  179.0050  139.3030 C   0  0  0  0  0  2  0  0  0  0  0  0
  184.6620  177.8980  138.2700 C   0  0  0  0  0  2  0  0  0  0  0  0
  183.2800  177.4940  138.0760 N   0  0  0  0  0  2  0  0  0  0  0  0
  183.0530  176.3300  138.9170 C   0  0  0  0  0  2  0  0  0  0  0  0
  181.0060  178.1000  139.3530 S   0  0  0  0  0  1  0  0  0  0  0  0
  181.8730  176.5790  139.8390 C   0  0  0  0  0  2  0  0  0  0  0  0
  1 14  1  0  0  0  0
  2 19  2  0  0  0  0
  2  1  1  0  0  0  0
  4  1  2  0  0  0  0
  4  8  1  0  0  0  0
  5 18  1  0  0  0  0
  6  9  2  0  0  0  0
  7  3  2  0  0  0  0
  8  9  1  0  0  0  0
  8 15  2  0  0  0  0
 10 11  2  0  0  0  0
 10 19  1  0  0  0  0
 12  2  1  0  0  0  0
 13  6  1  0  0  0  0
 14  3  1  1  0  0  0
 14 15  1  0  0  0  0
 16 10  1  0  0  0  0
 17 13  2  0  0  0  0
 17  4  1  0  0  0  0
 18 16  2  0  0  0  0
 18 12  1  0  0  0  0
 19  7  1  0  0  0  0
 20  5  1  0  0  0  0
 21 20  1  0  0  0  0
 22 21  1  0  0  0  0
 22 23  1  0  0  0  0
 23 25  1  0  0  0  0
 24 25  1  0  0  0  0
M  END
>  <MODEL>
8

>  <REMARK>
 VINA RESULT:      -8.5      3.842      5.909
  Name = 
  5 active torsions:
  status: ('A' for Active; 'I' for Inactive)
    1  A    between atoms: C_2  and  C_12
    2  A    between atoms: C_2  and  N_25
    3  A    between atoms: N_6  and  C_15
    4  A    between atoms: C_15  and  C_21
    5  A    between atoms: C_21  and  N_25
                            x       y       z     vdW  Elec       q    Type
                         _______ _______ _______ _____ _____    ______ ____

>  <TORSDO>
F 5

$$$$
=
 OpenBabel10262419523D

 25 28  0  0  1  0  0  0  0  0999 V2000
  186.6830  178.2060  144.4440 C   0  0  0  0  0  0  0  0  0  0  0  0
  186.6670  178.3690  143.0560 C   0  0  0  0  0  0  0  0  0  0  0  0
  184.3670  178.8560  144.6600 C   0  0  0  0  0  3  0  0  0  0  0  0
  187.7100  177.7980  145.3800 C   0  0  2  0  0  3  0  0  0  0  0  0
  188.8450  178.0980  139.8980 N   0  0  0  0  0  2  0  0  0  0  0  0
  189.2360  177.0930  147.6430 C   0  0  0  0  0  3  0  0  0  0  0  0
  184.3170  179.0310  143.2660 C   0  0  0  0  0  3  0  0  0  0  0  0
  187.0640  177.8370  146.6800 C   0  0  0  0  0  0  0  0  0  0  0  0
  187.7960  177.4790  147.9370 C   0  0  0  0  0  3  0  0  0  0  0  0
  185.4140  178.9700  141.0110 C   0  0  0  0  0  0  0  0  0  0  0  0
  184.3570  179.3440  140.4400 O   0  0  0  0  0  0  0  0  0  0  0  0
  187.8970  178.1060  142.2300 C   0  0  0  0  0  2  0  0  0  0  0  0
  189.7670  177.0800  146.4040 C   0  0  0  0  0  3  0  0  0  0  0  0
  185.5710  178.4390  145.2240 C   0  0  0  0  0  0  0  0  0  0  0  0
  185.8220  178.2070  146.6140 N   0  0  0  0  0  0  0  0  0  0  0  0
  186.5870  178.7180  140.2330 N   0  0  0  0  0  0  0  0  0  0  0  0
  188.9790  177.4480  145.2080 C   0  0  0  0  0  3  0  0  0  0  0  0
  187.7190  178.3280  140.7470 C   0  0  0  0  0  0  0  0  0  0  0  0
  185.4570  178.7910  142.4660 C   0  0  0  0  0  0  0  0  0  0  0  0
  188.7860  178.2820  138.4560 C   0  0  0  0  0  2  0  0  0  0  0  0
  188.9070  176.9350  137.7710 C   0  0  0  0  0  2  0  0  0  0  0  0
  187.5850  176.3810  137.5390 N   0  0  0  0  0  2  0  0  0  0  0  0
  186.8590  177.3350  136.7170 C   0  0  0  0  0  2  0  0  0  0  0  0
  185.0890  177.1110  134.6370 S   0  0  0  0  0  1  0  0  0  0  0  0
  186.7580  176.8210  135.2930 C   0  0  0  0  0  2  0  0  0  0  0  0
  1 14  2  0  0  0  0
  1  4  1  0  0  0  0
  2  1  1  0  0  0  0
  3 14  1  0  0  0  0
  4 17  1  1  0  0  0
  4  8  1  0  0  0  0
  5 18  1  0  0  0  0
  6  9  2  0  0  0  0
  7  3  2  0  0  0  0
  8  9  1  0  0  0  0
 10 19  1  0  0  0  0
 11 10  2  0  0  0  0
 12  2  1  0  0  0  0
 13  6  1  0  0  0  0
 14 15  1  0  0  0  0
 15  8  2  0  0  0  0
 16 18  2  0  0  0  0
 16 10  1  0  0  0  0
 17 13  2  0  0  0  0
 18 12  1  0  0  0  0
 19  2  2  0  0  0  0
 19  7  1  0  0  0  0
 20  5  1  0  0  0  0
 21 20  1  0  0  0  0
 22 21  1  0  0  0  0
 23 22  1  0  0  0  0
 24 25  1  0  0  0  0
 25 23  1  0  0  0  0
M  END
>  <MODEL>
9

>  <REMARK>
 VINA RESULT:      -8.5      2.838      4.672
  Name = 
  5 active torsions:
  status: ('A' for Active; 'I' for Inactive)
    1  A    between atoms: C_2  and  C_12
    2  A    between atoms: C_2  and  N_25
    3  A    between atoms: N_6  and  C_15
    4  A    between atoms: C_15  and  C_21
    5  A    between atoms: C_21  and  N_25
                            x       y       z     vdW  Elec       q    Type
                         _______ _______ _______ _____ _____    ______ ____

>  <TORSDO>
F 5

$$$$
