=
 OpenBabel10262419563D

 25 29  0  0  1  0  0  0  0  0999 V2000
  187.7890  177.4770  145.5270 C   0  0  0  0  0  0  0  0  0  0  0  0
  186.8980  177.6480  144.4590 C   0  0  0  0  0  0  0  0  0  0  0  0
  186.3960  178.7460  147.0310 C   0  0  0  0  0  3  0  0  0  0  0  0
  189.0380  176.6730  145.6210 C   0  0  2  0  0  3  0  0  0  0  0  0
  187.3210  177.9980  142.0140 C   0  0  1  0  0  0  0  0  0  0  0  0
  191.7600  176.8390  146.5510 C   0  0  0  0  0  3  0  0  0  0  0  0
  185.4960  178.9580  145.9780 C   0  0  0  0  0  3  0  0  0  0  0  0
  189.4160  176.9640  147.0490 C   0  0  0  0  0  0  0  0  0  0  0  0
  190.8030  176.7830  147.4870 C   0  0  0  0  0  3  0  0  0  0  0  0
  184.7400  178.6980  143.6450 N   0  0  0  0  0  0  0  0  0  0  0  0
  183.5550  179.4890  143.9440 C   0  0  0  0  0  1  0  0  0  0  0  0
  188.5750  178.8570  142.0450 C   0  0  0  0  0  2  0  0  0  0  0  0
  187.2240  176.9840  143.1540 C   0  0  0  0  0  2  0  0  0  0  0  0
  191.4210  177.1270  145.1310 C   0  0  0  0  0  3  0  0  0  0  0  0
  187.5290  177.9870  146.7750 C   0  0  0  0  0  0  0  0  0  0  0  0
  188.5660  177.6960  147.6980 N   0  0  0  0  0  0  0  0  0  0  0  0
  184.8380  178.2060  142.2750 C   0  0  0  0  0  2  0  0  0  0  0  0
  189.4010  176.6400  141.1590 C   0  0  0  0  0  1  0  0  0  0  0  0
  190.1490  177.1150  144.7020 C   0  0  0  0  0  3  0  0  0  0  0  0
  186.0740  178.7680  141.5900 C   0  0  0  0  0  2  0  0  0  0  0  0
  185.7160  178.4210  144.6840 C   0  0  0  0  0  0  0  0  0  0  0  0
  188.4220  177.7880  140.9750 C   0  0  1  0  0  0  0  0  0  0  0  0
  188.2440  178.3470  139.5980 C   0  0  0  0  0  0  0  0  0  0  0  0
  189.0060  179.2610  139.1870 O   0  0  0  0  0  1  0  0  0  0  0  0
  187.2120  177.8930  138.7860 O   0  0  0  0  0  0  0  0  0  0  0  0
  1  4  1  0  0  0  0
  1 15  1  0  0  0  0
  2 21  1  0  0  0  0
  2  1  2  0  0  0  0
  4 19  1  6  0  0  0
  4  8  1  0  0  0  0
  5 20  1  6  0  0  0
  5 12  1  0  0  0  0
  5 13  1  0  0  0  0
  6  9  2  0  0  0  0
  7  3  1  0  0  0  0
  8  9  1  0  0  0  0
  8 16  2  0  0  0  0
 10 11  1  0  0  0  0
 10 21  1  0  0  0  0
 13  2  1  0  0  0  0
 14  6  1  0  0  0  0
 15  3  2  0  0  0  0
 15 16  1  0  0  0  0
 17 10  1  0  0  0  0
 19 14  2  0  0  0  0
 20 17  1  0  0  0  0
 21  7  2  0  0  0  0
 22 18  1  1  0  0  0
 22  5  1  0  0  0  0
 22 12  1  0  0  0  0
 23 22  1  0  0  0  0
 24 23  1  0  0  0  0
 25 23  2  0  0  0  0
M  END
>  <MODEL>
1

>  <REMARK>
 VINA RESULT:     -10.3      0.000      0.000
  Name = 
  1 active torsions:
  status: ('A' for Active; 'I' for Inactive)
    1  A    between atoms: C_2  and  C_25
                            x       y       z     vdW  Elec       q    Type
                         _______ _______ _______ _____ _____    ______ ____

>  <TORSDO>
F 1

$$$$
=
 OpenBabel10262419563D

 25 29  0  0  1  0  0  0  0  0999 V2000
  187.3890  178.1700  145.6340 C   0  0  0  0  0  0  0  0  0  0  0  0
  188.7420  177.9890  145.3150 C   0  0  0  0  0  0  0  0  0  0  0  0
  187.6340  177.0690  147.7640 C   0  0  0  0  0  3  0  0  0  0  0  0
  186.3180  178.9060  144.9080 C   0  0  2  0  0  3  0  0  0  0  0  0
  189.8540  177.4780  143.1280 C   0  0  1  0  0  0  0  0  0  0  0  0
  183.5770  178.6400  144.0610 C   0  0  0  0  0  3  0  0  0  0  0  0
  188.9860  176.8490  147.4660 C   0  0  0  0  0  3  0  0  0  0  0  0
  185.1710  178.6760  145.8550 C   0  0  0  0  0  0  0  0  0  0  0  0
  183.7920  178.8040  145.3740 C   0  0  0  0  0  3  0  0  0  0  0  0
  190.9740  177.0180  146.0180 N   0  0  0  0  0  0  0  0  0  0  0  0
  191.7610  176.3140  147.0200 C   0  0  0  0  0  1  0  0  0  0  0  0
  188.8360  176.5520  142.4820 C   0  0  0  0  0  2  0  0  0  0  0  0
  189.2450  178.5580  144.0210 C   0  0  0  0  0  2  0  0  0  0  0  0
  184.6950  178.2920  143.1440 C   0  0  0  0  0  3  0  0  0  0  0  0
  186.8650  177.7470  146.8300 C   0  0  0  0  0  0  0  0  0  0  0  0
  185.4790  178.0320  146.9360 N   0  0  0  0  0  0  0  0  0  0  0  0
  191.7020  177.4250  144.8210 C   0  0  0  0  0  2  0  0  0  0  0  0
  188.6710  178.6650  141.1070 C   0  0  0  0  0  1  0  0  0  0  0  0
  185.9730  178.3510  143.5490 C   0  0  0  0  0  3  0  0  0  0  0  0
  191.1190  176.7560  143.5850 C   0  0  0  0  0  2  0  0  0  0  0  0
  189.5690  177.2980  146.2540 C   0  0  0  0  0  0  0  0  0  0  0  0
  189.5810  177.5650  141.6280 C   0  0  1  0  0  0  0  0  0  0  0  0
  190.5470  176.9400  140.6710 C   0  0  0  0  0  0  0  0  0  0  0  0
  190.2130  175.9170  140.0180 O   0  0  0  0  0  0  0  0  0  0  0  0
  191.8300  177.4560  140.5330 O   0  0  0  0  0  1  0  0  0  0  0  0
  1 15  1  0  0  0  0
  2  1  2  0  0  0  0
  2 21  1  0  0  0  0
  4 19  1  6  0  0  0
  4  1  1  0  0  0  0
  4  8  1  0  0  0  0
  5 12  1  1  0  0  0
  5 20  1  0  0  0  0
  5 13  1  0  0  0  0
  6  9  2  0  0  0  0
  7  3  1  0  0  0  0
  8 16  2  0  0  0  0
  9  8  1  0  0  0  0
 10 21  1  0  0  0  0
 10 11  1  0  0  0  0
 13  2  1  0  0  0  0
 14 19  2  0  0  0  0
 14  6  1  0  0  0  0
 15 16  1  0  0  0  0
 15  3  2  0  0  0  0
 17 10  1  0  0  0  0
 20 17  1  0  0  0  0
 21  7  2  0  0  0  0
 22 18  1  6  0  0  0
 22 12  1  0  0  0  0
 22  5  1  0  0  0  0
 23 22  1  0  0  0  0
 24 23  2  0  0  0  0
 25 23  1  0  0  0  0
M  END
>  <MODEL>
2

>  <REMARK>
 VINA RESULT:     -10.2      1.751      4.873
  Name = 
  1 active torsions:
  status: ('A' for Active; 'I' for Inactive)
    1  A    between atoms: C_2  and  C_25
                            x       y       z     vdW  Elec       q    Type
                         _______ _______ _______ _____ _____    ______ ____

>  <TORSDO>
F 1

$$$$
=
 OpenBabel10262419563D

 25 29  0  0  1  0  0  0  0  0999 V2000
  187.1060  177.7610  143.0980 C   0  0  0  0  0  0  0  0  0  0  0  0
  188.4060  177.2440  143.1760 C   0  0  0  0  0  0  0  0  0  0  0  0
  187.5230  178.7770  140.9530 C   0  0  0  0  0  3  0  0  0  0  0  0
  185.9390  177.5740  144.0040 C   0  0  2  0  0  3  0  0  0  0  0  0
  189.9490  176.9790  145.1320 C   0  0  1  0  0  0  0  0  0  0  0  0
  183.8430  179.0550  145.3140 C   0  0  0  0  0  3  0  0  0  0  0  0
  188.8380  178.2960  141.0090 C   0  0  0  0  0  3  0  0  0  0  0  0
  184.9180  178.4030  143.2700 C   0  0  0  0  0  0  0  0  0  0  0  0
  183.7450  178.9150  143.9850 C   0  0  0  0  0  3  0  0  0  0  0  0
  190.6880  177.0760  142.0890 N   0  0  0  0  0  0  0  0  0  0  0  0
  191.5530  177.3940  140.9620 C   0  0  0  0  0  1  0  0  0  0  0  0
  189.6250  178.2240  145.9420 C   0  0  0  0  0  2  0  0  0  0  0  0
  188.7610  176.4000  144.3640 C   0  0  0  0  0  2  0  0  0  0  0  0
  185.1150  178.7480  146.0210 C   0  0  0  0  0  3  0  0  0  0  0  0
  186.6760  178.4790  142.0100 C   0  0  0  0  0  0  0  0  0  0  0  0
  185.3300  178.9050  142.1490 N   0  0  0  0  0  0  0  0  0  0  0  0
  191.3010  176.2740  143.1430 C   0  0  0  0  0  2  0  0  0  0  0  0
  188.6660  176.3470  147.3350 C   0  0  0  0  0  1  0  0  0  0  0  0
  186.1230  178.1150  145.3990 C   0  0  0  0  0  3  0  0  0  0  0  0
  191.3170  177.0390  144.4580 C   0  0  0  0  0  2  0  0  0  0  0  0
  189.3080  177.5260  142.1030 C   0  0  0  0  0  0  0  0  0  0  0  0
  189.9040  176.9130  146.6580 C   0  0  1  0  0  0  0  0  0  0  0  0
  191.1860  176.9170  147.4280 C   0  0  0  0  0  0  0  0  0  0  0  0
  191.4520  177.8740  148.2020 O   0  0  0  0  0  1  0  0  0  0  0  0
  192.1080  175.8910  147.2610 O   0  0  0  0  0  0  0  0  0  0  0  0
  1  2  1  0  0  0  0
  1  4  1  0  0  0  0
  2 13  1  0  0  0  0
  3  7  2  0  0  0  0
  3 15  1  0  0  0  0
  4 19  1  1  0  0  0
  5 13  1  6  0  0  0
  5 12  1  0  0  0  0
  5 22  1  0  0  0  0
  6 14  1  0  0  0  0
  7 21  1  0  0  0  0
  8  9  1  0  0  0  0
  8  4  1  0  0  0  0
  9  6  2  0  0  0  0
 10 21  1  0  0  0  0
 10 17  1  0  0  0  0
 11 10  1  0  0  0  0
 12 22  1  0  0  0  0
 15 16  1  0  0  0  0
 15  1  2  0  0  0  0
 16  8  2  0  0  0  0
 17 20  1  0  0  0  0
 19 14  2  0  0  0  0
 20  5  1  0  0  0  0
 21  2  2  0  0  0  0
 22 18  1  1  0  0  0
 22 23  1  0  0  0  0
 23 24  1  0  0  0  0
 25 23  2  0  0  0  0
M  END
>  <MODEL>
3

>  <REMARK>
 VINA RESULT:     -10.0      3.159      6.306
  Name = 
  1 active torsions:
  status: ('A' for Active; 'I' for Inactive)
    1  A    between atoms: C_2  and  C_25
                            x       y       z     vdW  Elec       q    Type
                         _______ _______ _______ _____ _____    ______ ____

>  <TORSDO>
F 1

$$$$
=
 OpenBabel10262419563D

 25 29  0  0  1  0  0  0  0  0999 V2000
  186.5690  178.0650  144.9210 C   0  0  0  0  0  0  0  0  0  0  0  0
  186.6330  177.8720  143.5350 C   0  0  0  0  0  0  0  0  0  0  0  0
  184.8110  179.7020  144.7190 C   0  0  0  0  0  3  0  0  0  0  0  0
  187.2770  177.3620  146.0250 C   0  0  2  0  0  3  0  0  0  0  0  0
  188.5920  177.4540  142.0290 C   0  0  1  0  0  0  0  0  0  0  0  0
  188.7200  177.8780  148.4660 C   0  0  0  0  0  3  0  0  0  0  0  0
  184.8670  179.5520  143.3270 C   0  0  0  0  0  3  0  0  0  0  0  0
  186.6900  178.0910  147.2040 C   0  0  0  0  0  0  0  0  0  0  0  0
  187.3970  178.0910  148.4880 C   0  0  0  0  0  3  0  0  0  0  0  0
  185.7650  178.5610  141.2560 N   0  0  0  0  0  0  0  0  0  0  0  0
  184.8470  179.3740  140.4710 C   0  0  0  0  0  1  0  0  0  0  0  0
  189.6630  178.3130  142.6830 C   0  0  0  0  0  2  0  0  0  0  0  0
  187.5900  176.8440  143.0080 C   0  0  0  0  0  2  0  0  0  0  0  0
  189.4420  177.7020  147.1770 C   0  0  0  0  0  3  0  0  0  0  0  0
  185.6680  178.9300  145.4900 C   0  0  0  0  0  0  0  0  0  0  0  0
  185.7830  178.9670  146.9040 N   0  0  0  0  0  0  0  0  0  0  0  0
  186.6280  177.6700  140.4880 C   0  0  0  0  0  2  0  0  0  0  0  0
  190.4210  175.9520  143.1670 C   0  0  0  0  0  1  0  0  0  0  0  0
  188.7760  177.5250  146.0240 C   0  0  0  0  0  3  0  0  0  0  0  0
  188.0910  178.0230  140.7040 C   0  0  0  0  0  2  0  0  0  0  0  0
  185.7620  178.6460  142.7050 C   0  0  0  0  0  0  0  0  0  0  0  0
  190.0360  176.9610  142.0970 C   0  0  1  0  0  0  0  0  0  0  0  0
  190.9010  177.0590  140.8800 C   0  0  0  0  0  0  0  0  0  0  0  0
  191.8250  177.9130  140.8320 O   0  0  0  0  0  1  0  0  0  0  0  0
  190.6610  176.2420  139.7820 O   0  0  0  0  0  0  0  0  0  0  0  0
  1 15  1  0  0  0  0
  1  4  1  0  0  0  0
  2  1  2  0  0  0  0
  3 15  2  0  0  0  0
  4 19  1  6  0  0  0
  4  8  1  0  0  0  0
  5 20  1  6  0  0  0
  5 22  1  0  0  0  0
  5 12  1  0  0  0  0
  5 13  1  0  0  0  0
  6  9  2  0  0  0  0
  7  3  1  0  0  0  0
  8  9  1  0  0  0  0
 10 21  1  0  0  0  0
 11 10  1  0  0  0  0
 13  2  1  0  0  0  0
 14  6  1  0  0  0  0
 15 16  1  0  0  0  0
 16  8  2  0  0  0  0
 17 20  1  0  0  0  0
 17 10  1  0  0  0  0
 19 14  2  0  0  0  0
 21  7  2  0  0  0  0
 21  2  1  0  0  0  0
 22 12  1  0  0  0  0
 22 18  1  1  0  0  0
 23 22  1  0  0  0  0
 24 23  1  0  0  0  0
 25 23  2  0  0  0  0
M  END
>  <MODEL>
4

>  <REMARK>
 VINA RESULT:      -9.5      1.797      2.667
  Name = 
  1 active torsions:
  status: ('A' for Active; 'I' for Inactive)
    1  A    between atoms: C_2  and  C_25
                            x       y       z     vdW  Elec       q    Type
                         _______ _______ _______ _____ _____    ______ ____

>  <TORSDO>
F 1

$$$$
=
 OpenBabel10262419563D

 25 29  0  0  1  0  0  0  0  0999 V2000
  189.0410  177.2640  143.4850 C   0  0  0  0  0  0  0  0  0  0  0  0
  188.0550  177.3190  144.4800 C   0  0  0  0  0  0  0  0  0  0  0  0
  190.8130  177.6680  145.0690 C   0  0  0  0  0  3  0  0  0  0  0  0
  188.9310  176.9360  142.0380 C   0  0  2  0  0  3  0  0  0  0  0  0
  185.7300  178.2500  144.4320 C   0  0  1  0  0  0  0  0  0  0  0  0
  189.8060  177.8450  139.4480 C   0  0  0  0  0  3  0  0  0  0  0  0
  189.8520  177.7540  146.0840 C   0  0  0  0  0  3  0  0  0  0  0  0
  190.3780  177.0610  141.6420 C   0  0  0  0  0  0  0  0  0  0  0  0
  190.7330  177.2870  140.2380 C   0  0  0  0  0  3  0  0  0  0  0  0
  187.5360  177.6990  146.9310 N   0  0  0  0  0  0  0  0  0  0  0  0
  188.0250  177.9620  148.2770 C   0  0  0  0  0  1  0  0  0  0  0  0
  185.9100  179.4650  143.5360 C   0  0  0  0  0  2  0  0  0  0  0  0
  186.6320  177.0680  144.0790 C   0  0  0  0  0  2  0  0  0  0  0  0
  188.4880  178.2640  139.9970 C   0  0  0  0  0  3  0  0  0  0  0  0
  190.3730  177.4070  143.7790 C   0  0  0  0  0  0  0  0  0  0  0  0
  191.1880  177.3190  142.6200 N   0  0  0  0  0  0  0  0  0  0  0  0
  186.0910  177.5400  146.8080 C   0  0  0  0  0  2  0  0  0  0  0  0
  184.5550  177.8780  142.1130 C   0  0  0  0  0  1  0  0  0  0  0  0
  188.0990  177.8980  141.2280 C   0  0  0  0  0  3  0  0  0  0  0  0
  185.5100  178.6120  145.8990 C   0  0  0  0  0  2  0  0  0  0  0  0
  188.4680  177.5810  145.8240 C   0  0  0  0  0  0  0  0  0  0  0  0
  184.6430  178.6330  143.4290 C   0  0  1  0  0  0  0  0  0  0  0  0
  183.4200  179.3470  143.9120 C   0  0  0  0  0  0  0  0  0  0  0  0
  183.4070  180.6050  143.9690 O   0  0  0  0  0  0  0  0  0  0  0  0
  182.3120  178.6280  144.3440 O   0  0  0  0  0  1  0  0  0  0  0  0
  1 15  2  0  0  0  0
  1  2  1  0  0  0  0
  2 21  2  0  0  0  0
  3  7  2  0  0  0  0
  4 19  1  6  0  0  0
  4  1  1  0  0  0  0
  5 12  1  6  0  0  0
  5 20  1  0  0  0  0
  6 14  1  0  0  0  0
  6  9  2  0  0  0  0
  8  4  1  0  0  0  0
  8 16  2  0  0  0  0
  9  8  1  0  0  0  0
 10 11  1  0  0  0  0
 13  5  1  0  0  0  0
 13  2  1  0  0  0  0
 14 19  2  0  0  0  0
 15  3  1  0  0  0  0
 16 15  1  0  0  0  0
 17 10  1  0  0  0  0
 20 17  1  0  0  0  0
 21  7  1  0  0  0  0
 21 10  1  0  0  0  0
 22 18  1  6  0  0  0
 22 12  1  0  0  0  0
 22 23  1  0  0  0  0
 22  5  1  0  0  0  0
 23 24  2  0  0  0  0
 23 25  1  0  0  0  0
M  END
>  <MODEL>
5

>  <REMARK>
 VINA RESULT:      -9.5      2.563      5.056
  Name = 
  1 active torsions:
  status: ('A' for Active; 'I' for Inactive)
    1  A    between atoms: C_2  and  C_25
                            x       y       z     vdW  Elec       q    Type
                         _______ _______ _______ _____ _____    ______ ____

>  <TORSDO>
F 1

$$$$
=
 OpenBabel10262419563D

 25 29  0  0  1  0  0  0  0  0999 V2000
  185.3230  178.6870  144.6640 C   0  0  0  0  0  0  0  0  0  0  0  0
  186.6340  178.4990  145.1210 C   0  0  0  0  0  0  0  0  0  0  0  0
  184.3920  178.3120  146.8560 C   0  0  0  0  0  3  0  0  0  0  0  0
  184.8190  179.0990  143.3250 C   0  0  2  0  0  3  0  0  0  0  0  0
  188.6080  177.4080  144.0280 C   0  0  1  0  0  0  0  0  0  0  0  0
  182.8200  178.4210  141.3640 C   0  0  0  0  0  3  0  0  0  0  0  0
  185.6880  178.0930  147.3410 C   0  0  0  0  0  3  0  0  0  0  0  0
  183.3390  179.1020  143.6050 C   0  0  0  0  0  0  0  0  0  0  0  0
  182.3870  178.9920  142.4960 C   0  0  0  0  0  3  0  0  0  0  0  0
  188.1340  177.9280  147.0810 N   0  0  0  0  0  0  0  0  0  0  0  0
  188.2610  177.6140  148.4980 C   0  0  0  0  0  1  0  0  0  0  0  0
  187.9420  176.2690  143.2730 C   0  0  0  0  0  2  0  0  0  0  0  0
  187.7550  178.6720  144.1400 C   0  0  0  0  0  2  0  0  0  0  0  0
  184.2000  177.8750  141.2650 C   0  0  0  0  0  3  0  0  0  0  0  0
  184.2450  178.6220  145.5110 C   0  0  0  0  0  0  0  0  0  0  0  0
  183.0180  178.8410  144.8330 N   0  0  0  0  0  0  0  0  0  0  0  0
  189.3880  177.9900  146.3380 C   0  0  0  0  0  2  0  0  0  0  0  0
  188.6800  177.8430  141.4390 C   0  0  0  0  0  1  0  0  0  0  0  0
  185.1200  178.1330  142.2080 C   0  0  0  0  0  3  0  0  0  0  0  0
  189.4120  176.9400  145.2380 C   0  0  0  0  0  2  0  0  0  0  0  0
  186.8280  178.1820  146.5020 C   0  0  0  0  0  0  0  0  0  0  0  0
  189.1060  177.0140  142.6390 C   0  0  1  0  0  0  0  0  0  0  0  0
  190.3460  176.1840  142.5150 C   0  0  0  0  0  0  0  0  0  0  0  0
  191.3860  176.6800  142.0070 O   0  0  0  0  0  0  0  0  0  0  0  0
  190.3420  174.8540  142.9160 O   0  0  0  0  0  1  0  0  0  0  0  0
  1  2  2  0  0  0  0
  1 15  1  0  0  0  0
  2 21  1  0  0  0  0
  3  7  1  0  0  0  0
  4 19  1  6  0  0  0
  4  8  1  0  0  0  0
  4  1  1  0  0  0  0
  5 12  1  1  0  0  0
  5 13  1  0  0  0  0
  5 20  1  0  0  0  0
  6  9  2  0  0  0  0
  8 16  2  0  0  0  0
  9  8  1  0  0  0  0
 10 11  1  0  0  0  0
 13  2  1  0  0  0  0
 14  6  1  0  0  0  0
 14 19  2  0  0  0  0
 15  3  2  0  0  0  0
 16 15  1  0  0  0  0
 17 10  1  0  0  0  0
 20 17  1  0  0  0  0
 21 10  1  0  0  0  0
 21  7  2  0  0  0  0
 22 18  1  6  0  0  0
 22 12  1  0  0  0  0
 22  5  1  0  0  0  0
 23 22  1  0  0  0  0
 23 25  1  0  0  0  0
 24 23  2  0  0  0  0
M  END
>  <MODEL>
6

>  <REMARK>
 VINA RESULT:      -8.9      1.971      5.294
  Name = 
  1 active torsions:
  status: ('A' for Active; 'I' for Inactive)
    1  A    between atoms: C_2  and  C_25
                            x       y       z     vdW  Elec       q    Type
                         _______ _______ _______ _____ _____    ______ ____

>  <TORSDO>
F 1

$$$$
=
 OpenBabel10262419563D

 25 29  0  0  1  0  0  0  0  0999 V2000
  189.5730  177.6860  144.1960 C   0  0  0  0  0  0  0  0  0  0  0  0
  189.3120  177.9900  142.8530 C   0  0  0  0  0  0  0  0  0  0  0  0
  191.3330  176.1450  143.6150 C   0  0  0  0  0  3  0  0  0  0  0  0
  189.0030  178.2650  145.4430 C   0  0  2  0  0  3  0  0  0  0  0  0
  187.1530  178.4500  141.6680 C   0  0  1  0  0  0  0  0  0  0  0  0
  187.9270  177.4890  148.0010 C   0  0  0  0  0  3  0  0  0  0  0  0
  191.0820  176.4070  142.2620 C   0  0  0  0  0  3  0  0  0  0  0  0
  189.7690  177.4640  146.4630 C   0  0  0  0  0  0  0  0  0  0  0  0
  189.2460  177.3290  147.8260 C   0  0  0  0  0  3  0  0  0  0  0  0
  189.8770  177.5290  140.4260 N   0  0  0  0  0  0  0  0  0  0  0  0
  190.7020  176.8220  139.4560 C   0  0  0  0  0  1  0  0  0  0  0  0
  186.2080  177.4970  142.3830 C   0  0  0  0  0  2  0  0  0  0  0  0
  188.2620  179.0180  142.5530 C   0  0  0  0  0  2  0  0  0  0  0  0
  187.0300  177.7420  146.8420 C   0  0  0  0  0  3  0  0  0  0  0  0
  190.5690  176.8140  144.5590 C   0  0  0  0  0  0  0  0  0  0  0  0
  190.6510  176.6550  145.9670 N   0  0  0  0  0  0  0  0  0  0  0  0
  188.8910  178.4440  139.8630 C   0  0  0  0  0  2  0  0  0  0  0  0
  185.4550  179.7760  143.1700 C   0  0  0  0  0  1  0  0  0  0  0  0
  187.5240  178.0410  145.6300 C   0  0  0  0  0  3  0  0  0  0  0  0
  187.4820  178.0150  140.2430 C   0  0  0  0  0  2  0  0  0  0  0  0
  190.0830  177.3240  141.8490 C   0  0  0  0  0  0  0  0  0  0  0  0
  185.7180  178.8760  141.9740 C   0  0  1  0  0  0  0  0  0  0  0  0
  184.6970  178.8440  140.8800 C   0  0  0  0  0  0  0  0  0  0  0  0
  183.8420  177.9210  140.8460 O   0  0  0  0  0  1  0  0  0  0  0  0
  184.7150  179.8040  139.8760 O   0  0  0  0  0  0  0  0  0  0  0  0
  1 15  1  0  0  0  0
  1  4  1  0  0  0  0
  2  1  2  0  0  0  0
  3 15  2  0  0  0  0
  4 19  1  6  0  0  0
  4  8  1  0  0  0  0
  5 20  1  6  0  0  0
  5 22  1  0  0  0  0
  5 12  1  0  0  0  0
  5 13  1  0  0  0  0
  7  3  1  0  0  0  0
  8  9  1  0  0  0  0
  9  6  2  0  0  0  0
 10 21  1  0  0  0  0
 11 10  1  0  0  0  0
 13  2  1  0  0  0  0
 14  6  1  0  0  0  0
 15 16  1  0  0  0  0
 16  8  2  0  0  0  0
 17 20  1  0  0  0  0
 17 10  1  0  0  0  0
 19 14  2  0  0  0  0
 21  7  2  0  0  0  0
 21  2  1  0  0  0  0
 22 12  1  0  0  0  0
 22 18  1  1  0  0  0
 23 22  1  0  0  0  0
 24 23  1  0  0  0  0
 25 23  2  0  0  0  0
M  END
>  <MODEL>
7

>  <REMARK>
 VINA RESULT:      -8.6      2.122      4.322
  Name = 
  1 active torsions:
  status: ('A' for Active; 'I' for Inactive)
    1  A    between atoms: C_2  and  C_25
                            x       y       z     vdW  Elec       q    Type
                         _______ _______ _______ _____ _____    ______ ____

>  <TORSDO>
F 1

$$$$
=
 OpenBabel10262419563D

 25 29  0  0  1  0  0  0  0  0999 V2000
  187.6980  178.3780  141.1390 C   0  0  0  0  0  0  0  0  0  0  0  0
  187.9570  178.2640  142.5120 C   0  0  0  0  0  0  0  0  0  0  0  0
  185.3120  178.3090  141.4750 C   0  0  0  0  0  3  0  0  0  0  0  0
  188.6300  178.5930  139.9980 C   0  0  2  0  0  3  0  0  0  0  0  0
  189.7680  177.0440  143.7410 C   0  0  1  0  0  0  0  0  0  0  0  0
  189.1980  177.6330  137.3410 C   0  0  0  0  0  3  0  0  0  0  0  0
  185.5360  178.1690  142.8510 C   0  0  0  0  0  3  0  0  0  0  0  0
  187.6360  178.6270  138.8670 C   0  0  0  0  0  0  0  0  0  0  0  0
  188.0800  178.3560  137.4970 C   0  0  0  0  0  3  0  0  0  0  0  0
  186.9870  177.9850  144.8360 N   0  0  0  0  0  0  0  0  0  0  0  0
  185.8090  177.8750  145.6840 C   0  0  0  0  0  1  0  0  0  0  0  0
  189.9370  175.8050  142.8760 C   0  0  0  0  0  2  0  0  0  0  0  0
  189.3860  178.3050  142.9670 C   0  0  0  0  0  2  0  0  0  0  0  0
  189.9230  177.0880  138.5200 C   0  0  0  0  0  3  0  0  0  0  0  0
  186.4190  178.4260  140.6460 C   0  0  0  0  0  0  0  0  0  0  0  0
  186.3950  178.5390  139.2310 N   0  0  0  0  0  0  0  0  0  0  0  0
  188.2680  177.9500  145.5330 C   0  0  0  0  0  2  0  0  0  0  0  0
  192.0600  177.1100  142.4610 C   0  0  0  0  0  1  0  0  0  0  0  0
  189.6220  177.4820  139.7680 C   0  0  0  0  0  3  0  0  0  0  0  0
  189.0940  176.7560  145.0790 C   0  0  0  0  0  2  0  0  0  0  0  0
  186.8430  178.1460  143.4000 C   0  0  0  0  0  0  0  0  0  0  0  0
  191.1590  176.4610  143.4980 C   0  0  1  0  0  0  0  0  0  0  0  0
  191.8000  175.6300  144.5660 C   0  0  0  0  0  0  0  0  0  0  0  0
  192.0720  174.4210  144.3430 O   0  0  0  0  0  0  0  0  0  0  0  0
  192.0550  176.1740  145.8180 O   0  0  0  0  0  1  0  0  0  0  0  0
  1  2  1  0  0  0  0
  2 13  1  0  0  0  0
  2 21  2  0  0  0  0
  3  7  2  0  0  0  0
  4 19  1  6  0  0  0
  4  1  1  0  0  0  0
  5 12  1  6  0  0  0
  5 20  1  0  0  0  0
  6  9  2  0  0  0  0
  6 14  1  0  0  0  0
  7 21  1  0  0  0  0
  8 16  2  0  0  0  0
  8  4  1  0  0  0  0
  9  8  1  0  0  0  0
 10 17  1  0  0  0  0
 10 11  1  0  0  0  0
 12 22  1  0  0  0  0
 13  5  1  0  0  0  0
 14 19  2  0  0  0  0
 15  1  2  0  0  0  0
 15  3  1  0  0  0  0
 16 15  1  0  0  0  0
 20 17  1  0  0  0  0
 21 10  1  0  0  0  0
 22 18  1  6  0  0  0
 22  5  1  0  0  0  0
 22 23  1  0  0  0  0
 23 25  1  0  0  0  0
 24 23  2  0  0  0  0
M  END
>  <MODEL>
8

>  <REMARK>
 VINA RESULT:      -8.1      2.827      5.886
  Name = 
  1 active torsions:
  status: ('A' for Active; 'I' for Inactive)
    1  A    between atoms: C_2  and  C_25
                            x       y       z     vdW  Elec       q    Type
                         _______ _______ _______ _____ _____    ______ ____

>  <TORSDO>
F 1

$$$$
=
 OpenBabel10262419563D

 25 29  0  0  1  0  0  0  0  0999 V2000
  187.7490  178.3410  142.6170 C   0  0  0  0  0  0  0  0  0  0  0  0
  187.9070  178.3410  144.0100 C   0  0  0  0  0  0  0  0  0  0  0  0
  185.3630  178.0400  142.7810 C   0  0  0  0  0  3  0  0  0  0  0  0
  188.7430  178.5820  141.5350 C   0  0  2  0  0  3  0  0  0  0  0  0
  189.7270  177.3990  145.4520 C   0  0  1  0  0  0  0  0  0  0  0  0
  189.6170  177.5230  139.0020 C   0  0  0  0  0  3  0  0  0  0  0  0
  185.4880  178.0110  144.1760 C   0  0  0  0  0  3  0  0  0  0  0  0
  187.8450  178.4390  140.3350 C   0  0  0  0  0  0  0  0  0  0  0  0
  188.4230  178.1310  139.0240 C   0  0  0  0  0  3  0  0  0  0  0  0
  186.7870  178.1060  146.2700 N   0  0  0  0  0  0  0  0  0  0  0  0
  185.5620  177.9260  147.0360 C   0  0  0  0  0  1  0  0  0  0  0  0
  190.0890  176.1330  144.6910 C   0  0  0  0  0  2  0  0  0  0  0  0
  189.2830  178.5620  144.5650 C   0  0  0  0  0  2  0  0  0  0  0  0
  190.2960  177.1320  140.2660 C   0  0  0  0  0  3  0  0  0  0  0  0
  186.5150  178.2220  142.0290 C   0  0  0  0  0  0  0  0  0  0  0  0
  186.5940  178.2430  140.6130 N   0  0  0  0  0  0  0  0  0  0  0  0
  188.0050  178.2510  147.0600 C   0  0  0  0  0  2  0  0  0  0  0  0
  192.0960  177.6270  144.3430 C   0  0  0  0  0  1  0  0  0  0  0  0
  189.8570  177.5690  141.4570 C   0  0  0  0  0  3  0  0  0  0  0  0
  188.9800  177.1250  146.7540 C   0  0  0  0  0  2  0  0  0  0  0  0
  186.7430  178.1610  144.8200 C   0  0  0  0  0  0  0  0  0  0  0  0
  191.1850  176.9520  145.3540 C   0  0  1  0  0  0  0  0  0  0  0  0
  191.8180  176.2630  146.5210 C   0  0  0  0  0  0  0  0  0  0  0  0
  192.1310  175.0460  146.4390 O   0  0  0  0  0  0  0  0  0  0  0  0
  192.0220  176.9470  147.7130 O   0  0  0  0  0  1  0  0  0  0  0  0
  1  2  1  0  0  0  0
  2 13  1  0  0  0  0
  2 21  2  0  0  0  0
  3  7  2  0  0  0  0
  4 19  1  6  0  0  0
  4  1  1  0  0  0  0
  5 13  1  6  0  0  0
  5 20  1  0  0  0  0
  6  9  2  0  0  0  0
  6 14  1  0  0  0  0
  7 21  1  0  0  0  0
  8 16  2  0  0  0  0
  8  4  1  0  0  0  0
  9  8  1  0  0  0  0
 10 11  1  0  0  0  0
 10 17  1  0  0  0  0
 12 22  1  0  0  0  0
 12  5  1  0  0  0  0
 14 19  2  0  0  0  0
 15  1  2  0  0  0  0
 15  3  1  0  0  0  0
 16 15  1  0  0  0  0
 20 17  1  0  0  0  0
 21 10  1  0  0  0  0
 22 18  1  6  0  0  0
 22  5  1  0  0  0  0
 22 23  1  0  0  0  0
 23 25  1  0  0  0  0
 24 23  2  0  0  0  0
M  END
>  <MODEL>
9

>  <REMARK>
 VINA RESULT:      -7.7      2.918      5.647
  Name = 
  1 active torsions:
  status: ('A' for Active; 'I' for Inactive)
    1  A    between atoms: C_2  and  C_25
                            x       y       z     vdW  Elec       q    Type
                         _______ _______ _______ _____ _____    ______ ____

>  <TORSDO>
F 1

$$$$
