=
 OpenBabel10262420583D

 28 29  0  0  1  0  0  0  0  0999 V2000
  191.6180  175.8250  143.6050 C   0  0  0  0  0  1  0  0  0  0  0  0
  188.3540  177.2750  143.1130 N   0  0  1  0  0  0  0  0  0  0  0  0
  189.8440  178.8770  144.3930 F   0  0  0  0  0  0  0  0  0  0  0  0
  190.1640  176.0720  141.8250 O   0  0  0  0  0  0  0  0  0  0  0  0
  188.1020  177.3860  141.7500 O   0  0  0  0  0  0  0  0  0  0  0  0
  190.7840  176.8960  142.7450 C   0  0  1  0  0  0  0  0  0  0  0  0
  189.6850  177.6270  143.6750 C   0  0  2  0  0  3  0  0  0  0  0  0
  189.3460  176.9650  141.0770 C   0  0  2  0  0  3  0  0  0  0  0  0
  185.9210  178.2090  143.2230 C   0  0  0  0  0  3  0  0  0  0  0  0
  187.1370  177.5970  145.4300 C   0  0  0  0  0  0  0  0  0  0  0  0
  184.8870  178.5980  145.4350 C   0  0  0  0  0  0  0  0  0  0  0  0
  187.0880  177.4960  143.9130 C   0  0  2  0  0  3  0  0  0  0  0  0
  186.0830  178.0540  146.1030 C   0  0  0  0  0  3  0  0  0  0  0  0
  188.1340  177.0650  146.1770 F   0  0  0  0  0  0  0  0  0  0  0  0
  183.9960  179.0130  146.1810 O   0  0  0  0  0  0  0  0  0  0  0  0
  184.8680  178.6770  143.9550 C   0  0  0  0  0  3  0  0  0  0  0  0
  189.1870  176.6460  139.6780 C   0  0  2  0  0  3  0  0  0  0  0  0
  190.4090  176.1030  139.2810 O   0  0  0  0  0  1  0  0  0  0  0  0
  189.0310  179.0590  139.4890 O   0  0  0  0  0  1  0  0  0  0  0  0
  188.8730  177.8260  138.8120 C   0  0  2  0  0  3  0  0  0  0  0  0
  187.4960  177.6310  138.1930 C   0  0  0  0  0  0  0  0  0  0  0  0
  187.2590  176.6060  137.5690 O   0  0  0  0  0  0  0  0  0  0  0  0
  186.5210  178.6800  138.2030 O   0  0  0  0  0  0  0  0  0  0  0  0
  185.3210  178.6940  138.8850 C   0  0  0  0  0  0  0  0  0  0  0  0
  185.2400  179.3550  139.9270 O   0  0  0  0  0  0  0  0  0  0  0  0
  184.1090  177.8190  138.4900 C   0  0  0  0  0  1  0  0  0  0  0  0
  192.6510  177.1790  141.3250 O   0  0  0  0  0  1  0  0  0  0  0  0
  191.7020  177.9060  142.0870 C   0  0  0  0  0  2  0  0  0  0  0  0
  2  5  1  6  0  0  0
  2  7  1  0  0  0  0
  2 12  1  0  0  0  0
  4  6  1  0  0  0  0
  6  1  1  1  0  0  0
  6  7  1  0  0  0  0
  7  3  1  6  0  0  0
  8 17  1  6  0  0  0
  8  5  1  0  0  0  0
  8  4  1  0  0  0  0
  9 16  2  0  0  0  0
 10 13  2  0  0  0  0
 10 14  1  0  0  0  0
 11 13  1  0  0  0  0
 11 15  2  0  0  0  0
 12  9  1  6  0  0  0
 12 10  1  0  0  0  0
 16 11  1  0  0  0  0
 17 18  1  6  0  0  0
 20 19  1  1  0  0  0
 20 17  1  0  0  0  0
 21 23  1  0  0  0  0
 21 20  1  0  0  0  0
 22 21  2  0  0  0  0
 23 24  1  0  0  0  0
 24 25  2  0  0  0  0
 26 24  1  0  0  0  0
 27 28  1  0  0  0  0
 28  6  1  0  0  0  0
M  END
>  <MODEL>
1

>  <REMARK>
 VINA RESULT:      -7.9      0.000      0.000
  Name = 
  7 active torsions:
  status: ('A' for Active; 'I' for Inactive)
    1  A    between atoms: C_1  and  C_11
    2  A    between atoms: C_1  and  C_27
    3  A    between atoms: C_3  and  C_11
    4  A    between atoms: C_3  and  O_28
    5  A    between atoms: C_6  and  O_28
    6  A    between atoms: N_10  and  C_13
    7  A    between atoms: C_20  and  C_21
                            x       y       z     vdW  Elec       q    Type
                         _______ _______ _______ _____ _____    ______ ____

>  <TORSDO>
F 7

$$$$
=
 OpenBabel10262420583D

 28 29  0  0  1  0  0  0  0  0999 V2000
  191.3500  175.6550  143.8830 C   0  0  0  0  0  1  0  0  0  0  0  0
  188.2590  177.4280  143.3330 N   0  0  1  0  0  0  0  0  0  0  0  0
  189.6910  178.6610  145.0220 F   0  0  0  0  0  0  0  0  0  0  0  0
  190.1250  176.3210  142.0390 O   0  0  0  0  0  0  0  0  0  0  0  0
  188.1710  177.7910  141.9930 O   0  0  0  0  0  0  0  0  0  0  0  0
  190.6870  176.9210  143.1490 C   0  0  1  0  0  0  0  0  0  0  0  0
  189.5370  177.5690  144.0800 C   0  0  2  0  0  3  0  0  0  0  0  0
  189.4540  177.3910  141.3840 C   0  0  2  0  0  3  0  0  0  0  0  0
  185.8080  178.3180  143.2560 C   0  0  0  0  0  3  0  0  0  0  0  0
  186.8470  177.6800  145.5460 C   0  0  0  0  0  0  0  0  0  0  0  0
  184.5860  178.6430  145.3820 C   0  0  0  0  0  0  0  0  0  0  0  0
  186.9270  177.6110  144.0280 C   0  0  2  0  0  3  0  0  0  0  0  0
  185.7330  178.1040  146.1370 C   0  0  0  0  0  3  0  0  0  0  0  0
  187.7870  177.1490  146.3630 F   0  0  0  0  0  0  0  0  0  0  0  0
  183.6290  179.0270  146.0580 O   0  0  0  0  0  0  0  0  0  0  0  0
  184.6900  178.7530  143.9070 C   0  0  0  0  0  3  0  0  0  0  0  0
  189.4350  177.3310  139.9420 C   0  0  2  0  0  3  0  0  0  0  0  0
  190.7730  177.3900  139.5520 O   0  0  0  0  0  1  0  0  0  0  0  0
  187.2920  178.3880  139.5240 O   0  0  0  0  0  1  0  0  0  0  0  0
  188.6870  178.4520  139.2910 C   0  0  2  0  0  3  0  0  0  0  0  0
  189.0660  178.5060  137.8170 C   0  0  0  0  0  0  0  0  0  0  0  0
  189.1130  179.5890  137.2490 O   0  0  0  0  0  0  0  0  0  0  0  0
  189.2270  177.3100  137.0460 O   0  0  0  0  0  0  0  0  0  0  0  0
  188.2360  176.4300  136.6600 C   0  0  0  0  0  0  0  0  0  0  0  0
  187.1510  176.8890  136.2850 O   0  0  0  0  0  0  0  0  0  0  0  0
  188.3630  174.8950  136.7960 C   0  0  0  0  0  1  0  0  0  0  0  0
  192.0460  178.6780  143.9550 O   0  0  0  0  0  1  0  0  0  0  0  0
  191.7340  177.9510  142.7790 C   0  0  0  0  0  2  0  0  0  0  0  0
  2  5  1  6  0  0  0
  2 12  1  0  0  0  0
  2  7  1  0  0  0  0
  4  6  1  0  0  0  0
  6  1  1  1  0  0  0
  6  7  1  0  0  0  0
  7  3  1  6  0  0  0
  8 17  1  6  0  0  0
  8  5  1  0  0  0  0
  8  4  1  0  0  0  0
  9 16  2  0  0  0  0
 10 13  2  0  0  0  0
 10 14  1  0  0  0  0
 11 15  2  0  0  0  0
 11 13  1  0  0  0  0
 12  9  1  6  0  0  0
 12 10  1  0  0  0  0
 16 11  1  0  0  0  0
 17 18  1  6  0  0  0
 20 19  1  6  0  0  0
 20 17  1  0  0  0  0
 21 20  1  0  0  0  0
 22 21  2  0  0  0  0
 23 21  1  0  0  0  0
 24 26  1  0  0  0  0
 24 23  1  0  0  0  0
 25 24  2  0  0  0  0
 28  6  1  0  0  0  0
 28 27  1  0  0  0  0
M  END
>  <MODEL>
2

>  <REMARK>
 VINA RESULT:      -7.5      1.495      2.040
  Name = 
  7 active torsions:
  status: ('A' for Active; 'I' for Inactive)
    1  A    between atoms: C_1  and  C_11
    2  A    between atoms: C_1  and  C_27
    3  A    between atoms: C_3  and  C_11
    4  A    between atoms: C_3  and  O_28
    5  A    between atoms: C_6  and  O_28
    6  A    between atoms: N_10  and  C_13
    7  A    between atoms: C_20  and  C_21
                            x       y       z     vdW  Elec       q    Type
                         _______ _______ _______ _____ _____    ______ ____

>  <TORSDO>
F 7

$$$$
=
 OpenBabel10262420583D

 28 29  0  0  1  0  0  0  0  0999 V2000
  187.7640  176.1180  148.1210 C   0  0  0  0  0  1  0  0  0  0  0  0
  186.8810  178.2210  145.3280 N   0  0  1  0  0  0  0  0  0  0  0  0
  186.3560  179.3940  147.5130 F   0  0  0  0  0  0  0  0  0  0  0  0
  188.7850  176.7810  146.1570 O   0  0  0  0  0  0  0  0  0  0  0  0
  188.0190  178.4810  144.5730 O   0  0  0  0  0  0  0  0  0  0  0  0
  188.2160  177.3940  147.2570 C   0  0  1  0  0  0  0  0  0  0  0  0
  186.9260  178.2580  146.8150 C   0  0  2  0  0  3  0  0  0  0  0  0
  189.1400  177.8720  145.3140 C   0  0  2  0  0  3  0  0  0  0  0  0
  184.3420  178.8160  145.3810 C   0  0  0  0  0  3  0  0  0  0  0  0
  185.4640  178.2810  143.1050 C   0  0  0  0  0  0  0  0  0  0  0  0
  183.0490  178.7350  143.2740 C   0  0  0  0  0  0  0  0  0  0  0  0
  185.6320  178.6280  144.5770 C   0  0  2  0  0  3  0  0  0  0  0  0
  184.2730  178.3970  142.5230 C   0  0  0  0  0  3  0  0  0  0  0  0
  186.5080  178.0330  142.2780 F   0  0  0  0  0  0  0  0  0  0  0  0
  182.0080  178.7820  142.6140 O   0  0  0  0  0  0  0  0  0  0  0  0
  183.1390  178.9130  144.7440 C   0  0  0  0  0  3  0  0  0  0  0  0
  190.3430  177.6970  144.5350 C   0  0  2  0  0  3  0  0  0  0  0  0
  190.1940  178.5350  143.4300 O   0  0  0  0  0  1  0  0  0  0  0  0
  191.9380  175.9830  143.8990 O   0  0  0  0  0  1  0  0  0  0  0  0
  190.5660  176.2960  144.0570 C   0  0  2  0  0  3  0  0  0  0  0  0
  189.7310  176.0640  142.8050 C   0  0  0  0  0  0  0  0  0  0  0  0
  188.5460  175.7830  142.9190 O   0  0  0  0  0  0  0  0  0  0  0  0
  190.3320  176.0260  141.5060 O   0  0  0  0  0  0  0  0  0  0  0  0
  190.3830  177.0510  140.5830 C   0  0  0  0  0  0  0  0  0  0  0  0
  191.4850  177.5240  140.2830 O   0  0  0  0  0  0  0  0  0  0  0  0
  189.1230  177.7340  140.0020 C   0  0  0  0  0  1  0  0  0  0  0  0
  188.7330  178.3660  149.3480 O   0  0  0  0  0  1  0  0  0  0  0  0
  189.2100  178.2480  148.0180 C   0  0  0  0  0  2  0  0  0  0  0  0
  2  5  1  6  0  0  0
  2  7  1  0  0  0  0
  4  6  1  0  0  0  0
  5  8  1  0  0  0  0
  6 28  1  0  0  0  0
  6  1  1  1  0  0  0
  7  6  1  0  0  0  0
  7  3  1  6  0  0  0
  8 17  1  6  0  0  0
  8  4  1  0  0  0  0
 10 12  1  0  0  0  0
 11 16  1  0  0  0  0
 12  2  1  0  0  0  0
 12  9  1  1  0  0  0
 13 10  2  0  0  0  0
 13 11  1  0  0  0  0
 14 10  1  0  0  0  0
 15 11  2  0  0  0  0
 16  9  2  0  0  0  0
 17 18  1  6  0  0  0
 20 19  1  6  0  0  0
 20 17  1  0  0  0  0
 21 22  2  0  0  0  0
 21 20  1  0  0  0  0
 23 21  1  0  0  0  0
 24 23  1  0  0  0  0
 25 24  2  0  0  0  0
 26 24  1  0  0  0  0
 28 27  1  0  0  0  0
M  END
>  <MODEL>
3

>  <REMARK>
 VINA RESULT:      -7.2      2.702      4.922
  Name = 
  7 active torsions:
  status: ('A' for Active; 'I' for Inactive)
    1  A    between atoms: C_1  and  C_11
    2  A    between atoms: C_1  and  C_27
    3  A    between atoms: C_3  and  C_11
    4  A    between atoms: C_3  and  O_28
    5  A    between atoms: C_6  and  O_28
    6  A    between atoms: N_10  and  C_13
    7  A    between atoms: C_20  and  C_21
                            x       y       z     vdW  Elec       q    Type
                         _______ _______ _______ _____ _____    ______ ____

>  <TORSDO>
F 7

$$$$
=
 OpenBabel10262420583D

 28 29  0  0  1  0  0  0  0  0999 V2000
  191.8050  179.3590  144.2760 C   0  0  0  0  0  1  0  0  0  0  0  0
  189.7860  177.4410  141.9860 N   0  0  1  0  0  0  0  0  0  0  0  0
  192.1670  176.5740  141.9960 F   0  0  0  0  0  0  0  0  0  0  0  0
  189.7330  178.3380  144.3470 O   0  0  0  0  0  0  0  0  0  0  0  0
  188.7470  176.8370  142.6860 O   0  0  0  0  0  0  0  0  0  0  0  0
  191.0340  177.9650  144.0720 C   0  0  1  0  0  0  0  0  0  0  0  0
  191.1650  177.4700  142.5410 C   0  0  2  0  0  3  0  0  0  0  0  0
  188.9870  177.1490  144.1080 C   0  0  2  0  0  3  0  0  0  0  0  0
  190.7110  176.8980  139.6090 C   0  0  0  0  0  3  0  0  0  0  0  0
  188.4960  178.2290  139.8250 C   0  0  0  0  0  0  0  0  0  0  0  0
  189.5140  177.7720  137.6290 C   0  0  0  0  0  0  0  0  0  0  0  0
  189.5480  177.3570  140.4940 C   0  0  2  0  0  3  0  0  0  0  0  0
  188.4730  178.3510  138.5000 C   0  0  0  0  0  3  0  0  0  0  0  0
  187.4380  178.7550  140.4880 F   0  0  0  0  0  0  0  0  0  0  0  0
  189.3850  177.9860  136.4210 O   0  0  0  0  0  0  0  0  0  0  0  0
  190.6530  177.0590  138.2540 C   0  0  0  0  0  3  0  0  0  0  0  0
  187.8430  176.9440  144.9640 C   0  0  2  0  0  3  0  0  0  0  0  0
  186.7420  176.9100  144.1080 O   0  0  0  0  0  1  0  0  0  0  0  0
  188.2570  177.7300  147.2210 O   0  0  0  0  0  1  0  0  0  0  0  0
  187.6370  178.0220  145.9820 C   0  0  2  0  0  3  0  0  0  0  0  0
  186.1470  178.3190  146.0900 C   0  0  0  0  0  0  0  0  0  0  0  0
  185.4590  177.6610  146.8580 O   0  0  0  0  0  0  0  0  0  0  0  0
  185.5090  179.2500  145.2090 O   0  0  0  0  0  0  0  0  0  0  0  0
  184.2390  179.1540  144.6770 C   0  0  0  0  0  0  0  0  0  0  0  0
  183.2700  179.2040  145.4430 O   0  0  0  0  0  0  0  0  0  0  0  0
  183.9640  178.8540  143.1850 C   0  0  0  0  0  1  0  0  0  0  0  0
  191.6160  177.5060  146.3160 O   0  0  0  0  0  1  0  0  0  0  0  0
  191.5460  176.9100  145.0320 C   0  0  0  0  0  2  0  0  0  0  0  0
  2  7  1  0  0  0  0
  2  5  1  1  0  0  0
  5  8  1  0  0  0  0
  6  1  1  1  0  0  0
  6  4  1  0  0  0  0
  6 28  1  0  0  0  0
  7  3  1  1  0  0  0
  7  6  1  0  0  0  0
  8  4  1  0  0  0  0
  8 17  1  1  0  0  0
 10 14  1  0  0  0  0
 10 12  1  0  0  0  0
 11 16  1  0  0  0  0
 11 13  1  0  0  0  0
 12  9  1  6  0  0  0
 12  2  1  0  0  0  0
 13 10  2  0  0  0  0
 15 11  2  0  0  0  0
 16  9  2  0  0  0  0
 17 18  1  6  0  0  0
 17 20  1  0  0  0  0
 20 21  1  0  0  0  0
 20 19  1  1  0  0  0
 21 22  2  0  0  0  0
 23 21  1  0  0  0  0
 24 23  1  0  0  0  0
 24 25  2  0  0  0  0
 26 24  1  0  0  0  0
 28 27  1  0  0  0  0
M  END
>  <MODEL>
4

>  <REMARK>
 VINA RESULT:      -7.1      2.633      6.105
  Name = 
  7 active torsions:
  status: ('A' for Active; 'I' for Inactive)
    1  A    between atoms: C_1  and  C_11
    2  A    between atoms: C_1  and  C_27
    3  A    between atoms: C_3  and  C_11
    4  A    between atoms: C_3  and  O_28
    5  A    between atoms: C_6  and  O_28
    6  A    between atoms: N_10  and  C_13
    7  A    between atoms: C_20  and  C_21
                            x       y       z     vdW  Elec       q    Type
                         _______ _______ _______ _____ _____    ______ ____

>  <TORSDO>
F 7

$$$$
=
 OpenBabel10262420583D

 28 29  0  0  1  0  0  0  0  0999 V2000
  188.0060  176.5210  148.2560 C   0  0  0  0  0  1  0  0  0  0  0  0
  186.7050  177.8390  145.1620 N   0  0  1  0  0  0  0  0  0  0  0  0
  186.3320  179.4910  147.0480 F   0  0  0  0  0  0  0  0  0  0  0  0
  188.7750  176.7220  146.0850 O   0  0  0  0  0  0  0  0  0  0  0  0
  187.7400  177.9500  144.2400 O   0  0  0  0  0  0  0  0  0  0  0  0
  188.2830  177.5630  147.0650 C   0  0  1  0  0  0  0  0  0  0  0  0
  186.9000  178.2410  146.5810 C   0  0  2  0  0  3  0  0  0  0  0  0
  188.9690  177.5860  144.9710 C   0  0  2  0  0  3  0  0  0  0  0  0
  185.3500  178.3060  142.9830 C   0  0  0  0  0  3  0  0  0  0  0  0
  184.1440  178.4580  145.2750 C   0  0  0  0  0  0  0  0  0  0  0  0
  182.9830  178.9990  143.1710 C   0  0  0  0  0  0  0  0  0  0  0  0
  185.3620  178.0010  144.4850 C   0  0  2  0  0  3  0  0  0  0  0  0
  183.0450  178.8560  144.6380 C   0  0  0  0  0  3  0  0  0  0  0  0
  184.0310  178.3080  146.6160 F   0  0  0  0  0  0  0  0  0  0  0  0
  181.9110  179.4040  142.7150 O   0  0  0  0  0  0  0  0  0  0  0  0
  184.2040  178.7280  142.3740 C   0  0  0  0  0  3  0  0  0  0  0  0
  190.0940  177.2720  144.1230 C   0  0  2  0  0  3  0  0  0  0  0  0
  190.6360  178.5040  143.7550 O   0  0  0  0  0  1  0  0  0  0  0  0
  190.3160  175.2170  142.8530 O   0  0  0  0  0  1  0  0  0  0  0  0
  189.7370  176.5080  142.8860 C   0  0  2  0  0  3  0  0  0  0  0  0
  190.0610  177.3630  141.6680 C   0  0  0  0  0  0  0  0  0  0  0  0
  191.2020  177.3690  141.2270 O   0  0  0  0  0  0  0  0  0  0  0  0
  189.0980  178.2690  141.1180 O   0  0  0  0  0  0  0  0  0  0  0  0
  188.3290  178.0780  139.9880 C   0  0  0  0  0  0  0  0  0  0  0  0
  187.1910  178.5600  139.9580 O   0  0  0  0  0  0  0  0  0  0  0  0
  188.7640  177.1800  138.8060 C   0  0  0  0  0  1  0  0  0  0  0  0
  189.4380  178.5260  148.8870 O   0  0  0  0  0  1  0  0  0  0  0  0
  189.2910  178.6150  147.4800 C   0  0  0  0  0  2  0  0  0  0  0  0
  2  5  1  6  0  0  0
  2  7  1  0  0  0  0
  4  6  1  0  0  0  0
  5  8  1  0  0  0  0
  6 28  1  0  0  0  0
  6  1  1  1  0  0  0
  7  3  1  6  0  0  0
  7  6  1  0  0  0  0
  8 17  1  6  0  0  0
  8  4  1  0  0  0  0
 10 14  1  0  0  0  0
 11 13  1  0  0  0  0
 12  9  1  6  0  0  0
 12  2  1  0  0  0  0
 12 10  1  0  0  0  0
 13 10  2  0  0  0  0
 15 11  2  0  0  0  0
 16  9  2  0  0  0  0
 16 11  1  0  0  0  0
 17 18  1  6  0  0  0
 20 19  1  6  0  0  0
 20 17  1  0  0  0  0
 21 20  1  0  0  0  0
 22 21  2  0  0  0  0
 23 21  1  0  0  0  0
 24 23  1  0  0  0  0
 25 24  2  0  0  0  0
 26 24  1  0  0  0  0
 28 27  1  0  0  0  0
M  END
>  <MODEL>
5

>  <REMARK>
 VINA RESULT:      -6.9      2.536      4.304
  Name = 
  7 active torsions:
  status: ('A' for Active; 'I' for Inactive)
    1  A    between atoms: C_1  and  C_11
    2  A    between atoms: C_1  and  C_27
    3  A    between atoms: C_3  and  C_11
    4  A    between atoms: C_3  and  O_28
    5  A    between atoms: C_6  and  O_28
    6  A    between atoms: N_10  and  C_13
    7  A    between atoms: C_20  and  C_21
                            x       y       z     vdW  Elec       q    Type
                         _______ _______ _______ _____ _____    ______ ____

>  <TORSDO>
F 7

$$$$
=
 OpenBabel10262420583D

 28 29  0  0  1  0  0  0  0  0999 V2000
  189.1150  179.1130  137.3860 C   0  0  0  0  0  1  0  0  0  0  0  0
  186.9780  178.4230  140.2070 N   0  0  1  0  0  0  0  0  0  0  0  0
  186.2470  177.0640  138.1970 F   0  0  0  0  0  0  0  0  0  0  0  0
  189.4280  178.6160  139.6220 O   0  0  0  0  0  0  0  0  0  0  0  0
  187.7430  177.9040  141.2460 O   0  0  0  0  0  0  0  0  0  0  0  0
  188.7850  178.0460  138.5410 C   0  0  1  0  0  0  0  0  0  0  0  0
  187.1930  177.9790  138.8040 C   0  0  2  0  0  3  0  0  0  0  0  0
  189.1050  177.7460  140.7000 C   0  0  2  0  0  3  0  0  0  0  0  0
  185.1790  178.3450  142.0940 C   0  0  0  0  0  3  0  0  0  0  0  0
  184.4750  179.0890  139.7110 C   0  0  0  0  0  0  0  0  0  0  0  0
  182.8280  178.8670  141.5290 C   0  0  0  0  0  0  0  0  0  0  0  0
  185.6000  178.8130  140.6970 C   0  0  2  0  0  3  0  0  0  0  0  0
  183.2170  179.1660  140.1380 C   0  0  0  0  0  3  0  0  0  0  0  0
  184.6890  179.4590  138.4260 F   0  0  0  0  0  0  0  0  0  0  0  0
  181.6230  178.9490  141.7810 O   0  0  0  0  0  0  0  0  0  0  0  0
  183.8730  178.4250  142.4840 C   0  0  0  0  0  3  0  0  0  0  0  0
  190.1310  177.5790  141.7010 C   0  0  2  0  0  3  0  0  0  0  0  0
  191.3360  177.5740  140.9980 O   0  0  0  0  0  1  0  0  0  0  0  0
  188.7000  176.0530  142.9280 O   0  0  0  0  0  1  0  0  0  0  0  0
  190.0210  176.3110  142.4890 C   0  0  2  0  0  3  0  0  0  0  0  0
  191.0520  176.3360  143.6090 C   0  0  0  0  0  0  0  0  0  0  0  0
  191.8500  175.4150  143.7090 O   0  0  0  0  0  0  0  0  0  0  0  0
  191.0150  177.3380  144.6320 O   0  0  0  0  0  0  0  0  0  0  0  0
  190.8920  177.1330  145.9920 C   0  0  0  0  0  0  0  0  0  0  0  0
  191.9100  176.8800  146.6470 O   0  0  0  0  0  0  0  0  0  0  0  0
  189.5310  177.0720  146.7220 C   0  0  0  0  0  1  0  0  0  0  0  0
  189.0560  176.4390  136.8290 O   0  0  0  0  0  1  0  0  0  0  0  0
  189.3390  176.6780  138.1970 C   0  0  0  0  0  2  0  0  0  0  0  0
  2 12  1  0  0  0  0
  2  5  1  1  0  0  0
  4  8  1  0  0  0  0
  6  1  1  6  0  0  0
  6  7  1  0  0  0  0
  6  4  1  0  0  0  0
  7  3  1  1  0  0  0
  7  2  1  0  0  0  0
  8  5  1  0  0  0  0
  8 17  1  1  0  0  0
  9 16  2  0  0  0  0
 10 13  2  0  0  0  0
 10 12  1  0  0  0  0
 11 15  2  0  0  0  0
 11 16  1  0  0  0  0
 12  9  1  1  0  0  0
 13 11  1  0  0  0  0
 14 10  1  0  0  0  0
 17 18  1  6  0  0  0
 17 20  1  0  0  0  0
 20 19  1  1  0  0  0
 20 21  1  0  0  0  0
 21 22  2  0  0  0  0
 21 23  1  0  0  0  0
 23 24  1  0  0  0  0
 24 25  2  0  0  0  0
 24 26  1  0  0  0  0
 27 28  1  0  0  0  0
 28  6  1  0  0  0  0
M  END
>  <MODEL>
6

>  <REMARK>
 VINA RESULT:      -6.8      3.016      5.878
  Name = 
  7 active torsions:
  status: ('A' for Active; 'I' for Inactive)
    1  A    between atoms: C_1  and  C_11
    2  A    between atoms: C_1  and  C_27
    3  A    between atoms: C_3  and  C_11
    4  A    between atoms: C_3  and  O_28
    5  A    between atoms: C_6  and  O_28
    6  A    between atoms: N_10  and  C_13
    7  A    between atoms: C_20  and  C_21
                            x       y       z     vdW  Elec       q    Type
                         _______ _______ _______ _____ _____    ______ ____

>  <TORSDO>
F 7

$$$$
=
 OpenBabel10262420583D

 28 29  0  0  1  0  0  0  0  0999 V2000
  191.7060  179.3890  143.9680 C   0  0  0  0  0  1  0  0  0  0  0  0
  190.2030  177.6480  141.1920 N   0  0  1  0  0  0  0  0  0  0  0  0
  192.6600  177.0560  141.3740 F   0  0  0  0  0  0  0  0  0  0  0  0
  189.7850  178.1480  143.6330 O   0  0  0  0  0  0  0  0  0  0  0  0
  189.1800  176.8310  141.6620 O   0  0  0  0  0  0  0  0  0  0  0  0
  191.1440  177.9680  143.4710 C   0  0  1  0  0  0  0  0  0  0  0  0
  191.5000  177.7400  141.9130 C   0  0  2  0  0  3  0  0  0  0  0  0
  189.2260  176.9380  143.1330 C   0  0  2  0  0  3  0  0  0  0  0  0
  189.0550  178.6800  139.0890 C   0  0  0  0  0  3  0  0  0  0  0  0
  190.6510  176.6570  138.7890 C   0  0  0  0  0  0  0  0  0  0  0  0
  189.4270  177.6240  136.8840 C   0  0  0  0  0  0  0  0  0  0  0  0
  190.1380  177.7750  139.6850 C   0  0  2  0  0  3  0  0  0  0  0  0
  190.3530  176.6510  137.4920 C   0  0  0  0  0  3  0  0  0  0  0  0
  191.5690  175.7460  139.1920 F   0  0  0  0  0  0  0  0  0  0  0  0
  189.2170  177.4840  135.6760 O   0  0  0  0  0  0  0  0  0  0  0  0
  188.7690  178.6270  137.7550 C   0  0  0  0  0  3  0  0  0  0  0  0
  188.0320  176.4760  143.8010 C   0  0  2  0  0  3  0  0  0  0  0  0
  187.7360  175.2440  143.2180 O   0  0  0  0  0  1  0  0  0  0  0  0
  186.9450  178.2130  142.5020 O   0  0  0  0  0  1  0  0  0  0  0  0
  186.8520  177.3840  143.6460 C   0  0  2  0  0  3  0  0  0  0  0  0
  186.6420  178.1460  144.9470 C   0  0  0  0  0  0  0  0  0  0  0  0
  187.2290  177.7810  145.9570 O   0  0  0  0  0  0  0  0  0  0  0  0
  185.6660  179.1890  145.0500 O   0  0  0  0  0  0  0  0  0  0  0  0
  184.2950  179.0400  145.1170 C   0  0  0  0  0  0  0  0  0  0  0  0
  183.7770  178.8230  146.2180 O   0  0  0  0  0  0  0  0  0  0  0  0
  183.3830  178.9960  143.8690 C   0  0  0  0  0  1  0  0  0  0  0  0
  191.6780  177.2860  145.6700 O   0  0  0  0  0  1  0  0  0  0  0  0
  191.6810  176.8370  144.3250 C   0  0  0  0  0  2  0  0  0  0  0  0
  2  5  1  6  0  0  0
  2  7  1  0  0  0  0
  5  8  1  0  0  0  0
  6  4  1  0  0  0  0
  6  1  1  1  0  0  0
  6 28  1  0  0  0  0
  7  3  1  1  0  0  0
  7  6  1  0  0  0  0
  8  4  1  0  0  0  0
  8 17  1  6  0  0  0
 10 14  1  0  0  0  0
 10 12  1  0  0  0  0
 11 13  1  0  0  0  0
 11 16  1  0  0  0  0
 12  9  1  1  0  0  0
 12  2  1  0  0  0  0
 13 10  2  0  0  0  0
 15 11  2  0  0  0  0
 16  9  2  0  0  0  0
 17 18  1  6  0  0  0
 20 19  1  6  0  0  0
 20 17  1  0  0  0  0
 20 21  1  0  0  0  0
 21 23  1  0  0  0  0
 21 22  2  0  0  0  0
 23 24  1  0  0  0  0
 24 25  2  0  0  0  0
 26 24  1  0  0  0  0
 28 27  1  0  0  0  0
M  END
>  <MODEL>
7

>  <REMARK>
 VINA RESULT:      -6.7      2.635      5.998
  Name = 
  7 active torsions:
  status: ('A' for Active; 'I' for Inactive)
    1  A    between atoms: C_1  and  C_11
    2  A    between atoms: C_1  and  C_27
    3  A    between atoms: C_3  and  C_11
    4  A    between atoms: C_3  and  O_28
    5  A    between atoms: C_6  and  O_28
    6  A    between atoms: N_10  and  C_13
    7  A    between atoms: C_20  and  C_21
                            x       y       z     vdW  Elec       q    Type
                         _______ _______ _______ _____ _____    ______ ____

>  <TORSDO>
F 7

$$$$
=
 OpenBabel10262420583D

 28 29  0  0  1  0  0  0  0  0999 V2000
  184.9250  179.7540  143.8660 C   0  0  0  0  0  1  0  0  0  0  0  0
  188.1350  178.1160  143.9830 N   0  0  1  0  0  0  0  0  0  0  0  0
  186.3680  176.6690  145.0820 F   0  0  0  0  0  0  0  0  0  0  0  0
  186.6260  179.3310  142.3600 O   0  0  0  0  0  0  0  0  0  0  0  0
  188.5930  177.9120  142.6850 O   0  0  0  0  0  0  0  0  0  0  0  0
  185.8210  178.5950  143.2080 C   0  0  1  0  0  0  0  0  0  0  0  0
  186.7120  177.8650  144.3380 C   0  0  2  0  0  3  0  0  0  0  0  0
  187.4990  178.3560  141.8000 C   0  0  2  0  0  3  0  0  0  0  0  0
  190.5250  177.2050  144.4910 C   0  0  0  0  0  3  0  0  0  0  0  0
  188.9270  177.7210  146.4670 C   0  0  0  0  0  0  0  0  0  0  0  0
  191.1570  176.7450  146.8370 C   0  0  0  0  0  0  0  0  0  0  0  0
  189.2420  177.8790  144.9860 C   0  0  2  0  0  3  0  0  0  0  0  0
  189.8510  177.2510  147.3000 C   0  0  0  0  0  3  0  0  0  0  0  0
  187.8040  178.2140  147.0420 F   0  0  0  0  0  0  0  0  0  0  0  0
  191.9080  176.3120  147.7150 O   0  0  0  0  0  0  0  0  0  0  0  0
  191.4390  176.7210  145.3820 C   0  0  0  0  0  3  0  0  0  0  0  0
  187.8970  178.5830  140.4310 C   0  0  2  0  0  3  0  0  0  0  0  0
  186.7080  178.6210  139.7020 O   0  0  0  0  0  1  0  0  0  0  0  0
  190.1590  177.8060  140.0300 O   0  0  0  0  0  1  0  0  0  0  0  0
  188.7830  177.5190  139.8640 C   0  0  2  0  0  3  0  0  0  0  0  0
  188.3760  177.2560  138.4210 C   0  0  0  0  0  0  0  0  0  0  0  0
  187.9090  176.1660  138.1190 O   0  0  0  0  0  0  0  0  0  0  0  0
  188.6600  178.2020  137.3840 O   0  0  0  0  0  0  0  0  0  0  0  0
  187.7840  178.6740  136.4270 C   0  0  0  0  0  0  0  0  0  0  0  0
  187.1900  179.7380  136.6410 O   0  0  0  0  0  0  0  0  0  0  0  0
  187.4010  177.8780  135.1580 C   0  0  0  0  0  1  0  0  0  0  0  0
  183.9480  178.3270  141.7910 O   0  0  0  0  0  1  0  0  0  0  0  0
  184.9610  177.5950  142.4610 C   0  0  0  0  0  2  0  0  0  0  0  0
  2  5  1  6  0  0  0
  2  7  1  0  0  0  0
  2 12  1  0  0  0  0
  4  6  1  0  0  0  0
  6  1  1  1  0  0  0
  6  7  1  0  0  0  0
  7  3  1  6  0  0  0
  8 17  1  6  0  0  0
  8  4  1  0  0  0  0
  8  5  1  0  0  0  0
  9 16  2  0  0  0  0
 10 14  1  0  0  0  0
 10 13  2  0  0  0  0
 11 13  1  0  0  0  0
 11 15  2  0  0  0  0
 12  9  1  6  0  0  0
 12 10  1  0  0  0  0
 16 11  1  0  0  0  0
 17 18  1  6  0  0  0
 20 19  1  6  0  0  0
 20 17  1  0  0  0  0
 21 20  1  0  0  0  0
 22 21  2  0  0  0  0
 23 21  1  0  0  0  0
 24 25  2  0  0  0  0
 24 23  1  0  0  0  0
 26 24  1  0  0  0  0
 27 28  1  0  0  0  0
 28  6  1  0  0  0  0
M  END
>  <MODEL>
8

>  <REMARK>
 VINA RESULT:      -6.6      2.209      4.532
  Name = 
  7 active torsions:
  status: ('A' for Active; 'I' for Inactive)
    1  A    between atoms: C_1  and  C_11
    2  A    between atoms: C_1  and  C_27
    3  A    between atoms: C_3  and  C_11
    4  A    between atoms: C_3  and  O_28
    5  A    between atoms: C_6  and  O_28
    6  A    between atoms: N_10  and  C_13
    7  A    between atoms: C_20  and  C_21
                            x       y       z     vdW  Elec       q    Type
                         _______ _______ _______ _____ _____    ______ ____

>  <TORSDO>
F 7

$$$$
=
 OpenBabel10262420583D

 28 29  0  0  1  0  0  0  0  0999 V2000
  187.4840  176.3420  137.4160 C   0  0  0  0  0  1  0  0  0  0  0  0
  187.1020  178.2220  140.4690 N   0  0  1  0  0  0  0  0  0  0  0  0
  189.2540  178.8730  139.3000 F   0  0  0  0  0  0  0  0  0  0  0  0
  185.7860  177.5450  138.4210 O   0  0  0  0  0  0  0  0  0  0  0  0
  185.9340  178.9750  140.4000 O   0  0  0  0  0  0  0  0  0  0  0  0
  187.0880  177.7760  138.0230 C   0  0  1  0  0  0  0  0  0  0  0  0
  188.0140  178.1200  139.2990 C   0  0  2  0  0  3  0  0  0  0  0  0
  185.4040  178.7690  139.0390 C   0  0  2  0  0  3  0  0  0  0  0  0
  189.1490  177.9990  142.0690 C   0  0  0  0  0  3  0  0  0  0  0  0
  186.7570  177.7640  143.0430 C   0  0  0  0  0  0  0  0  0  0  0  0
  188.7550  177.4490  144.4480 C   0  0  0  0  0  0  0  0  0  0  0  0
  187.6410  178.1950  141.8820 C   0  0  2  0  0  3  0  0  0  0  0  0
  187.2970  177.4840  144.2270 C   0  0  0  0  0  3  0  0  0  0  0  0
  185.4040  177.8260  143.0080 F   0  0  0  0  0  0  0  0  0  0  0  0
  189.1190  177.1470  145.5870 O   0  0  0  0  0  0  0  0  0  0  0  0
  189.6590  177.6950  143.2990 C   0  0  0  0  0  3  0  0  0  0  0  0
  184.0210  179.1490  138.8750 C   0  0  2  0  0  3  0  0  0  0  0  0
  184.0140  180.5440  138.9110 O   0  0  0  0  0  1  0  0  0  0  0  0
  183.2230  177.2310  140.1260 O   0  0  0  0  0  1  0  0  0  0  0  0
  183.1110  178.6300  139.9440 C   0  0  2  0  0  3  0  0  0  0  0  0
  181.6930  179.1060  139.6580 C   0  0  0  0  0  0  0  0  0  0  0  0
  181.1420  178.7580  138.6230 O   0  0  0  0  0  0  0  0  0  0  0  0
  181.0460  180.0650  140.5020 O   0  0  0  0  0  0  0  0  0  0  0  0
  180.2750  179.8050  141.6170 C   0  0  0  0  0  0  0  0  0  0  0  0
  179.8720  180.7570  142.2940 O   0  0  0  0  0  0  0  0  0  0  0  0
  179.9980  178.3770  142.1430 C   0  0  0  0  0  1  0  0  0  0  0  0
  187.0380  178.2370  135.7050 O   0  0  0  0  0  1  0  0  0  0  0  0
  187.1840  178.8620  136.9700 C   0  0  0  0  0  2  0  0  0  0  0  0
  2  5  1  6  0  0  0
  2 12  1  0  0  0  0
  4  8  1  0  0  0  0
  6  1  1  6  0  0  0
  6  4  1  0  0  0  0
  6  7  1  0  0  0  0
  7  3  1  6  0  0  0
  7  2  1  0  0  0  0
  8 17  1  1  0  0  0
  8  5  1  0  0  0  0
  9 16  2  0  0  0  0
 10 13  2  0  0  0  0
 11 15  2  0  0  0  0
 12  9  1  6  0  0  0
 12 10  1  0  0  0  0
 13 11  1  0  0  0  0
 14 10  1  0  0  0  0
 16 11  1  0  0  0  0
 17 18  1  1  0  0  0
 17 20  1  0  0  0  0
 20 19  1  6  0  0  0
 21 20  1  0  0  0  0
 21 23  1  0  0  0  0
 22 21  2  0  0  0  0
 23 24  1  0  0  0  0
 24 26  1  0  0  0  0
 24 25  2  0  0  0  0
 27 28  1  0  0  0  0
 28  6  1  0  0  0  0
M  END
>  <MODEL>
9

>  <REMARK>
 VINA RESULT:      -6.4      2.984      5.448
  Name = 
  7 active torsions:
  status: ('A' for Active; 'I' for Inactive)
    1  A    between atoms: C_1  and  C_11
    2  A    between atoms: C_1  and  C_27
    3  A    between atoms: C_3  and  C_11
    4  A    between atoms: C_3  and  O_28
    5  A    between atoms: C_6  and  O_28
    6  A    between atoms: N_10  and  C_13
    7  A    between atoms: C_20  and  C_21
                            x       y       z     vdW  Elec       q    Type
                         _______ _______ _______ _____ _____    ______ ____

>  <TORSDO>
F 7

$$$$
