=
 OpenBabel10262419393D

 31 36  0  0  1  0  0  0  0  0999 V2000
  181.1980  180.7980  136.5010 O   0  0  0  0  0  0  0  0  0  0  0  0
  181.7850  177.6200  138.3700 C   0  0  1  0  0  3  0  0  0  0  0  0
  179.9150  181.3750  139.4650 C   0  0  0  0  0  1  0  0  0  0  0  0
  179.7910  180.3170  138.3750 C   0  0  2  0  0  3  0  0  0  0  0  0
  181.1020  179.9890  137.6550 C   0  0  2  0  0  0  0  0  0  0  0  0
  180.2350  177.8960  136.2490 C   0  0  0  0  0  2  0  0  0  0  0  0
  182.5820  180.2370  138.6990 S   0  0  0  0  0  0  0  0  0  0  0  0
  181.1380  178.4970  137.3130 C   0  0  0  0  0  0  0  0  0  0  0  0
  179.8940  181.2220  136.1720 C   0  0  1  0  0  3  0  0  0  0  0  0
  178.9310  180.8770  137.2860 C   0  0  0  0  0  2  0  0  0  0  0  0
  182.4500  178.5500  139.3890 C   0  0  2  0  0  3  0  0  0  0  0  0
  181.6970  178.1710  135.9400 C   0  0  0  0  0  2  0  0  0  0  0  0
  180.8000  176.6980  139.0280 C   0  0  0  0  0  0  0  0  0  0  0  0
  178.9940  176.2640  140.5710 C   0  0  0  0  0  3  0  0  0  0  0  0
  179.8980  177.1590  139.9970 C   0  0  0  0  0  3  0  0  0  0  0  0
  178.9890  174.9580  140.1890 N   0  0  0  0  0  0  0  0  0  0  0  0
  179.8190  173.2770  138.9130 O   0  0  0  0  0  0  0  0  0  0  0  0
  180.7720  175.3540  138.6490 C   0  0  0  0  0  2  0  0  0  0  0  0
  179.8520  174.4900  139.2460 C   0  0  0  0  0  0  0  0  0  0  0  0
  181.7540  183.5540  137.6230 C   0  0  0  0  0  2  0  0  0  0  0  0
  179.0420  183.1310  135.0410 O   0  0  0  0  0  0  0  0  0  0  0  0
  181.9250  185.0010  137.6000 C   0  0  0  0  0  2  0  0  0  0  0  0
  180.9220  185.0130  136.5790 N   0  0  0  0  0  2  0  0  0  0  0  0
  179.8650  182.6900  135.8840 C   0  0  0  0  0  0  0  0  0  0  0  0
  180.7210  183.6020  136.5760 N   0  0  0  0  0  0  0  0  0  0  0  0
  185.9340  178.9440  140.5770 O   0  0  0  0  0  0  0  0  0  0  0  0
  183.8110  178.0450  139.8680 C   0  0  1  0  0  3  0  0  0  0  0  0
  184.2620  178.5950  142.3260 C   0  0  0  0  0  2  0  0  0  0  0  0
  185.4190  179.4530  141.7830 C   0  0  0  0  0  2  0  0  0  0  0  0
  184.9060  179.0930  139.6320 C   0  0  0  0  0  2  0  0  0  0  0  0
  183.7970  177.5350  141.3190 C   0  0  0  0  0  2  0  0  0  0  0  0
  2 13  1  1  0  0  0
  2 11  1  0  0  0  0
  4  3  1  1  0  0  0
  5  1  1  6  0  0  0
  5  4  1  0  0  0  0
  5  7  1  0  0  0  0
  6  8  1  0  0  0  0
  8  5  1  0  0  0  0
  8  2  1  0  0  0  0
  9 24  1  1  0  0  0
  9  1  1  0  0  0  0
  9 10  1  0  0  0  0
 10  4  1  0  0  0  0
 11  7  1  6  0  0  0
 11 27  1  0  0  0  0
 12  6  1  0  0  0  0
 12  8  1  0  0  0  0
 13 15  2  0  0  0  0
 15 14  1  0  0  0  0
 16 14  2  0  0  0  0
 17 19  2  0  0  0  0
 18 13  1  0  0  0  0
 18 19  1  0  0  0  0
 19 16  1  0  0  0  0
 21 24  2  0  0  0  0
 22 20  1  0  0  0  0
 23 22  1  0  0  0  0
 24 25  1  0  0  0  0
 25 23  1  0  0  0  0
 25 20  1  0  0  0  0
 26 29  1  0  0  0  0
 27 30  1  1  0  0  0
 27 31  1  0  0  0  0
 29 28  1  0  0  0  0
 30 26  1  0  0  0  0
 31 28  1  0  0  0  0
M  END
>  <MODEL>
1

>  <REMARK>
 VINA RESULT:      -5.5      0.000      0.000
  Name = 
  3 active torsions:
  status: ('A' for Active; 'I' for Inactive)
    1  A    between atoms: C_4  and  C_5
    2  A    between atoms: C_12  and  C_27
    3  A    between atoms: C_19  and  C_22
                            x       y       z     vdW  Elec       q    Type
                         _______ _______ _______ _____ _____    ______ ____

>  <TORSDO>
F 3

$$$$
=
 OpenBabel10262419393D

 31 36  0  0  1  0  0  0  0  0999 V2000
  182.4790  176.0330  137.6260 O   0  0  0  0  0  0  0  0  0  0  0  0
  180.3550  179.0110  138.3700 C   0  0  1  0  0  3  0  0  0  0  0  0
  184.5210  178.1000  139.1500 C   0  0  0  0  0  1  0  0  0  0  0  0
  183.5680  178.1370  137.9630 C   0  0  2  0  0  3  0  0  0  0  0  0
  182.2810  177.3280  138.1530 C   0  0  2  0  0  0  0  0  0  0  0  0
  181.0050  178.1450  135.9600 C   0  0  0  0  0  2  0  0  0  0  0  0
  181.7600  177.2020  139.9010 S   0  0  0  0  0  0  0  0  0  0  0  0
  181.1160  178.0530  137.4730 C   0  0  0  0  0  0  0  0  0  0  0  0
  183.5490  176.1090  136.7100 C   0  0  1  0  0  3  0  0  0  0  0  0
  184.2380  177.4520  136.8140 C   0  0  0  0  0  2  0  0  0  0  0  0
  180.8430  178.7810  139.8020 C   0  0  2  0  0  3  0  0  0  0  0  0
  180.1530  177.1470  136.7270 C   0  0  0  0  0  2  0  0  0  0  0  0
  180.5310  180.4430  137.9540 C   0  0  0  0  0  0  0  0  0  0  0  0
  179.8010  182.4230  136.7790 C   0  0  0  0  0  3  0  0  0  0  0  0
  179.5980  181.0870  137.1280 C   0  0  0  0  0  3  0  0  0  0  0  0
  180.8920  183.0920  137.2410 N   0  0  0  0  0  0  0  0  0  0  0  0
  182.8040  183.1370  138.4600 O   0  0  0  0  0  0  0  0  0  0  0  0
  181.6400  181.1530  138.4190 C   0  0  0  0  0  2  0  0  0  0  0  0
  181.8070  182.4890  138.0480 C   0  0  0  0  0  0  0  0  0  0  0  0
  182.8670  172.8620  136.7470 C   0  0  0  0  0  2  0  0  0  0  0  0
  185.7280  175.2780  137.1700 O   0  0  0  0  0  0  0  0  0  0  0  0
  183.5500  171.5940  136.9690 C   0  0  0  0  0  2  0  0  0  0  0  0
  184.7430  172.3680  137.1290 N   0  0  0  0  0  2  0  0  0  0  0  0
  184.5250  174.9970  136.9330 C   0  0  0  0  0  0  0  0  0  0  0  0
  184.1110  173.6280  136.9230 N   0  0  0  0  0  0  0  0  0  0  0  0
  179.1840  177.8610  142.9810 O   0  0  0  0  0  0  0  0  0  0  0  0
  179.7190  178.8280  140.8380 C   0  0  1  0  0  3  0  0  0  0  0  0
  180.4290  179.9640  143.0190 C   0  0  0  0  0  2  0  0  0  0  0  0
  180.1780  178.5870  143.6610 C   0  0  0  0  0  2  0  0  0  0  0  0
  179.7210  177.5710  141.7160 C   0  0  0  0  0  2  0  0  0  0  0  0
  179.7110  180.1210  141.6710 C   0  0  0  0  0  2  0  0  0  0  0  0
  2 13  1  6  0  0  0
  2 11  1  0  0  0  0
  4  5  1  0  0  0  0
  4  3  1  1  0  0  0
  5  1  1  6  0  0  0
  5  7  1  0  0  0  0
  6 12  1  0  0  0  0
  6  8  1  0  0  0  0
  8  5  1  0  0  0  0
  8  2  1  0  0  0  0
  9 10  1  0  0  0  0
  9 24  1  1  0  0  0
  9  1  1  0  0  0  0
 10  4  1  0  0  0  0
 11  7  1  6  0  0  0
 11 27  1  0  0  0  0
 12  8  1  0  0  0  0
 13 18  1  0  0  0  0
 14 15  1  0  0  0  0
 14 16  2  0  0  0  0
 15 13  2  0  0  0  0
 16 19  1  0  0  0  0
 19 18  1  0  0  0  0
 19 17  2  0  0  0  0
 20 25  1  0  0  0  0
 20 22  1  0  0  0  0
 22 23  1  0  0  0  0
 24 21  2  0  0  0  0
 25 24  1  0  0  0  0
 25 23  1  0  0  0  0
 26 29  1  0  0  0  0
 27 31  1  1  0  0  0
 27 30  1  0  0  0  0
 28 29  1  0  0  0  0
 30 26  1  0  0  0  0
 31 28  1  0  0  0  0
M  END
>  <MODEL>
2

>  <REMARK>
 VINA RESULT:      -5.5      3.227      7.011
  Name = 
  3 active torsions:
  status: ('A' for Active; 'I' for Inactive)
    1  A    between atoms: C_4  and  C_5
    2  A    between atoms: C_12  and  C_27
    3  A    between atoms: C_19  and  C_22
                            x       y       z     vdW  Elec       q    Type
                         _______ _______ _______ _____ _____    ______ ____

>  <TORSDO>
F 3

$$$$
=
 OpenBabel10262419393D

 31 36  0  0  1  0  0  0  0  0999 V2000
  182.4020  179.3020  141.0330 O   0  0  0  0  0  0  0  0  0  0  0  0
  180.1110  178.5950  138.1720 C   0  0  1  0  0  3  0  0  0  0  0  0
  184.4210  178.9450  138.4720 C   0  0  0  0  0  1  0  0  0  0  0  0
  183.2950  178.1580  139.1310 C   0  0  2  0  0  3  0  0  0  0  0  0
  182.1500  179.0190  139.6730 C   0  0  2  0  0  0  0  0  0  0  0  0
  180.4640  177.0460  140.2820 C   0  0  0  0  0  2  0  0  0  0  0  0
  181.9260  180.5840  138.7550 S   0  0  0  0  0  0  0  0  0  0  0  0
  180.8210  178.2830  139.4760 C   0  0  0  0  0  0  0  0  0  0  0  0
  183.3000  178.3240  141.5090 C   0  0  1  0  0  3  0  0  0  0  0  0
  183.8470  177.5070  140.3600 C   0  0  0  0  0  2  0  0  0  0  0  0
  180.8400  179.7760  137.5260 C   0  0  2  0  0  3  0  0  0  0  0  0
  179.8560  178.3910  140.6430 C   0  0  0  0  0  2  0  0  0  0  0  0
  180.0630  177.4100  137.2520 C   0  0  0  0  0  0  0  0  0  0  0  0
  178.9320  175.5030  136.2940 C   0  0  0  0  0  3  0  0  0  0  0  0
  178.9310  176.5860  137.1740 C   0  0  0  0  0  3  0  0  0  0  0  0
  180.0210  175.2540  135.5170 N   0  0  0  0  0  0  0  0  0  0  0  0
  182.1170  175.7880  134.8360 O   0  0  0  0  0  0  0  0  0  0  0  0
  181.1660  177.1370  136.4390 C   0  0  0  0  0  2  0  0  0  0  0  0
  181.1280  176.0440  135.5710 C   0  0  0  0  0  0  0  0  0  0  0  0
  183.6450  178.3320  144.8090 C   0  0  0  0  0  2  0  0  0  0  0  0
  185.3100  179.5830  141.6690 O   0  0  0  0  0  0  0  0  0  0  0  0
  184.5460  178.8650  145.8230 C   0  0  0  0  0  2  0  0  0  0  0  0
  185.3150  179.3880  144.7350 N   0  0  0  0  0  2  0  0  0  0  0  0
  184.4130  178.9530  142.2860 C   0  0  0  0  0  0  0  0  0  0  0  0
  184.4560  178.8880  143.7140 N   0  0  0  0  0  0  0  0  0  0  0  0
  179.8380  183.1420  136.3550 O   0  0  0  0  0  0  0  0  0  0  0  0
  179.8940  180.7890  136.8800 C   0  0  1  0  0  3  0  0  0  0  0  0
  180.7640  181.6680  134.6400 C   0  0  0  0  0  2  0  0  0  0  0  0
  180.8120  183.0340  135.3470 C   0  0  0  0  0  2  0  0  0  0  0  0
  180.2090  182.2160  137.3440 C   0  0  0  0  0  2  0  0  0  0  0  0
  179.8320  180.6750  135.3470 C   0  0  0  0  0  2  0  0  0  0  0  0
  1  9  1  0  0  0  0
  2 13  1  6  0  0  0
  2  8  1  0  0  0  0
  4  3  1  1  0  0  0
  4  5  1  0  0  0  0
  4 10  1  0  0  0  0
  5  7  1  6  0  0  0
  5  1  1  0  0  0  0
  6 12  1  0  0  0  0
  8  5  1  0  0  0  0
  8  6  1  0  0  0  0
  8 12  1  0  0  0  0
  9 24  1  6  0  0  0
 10  9  1  0  0  0  0
 11  2  1  0  0  0  0
 11  7  1  1  0  0  0
 14 15  1  0  0  0  0
 15 13  2  0  0  0  0
 16 19  1  0  0  0  0
 16 14  2  0  0  0  0
 17 19  2  0  0  0  0
 18 13  1  0  0  0  0
 19 18  1  0  0  0  0
 20 22  1  0  0  0  0
 21 24  2  0  0  0  0
 23 22  1  0  0  0  0
 24 25  1  0  0  0  0
 25 23  1  0  0  0  0
 25 20  1  0  0  0  0
 26 30  1  0  0  0  0
 27 31  1  6  0  0  0
 27 30  1  0  0  0  0
 27 11  1  0  0  0  0
 28 31  1  0  0  0  0
 28 29  1  0  0  0  0
 29 26  1  0  0  0  0
M  END
>  <MODEL>
3

>  <REMARK>
 VINA RESULT:      -5.3      3.048      6.392
  Name = 
  3 active torsions:
  status: ('A' for Active; 'I' for Inactive)
    1  A    between atoms: C_4  and  C_5
    2  A    between atoms: C_12  and  C_27
    3  A    between atoms: C_19  and  C_22
                            x       y       z     vdW  Elec       q    Type
                         _______ _______ _______ _____ _____    ______ ____

>  <TORSDO>
F 3

$$$$
=
 OpenBabel10262419393D

 31 36  0  0  1  0  0  0  0  0999 V2000
  189.7340  178.0310  142.2450 O   0  0  0  0  0  0  0  0  0  0  0  0
  189.9160  177.8070  145.9660 C   0  0  1  0  0  3  0  0  0  0  0  0
  189.7800  174.8050  142.8410 C   0  0  0  0  0  1  0  0  0  0  0  0
  190.6130  176.0260  143.2110 C   0  0  2  0  0  3  0  0  0  0  0  0
  189.8000  177.3020  143.4520 C   0  0  2  0  0  0  0  0  0  0  0  0
  191.7760  178.8240  144.3910 C   0  0  0  0  0  2  0  0  0  0  0  0
  188.1070  176.9750  144.0610 S   0  0  0  0  0  0  0  0  0  0  0  0
  190.4460  178.1140  144.5780 C   0  0  0  0  0  0  0  0  0  0  0  0
  190.8060  177.6040  141.4330 C   0  0  1  0  0  3  0  0  0  0  0  0
  191.4620  176.3780  142.0300 C   0  0  0  0  0  2  0  0  0  0  0  0
  188.6800  176.9200  145.7960 C   0  0  2  0  0  3  0  0  0  0  0  0
  190.4780  179.6130  144.3440 C   0  0  0  0  0  2  0  0  0  0  0  0
  190.9460  177.1510  146.8390 C   0  0  0  0  0  0  0  0  0  0  0  0
  192.4300  175.3230  147.3740 C   0  0  0  0  0  3  0  0  0  0  0  0
  191.4650  175.8840  146.5370 C   0  0  0  0  0  3  0  0  0  0  0  0
  192.8650  176.0030  148.4690 N   0  0  0  0  0  0  0  0  0  0  0  0
  192.8050  177.8400  149.7970 O   0  0  0  0  0  0  0  0  0  0  0  0
  191.4130  177.8320  147.9660 C   0  0  0  0  0  2  0  0  0  0  0  0
  192.3800  177.2370  148.7780 C   0  0  0  0  0  0  0  0  0  0  0  0
  192.7010  176.6730  138.8750 C   0  0  0  0  0  2  0  0  0  0  0  0
  189.1290  177.4890  139.7530 O   0  0  0  0  0  0  0  0  0  0  0  0
  192.5700  176.3820  137.4530 C   0  0  0  0  0  2  0  0  0  0  0  0
  191.1710  176.6320  137.6230 N   0  0  0  0  0  2  0  0  0  0  0  0
  190.3440  177.3290  140.0370 C   0  0  0  0  0  0  0  0  0  0  0  0
  191.2580  176.9280  139.0140 N   0  0  0  0  0  0  0  0  0  0  0  0
  186.5900  179.2290  147.7990 O   0  0  0  0  0  0  0  0  0  0  0  0
  187.5460  177.2730  146.7590 C   0  0  1  0  0  3  0  0  0  0  0  0
  185.6610  178.5860  145.6310 C   0  0  0  0  0  2  0  0  0  0  0  0
  186.0550  179.7210  146.5950 C   0  0  0  0  0  2  0  0  0  0  0  0
  187.8060  178.6160  147.4540 C   0  0  0  0  0  2  0  0  0  0  0  0
  186.1520  177.2140  146.1100 C   0  0  0  0  0  2  0  0  0  0  0  0
  2 13  1  1  0  0  0
  4  3  1  6  0  0  0
  4  5  1  0  0  0  0
  5  1  1  6  0  0  0
  5  7  1  0  0  0  0
  5  8  1  0  0  0  0
  6  8  1  0  0  0  0
  8  2  1  0  0  0  0
  9 24  1  6  0  0  0
  9 10  1  0  0  0  0
  9  1  1  0  0  0  0
 10  4  1  0  0  0  0
 11  7  1  6  0  0  0
 11  2  1  0  0  0  0
 11 27  1  0  0  0  0
 12  6  1  0  0  0  0
 12  8  1  0  0  0  0
 13 18  1  0  0  0  0
 14 16  2  0  0  0  0
 15 13  2  0  0  0  0
 15 14  1  0  0  0  0
 16 19  1  0  0  0  0
 18 19  1  0  0  0  0
 19 17  2  0  0  0  0
 20 25  1  0  0  0  0
 21 24  2  0  0  0  0
 22 23  1  0  0  0  0
 22 20  1  0  0  0  0
 23 25  1  0  0  0  0
 25 24  1  0  0  0  0
 27 31  1  6  0  0  0
 27 30  1  0  0  0  0
 28 31  1  0  0  0  0
 28 29  1  0  0  0  0
 29 26  1  0  0  0  0
 30 26  1  0  0  0  0
M  END
>  <MODEL>
4

>  <REMARK>
 VINA RESULT:      -5.2      9.366     12.080
  Name = 
  3 active torsions:
  status: ('A' for Active; 'I' for Inactive)
    1  A    between atoms: C_4  and  C_5
    2  A    between atoms: C_12  and  C_27
    3  A    between atoms: C_19  and  C_22
                            x       y       z     vdW  Elec       q    Type
                         _______ _______ _______ _____ _____    ______ ____

>  <TORSDO>
F 3

$$$$
=
 OpenBabel10262419393D

 31 36  0  0  1  0  0  0  0  0999 V2000
  183.9020  177.8470  141.2980 O   0  0  0  0  0  0  0  0  0  0  0  0
  181.9050  178.3450  138.1840 C   0  0  1  0  0  3  0  0  0  0  0  0
  180.8290  178.2290  142.3820 C   0  0  0  0  0  1  0  0  0  0  0  0
  181.8000  178.9760  141.4770 C   0  0  2  0  0  3  0  0  0  0  0  0
  182.6880  178.0740  140.6140 C   0  0  2  0  0  0  0  0  0  0  0  0
  183.7740  179.9750  139.0930 C   0  0  0  0  0  2  0  0  0  0  0  0
  181.9090  176.4710  140.2050 S   0  0  0  0  0  0  0  0  0  0  0  0
  182.9130  178.7330  139.2500 C   0  0  0  0  0  0  0  0  0  0  0  0
  184.0560  178.8850  142.2410 C   0  0  1  0  0  3  0  0  0  0  0  0
  182.7820  179.6930  142.3480 C   0  0  0  0  0  2  0  0  0  0  0  0
  181.0770  177.1840  138.7410 C   0  0  2  0  0  3  0  0  0  0  0  0
  184.3270  178.6120  138.7100 C   0  0  0  0  0  2  0  0  0  0  0  0
  181.0320  179.4960  137.7780 C   0  0  0  0  0  0  0  0  0  0  0  0
  179.3080  181.1250  138.2340 C   0  0  0  0  0  3  0  0  0  0  0  0
  180.0880  180.0470  138.6560 C   0  0  0  0  0  3  0  0  0  0  0  0
  179.4670  181.6360  136.9830 N   0  0  0  0  0  0  0  0  0  0  0  0
  180.5050  181.6190  134.9670 O   0  0  0  0  0  0  0  0  0  0  0  0
  181.1800  180.0420  136.5010 C   0  0  0  0  0  2  0  0  0  0  0  0
  180.3810  181.1210  136.1160 C   0  0  0  0  0  0  0  0  0  0  0  0
  187.0500  177.7450  143.1060 C   0  0  0  0  0  2  0  0  0  0  0  0
  183.5790  178.2520  144.4820 O   0  0  0  0  0  0  0  0  0  0  0  0
  187.7100  177.1390  144.2560 C   0  0  0  0  0  2  0  0  0  0  0  0
  186.4600  177.2880  144.9370 N   0  0  0  0  0  2  0  0  0  0  0  0
  184.4490  178.3390  143.5780 C   0  0  0  0  0  0  0  0  0  0  0  0
  185.7780  177.8780  143.8340 N   0  0  0  0  0  0  0  0  0  0  0  0
  181.0320  173.7190  137.4350 O   0  0  0  0  0  0  0  0  0  0  0  0
  180.7780  176.1030  137.7010 C   0  0  1  0  0  3  0  0  0  0  0  0
  178.9460  174.4830  138.4560 C   0  0  0  0  0  2  0  0  0  0  0  0
  180.0530  173.4150  138.3980 C   0  0  0  0  0  2  0  0  0  0  0  0
  181.6770  174.8770  137.9000 C   0  0  0  0  0  2  0  0  0  0  0  0
  179.2880  175.7260  137.6240 C   0  0  0  0  0  2  0  0  0  0  0  0
  1  9  1  0  0  0  0
  2 13  1  1  0  0  0
  2 11  1  0  0  0  0
  2  8  1  0  0  0  0
  4 10  1  0  0  0  0
  4  3  1  1  0  0  0
  5  7  1  6  0  0  0
  5  1  1  0  0  0  0
  5  4  1  0  0  0  0
  6  8  1  0  0  0  0
  8  5  1  0  0  0  0
  9 10  1  0  0  0  0
  9 24  1  1  0  0  0
 11  7  1  1  0  0  0
 12  6  1  0  0  0  0
 12  8  1  0  0  0  0
 13 15  2  0  0  0  0
 14 15  1  0  0  0  0
 16 14  2  0  0  0  0
 17 19  2  0  0  0  0
 18 13  1  0  0  0  0
 19 18  1  0  0  0  0
 19 16  1  0  0  0  0
 20 25  1  0  0  0  0
 20 22  1  0  0  0  0
 22 23  1  0  0  0  0
 24 25  1  0  0  0  0
 24 21  2  0  0  0  0
 25 23  1  0  0  0  0
 26 30  1  0  0  0  0
 26 29  1  0  0  0  0
 27 31  1  1  0  0  0
 27 30  1  0  0  0  0
 27 11  1  0  0  0  0
 29 28  1  0  0  0  0
 31 28  1  0  0  0  0
M  END
>  <MODEL>
5

>  <REMARK>
 VINA RESULT:      -5.2      2.952      7.067
  Name = 
  3 active torsions:
  status: ('A' for Active; 'I' for Inactive)
    1  A    between atoms: C_4  and  C_5
    2  A    between atoms: C_12  and  C_27
    3  A    between atoms: C_19  and  C_22
                            x       y       z     vdW  Elec       q    Type
                         _______ _______ _______ _____ _____    ______ ____

>  <TORSDO>
F 3

$$$$
=
 OpenBabel10262419393D

 31 36  0  0  1  0  0  0  0  0999 V2000
  189.8760  178.1170  142.1960 O   0  0  0  0  0  0  0  0  0  0  0  0
  189.9300  177.7850  145.9130 C   0  0  1  0  0  3  0  0  0  0  0  0
  190.0100  174.8780  142.6990 C   0  0  0  0  0  1  0  0  0  0  0  0
  190.7870  176.1130  143.1350 C   0  0  2  0  0  3  0  0  0  0  0  0
  189.9230  177.3530  143.3830 C   0  0  2  0  0  0  0  0  0  0  0  0
  191.8110  178.9100  144.4400 C   0  0  0  0  0  2  0  0  0  0  0  0
  188.2210  176.9530  143.9180 S   0  0  0  0  0  0  0  0  0  0  0  0
  190.5000  178.1520  144.5560 C   0  0  0  0  0  0  0  0  0  0  0  0
  190.9910  177.7500  141.4130 C   0  0  1  0  0  3  0  0  0  0  0  0
  191.6660  176.5290  141.9970 C   0  0  0  0  0  2  0  0  0  0  0  0
  188.7320  176.8630  145.6710 C   0  0  2  0  0  3  0  0  0  0  0  0
  190.4900  179.6580  144.3670 C   0  0  0  0  0  2  0  0  0  0  0  0
  190.9500  177.1370  146.8040 C   0  0  0  0  0  0  0  0  0  0  0  0
  192.4300  175.3140  147.3720 C   0  0  0  0  0  3  0  0  0  0  0  0
  191.4750  175.8680  146.5180 C   0  0  0  0  0  3  0  0  0  0  0  0
  192.8480  176.0030  148.4680 N   0  0  0  0  0  0  0  0  0  0  0  0
  192.7670  177.8490  149.7830 O   0  0  0  0  0  0  0  0  0  0  0  0
  191.3990  177.8260  147.9330 C   0  0  0  0  0  2  0  0  0  0  0  0
  192.3570  177.2380  148.7620 C   0  0  0  0  0  0  0  0  0  0  0  0
  187.9880  178.2530  140.0940 C   0  0  0  0  0  2  0  0  0  0  0  0
  191.4340  177.0220  139.1940 O   0  0  0  0  0  0  0  0  0  0  0  0
  187.2990  178.0790  138.8220 C   0  0  0  0  0  2  0  0  0  0  0  0
  188.5510  177.6110  138.3100 N   0  0  0  0  0  2  0  0  0  0  0  0
  190.5900  177.5030  139.9930 C   0  0  0  0  0  0  0  0  0  0  0  0
  189.2590  177.7620  139.5380 N   0  0  0  0  0  0  0  0  0  0  0  0
  186.5370  179.0310  147.7200 O   0  0  0  0  0  0  0  0  0  0  0  0
  187.5530  177.1500  146.6010 C   0  0  1  0  0  3  0  0  0  0  0  0
  185.7140  178.5270  145.4730 C   0  0  0  0  0  2  0  0  0  0  0  0
  186.0560  179.5980  146.5260 C   0  0  0  0  0  2  0  0  0  0  0  0
  187.7720  178.4450  147.3920 C   0  0  0  0  0  2  0  0  0  0  0  0
  186.1910  177.1280  145.8850 C   0  0  0  0  0  2  0  0  0  0  0  0
  2 13  1  1  0  0  0
  4  3  1  6  0  0  0
  4  5  1  0  0  0  0
  5  1  1  6  0  0  0
  5  7  1  0  0  0  0
  5  8  1  0  0  0  0
  6  8  1  0  0  0  0
  8  2  1  0  0  0  0
  9 24  1  6  0  0  0
  9 10  1  0  0  0  0
  9  1  1  0  0  0  0
 10  4  1  0  0  0  0
 11  7  1  6  0  0  0
 11  2  1  0  0  0  0
 11 27  1  0  0  0  0
 12  6  1  0  0  0  0
 12  8  1  0  0  0  0
 13 18  1  0  0  0  0
 14 16  2  0  0  0  0
 15 13  2  0  0  0  0
 15 14  1  0  0  0  0
 16 19  1  0  0  0  0
 18 19  1  0  0  0  0
 19 17  2  0  0  0  0
 21 24  2  0  0  0  0
 22 20  1  0  0  0  0
 23 22  1  0  0  0  0
 23 25  1  0  0  0  0
 25 24  1  0  0  0  0
 25 20  1  0  0  0  0
 27 31  1  6  0  0  0
 27 30  1  0  0  0  0
 28 31  1  0  0  0  0
 28 29  1  0  0  0  0
 29 26  1  0  0  0  0
 30 26  1  0  0  0  0
M  END
>  <MODEL>
6

>  <REMARK>
 VINA RESULT:      -5.2      7.925     11.739
  Name = 
  3 active torsions:
  status: ('A' for Active; 'I' for Inactive)
    1  A    between atoms: C_4  and  C_5
    2  A    between atoms: C_12  and  C_27
    3  A    between atoms: C_19  and  C_22
                            x       y       z     vdW  Elec       q    Type
                         _______ _______ _______ _____ _____    ______ ____

>  <TORSDO>
F 3

$$$$
=
 OpenBabel10262419393D

 31 36  0  0  1  0  0  0  0  0999 V2000
  188.9660  177.1700  144.5030 O   0  0  0  0  0  0  0  0  0  0  0  0
  189.8580  176.9970  140.8830 C   0  0  1  0  0  3  0  0  0  0  0  0
  190.8300  179.8260  144.0200 C   0  0  0  0  0  1  0  0  0  0  0  0
  190.9280  178.3270  143.7700 C   0  0  2  0  0  3  0  0  0  0  0  0
  189.6120  177.6640  143.3490 C   0  0  2  0  0  0  0  0  0  0  0  0
  190.5920  175.2620  142.7340 C   0  0  0  0  0  2  0  0  0  0  0  0
  188.4870  178.7950  142.4570 S   0  0  0  0  0  0  0  0  0  0  0  0
  189.9010  176.5550  142.3340 C   0  0  0  0  0  0  0  0  0  0  0  0
  189.9470  177.0190  145.5050 C   0  0  1  0  0  3  0  0  0  0  0  0
  191.2460  177.6630  145.0730 C   0  0  0  0  0  2  0  0  0  0  0  0
  189.2810  178.4140  140.8550 C   0  0  2  0  0  3  0  0  0  0  0  0
  189.0870  175.2890  142.5250 C   0  0  0  0  0  2  0  0  0  0  0  0
  191.2080  176.9410  140.2290 C   0  0  0  0  0  0  0  0  0  0  0  0
  193.5690  177.4470  140.1730 C   0  0  0  0  0  3  0  0  0  0  0  0
  192.3330  177.5380  140.8150 C   0  0  0  0  0  2  0  0  0  0  0  0
  193.6780  176.7830  138.9900 N   0  0  0  0  0  0  0  0  0  0  0  0
  192.7360  175.5820  137.3130 O   0  0  0  0  0  0  0  0  0  0  0  0
  191.3470  176.2600  139.0170 C   0  0  0  0  0  3  0  0  0  0  0  0
  192.6000  176.1920  138.4060 C   0  0  0  0  0  0  0  0  0  0  0  0
  186.8790  178.0690  146.2060 C   0  0  0  0  0  2  0  0  0  0  0  0
  190.3060  177.7500  147.7390 O   0  0  0  0  0  0  0  0  0  0  0  0
  186.1490  178.6910  147.3040 C   0  0  0  0  0  2  0  0  0  0  0  0
  187.3740  178.6160  148.0410 N   0  0  0  0  0  2  0  0  0  0  0  0
  189.4780  177.5960  146.8040 C   0  0  0  0  0  0  0  0  0  0  0  0
  188.1240  178.0130  146.9890 N   0  0  0  0  0  0  0  0  0  0  0  0
  188.3830  178.9150  137.2980 O   0  0  0  0  0  0  0  0  0  0  0  0
  188.3130  178.6490  139.6940 C   0  0  1  0  0  3  0  0  0  0  0  0
  188.1320  176.6310  138.1310 C   0  0  0  0  0  2  0  0  0  0  0  0
  188.7260  177.5700  137.0660 C   0  0  0  0  0  2  0  0  0  0  0  0
  189.0310  179.2740  138.4910 C   0  0  0  0  0  2  0  0  0  0  0  0
  187.5090  177.3960  139.3060 C   0  0  0  0  0  2  0  0  0  0  0  0
  1  9  1  0  0  0  0
  2 13  1  1  0  0  0
  2  8  1  0  0  0  0
  4  3  1  1  0  0  0
  4 10  1  0  0  0  0
  5  7  1  6  0  0  0
  5  4  1  0  0  0  0
  5  1  1  0  0  0  0
  8 12  1  0  0  0  0
  8  6  1  0  0  0  0
  8  5  1  0  0  0  0
  9 24  1  1  0  0  0
 10  9  1  0  0  0  0
 11  2  1  0  0  0  0
 11  7  1  1  0  0  0
 12  6  1  0  0  0  0
 13 15  1  0  0  0  0
 14 15  1  0  0  0  0
 16 14  2  0  0  0  0
 17 19  2  0  0  0  0
 18 13  2  0  0  0  0
 19 16  1  0  0  0  0
 19 18  1  0  0  0  0
 20 25  1  0  0  0  0
 20 22  1  0  0  0  0
 22 23  1  0  0  0  0
 24 25  1  0  0  0  0
 24 21  2  0  0  0  0
 25 23  1  0  0  0  0
 26 30  1  0  0  0  0
 27 30  1  6  0  0  0
 27 11  1  0  0  0  0
 28 31  1  0  0  0  0
 29 26  1  0  0  0  0
 29 28  1  0  0  0  0
 31 27  1  0  0  0  0
M  END
>  <MODEL>
7

>  <REMARK>
 VINA RESULT:      -5.2      8.212     11.445
  Name = 
  3 active torsions:
  status: ('A' for Active; 'I' for Inactive)
    1  A    between atoms: C_4  and  C_5
    2  A    between atoms: C_12  and  C_27
    3  A    between atoms: C_19  and  C_22
                            x       y       z     vdW  Elec       q    Type
                         _______ _______ _______ _____ _____    ______ ____

>  <TORSDO>
F 3

$$$$
=
 OpenBabel10262419393D

 31 36  0  0  1  0  0  0  0  0999 V2000
  189.0980  178.5150  142.2840 O   0  0  0  0  0  0  0  0  0  0  0  0
  189.9110  177.7570  145.8480 C   0  0  1  0  0  3  0  0  0  0  0  0
  188.7820  175.2560  142.4920 C   0  0  0  0  0  1  0  0  0  0  0  0
  189.8360  176.3040  142.8250 C   0  0  2  0  0  3  0  0  0  0  0  0
  189.2730  177.6230  143.3650 C   0  0  2  0  0  0  0  0  0  0  0  0
  191.5860  178.7500  144.0630 C   0  0  0  0  0  2  0  0  0  0  0  0
  187.6890  177.4230  144.2540 S   0  0  0  0  0  0  0  0  0  0  0  0
  190.2230  178.1870  144.4260 C   0  0  0  0  0  0  0  0  0  0  0  0
  189.9330  178.0790  141.2350 C   0  0  1  0  0  3  0  0  0  0  0  0
  190.5010  176.7110  141.5480 C   0  0  0  0  0  2  0  0  0  0  0  0
  188.5500  177.0580  145.8250 C   0  0  2  0  0  3  0  0  0  0  0  0
  190.4290  179.6900  144.3610 C   0  0  0  0  0  2  0  0  0  0  0  0
  190.9760  176.8670  146.4210 C   0  0  0  0  0  0  0  0  0  0  0  0
  192.4260  176.1700  148.2210 C   0  0  0  0  0  3  0  0  0  0  0  0
  191.4430  177.0320  147.7320 C   0  0  0  0  0  3  0  0  0  0  0  0
  192.9210  175.1780  147.4320 N   0  0  0  0  0  0  0  0  0  0  0  0
  192.9540  174.0670  145.4550 O   0  0  0  0  0  0  0  0  0  0  0  0
  191.4950  175.8380  145.6320 C   0  0  0  0  0  2  0  0  0  0  0  0
  192.4780  174.9960  146.1580 C   0  0  0  0  0  0  0  0  0  0  0  0
  191.0140  176.8040  138.3690 C   0  0  0  0  0  2  0  0  0  0  0  0
  188.0590  178.5980  139.8690 O   0  0  0  0  0  0  0  0  0  0  0  0
  190.5750  176.6710  136.9860 C   0  0  0  0  0  2  0  0  0  0  0  0
  189.3690  177.3190  137.4010 N   0  0  0  0  0  2  0  0  0  0  0  0
  189.1930  178.0570  139.9350 C   0  0  0  0  0  0  0  0  0  0  0  0
  189.7640  177.4740  138.7620 N   0  0  0  0  0  0  0  0  0  0  0  0
  187.1170  179.3350  148.3700 O   0  0  0  0  0  0  0  0  0  0  0  0
  187.6710  177.4100  147.0260 C   0  0  1  0  0  3  0  0  0  0  0  0
  185.7140  178.9390  146.4080 C   0  0  0  0  0  2  0  0  0  0  0  0
  186.3920  179.9600  147.3400 C   0  0  0  0  0  2  0  0  0  0  0  0
  188.1800  178.6690  147.7370 C   0  0  0  0  0  2  0  0  0  0  0  0
  186.1740  177.5000  146.6820 C   0  0  0  0  0  2  0  0  0  0  0  0
  2 13  1  6  0  0  0
  4  3  1  6  0  0  0
  4  5  1  0  0  0  0
  5  1  1  6  0  0  0
  5  7  1  0  0  0  0
  5  8  1  0  0  0  0
  6 12  1  0  0  0  0
  6  8  1  0  0  0  0
  8  2  1  0  0  0  0
  9 24  1  6  0  0  0
  9 10  1  0  0  0  0
  9  1  1  0  0  0  0
 10  4  1  0  0  0  0
 11  7  1  6  0  0  0
 11  2  1  0  0  0  0
 11 27  1  0  0  0  0
 12  8  1  0  0  0  0
 13 15  2  0  0  0  0
 15 14  1  0  0  0  0
 16 14  2  0  0  0  0
 17 19  2  0  0  0  0
 18 19  1  0  0  0  0
 18 13  1  0  0  0  0
 19 16  1  0  0  0  0
 20 25  1  0  0  0  0
 21 24  2  0  0  0  0
 22 23  1  0  0  0  0
 22 20  1  0  0  0  0
 23 25  1  0  0  0  0
 25 24  1  0  0  0  0
 27 31  1  6  0  0  0
 27 30  1  0  0  0  0
 28 31  1  0  0  0  0
 28 29  1  0  0  0  0
 29 26  1  0  0  0  0
 30 26  1  0  0  0  0
M  END
>  <MODEL>
8

>  <REMARK>
 VINA RESULT:      -5.1      8.801     11.376
  Name = 
  3 active torsions:
  status: ('A' for Active; 'I' for Inactive)
    1  A    between atoms: C_4  and  C_5
    2  A    between atoms: C_12  and  C_27
    3  A    between atoms: C_19  and  C_22
                            x       y       z     vdW  Elec       q    Type
                         _______ _______ _______ _____ _____    ______ ____

>  <TORSDO>
F 3

$$$$
=
 OpenBabel10262419393D

 31 36  0  0  1  0  0  0  0  0999 V2000
  182.7420  178.5870  141.2340 O   0  0  0  0  0  0  0  0  0  0  0  0
  182.2700  178.2220  137.5490 C   0  0  1  0  0  3  0  0  0  0  0  0
  179.9400  176.9030  140.9590 C   0  0  0  0  0  1  0  0  0  0  0  0
  180.5280  178.1990  140.4150 C   0  0  2  0  0  3  0  0  0  0  0  0
  182.0260  178.1370  140.1030 C   0  0  2  0  0  0  0  0  0  0  0  0
  182.2460  180.4990  138.8870 C   0  0  0  0  0  2  0  0  0  0  0  0
  182.6000  176.4630  139.6440 S   0  0  0  0  0  0  0  0  0  0  0  0
  182.3250  178.9820  138.8610 C   0  0  0  0  0  0  0  0  0  0  0  0
  181.8610  179.3680  142.0100 C   0  0  1  0  0  3  0  0  0  0  0  0
  180.4440  179.2310  141.4960 C   0  0  0  0  0  2  0  0  0  0  0  0
  182.1670  176.7330  137.8890 C   0  0  2  0  0  3  0  0  0  0  0  0
  183.5970  179.8060  138.9430 C   0  0  0  0  0  2  0  0  0  0  0  0
  181.1300  178.6670  136.6790 C   0  0  0  0  0  0  0  0  0  0  0  0
  178.9310  178.3600  135.7310 C   0  0  0  0  0  3  0  0  0  0  0  0
  179.9670  177.8970  136.5430 C   0  0  0  0  0  3  0  0  0  0  0  0
  179.0500  179.5510  135.0820 N   0  0  0  0  0  0  0  0  0  0  0  0
  180.2460  181.4150  134.5930 O   0  0  0  0  0  0  0  0  0  0  0  0
  181.2270  179.8880  136.0080 C   0  0  0  0  0  2  0  0  0  0  0  0
  180.1680  180.3170  135.2050 C   0  0  0  0  0  0  0  0  0  0  0  0
  184.5320  179.5680  143.9660 C   0  0  0  0  0  2  0  0  0  0  0  0
  180.9190  178.5000  144.0130 O   0  0  0  0  0  0  0  0  0  0  0  0
  184.9250  179.2500  145.3340 C   0  0  0  0  0  2  0  0  0  0  0  0
  183.5710  178.8280  145.5280 N   0  0  0  0  0  2  0  0  0  0  0  0
  181.9370  178.9850  143.4550 C   0  0  0  0  0  0  0  0  0  0  0  0
  183.1500  179.1190  144.1990 N   0  0  0  0  0  0  0  0  0  0  0  0
  183.9670  173.6310  136.9690 O   0  0  0  0  0  0  0  0  0  0  0  0
  183.0110  175.8450  136.9730 C   0  0  1  0  0  3  0  0  0  0  0  0
  181.7070  173.8410  136.0600 C   0  0  0  0  0  2  0  0  0  0  0  0
  182.7190  172.9930  136.8520 C   0  0  0  0  0  2  0  0  0  0  0  0
  183.7430  174.7610  137.7730 C   0  0  0  0  0  2  0  0  0  0  0  0
  182.2200  175.2620  135.7890 C   0  0  0  0  0  2  0  0  0  0  0  0
  1  9  1  0  0  0  0
  2 13  1  1  0  0  0
  2 11  1  0  0  0  0
  2  8  1  0  0  0  0
  4  3  1  1  0  0  0
  4 10  1  0  0  0  0
  5  7  1  6  0  0  0
  5  4  1  0  0  0  0
  5  1  1  0  0  0  0
  6 12  1  0  0  0  0
  8  6  1  0  0  0  0
  8 12  1  0  0  0  0
  8  5  1  0  0  0  0
  9 24  1  1  0  0  0
 10  9  1  0  0  0  0
 11  7  1  1  0  0  0
 14 15  1  0  0  0  0
 15 13  2  0  0  0  0
 16 19  1  0  0  0  0
 16 14  2  0  0  0  0
 17 19  2  0  0  0  0
 18 13  1  0  0  0  0
 19 18  1  0  0  0  0
 20 25  1  0  0  0  0
 20 22  1  0  0  0  0
 22 23  1  0  0  0  0
 24 21  2  0  0  0  0
 24 25  1  0  0  0  0
 25 23  1  0  0  0  0
 26 30  1  0  0  0  0
 27 31  1  6  0  0  0
 27 30  1  0  0  0  0
 27 11  1  0  0  0  0
 28 29  1  0  0  0  0
 29 26  1  0  0  0  0
 31 28  1  0  0  0  0
M  END
>  <MODEL>
9

>  <REMARK>
 VINA RESULT:      -5.0      3.245      6.409
  Name = 
  3 active torsions:
  status: ('A' for Active; 'I' for Inactive)
    1  A    between atoms: C_4  and  C_5
    2  A    between atoms: C_12  and  C_27
    3  A    between atoms: C_19  and  C_22
                            x       y       z     vdW  Elec       q    Type
                         _______ _______ _______ _____ _____    ______ ____

>  <TORSDO>
F 3

$$$$
