=
 OpenBabel10252415073D

 34 39  0  0  1  0  0  0  0  0999 V2000
  187.8120  177.6890  139.1700 C   0  0  0  0  0  0  0  0  0  0  0  0
  188.4050  177.6860  141.6100 N   0  0  0  0  0  0  0  0  0  0  0  0
  183.2900  178.7370  139.1190 C   0  0  0  0  0  0  0  0  0  0  0  0
  182.7510  177.7600  140.0090 N   0  0  0  0  0  2  0  0  0  0  0  0
  190.0670  177.6150  139.9470 O   0  0  0  0  0  0  0  0  0  0  0  0
  185.0410  179.3430  140.9180 C   0  0  1  0  0  3  0  0  0  0  0  0
  183.4800  177.3770  141.2060 C   0  0  0  0  0  2  0  0  0  0  0  0
  186.6910  178.3350  139.5170 C   0  0  0  0  0  0  0  0  0  0  0  0
  184.6060  179.3990  139.4140 C   0  0  1  0  0  3  0  0  0  0  0  0
  187.1640  178.3560  141.8820 C   0  0  0  0  0  3  0  0  0  0  0  0
  184.0550  178.6280  141.8560 C   0  0  0  0  0  2  0  0  0  0  0  0
  186.3580  178.6500  140.8710 C   0  0  0  0  0  0  0  0  0  0  0  0
  182.6620  179.0410  138.0730 O   0  0  0  0  0  0  0  0  0  0  0  0
  188.7650  177.2140  140.2570 C   0  0  0  0  0  0  0  0  0  0  0  0
  185.6640  178.7520  138.6360 N   0  0  0  0  0  2  0  0  0  0  0  0
  188.6580  178.2250  136.8470 C   0  0  0  0  0  0  0  0  0  0  0  0
  187.7810  176.0150  137.3420 C   0  0  0  0  0  3  0  0  0  0  0  0
  188.5810  176.5270  135.1170 C   0  0  0  0  0  3  0  0  0  0  0  0
  187.7290  174.3620  135.6270 F   0  0  0  0  0  0  0  0  0  0  0  0
  188.0810  177.3190  137.7630 C   0  0  0  0  0  0  0  0  0  0  0  0
  188.9010  177.8220  135.5290 C   0  0  0  0  0  3  0  0  0  0  0  0
  189.0400  179.5360  137.2500 N   0  0  0  0  0  1  0  0  0  0  0  0
  188.0260  175.6220  136.0240 C   0  0  0  0  0  0  0  0  0  0  0  0
  189.2400  177.2880  142.7340 C   0  0  0  0  0  2  0  0  0  0  0  0
  190.9110  178.5220  144.2890 C   0  0  1  0  0  3  0  0  0  0  0  0
  191.6120  177.4450  143.4770 C   0  0  0  0  0  2  0  0  0  0  0  0
  190.4610  178.2040  142.8520 C   0  0  1  0  0  3  0  0  0  0  0  0
  191.9250  176.8720  146.3870 F   0  0  0  0  0  0  0  0  0  0  0  0
  190.0330  177.9460  145.3750 C   0  0  0  0  0  0  0  0  0  0  0  0
  190.5930  177.1240  146.3680 C   0  0  0  0  0  0  0  0  0  0  0  0
  188.4020  176.8000  147.3510 C   0  0  0  0  0  3  0  0  0  0  0  0
  187.8360  177.6030  146.3600 C   0  0  0  0  0  3  0  0  0  0  0  0
  188.6470  178.1680  145.3710 C   0  0  0  0  0  3  0  0  0  0  0  0
  189.7780  176.5590  147.3530 C   0  0  0  0  0  3  0  0  0  0  0  0
  1  8  2  0  0  0  0
  1 14  1  0  0  0  0
  2 10  1  0  0  0  0
  2 24  1  0  0  0  0
  3  9  1  0  0  0  0
  3  4  1  0  0  0  0
  4  7  1  0  0  0  0
  5 14  2  0  0  0  0
  6 11  1  1  0  0  0
  7 11  1  0  0  0  0
  8 12  1  0  0  0  0
  9 15  1  6  0  0  0
  9  6  1  0  0  0  0
 12  6  1  0  0  0  0
 12 10  2  0  0  0  0
 13  3  2  0  0  0  0
 14  2  1  0  0  0  0
 15  8  1  0  0  0  0
 16 22  1  0  0  0  0
 16 20  1  0  0  0  0
 17 20  2  0  0  0  0
 18 21  1  0  0  0  0
 18 23  2  0  0  0  0
 19 23  1  0  0  0  0
 20  1  1  0  0  0  0
 21 16  2  0  0  0  0
 23 17  1  0  0  0  0
 25 29  1  1  0  0  0
 26 25  1  0  0  0  0
 27 24  1  1  0  0  0
 27 26  1  0  0  0  0
 27 25  1  0  0  0  0
 29 30  1  0  0  0  0
 30 28  1  0  0  0  0
 30 34  2  0  0  0  0
 31 34  1  0  0  0  0
 32 31  2  0  0  0  0
 33 29  2  0  0  0  0
 33 32  1  0  0  0  0
M  END
>  <MODEL>
1

>  <REMARK>
 VINA RESULT:      -9.2      0.000      0.000
  Name = 
  4 active torsions:
  status: ('A' for Active; 'I' for Inactive)
    1  A    between atoms: C_3  and  C_13
    2  A    between atoms: C_4  and  C_15
    3  A    between atoms: N_5  and  C_18
    4  A    between atoms: C_18  and  C_29
                            x       y       z     vdW  Elec       q    Type
                         _______ _______ _______ _____ _____    ______ ____

>  <TORSDO>
F 4

$$$$
=
 OpenBabel10252415073D

 34 39  0  0  1  0  0  0  0  0999 V2000
  187.0510  177.9440  138.9540 C   0  0  0  0  0  0  0  0  0  0  0  0
  186.7720  178.5650  141.3710 N   0  0  0  0  0  0  0  0  0  0  0  0
  182.6970  177.4600  137.4140 C   0  0  0  0  0  0  0  0  0  0  0  0
  182.1530  176.5360  138.3560 N   0  0  0  0  0  2  0  0  0  0  0  0
  188.8580  178.7360  140.2960 O   0  0  0  0  0  0  0  0  0  0  0  0
  183.5350  178.9040  139.3850 C   0  0  1  0  0  3  0  0  0  0  0  0
  182.5100  176.6260  139.7620 C   0  0  0  0  0  2  0  0  0  0  0  0
  185.7550  178.2470  138.8010 C   0  0  0  0  0  0  0  0  0  0  0  0
  183.6300  178.5500  137.8620 C   0  0  1  0  0  3  0  0  0  0  0  0
  185.3870  178.8380  141.1110 C   0  0  0  0  0  3  0  0  0  0  0  0
  182.5020  178.0890  140.1810 C   0  0  0  0  0  2  0  0  0  0  0  0
  184.9190  178.6730  139.8800 C   0  0  0  0  0  0  0  0  0  0  0  0
  182.4020  177.3560  136.1970 O   0  0  0  0  0  0  0  0  0  0  0  0
  187.6700  178.0010  140.3420 C   0  0  0  0  0  0  0  0  0  0  0  0
  185.0130  178.1490  137.5990 N   0  0  0  0  0  2  0  0  0  0  0  0
  188.6050  178.2970  136.9890 C   0  0  0  0  0  0  0  0  0  0  0  0
  187.9060  176.0530  137.5990 C   0  0  0  0  0  3  0  0  0  0  0  0
  189.3860  176.3870  135.7150 C   0  0  0  0  0  3  0  0  0  0  0  0
  188.6980  174.1940  136.3360 F   0  0  0  0  0  0  0  0  0  0  0  0
  187.8590  177.4360  137.8230 C   0  0  0  0  0  0  0  0  0  0  0  0
  189.3610  177.7660  135.9390 C   0  0  0  0  0  3  0  0  0  0  0  0
  188.6390  179.7020  137.2230 N   0  0  0  0  0  1  0  0  0  0  0  0
  188.6630  175.5310  136.5460 C   0  0  0  0  0  0  0  0  0  0  0  0
  187.2540  178.6610  142.7420 C   0  0  0  0  0  2  0  0  0  0  0  0
  187.1350  176.9950  144.7270 C   0  0  1  0  0  3  0  0  0  0  0  0
  186.5290  178.3380  145.1020 C   0  0  0  0  0  2  0  0  0  0  0  0
  186.3760  177.8330  143.6830 C   0  0  1  0  0  3  0  0  0  0  0  0
  188.5980  175.5700  142.7310 F   0  0  0  0  0  0  0  0  0  0  0  0
  188.6400  177.0520  144.6180 C   0  0  0  0  0  0  0  0  0  0  0  0
  189.3010  176.3090  143.6240 C   0  0  0  0  0  0  0  0  0  0  0  0
  191.4430  177.0800  144.4560 C   0  0  0  0  0  3  0  0  0  0  0  0
  190.7940  177.8090  145.4560 C   0  0  0  0  0  3  0  0  0  0  0  0
  189.4000  177.7880  145.5410 C   0  0  0  0  0  3  0  0  0  0  0  0
  190.6970  176.3300  143.5440 C   0  0  0  0  0  3  0  0  0  0  0  0
  1 14  1  0  0  0  0
  2 24  1  0  0  0  0
  3  4  1  0  0  0  0
  4  7  1  0  0  0  0
  5 14  2  0  0  0  0
  6 12  1  0  0  0  0
  6 11  1  1  0  0  0
  7 11  1  0  0  0  0
  8  1  2  0  0  0  0
  8 12  1  0  0  0  0
  9  3  1  1  0  0  0
  9  6  1  0  0  0  0
 10  2  1  0  0  0  0
 12 10  2  0  0  0  0
 13  3  2  0  0  0  0
 14  2  1  0  0  0  0
 15  9  1  0  0  0  0
 15  8  1  0  0  0  0
 16 22  1  0  0  0  0
 16 20  1  0  0  0  0
 17 20  2  0  0  0  0
 18 21  1  0  0  0  0
 18 23  2  0  0  0  0
 19 23  1  0  0  0  0
 20  1  1  0  0  0  0
 21 16  2  0  0  0  0
 23 17  1  0  0  0  0
 25 29  1  6  0  0  0
 25 26  1  0  0  0  0
 27 24  1  6  0  0  0
 27 25  1  0  0  0  0
 27 26  1  0  0  0  0
 28 30  1  0  0  0  0
 29 33  1  0  0  0  0
 30 29  2  0  0  0  0
 31 32  1  0  0  0  0
 32 33  2  0  0  0  0
 34 30  1  0  0  0  0
 34 31  2  0  0  0  0
M  END
>  <MODEL>
2

>  <REMARK>
 VINA RESULT:      -9.2      1.597      2.480
  Name = 
  4 active torsions:
  status: ('A' for Active; 'I' for Inactive)
    1  A    between atoms: C_3  and  C_13
    2  A    between atoms: C_4  and  C_15
    3  A    between atoms: N_5  and  C_18
    4  A    between atoms: C_18  and  C_29
                            x       y       z     vdW  Elec       q    Type
                         _______ _______ _______ _____ _____    ______ ____

>  <TORSDO>
F 4

$$$$
=
 OpenBabel10252415073D

 34 39  0  0  1  0  0  0  0  0999 V2000
  184.9110  178.6260  139.8520 C   0  0  0  0  0  0  0  0  0  0  0  0
  186.5760  178.5460  141.7300 N   0  0  0  0  0  0  0  0  0  0  0  0
  187.5020  178.0900  136.0370 C   0  0  0  0  0  0  0  0  0  0  0  0
  188.4820  179.1160  136.2000 N   0  0  0  0  0  2  0  0  0  0  0  0
  184.2620  178.4420  142.1400 O   0  0  0  0  0  0  0  0  0  0  0  0
  188.0180  177.2810  138.4350 C   0  0  1  0  0  3  0  0  0  0  0  0
  189.0270  179.4060  137.5150 C   0  0  0  0  0  2  0  0  0  0  0  0
  185.8710  178.1070  139.0740 C   0  0  0  0  0  0  0  0  0  0  0  0
  187.0340  177.2840  137.2150 C   0  0  1  0  0  3  0  0  0  0  0  0
  187.5440  178.0170  140.8100 C   0  0  0  0  0  3  0  0  0  0  0  0
  189.3070  178.0960  138.2350 C   0  0  0  0  0  2  0  0  0  0  0  0
  187.1900  177.8230  139.5470 C   0  0  0  0  0  0  0  0  0  0  0  0
  187.0190  177.8660  134.8980 O   0  0  0  0  0  0  0  0  0  0  0  0
  185.2340  178.9840  141.2950 C   0  0  0  0  0  0  0  0  0  0  0  0
  185.7570  177.8140  137.6950 N   0  0  0  0  0  2  0  0  0  0  0  0
  182.5590  178.0120  139.1510 C   0  0  0  0  0  0  0  0  0  0  0  0
  183.3270  180.3070  138.9510 C   0  0  0  0  0  3  0  0  0  0  0  0
  181.0800  179.7220  138.2730 C   0  0  0  0  0  3  0  0  0  0  0  0
  181.8490  181.9690  138.0960 F   0  0  0  0  0  0  0  0  0  0  0  0
  183.5820  178.9730  139.3020 C   0  0  0  0  0  0  0  0  0  0  0  0
  181.3160  178.3940  138.6350 C   0  0  0  0  0  3  0  0  0  0  0  0
  182.7530  176.6610  139.5580 N   0  0  0  0  0  1  0  0  0  0  0  0
  182.0840  180.6790  138.4350 C   0  0  0  0  0  0  0  0  0  0  0  0
  187.0000  178.8410  143.0910 C   0  0  0  0  0  2  0  0  0  0  0  0
  187.4780  176.9520  144.8040 C   0  0  1  0  0  3  0  0  0  0  0  0
  186.8510  178.1610  145.4820 C   0  0  0  0  0  2  0  0  0  0  0  0
  186.4320  177.8100  144.0700 C   0  0  1  0  0  3  0  0  0  0  0  0
  188.8110  175.3900  142.8200 F   0  0  0  0  0  0  0  0  0  0  0  0
  188.9100  177.2000  144.3930 C   0  0  0  0  0  0  0  0  0  0  0  0
  189.5140  176.3800  143.4240 C   0  0  0  0  0  0  0  0  0  0  0  0
  191.5960  177.5940  143.6790 C   0  0  0  0  0  3  0  0  0  0  0  0
  191.0070  178.4030  144.6530 C   0  0  0  0  0  3  0  0  0  0  0  0
  189.6720  178.2020  145.0140 C   0  0  0  0  0  3  0  0  0  0  0  0
  190.8500  176.5830  143.0670 C   0  0  0  0  0  3  0  0  0  0  0  0
  1 14  1  0  0  0  0
  2 24  1  0  0  0  0
  3  4  1  0  0  0  0
  4  7  1  0  0  0  0
  6 11  1  6  0  0  0
  6 12  1  0  0  0  0
  7 11  1  0  0  0  0
  8 12  1  0  0  0  0
  8  1  2  0  0  0  0
  9  3  1  6  0  0  0
  9 15  1  0  0  0  0
  9  6  1  0  0  0  0
 10  2  1  0  0  0  0
 12 10  2  0  0  0  0
 13  3  2  0  0  0  0
 14  2  1  0  0  0  0
 14  5  2  0  0  0  0
 15  8  1  0  0  0  0
 16 20  1  0  0  0  0
 16 22  1  0  0  0  0
 17 20  2  0  0  0  0
 18 23  2  0  0  0  0
 18 21  1  0  0  0  0
 19 23  1  0  0  0  0
 20  1  1  0  0  0  0
 21 16  2  0  0  0  0
 23 17  1  0  0  0  0
 25 29  1  6  0  0  0
 25 26  1  0  0  0  0
 27 24  1  6  0  0  0
 27 25  1  0  0  0  0
 27 26  1  0  0  0  0
 28 30  1  0  0  0  0
 29 33  1  0  0  0  0
 30 29  2  0  0  0  0
 31 32  1  0  0  0  0
 32 33  2  0  0  0  0
 34 30  1  0  0  0  0
 34 31  2  0  0  0  0
M  END
>  <MODEL>
3

>  <REMARK>
 VINA RESULT:      -8.6      2.613      5.266
  Name = 
  4 active torsions:
  status: ('A' for Active; 'I' for Inactive)
    1  A    between atoms: C_3  and  C_13
    2  A    between atoms: C_4  and  C_15
    3  A    between atoms: N_5  and  C_18
    4  A    between atoms: C_18  and  C_29
                            x       y       z     vdW  Elec       q    Type
                         _______ _______ _______ _____ _____    ______ ____

>  <TORSDO>
F 4

$$$$
=
 OpenBabel10252415073D

 34 39  0  0  1  0  0  0  0  0999 V2000
  188.1640  178.1830  141.3570 C   0  0  0  0  0  0  0  0  0  0  0  0
  185.9870  178.6280  140.1860 N   0  0  0  0  0  0  0  0  0  0  0  0
  190.7680  176.1040  138.1240 C   0  0  0  0  0  0  0  0  0  0  0  0
  189.9210  175.0340  137.7070 N   0  0  0  0  0  2  0  0  0  0  0  0
  186.4690  179.5860  142.2810 O   0  0  0  0  0  0  0  0  0  0  0  0
  188.7990  177.7380  137.7700 C   0  0  1  0  0  3  0  0  0  0  0  0
  188.4870  175.2380  137.5840 C   0  0  0  0  0  2  0  0  0  0  0  0
  188.6920  177.9750  140.1440 C   0  0  0  0  0  0  0  0  0  0  0  0
  190.1960  177.4610  138.4230 C   0  0  1  0  0  3  0  0  0  0  0  0
  186.6390  178.3600  138.9350 C   0  0  0  0  0  3  0  0  0  0  0  0
  188.2350  176.5850  136.9230 C   0  0  0  0  0  2  0  0  0  0  0  0
  187.9270  178.0430  138.9370 C   0  0  0  0  0  0  0  0  0  0  0  0
  192.0030  175.9080  138.2520 O   0  0  0  0  0  0  0  0  0  0  0  0
  186.6720  178.4560  141.4840 C   0  0  0  0  0  0  0  0  0  0  0  0
  190.0330  177.6160  139.8700 N   0  0  0  0  0  2  0  0  0  0  0  0
  188.7880  176.9540  143.4780 C   0  0  0  0  0  0  0  0  0  0  0  0
  189.9850  178.9680  142.8430 C   0  0  0  0  0  3  0  0  0  0  0  0
  190.5800  177.8000  144.8760 C   0  0  0  0  0  3  0  0  0  0  0  0
  191.7490  179.7700  144.2290 F   0  0  0  0  0  0  0  0  0  0  0  0
  188.9760  178.0290  142.5840 C   0  0  0  0  0  0  0  0  0  0  0  0
  189.5900  176.8490  144.6200 C   0  0  0  0  0  3  0  0  0  0  0  0
  187.8200  175.9410  143.2180 N   0  0  0  0  0  1  0  0  0  0  0  0
  190.7800  178.8560  143.9870 C   0  0  0  0  0  0  0  0  0  0  0  0
  184.5540  178.8860  140.1820 C   0  0  0  0  0  2  0  0  0  0  0  0
  183.0010  179.0670  138.1120 C   0  0  1  0  0  3  0  0  0  0  0  0
  182.7390  180.1980  139.0940 C   0  0  0  0  0  2  0  0  0  0  0  0
  184.1510  179.6750  138.9340 C   0  0  1  0  0  3  0  0  0  0  0  0
  184.2390  176.5820  137.4440 F   0  0  0  0  0  0  0  0  0  0  0  0
  182.4910  177.7370  138.6140 C   0  0  0  0  0  0  0  0  0  0  0  0
  183.1350  176.5480  138.2310 C   0  0  0  0  0  0  0  0  0  0  0  0
  181.5040  175.2530  139.4700 C   0  0  0  0  0  3  0  0  0  0  0  0
  180.8510  176.4290  139.8430 C   0  0  0  0  0  3  0  0  0  0  0  0
  181.3370  177.6650  139.4100 C   0  0  0  0  0  3  0  0  0  0  0  0
  182.6430  175.3130  138.6630 C   0  0  0  0  0  3  0  0  0  0  0  0
  1 14  1  0  0  0  0
  1 20  1  0  0  0  0
  2 14  1  0  0  0  0
  3 13  2  0  0  0  0
  4  3  1  0  0  0  0
  6 11  1  1  0  0  0
  6  9  1  0  0  0  0
  6 12  1  0  0  0  0
  7  4  1  0  0  0  0
  8  1  2  0  0  0  0
  9  3  1  1  0  0  0
  9 15  1  0  0  0  0
 10 12  2  0  0  0  0
 10  2  1  0  0  0  0
 11  7  1  0  0  0  0
 12  8  1  0  0  0  0
 14  5  2  0  0  0  0
 15  8  1  0  0  0  0
 16 21  1  0  0  0  0
 17 23  2  0  0  0  0
 20 17  1  0  0  0  0
 20 16  2  0  0  0  0
 21 18  2  0  0  0  0
 22 16  1  0  0  0  0
 23 19  1  0  0  0  0
 23 18  1  0  0  0  0
 24  2  1  0  0  0  0
 25 29  1  1  0  0  0
 25 27  1  0  0  0  0
 25 26  1  0  0  0  0
 27 26  1  0  0  0  0
 27 24  1  1  0  0  0
 28 30  1  0  0  0  0
 29 33  1  0  0  0  0
 30 29  2  0  0  0  0
 30 34  1  0  0  0  0
 31 32  1  0  0  0  0
 33 32  2  0  0  0  0
 34 31  2  0  0  0  0
M  END
>  <MODEL>
4

>  <REMARK>
 VINA RESULT:      -8.3      2.269      7.845
  Name = 
  4 active torsions:
  status: ('A' for Active; 'I' for Inactive)
    1  A    between atoms: C_3  and  C_13
    2  A    between atoms: C_4  and  C_15
    3  A    between atoms: N_5  and  C_18
    4  A    between atoms: C_18  and  C_29
                            x       y       z     vdW  Elec       q    Type
                         _______ _______ _______ _____ _____    ______ ____

>  <TORSDO>
F 4

$$$$
=
 OpenBabel10252415073D

 34 39  0  0  1  0  0  0  0  0999 V2000
  185.3450  178.4830  139.8030 C   0  0  0  0  0  0  0  0  0  0  0  0
  187.2740  178.3360  141.4040 N   0  0  0  0  0  0  0  0  0  0  0  0
  187.2820  177.7530  135.6470 C   0  0  0  0  0  0  0  0  0  0  0  0
  188.3280  178.7240  135.6350 N   0  0  0  0  0  2  0  0  0  0  0  0
  185.0490  178.3660  142.1670 O   0  0  0  0  0  0  0  0  0  0  0  0
  188.1190  176.9480  137.9540 C   0  0  1  0  0  3  0  0  0  0  0  0
  189.0840  179.0020  136.8440 C   0  0  0  0  0  2  0  0  0  0  0  0
  186.1440  177.9010  138.8980 C   0  0  0  0  0  0  0  0  0  0  0  0
  186.9600  176.9900  136.9000 C   0  0  1  0  0  3  0  0  0  0  0  0
  188.0580  177.7420  140.3580 C   0  0  0  0  0  3  0  0  0  0  0  0
  189.4030  177.6880  137.5410 C   0  0  0  0  0  2  0  0  0  0  0  0
  187.5030  177.5500  139.1680 C   0  0  0  0  0  0  0  0  0  0  0  0
  186.6170  177.5410  134.6010 O   0  0  0  0  0  0  0  0  0  0  0  0
  185.9050  178.8420  141.1710 C   0  0  0  0  0  0  0  0  0  0  0  0
  185.8020  177.5960  137.5590 N   0  0  0  0  0  2  0  0  0  0  0  0
  182.8730  178.0070  139.5460 C   0  0  0  0  0  0  0  0  0  0  0  0
  183.7420  180.2210  139.0590 C   0  0  0  0  0  3  0  0  0  0  0  0
  181.3800  179.7680  138.8050 C   0  0  0  0  0  3  0  0  0  0  0  0
  182.2500  181.9360  138.3440 F   0  0  0  0  0  0  0  0  0  0  0  0
  183.9670  178.8960  139.4560 C   0  0  0  0  0  0  0  0  0  0  0  0
  181.5880  178.4500  139.2160 C   0  0  0  0  0  3  0  0  0  0  0  0
  183.0460  176.6710  140.0100 N   0  0  0  0  0  1  0  0  0  0  0  0
  182.4550  180.6540  138.7300 C   0  0  0  0  0  0  0  0  0  0  0  0
  187.9190  178.6250  142.6770 C   0  0  0  0  0  2  0  0  0  0  0  0
  188.8480  176.9460  144.4220 C   0  0  1  0  0  3  0  0  0  0  0  0
  188.2710  176.2200  143.2180 C   0  0  0  0  0  2  0  0  0  0  0  0
  188.9580  177.5530  143.0120 C   0  0  1  0  0  3  0  0  0  0  0  0
  189.4090  178.1220  146.9630 F   0  0  0  0  0  0  0  0  0  0  0  0
  187.7780  177.5540  145.2970 C   0  0  0  0  0  0  0  0  0  0  0  0
  188.1190  178.0990  146.5480 C   0  0  0  0  0  0  0  0  0  0  0  0
  185.7880  178.6110  146.9710 C   0  0  0  0  0  3  0  0  0  0  0  0
  185.4400  178.0590  145.7370 C   0  0  0  0  0  3  0  0  0  0  0  0
  186.4300  177.5260  144.9070 C   0  0  0  0  0  3  0  0  0  0  0  0
  187.1250  178.6290  147.3760 C   0  0  0  0  0  3  0  0  0  0  0  0
  1 14  1  0  0  0  0
  2 24  1  0  0  0  0
  4  3  1  0  0  0  0
  4  7  1  0  0  0  0
  6 11  1  6  0  0  0
  6 12  1  0  0  0  0
  7 11  1  0  0  0  0
  8 12  1  0  0  0  0
  8  1  2  0  0  0  0
  9  3  1  6  0  0  0
  9 15  1  0  0  0  0
  9  6  1  0  0  0  0
 10  2  1  0  0  0  0
 12 10  2  0  0  0  0
 13  3  2  0  0  0  0
 14  2  1  0  0  0  0
 14  5  2  0  0  0  0
 15  8  1  0  0  0  0
 16 22  1  0  0  0  0
 17 20  2  0  0  0  0
 18 21  1  0  0  0  0
 19 23  1  0  0  0  0
 20 16  1  0  0  0  0
 20  1  1  0  0  0  0
 21 16  2  0  0  0  0
 23 18  2  0  0  0  0
 23 17  1  0  0  0  0
 25 29  1  1  0  0  0
 26 25  1  0  0  0  0
 27 24  1  1  0  0  0
 27 26  1  0  0  0  0
 27 25  1  0  0  0  0
 29 30  1  0  0  0  0
 30 28  1  0  0  0  0
 30 34  2  0  0  0  0
 31 34  1  0  0  0  0
 32 31  2  0  0  0  0
 33 29  2  0  0  0  0
 33 32  1  0  0  0  0
M  END
>  <MODEL>
5

>  <REMARK>
 VINA RESULT:      -8.3      2.588      4.999
  Name = 
  4 active torsions:
  status: ('A' for Active; 'I' for Inactive)
    1  A    between atoms: C_3  and  C_13
    2  A    between atoms: C_4  and  C_15
    3  A    between atoms: N_5  and  C_18
    4  A    between atoms: C_18  and  C_29
                            x       y       z     vdW  Elec       q    Type
                         _______ _______ _______ _____ _____    ______ ____

>  <TORSDO>
F 4

$$$$
=
 OpenBabel10252415073D

 34 39  0  0  1  0  0  0  0  0999 V2000
  187.9920  178.2030  141.3210 C   0  0  0  0  0  0  0  0  0  0  0  0
  185.8250  178.6490  140.1340 N   0  0  0  0  0  0  0  0  0  0  0  0
  190.6050  176.0850  138.1200 C   0  0  0  0  0  0  0  0  0  0  0  0
  189.7550  175.0150  137.7070 N   0  0  0  0  0  2  0  0  0  0  0  0
  186.3000  179.6220  142.2230 O   0  0  0  0  0  0  0  0  0  0  0  0
  188.6460  177.7260  137.7410 C   0  0  1  0  0  3  0  0  0  0  0  0
  188.3230  175.2260  137.5750 C   0  0  0  0  0  2  0  0  0  0  0  0
  188.5260  177.9830  140.1120 C   0  0  0  0  0  0  0  0  0  0  0  0
  190.0380  177.4470  138.4050 C   0  0  1  0  0  3  0  0  0  0  0  0
  186.4830  178.3680  138.8890 C   0  0  0  0  0  3  0  0  0  0  0  0
  188.0810  176.5690  136.9010 C   0  0  0  0  0  2  0  0  0  0  0  0
  187.7690  178.0440  138.9010 C   0  0  0  0  0  0  0  0  0  0  0  0
  191.8380  175.8830  138.2570 O   0  0  0  0  0  0  0  0  0  0  0  0
  186.5020  178.4840  141.4380 C   0  0  0  0  0  0  0  0  0  0  0  0
  189.8670  177.6150  139.8490 N   0  0  0  0  0  2  0  0  0  0  0  0
  188.5790  177.0050  143.4710 C   0  0  0  0  0  0  0  0  0  0  0  0
  189.8290  178.9740  142.7970 C   0  0  0  0  0  3  0  0  0  0  0  0
  190.3880  177.8350  144.8560 C   0  0  0  0  0  3  0  0  0  0  0  0
  191.6090  179.7610  144.1710 F   0  0  0  0  0  0  0  0  0  0  0  0
  188.7970  178.0560  142.5540 C   0  0  0  0  0  0  0  0  0  0  0  0
  189.3740  176.9040  144.6170 C   0  0  0  0  0  3  0  0  0  0  0  0
  187.5860  176.0120  143.2290 N   0  0  0  0  0  1  0  0  0  0  0  0
  190.6180  178.8670  143.9450 C   0  0  0  0  0  0  0  0  0  0  0  0
  184.3930  178.9140  140.1190 C   0  0  0  0  0  2  0  0  0  0  0  0
  182.1290  177.6570  140.2700 C   0  0  1  0  0  3  0  0  0  0  0  0
  183.1650  176.8330  139.5200 C   0  0  0  0  0  2  0  0  0  0  0  0
  183.6150  177.7150  140.6650 C   0  0  1  0  0  3  0  0  0  0  0  0
  180.7930  179.8870  141.4490 F   0  0  0  0  0  0  0  0  0  0  0  0
  181.6370  178.8350  139.4640 C   0  0  0  0  0  0  0  0  0  0  0  0
  180.9680  179.8930  140.1040 C   0  0  0  0  0  0  0  0  0  0  0  0
  180.6410  180.9930  137.9700 C   0  0  0  0  0  3  0  0  0  0  0  0
  181.2920  179.9400  137.3250 C   0  0  0  0  0  3  0  0  0  0  0  0
  181.7810  178.8620  138.0680 C   0  0  0  0  0  3  0  0  0  0  0  0
  180.4780  180.9680  139.3570 C   0  0  0  0  0  3  0  0  0  0  0  0
  1 14  1  0  0  0  0
  1 20  1  0  0  0  0
  2 14  1  0  0  0  0
  3 13  2  0  0  0  0
  4  3  1  0  0  0  0
  6 11  1  1  0  0  0
  6  9  1  0  0  0  0
  6 12  1  0  0  0  0
  7  4  1  0  0  0  0
  8  1  2  0  0  0  0
  9  3  1  1  0  0  0
  9 15  1  0  0  0  0
 10 12  2  0  0  0  0
 10  2  1  0  0  0  0
 11  7  1  0  0  0  0
 12  8  1  0  0  0  0
 14  5  2  0  0  0  0
 15  8  1  0  0  0  0
 16 21  1  0  0  0  0
 17 23  2  0  0  0  0
 20 17  1  0  0  0  0
 20 16  2  0  0  0  0
 21 18  2  0  0  0  0
 22 16  1  0  0  0  0
 23 19  1  0  0  0  0
 23 18  1  0  0  0  0
 24  2  1  0  0  0  0
 25 29  1  6  0  0  0
 25 27  1  0  0  0  0
 26 25  1  0  0  0  0
 26 27  1  0  0  0  0
 27 24  1  6  0  0  0
 29 30  1  0  0  0  0
 30 28  1  0  0  0  0
 31 34  1  0  0  0  0
 32 31  2  0  0  0  0
 32 33  1  0  0  0  0
 33 29  2  0  0  0  0
 34 30  2  0  0  0  0
M  END
>  <MODEL>
6

>  <REMARK>
 VINA RESULT:      -8.2      2.828      8.097
  Name = 
  4 active torsions:
  status: ('A' for Active; 'I' for Inactive)
    1  A    between atoms: C_3  and  C_13
    2  A    between atoms: C_4  and  C_15
    3  A    between atoms: N_5  and  C_18
    4  A    between atoms: C_18  and  C_29
                            x       y       z     vdW  Elec       q    Type
                         _______ _______ _______ _____ _____    ______ ____

>  <TORSDO>
F 4

$$$$
=
 OpenBabel10252415073D

 34 39  0  0  1  0  0  0  0  0999 V2000
  189.5160  176.9650  138.4070 C   0  0  0  0  0  0  0  0  0  0  0  0
  191.9810  176.5000  138.5220 N   0  0  0  0  0  0  0  0  0  0  0  0
  188.2430  177.3530  142.8550 C   0  0  0  0  0  0  0  0  0  0  0  0
  188.7400  176.1360  143.4120 N   0  0  0  0  0  2  0  0  0  0  0  0
  190.9300  177.0360  136.4870 O   0  0  0  0  0  0  0  0  0  0  0  0
  190.5730  177.7810  141.8260 C   0  0  1  0  0  3  0  0  0  0  0  0
  190.0210  175.6020  142.9790 C   0  0  0  0  0  2  0  0  0  0  0  0
  189.6020  177.3530  139.6870 C   0  0  0  0  0  0  0  0  0  0  0  0
  189.0410  178.1100  141.8320 C   0  0  1  0  0  3  0  0  0  0  0  0
  191.9650  176.9110  139.8980 C   0  0  0  0  0  3  0  0  0  0  0  0
  191.0210  176.7430  142.8690 C   0  0  0  0  0  2  0  0  0  0  0  0
  190.8190  177.3070  140.4360 C   0  0  0  0  0  0  0  0  0  0  0  0
  187.1220  177.7910  143.2180 O   0  0  0  0  0  0  0  0  0  0  0  0
  190.7470  176.3970  137.7160 C   0  0  0  0  0  0  0  0  0  0  0  0
  188.5320  177.8080  140.4930 N   0  0  0  0  0  2  0  0  0  0  0  0
  187.6670  178.1330  137.1370 C   0  0  0  0  0  0  0  0  0  0  0  0
  187.5420  175.7420  137.5380 C   0  0  0  0  0  3  0  0  0  0  0  0
  185.7690  176.8580  136.3300 C   0  0  0  0  0  3  0  0  0  0  0  0
  185.6720  174.5110  136.7240 F   0  0  0  0  0  0  0  0  0  0  0  0
  188.2200  176.9600  137.6930 C   0  0  0  0  0  0  0  0  0  0  0  0
  186.4430  178.0740  136.4620 C   0  0  0  0  0  3  0  0  0  0  0  0
  188.3540  179.3790  137.2120 N   0  0  0  0  0  1  0  0  0  0  0  0
  186.3200  175.6920  136.8640 C   0  0  0  0  0  0  0  0  0  0  0  0
  193.2230  175.9820  137.9670 C   0  0  0  0  0  2  0  0  0  0  0  0
  194.0470  174.0360  136.4630 C   0  0  1  0  0  3  0  0  0  0  0  0
  194.2770  173.7260  137.9340 C   0  0  0  0  0  2  0  0  0  0  0  0
  193.0550  174.5240  137.5330 C   0  0  1  0  0  3  0  0  0  0  0  0
  193.1930  176.1940  134.8010 F   0  0  0  0  0  0  0  0  0  0  0  0
  194.9930  175.0900  135.9400 C   0  0  0  0  0  0  0  0  0  0  0  0
  194.5120  176.1160  135.1090 C   0  0  0  0  0  0  0  0  0  0  0  0
  196.7540  177.0100  134.8930 C   0  0  0  0  0  3  0  0  0  0  0  0
  197.2420  175.9860  135.7060 C   0  0  0  0  0  3  0  0  0  0  0  0
  196.3680  175.0250  136.2220 C   0  0  0  0  0  3  0  0  0  0  0  0
  195.3910  177.0730  134.5940 C   0  0  0  0  0  3  0  0  0  0  0  0
  1  8  2  0  0  0  0
  2 10  1  0  0  0  0
  3 13  2  0  0  0  0
  3  4  1  0  0  0  0
  5 14  2  0  0  0  0
  6  9  1  0  0  0  0
  6 11  1  1  0  0  0
  7  4  1  0  0  0  0
  8 12  1  0  0  0  0
  8 15  1  0  0  0  0
  9 15  1  6  0  0  0
  9  3  1  0  0  0  0
 10 12  2  0  0  0  0
 11  7  1  0  0  0  0
 12  6  1  0  0  0  0
 14  1  1  0  0  0  0
 14  2  1  0  0  0  0
 16 22  1  0  0  0  0
 16 20  1  0  0  0  0
 17 20  2  0  0  0  0
 18 21  1  0  0  0  0
 18 23  2  0  0  0  0
 19 23  1  0  0  0  0
 20  1  1  0  0  0  0
 21 16  2  0  0  0  0
 23 17  1  0  0  0  0
 24  2  1  0  0  0  0
 25 29  1  1  0  0  0
 25 27  1  0  0  0  0
 25 26  1  0  0  0  0
 27 26  1  0  0  0  0
 27 24  1  1  0  0  0
 28 30  1  0  0  0  0
 29 33  1  0  0  0  0
 30 29  2  0  0  0  0
 31 32  1  0  0  0  0
 32 33  2  0  0  0  0
 34 31  2  0  0  0  0
 34 30  1  0  0  0  0
M  END
>  <MODEL>
7

>  <REMARK>
 VINA RESULT:      -8.2      4.235      7.405
  Name = 
  4 active torsions:
  status: ('A' for Active; 'I' for Inactive)
    1  A    between atoms: C_3  and  C_13
    2  A    between atoms: C_4  and  C_15
    3  A    between atoms: N_5  and  C_18
    4  A    between atoms: C_18  and  C_29
                            x       y       z     vdW  Elec       q    Type
                         _______ _______ _______ _____ _____    ______ ____

>  <TORSDO>
F 4

$$$$
=
 OpenBabel10252415073D

 34 39  0  0  1  0  0  0  0  0999 V2000
  188.6070  178.0670  141.2400 C   0  0  0  0  0  0  0  0  0  0  0  0
  186.5170  178.5950  139.9510 N   0  0  0  0  0  0  0  0  0  0  0  0
  191.2730  175.8200  138.1740 C   0  0  0  0  0  0  0  0  0  0  0  0
  190.3990  174.7840  137.7270 N   0  0  0  0  0  2  0  0  0  0  0  0
  186.9350  179.5620  142.0550 O   0  0  0  0  0  0  0  0  0  0  0  0
  189.4040  177.5380  137.6960 C   0  0  1  0  0  3  0  0  0  0  0  0
  188.9850  175.0530  137.5270 C   0  0  0  0  0  2  0  0  0  0  0  0
  189.1860  177.8170  140.0580 C   0  0  0  0  0  0  0  0  0  0  0  0
  190.7510  177.2070  138.4250 C   0  0  1  0  0  3  0  0  0  0  0  0
  187.2190  178.2780  138.7390 C   0  0  0  0  0  3  0  0  0  0  0  0
  188.8300  176.4000  136.8370 C   0  0  0  0  0  2  0  0  0  0  0  0
  188.4890  177.9010  138.8120 C   0  0  0  0  0  0  0  0  0  0  0  0
  192.4900  175.5690  138.3680 O   0  0  0  0  0  0  0  0  0  0  0  0
  187.1250  178.4110  141.2850 C   0  0  0  0  0  0  0  0  0  0  0  0
  190.5210  177.3910  139.8590 N   0  0  0  0  0  2  0  0  0  0  0  0
  189.0540  176.8510  143.4120 C   0  0  0  0  0  0  0  0  0  0  0  0
  190.3930  178.7820  142.8020 C   0  0  0  0  0  3  0  0  0  0  0  0
  190.8190  177.6260  144.8840 C   0  0  0  0  0  3  0  0  0  0  0  0
  192.1280  179.5150  144.2610 F   0  0  0  0  0  0  0  0  0  0  0  0
  189.3470  177.8950  142.5090 C   0  0  0  0  0  0  0  0  0  0  0  0
  189.7910  176.7260  144.5950 C   0  0  0  0  0  3  0  0  0  0  0  0
  188.0450  175.8880  143.1220 N   0  0  0  0  0  1  0  0  0  0  0  0
  191.1220  178.6510  143.9860 C   0  0  0  0  0  0  0  0  0  0  0  0
  185.1000  178.9190  139.8690 C   0  0  0  0  0  2  0  0  0  0  0  0
  183.0510  177.3270  139.8570 C   0  0  1  0  0  3  0  0  0  0  0  0
  182.9780  178.3220  138.7090 C   0  0  0  0  0  2  0  0  0  0  0  0
  184.3320  177.8070  139.1500 C   0  0  1  0  0  3  0  0  0  0  0  0
  180.5520  178.5380  140.5180 F   0  0  0  0  0  0  0  0  0  0  0  0
  182.7820  177.9700  141.1960 C   0  0  0  0  0  0  0  0  0  0  0  0
  181.5350  178.5670  141.4510 C   0  0  0  0  0  0  0  0  0  0  0  0
  182.2950  179.2430  143.6500 C   0  0  0  0  0  3  0  0  0  0  0  0
  183.5410  178.6650  143.4000 C   0  0  0  0  0  3  0  0  0  0  0  0
  183.7870  178.0380  142.1750 C   0  0  0  0  0  3  0  0  0  0  0  0
  181.2950  179.1960  142.6760 C   0  0  0  0  0  3  0  0  0  0  0  0
  1 14  1  0  0  0  0
  1 20  1  0  0  0  0
  2 14  1  0  0  0  0
  3 13  2  0  0  0  0
  4  3  1  0  0  0  0
  6 11  1  1  0  0  0
  6  9  1  0  0  0  0
  6 12  1  0  0  0  0
  7  4  1  0  0  0  0
  8  1  2  0  0  0  0
  9  3  1  1  0  0  0
  9 15  1  0  0  0  0
 10 12  2  0  0  0  0
 10  2  1  0  0  0  0
 11  7  1  0  0  0  0
 12  8  1  0  0  0  0
 14  5  2  0  0  0  0
 15  8  1  0  0  0  0
 16 21  1  0  0  0  0
 17 23  2  0  0  0  0
 20 17  1  0  0  0  0
 20 16  2  0  0  0  0
 21 18  2  0  0  0  0
 22 16  1  0  0  0  0
 23 19  1  0  0  0  0
 23 18  1  0  0  0  0
 24  2  1  0  0  0  0
 25 29  1  1  0  0  0
 26 27  1  0  0  0  0
 26 25  1  0  0  0  0
 27 25  1  0  0  0  0
 27 24  1  1  0  0  0
 28 30  1  0  0  0  0
 29 30  2  0  0  0  0
 29 33  1  0  0  0  0
 30 34  1  0  0  0  0
 32 31  1  0  0  0  0
 33 32  2  0  0  0  0
 34 31  2  0  0  0  0
M  END
>  <MODEL>
8

>  <REMARK>
 VINA RESULT:      -8.2      2.678      7.471
  Name = 
  4 active torsions:
  status: ('A' for Active; 'I' for Inactive)
    1  A    between atoms: C_3  and  C_13
    2  A    between atoms: C_4  and  C_15
    3  A    between atoms: N_5  and  C_18
    4  A    between atoms: C_18  and  C_29
                            x       y       z     vdW  Elec       q    Type
                         _______ _______ _______ _____ _____    ______ ____

>  <TORSDO>
F 4

$$$$
=
 OpenBabel10252415073D

 34 39  0  0  1  0  0  0  0  0999 V2000
  190.1950  177.3430  140.6890 C   0  0  0  0  0  0  0  0  0  0  0  0
  188.3890  177.3620  138.9430 N   0  0  0  0  0  0  0  0  0  0  0  0
  193.8460  175.4900  138.5000 C   0  0  0  0  0  0  0  0  0  0  0  0
  193.2980  174.2740  137.9900 N   0  0  0  0  0  2  0  0  0  0  0  0
  188.1400  178.5210  140.9760 O   0  0  0  0  0  0  0  0  0  0  0  0
  191.8530  176.7670  137.4650 C   0  0  1  0  0  3  0  0  0  0  0  0
  191.9400  174.2420  137.4720 C   0  0  0  0  0  2  0  0  0  0  0  0
  191.0610  177.1410  139.6870 C   0  0  0  0  0  0  0  0  0  0  0  0
  193.0380  176.7570  138.4900 C   0  0  1  0  0  3  0  0  0  0  0  0
  189.3920  177.1180  137.9450 C   0  0  0  0  0  3  0  0  0  0  0  0
  191.7040  175.4860  136.6280 C   0  0  0  0  0  2  0  0  0  0  0  0
  190.6590  177.0080  138.3210 C   0  0  0  0  0  0  0  0  0  0  0  0
  195.0120  175.4990  138.9700 O   0  0  0  0  0  0  0  0  0  0  0  0
  188.7040  177.3860  140.3870 C   0  0  0  0  0  0  0  0  0  0  0  0
  192.4610  176.9800  139.8170 N   0  0  0  0  0  2  0  0  0  0  0  0
  190.5370  176.2950  142.9660 C   0  0  0  0  0  0  0  0  0  0  0  0
  191.2360  178.5850  142.5640 C   0  0  0  0  0  3  0  0  0  0  0  0
  191.5580  177.5890  144.7440 C   0  0  0  0  0  3  0  0  0  0  0  0
  192.2480  179.8290  144.3260 F   0  0  0  0  0  0  0  0  0  0  0  0
  190.6480  177.4010  142.0960 C   0  0  0  0  0  0  0  0  0  0  0  0
  190.9900  176.3990  144.2850 C   0  0  0  0  0  3  0  0  0  0  0  0
  190.0070  175.0530  142.5120 N   0  0  0  0  0  1  0  0  0  0  0  0
  191.6850  178.6800  143.8830 C   0  0  0  0  0  0  0  0  0  0  0  0
  186.9920  177.3910  138.5330 C   0  0  0  0  0  2  0  0  0  0  0  0
  186.2650  176.8380  136.1050 C   0  0  1  0  0  3  0  0  0  0  0  0
  185.4030  177.9430  136.6970 C   0  0  0  0  0  2  0  0  0  0  0  0
  186.8650  177.8640  137.0830 C   0  0  1  0  0  3  0  0  0  0  0  0
  188.1880  174.7320  136.2220 F   0  0  0  0  0  0  0  0  0  0  0  0
  185.9620  175.4860  136.7040 C   0  0  0  0  0  0  0  0  0  0  0  0
  186.9480  174.4850  136.7120 C   0  0  0  0  0  0  0  0  0  0  0  0
  185.3880  172.9400  137.7390 C   0  0  0  0  0  3  0  0  0  0  0  0
  184.3990  173.9250  137.7210 C   0  0  0  0  0  3  0  0  0  0  0  0
  184.6820  175.1900  137.1990 C   0  0  0  0  0  3  0  0  0  0  0  0
  186.6600  173.2200  137.2330 C   0  0  0  0  0  3  0  0  0  0  0  0
  1 20  1  0  0  0  0
  2 14  1  0  0  0  0
  3 13  2  0  0  0  0
  4  3  1  0  0  0  0
  6 11  1  1  0  0  0
  6 12  1  0  0  0  0
  6  9  1  0  0  0  0
  7  4  1  0  0  0  0
  8 15  1  0  0  0  0
  8  1  2  0  0  0  0
  9  3  1  1  0  0  0
  9 15  1  0  0  0  0
 10 12  2  0  0  0  0
 10  2  1  0  0  0  0
 11  7  1  0  0  0  0
 12  8  1  0  0  0  0
 14  1  1  0  0  0  0
 14  5  2  0  0  0  0
 16 21  1  0  0  0  0
 17 23  2  0  0  0  0
 20 17  1  0  0  0  0
 20 16  2  0  0  0  0
 21 18  2  0  0  0  0
 22 16  1  0  0  0  0
 23 19  1  0  0  0  0
 23 18  1  0  0  0  0
 24  2  1  0  0  0  0
 25 26  1  0  0  0  0
 25 29  1  1  0  0  0
 25 27  1  0  0  0  0
 26 27  1  0  0  0  0
 27 24  1  1  0  0  0
 28 30  1  0  0  0  0
 29 30  2  0  0  0  0
 29 33  1  0  0  0  0
 30 34  1  0  0  0  0
 32 31  1  0  0  0  0
 33 32  2  0  0  0  0
 34 31  2  0  0  0  0
M  END
>  <MODEL>
9

>  <REMARK>
 VINA RESULT:      -8.1      3.126      8.511
  Name = 
  4 active torsions:
  status: ('A' for Active; 'I' for Inactive)
    1  A    between atoms: C_3  and  C_13
    2  A    between atoms: C_4  and  C_15
    3  A    between atoms: N_5  and  C_18
    4  A    between atoms: C_18  and  C_29
                            x       y       z     vdW  Elec       q    Type
                         _______ _______ _______ _____ _____    ______ ____

>  <TORSDO>
F 4

$$$$
