=
 OpenBabel10262422233D

 43 48  0  0  1  0  0  0  0  0999 V2000
  181.0220  178.8980  143.3240 C   0  0  0  0  0  0  0  0  0  0  0  0
  184.4070  178.4140  139.6290 C   0  0  0  0  0  0  0  0  0  0  0  0
  186.8850  178.5390  140.8280 C   0  0  0  0  0  0  0  0  0  0  0  0
  182.1060  178.6340  141.1760 C   0  0  0  0  0  0  0  0  0  0  0  0
  182.2690  178.9600  143.9540 C   0  0  0  0  0  3  0  0  0  0  0  0
  179.5580  179.0390  144.2720 Cl  0  0  0  0  0  0  0  0  0  0  0  0
  183.3700  178.6960  141.8080 C   0  0  0  0  0  0  0  0  0  0  0  0
  180.9400  178.7380  141.9390 C   0  0  0  0  0  3  0  0  0  0  0  0
  183.4390  178.8600  143.1990 C   0  0  0  0  0  3  0  0  0  0  0  0
  185.7640  178.6460  141.5850 N   0  0  0  0  0  0  0  0  0  0  0  0
  184.5270  178.5890  141.0210 C   0  0  0  0  0  0  0  0  0  0  0  0
  183.1320  178.3640  139.0530 C   0  0  0  0  0  3  0  0  0  0  0  0
  185.5790  178.2870  138.8670 C   0  0  0  0  0  0  0  0  0  0  0  0
  186.7870  178.3570  139.4860 N   0  0  0  0  0  0  0  0  0  0  0  0
  182.0230  178.4740  139.8300 N   0  0  0  0  0  0  0  0  0  0  0  0
  185.5310  178.0310  137.0840 S   0  0  0  0  0  0  0  0  0  0  0  0
  189.4370  177.3130  135.8790 C   0  0  0  0  0  2  0  0  0  0  0  0
  189.2140  175.9720  135.3400 N   0  0  0  0  0  0  0  0  0  0  0  0
  187.0690  175.7880  136.5090 C   0  0  0  0  0  2  0  0  0  0  0  0
  188.1060  178.0440  136.0300 C   0  0  0  0  0  2  0  0  0  0  0  0
  187.1790  177.2470  136.9470 C   0  0  0  0  0  3  0  0  0  0  0  0
  188.4660  175.2010  136.3340 C   0  0  0  0  0  2  0  0  0  0  0  0
  191.4370  176.0170  136.0360 O   0  0  0  0  0  1  0  0  0  0  0  0
  190.5210  175.3490  135.2220 C   0  0  0  0  0  2  0  0  0  0  0  0
  188.2210  178.5470  141.4780 C   0  0  0  0  0  2  0  0  0  0  0  0
  188.5330  177.2540  141.9050 O   0  0  0  0  0  0  0  0  0  0  0  0
  189.9170  177.2580  142.1060 C   0  0  2  0  0  3  0  0  0  0  0  0
  191.9380  177.5480  140.8690 O   0  0  0  0  0  1  0  0  0  0  0  0
  190.6400  177.0440  140.7850 C   0  0  0  0  0  2  0  0  0  0  0  0
  190.3160  176.1850  143.1170 C   0  0  0  0  0  2  0  0  0  0  0  0
  191.2060  176.7270  144.1450 N   0  0  0  0  0  0  0  0  0  0  0  0
  191.2350  177.1140  146.4770 N   0  0  0  0  0  2  0  0  0  0  0  0
  191.9270  175.6230  144.7470 C   0  0  0  0  0  2  0  0  0  0  0  0
  190.4660  177.3360  145.2580 C   0  0  1  0  0  0  0  0  0  0  0  0
  190.3510  178.6970  145.0290 F   0  0  0  0  0  0  0  0  0  0  0  0
  192.0850  175.9650  146.2080 C   0  0  0  0  0  2  0  0  0  0  0  0
  189.1620  176.7540  145.4080 O   0  0  0  0  0  0  0  0  0  0  0  0
  188.0270  177.4460  145.8510 C   0  0  0  0  0  0  0  0  0  0  0  0
  185.8840  178.5220  145.4520 C   0  0  0  0  0  3  0  0  0  0  0  0
  186.8070  178.4590  147.6890 C   0  0  0  0  0  3  0  0  0  0  0  0
  185.7880  178.8370  146.8100 C   0  0  0  0  0  3  0  0  0  0  0  0
  187.9230  177.7680  147.2090 C   0  0  0  0  0  3  0  0  0  0  0  0
  186.9990  177.8270  144.9740 C   0  0  0  0  0  3  0  0  0  0  0  0
  1  5  1  0  0  0  0
  1  6  1  0  0  0  0
  2 11  1  0  0  0  0
  3 25  1  0  0  0  0
  3 10  2  0  0  0  0
  4  7  1  0  0  0  0
  4  8  1  0  0  0  0
  7  9  1  0  0  0  0
  8  1  2  0  0  0  0
  9  5  2  0  0  0  0
 11 10  1  0  0  0  0
 11  7  2  0  0  0  0
 12  2  2  0  0  0  0
 12 15  1  0  0  0  0
 13 14  2  0  0  0  0
 13  2  1  0  0  0  0
 14  3  1  0  0  0  0
 15  4  2  0  0  0  0
 16 13  1  0  0  0  0
 17 20  1  0  0  0  0
 18 17  1  0  0  0  0
 18 22  1  0  0  0  0
 19 21  1  0  0  0  0
 20 21  1  0  0  0  0
 21 16  1  0  0  0  0
 22 19  1  0  0  0  0
 24 18  1  0  0  0  0
 24 23  1  0  0  0  0
 25 26  1  0  0  0  0
 26 27  1  0  0  0  0
 27 29  1  6  0  0  0
 27 30  1  0  0  0  0
 29 28  1  0  0  0  0
 30 31  1  0  0  0  0
 31 33  1  0  0  0  0
 31 34  1  0  0  0  0
 33 36  1  0  0  0  0
 34 35  1  6  0  0  0
 34 37  1  0  0  0  0
 34 32  1  0  0  0  0
 36 32  1  0  0  0  0
 37 38  1  0  0  0  0
 38 42  1  0  0  0  0
 39 41  2  0  0  0  0
 41 40  1  0  0  0  0
 42 40  2  0  0  0  0
 43 39  1  0  0  0  0
 43 38  2  0  0  0  0
M  END
>  <MODEL>
1

>  <REMARK>
 VINA RESULT:      -9.3      0.000      0.000
  Name = 
  11 active torsions:
  status: ('A' for Active; 'I' for Inactive)
    1  A    between atoms: S_1  and  C_34
    2  A    between atoms: S_1  and  C_35
    3  A    between atoms: C_2  and  O_6
    4  A    between atoms: C_2  and  C_13
    5  A    between atoms: C_3  and  N_4
    6  A    between atoms: C_3  and  C_12
    7  A    between atoms: O_6  and  C_12
    8  A    between atoms: C_11  and  O_14
    9  A    between atoms: C_12  and  C_17
   10  A    between atoms: O_14  and  C_22
   11  A    between atoms: N_19  and  C_37
                            x       y       z     vdW  Elec       q    Type
                         _______ _______ _______ _____ _____    ______ ____

>  <TORSDO>
F 11

$$$$
=
 OpenBabel10262422233D

 43 48  0  0  1  0  0  0  0  0999 V2000
  180.8570  178.7800  143.2620 C   0  0  0  0  0  0  0  0  0  0  0  0
  183.6840  178.0150  139.1670 C   0  0  0  0  0  0  0  0  0  0  0  0
  186.2970  178.4300  139.9410 C   0  0  0  0  0  0  0  0  0  0  0  0
  181.6280  178.3040  141.0170 C   0  0  0  0  0  0  0  0  0  0  0  0
  182.1750  178.9910  143.6770 C   0  0  0  0  0  3  0  0  0  0  0  0
  179.5430  178.9590  144.4030 Cl  0  0  0  0  0  0  0  0  0  0  0  0
  182.9640  178.5160  141.4320 C   0  0  0  0  0  0  0  0  0  0  0  0
  180.5840  178.4390  141.9350 C   0  0  0  0  0  3  0  0  0  0  0  0
  183.2260  178.8600  142.7660 C   0  0  0  0  0  3  0  0  0  0  0  0
  185.2950  178.5710  140.8460 N   0  0  0  0  0  0  0  0  0  0  0  0
  183.9970  178.3740  140.4930 C   0  0  0  0  0  0  0  0  0  0  0  0
  182.3460  177.8210  138.8070 C   0  0  0  0  0  3  0  0  0  0  0  0
  184.7380  177.8570  138.2520 C   0  0  0  0  0  0  0  0  0  0  0  0
  186.0150  178.0730  138.6620 N   0  0  0  0  0  0  0  0  0  0  0  0
  181.3590  177.9690  139.7290 N   0  0  0  0  0  0  0  0  0  0  0  0
  184.4450  177.3730  136.5410 S   0  0  0  0  0  0  0  0  0  0  0  0
  185.1580  173.3510  137.2780 C   0  0  0  0  0  2  0  0  0  0  0  0
  184.4310  172.8260  136.1230 N   0  0  0  0  0  0  0  0  0  0  0  0
  183.2780  174.9620  135.7960 C   0  0  0  0  0  2  0  0  0  0  0  0
  185.4520  174.8360  137.0800 C   0  0  0  0  0  2  0  0  0  0  0  0
  184.1440  175.6000  136.8810 C   0  0  0  0  0  3  0  0  0  0  0  0
  183.1190  173.4720  136.0790 C   0  0  0  0  0  2  0  0  0  0  0  0
  183.0420  171.2660  137.1530 O   0  0  0  0  0  1  0  0  0  0  0  0
  184.1970  171.4170  136.3850 C   0  0  0  0  0  2  0  0  0  0  0  0
  187.7090  178.5950  140.3690 C   0  0  0  0  0  2  0  0  0  0  0  0
  187.9210  177.8740  141.5470 O   0  0  0  0  0  0  0  0  0  0  0  0
  189.3100  177.7370  141.6480 C   0  0  2  0  0  3  0  0  0  0  0  0
  190.5300  176.2320  140.2550 O   0  0  0  0  0  1  0  0  0  0  0  0
  189.9140  177.4830  140.2770 C   0  0  0  0  0  2  0  0  0  0  0  0
  189.6680  176.6070  142.6120 C   0  0  0  0  0  2  0  0  0  0  0  0
  190.7090  177.0220  143.5540 N   0  0  0  0  0  0  0  0  0  0  0  0
  191.1060  177.0820  145.8840 N   0  0  0  0  0  2  0  0  0  0  0  0
  191.5170  175.8620  143.8750 C   0  0  0  0  0  2  0  0  0  0  0  0
  190.1540  177.4530  144.8430 C   0  0  1  0  0  0  0  0  0  0  0  0
  190.0030  178.8300  144.8290 F   0  0  0  0  0  0  0  0  0  0  0  0
  191.9030  176.0020  145.3270 C   0  0  0  0  0  2  0  0  0  0  0  0
  188.8900  176.8270  145.1120 O   0  0  0  0  0  0  0  0  0  0  0  0
  187.7620  177.4900  145.6140 C   0  0  0  0  0  0  0  0  0  0  0  0
  186.5040  178.4950  147.4350 C   0  0  0  0  0  3  0  0  0  0  0  0
  185.5800  178.4680  145.1980 C   0  0  0  0  0  3  0  0  0  0  0  0
  185.4710  178.8110  146.5490 C   0  0  0  0  0  3  0  0  0  0  0  0
  186.7220  177.8080  144.7350 C   0  0  0  0  0  3  0  0  0  0  0  0
  187.6470  177.8380  146.9700 C   0  0  0  0  0  3  0  0  0  0  0  0
  1  5  1  0  0  0  0
  1  6  1  0  0  0  0
  2 11  1  0  0  0  0
  3 25  1  0  0  0  0
  3 10  2  0  0  0  0
  4  7  1  0  0  0  0
  4  8  1  0  0  0  0
  7  9  1  0  0  0  0
  8  1  2  0  0  0  0
  9  5  2  0  0  0  0
 11 10  1  0  0  0  0
 11  7  2  0  0  0  0
 12  2  2  0  0  0  0
 12 15  1  0  0  0  0
 13 14  2  0  0  0  0
 13  2  1  0  0  0  0
 14  3  1  0  0  0  0
 15  4  2  0  0  0  0
 16 21  1  0  0  0  0
 16 13  1  0  0  0  0
 18 24  1  0  0  0  0
 18 17  1  0  0  0  0
 19 22  1  0  0  0  0
 19 21  1  0  0  0  0
 20 17  1  0  0  0  0
 21 20  1  0  0  0  0
 22 18  1  0  0  0  0
 24 23  1  0  0  0  0
 25 26  1  0  0  0  0
 26 27  1  0  0  0  0
 27 29  1  6  0  0  0
 27 30  1  0  0  0  0
 28 29  1  0  0  0  0
 30 31  1  0  0  0  0
 31 33  1  0  0  0  0
 31 34  1  0  0  0  0
 33 36  1  0  0  0  0
 34 35  1  6  0  0  0
 34 37  1  0  0  0  0
 34 32  1  0  0  0  0
 36 32  1  0  0  0  0
 37 38  1  0  0  0  0
 38 43  1  0  0  0  0
 40 41  2  0  0  0  0
 41 39  1  0  0  0  0
 42 40  1  0  0  0  0
 42 38  2  0  0  0  0
 43 39  2  0  0  0  0
M  END
>  <MODEL>
2

>  <REMARK>
 VINA RESULT:      -8.7      2.321      2.836
  Name = 
  11 active torsions:
  status: ('A' for Active; 'I' for Inactive)
    1  A    between atoms: S_1  and  C_34
    2  A    between atoms: S_1  and  C_35
    3  A    between atoms: C_2  and  O_6
    4  A    between atoms: C_2  and  C_13
    5  A    between atoms: C_3  and  N_4
    6  A    between atoms: C_3  and  C_12
    7  A    between atoms: O_6  and  C_12
    8  A    between atoms: C_11  and  O_14
    9  A    between atoms: C_12  and  C_17
   10  A    between atoms: O_14  and  C_22
   11  A    between atoms: N_19  and  C_37
                            x       y       z     vdW  Elec       q    Type
                         _______ _______ _______ _____ _____    ______ ____

>  <TORSDO>
F 11

$$$$
=
 OpenBabel10262422233D

 43 48  0  0  1  0  0  0  0  0999 V2000
  187.4570  177.9550  147.2190 C   0  0  0  0  0  0  0  0  0  0  0  0
  183.8840  178.7900  143.7720 C   0  0  0  0  0  0  0  0  0  0  0  0
  185.1170  178.5910  141.3150 C   0  0  0  0  0  0  0  0  0  0  0  0
  185.3650  178.4320  146.0980 C   0  0  0  0  0  0  0  0  0  0  0  0
  188.1020  177.8450  145.9830 C   0  0  0  0  0  3  0  0  0  0  0  0
  188.3650  177.7390  148.6990 Cl  0  0  0  0  0  0  0  0  0  0  0  0
  186.0120  178.3220  144.8450 C   0  0  0  0  0  0  0  0  0  0  0  0
  186.0930  178.2490  147.2770 C   0  0  0  0  0  3  0  0  0  0  0  0
  187.3830  178.0290  144.8000 C   0  0  0  0  0  3  0  0  0  0  0  0
  185.8420  178.4150  142.4490 N   0  0  0  0  0  0  0  0  0  0  0  0
  185.2610  178.5090  143.6750 C   0  0  0  0  0  0  0  0  0  0  0  0
  183.2930  178.8920  145.0360 C   0  0  0  0  0  3  0  0  0  0  0  0
  183.1500  178.9500  142.5860 C   0  0  0  0  0  0  0  0  0  0  0  0
  183.7860  178.8510  141.3890 N   0  0  0  0  0  0  0  0  0  0  0  0
  184.0380  178.7140  146.1590 N   0  0  0  0  0  0  0  0  0  0  0  0
  181.3790  179.2840  142.6020 S   0  0  0  0  0  0  0  0  0  0  0  0
  179.7370  179.0460  138.7980 C   0  0  0  0  0  2  0  0  0  0  0  0
  179.2060  177.6890  138.9170 N   0  0  0  0  0  0  0  0  0  0  0  0
  180.6030  177.2440  140.8790 C   0  0  0  0  0  2  0  0  0  0  0  0
  180.0460  179.6100  140.1820 C   0  0  0  0  0  2  0  0  0  0  0  0
  181.0480  178.7060  140.8980 C   0  0  0  0  0  3  0  0  0  0  0  0
  180.2650  176.8310  139.4510 C   0  0  0  0  0  2  0  0  0  0  0  0
  180.0840  176.6540  137.0240 O   0  0  0  0  0  1  0  0  0  0  0  0
  178.9340  177.2290  137.5660 C   0  0  0  0  0  2  0  0  0  0  0  0
  185.7660  178.4270  139.9890 C   0  0  0  0  0  2  0  0  0  0  0  0
  185.0420  179.1400  139.0300 O   0  0  0  0  0  0  0  0  0  0  0  0
  185.1670  178.3990  137.8500 C   0  0  2  0  0  3  0  0  0  0  0  0
  182.7990  178.4080  137.5530 O   0  0  0  0  0  1  0  0  0  0  0  0
  183.9140  177.5720  137.6150 C   0  0  0  0  0  2  0  0  0  0  0  0
  186.4010  177.5020  137.9090 C   0  0  0  0  0  2  0  0  0  0  0  0
  187.4240  177.9420  136.9590 N   0  0  0  0  0  0  0  0  0  0  0  0
  189.7230  177.6150  136.5110 N   0  0  0  0  0  2  0  0  0  0  0  0
  187.5130  176.9560  135.8990 C   0  0  0  0  0  2  0  0  0  0  0  0
  188.7660  177.9630  137.5560 C   0  0  1  0  0  0  0  0  0  0  0  0
  189.0330  179.2420  138.0140 F   0  0  0  0  0  0  0  0  0  0  0  0
  188.9680  176.8820  135.5080 C   0  0  0  0  0  2  0  0  0  0  0  0
  188.8810  177.0240  138.6350 O   0  0  0  0  0  0  0  0  0  0  0  0
  189.6840  177.2070  139.7690 C   0  0  0  0  0  0  0  0  0  0  0  0
  191.8530  177.3870  140.8500 C   0  0  0  0  0  3  0  0  0  0  0  0
  189.8290  177.5750  142.1640 C   0  0  0  0  0  3  0  0  0  0  0  0
  191.2250  177.5720  142.0840 C   0  0  0  0  0  3  0  0  0  0  0  0
  189.0630  177.3900  141.0100 C   0  0  0  0  0  3  0  0  0  0  0  0
  191.0860  177.2070  139.6960 C   0  0  0  0  0  3  0  0  0  0  0  0
  1  8  1  0  0  0  0
  1  6  1  0  0  0  0
  2 12  1  0  0  0  0
  3 14  1  0  0  0  0
  3 10  2  0  0  0  0
  4 15  1  0  0  0  0
  4  8  2  0  0  0  0
  5  1  2  0  0  0  0
  7  4  1  0  0  0  0
  9  7  2  0  0  0  0
  9  5  1  0  0  0  0
 10 11  1  0  0  0  0
 11  2  2  0  0  0  0
 11  7  1  0  0  0  0
 12 15  2  0  0  0  0
 13 16  1  0  0  0  0
 13  2  1  0  0  0  0
 14 13  2  0  0  0  0
 17 18  1  0  0  0  0
 17 20  1  0  0  0  0
 18 22  1  0  0  0  0
 19 21  1  0  0  0  0
 20 21  1  0  0  0  0
 21 16  1  0  0  0  0
 22 19  1  0  0  0  0
 23 24  1  0  0  0  0
 24 18  1  0  0  0  0
 25  3  1  0  0  0  0
 26 25  1  0  0  0  0
 27 29  1  1  0  0  0
 27 30  1  0  0  0  0
 27 26  1  0  0  0  0
 28 29  1  0  0  0  0
 31 34  1  0  0  0  0
 31 30  1  0  0  0  0
 32 34  1  0  0  0  0
 33 31  1  0  0  0  0
 34 35  1  1  0  0  0
 34 37  1  0  0  0  0
 36 33  1  0  0  0  0
 36 32  1  0  0  0  0
 37 38  1  0  0  0  0
 38 42  1  0  0  0  0
 39 41  2  0  0  0  0
 41 40  1  0  0  0  0
 42 40  2  0  0  0  0
 43 38  2  0  0  0  0
 43 39  1  0  0  0  0
M  END
>  <MODEL>
3

>  <REMARK>
 VINA RESULT:      -8.6      3.458      7.456
  Name = 
  11 active torsions:
  status: ('A' for Active; 'I' for Inactive)
    1  A    between atoms: S_1  and  C_34
    2  A    between atoms: S_1  and  C_35
    3  A    between atoms: C_2  and  O_6
    4  A    between atoms: C_2  and  C_13
    5  A    between atoms: C_3  and  N_4
    6  A    between atoms: C_3  and  C_12
    7  A    between atoms: O_6  and  C_12
    8  A    between atoms: C_11  and  O_14
    9  A    between atoms: C_12  and  C_17
   10  A    between atoms: O_14  and  C_22
   11  A    between atoms: N_19  and  C_37
                            x       y       z     vdW  Elec       q    Type
                         _______ _______ _______ _____ _____    ______ ____

>  <TORSDO>
F 11

$$$$
=
 OpenBabel10262422233D

 43 48  0  0  1  0  0  0  0  0999 V2000
  184.8060  178.5950  145.2850 C   0  0  0  0  0  0  0  0  0  0  0  0
  182.6830  178.8540  140.7270 C   0  0  0  0  0  0  0  0  0  0  0  0
  184.7300  178.5720  138.9030 C   0  0  0  0  0  0  0  0  0  0  0  0
  183.2390  178.8040  143.4520 C   0  0  0  0  0  0  0  0  0  0  0  0
  185.8580  178.4460  144.3770 C   0  0  0  0  0  3  0  0  0  0  0  0
  185.1270  178.5720  147.0050 Cl  0  0  0  0  0  0  0  0  0  0  0  0
  184.3010  178.6530  142.5290 C   0  0  0  0  0  0  0  0  0  0  0  0
  183.5000  178.7760  144.8240 C   0  0  0  0  0  3  0  0  0  0  0  0
  185.6080  178.4760  143.0040 C   0  0  0  0  0  3  0  0  0  0  0  0
  185.0040  178.5460  140.2320 N   0  0  0  0  0  0  0  0  0  0  0  0
  184.0140  178.6850  141.1550 C   0  0  0  0  0  0  0  0  0  0  0  0
  181.6710  179.0030  141.6820 C   0  0  0  0  0  3  0  0  0  0  0  0
  182.4210  178.8590  139.3480 C   0  0  0  0  0  0  0  0  0  0  0  0
  183.4510  178.7230  138.4720 N   0  0  0  0  0  0  0  0  0  0  0  0
  181.9670  178.9760  143.0070 N   0  0  0  0  0  0  0  0  0  0  0  0
  180.7500  179.0410  138.7000 S   0  0  0  0  0  0  0  0  0  0  0  0
  180.7660  183.0420  137.5960 C   0  0  0  0  0  2  0  0  0  0  0  0
  180.0790  182.8770  136.3160 N   0  0  0  0  0  0  0  0  0  0  0  0
  180.5040  180.4650  136.3240 C   0  0  0  0  0  2  0  0  0  0  0  0
  180.5530  181.8070  138.4670 C   0  0  0  0  0  2  0  0  0  0  0  0
  181.0700  180.5660  137.7400 C   0  0  0  0  0  3  0  0  0  0  0  0
  180.7260  181.7830  135.5900 C   0  0  0  0  0  2  0  0  0  0  0  0
  181.4250  184.7640  136.0830 O   0  0  0  0  0  1  0  0  0  0  0  0
  180.3240  184.0890  135.5540 C   0  0  0  0  0  2  0  0  0  0  0  0
  185.8220  178.3620  137.9180 C   0  0  0  0  0  2  0  0  0  0  0  0
  185.8430  177.0190  137.5340 O   0  0  0  0  0  0  0  0  0  0  0  0
  187.1100  176.8170  136.9750 C   0  0  2  0  0  3  0  0  0  0  0  0
  187.6590  174.6650  136.1020 O   0  0  0  0  0  1  0  0  0  0  0  0
  187.0170  175.8650  135.7940 C   0  0  0  0  0  2  0  0  0  0  0  0
  188.0800  176.2790  138.0250 C   0  0  0  0  0  2  0  0  0  0  0  0
  189.3580  176.9920  137.9840 N   0  0  0  0  0  0  0  0  0  0  0  0
  191.0980  177.6510  139.4440 N   0  0  0  0  0  2  0  0  0  0  0  0
  190.4180  176.0130  137.8470 C   0  0  0  0  0  2  0  0  0  0  0  0
  189.6520  177.6800  139.2480 C   0  0  1  0  0  0  0  0  0  0  0  0
  189.2290  178.9950  139.1520 F   0  0  0  0  0  0  0  0  0  0  0  0
  191.5840  176.5340  138.6510 C   0  0  0  0  0  2  0  0  0  0  0  0
  189.0110  177.0410  140.3620 O   0  0  0  0  0  0  0  0  0  0  0  0
  189.4460  177.1300  141.6910 C   0  0  0  0  0  0  0  0  0  0  0  0
  189.6480  178.3170  143.8020 C   0  0  0  0  0  3  0  0  0  0  0  0
  190.6090  176.1090  143.5610 C   0  0  0  0  0  3  0  0  0  0  0  0
  190.3550  177.2400  144.3420 C   0  0  0  0  0  3  0  0  0  0  0  0
  190.1570  176.0570  142.2390 C   0  0  0  0  0  3  0  0  0  0  0  0
  189.1930  178.2630  142.4820 C   0  0  0  0  0  3  0  0  0  0  0  0
  1  6  1  0  0  0  0
  2 11  2  0  0  0  0
  2 12  1  0  0  0  0
  3 10  2  0  0  0  0
  4  8  2  0  0  0  0
  5  1  2  0  0  0  0
  7  9  2  0  0  0  0
  7  4  1  0  0  0  0
  8  1  1  0  0  0  0
  9  5  1  0  0  0  0
 10 11  1  0  0  0  0
 11  7  1  0  0  0  0
 12 15  2  0  0  0  0
 13  2  1  0  0  0  0
 14  3  1  0  0  0  0
 14 13  2  0  0  0  0
 15  4  1  0  0  0  0
 16 13  1  0  0  0  0
 17 20  1  0  0  0  0
 18 17  1  0  0  0  0
 19 21  1  0  0  0  0
 21 20  1  0  0  0  0
 21 16  1  0  0  0  0
 22 18  1  0  0  0  0
 22 19  1  0  0  0  0
 24 23  1  0  0  0  0
 24 18  1  0  0  0  0
 25  3  1  0  0  0  0
 26 25  1  0  0  0  0
 27 29  1  6  0  0  0
 27 26  1  0  0  0  0
 27 30  1  0  0  0  0
 29 28  1  0  0  0  0
 31 30  1  0  0  0  0
 31 34  1  0  0  0  0
 33 31  1  0  0  0  0
 33 36  1  0  0  0  0
 34 35  1  6  0  0  0
 34 32  1  0  0  0  0
 34 37  1  0  0  0  0
 36 32  1  0  0  0  0
 37 38  1  0  0  0  0
 38 42  2  0  0  0  0
 38 43  1  0  0  0  0
 39 41  1  0  0  0  0
 40 41  2  0  0  0  0
 42 40  1  0  0  0  0
 43 39  2  0  0  0  0
M  END
>  <MODEL>
4

>  <REMARK>
 VINA RESULT:      -8.5      3.638      6.326
  Name = 
  11 active torsions:
  status: ('A' for Active; 'I' for Inactive)
    1  A    between atoms: S_1  and  C_34
    2  A    between atoms: S_1  and  C_35
    3  A    between atoms: C_2  and  O_6
    4  A    between atoms: C_2  and  C_13
    5  A    between atoms: C_3  and  N_4
    6  A    between atoms: C_3  and  C_12
    7  A    between atoms: O_6  and  C_12
    8  A    between atoms: C_11  and  O_14
    9  A    between atoms: C_12  and  C_17
   10  A    between atoms: O_14  and  C_22
   11  A    between atoms: N_19  and  C_37
                            x       y       z     vdW  Elec       q    Type
                         _______ _______ _______ _____ _____    ______ ____

>  <TORSDO>
F 11

$$$$
=
 OpenBabel10262422233D

 43 48  0  0  1  0  0  0  0  0999 V2000
  190.8630  176.7710  146.1530 C   0  0  0  0  0  0  0  0  0  0  0  0
  189.1320  177.8660  141.5530 C   0  0  0  0  0  0  0  0  0  0  0  0
  186.4860  178.5710  141.8690 C   0  0  0  0  0  0  0  0  0  0  0  0
  190.6450  177.1360  143.7690 C   0  0  0  0  0  0  0  0  0  0  0  0
  189.5240  177.1290  146.3360 C   0  0  0  0  0  3  0  0  0  0  0  0
  191.8380  176.3030  147.5280 Cl  0  0  0  0  0  0  0  0  0  0  0  0
  189.2900  177.5000  143.9500 C   0  0  0  0  0  0  0  0  0  0  0  0
  191.4220  176.7720  144.8730 C   0  0  0  0  0  3  0  0  0  0  0  0
  188.7390  177.4920  145.2390 C   0  0  0  0  0  3  0  0  0  0  0  0
  187.2230  178.2160  142.9530 N   0  0  0  0  0  0  0  0  0  0  0  0
  188.5310  177.8620  142.8270 C   0  0  0  0  0  0  0  0  0  0  0  0
  190.4750  177.4940  141.4300 C   0  0  0  0  0  3  0  0  0  0  0  0
  188.3560  178.2550  140.4490 C   0  0  0  0  0  0  0  0  0  0  0  0
  187.0530  178.5920  140.6360 N   0  0  0  0  0  0  0  0  0  0  0  0
  191.1940  177.1410  142.5270 N   0  0  0  0  0  0  0  0  0  0  0  0
  189.0400  178.3200  138.7840 S   0  0  0  0  0  0  0  0  0  0  0  0
  186.8120  175.4090  136.8380 C   0  0  0  0  0  2  0  0  0  0  0  0
  186.5250  176.1820  135.6300 N   0  0  0  0  0  0  0  0  0  0  0  0
  187.1590  178.2720  136.7370 C   0  0  0  0  0  2  0  0  0  0  0  0
  187.9760  176.0400  137.5970 C   0  0  0  0  0  2  0  0  0  0  0  0
  187.6370  177.4860  137.9560 C   0  0  0  0  0  3  0  0  0  0  0  0
  186.0440  177.5020  136.0370 C   0  0  0  0  0  2  0  0  0  0  0  0
  185.5750  174.1340  135.0540 O   0  0  0  0  0  1  0  0  0  0  0  0
  185.4170  175.5180  134.9650 C   0  0  0  0  0  2  0  0  0  0  0  0
  185.0780  179.0080  142.0440 C   0  0  0  0  0  2  0  0  0  0  0  0
  184.9900  179.8470  143.1580 O   0  0  0  0  0  0  0  0  0  0  0  0
  183.8360  179.4380  143.8350 C   0  0  2  0  0  3  0  0  0  0  0  0
  185.2590  179.2320  145.7400 O   0  0  0  0  0  1  0  0  0  0  0  0
  184.2100  178.6160  145.0580 C   0  0  0  0  0  2  0  0  0  0  0  0
  182.9250  178.6380  142.9070 C   0  0  0  0  0  2  0  0  0  0  0  0
  181.6530  179.3280  142.6860 N   0  0  0  0  0  0  0  0  0  0  0  0
  179.5390  178.9330  141.7030 N   0  0  0  0  0  2  0  0  0  0  0  0
  180.7490  178.9670  143.7590 C   0  0  0  0  0  2  0  0  0  0  0  0
  180.9770  178.8720  141.4640 C   0  0  1  0  0  0  0  0  0  0  0  0
  181.3060  179.7250  140.4240 F   0  0  0  0  0  0  0  0  0  0  0  0
  179.3730  178.8830  143.1460 C   0  0  0  0  0  2  0  0  0  0  0  0
  181.3440  177.5260  141.1270 O   0  0  0  0  0  0  0  0  0  0  0  0
  181.7020  177.0960  139.8420 C   0  0  0  0  0  0  0  0  0  0  0  0
  181.1420  176.2370  137.6380 C   0  0  0  0  0  3  0  0  0  0  0  0
  183.4520  176.6710  138.2150 C   0  0  0  0  0  3  0  0  0  0  0  0
  182.4950  176.2410  137.2910 C   0  0  0  0  0  3  0  0  0  0  0  0
  183.0550  177.0940  139.4860 C   0  0  0  0  0  3  0  0  0  0  0  0
  180.7460  176.6640  138.9090 C   0  0  0  0  0  3  0  0  0  0  0  0
  1  5  1  0  0  0  0
  1  6  1  0  0  0  0
  2 11  1  0  0  0  0
  3 25  1  0  0  0  0
  3 10  2  0  0  0  0
  4  7  1  0  0  0  0
  4  8  1  0  0  0  0
  7  9  1  0  0  0  0
  8  1  2  0  0  0  0
  9  5  2  0  0  0  0
 11 10  1  0  0  0  0
 11  7  2  0  0  0  0
 12  2  2  0  0  0  0
 12 15  1  0  0  0  0
 13 14  2  0  0  0  0
 13  2  1  0  0  0  0
 14  3  1  0  0  0  0
 15  4  2  0  0  0  0
 16 13  1  0  0  0  0
 17 20  1  0  0  0  0
 18 22  1  0  0  0  0
 18 17  1  0  0  0  0
 19 21  1  0  0  0  0
 20 21  1  0  0  0  0
 21 16  1  0  0  0  0
 22 19  1  0  0  0  0
 24 23  1  0  0  0  0
 24 18  1  0  0  0  0
 25 26  1  0  0  0  0
 26 27  1  0  0  0  0
 27 30  1  6  0  0  0
 27 29  1  0  0  0  0
 29 28  1  0  0  0  0
 31 30  1  0  0  0  0
 31 33  1  0  0  0  0
 32 36  1  0  0  0  0
 34 35  1  6  0  0  0
 34 32  1  0  0  0  0
 34 31  1  0  0  0  0
 36 33  1  0  0  0  0
 37 34  1  0  0  0  0
 38 37  1  0  0  0  0
 39 43  1  0  0  0  0
 40 42  2  0  0  0  0
 41 39  2  0  0  0  0
 41 40  1  0  0  0  0
 42 38  1  0  0  0  0
 43 38  2  0  0  0  0
M  END
>  <MODEL>
5

>  <REMARK>
 VINA RESULT:      -8.2      3.567      7.835
  Name = 
  11 active torsions:
  status: ('A' for Active; 'I' for Inactive)
    1  A    between atoms: S_1  and  C_34
    2  A    between atoms: S_1  and  C_35
    3  A    between atoms: C_2  and  O_6
    4  A    between atoms: C_2  and  C_13
    5  A    between atoms: C_3  and  N_4
    6  A    between atoms: C_3  and  C_12
    7  A    between atoms: O_6  and  C_12
    8  A    between atoms: C_11  and  O_14
    9  A    between atoms: C_12  and  C_17
   10  A    between atoms: O_14  and  C_22
   11  A    between atoms: N_19  and  C_37
                            x       y       z     vdW  Elec       q    Type
                         _______ _______ _______ _____ _____    ______ ____

>  <TORSDO>
F 11

$$$$
=
 OpenBabel10262422233D

 43 48  0  0  1  0  0  0  0  0999 V2000
  180.8170  179.1130  140.2040 C   0  0  0  0  0  0  0  0  0  0  0  0
  184.2940  178.5380  143.8000 C   0  0  0  0  0  0  0  0  0  0  0  0
  186.6940  178.1520  142.5020 C   0  0  0  0  0  0  0  0  0  0  0  0
  181.9660  178.9110  142.3260 C   0  0  0  0  0  0  0  0  0  0  0  0
  182.0250  178.9240  139.5260 C   0  0  0  0  0  3  0  0  0  0  0  0
  179.3360  179.3460  139.3030 Cl  0  0  0  0  0  0  0  0  0  0  0  0
  183.1900  178.7180  141.6440 C   0  0  0  0  0  0  0  0  0  0  0  0
  180.7870  179.1050  141.6010 C   0  0  0  0  0  3  0  0  0  0  0  0
  183.2070  178.7260  140.2420 C   0  0  0  0  0  3  0  0  0  0  0  0
  185.5590  178.3350  141.7800 N   0  0  0  0  0  0  0  0  0  0  0  0
  184.3600  178.5260  142.3940 C   0  0  0  0  0  0  0  0  0  0  0  0
  183.0570  178.7280  144.4260 C   0  0  0  0  0  3  0  0  0  0  0  0
  185.4830  178.3660  144.5270 C   0  0  0  0  0  0  0  0  0  0  0  0
  186.6510  178.1730  143.8590 N   0  0  0  0  0  0  0  0  0  0  0  0
  181.9320  178.9080  143.6840 N   0  0  0  0  0  0  0  0  0  0  0  0
  185.5080  178.3940  146.3280 S   0  0  0  0  0  0  0  0  0  0  0  0
  189.4040  177.0140  145.9490 C   0  0  0  0  0  2  0  0  0  0  0  0
  189.6690  176.8330  147.3760 N   0  0  0  0  0  0  0  0  0  0  0  0
  187.7410  178.2190  147.9760 C   0  0  0  0  0  2  0  0  0  0  0  0
  187.9010  177.1170  145.7060 C   0  0  0  0  0  2  0  0  0  0  0  0
  187.3260  178.2850  146.5070 C   0  0  0  0  0  3  0  0  0  0  0  0
  189.2530  178.0510  148.0730 C   0  0  0  0  0  2  0  0  0  0  0  0
  191.7310  177.1020  146.3250 O   0  0  0  0  0  1  0  0  0  0  0  0
  191.1110  176.7380  147.5210 C   0  0  0  0  0  2  0  0  0  0  0  0
  187.9980  178.0020  141.8060 C   0  0  0  0  0  2  0  0  0  0  0  0
  188.5370  176.7470  142.1010 O   0  0  0  0  0  0  0  0  0  0  0  0
  189.8700  176.8130  141.6820 C   0  0  2  0  0  3  0  0  0  0  0  0
  191.8900  177.1820  142.8980 O   0  0  0  0  0  1  0  0  0  0  0  0
  190.6570  177.7530  142.5790 C   0  0  0  0  0  2  0  0  0  0  0  0
  189.9520  177.2640  140.2250 C   0  0  0  0  0  2  0  0  0  0  0  0
  190.7350  176.3250  139.4200 N   0  0  0  0  0  0  0  0  0  0  0  0
  191.3800  175.9880  137.1700 N   0  0  0  0  0  2  0  0  0  0  0  0
  192.0760  176.8570  139.2810 C   0  0  0  0  0  2  0  0  0  0  0  0
  190.2340  176.2200  138.0430 C   0  0  1  0  0  0  0  0  0  0  0  0
  189.3690  175.1430  137.9610 F   0  0  0  0  0  0  0  0  0  0  0  0
  192.5390  176.4850  137.8940 C   0  0  0  0  0  2  0  0  0  0  0  0
  189.5610  177.4200  137.6310 O   0  0  0  0  0  0  0  0  0  0  0  0
  188.2400  177.4730  137.1670 C   0  0  0  0  0  0  0  0  0  0  0  0
  186.5910  177.3570  135.3860 C   0  0  0  0  0  3  0  0  0  0  0  0
  185.8840  177.7810  137.6620 C   0  0  0  0  0  3  0  0  0  0  0  0
  185.5720  177.6010  136.3110 C   0  0  0  0  0  3  0  0  0  0  0  0
  187.2140  177.7190  138.0860 C   0  0  0  0  0  3  0  0  0  0  0  0
  187.9200  177.2920  135.8120 C   0  0  0  0  0  3  0  0  0  0  0  0
  1  8  1  0  0  0  0
  2 12  1  0  0  0  0
  2 13  1  0  0  0  0
  3 14  1  0  0  0  0
  4 15  1  0  0  0  0
  5  1  2  0  0  0  0
  5  9  1  0  0  0  0
  6  1  1  0  0  0  0
  7  4  1  0  0  0  0
  7 11  1  0  0  0  0
  8  4  2  0  0  0  0
  9  7  2  0  0  0  0
 10 11  1  0  0  0  0
 10  3  2  0  0  0  0
 11  2  2  0  0  0  0
 13 16  1  0  0  0  0
 14 13  2  0  0  0  0
 15 12  2  0  0  0  0
 16 21  1  0  0  0  0
 17 18  1  0  0  0  0
 18 24  1  0  0  0  0
 18 22  1  0  0  0  0
 19 22  1  0  0  0  0
 20 17  1  0  0  0  0
 20 21  1  0  0  0  0
 21 19  1  0  0  0  0
 23 24  1  0  0  0  0
 25 26  1  0  0  0  0
 25  3  1  0  0  0  0
 27 30  1  6  0  0  0
 27 26  1  0  0  0  0
 27 29  1  0  0  0  0
 29 28  1  0  0  0  0
 31 30  1  0  0  0  0
 32 36  1  0  0  0  0
 32 34  1  0  0  0  0
 33 31  1  0  0  0  0
 34 35  1  6  0  0  0
 34 31  1  0  0  0  0
 36 33  1  0  0  0  0
 37 34  1  0  0  0  0
 38 37  1  0  0  0  0
 38 42  1  0  0  0  0
 39 43  1  0  0  0  0
 39 41  2  0  0  0  0
 40 42  2  0  0  0  0
 41 40  1  0  0  0  0
 43 38  2  0  0  0  0
M  END
>  <MODEL>
6

>  <REMARK>
 VINA RESULT:      -8.2      2.675      7.181
  Name = 
  11 active torsions:
  status: ('A' for Active; 'I' for Inactive)
    1  A    between atoms: S_1  and  C_34
    2  A    between atoms: S_1  and  C_35
    3  A    between atoms: C_2  and  O_6
    4  A    between atoms: C_2  and  C_13
    5  A    between atoms: C_3  and  N_4
    6  A    between atoms: C_3  and  C_12
    7  A    between atoms: O_6  and  C_12
    8  A    between atoms: C_11  and  O_14
    9  A    between atoms: C_12  and  C_17
   10  A    between atoms: O_14  and  C_22
   11  A    between atoms: N_19  and  C_37
                            x       y       z     vdW  Elec       q    Type
                         _______ _______ _______ _____ _____    ______ ____

>  <TORSDO>
F 11

$$$$
=
 OpenBabel10262422233D

 43 48  0  0  1  0  0  0  0  0999 V2000
  191.0150  176.7440  145.9760 C   0  0  0  0  0  0  0  0  0  0  0  0
  189.4220  177.8230  141.3230 C   0  0  0  0  0  0  0  0  0  0  0  0
  186.7850  178.5850  141.5650 C   0  0  0  0  0  0  0  0  0  0  0  0
  190.8650  177.0880  143.5840 C   0  0  0  0  0  0  0  0  0  0  0  0
  189.6800  177.1320  146.1220 C   0  0  0  0  0  3  0  0  0  0  0  0
  191.9460  176.2720  147.3810 Cl  0  0  0  0  0  0  0  0  0  0  0  0
  189.5130  177.4810  143.7270 C   0  0  0  0  0  0  0  0  0  0  0  0
  191.6060  176.7200  144.7100 C   0  0  0  0  0  3  0  0  0  0  0  0
  188.9310  177.4980  145.0020 C   0  0  0  0  0  3  0  0  0  0  0  0
  187.4870  178.2280  142.6700 N   0  0  0  0  0  0  0  0  0  0  0  0
  188.7900  177.8460  142.5810 C   0  0  0  0  0  0  0  0  0  0  0  0
  190.7600  177.4220  141.2370 C   0  0  0  0  0  3  0  0  0  0  0  0
  188.6830  178.2150  140.1960 C   0  0  0  0  0  0  0  0  0  0  0  0
  187.3820  178.5810  140.3460 N   0  0  0  0  0  0  0  0  0  0  0  0
  191.4440  177.0670  142.3560 N   0  0  0  0  0  0  0  0  0  0  0  0
  189.4090  178.2480  138.5480 S   0  0  0  0  0  0  0  0  0  0  0  0
  189.6580  174.4120  136.9810 C   0  0  0  0  0  2  0  0  0  0  0  0
  188.5240  174.5190  136.0650 N   0  0  0  0  0  0  0  0  0  0  0  0
  187.6890  176.5070  137.2270 C   0  0  0  0  0  2  0  0  0  0  0  0
  190.1100  175.8030  137.4190 C   0  0  0  0  0  2  0  0  0  0  0  0
  188.9490  176.5360  138.0900 C   0  0  0  0  0  3  0  0  0  0  0  0
  187.3900  175.0720  136.8070 C   0  0  0  0  0  2  0  0  0  0  0  0
  189.3090  172.4410  135.3640 O   0  0  0  0  0  1  0  0  0  0  0  0
  188.1610  173.1630  135.6930 C   0  0  0  0  0  2  0  0  0  0  0  0
  185.3810  179.0530  141.7000 C   0  0  0  0  0  2  0  0  0  0  0  0
  185.2830  179.9030  142.8040 O   0  0  0  0  0  0  0  0  0  0  0  0
  184.1810  179.4350  143.5290 C   0  0  2  0  0  3  0  0  0  0  0  0
  183.8010  179.0010  145.8450 O   0  0  0  0  0  1  0  0  0  0  0  0
  184.6460  178.7010  144.7760 C   0  0  0  0  0  2  0  0  0  0  0  0
  183.3150  178.5250  142.6610 C   0  0  0  0  0  2  0  0  0  0  0  0
  182.0300  179.1530  142.3490 N   0  0  0  0  0  0  0  0  0  0  0  0
  180.0840  178.7310  141.0740 N   0  0  0  0  0  2  0  0  0  0  0  0
  181.0340  178.6240  143.2600 C   0  0  0  0  0  2  0  0  0  0  0  0
  181.5400  178.7870  141.0140 C   0  0  1  0  0  0  0  0  0  0  0  0
  181.9250  179.7640  140.1110 F   0  0  0  0  0  0  0  0  0  0  0  0
  179.7510  178.5190  142.4730 C   0  0  0  0  0  2  0  0  0  0  0  0
  182.0460  177.5090  140.5960 O   0  0  0  0  0  0  0  0  0  0  0  0
  182.4190  177.1910  139.2840 C   0  0  0  0  0  0  0  0  0  0  0  0
  184.0460  177.1160  137.4790 C   0  0  0  0  0  3  0  0  0  0  0  0
  181.8040  176.2760  137.1210 C   0  0  0  0  0  3  0  0  0  0  0  0
  183.0920  176.5320  136.6420 C   0  0  0  0  0  3  0  0  0  0  0  0
  181.4700  176.6080  138.4370 C   0  0  0  0  0  3  0  0  0  0  0  0
  183.7120  177.4430  138.7970 C   0  0  0  0  0  3  0  0  0  0  0  0
  1  5  1  0  0  0  0
  1  6  1  0  0  0  0
  2 11  1  0  0  0  0
  3 25  1  0  0  0  0
  3 10  2  0  0  0  0
  4  7  1  0  0  0  0
  4  8  1  0  0  0  0
  7  9  1  0  0  0  0
  8  1  2  0  0  0  0
  9  5  2  0  0  0  0
 11 10  1  0  0  0  0
 11  7  2  0  0  0  0
 12  2  2  0  0  0  0
 12 15  1  0  0  0  0
 13 14  2  0  0  0  0
 13  2  1  0  0  0  0
 14  3  1  0  0  0  0
 15  4  2  0  0  0  0
 16 13  1  0  0  0  0
 17 20  1  0  0  0  0
 18 22  1  0  0  0  0
 18 17  1  0  0  0  0
 19 21  1  0  0  0  0
 20 21  1  0  0  0  0
 21 16  1  0  0  0  0
 22 19  1  0  0  0  0
 23 24  1  0  0  0  0
 24 18  1  0  0  0  0
 25 26  1  0  0  0  0
 26 27  1  0  0  0  0
 27 30  1  6  0  0  0
 27 29  1  0  0  0  0
 29 28  1  0  0  0  0
 31 30  1  0  0  0  0
 31 33  1  0  0  0  0
 32 36  1  0  0  0  0
 34 35  1  6  0  0  0
 34 32  1  0  0  0  0
 34 31  1  0  0  0  0
 36 33  1  0  0  0  0
 37 34  1  0  0  0  0
 38 37  1  0  0  0  0
 39 43  2  0  0  0  0
 40 42  1  0  0  0  0
 41 40  2  0  0  0  0
 41 39  1  0  0  0  0
 42 38  2  0  0  0  0
 43 38  1  0  0  0  0
M  END
>  <MODEL>
7

>  <REMARK>
 VINA RESULT:      -8.2      3.445      7.776
  Name = 
  11 active torsions:
  status: ('A' for Active; 'I' for Inactive)
    1  A    between atoms: S_1  and  C_34
    2  A    between atoms: S_1  and  C_35
    3  A    between atoms: C_2  and  O_6
    4  A    between atoms: C_2  and  C_13
    5  A    between atoms: C_3  and  N_4
    6  A    between atoms: C_3  and  C_12
    7  A    between atoms: O_6  and  C_12
    8  A    between atoms: C_11  and  O_14
    9  A    between atoms: C_12  and  C_17
   10  A    between atoms: O_14  and  C_22
   11  A    between atoms: N_19  and  C_37
                            x       y       z     vdW  Elec       q    Type
                         _______ _______ _______ _____ _____    ______ ____

>  <TORSDO>
F 11

$$$$
=
 OpenBabel10262422233D

 43 48  0  0  1  0  0  0  0  0999 V2000
  188.3280  177.5640  147.0620 C   0  0  0  0  0  0  0  0  0  0  0  0
  190.2680  177.4670  142.4170 C   0  0  0  0  0  0  0  0  0  0  0  0
  188.1670  177.9230  140.6910 C   0  0  0  0  0  0  0  0  0  0  0  0
  189.8160  177.3930  145.1600 C   0  0  0  0  0  0  0  0  0  0  0  0
  187.2490  177.8010  146.2050 C   0  0  0  0  0  3  0  0  0  0  0  0
  188.0730  177.5070  148.7920 Cl  0  0  0  0  0  0  0  0  0  0  0  0
  188.7280  177.6330  144.2880 C   0  0  0  0  0  0  0  0  0  0  0  0
  189.6080  177.3580  146.5410 C   0  0  0  0  0  3  0  0  0  0  0  0
  187.4470  177.8350  144.8230 C   0  0  0  0  0  3  0  0  0  0  0  0
  187.9450  177.8890  142.0300 N   0  0  0  0  0  0  0  0  0  0  0  0
  188.9610  177.6640  142.9050 C   0  0  0  0  0  0  0  0  0  0  0  0
  191.3080  177.2290  143.3210 C   0  0  0  0  0  3  0  0  0  0  0  0
  190.4790  177.5260  141.0300 C   0  0  0  0  0  0  0  0  0  0  0  0
  189.4230  177.7480  140.2030 N   0  0  0  0  0  0  0  0  0  0  0  0
  191.0630  177.1970  144.6570 N   0  0  0  0  0  0  0  0  0  0  0  0
  192.1160  177.3150  140.3080 S   0  0  0  0  0  0  0  0  0  0  0  0
  190.1780  175.2050  137.3040 C   0  0  0  0  0  2  0  0  0  0  0  0
  191.3730  174.8330  136.5480 N   0  0  0  0  0  0  0  0  0  0  0  0
  192.7140  176.5200  137.7120 C   0  0  0  0  0  2  0  0  0  0  0  0
  190.5670  175.6410  138.7150 C   0  0  0  0  0  2  0  0  0  0  0  0
  191.5410  176.8160  138.6440 C   0  0  0  0  0  3  0  0  0  0  0  0
  192.1880  176.0350  136.3650 C   0  0  0  0  0  2  0  0  0  0  0  0
  189.6200  174.8890  135.0150 O   0  0  0  0  0  1  0  0  0  0  0  0
  190.9200  174.4280  135.2290 C   0  0  0  0  0  2  0  0  0  0  0  0
  187.0490  178.2270  139.7620 C   0  0  0  0  0  2  0  0  0  0  0  0
  187.4550  177.9660  138.4510 O   0  0  0  0  0  0  0  0  0  0  0  0
  186.3060  177.5100  137.7960 C   0  0  2  0  0  3  0  0  0  0  0  0
  186.2890  176.4940  135.6360 O   0  0  0  0  0  1  0  0  0  0  0  0
  186.4410  177.7140  136.2960 C   0  0  0  0  0  2  0  0  0  0  0  0
  185.0660  178.2270  138.3260 C   0  0  0  0  0  2  0  0  0  0  0  0
  183.8640  177.4080  138.1560 N   0  0  0  0  0  0  0  0  0  0  0  0
  181.6210  177.3270  138.9000 N   0  0  0  0  0  2  0  0  0  0  0  0
  183.0520  178.0070  137.1150 C   0  0  0  0  0  2  0  0  0  0  0  0
  183.0060  177.4220  139.3480 C   0  0  1  0  0  0  0  0  0  0  0  0
  183.3110  176.3230  140.1330 F   0  0  0  0  0  0  0  0  0  0  0  0
  181.6150  177.7980  137.5250 C   0  0  0  0  0  2  0  0  0  0  0  0
  183.1770  178.6280  140.1090 O   0  0  0  0  0  0  0  0  0  0  0  0
  183.1220  178.7020  141.5070 C   0  0  0  0  0  0  0  0  0  0  0  0
  184.1800  178.6780  143.6950 C   0  0  0  0  0  3  0  0  0  0  0  0
  181.7820  178.9510  143.5150 C   0  0  0  0  0  3  0  0  0  0  0  0
  182.9330  178.8520  144.3020 C   0  0  0  0  0  3  0  0  0  0  0  0
  181.8780  178.8740  142.1230 C   0  0  0  0  0  3  0  0  0  0  0  0
  184.2750  178.6050  142.3030 C   0  0  0  0  0  3  0  0  0  0  0  0
  1  6  1  0  0  0  0
  2 11  2  0  0  0  0
  2 12  1  0  0  0  0
  3 10  2  0  0  0  0
  4  8  2  0  0  0  0
  5  1  2  0  0  0  0
  7  9  2  0  0  0  0
  7  4  1  0  0  0  0
  8  1  1  0  0  0  0
  9  5  1  0  0  0  0
 10 11  1  0  0  0  0
 11  7  1  0  0  0  0
 12 15  2  0  0  0  0
 13  2  1  0  0  0  0
 14  3  1  0  0  0  0
 14 13  2  0  0  0  0
 15  4  1  0  0  0  0
 16 13  1  0  0  0  0
 17 20  1  0  0  0  0
 18 17  1  0  0  0  0
 19 21  1  0  0  0  0
 21 20  1  0  0  0  0
 21 16  1  0  0  0  0
 22 18  1  0  0  0  0
 22 19  1  0  0  0  0
 23 24  1  0  0  0  0
 24 18  1  0  0  0  0
 25  3  1  0  0  0  0
 26 25  1  0  0  0  0
 27 29  1  6  0  0  0
 27 30  1  0  0  0  0
 27 26  1  0  0  0  0
 28 29  1  0  0  0  0
 31 30  1  0  0  0  0
 31 34  1  0  0  0  0
 32 34  1  0  0  0  0
 33 36  1  0  0  0  0
 33 31  1  0  0  0  0
 34 37  1  0  0  0  0
 34 35  1  1  0  0  0
 36 32  1  0  0  0  0
 37 38  1  0  0  0  0
 38 42  2  0  0  0  0
 38 43  1  0  0  0  0
 39 41  1  0  0  0  0
 40 41  2  0  0  0  0
 42 40  1  0  0  0  0
 43 39  2  0  0  0  0
M  END
>  <MODEL>
8

>  <REMARK>
 VINA RESULT:      -8.2      3.098      6.978
  Name = 
  11 active torsions:
  status: ('A' for Active; 'I' for Inactive)
    1  A    between atoms: S_1  and  C_34
    2  A    between atoms: S_1  and  C_35
    3  A    between atoms: C_2  and  O_6
    4  A    between atoms: C_2  and  C_13
    5  A    between atoms: C_3  and  N_4
    6  A    between atoms: C_3  and  C_12
    7  A    between atoms: O_6  and  C_12
    8  A    between atoms: C_11  and  O_14
    9  A    between atoms: C_12  and  C_17
   10  A    between atoms: O_14  and  C_22
   11  A    between atoms: N_19  and  C_37
                            x       y       z     vdW  Elec       q    Type
                         _______ _______ _______ _____ _____    ______ ____

>  <TORSDO>
F 11

$$$$
=
 OpenBabel10262422233D

 43 48  0  0  1  0  0  0  0  0999 V2000
  190.7900  176.7750  145.9100 C   0  0  0  0  0  0  0  0  0  0  0  0
  189.3380  177.7810  141.1950 C   0  0  0  0  0  0  0  0  0  0  0  0
  186.7090  178.5920  141.3500 C   0  0  0  0  0  0  0  0  0  0  0  0
  190.7080  177.0700  143.5080 C   0  0  0  0  0  0  0  0  0  0  0  0
  189.4580  177.1880  146.0120 C   0  0  0  0  0  3  0  0  0  0  0  0
  191.6750  176.3180  147.3480 Cl  0  0  0  0  0  0  0  0  0  0  0  0
  189.3610  177.4880  143.6060 C   0  0  0  0  0  0  0  0  0  0  0  0
  191.4130  176.7140  144.6610 C   0  0  0  0  0  3  0  0  0  0  0  0
  188.7450  177.5430  144.8650 C   0  0  0  0  0  3  0  0  0  0  0  0
  187.3760  178.2460  142.4810 N   0  0  0  0  0  0  0  0  0  0  0  0
  188.6730  177.8410  142.4350 C   0  0  0  0  0  0  0  0  0  0  0  0
  190.6710  177.3560  141.1520 C   0  0  0  0  0  3  0  0  0  0  0  0
  188.6350  178.1610  140.0400 C   0  0  0  0  0  0  0  0  0  0  0  0
  187.3380  178.5520  140.1480 N   0  0  0  0  0  0  0  0  0  0  0  0
  191.3190  177.0130  142.2960 N   0  0  0  0  0  0  0  0  0  0  0  0
  189.4050  178.1460  138.4110 S   0  0  0  0  0  0  0  0  0  0  0  0
  189.7590  174.1860  137.2190 C   0  0  0  0  0  2  0  0  0  0  0  0
  188.8540  174.2630  136.0730 N   0  0  0  0  0  0  0  0  0  0  0  0
  187.9080  176.3740  136.8780 C   0  0  0  0  0  2  0  0  0  0  0  0
  190.1860  175.5890  137.6420 C   0  0  0  0  0  2  0  0  0  0  0  0
  188.9540  176.4230  137.9900 C   0  0  0  0  0  3  0  0  0  0  0  0
  187.6220  174.9220  136.5080 C   0  0  0  0  0  2  0  0  0  0  0  0
  189.6470  172.1920  135.3590 O   0  0  0  0  0  1  0  0  0  0  0  0
  188.5010  172.8970  135.7300 C   0  0  0  0  0  2  0  0  0  0  0  0
  185.3110  179.0850  141.4370 C   0  0  0  0  0  2  0  0  0  0  0  0
  184.9270  179.6030  140.1980 O   0  0  0  0  0  0  0  0  0  0  0  0
  183.6610  179.0620  139.9500 C   0  0  2  0  0  3  0  0  0  0  0  0
  181.8060  178.0070  141.0200 O   0  0  0  0  0  1  0  0  0  0  0  0
  182.9490  178.7700  141.2610 C   0  0  0  0  0  2  0  0  0  0  0  0
  183.7750  177.7940  139.1060 C   0  0  0  0  0  2  0  0  0  0  0  0
  183.4730  178.0630  137.6990 N   0  0  0  0  0  0  0  0  0  0  0  0
  182.3640  177.0500  135.8730 N   0  0  0  0  0  2  0  0  0  0  0  0
  182.1520  178.6560  137.6250 C   0  0  0  0  0  2  0  0  0  0  0  0
  183.3690  176.8310  136.9070 C   0  0  1  0  0  0  0  0  0  0  0  0
  184.5920  176.5760  136.3100 F   0  0  0  0  0  0  0  0  0  0  0  0
  181.5190  178.1280  136.3620 C   0  0  0  0  0  2  0  0  0  0  0  0
  182.9780  175.7110  137.7170 O   0  0  0  0  0  0  0  0  0  0  0  0
  183.2170  174.3690  137.3910 C   0  0  0  0  0  0  0  0  0  0  0  0
  184.6380  172.3980  137.3450 C   0  0  0  0  0  3  0  0  0  0  0  0
  182.4130  172.3050  136.3990 C   0  0  0  0  0  3  0  0  0  0  0  0
  183.6270  171.6820  136.7000 C   0  0  0  0  0  3  0  0  0  0  0  0
  182.2110  173.6450  136.7420 C   0  0  0  0  0  3  0  0  0  0  0  0
  184.4350  173.7370  137.6920 C   0  0  0  0  0  3  0  0  0  0  0  0
  1  5  1  0  0  0  0
  1  6  1  0  0  0  0
  2 11  1  0  0  0  0
  3 25  1  0  0  0  0
  3 10  2  0  0  0  0
  4  7  1  0  0  0  0
  4  8  1  0  0  0  0
  7  9  1  0  0  0  0
  8  1  2  0  0  0  0
  9  5  2  0  0  0  0
 11 10  1  0  0  0  0
 11  7  2  0  0  0  0
 12  2  2  0  0  0  0
 12 15  1  0  0  0  0
 13 14  2  0  0  0  0
 13  2  1  0  0  0  0
 14  3  1  0  0  0  0
 15  4  2  0  0  0  0
 16 13  1  0  0  0  0
 17 20  1  0  0  0  0
 18 22  1  0  0  0  0
 18 17  1  0  0  0  0
 19 21  1  0  0  0  0
 20 21  1  0  0  0  0
 21 16  1  0  0  0  0
 22 19  1  0  0  0  0
 23 24  1  0  0  0  0
 24 18  1  0  0  0  0
 26 25  1  0  0  0  0
 27 30  1  1  0  0  0
 27 26  1  0  0  0  0
 27 29  1  0  0  0  0
 28 29  1  0  0  0  0
 31 30  1  0  0  0  0
 32 36  1  0  0  0  0
 32 34  1  0  0  0  0
 33 31  1  0  0  0  0
 34 35  1  6  0  0  0
 34 31  1  0  0  0  0
 34 37  1  0  0  0  0
 36 33  1  0  0  0  0
 38 43  1  0  0  0  0
 38 37  1  0  0  0  0
 39 43  2  0  0  0  0
 40 41  2  0  0  0  0
 40 42  1  0  0  0  0
 41 39  1  0  0  0  0
 42 38  2  0  0  0  0
M  END
>  <MODEL>
9

>  <REMARK>
 VINA RESULT:      -8.1      3.933      8.342
  Name = 
  11 active torsions:
  status: ('A' for Active; 'I' for Inactive)
    1  A    between atoms: S_1  and  C_34
    2  A    between atoms: S_1  and  C_35
    3  A    between atoms: C_2  and  O_6
    4  A    between atoms: C_2  and  C_13
    5  A    between atoms: C_3  and  N_4
    6  A    between atoms: C_3  and  C_12
    7  A    between atoms: O_6  and  C_12
    8  A    between atoms: C_11  and  O_14
    9  A    between atoms: C_12  and  C_17
   10  A    between atoms: O_14  and  C_22
   11  A    between atoms: N_19  and  C_37
                            x       y       z     vdW  Elec       q    Type
                         _______ _______ _______ _____ _____    ______ ____

>  <TORSDO>
F 11

$$$$
