=
 OpenBabel10262420383D

 55 63  0  0  1  0  0  0  0  0999 V2000
  181.7330  178.6590  141.8090 C   0  0  0  0  0  3  0  0  0  0  0  0
  183.7130  179.2580  143.6880 C   0  0  0  0  0  0  0  0  0  0  0  0
  183.9990  179.3450  142.3190 C   0  0  0  0  0  3  0  0  0  0  0  0
  181.4540  178.5590  143.1750 C   0  0  0  0  0  3  0  0  0  0  0  0
  183.0130  179.0370  141.3750 C   0  0  0  0  0  0  0  0  0  0  0  0
  182.4440  178.8570  144.1130 C   0  0  0  0  0  3  0  0  0  0  0  0
  183.3220  179.1990  139.9180 C   0  0  2  0  0  3  0  0  0  0  0  0
  182.6440  175.7460  139.3880 C   0  0  0  0  0  1  0  0  0  0  0  0
  184.2570  175.8410  137.5080 C   0  0  2  0  0  3  0  0  0  0  0  0
  182.2940  178.4730  139.0660 C   0  0  2  0  0  3  0  0  0  0  0  0
  182.8970  176.3250  137.9940 C   0  0  2  0  0  3  0  0  0  0  0  0
  184.9670  178.5790  139.4910 S   0  0  0  0  0  0  0  0  0  0  0  0
  185.0290  177.0330  137.1790 N   0  0  0  0  0  0  0  0  0  0  0  0
  182.9280  177.8000  137.9230 N   0  0  2  0  0  0  0  0  0  0  0  0
  184.3410  178.1590  137.8270 C   0  0  1  0  0  3  0  0  0  0  0  0
  183.1200  173.8210  136.5340 C   0  0  0  0  0  1  0  0  0  0  0  0
  184.1600  174.9030  136.2980 C   0  0  0  0  0  3  0  0  0  0  0  0
  183.8590  175.6430  135.0030 C   0  0  0  0  0  1  0  0  0  0  0  0
  180.7500  179.0800  137.2000 C   0  0  0  0  0  1  0  0  0  0  0  0
  181.1850  179.4240  138.6120 C   0  0  2  0  0  3  0  0  0  0  0  0
  181.6110  180.8860  138.6970 C   0  0  0  0  0  2  0  0  0  0  0  0
  180.8460  181.7240  137.6890 C   0  0  0  0  0  1  0  0  0  0  0  0
  186.4790  176.9340  137.4380 C   0  0  0  0  0  2  0  0  0  0  0  0
  188.5530  177.5740  136.1590 C   0  0  0  0  0  2  0  0  0  0  0  0
  187.8790  175.2480  136.2660 C   0  0  0  0  0  2  0  0  0  0  0  0
  189.2390  175.3080  135.6070 C   0  0  0  0  0  2  0  0  0  0  0  0
  189.7640  176.7090  135.8590 C   0  0  2  0  0  3  0  0  0  0  0  0
  187.3390  176.6560  136.1980 C   0  0  1  0  0  3  0  0  0  0  0  0
  192.0050  176.2790  136.9690 C   0  0  0  0  0  0  0  0  0  0  0  0
  192.8370  176.3280  138.2000 C   0  0  0  0  0  1  0  0  0  0  0  0
  190.6430  176.7150  137.0220 N   0  0  0  0  0  2  0  0  0  0  0  0
  192.5050  175.8570  135.8910 O   0  0  0  0  0  0  0  0  0  0  0  0
  184.7460  179.6250  144.6940 C   0  0  0  0  0  2  0  0  0  0  0  0
  185.0250  178.4630  145.6370 C   0  0  0  0  0  2  0  0  0  0  0  0
  185.7140  177.3340  144.8810 C   0  0  0  0  0  2  0  0  0  0  0  0
  186.9590  176.8830  145.6300 C   0  0  0  0  0  2  0  0  0  0  0  0
  189.3150  177.8870  144.0730 C   0  0  2  0  0  0  0  0  0  0  0  0
  190.6080  177.6910  141.4760 C   0  0  2  0  0  3  0  0  0  0  0  0
  189.5680  176.6070  141.9250 C   0  0  2  0  0  0  0  0  0  0  0  0
  189.5080  178.6750  147.9380 O   0  0  0  0  0  0  0  0  0  0  0  0
  187.7280  178.0360  146.0860 N   0  0  0  0  0  0  0  0  0  0  0  0
  192.0030  176.7080  143.4580 C   0  0  0  0  0  2  0  0  0  0  0  0
  190.1300  175.3780  142.6490 C   0  0  0  0  0  2  0  0  0  0  0  0
  190.0940  176.6420  140.5190 C   0  0  0  0  0  2  0  0  0  0  0  0
  188.9890  177.5010  147.1590 S   0  0  0  0  0  0  0  0  0  0  0  0
  189.8280  176.5940  144.7830 C   0  0  1  0  0  3  0  0  0  0  0  0
  188.4590  176.4700  148.1160 O   0  0  0  0  0  0  0  0  0  0  0  0
  190.8410  175.8240  143.9100 C   0  0  2  0  0  3  0  0  0  0  0  0
  190.5440  178.7590  143.6580 C   0  0  2  0  0  3  0  0  0  0  0  0
  188.3430  178.7310  144.9440 C   0  0  0  0  0  2  0  0  0  0  0  0
  191.4720  177.9570  142.7280 C   0  0  2  0  0  3  0  0  0  0  0  0
  190.3190  176.8090  146.2040 C   0  0  0  0  0  2  0  0  0  0  0  0
  188.0400  178.5120  142.0650 O   0  0  0  0  0  1  0  0  0  0  0  0
  191.3100  179.3850  144.8210 C   0  0  0  0  0  1  0  0  0  0  0  0
  188.5730  177.4280  142.7750 C   0  0  2  0  0  3  0  0  0  0  0  0
  1  4  1  0  0  0  0
  2  6  1  0  0  0  0
  2 33  1  0  0  0  0
  3  2  2  0  0  0  0
  4  6  2  0  0  0  0
  5  1  2  0  0  0  0
  5  3  1  0  0  0  0
  7  5  1  1  0  0  0
  9 17  1  6  0  0  0
  9 11  1  0  0  0  0
 10 20  1  6  0  0  0
 10  7  1  0  0  0  0
 11  8  1  1  0  0  0
 12  7  1  0  0  0  0
 13 23  1  0  0  0  0
 13  9  1  0  0  0  0
 13 15  1  0  0  0  0
 14 11  1  0  0  0  0
 14 10  1  0  0  0  0
 15 14  1  0  0  0  0
 15 12  1  0  0  0  0
 17 16  1  0  0  0  0
 18 17  1  0  0  0  0
 19 20  1  0  0  0  0
 20 21  1  0  0  0  0
 22 21  1  0  0  0  0
 24 28  1  0  0  0  0
 26 27  1  0  0  0  0
 26 25  1  0  0  0  0
 27 24  1  0  0  0  0
 27 31  1  0  0  0  0
 28 25  1  0  0  0  0
 28 23  1  0  0  0  0
 29 31  1  0  0  0  0
 29 30  1  0  0  0  0
 32 29  2  0  0  0  0
 33 34  1  0  0  0  0
 35 36  1  0  0  0  0
 35 34  1  0  0  0  0
 36 41  1  0  0  0  0
 37 46  1  0  0  0  0
 37 50  1  0  0  0  0
 38 39  1  0  0  0  0
 38 51  1  0  0  0  0
 39 43  1  0  0  0  0
 39 55  1  0  0  0  0
 41 45  1  0  0  0  0
 42 48  1  0  0  0  0
 43 48  1  0  0  0  0
 44 38  1  0  0  0  0
 44 39  1  0  0  0  0
 45 40  2  0  0  0  0
 45 47  2  0  0  0  0
 46 52  1  0  0  0  0
 48 46  1  0  0  0  0
 49 37  1  0  0  0  0
 49 54  1  0  0  0  0
 50 41  1  0  0  0  0
 51 42  1  0  0  0  0
 51 49  1  0  0  0  0
 52 45  1  0  0  0  0
 53 55  1  0  0  0  0
 55 37  1  0  0  0  0
M  END
>  <MODEL>
1

>  <REMARK>
 VINA RESULT:      -7.4      0.000      0.000
  Name = 
  12 active torsions:
  status: ('A' for Active; 'I' for Inactive)
    1  A    between atoms: C_2  and  C_44
    2  A    between atoms: C_4  and  C_40
    3  A    between atoms: N_8  and  C_43
    4  A    between atoms: C_16  and  C_17
    5  A    between atoms: C_19  and  C_40
    6  A    between atoms: C_27  and  C_54
    7  A    between atoms: N_32  and  C_48
    8  A    between atoms: C_33  and  N_36
    9  A    between atoms: C_33  and  C_52
   10  A    between atoms: C_35  and  C_43
   11  A    between atoms: C_35  and  C_51
   12  A    between atoms: C_51  and  C_54
                            x       y       z     vdW  Elec       q    Type
                         _______ _______ _______ _____ _____    ______ ____

>  <TORSDO>
F 12

$$$$
=
 OpenBabel10262420383D

 55 63  0  0  1  0  0  0  0  0999 V2000
  180.6510  178.6250  141.7450 C   0  0  0  0  0  3  0  0  0  0  0  0
  182.7240  178.9520  143.5890 C   0  0  0  0  0  0  0  0  0  0  0  0
  183.0190  178.7120  142.2410 C   0  0  0  0  0  3  0  0  0  0  0  0
  180.3580  178.8500  143.0940 C   0  0  0  0  0  3  0  0  0  0  0  0
  181.9840  178.5390  141.3160 C   0  0  0  0  0  0  0  0  0  0  0  0
  181.3950  179.0120  144.0150 C   0  0  0  0  0  3  0  0  0  0  0  0
  182.3230  178.3490  139.8690 C   0  0  2  0  0  3  0  0  0  0  0  0
  179.9630  175.6940  139.6650 C   0  0  0  0  0  1  0  0  0  0  0  0
  181.3830  174.7290  137.8750 C   0  0  2  0  0  3  0  0  0  0  0  0
  181.0620  178.1560  139.0430 C   0  0  2  0  0  3  0  0  0  0  0  0
  180.4680  175.8940  138.2340 C   0  0  2  0  0  3  0  0  0  0  0  0
  183.4120  176.9300  139.5990 S   0  0  0  0  0  0  0  0  0  0  0  0
  182.6550  175.3110  137.4670 N   0  0  0  0  0  0  0  0  0  0  0  0
  181.2530  177.1250  138.0120 N   0  0  2  0  0  0  0  0  0  0  0  0
  182.6490  176.6970  137.9560 C   0  0  1  0  0  3  0  0  0  0  0  0
  180.0030  172.6930  137.3540 C   0  0  0  0  0  1  0  0  0  0  0  0
  180.8080  173.8380  136.7660 C   0  0  0  0  0  3  0  0  0  0  0  0
  179.9620  174.6160  135.7680 C   0  0  0  0  0  1  0  0  0  0  0  0
  180.0710  179.2500  137.0280 C   0  0  0  0  0  1  0  0  0  0  0  0
  180.5970  179.4800  138.4320 C   0  0  2  0  0  3  0  0  0  0  0  0
  181.7040  180.5290  138.4210 C   0  0  0  0  0  2  0  0  0  0  0  0
  181.1160  181.9230  138.3090 C   0  0  0  0  0  1  0  0  0  0  0  0
  183.8490  174.5160  137.8130 C   0  0  0  0  0  2  0  0  0  0  0  0
  185.3770  175.5400  136.0920 C   0  0  0  0  0  2  0  0  0  0  0  0
  185.9840  173.4380  137.1360 C   0  0  0  0  0  2  0  0  0  0  0  0
  187.1580  173.8990  136.3030 C   0  0  0  0  0  2  0  0  0  0  0  0
  186.8760  175.3460  135.9470 C   0  0  2  0  0  3  0  0  0  0  0  0
  184.8040  174.2420  136.6440 C   0  0  1  0  0  3  0  0  0  0  0  0
  187.8550  177.6010  136.5760 C   0  0  0  0  0  0  0  0  0  0  0  0
  188.5410  178.4440  137.5920 C   0  0  0  0  0  1  0  0  0  0  0  0
  187.5550  176.2360  136.8820 N   0  0  0  0  0  2  0  0  0  0  0  0
  187.5420  178.0960  135.4590 O   0  0  0  0  0  0  0  0  0  0  0  0
  183.8220  179.1780  144.5690 C   0  0  0  0  0  2  0  0  0  0  0  0
  184.9980  178.2510  144.2930 C   0  0  0  0  0  2  0  0  0  0  0  0
  185.4650  177.6030  145.5900 C   0  0  0  0  0  2  0  0  0  0  0  0
  186.9210  177.1770  145.4700 C   0  0  0  0  0  2  0  0  0  0  0  0
  189.4110  177.9430  143.9880 C   0  0  2  0  0  0  0  0  0  0  0  0
  190.7340  177.6610  141.4140 C   0  0  2  0  0  3  0  0  0  0  0  0
  189.5680  176.6920  141.8140 C   0  0  2  0  0  0  0  0  0  0  0  0
  189.6000  178.6150  147.8750 O   0  0  0  0  0  0  0  0  0  0  0  0
  187.8040  178.2250  145.9710 N   0  0  0  0  0  0  0  0  0  0  0  0
  191.9620  176.4810  143.3990 C   0  0  0  0  0  2  0  0  0  0  0  0
  189.9710  175.3910  142.5180 C   0  0  0  0  0  2  0  0  0  0  0  0
  190.1280  176.7000  140.4210 C   0  0  0  0  0  2  0  0  0  0  0  0
  188.9700  177.5250  147.0560 S   0  0  0  0  0  0  0  0  0  0  0  0
  189.7570  176.5850  144.6750 C   0  0  1  0  0  3  0  0  0  0  0  0
  188.3060  176.5400  147.9750 O   0  0  0  0  0  0  0  0  0  0  0  0
  190.6970  175.7250  143.8040 C   0  0  2  0  0  3  0  0  0  0  0  0
  190.7390  178.6790  143.6210 C   0  0  2  0  0  3  0  0  0  0  0  0
  188.5200  178.8720  144.8600 C   0  0  0  0  0  2  0  0  0  0  0  0
  191.5930  177.7990  142.6900 C   0  0  2  0  0  3  0  0  0  0  0  0
  190.2360  176.7100  146.1110 C   0  0  0  0  0  2  0  0  0  0  0  0
  188.2620  178.7540  141.9710 O   0  0  0  0  0  1  0  0  0  0  0  0
  191.5440  179.1880  144.8150 C   0  0  0  0  0  1  0  0  0  0  0  0
  188.6520  177.6010  142.6630 C   0  0  2  0  0  3  0  0  0  0  0  0
  1  4  1  0  0  0  0
  2  6  1  0  0  0  0
  2 33  1  0  0  0  0
  3  2  2  0  0  0  0
  4  6  2  0  0  0  0
  5  1  2  0  0  0  0
  5  3  1  0  0  0  0
  7  5  1  1  0  0  0
  9 17  1  6  0  0  0
  9 11  1  0  0  0  0
 10 20  1  6  0  0  0
 10  7  1  0  0  0  0
 11  8  1  1  0  0  0
 12  7  1  0  0  0  0
 13 23  1  0  0  0  0
 13  9  1  0  0  0  0
 13 15  1  0  0  0  0
 14 11  1  0  0  0  0
 14 10  1  0  0  0  0
 15 14  1  0  0  0  0
 15 12  1  0  0  0  0
 17 16  1  0  0  0  0
 18 17  1  0  0  0  0
 19 20  1  0  0  0  0
 21 20  1  0  0  0  0
 22 21  1  0  0  0  0
 24 28  1  0  0  0  0
 26 25  1  0  0  0  0
 27 24  1  0  0  0  0
 27 26  1  0  0  0  0
 27 31  1  0  0  0  0
 28 25  1  0  0  0  0
 28 23  1  0  0  0  0
 29 31  1  0  0  0  0
 29 30  1  0  0  0  0
 32 29  2  0  0  0  0
 34 33  1  0  0  0  0
 34 35  1  0  0  0  0
 36 35  1  0  0  0  0
 36 41  1  0  0  0  0
 37 46  1  0  0  0  0
 37 50  1  0  0  0  0
 38 39  1  0  0  0  0
 38 51  1  0  0  0  0
 39 43  1  0  0  0  0
 39 55  1  0  0  0  0
 41 45  1  0  0  0  0
 42 48  1  0  0  0  0
 43 48  1  0  0  0  0
 44 38  1  0  0  0  0
 44 39  1  0  0  0  0
 45 40  2  0  0  0  0
 45 47  2  0  0  0  0
 46 52  1  0  0  0  0
 48 46  1  0  0  0  0
 49 37  1  0  0  0  0
 49 54  1  0  0  0  0
 50 41  1  0  0  0  0
 51 42  1  0  0  0  0
 51 49  1  0  0  0  0
 52 45  1  0  0  0  0
 53 55  1  0  0  0  0
 55 37  1  0  0  0  0
M  END
>  <MODEL>
2

>  <REMARK>
 VINA RESULT:      -7.0      1.534      2.129
  Name = 
  12 active torsions:
  status: ('A' for Active; 'I' for Inactive)
    1  A    between atoms: C_2  and  C_44
    2  A    between atoms: C_4  and  C_40
    3  A    between atoms: N_8  and  C_43
    4  A    between atoms: C_16  and  C_17
    5  A    between atoms: C_19  and  C_40
    6  A    between atoms: C_27  and  C_54
    7  A    between atoms: N_32  and  C_48
    8  A    between atoms: C_33  and  N_36
    9  A    between atoms: C_33  and  C_52
   10  A    between atoms: C_35  and  C_43
   11  A    between atoms: C_35  and  C_51
   12  A    between atoms: C_51  and  C_54
                            x       y       z     vdW  Elec       q    Type
                         _______ _______ _______ _____ _____    ______ ____

>  <TORSDO>
F 12

$$$$
=
 OpenBabel10262420383D

 55 63  0  0  1  0  0  0  0  0999 V2000
  187.3280  177.8990  146.7400 C   0  0  0  0  0  3  0  0  0  0  0  0
  185.4340  178.9490  144.9750 C   0  0  0  0  0  0  0  0  0  0  0  0
  186.4190  178.0740  144.5030 C   0  0  0  0  0  3  0  0  0  0  0  0
  186.3520  178.7840  147.2080 C   0  0  0  0  0  3  0  0  0  0  0  0
  187.3750  177.5520  145.3810 C   0  0  0  0  0  0  0  0  0  0  0  0
  185.4070  179.3090  146.3250 C   0  0  0  0  0  3  0  0  0  0  0  0
  188.3800  176.5670  144.8670 C   0  0  2  0  0  3  0  0  0  0  0  0
  190.3050  179.2360  143.5130 C   0  0  0  0  0  1  0  0  0  0  0  0
  191.0920  177.6360  141.7900 C   0  0  2  0  0  3  0  0  0  0  0  0
  189.7950  177.0530  145.1350 C   0  0  2  0  0  3  0  0  0  0  0  0
  191.1410  177.9770  143.2740 C   0  0  2  0  0  3  0  0  0  0  0  0
  188.2000  176.2660  143.0920 S   0  0  0  0  0  0  0  0  0  0  0  0
  190.6050  176.2650  141.6940 N   0  0  0  0  0  0  0  0  0  0  0  0
  190.6800  176.7720  143.9950 N   0  0  2  0  0  0  0  0  0  0  0  0
  189.9970  175.9530  142.9950 C   0  0  1  0  0  3  0  0  0  0  0  0
  193.3820  176.6440  141.4840 C   0  0  0  0  0  1  0  0  0  0  0  0
  192.4530  177.7820  141.0980 C   0  0  0  0  0  3  0  0  0  0  0  0
  192.3360  177.8710  139.5840 C   0  0  0  0  0  1  0  0  0  0  0  0
  190.3330  177.4980  147.5330 C   0  0  0  0  0  1  0  0  0  0  0  0
  190.3460  176.4550  146.4320 C   0  0  2  0  0  3  0  0  0  0  0  0
  191.7490  175.8860  146.2520 C   0  0  0  0  0  2  0  0  0  0  0  0
  192.4520  175.7700  147.5930 C   0  0  0  0  0  1  0  0  0  0  0  0
  189.7700  175.9760  140.5110 C   0  0  0  0  0  2  0  0  0  0  0  0
  189.5490  176.5830  138.0760 C   0  0  0  0  0  2  0  0  0  0  0  0
  188.4120  177.9140  139.7530 C   0  0  0  0  0  2  0  0  0  0  0  0
  187.9510  178.3880  138.3930 C   0  0  0  0  0  2  0  0  0  0  0  0
  188.4120  177.3330  137.4050 C   0  0  2  0  0  3  0  0  0  0  0  0
  189.6710  177.1220  139.4950 C   0  0  1  0  0  3  0  0  0  0  0  0
  186.4320  176.5470  136.0270 C   0  0  0  0  0  0  0  0  0  0  0  0
  185.3620  175.5370  135.8110 C   0  0  0  0  0  1  0  0  0  0  0  0
  187.3300  176.3940  137.1300 N   0  0  0  0  0  2  0  0  0  0  0  0
  186.5400  177.5240  135.2370 O   0  0  0  0  0  0  0  0  0  0  0  0
  184.3900  179.4720  144.0520 C   0  0  0  0  0  2  0  0  0  0  0  0
  183.0390  178.8320  144.3390 C   0  0  0  0  0  2  0  0  0  0  0  0
  182.1540  178.9080  143.1020 C   0  0  0  0  0  2  0  0  0  0  0  0
  182.9480  178.5190  141.8630 C   0  0  0  0  0  2  0  0  0  0  0  0
  181.3970  177.8990  139.3740 C   0  0  2  0  0  0  0  0  0  0  0  0
  179.5240  175.9800  138.2500 C   0  0  2  0  0  3  0  0  0  0  0  0
  180.3670  175.6110  139.5190 C   0  0  2  0  0  0  0  0  0  0  0  0
  184.1680  180.6680  138.8760 O   0  0  0  0  0  0  0  0  0  0  0  0
  182.7790  179.5170  140.8120 N   0  0  0  0  0  0  0  0  0  0  0  0
  181.8710  176.0070  137.0960 C   0  0  0  0  0  2  0  0  0  0  0  0
  181.7130  174.9200  139.2690 C   0  0  0  0  0  2  0  0  0  0  0  0
  179.2540  174.7240  139.0420 C   0  0  0  0  0  2  0  0  0  0  0  0
  184.1130  179.4140  139.7000 S   0  0  0  0  0  0  0  0  0  0  0  0
  182.7600  177.1600  139.1890 C   0  0  1  0  0  3  0  0  0  0  0  0
  185.4080  179.2590  140.4470 O   0  0  0  0  0  0  0  0  0  0  0  0
  182.5900  175.8260  138.4320 C   0  0  2  0  0  3  0  0  0  0  0  0
  180.7220  178.0760  137.9760 C   0  0  2  0  0  3  0  0  0  0  0  0
  181.5280  179.2810  140.0730 C   0  0  0  0  0  2  0  0  0  0  0  0
  180.5130  176.7040  137.3110 C   0  0  2  0  0  3  0  0  0  0  0  0
  183.8710  178.0240  138.6190 C   0  0  0  0  0  2  0  0  0  0  0  0
  179.2420  177.5460  140.5050 O   0  0  0  0  0  1  0  0  0  0  0  0
  181.4270  179.0580  137.0420 C   0  0  0  0  0  1  0  0  0  0  0  0
  180.4910  176.9680  140.2470 C   0  0  2  0  0  3  0  0  0  0  0  0
  1  4  1  0  0  0  0
  2  6  1  0  0  0  0
  3  2  2  0  0  0  0
  3  5  1  0  0  0  0
  5  1  2  0  0  0  0
  6  4  2  0  0  0  0
  7 10  1  0  0  0  0
  7  5  1  6  0  0  0
  9 17  1  1  0  0  0
  9 11  1  0  0  0  0
 10 20  1  1  0  0  0
 11  8  1  6  0  0  0
 11 14  1  0  0  0  0
 12  7  1  0  0  0  0
 13  9  1  0  0  0  0
 13 15  1  0  0  0  0
 14 10  1  0  0  0  0
 15 12  1  0  0  0  0
 15 14  1  0  0  0  0
 17 16  1  0  0  0  0
 18 17  1  0  0  0  0
 20 19  1  0  0  0  0
 21 20  1  0  0  0  0
 21 22  1  0  0  0  0
 23 13  1  0  0  0  0
 24 28  1  0  0  0  0
 26 25  1  0  0  0  0
 27 24  1  0  0  0  0
 27 26  1  0  0  0  0
 28 25  1  0  0  0  0
 28 23  1  0  0  0  0
 29 31  1  0  0  0  0
 30 29  1  0  0  0  0
 31 27  1  0  0  0  0
 32 29  2  0  0  0  0
 33 34  1  0  0  0  0
 33  2  1  0  0  0  0
 35 34  1  0  0  0  0
 36 35  1  0  0  0  0
 37 50  1  0  0  0  0
 37 55  1  0  0  0  0
 38 44  1  0  0  0  0
 38 39  1  0  0  0  0
 39 55  1  0  0  0  0
 40 45  2  0  0  0  0
 41 36  1  0  0  0  0
 42 51  1  0  0  0  0
 42 48  1  0  0  0  0
 43 39  1  0  0  0  0
 44 39  1  0  0  0  0
 45 47  2  0  0  0  0
 45 41  1  0  0  0  0
 46 37  1  0  0  0  0
 48 46  1  0  0  0  0
 48 43  1  0  0  0  0
 49 37  1  0  0  0  0
 50 41  1  0  0  0  0
 51 49  1  0  0  0  0
 51 38  1  0  0  0  0
 52 46  1  0  0  0  0
 52 45  1  0  0  0  0
 54 49  1  0  0  0  0
 55 53  1  0  0  0  0
M  END
>  <MODEL>
3

>  <REMARK>
 VINA RESULT:      -6.7      2.558      8.715
  Name = 
  12 active torsions:
  status: ('A' for Active; 'I' for Inactive)
    1  A    between atoms: C_2  and  C_44
    2  A    between atoms: C_4  and  C_40
    3  A    between atoms: N_8  and  C_43
    4  A    between atoms: C_16  and  C_17
    5  A    between atoms: C_19  and  C_40
    6  A    between atoms: C_27  and  C_54
    7  A    between atoms: N_32  and  C_48
    8  A    between atoms: C_33  and  N_36
    9  A    between atoms: C_33  and  C_52
   10  A    between atoms: C_35  and  C_43
   11  A    between atoms: C_35  and  C_51
   12  A    between atoms: C_51  and  C_54
                            x       y       z     vdW  Elec       q    Type
                         _______ _______ _______ _____ _____    ______ ____

>  <TORSDO>
F 12

$$$$
=
 OpenBabel10262420383D

 55 63  0  0  1  0  0  0  0  0999 V2000
  188.1800  174.8040  135.1190 C   0  0  0  0  0  3  0  0  0  0  0  0
  186.3450  173.4840  136.7620 C   0  0  0  0  0  0  0  0  0  0  0  0
  186.8710  174.7220  137.1550 C   0  0  0  0  0  3  0  0  0  0  0  0
  187.6640  173.5620  134.7360 C   0  0  0  0  0  3  0  0  0  0  0  0
  187.7970  175.3820  136.3390 C   0  0  0  0  0  0  0  0  0  0  0  0
  186.7490  172.9030  135.5580 C   0  0  0  0  0  3  0  0  0  0  0  0
  188.2970  176.7340  136.7480 C   0  0  2  0  0  3  0  0  0  0  0  0
  190.7410  175.2020  138.8320 C   0  0  0  0  0  1  0  0  0  0  0  0
  190.6130  177.2230  140.2630 C   0  0  2  0  0  3  0  0  0  0  0  0
  189.8160  176.7690  136.7460 C   0  0  2  0  0  3  0  0  0  0  0  0
  191.0400  176.7020  138.8960 C   0  0  2  0  0  3  0  0  0  0  0  0
  187.7100  177.2150  138.3900 S   0  0  0  0  0  0  0  0  0  0  0  0
  189.6790  178.3160  140.0180 N   0  0  0  0  0  0  0  0  0  0  0  0
  190.3330  177.5270  137.8950 N   0  0  2  0  0  0  0  0  0  0  0  0
  189.2450  178.1780  138.6200 C   0  0  1  0  0  3  0  0  0  0  0  0
  191.7860  177.0220  142.4780 C   0  0  0  0  0  1  0  0  0  0  0  0
  191.7960  177.6970  141.1170 C   0  0  0  0  0  3  0  0  0  0  0  0
  193.1380  177.4770  140.4350 C   0  0  0  0  0  1  0  0  0  0  0  0
  189.2130  177.8820  134.5940 C   0  0  0  0  0  1  0  0  0  0  0  0
  190.3520  177.3210  135.4230 C   0  0  2  0  0  3  0  0  0  0  0  0
  191.1220  176.2700  134.6310 C   0  0  0  0  0  2  0  0  0  0  0  0
  192.4840  176.0250  135.2530 C   0  0  0  0  0  1  0  0  0  0  0  0
  188.5990  178.4540  141.0140 C   0  0  0  0  0  2  0  0  0  0  0  0
  188.2540  178.6430  143.5020 C   0  0  0  0  0  2  0  0  0  0  0  0
  188.2960  176.4560  142.4590 C   0  0  0  0  0  2  0  0  0  0  0  0
  187.8880  176.2740  143.9040 C   0  0  0  0  0  2  0  0  0  0  0  0
  187.5510  177.6600  144.4210 C   0  0  2  0  0  3  0  0  0  0  0  0
  188.9020  177.8360  142.3850 C   0  0  1  0  0  3  0  0  0  0  0  0
  185.3960  178.6640  145.3070 C   0  0  0  0  0  0  0  0  0  0  0  0
  183.9310  178.8610  145.1440 C   0  0  0  0  0  1  0  0  0  0  0  0
  186.1130  177.8910  144.3400 N   0  0  0  0  0  2  0  0  0  0  0  0
  185.9920  179.1800  146.2910 O   0  0  0  0  0  0  0  0  0  0  0  0
  185.3290  172.8000  137.6070 C   0  0  0  0  0  2  0  0  0  0  0  0
  184.2370  173.7690  138.0380 C   0  0  0  0  0  2  0  0  0  0  0  0
  183.2670  174.0050  136.8880 C   0  0  0  0  0  2  0  0  0  0  0  0
  181.9660  174.5960  137.4110 C   0  0  0  0  0  2  0  0  0  0  0  0
  182.1950  177.5700  137.7060 C   0  0  2  0  0  0  0  0  0  0  0  0
  183.6410  179.6330  139.1580 C   0  0  2  0  0  3  0  0  0  0  0  0
  183.6280  178.1560  139.6860 C   0  0  2  0  0  0  0  0  0  0  0  0
  179.0130  176.4120  135.6740 O   0  0  0  0  0  0  0  0  0  0  0  0
  181.3810  175.4990  136.4250 N   0  0  0  0  0  0  0  0  0  0  0  0
  181.0870  179.5100  139.7070 C   0  0  0  0  0  2  0  0  0  0  0  0
  182.5160  177.7950  140.6780 C   0  0  0  0  0  2  0  0  0  0  0  0
  184.5270  179.1910  140.2980 C   0  0  0  0  0  2  0  0  0  0  0  0
  179.7310  175.8390  136.8620 S   0  0  0  0  0  0  0  0  0  0  0  0
  181.1110  177.1480  138.7470 C   0  0  1  0  0  3  0  0  0  0  0  0
  179.0350  174.5810  137.2980 O   0  0  0  0  0  0  0  0  0  0  0  0
  181.1700  178.0170  140.0210 C   0  0  2  0  0  3  0  0  0  0  0  0
  182.0440  179.0960  137.4070 C   0  0  2  0  0  3  0  0  0  0  0  0
  182.1280  176.7660  136.3780 C   0  0  0  0  0  2  0  0  0  0  0  0
  182.1910  179.9080  138.7070 C   0  0  2  0  0  3  0  0  0  0  0  0
  179.7060  177.0300  138.1800 C   0  0  0  0  0  2  0  0  0  0  0  0
  184.6460  177.6520  137.5200 O   0  0  0  0  0  1  0  0  0  0  0  0
  180.7810  179.4800  136.6390 C   0  0  0  0  0  1  0  0  0  0  0  0
  183.5870  177.3330  138.3790 C   0  0  2  0  0  3  0  0  0  0  0  0
  1  5  1  0  0  0  0
  2  3  1  0  0  0  0
  2 33  1  0  0  0  0
  4  1  2  0  0  0  0
  4  6  1  0  0  0  0
  5  3  2  0  0  0  0
  6  2  2  0  0  0  0
  7  5  1  1  0  0  0
  7 12  1  0  0  0  0
  9 17  1  6  0  0  0
 10 20  1  6  0  0  0
 10  7  1  0  0  0  0
 10 14  1  0  0  0  0
 11  8  1  1  0  0  0
 11  9  1  0  0  0  0
 12 15  1  0  0  0  0
 13  9  1  0  0  0  0
 13 23  1  0  0  0  0
 14 15  1  0  0  0  0
 14 11  1  0  0  0  0
 15 13  1  0  0  0  0
 17 16  1  0  0  0  0
 18 17  1  0  0  0  0
 19 20  1  0  0  0  0
 21 22  1  0  0  0  0
 21 20  1  0  0  0  0
 23 28  1  0  0  0  0
 24 27  1  0  0  0  0
 25 26  1  0  0  0  0
 26 27  1  0  0  0  0
 28 25  1  0  0  0  0
 28 24  1  0  0  0  0
 29 32  2  0  0  0  0
 30 29  1  0  0  0  0
 31 27  1  0  0  0  0
 31 29  1  0  0  0  0
 33 34  1  0  0  0  0
 35 36  1  0  0  0  0
 35 34  1  0  0  0  0
 37 55  1  0  0  0  0
 37 46  1  0  0  0  0
 38 39  1  0  0  0  0
 38 44  1  0  0  0  0
 39 44  1  0  0  0  0
 39 43  1  0  0  0  0
 40 45  2  0  0  0  0
 41 45  1  0  0  0  0
 41 36  1  0  0  0  0
 42 48  1  0  0  0  0
 45 47  2  0  0  0  0
 45 52  1  0  0  0  0
 46 48  1  0  0  0  0
 48 43  1  0  0  0  0
 49 37  1  0  0  0  0
 49 51  1  0  0  0  0
 50 41  1  0  0  0  0
 50 37  1  0  0  0  0
 51 38  1  0  0  0  0
 51 42  1  0  0  0  0
 52 46  1  0  0  0  0
 53 55  1  0  0  0  0
 54 49  1  0  0  0  0
 55 39  1  0  0  0  0
M  END
>  <MODEL>
4

>  <REMARK>
 VINA RESULT:      -5.7      2.996      9.707
  Name = 
  12 active torsions:
  status: ('A' for Active; 'I' for Inactive)
    1  A    between atoms: C_2  and  C_44
    2  A    between atoms: C_4  and  C_40
    3  A    between atoms: N_8  and  C_43
    4  A    between atoms: C_16  and  C_17
    5  A    between atoms: C_19  and  C_40
    6  A    between atoms: C_27  and  C_54
    7  A    between atoms: N_32  and  C_48
    8  A    between atoms: C_33  and  N_36
    9  A    between atoms: C_33  and  C_52
   10  A    between atoms: C_35  and  C_43
   11  A    between atoms: C_35  and  C_51
   12  A    between atoms: C_51  and  C_54
                            x       y       z     vdW  Elec       q    Type
                         _______ _______ _______ _____ _____    ______ ____

>  <TORSDO>
F 12

$$$$
=
 OpenBabel10262420383D

 55 63  0  0  1  0  0  0  0  0999 V2000
  189.9880  176.8690  140.5750 C   0  0  0  0  0  3  0  0  0  0  0  0
  187.7860  178.1840  141.6830 C   0  0  0  0  0  0  0  0  0  0  0  0
  188.0420  178.2840  140.3100 C   0  0  0  0  0  3  0  0  0  0  0  0
  189.7390  176.7810  141.9480 C   0  0  0  0  0  3  0  0  0  0  0  0
  189.1490  177.6350  139.7520 C   0  0  0  0  0  0  0  0  0  0  0  0
  188.6390  177.4390  142.5010 C   0  0  0  0  0  3  0  0  0  0  0  0
  189.3660  177.7030  138.2710 C   0  0  2  0  0  3  0  0  0  0  0  0
  188.9800  174.1730  138.0510 C   0  0  0  0  0  1  0  0  0  0  0  0
  190.4800  174.2520  136.0780 C   0  0  2  0  0  3  0  0  0  0  0  0
  188.3670  176.8220  137.5400 C   0  0  2  0  0  3  0  0  0  0  0  0
  189.1080  174.6540  136.6040 C   0  0  2  0  0  3  0  0  0  0  0  0
  191.0370  177.1950  137.7990 S   0  0  0  0  0  0  0  0  0  0  0  0
  191.1220  175.4750  135.6140 N   0  0  0  0  0  0  0  0  0  0  0  0
  189.0010  176.1160  136.4170 N   0  0  2  0  0  0  0  0  0  0  0  0
  190.3690  176.5870  136.2120 C   0  0  1  0  0  3  0  0  0  0  0  0
  191.2030  171.9700  135.3100 C   0  0  0  0  0  1  0  0  0  0  0  0
  190.4070  173.2120  134.9530 C   0  0  0  0  0  3  0  0  0  0  0  0
  188.9760  172.8320  134.5970 C   0  0  0  0  0  1  0  0  0  0  0  0
  185.9710  176.7140  136.8440 C   0  0  0  0  0  1  0  0  0  0  0  0
  187.1540  177.6340  137.0780 C   0  0  2  0  0  3  0  0  0  0  0  0
  187.4510  178.4490  135.8240 C   0  0  0  0  0  2  0  0  0  0  0  0
  186.6200  177.9520  134.6560 C   0  0  0  0  0  1  0  0  0  0  0  0
  192.5860  175.5240  135.7950 C   0  0  0  0  0  2  0  0  0  0  0  0
  194.2130  173.6190  136.0630 C   0  0  0  0  0  2  0  0  0  0  0  0
  193.8510  175.1550  137.9020 C   0  0  0  0  0  2  0  0  0  0  0  0
  195.0000  174.2460  138.2750 C   0  0  0  0  0  2  0  0  0  0  0  0
  195.4090  173.5420  136.9950 C   0  0  2  0  0  3  0  0  0  0  0  0
  193.1540  174.4680  136.7520 C   0  0  1  0  0  3  0  0  0  0  0  0
  197.8720  173.7360  136.4170 C   0  0  0  0  0  0  0  0  0  0  0  0
  198.9580  174.5010  135.7490 C   0  0  0  0  0  1  0  0  0  0  0  0
  196.5320  174.2350  136.3750 N   0  0  0  0  0  2  0  0  0  0  0  0
  198.1390  172.6570  137.0120 O   0  0  0  0  0  0  0  0  0  0  0  0
  186.5860  178.8390  142.2720 C   0  0  0  0  0  2  0  0  0  0  0  0
  185.3870  177.9020  142.2470 C   0  0  0  0  0  2  0  0  0  0  0  0
  184.1010  178.7060  142.1100 C   0  0  0  0  0  2  0  0  0  0  0  0
  183.2520  178.1500  140.9750 C   0  0  0  0  0  2  0  0  0  0  0  0
  181.0340  177.4940  139.0680 C   0  0  2  0  0  0  0  0  0  0  0  0
  179.4250  175.2800  138.0870 C   0  0  2  0  0  3  0  0  0  0  0  0
  180.7770  175.0050  138.8320 C   0  0  2  0  0  0  0  0  0  0  0  0
  182.5500  181.1060  138.5670 O   0  0  0  0  0  0  0  0  0  0  0  0
  182.4190  179.2000  140.3980 N   0  0  0  0  0  0  0  0  0  0  0  0
  181.0030  176.3500  136.2960 C   0  0  0  0  0  2  0  0  0  0  0  0
  182.0310  174.8940  137.9560 C   0  0  0  0  0  2  0  0  0  0  0  0
  179.8340  173.8860  138.4980 C   0  0  0  0  0  2  0  0  0  0  0  0
  183.1600  179.7850  138.9360 S   0  0  0  0  0  0  0  0  0  0  0  0
  182.3420  177.3340  138.2310 C   0  0  1  0  0  3  0  0  0  0  0  0
  184.6390  179.9620  139.1330 O   0  0  0  0  0  0  0  0  0  0  0  0
  182.2260  176.1910  137.2000 C   0  0  2  0  0  3  0  0  0  0  0  0
  179.8270  177.6770  138.0940 C   0  0  2  0  0  3  0  0  0  0  0  0
  181.0810  178.6780  140.0740 C   0  0  0  0  0  2  0  0  0  0  0  0
  179.7230  176.4680  137.1470 C   0  0  2  0  0  3  0  0  0  0  0  0
  182.8620  178.6250  137.6220 C   0  0  0  0  0  2  0  0  0  0  0  0
  179.6980  176.1980  140.6750 O   0  0  0  0  0  1  0  0  0  0  0  0
  179.8110  178.9990  137.3300 C   0  0  0  0  0  1  0  0  0  0  0  0
  180.8350  176.1590  139.8590 C   0  0  2  0  0  3  0  0  0  0  0  0
  1  4  1  0  0  0  0
  2 33  1  0  0  0  0
  2  6  1  0  0  0  0
  3  2  2  0  0  0  0
  4  6  2  0  0  0  0
  5  3  1  0  0  0  0
  5  1  2  0  0  0  0
  7  5  1  1  0  0  0
  9 17  1  6  0  0  0
  9 11  1  0  0  0  0
 10 20  1  6  0  0  0
 10  7  1  0  0  0  0
 11  8  1  1  0  0  0
 12  7  1  0  0  0  0
 13 23  1  0  0  0  0
 13  9  1  0  0  0  0
 13 15  1  0  0  0  0
 14 11  1  0  0  0  0
 14 10  1  0  0  0  0
 15 14  1  0  0  0  0
 15 12  1  0  0  0  0
 17 16  1  0  0  0  0
 18 17  1  0  0  0  0
 19 20  1  0  0  0  0
 21 20  1  0  0  0  0
 22 21  1  0  0  0  0
 23 28  1  0  0  0  0
 24 28  1  0  0  0  0
 24 27  1  0  0  0  0
 25 26  1  0  0  0  0
 27 26  1  0  0  0  0
 28 25  1  0  0  0  0
 29 32  2  0  0  0  0
 30 29  1  0  0  0  0
 31 29  1  0  0  0  0
 31 27  1  0  0  0  0
 34 33  1  0  0  0  0
 35 34  1  0  0  0  0
 36 35  1  0  0  0  0
 37 55  1  0  0  0  0
 37 50  1  0  0  0  0
 38 44  1  0  0  0  0
 38 39  1  0  0  0  0
 39 55  1  0  0  0  0
 40 45  2  0  0  0  0
 41 36  1  0  0  0  0
 42 51  1  0  0  0  0
 42 48  1  0  0  0  0
 43 39  1  0  0  0  0
 44 39  1  0  0  0  0
 45 47  2  0  0  0  0
 45 41  1  0  0  0  0
 46 37  1  0  0  0  0
 48 43  1  0  0  0  0
 48 46  1  0  0  0  0
 49 37  1  0  0  0  0
 50 41  1  0  0  0  0
 51 38  1  0  0  0  0
 51 49  1  0  0  0  0
 52 46  1  0  0  0  0
 52 45  1  0  0  0  0
 54 49  1  0  0  0  0
 55 53  1  0  0  0  0
M  END
>  <MODEL>
5

>  <REMARK>
 VINA RESULT:      -5.5      3.499      8.181
  Name = 
  12 active torsions:
  status: ('A' for Active; 'I' for Inactive)
    1  A    between atoms: C_2  and  C_44
    2  A    between atoms: C_4  and  C_40
    3  A    between atoms: N_8  and  C_43
    4  A    between atoms: C_16  and  C_17
    5  A    between atoms: C_19  and  C_40
    6  A    between atoms: C_27  and  C_54
    7  A    between atoms: N_32  and  C_48
    8  A    between atoms: C_33  and  N_36
    9  A    between atoms: C_33  and  C_52
   10  A    between atoms: C_35  and  C_43
   11  A    between atoms: C_35  and  C_51
   12  A    between atoms: C_51  and  C_54
                            x       y       z     vdW  Elec       q    Type
                         _______ _______ _______ _____ _____    ______ ____

>  <TORSDO>
F 12

$$$$
=
 OpenBabel10262420383D

 55 63  0  0  1  0  0  0  0  0999 V2000
  183.5530  177.0540  135.4010 C   0  0  0  0  0  3  0  0  0  0  0  0
  186.1030  177.3320  136.5090 C   0  0  0  0  0  0  0  0  0  0  0  0
  185.0260  176.9520  137.3200 C   0  0  0  0  0  3  0  0  0  0  0  0
  184.6260  177.4460  134.5960 C   0  0  0  0  0  3  0  0  0  0  0  0
  183.7460  176.8210  136.7710 C   0  0  0  0  0  0  0  0  0  0  0  0
  185.9000  177.5860  135.1500 C   0  0  0  0  0  3  0  0  0  0  0  0
  182.6220  176.3500  137.6440 C   0  0  2  0  0  3  0  0  0  0  0  0
  181.4790  179.7030  137.9800 C   0  0  0  0  0  1  0  0  0  0  0  0
  180.5780  179.0470  140.1960 C   0  0  2  0  0  3  0  0  0  0  0  0
  181.3210  177.0360  137.2610 C   0  0  2  0  0  3  0  0  0  0  0  0
  180.4290  178.8470  138.6920 C   0  0  2  0  0  3  0  0  0  0  0  0
  182.9410  176.6560  139.3980 S   0  0  0  0  0  0  0  0  0  0  0  0
  180.7710  177.7230  140.7740 N   0  0  0  0  0  0  0  0  0  0  0  0
  180.5360  177.3940  138.4520 N   0  0  2  0  0  0  0  0  0  0  0  0
  181.1430  176.8390  139.6600 C   0  0  1  0  0  3  0  0  0  0  0  0
  179.1760  179.3050  142.2660 C   0  0  0  0  0  1  0  0  0  0  0  0
  179.3690  179.7490  140.8270 C   0  0  0  0  0  3  0  0  0  0  0  0
  179.4680  181.2660  140.7570 C   0  0  0  0  0  1  0  0  0  0  0  0
  179.0250  176.3440  136.5610 C   0  0  0  0  0  1  0  0  0  0  0  0
  180.5080  176.1720  136.2930 C   0  0  2  0  0  3  0  0  0  0  0  0
  180.8970  174.7000  136.3730 C   0  0  0  0  0  2  0  0  0  0  0  0
  179.9370  173.9430  137.2730 C   0  0  0  0  0  1  0  0  0  0  0  0
  181.6580  177.6760  141.9530 C   0  0  0  0  0  2  0  0  0  0  0  0
  182.5870  179.3620  143.5770 C   0  0  0  0  0  2  0  0  0  0  0  0
  183.9890  178.5210  141.7890 C   0  0  0  0  0  2  0  0  0  0  0  0
  184.8550  179.3570  142.7040 C   0  0  0  0  0  2  0  0  0  0  0  0
  184.0390  179.5800  143.9630 C   0  0  2  0  0  3  0  0  0  0  0  0
  182.5670  178.8990  142.1270 C   0  0  1  0  0  3  0  0  0  0  0  0
  185.2280  178.9200  146.1050 C   0  0  0  0  0  0  0  0  0  0  0  0
  185.5440  177.8640  147.1030 C   0  0  0  0  0  1  0  0  0  0  0  0
  184.4050  178.6000  144.9800 N   0  0  0  0  0  2  0  0  0  0  0  0
  185.6840  180.0860  146.2600 O   0  0  0  0  0  0  0  0  0  0  0  0
  187.4740  177.4320  137.0810 C   0  0  0  0  0  2  0  0  0  0  0  0
  187.4740  177.0760  138.5610 C   0  0  0  0  0  2  0  0  0  0  0  0
  187.5340  178.3450  139.4010 C   0  0  0  0  0  2  0  0  0  0  0  0
  188.3670  178.1080  140.6520 C   0  0  0  0  0  2  0  0  0  0  0  0
  189.6760  176.8950  143.0600 C   0  0  2  0  0  0  0  0  0  0  0  0
  189.7850  177.0860  145.9600 C   0  0  2  0  0  3  0  0  0  0  0  0
  189.2070  178.2710  145.1110 C   0  0  2  0  0  0  0  0  0  0  0  0
  191.3340  175.8270  139.6390 O   0  0  0  0  0  0  0  0  0  0  0  0
  189.0680  176.8310  140.5660 N   0  0  0  0  0  0  0  0  0  0  0  0
  192.0120  177.7290  144.7470 C   0  0  0  0  0  2  0  0  0  0  0  0
  190.2020  179.3580  144.6870 C   0  0  0  0  0  2  0  0  0  0  0  0
  189.0890  178.2590  146.6070 C   0  0  0  0  0  2  0  0  0  0  0  0
  190.7270  177.1120  140.1220 S   0  0  0  0  0  0  0  0  0  0  0  0
  190.6300  178.0530  142.6280 C   0  0  1  0  0  3  0  0  0  0  0  0
  190.8090  178.1390  139.0280 O   0  0  0  0  0  0  0  0  0  0  0  0
  191.2940  178.7330  143.8440 C   0  0  2  0  0  3  0  0  0  0  0  0
  190.4700  175.8920  143.9570 C   0  0  2  0  0  3  0  0  0  0  0  0
  189.0370  176.1370  141.8640 C   0  0  0  0  0  2  0  0  0  0  0  0
  191.0390  176.6190  145.1890 C   0  0  2  0  0  3  0  0  0  0  0  0
  191.6280  177.6760  141.5470 C   0  0  0  0  0  2  0  0  0  0  0  0
  187.6020  176.5910  144.3460 O   0  0  0  0  0  1  0  0  0  0  0  0
  191.5440  175.0880  143.2280 C   0  0  0  0  0  1  0  0  0  0  0  0
  188.5420  177.5400  143.9230 C   0  0  2  0  0  3  0  0  0  0  0  0
  1  5  1  0  0  0  0
  2 33  1  0  0  0  0
  2  3  1  0  0  0  0
  4  6  1  0  0  0  0
  4  1  2  0  0  0  0
  5  3  2  0  0  0  0
  6  2  2  0  0  0  0
  7  5  1  6  0  0  0
  7 12  1  0  0  0  0
  9 13  1  0  0  0  0
  9 17  1  1  0  0  0
 10 20  1  6  0  0  0
 10  7  1  0  0  0  0
 10 14  1  0  0  0  0
 11  8  1  6  0  0  0
 11  9  1  0  0  0  0
 12 15  1  0  0  0  0
 13 23  1  0  0  0  0
 14 11  1  0  0  0  0
 14 15  1  0  0  0  0
 15 13  1  0  0  0  0
 17 16  1  0  0  0  0
 18 17  1  0  0  0  0
 20 21  1  0  0  0  0
 20 19  1  0  0  0  0
 21 22  1  0  0  0  0
 23 28  1  0  0  0  0
 24 27  1  0  0  0  0
 25 28  1  0  0  0  0
 25 26  1  0  0  0  0
 26 27  1  0  0  0  0
 27 31  1  0  0  0  0
 28 24  1  0  0  0  0
 29 32  2  0  0  0  0
 29 30  1  0  0  0  0
 31 29  1  0  0  0  0
 33 34  1  0  0  0  0
 34 35  1  0  0  0  0
 35 36  1  0  0  0  0
 37 55  1  0  0  0  0
 37 49  1  0  0  0  0
 38 44  1  0  0  0  0
 39 38  1  0  0  0  0
 39 44  1  0  0  0  0
 40 45  2  0  0  0  0
 41 36  1  0  0  0  0
 41 50  1  0  0  0  0
 42 51  1  0  0  0  0
 43 39  1  0  0  0  0
 45 41  1  0  0  0  0
 45 52  1  0  0  0  0
 46 37  1  0  0  0  0
 46 48  1  0  0  0  0
 47 45  2  0  0  0  0
 48 43  1  0  0  0  0
 48 42  1  0  0  0  0
 49 51  1  0  0  0  0
 50 37  1  0  0  0  0
 51 38  1  0  0  0  0
 52 46  1  0  0  0  0
 54 49  1  0  0  0  0
 55 53  1  0  0  0  0
 55 39  1  0  0  0  0
M  END
>  <MODEL>
6

>  <REMARK>
 VINA RESULT:      -5.5      2.368      6.746
  Name = 
  12 active torsions:
  status: ('A' for Active; 'I' for Inactive)
    1  A    between atoms: C_2  and  C_44
    2  A    between atoms: C_4  and  C_40
    3  A    between atoms: N_8  and  C_43
    4  A    between atoms: C_16  and  C_17
    5  A    between atoms: C_19  and  C_40
    6  A    between atoms: C_27  and  C_54
    7  A    between atoms: N_32  and  C_48
    8  A    between atoms: C_33  and  N_36
    9  A    between atoms: C_33  and  C_52
   10  A    between atoms: C_35  and  C_43
   11  A    between atoms: C_35  and  C_51
   12  A    between atoms: C_51  and  C_54
                            x       y       z     vdW  Elec       q    Type
                         _______ _______ _______ _____ _____    ______ ____

>  <TORSDO>
F 12

$$$$
=
 OpenBabel10262420383D

 55 63  0  0  1  0  0  0  0  0999 V2000
  187.0090  177.6000  146.4600 C   0  0  0  0  0  3  0  0  0  0  0  0
  185.5270  179.0290  144.5710 C   0  0  0  0  0  0  0  0  0  0  0  0
  186.5600  178.1800  144.1530 C   0  0  0  0  0  3  0  0  0  0  0  0
  185.9870  178.4590  146.8770 C   0  0  0  0  0  3  0  0  0  0  0  0
  187.3110  177.4700  145.0960 C   0  0  0  0  0  0  0  0  0  0  0  0
  185.2480  179.1720  145.9330 C   0  0  0  0  0  3  0  0  0  0  0  0
  188.3680  176.5190  144.6230 C   0  0  2  0  0  3  0  0  0  0  0  0
  190.2710  179.2550  143.3750 C   0  0  0  0  0  1  0  0  0  0  0  0
  191.1840  177.6910  141.6800 C   0  0  2  0  0  3  0  0  0  0  0  0
  189.7540  177.0450  144.9580 C   0  0  2  0  0  3  0  0  0  0  0  0
  191.1540  178.0230  143.1670 C   0  0  2  0  0  3  0  0  0  0  0  0
  188.2780  176.2260  142.8400 S   0  0  0  0  0  0  0  0  0  0  0  0
  190.7430  176.3070  141.5540 N   0  0  0  0  0  0  0  0  0  0  0  0
  190.6980  176.7990  143.8590 N   0  0  2  0  0  0  0  0  0  0  0  0
  190.0860  175.9680  142.8240 C   0  0  1  0  0  3  0  0  0  0  0  0
  193.5430  176.8310  141.5570 C   0  0  0  0  0  1  0  0  0  0  0  0
  192.5710  177.8830  141.0530 C   0  0  0  0  0  3  0  0  0  0  0  0
  192.5330  177.8750  139.5320 C   0  0  0  0  0  1  0  0  0  0  0  0
  190.0840  177.4570  147.3990 C   0  0  0  0  0  1  0  0  0  0  0  0
  190.2610  176.4540  146.2760 C   0  0  2  0  0  3  0  0  0  0  0  0
  191.7170  176.0100  146.1830 C   0  0  0  0  0  2  0  0  0  0  0  0
  192.3300  175.8990  147.5670 C   0  0  0  0  0  1  0  0  0  0  0  0
  189.9730  176.0030  140.3320 C   0  0  0  0  0  2  0  0  0  0  0  0
  189.7120  176.8630  137.9790 C   0  0  0  0  0  2  0  0  0  0  0  0
  188.2180  177.6510  139.7170 C   0  0  0  0  0  2  0  0  0  0  0  0
  187.7130  178.1810  138.3940 C   0  0  0  0  0  2  0  0  0  0  0  0
  188.4570  177.4070  137.3220 C   0  0  2  0  0  3  0  0  0  0  0  0
  189.6410  177.2190  139.4570 C   0  0  1  0  0  3  0  0  0  0  0  0
  186.6760  176.4090  135.8150 C   0  0  0  0  0  0  0  0  0  0  0  0
  185.9000  175.2120  135.3940 C   0  0  0  0  0  1  0  0  0  0  0  0
  187.6470  176.2860  136.8580 N   0  0  0  0  0  2  0  0  0  0  0  0
  186.4730  177.5180  135.2500 O   0  0  0  0  0  0  0  0  0  0  0  0
  184.6990  179.7530  143.5680 C   0  0  0  0  0  2  0  0  0  0  0  0
  183.5670  178.8720  143.0590 C   0  0  0  0  0  2  0  0  0  0  0  0
  183.6470  178.7470  141.5430 C   0  0  0  0  0  2  0  0  0  0  0  0
  182.2680  178.9270  140.9270 C   0  0  0  0  0  2  0  0  0  0  0  0
  181.4300  177.1280  138.6800 C   0  0  2  0  0  0  0  0  0  0  0  0
  182.0090  176.4960  135.9020 C   0  0  2  0  0  3  0  0  0  0  0  0
  182.4940  177.8520  136.5220 C   0  0  2  0  0  0  0  0  0  0  0  0
  178.9320  177.1260  141.7380 O   0  0  0  0  0  0  0  0  0  0  0  0
  181.4400  177.7510  141.1720 N   0  0  0  0  0  0  0  0  0  0  0  0
  179.6410  177.5300  136.3070 C   0  0  0  0  0  2  0  0  0  0  0  0
  181.5450  179.0480  136.3800 C   0  0  0  0  0  2  0  0  0  0  0  0
  182.9520  177.4140  135.1600 C   0  0  0  0  0  2  0  0  0  0  0  0
  179.7610  178.2010  141.0980 S   0  0  0  0  0  0  0  0  0  0  0  0
  180.5250  178.3920  138.5380 C   0  0  1  0  0  3  0  0  0  0  0  0
  179.5340  179.4970  141.8230 O   0  0  0  0  0  0  0  0  0  0  0  0
  180.2310  178.7230  137.0590 C   0  0  2  0  0  3  0  0  0  0  0  0
  180.7660  175.9400  137.9140 C   0  0  2  0  0  3  0  0  0  0  0  0
  181.6980  176.7180  140.1550 C   0  0  0  0  0  2  0  0  0  0  0  0
  180.5720  176.3080  136.4320 C   0  0  2  0  0  3  0  0  0  0  0  0
  179.2730  178.3700  139.3960 C   0  0  0  0  0  2  0  0  0  0  0  0
  183.7020  176.4040  138.0790 O   0  0  0  0  0  1  0  0  0  0  0  0
  179.4770  175.4110  138.5400 C   0  0  0  0  0  1  0  0  0  0  0  0
  182.7920  177.4650  137.9880 C   0  0  2  0  0  3  0  0  0  0  0  0
  1  4  1  0  0  0  0
  2  6  1  0  0  0  0
  3  2  2  0  0  0  0
  3  5  1  0  0  0  0
  5  1  2  0  0  0  0
  6  4  2  0  0  0  0
  7 10  1  0  0  0  0
  7  5  1  6  0  0  0
  9 17  1  1  0  0  0
  9 11  1  0  0  0  0
 10 20  1  1  0  0  0
 11  8  1  6  0  0  0
 11 14  1  0  0  0  0
 12  7  1  0  0  0  0
 13  9  1  0  0  0  0
 13 15  1  0  0  0  0
 14 10  1  0  0  0  0
 15 12  1  0  0  0  0
 15 14  1  0  0  0  0
 17 16  1  0  0  0  0
 18 17  1  0  0  0  0
 20 19  1  0  0  0  0
 21 20  1  0  0  0  0
 21 22  1  0  0  0  0
 23 13  1  0  0  0  0
 24 28  1  0  0  0  0
 26 25  1  0  0  0  0
 27 24  1  0  0  0  0
 27 26  1  0  0  0  0
 28 25  1  0  0  0  0
 28 23  1  0  0  0  0
 29 31  1  0  0  0  0
 30 29  1  0  0  0  0
 31 27  1  0  0  0  0
 32 29  2  0  0  0  0
 33  2  1  0  0  0  0
 34 33  1  0  0  0  0
 35 34  1  0  0  0  0
 36 41  1  0  0  0  0
 36 35  1  0  0  0  0
 37 50  1  0  0  0  0
 38 51  1  0  0  0  0
 38 39  1  0  0  0  0
 39 55  1  0  0  0  0
 42 51  1  0  0  0  0
 42 48  1  0  0  0  0
 43 39  1  0  0  0  0
 43 48  1  0  0  0  0
 44 38  1  0  0  0  0
 44 39  1  0  0  0  0
 45 41  1  0  0  0  0
 45 40  2  0  0  0  0
 45 47  2  0  0  0  0
 46 37  1  0  0  0  0
 46 52  1  0  0  0  0
 48 46  1  0  0  0  0
 49 54  1  0  0  0  0
 49 37  1  0  0  0  0
 50 41  1  0  0  0  0
 51 49  1  0  0  0  0
 52 45  1  0  0  0  0
 55 53  1  0  0  0  0
 55 37  1  0  0  0  0
M  END
>  <MODEL>
7

>  <REMARK>
 VINA RESULT:      -5.5      3.158      9.046
  Name = 
  12 active torsions:
  status: ('A' for Active; 'I' for Inactive)
    1  A    between atoms: C_2  and  C_44
    2  A    between atoms: C_4  and  C_40
    3  A    between atoms: N_8  and  C_43
    4  A    between atoms: C_16  and  C_17
    5  A    between atoms: C_19  and  C_40
    6  A    between atoms: C_27  and  C_54
    7  A    between atoms: N_32  and  C_48
    8  A    between atoms: C_33  and  N_36
    9  A    between atoms: C_33  and  C_52
   10  A    between atoms: C_35  and  C_43
   11  A    between atoms: C_35  and  C_51
   12  A    between atoms: C_51  and  C_54
                            x       y       z     vdW  Elec       q    Type
                         _______ _______ _______ _____ _____    ______ ____

>  <TORSDO>
F 12

$$$$
=
 OpenBabel10262420383D

 55 63  0  0  1  0  0  0  0  0999 V2000
  186.8450  178.5210  141.6780 C   0  0  0  0  0  3  0  0  0  0  0  0
  187.9930  177.7040  139.2650 C   0  0  0  0  0  0  0  0  0  0  0  0
  186.7080  178.2610  139.2750 C   0  0  0  0  0  3  0  0  0  0  0  0
  188.1220  177.9510  141.6690 C   0  0  0  0  0  3  0  0  0  0  0  0
  186.1250  178.6630  140.4820 C   0  0  0  0  0  0  0  0  0  0  0  0
  188.6940  177.5430  140.4630 C   0  0  0  0  0  3  0  0  0  0  0  0
  184.7770  179.3150  140.4600 C   0  0  2  0  0  3  0  0  0  0  0  0
  183.2470  176.1410  139.9630 C   0  0  0  0  0  1  0  0  0  0  0  0
  181.4320  177.3370  138.7690 C   0  0  2  0  0  3  0  0  0  0  0  0
  183.7790  178.5150  141.2820 C   0  0  2  0  0  3  0  0  0  0  0  0
  182.0870  177.1250  140.1290 C   0  0  2  0  0  3  0  0  0  0  0  0
  184.1290  179.4970  138.7810 S   0  0  0  0  0  0  0  0  0  0  0  0
  181.4560  178.7720  138.5150 N   0  0  0  0  0  0  0  0  0  0  0  0
  182.4650  178.4650  140.6230 N   0  0  2  0  0  0  0  0  0  0  0  0
  182.4370  179.3390  139.4520 C   0  0  1  0  0  3  0  0  0  0  0  0
  179.9920  175.3280  138.3090 C   0  0  0  0  0  1  0  0  0  0  0  0
  179.9990  176.7940  138.7060 C   0  0  0  0  0  3  0  0  0  0  0  0
  179.2400  176.9870  140.0110 C   0  0  0  0  0  1  0  0  0  0  0  0
  184.5230  178.2400  143.6500 C   0  0  0  0  0  1  0  0  0  0  0  0
  183.6710  179.0670  142.7050 C   0  0  2  0  0  3  0  0  0  0  0  0
  182.2280  179.1170  143.1940 C   0  0  0  0  0  2  0  0  0  0  0  0
  182.1510  178.7530  144.6660 C   0  0  0  0  0  1  0  0  0  0  0  0
  181.6240  179.1570  137.1000 C   0  0  0  0  0  2  0  0  0  0  0  0
  179.7910  180.8840  137.0420 C   0  0  0  0  0  2  0  0  0  0  0  0
  180.6510  179.9760  134.9660 C   0  0  0  0  0  2  0  0  0  0  0  0
  179.7110  181.1100  134.6230 C   0  0  0  0  0  2  0  0  0  0  0  0
  179.4640  181.8550  135.9210 C   0  0  2  0  0  3  0  0  0  0  0  0
  180.3400  179.6180  136.3990 C   0  0  1  0  0  3  0  0  0  0  0  0
  180.2260  184.0030  137.0350 C   0  0  0  0  0  0  0  0  0  0  0  0
  181.1870  185.1370  137.0710 C   0  0  0  0  0  1  0  0  0  0  0  0
  180.3570  183.0030  136.0200 N   0  0  0  0  0  2  0  0  0  0  0  0
  179.3080  183.9310  137.8970 O   0  0  0  0  0  0  0  0  0  0  0  0
  188.6320  177.3140  137.9790 C   0  0  0  0  0  2  0  0  0  0  0  0
  189.8050  176.3730  138.2160 C   0  0  0  0  0  2  0  0  0  0  0  0
  191.1180  177.1110  137.9900 C   0  0  0  0  0  2  0  0  0  0  0  0
  192.0450  176.2790  137.1170 C   0  0  0  0  0  2  0  0  0  0  0  0
  194.0370  174.0540  136.8540 C   0  0  2  0  0  0  0  0  0  0  0  0
  196.8820  173.4820  137.0320 C   0  0  2  0  0  3  0  0  0  0  0  0
  196.3810  174.9590  136.8670 C   0  0  2  0  0  0  0  0  0  0  0  0
  190.4440  173.1460  135.4880 O   0  0  0  0  0  0  0  0  0  0  0  0
  191.6180  174.8840  137.1020 N   0  0  0  0  0  0  0  0  0  0  0  0
  195.8700  173.2130  134.6350 C   0  0  0  0  0  2  0  0  0  0  0  0
  196.2550  175.4820  135.4310 C   0  0  0  0  0  2  0  0  0  0  0  0
  197.8220  174.6560  137.1640 C   0  0  0  0  0  2  0  0  0  0  0  0
  191.2560  174.4090  135.4680 S   0  0  0  0  0  0  0  0  0  0  0  0
  193.9220  174.6590  135.4200 C   0  0  1  0  0  3  0  0  0  0  0  0
  190.4730  175.4860  134.7710 O   0  0  0  0  0  0  0  0  0  0  0  0
  195.2710  174.6180  134.6710 C   0  0  2  0  0  3  0  0  0  0  0  0
  194.6300  172.6130  136.7520 C   0  0  2  0  0  3  0  0  0  0  0  0
  192.6850  174.0130  137.6220 C   0  0  0  0  0  2  0  0  0  0  0  0
  196.0070  172.6550  136.0660 C   0  0  2  0  0  3  0  0  0  0  0  0
  192.7740  174.1050  134.5940 C   0  0  0  0  0  2  0  0  0  0  0  0
  195.2080  174.5170  138.9670 O   0  0  0  0  0  1  0  0  0  0  0  0
  193.7070  171.5820  136.1070 C   0  0  0  0  0  1  0  0  0  0  0  0
  195.0460  174.9510  137.6450 C   0  0  2  0  0  3  0  0  0  0  0  0
  2  3  2  0  0  0  0
  2  6  1  0  0  0  0
  3  5  1  0  0  0  0
  4  1  1  0  0  0  0
  5  1  2  0  0  0  0
  6  4  2  0  0  0  0
  7  5  1  6  0  0  0
  7 10  1  0  0  0  0
  9 17  1  1  0  0  0
  9 11  1  0  0  0  0
 10 20  1  1  0  0  0
 11  8  1  6  0  0  0
 11 14  1  0  0  0  0
 12 15  1  0  0  0  0
 12  7  1  0  0  0  0
 13  9  1  0  0  0  0
 13 15  1  0  0  0  0
 14 10  1  0  0  0  0
 15 14  1  0  0  0  0
 16 17  1  0  0  0  0
 17 18  1  0  0  0  0
 20 21  1  0  0  0  0
 20 19  1  0  0  0  0
 21 22  1  0  0  0  0
 23 13  1  0  0  0  0
 25 28  1  0  0  0  0
 26 25  1  0  0  0  0
 26 27  1  0  0  0  0
 27 31  1  0  0  0  0
 27 24  1  0  0  0  0
 28 24  1  0  0  0  0
 28 23  1  0  0  0  0
 29 30  1  0  0  0  0
 29 32  2  0  0  0  0
 31 29  1  0  0  0  0
 33 34  1  0  0  0  0
 33  2  1  0  0  0  0
 35 34  1  0  0  0  0
 36 35  1  0  0  0  0
 37 50  1  0  0  0  0
 37 55  1  0  0  0  0
 38 44  1  0  0  0  0
 39 38  1  0  0  0  0
 39 44  1  0  0  0  0
 39 55  1  0  0  0  0
 41 36  1  0  0  0  0
 41 50  1  0  0  0  0
 42 48  1  0  0  0  0
 42 51  1  0  0  0  0
 43 39  1  0  0  0  0
 45 40  2  0  0  0  0
 45 41  1  0  0  0  0
 46 37  1  0  0  0  0
 47 45  2  0  0  0  0
 48 46  1  0  0  0  0
 48 43  1  0  0  0  0
 49 37  1  0  0  0  0
 51 49  1  0  0  0  0
 51 38  1  0  0  0  0
 52 46  1  0  0  0  0
 52 45  1  0  0  0  0
 54 49  1  0  0  0  0
 55 53  1  0  0  0  0
M  END
>  <MODEL>
8

>  <REMARK>
 VINA RESULT:      -5.4      3.896      8.770
  Name = 
  12 active torsions:
  status: ('A' for Active; 'I' for Inactive)
    1  A    between atoms: C_2  and  C_44
    2  A    between atoms: C_4  and  C_40
    3  A    between atoms: N_8  and  C_43
    4  A    between atoms: C_16  and  C_17
    5  A    between atoms: C_19  and  C_40
    6  A    between atoms: C_27  and  C_54
    7  A    between atoms: N_32  and  C_48
    8  A    between atoms: C_33  and  N_36
    9  A    between atoms: C_33  and  C_52
   10  A    between atoms: C_35  and  C_43
   11  A    between atoms: C_35  and  C_51
   12  A    between atoms: C_51  and  C_54
                            x       y       z     vdW  Elec       q    Type
                         _______ _______ _______ _____ _____    ______ ____

>  <TORSDO>
F 12

$$$$
=
 OpenBabel10262420383D

 55 63  0  0  1  0  0  0  0  0999 V2000
  187.0140  177.8560  146.3660 C   0  0  0  0  0  3  0  0  0  0  0  0
  185.3240  178.9540  144.4310 C   0  0  0  0  0  0  0  0  0  0  0  0
  186.3750  178.1140  144.0440 C   0  0  0  0  0  3  0  0  0  0  0  0
  185.9720  178.7060  146.7490 C   0  0  0  0  0  3  0  0  0  0  0  0
  187.2300  177.5690  145.0090 C   0  0  0  0  0  0  0  0  0  0  0  0
  185.1290  179.2550  145.7810 C   0  0  0  0  0  3  0  0  0  0  0  0
  188.3080  176.6210  144.5790 C   0  0  2  0  0  3  0  0  0  0  0  0
  190.1610  179.3420  143.2260 C   0  0  0  0  0  1  0  0  0  0  0  0
  191.1120  177.7290  141.6010 C   0  0  2  0  0  3  0  0  0  0  0  0
  189.6810  177.1890  144.8970 C   0  0  2  0  0  3  0  0  0  0  0  0
  191.0700  178.1200  143.0730 C   0  0  2  0  0  3  0  0  0  0  0  0
  188.2320  176.2540  142.8090 S   0  0  0  0  0  0  0  0  0  0  0  0
  190.7000  176.3330  141.5290 N   0  0  0  0  0  0  0  0  0  0  0  0
  190.6350  176.9170  143.8120 N   0  0  2  0  0  0  0  0  0  0  0  0
  190.0450  176.0320  142.8100 C   0  0  1  0  0  3  0  0  0  0  0  0
  193.5490  177.1230  141.7180 C   0  0  0  0  0  1  0  0  0  0  0  0
  192.4980  177.9240  140.9710 C   0  0  0  0  0  3  0  0  0  0  0  0
  192.5250  177.5700  139.4910 C   0  0  0  0  0  1  0  0  0  0  0  0
  189.8930  177.6610  147.3410 C   0  0  0  0  0  1  0  0  0  0  0  0
  190.1950  176.6620  146.2390 C   0  0  2  0  0  3  0  0  0  0  0  0
  191.6870  176.3470  146.2000 C   0  0  0  0  0  2  0  0  0  0  0  0
  192.1080  175.6040  147.4550 C   0  0  0  0  0  1  0  0  0  0  0  0
  189.9420  175.9620  140.3190 C   0  0  0  0  0  2  0  0  0  0  0  0
  189.5830  176.6680  137.9270 C   0  0  0  0  0  2  0  0  0  0  0  0
  188.2350  177.6530  139.6840 C   0  0  0  0  0  2  0  0  0  0  0  0
  187.6770  178.1150  138.3560 C   0  0  0  0  0  2  0  0  0  0  0  0
  188.3180  177.2300  137.3030 C   0  0  2  0  0  3  0  0  0  0  0  0
  189.6170  177.1300  139.3770 C   0  0  1  0  0  3  0  0  0  0  0  0
  186.4500  176.2010  135.9280 C   0  0  0  0  0  0  0  0  0  0  0  0
  185.5910  175.0200  135.6430 C   0  0  0  0  0  1  0  0  0  0  0  0
  187.4290  176.1230  136.9680 N   0  0  0  0  0  2  0  0  0  0  0  0
  186.3110  177.2550  135.2510 O   0  0  0  0  0  0  0  0  0  0  0  0
  184.3880  179.5010  143.4110 C   0  0  0  0  0  2  0  0  0  0  0  0
  183.5840  178.3870  142.7560 C   0  0  0  0  0  2  0  0  0  0  0  0
  183.8260  178.3860  141.2520 C   0  0  0  0  0  2  0  0  0  0  0  0
  182.5990  177.8600  140.5220 C   0  0  0  0  0  2  0  0  0  0  0  0
  181.6520  179.4450  138.1610 C   0  0  2  0  0  0  0  0  0  0  0  0
  180.4970  182.0110  137.4280 C   0  0  2  0  0  3  0  0  0  0  0  0
  180.4340  181.5110  138.9130 C   0  0  2  0  0  0  0  0  0  0  0  0
  182.2970  175.6320  137.3640 O   0  0  0  0  0  0  0  0  0  0  0  0
  182.9440  177.4630  139.1610 N   0  0  0  0  0  0  0  0  0  0  0  0
  178.9310  179.9570  137.0100 C   0  0  0  0  0  2  0  0  0  0  0  0
  179.1890  180.7080  139.3120 C   0  0  0  0  0  2  0  0  0  0  0  0
  180.0300  182.9100  138.5470 C   0  0  0  0  0  2  0  0  0  0  0  0
  181.7500  176.3460  138.5660 S   0  0  0  0  0  0  0  0  0  0  0  0
  180.3950  178.6550  138.6410 C   0  0  1  0  0  3  0  0  0  0  0  0
  181.4050  175.3360  139.6250 O   0  0  0  0  0  0  0  0  0  0  0  0
  179.0980  179.4680  138.4490 C   0  0  2  0  0  3  0  0  0  0  0  0
  181.4340  179.8960  136.6820 C   0  0  2  0  0  3  0  0  0  0  0  0
  182.9750  178.6380  138.2740 C   0  0  0  0  0  2  0  0  0  0  0  0
  180.1690  180.7660  136.5750 C   0  0  2  0  0  3  0  0  0  0  0  0
  180.2910  177.2430  138.0900 C   0  0  0  0  0  2  0  0  0  0  0  0
  182.8730  181.5010  138.7360 O   0  0  0  0  0  1  0  0  0  0  0  0
  181.4310  178.7640  135.6580 C   0  0  0  0  0  1  0  0  0  0  0  0
  181.7550  180.7230  139.0590 C   0  0  2  0  0  3  0  0  0  0  0  0
  1  4  1  0  0  0  0
  2  6  1  0  0  0  0
  3  2  2  0  0  0  0
  3  5  1  0  0  0  0
  5  1  2  0  0  0  0
  6  4  2  0  0  0  0
  7 10  1  0  0  0  0
  7  5  1  6  0  0  0
  9 17  1  1  0  0  0
  9 11  1  0  0  0  0
 10 20  1  1  0  0  0
 11  8  1  6  0  0  0
 11 14  1  0  0  0  0
 12 15  1  0  0  0  0
 12  7  1  0  0  0  0
 13  9  1  0  0  0  0
 13 15  1  0  0  0  0
 14 10  1  0  0  0  0
 15 14  1  0  0  0  0
 17 16  1  0  0  0  0
 18 17  1  0  0  0  0
 20 19  1  0  0  0  0
 21 20  1  0  0  0  0
 21 22  1  0  0  0  0
 23 13  1  0  0  0  0
 24 28  1  0  0  0  0
 26 25  1  0  0  0  0
 27 24  1  0  0  0  0
 27 26  1  0  0  0  0
 28 25  1  0  0  0  0
 28 23  1  0  0  0  0
 29 31  1  0  0  0  0
 30 29  1  0  0  0  0
 31 27  1  0  0  0  0
 32 29  2  0  0  0  0
 33  2  1  0  0  0  0
 34 33  1  0  0  0  0
 35 34  1  0  0  0  0
 36 35  1  0  0  0  0
 37 50  1  0  0  0  0
 37 46  1  0  0  0  0
 37 55  1  0  0  0  0
 38 44  1  0  0  0  0
 38 39  1  0  0  0  0
 39 55  1  0  0  0  0
 39 43  1  0  0  0  0
 40 45  2  0  0  0  0
 41 36  1  0  0  0  0
 42 48  1  0  0  0  0
 44 39  1  0  0  0  0
 45 41  1  0  0  0  0
 45 47  2  0  0  0  0
 48 46  1  0  0  0  0
 48 43  1  0  0  0  0
 49 37  1  0  0  0  0
 50 41  1  0  0  0  0
 51 49  1  0  0  0  0
 51 42  1  0  0  0  0
 51 38  1  0  0  0  0
 52 45  1  0  0  0  0
 52 46  1  0  0  0  0
 53 55  1  0  0  0  0
 54 49  1  0  0  0  0
M  END
>  <MODEL>
9

>  <REMARK>
 VINA RESULT:      -5.4      3.098      9.260
  Name = 
  12 active torsions:
  status: ('A' for Active; 'I' for Inactive)
    1  A    between atoms: C_2  and  C_44
    2  A    between atoms: C_4  and  C_40
    3  A    between atoms: N_8  and  C_43
    4  A    between atoms: C_16  and  C_17
    5  A    between atoms: C_19  and  C_40
    6  A    between atoms: C_27  and  C_54
    7  A    between atoms: N_32  and  C_48
    8  A    between atoms: C_33  and  N_36
    9  A    between atoms: C_33  and  C_52
   10  A    between atoms: C_35  and  C_43
   11  A    between atoms: C_35  and  C_51
   12  A    between atoms: C_51  and  C_54
                            x       y       z     vdW  Elec       q    Type
                         _______ _______ _______ _____ _____    ______ ____

>  <TORSDO>
F 12

$$$$
