=
 OpenBabel10262421153D

 32 37  0  0  1  0  0  0  0  0999 V2000
  187.3430  178.2300  141.1770 C   0  0  1  0  0  3  0  0  0  0  0  0
  188.4050  177.3510  139.0900 C   0  0  1  0  0  3  0  0  0  0  0  0
  186.3450  179.2760  141.6670 C   0  0  0  0  0  2  0  0  0  0  0  0
  187.4120  178.3470  139.6590 C   0  0  1  0  0  3  0  0  0  0  0  0
  188.4100  177.4100  137.6180 N   0  0  1  0  0  0  0  0  0  0  0  0
  193.2760  176.5910  138.9220 C   0  0  0  0  0  3  0  0  0  0  0  0
  189.7500  177.7840  139.6750 C   0  0  1  0  0  3  0  0  0  0  0  0
  191.8520  176.0080  137.0550 C   0  0  0  0  0  3  0  0  0  0  0  0
  190.7500  176.5630  137.7140 C   0  0  0  0  0  0  0  0  0  0  0  0
  186.0780  178.2510  138.9940 C   0  0  0  0  0  0  0  0  0  0  0  0
  189.3960  176.4630  137.0680 C   0  0  0  0  0  2  0  0  0  0  0  0
  186.0300  177.8550  137.6580 O   0  0  0  0  0  0  0  0  0  0  0  0
  184.9620  178.6120  139.6360 C   0  0  0  0  0  3  0  0  0  0  0  0
  189.7400  177.5560  141.1230 N   0  0  0  0  0  2  0  0  0  0  0  0
  188.7570  178.4590  141.7490 C   0  0  2  0  0  3  0  0  0  0  0  0
  190.9040  177.1000  139.0050 C   0  0  0  0  0  0  0  0  0  0  0  0
  187.0700  177.0560  137.0820 C   0  0  2  0  0  3  0  0  0  0  0  0
  184.9520  178.9620  141.1070 C   0  0  0  0  0  2  0  0  0  0  0  0
  193.1130  176.0240  137.6570 C   0  0  0  0  0  3  0  0  0  0  0  0
  192.1770  177.1360  139.5910 C   0  0  0  0  0  3  0  0  0  0  0  0
  190.6080  176.9640  144.5430 C   0  0  1  0  0  3  0  0  0  0  0  0
  188.2550  176.8880  147.3960 O   0  0  0  0  0  0  0  0  0  0  0  0
  191.9790  176.7830  144.4910 F   0  0  0  0  0  0  0  0  0  0  0  0
  187.6800  177.1810  145.1740 N   0  0  0  0  0  2  0  0  0  0  0  0
  188.7800  178.3090  143.2750 C   0  0  1  0  0  3  0  0  0  0  0  0
  190.1520  177.0690  145.9920 C   0  0  0  0  0  2  0  0  0  0  0  0
  187.9140  177.1340  143.7350 C   0  0  0  0  0  2  0  0  0  0  0  0
  190.1940  178.1910  143.7770 C   0  0  0  0  0  0  0  0  0  0  0  0
  190.9640  179.2810  143.7900 C   0  0  0  0  0  2  0  0  0  0  0  0
  188.6600  177.0200  146.2130 C   0  0  0  0  0  0  0  0  0  0  0  0
  186.7100  175.5630  137.1930 C   0  0  0  0  0  2  0  0  0  0  0  0
  185.3310  175.3660  137.1040 O   0  0  0  0  0  1  0  0  0  0  0  0
  1  3  1  1  0  0  0
  1 15  1  0  0  0  0
  2  4  1  0  0  0  0
  2  7  1  0  0  0  0
  4  1  1  0  0  0  0
  5  2  1  0  0  0  0
  6 20  1  0  0  0  0
  7 14  1  0  0  0  0
  8 19  1  0  0  0  0
  8  9  2  0  0  0  0
  9 16  1  0  0  0  0
 10 13  2  0  0  0  0
 10  4  1  0  0  0  0
 11  5  1  0  0  0  0
 11  9  1  0  0  0  0
 12 10  1  0  0  0  0
 13 18  1  0  0  0  0
 14 15  1  0  0  0  0
 15 25  1  0  0  0  0
 16 20  2  0  0  0  0
 16  7  1  0  0  0  0
 17 31  1  0  0  0  0
 17  5  1  0  0  0  0
 17 12  1  0  0  0  0
 18  3  1  0  0  0  0
 19  6  2  0  0  0  0
 21 26  1  0  0  0  0
 23 21  1  0  0  0  0
 24 30  1  0  0  0  0
 25 27  1  0  0  0  0
 25 28  1  0  0  0  0
 26 30  1  0  0  0  0
 27 24  1  0  0  0  0
 28 29  2  0  0  0  0
 28 21  1  0  0  0  0
 30 22  2  0  0  0  0
 32 31  1  0  0  0  0
M  END
>  <MODEL>
1

>  <REMARK>
 VINA RESULT:      -9.1      0.000      0.000
  Name = 
  2 active torsions:
  status: ('A' for Active; 'I' for Inactive)
    1  A    between atoms: C_13  and  C_29
    2  A    between atoms: C_16  and  C_27
                            x       y       z     vdW  Elec       q    Type
                         _______ _______ _______ _____ _____    ______ ____

>  <TORSDO>
F 2

$$$$
=
 OpenBabel10262421153D

 32 37  0  0  1  0  0  0  0  0999 V2000
  186.1940  178.0720  139.7340 C   0  0  1  0  0  3  0  0  0  0  0  0
  187.1230  177.8950  142.0490 C   0  0  1  0  0  3  0  0  0  0  0  0
  186.4950  178.6710  138.3630 C   0  0  0  0  0  2  0  0  0  0  0  0
  187.3550  178.4370  140.6510 C   0  0  1  0  0  3  0  0  0  0  0  0
  188.2830  178.1800  142.9120 N   0  0  1  0  0  0  0  0  0  0  0  0
  184.2170  178.7100  145.9520 C   0  0  0  0  0  3  0  0  0  0  0  0
  185.8700  178.6270  142.5330 C   0  0  1  0  0  3  0  0  0  0  0  0
  186.5170  178.0110  146.2260 C   0  0  0  0  0  3  0  0  0  0  0  0
  186.7140  178.0910  144.8440 C   0  0  0  0  0  0  0  0  0  0  0  0
  188.6890  178.0390  140.1100 C   0  0  0  0  0  0  0  0  0  0  0  0
  188.0440  177.6800  144.2780 C   0  0  0  0  0  2  0  0  0  0  0  0
  189.7420  177.8580  141.0060 O   0  0  0  0  0  0  0  0  0  0  0  0
  188.8930  177.9340  138.7920 C   0  0  0  0  0  3  0  0  0  0  0  0
  184.7200  178.1860  141.7380 N   0  0  0  0  0  2  0  0  0  0  0  0
  184.8940  178.6350  140.3450 C   0  0  2  0  0  3  0  0  0  0  0  0
  185.6410  178.4440  144.0040 C   0  0  0  0  0  0  0  0  0  0  0  0
  189.5000  177.5170  142.3760 C   0  0  2  0  0  3  0  0  0  0  0  0
  187.7660  178.0330  137.7890 C   0  0  0  0  0  2  0  0  0  0  0  0
  185.2720  178.3220  146.7800 C   0  0  0  0  0  3  0  0  0  0  0  0
  184.4030  178.7790  144.5690 C   0  0  0  0  0  3  0  0  0  0  0  0
  181.2780  179.1570  139.9990 C   0  0  1  0  0  3  0  0  0  0  0  0
  180.0430  176.3690  137.9060 O   0  0  0  0  0  0  0  0  0  0  0  0
  180.6780  180.3460  140.3760 F   0  0  0  0  0  0  0  0  0  0  0  0
  182.0820  176.4430  138.9980 N   0  0  0  0  0  2  0  0  0  0  0  0
  183.6670  178.2650  139.5010 C   0  0  1  0  0  3  0  0  0  0  0  0
  180.4360  178.4630  138.9390 C   0  0  0  0  0  2  0  0  0  0  0  0
  183.0350  176.9550  139.9760 C   0  0  0  0  0  2  0  0  0  0  0  0
  182.6720  179.3940  139.4870 C   0  0  0  0  0  0  0  0  0  0  0  0
  182.9450  180.4810  138.7630 C   0  0  0  0  0  2  0  0  0  0  0  0
  180.8350  177.0440  138.6130 C   0  0  0  0  0  0  0  0  0  0  0  0
  189.5270  175.9880  142.5510 C   0  0  0  0  0  2  0  0  0  0  0  0
  190.6900  175.5720  143.2010 O   0  0  0  0  0  1  0  0  0  0  0  0
  1  3  1  6  0  0  0
  1 15  1  0  0  0  0
  1  4  1  0  0  0  0
  2  7  1  0  0  0  0
  2  5  1  0  0  0  0
  4  2  1  0  0  0  0
  5 11  1  0  0  0  0
  6 19  1  0  0  0  0
  7 16  1  0  0  0  0
  8 19  2  0  0  0  0
  9  8  1  0  0  0  0
 10  4  1  0  0  0  0
 10 12  1  0  0  0  0
 11  9  1  0  0  0  0
 12 17  1  0  0  0  0
 13 10  2  0  0  0  0
 14  7  1  0  0  0  0
 15 14  1  0  0  0  0
 16 20  1  0  0  0  0
 16  9  2  0  0  0  0
 17 31  1  0  0  0  0
 17  5  1  0  0  0  0
 18  3  1  0  0  0  0
 18 13  1  0  0  0  0
 20  6  2  0  0  0  0
 21 23  1  0  0  0  0
 22 30  2  0  0  0  0
 24 27  1  0  0  0  0
 25 27  1  0  0  0  0
 25 15  1  0  0  0  0
 26 21  1  0  0  0  0
 28 25  1  0  0  0  0
 28 21  1  0  0  0  0
 29 28  2  0  0  0  0
 30 26  1  0  0  0  0
 30 24  1  0  0  0  0
 31 32  1  0  0  0  0
M  END
>  <MODEL>
2

>  <REMARK>
 VINA RESULT:      -9.0      3.809      7.919
  Name = 
  2 active torsions:
  status: ('A' for Active; 'I' for Inactive)
    1  A    between atoms: C_13  and  C_29
    2  A    between atoms: C_16  and  C_27
                            x       y       z     vdW  Elec       q    Type
                         _______ _______ _______ _____ _____    ______ ____

>  <TORSDO>
F 2

$$$$
=
 OpenBabel10262421153D

 32 37  0  0  1  0  0  0  0  0999 V2000
  186.9710  178.0520  139.2480 C   0  0  1  0  0  3  0  0  0  0  0  0
  187.2540  177.9070  141.7290 C   0  0  1  0  0  3  0  0  0  0  0  0
  187.6580  178.5780  137.9910 C   0  0  0  0  0  2  0  0  0  0  0  0
  187.8770  178.3790  140.4290 C   0  0  1  0  0  3  0  0  0  0  0  0
  188.1670  178.1520  142.8590 N   0  0  1  0  0  0  0  0  0  0  0  0
  183.4990  179.0480  144.7190 C   0  0  0  0  0  3  0  0  0  0  0  0
  185.9720  178.7320  141.8530 C   0  0  1  0  0  3  0  0  0  0  0  0
  185.5950  178.2190  145.5990 C   0  0  0  0  0  3  0  0  0  0  0  0
  186.1490  178.2340  144.3150 C   0  0  0  0  0  0  0  0  0  0  0  0
  189.2750  177.8790  140.2630 C   0  0  0  0  0  0  0  0  0  0  0  0
  187.5480  177.7200  144.1250 C   0  0  0  0  0  2  0  0  0  0  0  0
  190.0440  177.6680  141.4070 O   0  0  0  0  0  0  0  0  0  0  0  0
  189.8060  177.7110  139.0470 C   0  0  0  0  0  3  0  0  0  0  0  0
  185.0400  178.3330  140.7950 N   0  0  0  0  0  2  0  0  0  0  0  0
  185.6000  178.7170  139.4860 C   0  0  2  0  0  3  0  0  0  0  0  0
  185.3580  178.6200  143.2170 C   0  0  0  0  0  0  0  0  0  0  0  0
  189.4330  177.3950  142.6730 C   0  0  2  0  0  3  0  0  0  0  0  0
  188.9870  177.8410  137.7820 C   0  0  0  0  0  2  0  0  0  0  0  0
  184.2740  178.6280  145.8020 C   0  0  0  0  0  3  0  0  0  0  0  0
  184.0420  179.0520  143.4320 C   0  0  0  0  0  3  0  0  0  0  0  0
  182.1150  177.8090  138.7830 C   0  0  1  0  0  3  0  0  0  0  0  0
  182.1090  176.3560  135.3820 O   0  0  0  0  0  0  0  0  0  0  0  0
  181.0760  178.2420  139.5880 F   0  0  0  0  0  0  0  0  0  0  0  0
  183.9720  176.6620  136.7200 N   0  0  0  0  0  2  0  0  0  0  0  0
  184.6110  178.3910  138.3590 C   0  0  1  0  0  3  0  0  0  0  0  0
  181.5990  177.5160  137.3810 C   0  0  0  0  0  2  0  0  0  0  0  0
  184.6620  176.9090  137.9810 C   0  0  0  0  0  2  0  0  0  0  0  0
  183.2200  178.8270  138.7300 C   0  0  0  0  0  0  0  0  0  0  0  0
  182.9310  180.1300  138.7190 C   0  0  0  0  0  2  0  0  0  0  0  0
  182.5640  176.8030  136.4660 C   0  0  0  0  0  0  0  0  0  0  0  0
  189.3060  175.8750  142.8810 C   0  0  0  0  0  2  0  0  0  0  0  0
  190.5550  175.2520  142.8440 O   0  0  0  0  0  1  0  0  0  0  0  0
  1  3  1  6  0  0  0
  1 15  1  0  0  0  0
  1  4  1  0  0  0  0
  2  7  1  0  0  0  0
  2  5  1  0  0  0  0
  4  2  1  0  0  0  0
  5 11  1  0  0  0  0
  6 19  1  0  0  0  0
  7 16  1  0  0  0  0
  8 19  2  0  0  0  0
  9  8  1  0  0  0  0
 10  4  1  0  0  0  0
 10 12  1  0  0  0  0
 11  9  1  0  0  0  0
 12 17  1  0  0  0  0
 13 10  2  0  0  0  0
 14  7  1  0  0  0  0
 15 14  1  0  0  0  0
 16 20  1  0  0  0  0
 16  9  2  0  0  0  0
 17  5  1  0  0  0  0
 17 31  1  0  0  0  0
 18  3  1  0  0  0  0
 18 13  1  0  0  0  0
 20  6  2  0  0  0  0
 21 23  1  0  0  0  0
 22 30  2  0  0  0  0
 24 27  1  0  0  0  0
 25 28  1  0  0  0  0
 25 15  1  0  0  0  0
 26 21  1  0  0  0  0
 27 25  1  0  0  0  0
 28 21  1  0  0  0  0
 29 28  2  0  0  0  0
 30 24  1  0  0  0  0
 30 26  1  0  0  0  0
 32 31  1  0  0  0  0
M  END
>  <MODEL>
3

>  <REMARK>
 VINA RESULT:      -8.8      3.563      8.019
  Name = 
  2 active torsions:
  status: ('A' for Active; 'I' for Inactive)
    1  A    between atoms: C_13  and  C_29
    2  A    between atoms: C_16  and  C_27
                            x       y       z     vdW  Elec       q    Type
                         _______ _______ _______ _____ _____    ______ ____

>  <TORSDO>
F 2

$$$$
=
 OpenBabel10262421153D

 32 37  0  0  1  0  0  0  0  0999 V2000
  186.7790  177.7810  143.0730 C   0  0  1  0  0  3  0  0  0  0  0  0
  185.9780  178.1700  140.7360 C   0  0  1  0  0  3  0  0  0  0  0  0
  186.6560  178.3310  144.4920 C   0  0  0  0  0  2  0  0  0  0  0  0
  185.8950  178.6390  142.1770 C   0  0  1  0  0  3  0  0  0  0  0  0
  185.0620  178.9500  139.8860 N   0  0  1  0  0  0  0  0  0  0  0  0
  189.1810  178.1340  136.9830 C   0  0  0  0  0  3  0  0  0  0  0  0
  187.4390  178.4030  140.3490 C   0  0  1  0  0  3  0  0  0  0  0  0
  186.8060  178.3970  136.6020 C   0  0  0  0  0  3  0  0  0  0  0  0
  186.5800  178.4290  137.9820 C   0  0  0  0  0  0  0  0  0  0  0  0
  184.4830  178.7390  142.6540 C   0  0  0  0  0  0  0  0  0  0  0  0
  185.1650  178.5140  138.4820 C   0  0  0  0  0  2  0  0  0  0  0  0
  183.4910  179.0520  141.7250 O   0  0  0  0  0  0  0  0  0  0  0  0
  184.1840  178.6090  143.9500 C   0  0  0  0  0  3  0  0  0  0  0  0
  188.2910  177.4900  141.1160 N   0  0  0  0  0  2  0  0  0  0  0  0
  188.2260  177.8510  142.5430 C   0  0  2  0  0  3  0  0  0  0  0  0
  187.6600  178.2710  138.8710 C   0  0  0  0  0  0  0  0  0  0  0  0
  183.6570  178.7620  140.3330 C   0  0  2  0  0  3  0  0  0  0  0  0
  185.2080  178.1830  144.9780 C   0  0  0  0  0  2  0  0  0  0  0  0
  188.1030  178.2530  136.1030 C   0  0  0  0  0  3  0  0  0  0  0  0
  188.9610  178.1530  138.3630 C   0  0  0  0  0  3  0  0  0  0  0  0
  191.5080  177.7660  144.1820 C   0  0  1  0  0  3  0  0  0  0  0  0
  192.3140  174.1880  144.6610 O   0  0  0  0  0  0  0  0  0  0  0  0
  192.0810  178.9060  144.7180 F   0  0  0  0  0  0  0  0  0  0  0  0
  190.6970  175.0340  143.2370 N   0  0  0  0  0  2  0  0  0  0  0  0
  189.1730  176.9700  143.3680 C   0  0  1  0  0  3  0  0  0  0  0  0
  192.0550  176.5310  144.8830 C   0  0  0  0  0  2  0  0  0  0  0  0
  190.0370  176.0820  142.4690 C   0  0  0  0  0  2  0  0  0  0  0  0
  190.0090  177.8090  144.2950 C   0  0  0  0  0  0  0  0  0  0  0  0
  189.4330  178.3420  145.3750 C   0  0  0  0  0  2  0  0  0  0  0  0
  191.7110  175.2090  144.2410 C   0  0  0  0  0  0  0  0  0  0  0  0
  183.0610  177.3800  140.0070 C   0  0  0  0  0  2  0  0  0  0  0  0
  181.6810  177.3610  140.2190 O   0  0  0  0  0  1  0  0  0  0  0  0
  1  3  1  1  0  0  0
  2  4  1  0  0  0  0
  3 18  1  0  0  0  0
  4 10  1  0  0  0  0
  4  1  1  0  0  0  0
  5 17  1  0  0  0  0
  5  2  1  0  0  0  0
  6 20  1  0  0  0  0
  7  2  1  0  0  0  0
  7 14  1  0  0  0  0
  8  9  2  0  0  0  0
  9 11  1  0  0  0  0
  9 16  1  0  0  0  0
 10 13  2  0  0  0  0
 11  5  1  0  0  0  0
 12 10  1  0  0  0  0
 13 18  1  0  0  0  0
 14 15  1  0  0  0  0
 15  1  1  0  0  0  0
 15 25  1  0  0  0  0
 16  7  1  0  0  0  0
 17 12  1  0  0  0  0
 19  8  1  0  0  0  0
 19  6  2  0  0  0  0
 20 16  2  0  0  0  0
 21 28  1  0  0  0  0
 21 23  1  0  0  0  0
 21 26  1  0  0  0  0
 24 30  1  0  0  0  0
 25 28  1  0  0  0  0
 27 24  1  0  0  0  0
 27 25  1  0  0  0  0
 28 29  2  0  0  0  0
 30 22  2  0  0  0  0
 30 26  1  0  0  0  0
 31 32  1  0  0  0  0
 31 17  1  0  0  0  0
M  END
>  <MODEL>
4

>  <REMARK>
 VINA RESULT:      -8.6      2.700      3.791
  Name = 
  2 active torsions:
  status: ('A' for Active; 'I' for Inactive)
    1  A    between atoms: C_13  and  C_29
    2  A    between atoms: C_16  and  C_27
                            x       y       z     vdW  Elec       q    Type
                         _______ _______ _______ _____ _____    ______ ____

>  <TORSDO>
F 2

$$$$
=
 OpenBabel10262421153D

 32 37  0  0  1  0  0  0  0  0999 V2000
  186.1030  178.5740  142.6980 C   0  0  1  0  0  3  0  0  0  0  0  0
  188.4640  177.9330  142.1780 C   0  0  1  0  0  3  0  0  0  0  0  0
  184.9630  178.2700  143.6670 C   0  0  0  0  0  2  0  0  0  0  0  0
  187.2880  177.7070  143.1090 C   0  0  1  0  0  3  0  0  0  0  0  0
  189.6330  177.1550  142.6240 N   0  0  1  0  0  0  0  0  0  0  0  0
  189.8000  176.9780  137.5250 C   0  0  0  0  0  3  0  0  0  0  0  0
  187.9600  177.4580  140.8140 C   0  0  1  0  0  3  0  0  0  0  0  0
  191.4200  176.9650  139.3230 C   0  0  0  0  0  3  0  0  0  0  0  0
  190.3990  177.1770  140.2550 C   0  0  0  0  0  0  0  0  0  0  0  0
  187.6710  177.8640  144.5440 C   0  0  0  0  0  0  0  0  0  0  0  0
  190.7650  177.3520  141.7020 C   0  0  0  0  0  2  0  0  0  0  0  0
  188.9740  177.5400  144.9220 O   0  0  0  0  0  0  0  0  0  0  0  0
  186.7690  178.2300  145.4610 C   0  0  0  0  0  3  0  0  0  0  0  0
  186.9040  178.3630  140.3500 N   0  0  0  0  0  2  0  0  0  0  0  0
  185.7350  178.2380  141.2390 C   0  0  2  0  0  3  0  0  0  0  0  0
  189.0710  177.3310  139.8140 C   0  0  0  0  0  0  0  0  0  0  0  0
  190.0530  177.5880  143.9820 C   0  0  2  0  0  3  0  0  0  0  0  0
  185.3720  178.6750  145.0890 C   0  0  0  0  0  2  0  0  0  0  0  0
  191.1220  176.8640  137.9610 C   0  0  0  0  0  3  0  0  0  0  0  0
  188.7770  177.2020  138.4500 C   0  0  0  0  0  3  0  0  0  0  0  0
  182.4190  178.1250  139.6700 C   0  0  1  0  0  3  0  0  0  0  0  0
  181.8430  181.4990  138.2680 O   0  0  0  0  0  0  0  0  0  0  0  0
  181.5500  177.0700  139.8860 F   0  0  0  0  0  0  0  0  0  0  0  0
  183.8870  180.6360  138.9240 N   0  0  0  0  0  2  0  0  0  0  0  0
  184.5770  179.1080  140.7340 C   0  0  1  0  0  3  0  0  0  0  0  0
  181.6370  179.3750  139.2920 C   0  0  0  0  0  2  0  0  0  0  0  0
  184.8100  179.5690  139.2930 C   0  0  0  0  0  2  0  0  0  0  0  0
  183.2650  178.3880  140.8860 C   0  0  0  0  0  0  0  0  0  0  0  0
  182.7420  178.2560  142.1070 C   0  0  0  0  0  2  0  0  0  0  0  0
  182.4600  180.5340  138.7880 C   0  0  0  0  0  0  0  0  0  0  0  0
  190.7350  178.9680  144.0320 C   0  0  0  0  0  2  0  0  0  0  0  0
  192.1010  178.8480  144.2940 O   0  0  0  0  0  1  0  0  0  0  0  0
  1  4  1  0  0  0  0
  1  3  1  1  0  0  0
  2  5  1  0  0  0  0
  2  4  1  0  0  0  0
  3 18  1  0  0  0  0
  4 10  1  0  0  0  0
  5 17  1  0  0  0  0
  6 19  2  0  0  0  0
  6 20  1  0  0  0  0
  7  2  1  0  0  0  0
  8  9  2  0  0  0  0
  9 11  1  0  0  0  0
 10 12  1  0  0  0  0
 10 13  2  0  0  0  0
 11  5  1  0  0  0  0
 14  7  1  0  0  0  0
 14 15  1  0  0  0  0
 15  1  1  0  0  0  0
 16  9  1  0  0  0  0
 16  7  1  0  0  0  0
 17 31  1  0  0  0  0
 17 12  1  0  0  0  0
 18 13  1  0  0  0  0
 19  8  1  0  0  0  0
 20 16  2  0  0  0  0
 21 23  1  0  0  0  0
 21 28  1  0  0  0  0
 22 30  2  0  0  0  0
 24 27  1  0  0  0  0
 25 28  1  0  0  0  0
 25 15  1  0  0  0  0
 26 21  1  0  0  0  0
 27 25  1  0  0  0  0
 28 29  2  0  0  0  0
 30 24  1  0  0  0  0
 30 26  1  0  0  0  0
 31 32  1  0  0  0  0
M  END
>  <MODEL>
5

>  <REMARK>
 VINA RESULT:      -8.1      3.164      6.604
  Name = 
  2 active torsions:
  status: ('A' for Active; 'I' for Inactive)
    1  A    between atoms: C_13  and  C_29
    2  A    between atoms: C_16  and  C_27
                            x       y       z     vdW  Elec       q    Type
                         _______ _______ _______ _____ _____    ______ ____

>  <TORSDO>
F 2

$$$$
=
 OpenBabel10262421153D

 32 37  0  0  1  0  0  0  0  0999 V2000
  188.5620  177.7030  141.1250 C   0  0  1  0  0  3  0  0  0  0  0  0
  189.0070  177.1070  138.7370 C   0  0  1  0  0  3  0  0  0  0  0  0
  187.8620  178.7480  141.9900 C   0  0  0  0  0  2  0  0  0  0  0  0
  188.3220  178.0880  139.6700 C   0  0  1  0  0  3  0  0  0  0  0  0
  188.7070  177.4340  137.3320 N   0  0  1  0  0  0  0  0  0  0  0  0
  193.5570  175.8440  137.3080 C   0  0  0  0  0  3  0  0  0  0  0  0
  190.4960  177.2710  139.0470 C   0  0  1  0  0  3  0  0  0  0  0  0
  191.6950  175.7780  135.7640 C   0  0  0  0  0  3  0  0  0  0  0  0
  190.8560  176.3240  136.7420 C   0  0  0  0  0  0  0  0  0  0  0  0
  186.8780  178.2680  139.3320 C   0  0  0  0  0  0  0  0  0  0  0  0
  189.3970  176.4990  136.4270 C   0  0  0  0  0  2  0  0  0  0  0  0
  186.4870  178.1310  138.0010 O   0  0  0  0  0  0  0  0  0  0  0  0
  185.9930  178.6280  140.2670 C   0  0  0  0  0  3  0  0  0  0  0  0
  190.7600  176.7840  140.4040 N   0  0  0  0  0  2  0  0  0  0  0  0
  190.0830  177.6620  141.3740 C   0  0  2  0  0  3  0  0  0  0  0  0
  191.3630  176.5950  138.0260 C   0  0  0  0  0  0  0  0  0  0  0  0
  187.2450  177.3390  137.0810 C   0  0  2  0  0  3  0  0  0  0  0  0
  186.3500  178.7010  141.7350 C   0  0  0  0  0  2  0  0  0  0  0  0
  193.0430  175.5410  136.0460 C   0  0  0  0  0  3  0  0  0  0  0  0
  192.7220  176.3780  138.2930 C   0  0  0  0  0  3  0  0  0  0  0  0
  188.7490  177.5180  144.7900 C   0  0  1  0  0  3  0  0  0  0  0  0
  191.6800  177.1280  147.0110 O   0  0  0  0  0  0  0  0  0  0  0  0
  187.3960  177.3580  145.0330 F   0  0  0  0  0  0  0  0  0  0  0  0
  191.7360  177.8230  144.8050 N   0  0  0  0  0  2  0  0  0  0  0  0
  190.4090  177.2330  142.8110 C   0  0  1  0  0  3  0  0  0  0  0  0
  189.5550  177.0080  145.9760 C   0  0  0  0  0  2  0  0  0  0  0  0
  191.1540  178.3330  143.5690 C   0  0  0  0  0  2  0  0  0  0  0  0
  189.1600  176.8020  143.5320 C   0  0  0  0  0  0  0  0  0  0  0  0
  188.6100  175.6280  143.2190 C   0  0  0  0  0  2  0  0  0  0  0  0
  191.0260  177.3420  145.9580 C   0  0  0  0  0  0  0  0  0  0  0  0
  186.6950  175.9010  137.0440 C   0  0  0  0  0  2  0  0  0  0  0  0
  185.3090  175.8840  137.2150 O   0  0  0  0  0  1  0  0  0  0  0  0
  1 15  1  0  0  0  0
  1  3  1  1  0  0  0
  2  7  1  0  0  0  0
  2  4  1  0  0  0  0
  4  1  1  0  0  0  0
  5  2  1  0  0  0  0
  6 20  1  0  0  0  0
  7 14  1  0  0  0  0
  8 19  1  0  0  0  0
  8  9  2  0  0  0  0
  9 16  1  0  0  0  0
 10  4  1  0  0  0  0
 10 13  2  0  0  0  0
 11  9  1  0  0  0  0
 11  5  1  0  0  0  0
 12 10  1  0  0  0  0
 13 18  1  0  0  0  0
 14 15  1  0  0  0  0
 15 25  1  0  0  0  0
 16 20  2  0  0  0  0
 16  7  1  0  0  0  0
 17  5  1  0  0  0  0
 17 12  1  0  0  0  0
 18  3  1  0  0  0  0
 19  6  2  0  0  0  0
 21 23  1  0  0  0  0
 21 26  1  0  0  0  0
 24 30  1  0  0  0  0
 25 28  1  0  0  0  0
 25 27  1  0  0  0  0
 27 24  1  0  0  0  0
 28 21  1  0  0  0  0
 29 28  2  0  0  0  0
 30 26  1  0  0  0  0
 30 22  2  0  0  0  0
 31 17  1  0  0  0  0
 31 32  1  0  0  0  0
M  END
>  <MODEL>
6

>  <REMARK>
 VINA RESULT:      -7.9      1.583      2.012
  Name = 
  2 active torsions:
  status: ('A' for Active; 'I' for Inactive)
    1  A    between atoms: C_13  and  C_29
    2  A    between atoms: C_16  and  C_27
                            x       y       z     vdW  Elec       q    Type
                         _______ _______ _______ _____ _____    ______ ____

>  <TORSDO>
F 2

$$$$
=
 OpenBabel10262421153D

 32 37  0  0  1  0  0  0  0  0999 V2000
  184.1730  178.5770  142.6410 C   0  0  1  0  0  3  0  0  0  0  0  0
  183.4850  178.0080  140.3050 C   0  0  1  0  0  3  0  0  0  0  0  0
  183.7840  179.4560  143.8260 C   0  0  0  0  0  2  0  0  0  0  0  0
  183.1560  178.8320  141.5350 C   0  0  1  0  0  3  0  0  0  0  0  0
  182.4550  178.1950  139.2680 N   0  0  1  0  0  0  0  0  0  0  0  0
  186.8550  177.8230  136.7070 C   0  0  0  0  0  3  0  0  0  0  0  0
  184.8450  178.5390  139.8500 C   0  0  1  0  0  3  0  0  0  0  0  0
  184.5420  177.2460  136.2890 C   0  0  0  0  0  3  0  0  0  0  0  0
  184.2070  177.6130  137.5970 C   0  0  0  0  0  0  0  0  0  0  0  0
  181.7400  178.6440  141.9750 C   0  0  0  0  0  0  0  0  0  0  0  0
  182.7920  177.4170  138.0620 C   0  0  0  0  0  2  0  0  0  0  0  0
  180.7780  178.3620  141.0060 O   0  0  0  0  0  0  0  0  0  0  0  0
  181.3880  178.8180  143.2530 C   0  0  0  0  0  3  0  0  0  0  0  0
  185.8570  178.1860  140.8490 N   0  0  0  0  0  2  0  0  0  0  0  0
  185.5770  178.9140  142.1000 C   0  0  2  0  0  3  0  0  0  0  0  0
  185.2120  178.0510  138.4800 C   0  0  0  0  0  0  0  0  0  0  0  0
  181.1310  177.7390  139.7660 C   0  0  2  0  0  3  0  0  0  0  0  0
  182.4050  179.0360  144.3500 C   0  0  0  0  0  2  0  0  0  0  0  0
  185.8630  177.3530  135.8440 C   0  0  0  0  0  3  0  0  0  0  0  0
  186.5290  178.1790  138.0180 C   0  0  0  0  0  3  0  0  0  0  0  0
  188.2780  176.6010  143.0060 C   0  0  1  0  0  3  0  0  0  0  0  0
  188.9390  177.1670  146.6010 O   0  0  0  0  0  0  0  0  0  0  0  0
  189.0070  175.9250  142.0430 F   0  0  0  0  0  0  0  0  0  0  0  0
  187.0490  177.8430  145.4480 N   0  0  0  0  0  2  0  0  0  0  0  0
  186.6670  178.6350  143.1430 C   0  0  1  0  0  3  0  0  0  0  0  0
  189.1020  176.7440  144.2770 C   0  0  0  0  0  2  0  0  0  0  0  0
  186.1170  177.8360  144.3270 C   0  0  0  0  0  2  0  0  0  0  0  0
  187.8490  177.9540  142.5080 C   0  0  0  0  0  0  0  0  0  0  0  0
  188.6620  178.6720  141.7300 C   0  0  0  0  0  2  0  0  0  0  0  0
  188.3530  177.2390  145.4900 C   0  0  0  0  0  0  0  0  0  0  0  0
  180.9830  176.2110  139.8820 C   0  0  0  0  0  2  0  0  0  0  0  0
  179.8550  175.8670  140.6300 O   0  0  0  0  0  1  0  0  0  0  0  0
  1  3  1  1  0  0  0
  2  4  1  0  0  0  0
  3 18  1  0  0  0  0
  4 10  1  0  0  0  0
  4  1  1  0  0  0  0
  5 17  1  0  0  0  0
  5  2  1  0  0  0  0
  6 20  1  0  0  0  0
  7  2  1  0  0  0  0
  7 14  1  0  0  0  0
  8  9  2  0  0  0  0
  9 11  1  0  0  0  0
  9 16  1  0  0  0  0
 10 13  2  0  0  0  0
 11  5  1  0  0  0  0
 12 10  1  0  0  0  0
 13 18  1  0  0  0  0
 14 15  1  0  0  0  0
 15  1  1  0  0  0  0
 15 25  1  0  0  0  0
 16  7  1  0  0  0  0
 17 31  1  0  0  0  0
 17 12  1  0  0  0  0
 19  8  1  0  0  0  0
 19  6  2  0  0  0  0
 20 16  2  0  0  0  0
 21 26  1  0  0  0  0
 23 21  1  0  0  0  0
 24 30  1  0  0  0  0
 25 27  1  0  0  0  0
 26 30  1  0  0  0  0
 27 24  1  0  0  0  0
 28 21  1  0  0  0  0
 28 25  1  0  0  0  0
 29 28  2  0  0  0  0
 30 22  2  0  0  0  0
 31 32  1  0  0  0  0
M  END
>  <MODEL>
7

>  <REMARK>
 VINA RESULT:      -7.7      3.295      4.913
  Name = 
  2 active torsions:
  status: ('A' for Active; 'I' for Inactive)
    1  A    between atoms: C_13  and  C_29
    2  A    between atoms: C_16  and  C_27
                            x       y       z     vdW  Elec       q    Type
                         _______ _______ _______ _____ _____    ______ ____

>  <TORSDO>
F 2

$$$$
=
 OpenBabel10262421153D

 32 37  0  0  1  0  0  0  0  0999 V2000
  185.6910  178.3340  139.7580 C   0  0  1  0  0  3  0  0  0  0  0  0
  186.6900  178.0160  142.0280 C   0  0  1  0  0  3  0  0  0  0  0  0
  185.9780  178.9650  138.3980 C   0  0  0  0  0  2  0  0  0  0  0  0
  186.9040  178.5960  140.6430 C   0  0  1  0  0  3  0  0  0  0  0  0
  187.8950  178.1990  142.8560 N   0  0  1  0  0  0  0  0  0  0  0  0
  183.9810  178.8550  146.0650 C   0  0  0  0  0  3  0  0  0  0  0  0
  185.5020  178.8020  142.5850 C   0  0  1  0  0  3  0  0  0  0  0  0
  186.2430  178.0120  146.2270 C   0  0  0  0  0  3  0  0  0  0  0  0
  186.3940  178.1310  144.8410 C   0  0  0  0  0  0  0  0  0  0  0  0
  188.1910  178.1390  140.0370 C   0  0  0  0  0  0  0  0  0  0  0  0
  187.6760  177.6640  144.2110 C   0  0  0  0  0  2  0  0  0  0  0  0
  189.2620  177.8630  140.8860 O   0  0  0  0  0  0  0  0  0  0  0  0
  188.3410  178.0720  138.7100 C   0  0  0  0  0  3  0  0  0  0  0  0
  184.3000  178.4610  141.8190 N   0  0  0  0  0  2  0  0  0  0  0  0
  184.4500  178.9500  140.4370 C   0  0  2  0  0  3  0  0  0  0  0  0
  185.3150  178.5780  144.0560 C   0  0  0  0  0  0  0  0  0  0  0  0
  189.0500  177.4860  142.2510 C   0  0  2  0  0  3  0  0  0  0  0  0
  187.1870  178.2750  137.7540 C   0  0  0  0  0  2  0  0  0  0  0  0
  185.0400  178.3750  146.8380 C   0  0  0  0  0  3  0  0  0  0  0  0
  184.1210  178.9650  144.6800 C   0  0  0  0  0  3  0  0  0  0  0  0
  183.1550  177.3480  137.4000 C   0  0  1  0  0  3  0  0  0  0  0  0
  179.8650  178.9070  136.7520 O   0  0  0  0  0  0  0  0  0  0  0  0
  183.7410  176.2100  136.8750 F   0  0  0  0  0  0  0  0  0  0  0  0
  181.5090  179.7460  138.1480 N   0  0  0  0  0  2  0  0  0  0  0  0
  183.1740  178.6860  139.6280 C   0  0  1  0  0  3  0  0  0  0  0  0
  181.6940  177.4230  136.9800 C   0  0  0  0  0  2  0  0  0  0  0  0
  182.8640  179.8440  138.6760 C   0  0  0  0  0  2  0  0  0  0  0  0
  183.2690  177.3720  138.9000 C   0  0  0  0  0  0  0  0  0  0  0  0
  183.1580  176.2410  139.5990 C   0  0  0  0  0  2  0  0  0  0  0  0
  180.9970  178.7290  137.2700 C   0  0  0  0  0  0  0  0  0  0  0  0
  188.9900  175.9520  142.3710 C   0  0  0  0  0  2  0  0  0  0  0  0
  190.2300  175.4230  142.7320 O   0  0  0  0  0  1  0  0  0  0  0  0
  1  3  1  6  0  0  0
  1 15  1  0  0  0  0
  1  4  1  0  0  0  0
  2  7  1  0  0  0  0
  2  5  1  0  0  0  0
  4  2  1  0  0  0  0
  5 11  1  0  0  0  0
  6 19  1  0  0  0  0
  7 16  1  0  0  0  0
  8 19  2  0  0  0  0
  9  8  1  0  0  0  0
 10  4  1  0  0  0  0
 10 12  1  0  0  0  0
 11  9  1  0  0  0  0
 12 17  1  0  0  0  0
 13 10  2  0  0  0  0
 14  7  1  0  0  0  0
 15 14  1  0  0  0  0
 16 20  1  0  0  0  0
 16  9  2  0  0  0  0
 17 31  1  0  0  0  0
 17  5  1  0  0  0  0
 18  3  1  0  0  0  0
 18 13  1  0  0  0  0
 20  6  2  0  0  0  0
 21 28  1  0  0  0  0
 22 30  2  0  0  0  0
 23 21  1  0  0  0  0
 24 27  1  0  0  0  0
 25 15  1  0  0  0  0
 26 30  1  0  0  0  0
 26 21  1  0  0  0  0
 27 25  1  0  0  0  0
 28 29  2  0  0  0  0
 28 25  1  0  0  0  0
 30 24  1  0  0  0  0
 31 32  1  0  0  0  0
M  END
>  <MODEL>
8

>  <REMARK>
 VINA RESULT:      -7.6      3.791      8.065
  Name = 
  2 active torsions:
  status: ('A' for Active; 'I' for Inactive)
    1  A    between atoms: C_13  and  C_29
    2  A    between atoms: C_16  and  C_27
                            x       y       z     vdW  Elec       q    Type
                         _______ _______ _______ _____ _____    ______ ____

>  <TORSDO>
F 2

$$$$
=
 OpenBabel10262421153D

 32 37  0  0  1  0  0  0  0  0999 V2000
  185.9800  177.8150  138.3780 C   0  0  1  0  0  3  0  0  0  0  0  0
  186.5290  178.0750  140.8040 C   0  0  1  0  0  3  0  0  0  0  0  0
  186.4330  178.2610  136.9900 C   0  0  0  0  0  2  0  0  0  0  0  0
  186.9260  178.4520  139.3890 C   0  0  1  0  0  3  0  0  0  0  0  0
  187.4920  178.6260  141.7740 N   0  0  1  0  0  0  0  0  0  0  0  0
  182.9480  179.0020  144.0680 C   0  0  0  0  0  3  0  0  0  0  0  0
  185.1400  178.6890  140.9810 C   0  0  1  0  0  3  0  0  0  0  0  0
  185.2350  178.6630  144.7800 C   0  0  0  0  0  3  0  0  0  0  0  0
  185.6460  178.5840  143.4450 C   0  0  0  0  0  0  0  0  0  0  0  0
  188.3670  178.1690  139.1160 C   0  0  0  0  0  0  0  0  0  0  0  0
  187.0890  178.2850  143.1500 C   0  0  0  0  0  2  0  0  0  0  0  0
  189.2710  178.2530  140.1740 O   0  0  0  0  0  0  0  0  0  0  0  0
  188.7950  177.9180  137.8740 C   0  0  0  0  0  3  0  0  0  0  0  0
  184.1930  177.9950  140.1030 N   0  0  0  0  0  2  0  0  0  0  0  0
  184.5420  178.2740  138.6980 C   0  0  2  0  0  3  0  0  0  0  0  0
  184.6940  178.6740  142.4130 C   0  0  0  0  0  0  0  0  0  0  0  0
  188.8480  178.0680  141.5290 C   0  0  2  0  0  3  0  0  0  0  0  0
  187.8450  177.7290  136.7130 C   0  0  0  0  0  2  0  0  0  0  0  0
  183.8890  178.8750  145.0910 C   0  0  0  0  0  3  0  0  0  0  0  0
  183.3500  178.9120  142.7330 C   0  0  0  0  0  3  0  0  0  0  0  0
  181.0860  177.0660  138.4580 C   0  0  1  0  0  3  0  0  0  0  0  0
  180.9990  174.8070  135.5300 O   0  0  0  0  0  0  0  0  0  0  0  0
  180.0640  177.6420  139.1920 F   0  0  0  0  0  0  0  0  0  0  0  0
  182.9030  175.5210  136.6340 N   0  0  0  0  0  2  0  0  0  0  0  0
  183.5210  177.6330  137.7500 C   0  0  1  0  0  3  0  0  0  0  0  0
  180.5210  176.4080  137.2070 C   0  0  0  0  0  2  0  0  0  0  0  0
  183.6380  176.1070  137.7490 C   0  0  0  0  0  2  0  0  0  0  0  0
  182.1260  178.0870  138.0860 C   0  0  0  0  0  0  0  0  0  0  0  0
  181.7620  179.3310  137.7700 C   0  0  0  0  0  2  0  0  0  0  0  0
  181.4790  175.5310  136.4390 C   0  0  0  0  0  0  0  0  0  0  0  0
  189.0160  176.5930  141.9380 C   0  0  0  0  0  2  0  0  0  0  0  0
  190.3560  176.2830  142.1770 O   0  0  0  0  0  1  0  0  0  0  0  0
  1  3  1  6  0  0  0
  1 15  1  0  0  0  0
  1  4  1  0  0  0  0
  2  7  1  0  0  0  0
  2  5  1  0  0  0  0
  4  2  1  0  0  0  0
  5 11  1  0  0  0  0
  6 19  1  0  0  0  0
  7 16  1  0  0  0  0
  8 19  2  0  0  0  0
  9  8  1  0  0  0  0
 10  4  1  0  0  0  0
 10 12  1  0  0  0  0
 11  9  1  0  0  0  0
 12 17  1  0  0  0  0
 13 10  2  0  0  0  0
 14  7  1  0  0  0  0
 15 14  1  0  0  0  0
 16 20  1  0  0  0  0
 16  9  2  0  0  0  0
 17  5  1  0  0  0  0
 17 31  1  0  0  0  0
 18  3  1  0  0  0  0
 18 13  1  0  0  0  0
 20  6  2  0  0  0  0
 21 23  1  0  0  0  0
 22 30  2  0  0  0  0
 24 27  1  0  0  0  0
 25 28  1  0  0  0  0
 25 15  1  0  0  0  0
 26 21  1  0  0  0  0
 27 25  1  0  0  0  0
 28 21  1  0  0  0  0
 29 28  2  0  0  0  0
 30 24  1  0  0  0  0
 30 26  1  0  0  0  0
 31 32  1  0  0  0  0
M  END
>  <MODEL>
9

>  <REMARK>
 VINA RESULT:      -7.6      3.923      8.318
  Name = 
  2 active torsions:
  status: ('A' for Active; 'I' for Inactive)
    1  A    between atoms: C_13  and  C_29
    2  A    between atoms: C_16  and  C_27
                            x       y       z     vdW  Elec       q    Type
                         _______ _______ _______ _____ _____    ______ ____

>  <TORSDO>
F 2

$$$$
