=
 OpenBabel10262421143D

 32 37  0  0  1  0  0  0  0  0999 V2000
  184.8190  178.6380  142.1510 C   0  0  1  0  0  3  0  0  0  0  0  0
  187.2050  178.1340  142.1770 C   0  0  0  0  0  0  0  0  0  0  0  0
  183.6750  178.7380  142.8390 C   0  0  0  0  0  3  0  0  0  0  0  0
  186.0830  178.3830  142.8710 C   0  0  0  0  0  0  0  0  0  0  0  0
  188.5290  177.9820  142.8890 C   0  0  2  0  0  3  0  0  0  0  0  0
  189.5640  176.8590  137.9060 C   0  0  0  0  0  2  0  0  0  0  0  0
  187.2030  178.1450  140.6940 C   0  0  0  0  0  0  0  0  0  0  0  0
  190.5000  176.4300  140.1580 O   0  0  0  0  0  0  0  0  0  0  0  0
  189.5110  177.1750  140.8020 C   0  0  0  0  0  0  0  0  0  0  0  0
  186.1360  178.4770  144.3770 C   0  0  0  0  0  0  0  0  0  0  0  0
  189.4760  177.1940  142.1020 N   0  0  0  0  0  0  0  0  0  0  0  0
  187.0190  177.3630  144.9240 C   0  0  0  0  0  2  0  0  0  0  0  0
  184.7720  178.4320  145.0130 C   0  0  0  0  0  3  0  0  0  0  0  0
  186.0840  178.4650  140.0260 C   0  0  0  0  0  3  0  0  0  0  0  0
  184.8480  178.7260  140.7150 N   0  0  0  0  0  0  0  0  0  0  0  0
  188.5000  177.9120  139.9550 C   0  0  1  0  0  3  0  0  0  0  0  0
  188.4340  177.4100  144.3200 C   0  0  2  0  0  3  0  0  0  0  0  0
  183.6480  178.5850  144.3060 C   0  0  0  0  0  3  0  0  0  0  0  0
  190.8110  176.6400  138.7800 C   0  0  0  0  0  2  0  0  0  0  0  0
  188.2720  177.0660  138.7000 C   0  0  0  0  0  2  0  0  0  0  0  0
  182.7270  178.0380  137.7730 C   0  0  1  0  0  3  0  0  0  0  0  0
  180.4490  181.0450  137.7760 N   0  0  0  0  0  1  0  0  0  0  0  0
  182.4310  176.7360  137.0520 C   0  0  0  0  0  1  0  0  0  0  0  0
  182.6140  180.8480  138.6510 N   0  0  0  0  0  0  0  0  0  0  0  0
  183.6410  179.0370  139.9510 C   0  0  1  0  0  3  0  0  0  0  0  0
  181.6130  178.9190  137.6700 O   0  0  0  0  0  0  0  0  0  0  0  0
  183.8800  180.2240  139.0170 C   0  0  0  0  0  2  0  0  0  0  0  0
  183.1180  177.7850  139.2370 C   0  0  1  0  0  3  0  0  0  0  0  0
  181.9730  177.1840  140.0380 C   0  0  0  0  0  1  0  0  0  0  0  0
  181.6120  180.2720  138.0480 C   0  0  0  0  0  0  0  0  0  0  0  0
  189.4070  178.1190  145.2530 C   0  0  0  0  0  2  0  0  0  0  0  0
  189.1790  177.7500  146.5800 O   0  0  0  0  0  1  0  0  0  0  0  0
  1  3  1  6  0  0  0
  1  4  1  0  0  0  0
  2  4  2  0  0  0  0
  2  5  1  0  0  0  0
  3 18  2  0  0  0  0
  4 10  1  0  0  0  0
  5 11  1  6  0  0  0
  5 17  1  0  0  0  0
  6 20  1  0  0  0  0
  6 19  1  0  0  0  0
  7  2  1  0  0  0  0
  8  9  1  0  0  0  0
  9 11  2  0  0  0  0
 10 12  1  0  0  0  0
 10 13  2  0  0  0  0
 14  7  2  0  0  0  0
 14 15  1  0  0  0  0
 15  1  1  0  0  0  0
 16 20  1  6  0  0  0
 16  7  1  0  0  0  0
 16  9  1  0  0  0  0
 17 12  1  0  0  0  0
 17 31  1  1  0  0  0
 18 13  1  0  0  0  0
 19  8  1  0  0  0  0
 21 23  1  1  0  0  0
 21 28  1  0  0  0  0
 22 30  1  0  0  0  0
 24 27  1  0  0  0  0
 25 27  1  6  0  0  0
 25 15  1  0  0  0  0
 26 21  1  0  0  0  0
 26 30  1  0  0  0  0
 28 25  1  0  0  0  0
 28 29  1  1  0  0  0
 30 24  2  0  0  0  0
 31 32  1  0  0  0  0
M  END
>  <MODEL>
1

>  <REMARK>
 VINA RESULT:      -9.3      0.000      0.000
  Name = 
  2 active torsions:
  status: ('A' for Active; 'I' for Inactive)
    1  A    between atoms: C_13  and  C_29
    2  A    between atoms: C_16  and  N_27
                            x       y       z     vdW  Elec       q    Type
                         _______ _______ _______ _____ _____    ______ ____

>  <TORSDO>
F 2

$$$$
=
 OpenBabel10262421143D

 32 37  0  0  1  0  0  0  0  0999 V2000
  186.8090  178.1880  144.9740 C   0  0  0  0  0  0  0  0  0  0  0  0
  185.7330  178.2230  142.7860 C   0  0  0  0  0  0  0  0  0  0  0  0
  186.7120  178.4240  146.2890 C   0  0  0  0  0  3  0  0  0  0  0  0
  185.6100  178.3120  144.1200 C   0  0  0  0  0  0  0  0  0  0  0  0
  184.5080  178.2340  141.9020 C   0  0  2  0  0  3  0  0  0  0  0  0
  188.5340  178.2990  138.5940 C   0  0  0  0  0  2  0  0  0  0  0  0
  187.0510  177.9680  142.1570 C   0  0  0  0  0  0  0  0  0  0  0  0
  186.1340  178.9070  138.6380 O   0  0  0  0  0  0  0  0  0  0  0  0
  185.9650  178.4820  139.9570 C   0  0  0  0  0  0  0  0  0  0  0  0
  184.2430  178.4600  144.7410 C   0  0  2  0  0  3  0  0  0  0  0  0
  184.8250  178.6860  140.5480 N   0  0  0  0  0  0  0  0  0  0  0  0
  183.4230  179.4590  143.9350 C   0  0  0  0  0  2  0  0  0  0  0  0
  184.3000  178.8690  146.1890 C   0  0  0  0  0  3  0  0  0  0  0  0
  188.1330  177.7630  142.9220 C   0  0  0  0  0  3  0  0  0  0  0  0
  188.0670  177.8600  144.3570 N   0  0  0  0  0  0  0  0  0  0  0  0
  187.1330  177.8230  140.6550 C   0  0  1  0  0  3  0  0  0  0  0  0
  183.3150  179.0430  142.4570 C   0  0  2  0  0  3  0  0  0  0  0  0
  185.4300  178.8200  146.9020 C   0  0  0  0  0  3  0  0  0  0  0  0
  187.2050  178.4170  137.8300 C   0  0  0  0  0  2  0  0  0  0  0  0
  188.4030  178.4770  140.1090 C   0  0  0  0  0  2  0  0  0  0  0  0
  191.1960  175.9840  144.9130 C   0  0  1  0  0  3  0  0  0  0  0  0
  192.1070  177.0710  148.4090 N   0  0  0  0  0  1  0  0  0  0  0  0
  192.1690  175.3700  143.9230 C   0  0  0  0  0  1  0  0  0  0  0  0
  189.9910  176.9900  147.4050 N   0  0  0  0  0  0  0  0  0  0  0  0
  189.2750  177.6640  145.1560 C   0  0  1  0  0  3  0  0  0  0  0  0
  191.8870  176.3860  146.0910 O   0  0  0  0  0  0  0  0  0  0  0  0
  188.9840  176.7820  146.3700 C   0  0  0  0  0  2  0  0  0  0  0  0
  190.4240  177.1500  144.2800 C   0  0  1  0  0  3  0  0  0  0  0  0
  191.3380  178.3080  143.9110 C   0  0  0  0  0  1  0  0  0  0  0  0
  191.2760  176.8090  147.2840 C   0  0  0  0  0  0  0  0  0  0  0  0
  182.0000  178.3240  142.1830 C   0  0  0  0  0  2  0  0  0  0  0  0
  181.0090  178.7490  143.0710 O   0  0  0  0  0  1  0  0  0  0  0  0
  1  3  2  0  0  0  0
  2  4  2  0  0  0  0
  3 18  1  0  0  0  0
  4 10  1  0  0  0  0
  4  1  1  0  0  0  0
  5 11  1  6  0  0  0
  5 17  1  0  0  0  0
  5  2  1  0  0  0  0
  6 20  1  0  0  0  0
  7  2  1  0  0  0  0
  7 14  2  0  0  0  0
  8  9  1  0  0  0  0
  9 11  2  0  0  0  0
  9 16  1  0  0  0  0
 10 12  1  6  0  0  0
 10 13  1  0  0  0  0
 13 18  2  0  0  0  0
 14 15  1  0  0  0  0
 15  1  1  0  0  0  0
 16 20  1  6  0  0  0
 16  7  1  0  0  0  0
 17 31  1  1  0  0  0
 17 12  1  0  0  0  0
 19  6  1  0  0  0  0
 19  8  1  0  0  0  0
 21 23  1  6  0  0  0
 21 26  1  0  0  0  0
 25 15  1  6  0  0  0
 25 27  1  0  0  0  0
 26 30  1  0  0  0  0
 27 24  1  0  0  0  0
 28 29  1  1  0  0  0
 28 21  1  0  0  0  0
 28 25  1  0  0  0  0
 30 24  2  0  0  0  0
 30 22  1  0  0  0  0
 31 32  1  0  0  0  0
M  END
>  <MODEL>
2

>  <REMARK>
 VINA RESULT:      -9.2      2.636      7.483
  Name = 
  2 active torsions:
  status: ('A' for Active; 'I' for Inactive)
    1  A    between atoms: C_13  and  C_29
    2  A    between atoms: C_16  and  N_27
                            x       y       z     vdW  Elec       q    Type
                         _______ _______ _______ _____ _____    ______ ____

>  <TORSDO>
F 2

$$$$
=
 OpenBabel10262421143D

 32 37  0  0  1  0  0  0  0  0999 V2000
  186.1980  177.9910  143.6510 C   0  0  1  0  0  3  0  0  0  0  0  0
  188.3370  177.9660  142.4800 C   0  0  0  0  0  0  0  0  0  0  0  0
  185.5300  177.7970  144.7950 C   0  0  0  0  0  3  0  0  0  0  0  0
  187.6730  177.9210  143.6460 C   0  0  0  0  0  0  0  0  0  0  0  0
  189.8460  178.0100  142.4590 C   0  0  2  0  0  3  0  0  0  0  0  0
  188.4600  177.5990  137.4530 C   0  0  0  0  0  2  0  0  0  0  0  0
  187.6120  178.1200  141.1960 C   0  0  0  0  0  0  0  0  0  0  0  0
  190.4190  177.1470  138.8990 O   0  0  0  0  0  0  0  0  0  0  0  0
  189.7830  177.6170  140.0490 C   0  0  0  0  0  0  0  0  0  0  0  0
  188.4390  177.8780  144.9460 C   0  0  0  0  0  0  0  0  0  0  0  0
  190.3830  177.5030  141.1970 N   0  0  0  0  0  0  0  0  0  0  0  0
  189.6090  176.9120  144.8140 C   0  0  0  0  0  2  0  0  0  0  0  0
  187.5750  177.5050  146.1210 C   0  0  0  0  0  3  0  0  0  0  0  0
  186.2790  178.2760  141.1900 C   0  0  0  0  0  3  0  0  0  0  0  0
  185.5130  178.2220  142.4070 N   0  0  0  0  0  0  0  0  0  0  0  0
  188.4030  178.2190  139.9120 C   0  0  1  0  0  3  0  0  0  0  0  0
  190.5320  177.2950  143.6430 C   0  0  2  0  0  3  0  0  0  0  0  0
  186.2390  177.5010  146.0540 C   0  0  0  0  0  3  0  0  0  0  0  0
  189.9900  177.5460  137.5960 C   0  0  0  0  0  2  0  0  0  0  0  0
  187.7030  177.4700  138.7760 C   0  0  0  0  0  2  0  0  0  0  0  0
  182.5410  179.5490  140.6660 C   0  0  1  0  0  3  0  0  0  0  0  0
  179.8790  179.1270  143.3050 N   0  0  0  0  0  1  0  0  0  0  0  0
  182.2620  179.7290  139.1850 C   0  0  0  0  0  1  0  0  0  0  0  0
  182.1920  179.3770  143.5850 N   0  0  0  0  0  0  0  0  0  0  0  0
  184.0580  178.3610  142.3570 C   0  0  1  0  0  3  0  0  0  0  0  0
  181.3260  179.3000  141.3650 O   0  0  0  0  0  0  0  0  0  0  0  0
  183.5960  179.5330  143.2230 C   0  0  0  0  0  2  0  0  0  0  0  0
  183.5730  178.4380  140.9040 C   0  0  1  0  0  3  0  0  0  0  0  0
  183.0570  177.0750  140.4690 C   0  0  0  0  0  1  0  0  0  0  0  0
  181.1850  179.2800  142.7630 C   0  0  0  0  0  0  0  0  0  0  0  0
  191.7380  178.0880  144.1310 C   0  0  0  0  0  2  0  0  0  0  0  0
  191.5270  179.4590  143.9690 O   0  0  0  0  0  1  0  0  0  0  0  0
  1  3  1  6  0  0  0
  2  4  2  0  0  0  0
  3 18  2  0  0  0  0
  4  1  1  0  0  0  0
  4 10  1  0  0  0  0
  5 11  1  6  0  0  0
  5  2  1  0  0  0  0
  5 17  1  0  0  0  0
  6 19  1  0  0  0  0
  6 20  1  0  0  0  0
  7  2  1  0  0  0  0
  8  9  1  0  0  0  0
  9 11  2  0  0  0  0
 10 13  2  0  0  0  0
 12 10  1  0  0  0  0
 14  7  2  0  0  0  0
 14 15  1  0  0  0  0
 15  1  1  0  0  0  0
 16 20  1  6  0  0  0
 16  9  1  0  0  0  0
 16  7  1  0  0  0  0
 17 31  1  1  0  0  0
 17 12  1  0  0  0  0
 18 13  1  0  0  0  0
 19  8  1  0  0  0  0
 21 23  1  6  0  0  0
 21 28  1  0  0  0  0
 21 26  1  0  0  0  0
 25 15  1  6  0  0  0
 25 27  1  0  0  0  0
 26 30  1  0  0  0  0
 27 24  1  0  0  0  0
 28 29  1  1  0  0  0
 28 25  1  0  0  0  0
 30 22  1  0  0  0  0
 30 24  2  0  0  0  0
 32 31  1  0  0  0  0
M  END
>  <MODEL>
3

>  <REMARK>
 VINA RESULT:      -8.9      2.108      2.783
  Name = 
  2 active torsions:
  status: ('A' for Active; 'I' for Inactive)
    1  A    between atoms: C_13  and  C_29
    2  A    between atoms: C_16  and  N_27
                            x       y       z     vdW  Elec       q    Type
                         _______ _______ _______ _____ _____    ______ ____

>  <TORSDO>
F 2

$$$$
=
 OpenBabel10262421143D

 32 37  0  0  1  0  0  0  0  0999 V2000
  189.8550  177.4410  142.6700 C   0  0  1  0  0  3  0  0  0  0  0  0
  187.8710  177.6500  144.0740 C   0  0  0  0  0  0  0  0  0  0  0  0
  191.1910  177.4220  142.5930 C   0  0  0  0  0  3  0  0  0  0  0  0
  189.2010  177.4820  143.9940 C   0  0  0  0  0  0  0  0  0  0  0  0
  187.1700  177.5830  145.4090 C   0  0  2  0  0  3  0  0  0  0  0  0
  183.4590  178.9800  142.0290 C   0  0  0  0  0  2  0  0  0  0  0  0
  187.0420  177.7620  142.8500 C   0  0  0  0  0  0  0  0  0  0  0  0
  183.9260  179.1060  144.4570 O   0  0  0  0  0  0  0  0  0  0  0  0
  185.1440  178.4350  144.3420 C   0  0  0  0  0  0  0  0  0  0  0  0
  190.0070  177.2580  145.2500 C   0  0  0  0  0  0  0  0  0  0  0  0
  185.9040  178.3140  145.3910 N   0  0  0  0  0  0  0  0  0  0  0  0
  189.5260  178.2090  146.3390 C   0  0  0  0  0  2  0  0  0  0  0  0
  191.4880  177.4130  145.0290 C   0  0  0  0  0  3  0  0  0  0  0  0
  187.6080  177.6350  141.6400 C   0  0  0  0  0  3  0  0  0  0  0  0
  189.0300  177.4680  141.4910 N   0  0  0  0  0  0  0  0  0  0  0  0
  185.5440  177.8970  142.9870 C   0  0  1  0  0  3  0  0  0  0  0  0
  188.0210  178.0420  146.6130 C   0  0  2  0  0  3  0  0  0  0  0  0
  192.0280  177.4560  143.8070 C   0  0  0  0  0  3  0  0  0  0  0  0
  182.9080  178.9750  143.4650 C   0  0  0  0  0  2  0  0  0  0  0  0
  184.9820  178.8650  141.9430 C   0  0  0  0  0  2  0  0  0  0  0  0
  188.5500  176.7990  137.8930 C   0  0  1  0  0  3  0  0  0  0  0  0
  192.1150  176.3890  136.7280 N   0  0  0  0  0  1  0  0  0  0  0  0
  187.3770  177.1040  136.9790 C   0  0  0  0  0  1  0  0  0  0  0  0
  191.2230  176.0360  138.8660 N   0  0  0  0  0  0  0  0  0  0  0  0
  189.6150  177.3690  140.1550 C   0  0  1  0  0  3  0  0  0  0  0  0
  189.7660  176.8270  137.1530 O   0  0  0  0  0  0  0  0  0  0  0  0
  190.2310  175.9870  139.9340 C   0  0  0  0  0  2  0  0  0  0  0  0
  188.5880  177.7650  139.0860 C   0  0  1  0  0  3  0  0  0  0  0  0
  188.8370  179.2010  138.6520 C   0  0  0  0  0  1  0  0  0  0  0  0
  191.0170  176.4010  137.6330 C   0  0  0  0  0  0  0  0  0  0  0  0
  187.7780  177.1470  147.8210 C   0  0  0  0  0  2  0  0  0  0  0  0
  187.9570  177.8580  149.0100 O   0  0  0  0  0  1  0  0  0  0  0  0
  1  3  1  6  0  0  0
  1  4  1  0  0  0  0
  3 18  2  0  0  0  0
  4  2  2  0  0  0  0
  4 10  1  0  0  0  0
  5  2  1  6  0  0  0
  5 17  1  0  0  0  0
  6 19  1  0  0  0  0
  7 16  1  0  0  0  0
  7  2  1  0  0  0  0
  9  8  1  0  0  0  0
  9 11  2  0  0  0  0
 10 12  1  0  0  0  0
 11  5  1  0  0  0  0
 12 17  1  0  0  0  0
 13 10  2  0  0  0  0
 14  7  2  0  0  0  0
 15 14  1  0  0  0  0
 15  1  1  0  0  0  0
 16 20  1  6  0  0  0
 16  9  1  0  0  0  0
 17 31  1  1  0  0  0
 18 13  1  0  0  0  0
 19  8  1  0  0  0  0
 20  6  1  0  0  0  0
 21 23  1  6  0  0  0
 21 28  1  0  0  0  0
 22 30  1  0  0  0  0
 24 27  1  0  0  0  0
 25 27  1  6  0  0  0
 25 15  1  0  0  0  0
 26 30  1  0  0  0  0
 26 21  1  0  0  0  0
 28 29  1  6  0  0  0
 28 25  1  0  0  0  0
 30 24  2  0  0  0  0
 31 32  1  0  0  0  0
M  END
>  <MODEL>
4

>  <REMARK>
 VINA RESULT:      -8.9      3.369      6.367
  Name = 
  2 active torsions:
  status: ('A' for Active; 'I' for Inactive)
    1  A    between atoms: C_13  and  C_29
    2  A    between atoms: C_16  and  N_27
                            x       y       z     vdW  Elec       q    Type
                         _______ _______ _______ _____ _____    ______ ____

>  <TORSDO>
F 2

$$$$
=
 OpenBabel10262421143D

 32 37  0  0  1  0  0  0  0  0999 V2000
  189.4210  177.5910  141.5090 C   0  0  1  0  0  3  0  0  0  0  0  0
  188.0960  177.6610  143.5560 C   0  0  0  0  0  0  0  0  0  0  0  0
  190.6350  177.5800  140.9450 C   0  0  0  0  0  3  0  0  0  0  0  0
  189.2970  177.5010  142.9780 C   0  0  0  0  0  0  0  0  0  0  0  0
  187.9290  177.4610  145.0430 C   0  0  2  0  0  3  0  0  0  0  0  0
  183.2930  179.1880  143.4050 C   0  0  0  0  0  2  0  0  0  0  0  0
  186.8820  177.8930  142.7370 C   0  0  0  0  0  0  0  0  0  0  0  0
  184.6200  179.0720  145.4930 O   0  0  0  0  0  0  0  0  0  0  0  0
  185.6860  178.4160  144.8770 C   0  0  0  0  0  0  0  0  0  0  0  0
  190.4980  177.1530  143.8240 C   0  0  0  0  0  0  0  0  0  0  0  0
  186.7710  178.1900  145.5580 N   0  0  0  0  0  0  0  0  0  0  0  0
  190.4830  177.9910  145.0960 C   0  0  0  0  0  2  0  0  0  0  0  0
  191.8010  177.3290  143.0900 C   0  0  0  0  0  3  0  0  0  0  0  0
  186.9620  177.8880  141.3980 C   0  0  0  0  0  3  0  0  0  0  0  0
  188.2240  177.7360  140.7230 N   0  0  0  0  0  0  0  0  0  0  0  0
  185.5430  178.0150  143.4270 C   0  0  1  0  0  3  0  0  0  0  0  0
  189.1770  177.7980  145.8880 C   0  0  2  0  0  3  0  0  0  0  0  0
  191.8580  177.4930  141.7640 C   0  0  0  0  0  3  0  0  0  0  0  0
  183.3050  179.0410  144.9370 C   0  0  0  0  0  2  0  0  0  0  0  0
  184.6740  179.0820  142.7560 C   0  0  0  0  0  2  0  0  0  0  0  0
  186.8660  176.5500  137.5020 C   0  0  1  0  0  3  0  0  0  0  0  0
  189.5580  177.6600  135.1030 N   0  0  0  0  0  1  0  0  0  0  0  0
  185.4450  176.2000  137.0980 C   0  0  0  0  0  1  0  0  0  0  0  0
  189.7430  177.1710  137.3880 N   0  0  0  0  0  0  0  0  0  0  0  0
  188.2760  177.7700  139.2620 C   0  0  1  0  0  3  0  0  0  0  0  0
  187.5870  177.0420  136.3770 O   0  0  0  0  0  0  0  0  0  0  0  0
  189.3300  176.7950  138.7350 C   0  0  0  0  0  2  0  0  0  0  0  0
  186.8790  177.5500  138.6680 C   0  0  1  0  0  3  0  0  0  0  0  0
  186.2770  178.8910  138.2780 C   0  0  0  0  0  1  0  0  0  0  0  0
  188.9730  177.2740  136.3410 C   0  0  0  0  0  0  0  0  0  0  0  0
  189.3600  176.7870  147.0120 C   0  0  0  0  0  2  0  0  0  0  0  0
  190.7100  176.6510  147.3410 O   0  0  0  0  0  1  0  0  0  0  0  0
  1  3  1  1  0  0  0
  1  4  1  0  0  0  0
  3 18  2  0  0  0  0
  4  2  2  0  0  0  0
  4 10  1  0  0  0  0
  5  2  1  6  0  0  0
  5 11  1  0  0  0  0
  5 17  1  0  0  0  0
  6 19  1  0  0  0  0
  7 16  1  0  0  0  0
  7  2  1  0  0  0  0
  9  8  1  0  0  0  0
  9 11  2  0  0  0  0
 10 12  1  0  0  0  0
 12 17  1  0  0  0  0
 13 10  2  0  0  0  0
 14  7  2  0  0  0  0
 15 14  1  0  0  0  0
 15  1  1  0  0  0  0
 16 20  1  6  0  0  0
 16  9  1  0  0  0  0
 17 31  1  1  0  0  0
 18 13  1  0  0  0  0
 19  8  1  0  0  0  0
 20  6  1  0  0  0  0
 21 23  1  6  0  0  0
 21 28  1  0  0  0  0
 22 30  1  0  0  0  0
 24 27  1  0  0  0  0
 25 27  1  6  0  0  0
 25 15  1  0  0  0  0
 26 21  1  0  0  0  0
 28 29  1  6  0  0  0
 28 25  1  0  0  0  0
 30 26  1  0  0  0  0
 30 24  2  0  0  0  0
 31 32  1  0  0  0  0
M  END
>  <MODEL>
5

>  <REMARK>
 VINA RESULT:      -8.5      3.145      5.728
  Name = 
  2 active torsions:
  status: ('A' for Active; 'I' for Inactive)
    1  A    between atoms: C_13  and  C_29
    2  A    between atoms: C_16  and  N_27
                            x       y       z     vdW  Elec       q    Type
                         _______ _______ _______ _____ _____    ______ ____

>  <TORSDO>
F 2

$$$$
=
 OpenBabel10262421143D

 32 37  0  0  1  0  0  0  0  0999 V2000
  187.3510  178.1200  141.1690 C   0  0  1  0  0  3  0  0  0  0  0  0
  188.3690  177.4710  143.2880 C   0  0  0  0  0  0  0  0  0  0  0  0
  187.5130  178.3680  139.8640 C   0  0  0  0  0  3  0  0  0  0  0  0
  188.4800  177.5800  141.9550 C   0  0  0  0  0  0  0  0  0  0  0  0
  189.4650  176.8190  144.0970 C   0  0  2  0  0  3  0  0  0  0  0  0
  186.0960  178.6210  147.6400 C   0  0  0  0  0  2  0  0  0  0  0  0
  187.1160  177.8520  143.9830 C   0  0  0  0  0  0  0  0  0  0  0  0
  188.4810  177.9750  147.4800 O   0  0  0  0  0  0  0  0  0  0  0  0
  188.3790  177.6140  146.1350 C   0  0  0  0  0  0  0  0  0  0  0  0
  189.7230  177.0810  141.2600 C   0  0  0  0  0  0  0  0  0  0  0  0
  189.4530  177.2720  145.4870 N   0  0  0  0  0  0  0  0  0  0  0  0
  190.9520  177.4910  142.0610 C   0  0  0  0  0  2  0  0  0  0  0  0
  189.8320  177.5640  139.8380 C   0  0  0  0  0  3  0  0  0  0  0  0
  186.0510  178.2570  143.2750 C   0  0  0  0  0  3  0  0  0  0  0  0
  186.1140  178.4080  141.8460 N   0  0  0  0  0  0  0  0  0  0  0  0
  187.0180  177.6620  145.4790 C   0  0  1  0  0  3  0  0  0  0  0  0
  190.8850  176.9740  143.5090 C   0  0  2  0  0  3  0  0  0  0  0  0
  188.8040  178.1250  139.1930 C   0  0  0  0  0  3  0  0  0  0  0  0
  187.3330  178.0180  148.3270 C   0  0  0  0  0  2  0  0  0  0  0  0
  186.2520  178.8160  146.1300 C   0  0  0  0  0  2  0  0  0  0  0  0
  183.0360  177.6050  139.9740 C   0  0  1  0  0  3  0  0  0  0  0  0
  182.2590  180.9230  138.3560 N   0  0  0  0  0  1  0  0  0  0  0  0
  182.0310  176.4830  140.1610 C   0  0  0  0  0  1  0  0  0  0  0  0
  184.3320  180.0880  139.0610 N   0  0  0  0  0  0  0  0  0  0  0  0
  184.9430  178.8860  141.1120 C   0  0  1  0  0  3  0  0  0  0  0  0
  182.3900  178.7560  139.4400 O   0  0  0  0  0  0  0  0  0  0  0  0
  185.2960  179.1660  139.6510 C   0  0  0  0  0  2  0  0  0  0  0  0
  183.7660  177.9190  141.2880 C   0  0  1  0  0  3  0  0  0  0  0  0
  182.8210  178.4590  142.3510 C   0  0  0  0  0  1  0  0  0  0  0  0
  183.0450  179.9040  138.9610 C   0  0  0  0  0  0  0  0  0  0  0  0
  191.6820  175.6860  143.6700 C   0  0  0  0  0  2  0  0  0  0  0  0
  192.0620  175.5010  145.0010 O   0  0  0  0  0  1  0  0  0  0  0  0
  1  3  1  1  0  0  0
  1 15  1  0  0  0  0
  1  4  1  0  0  0  0
  2  7  1  0  0  0  0
  4  2  2  0  0  0  0
  5  2  1  6  0  0  0
  5 11  1  0  0  0  0
  6 19  1  0  0  0  0
  7 16  1  0  0  0  0
  8 19  1  0  0  0  0
  9  8  1  0  0  0  0
 10  4  1  0  0  0  0
 10 12  1  0  0  0  0
 11  9  2  0  0  0  0
 12 17  1  0  0  0  0
 13 10  2  0  0  0  0
 14  7  2  0  0  0  0
 15 14  1  0  0  0  0
 16 20  1  1  0  0  0
 16  9  1  0  0  0  0
 17 31  1  6  0  0  0
 17  5  1  0  0  0  0
 18 13  1  0  0  0  0
 18  3  2  0  0  0  0
 20  6  1  0  0  0  0
 21 23  1  1  0  0  0
 21 28  1  0  0  0  0
 22 30  1  0  0  0  0
 24 27  1  0  0  0  0
 25 27  1  6  0  0  0
 25 28  1  0  0  0  0
 25 15  1  0  0  0  0
 26 21  1  0  0  0  0
 28 29  1  1  0  0  0
 30 24  2  0  0  0  0
 30 26  1  0  0  0  0
 31 32  1  0  0  0  0
M  END
>  <MODEL>
6

>  <REMARK>
 VINA RESULT:      -8.5      1.811      4.744
  Name = 
  2 active torsions:
  status: ('A' for Active; 'I' for Inactive)
    1  A    between atoms: C_13  and  C_29
    2  A    between atoms: C_16  and  N_27
                            x       y       z     vdW  Elec       q    Type
                         _______ _______ _______ _____ _____    ______ ____

>  <TORSDO>
F 2

$$$$
=
 OpenBabel10262421143D

 32 37  0  0  1  0  0  0  0  0999 V2000
  187.4620  178.0860  140.9740 C   0  0  0  0  0  0  0  0  0  0  0  0
  188.5630  177.3440  138.9290 C   0  0  0  0  0  0  0  0  0  0  0  0
  186.4180  178.7070  141.5380 C   0  0  0  0  0  3  0  0  0  0  0  0
  187.4600  177.8300  139.5200 C   0  0  0  0  0  0  0  0  0  0  0  0
  188.5470  176.9700  137.4660 C   0  0  2  0  0  3  0  0  0  0  0  0
  193.5110  176.3730  138.9330 C   0  0  0  0  0  2  0  0  0  0  0  0
  189.7760  177.0270  139.7210 C   0  0  0  0  0  0  0  0  0  0  0  0
  192.1990  176.7450  136.8660 O   0  0  0  0  0  0  0  0  0  0  0  0
  190.9780  176.7360  137.5410 C   0  0  0  0  0  0  0  0  0  0  0  0
  186.2030  178.0380  138.7100 C   0  0  2  0  0  3  0  0  0  0  0  0
  189.8880  177.0070  136.8850 N   0  0  0  0  0  0  0  0  0  0  0  0
  186.5610  178.6600  137.3670 C   0  0  0  0  0  2  0  0  0  0  0  0
  185.1800  178.8780  139.4260 C   0  0  0  0  0  3  0  0  0  0  0  0
  189.7640  177.1680  141.0550 C   0  0  0  0  0  3  0  0  0  0  0  0
  188.6150  177.6980  141.7420 N   0  0  0  0  0  0  0  0  0  0  0  0
  190.9760  176.4330  139.0220 C   0  0  1  0  0  3  0  0  0  0  0  0
  187.5770  177.7990  136.5950 C   0  0  2  0  0  3  0  0  0  0  0  0
  185.2680  179.1550  140.7310 C   0  0  0  0  0  3  0  0  0  0  0  0
  193.3610  176.1280  137.4220 C   0  0  0  0  0  2  0  0  0  0  0  0
  192.2790  176.9990  139.5910 C   0  0  0  0  0  2  0  0  0  0  0  0
  190.2210  176.8810  144.9640 C   0  0  1  0  0  3  0  0  0  0  0  0
  187.6350  178.1100  147.4200 N   0  0  0  0  0  1  0  0  0  0  0  0
  191.6780  176.6270  145.3050 C   0  0  0  0  0  1  0  0  0  0  0  0
  187.3320  177.3970  145.2080 N   0  0  0  0  0  0  0  0  0  0  0  0
  188.6510  177.8700  143.1940 C   0  0  1  0  0  3  0  0  0  0  0  0
  189.5490  177.4490  146.0830 O   0  0  0  0  0  0  0  0  0  0  0  0
  187.6770  176.9100  143.8780 C   0  0  0  0  0  2  0  0  0  0  0  0
  190.0910  177.7630  143.7140 C   0  0  1  0  0  3  0  0  0  0  0  0
  190.6550  179.1580  143.9360 C   0  0  0  0  0  1  0  0  0  0  0  0
  188.1590  177.6300  146.1880 C   0  0  0  0  0  0  0  0  0  0  0  0
  186.8810  176.9150  135.5680 C   0  0  0  0  0  2  0  0  0  0  0  0
  186.6830  175.6290  136.0740 O   0  0  0  0  0  1  0  0  0  0  0  0
  1  3  2  0  0  0  0
  1 15  1  0  0  0  0
  2  4  2  0  0  0  0
  2  7  1  0  0  0  0
  4  1  1  0  0  0  0
  5 11  1  6  0  0  0
  5  2  1  0  0  0  0
  6 20  1  0  0  0  0
  7 14  2  0  0  0  0
  8 19  1  0  0  0  0
  8  9  1  0  0  0  0
  9 16  1  0  0  0  0
 10 12  1  6  0  0  0
 10 13  1  0  0  0  0
 10  4  1  0  0  0  0
 11  9  2  0  0  0  0
 13 18  2  0  0  0  0
 14 15  1  0  0  0  0
 16 20  1  1  0  0  0
 16  7  1  0  0  0  0
 17 31  1  6  0  0  0
 17 12  1  0  0  0  0
 17  5  1  0  0  0  0
 18  3  1  0  0  0  0
 19  6  1  0  0  0  0
 21 23  1  1  0  0  0
 21 26  1  0  0  0  0
 24 30  2  0  0  0  0
 25 15  1  6  0  0  0
 25 28  1  0  0  0  0
 25 27  1  0  0  0  0
 26 30  1  0  0  0  0
 27 24  1  0  0  0  0
 28 29  1  1  0  0  0
 28 21  1  0  0  0  0
 30 22  1  0  0  0  0
 31 32  1  0  0  0  0
M  END
>  <MODEL>
7

>  <REMARK>
 VINA RESULT:      -8.4      3.280      7.155
  Name = 
  2 active torsions:
  status: ('A' for Active; 'I' for Inactive)
    1  A    between atoms: C_13  and  C_29
    2  A    between atoms: C_16  and  N_27
                            x       y       z     vdW  Elec       q    Type
                         _______ _______ _______ _____ _____    ______ ____

>  <TORSDO>
F 2

$$$$
=
 OpenBabel10262421143D

 32 37  0  0  1  0  0  0  0  0999 V2000
  185.9530  178.4060  143.5480 C   0  0  0  0  0  0  0  0  0  0  0  0
  185.5520  178.2790  141.1460 C   0  0  0  0  0  0  0  0  0  0  0  0
  185.4670  178.6830  144.7650 C   0  0  0  0  0  3  0  0  0  0  0  0
  185.0450  178.4070  142.3830 C   0  0  0  0  0  0  0  0  0  0  0  0
  184.6360  178.1640  139.9510 C   0  0  2  0  0  3  0  0  0  0  0  0
  189.4310  178.4110  137.9280 C   0  0  0  0  0  2  0  0  0  0  0  0
  187.0090  178.1000  140.9330 C   0  0  0  0  0  0  0  0  0  0  0  0
  187.0870  178.8360  137.2520 O   0  0  0  0  0  0  0  0  0  0  0  0
  186.5730  178.4500  138.4900 C   0  0  0  0  0  0  0  0  0  0  0  0
  183.5510  178.4740  142.5800 C   0  0  2  0  0  3  0  0  0  0  0  0
  185.3000  178.5880  138.7200 N   0  0  0  0  0  0  0  0  0  0  0  0
  182.9380  179.3780  141.5170 C   0  0  0  0  0  2  0  0  0  0  0  0
  183.1630  178.9400  143.9580 C   0  0  0  0  0  3  0  0  0  0  0  0
  187.8350  178.0060  141.9860 C   0  0  0  0  0  3  0  0  0  0  0  0
  187.3530  178.1510  143.3340 N   0  0  0  0  0  0  0  0  0  0  0  0
  187.5280  177.9060  139.5280 C   0  0  1  0  0  3  0  0  0  0  0  0
  183.2850  178.9000  140.0960 C   0  0  2  0  0  3  0  0  0  0  0  0
  184.0410  179.0030  144.9650 C   0  0  0  0  0  3  0  0  0  0  0  0
  188.3730  178.3990  136.8110 C   0  0  0  0  0  2  0  0  0  0  0  0
  188.8590  178.6340  139.3290 C   0  0  0  0  0  2  0  0  0  0  0  0
  190.3920  176.6500  144.7940 C   0  0  1  0  0  3  0  0  0  0  0  0
  190.0990  177.7260  148.3980 N   0  0  0  0  0  1  0  0  0  0  0  0
  191.6800  176.1900  144.1370 C   0  0  0  0  0  1  0  0  0  0  0  0
  188.3960  177.4230  146.8170 N   0  0  0  0  0  0  0  0  0  0  0  0
  188.2890  178.0770  144.4540 C   0  0  1  0  0  3  0  0  0  0  0  0
  190.6530  177.0950  146.1210 O   0  0  0  0  0  0  0  0  0  0  0  0
  187.7700  177.1270  145.5330 C   0  0  0  0  0  2  0  0  0  0  0  0
  189.6990  177.7340  143.9560 C   0  0  1  0  0  3  0  0  0  0  0  0
  190.5290  179.0060  143.8670 C   0  0  0  0  0  1  0  0  0  0  0  0
  189.6720  177.4020  147.0800 C   0  0  0  0  0  0  0  0  0  0  0  0
  182.1520  178.0750  139.5020 C   0  0  0  0  0  2  0  0  0  0  0  0
  182.2970  176.7250  139.8290 O   0  0  0  0  0  1  0  0  0  0  0  0
  1  3  2  0  0  0  0
  2  4  2  0  0  0  0
  3 18  1  0  0  0  0
  4 10  1  0  0  0  0
  4  1  1  0  0  0  0
  5 11  1  6  0  0  0
  5 17  1  0  0  0  0
  5  2  1  0  0  0  0
  6 20  1  0  0  0  0
  7  2  1  0  0  0  0
  7 14  2  0  0  0  0
  8  9  1  0  0  0  0
  9 11  2  0  0  0  0
  9 16  1  0  0  0  0
 10 12  1  6  0  0  0
 10 13  1  0  0  0  0
 13 18  2  0  0  0  0
 14 15  1  0  0  0  0
 15  1  1  0  0  0  0
 16 20  1  1  0  0  0
 16  7  1  0  0  0  0
 17 31  1  1  0  0  0
 17 12  1  0  0  0  0
 19  8  1  0  0  0  0
 19  6  1  0  0  0  0
 21 23  1  6  0  0  0
 21 26  1  0  0  0  0
 24 30  2  0  0  0  0
 25 15  1  6  0  0  0
 25 27  1  0  0  0  0
 26 30  1  0  0  0  0
 27 24  1  0  0  0  0
 28 29  1  1  0  0  0
 28 25  1  0  0  0  0
 28 21  1  0  0  0  0
 30 22  1  0  0  0  0
 31 32  1  0  0  0  0
M  END
>  <MODEL>
8

>  <REMARK>
 VINA RESULT:      -8.3      2.242      7.022
  Name = 
  2 active torsions:
  status: ('A' for Active; 'I' for Inactive)
    1  A    between atoms: C_13  and  C_29
    2  A    between atoms: C_16  and  N_27
                            x       y       z     vdW  Elec       q    Type
                         _______ _______ _______ _____ _____    ______ ____

>  <TORSDO>
F 2

$$$$
=
 OpenBabel10262421143D

 32 37  0  0  1  0  0  0  0  0999 V2000
  187.1120  177.7120  144.9140 C   0  0  0  0  0  0  0  0  0  0  0  0
  186.5530  177.9600  142.5530 C   0  0  0  0  0  0  0  0  0  0  0  0
  186.7660  177.9260  146.1890 C   0  0  0  0  0  3  0  0  0  0  0  0
  186.1570  178.0330  143.8340 C   0  0  0  0  0  0  0  0  0  0  0  0
  185.5630  178.1750  141.4330 C   0  0  2  0  0  3  0  0  0  0  0  0
  190.1800  177.7260  139.0590 C   0  0  0  0  0  2  0  0  0  0  0  0
  187.9270  177.5290  142.2030 C   0  0  0  0  0  0  0  0  0  0  0  0
  187.9370  178.6810  138.6290 O   0  0  0  0  0  0  0  0  0  0  0  0
  187.4280  178.2530  139.8560 C   0  0  0  0  0  0  0  0  0  0  0  0
  184.7210  178.3660  144.1600 C   0  0  2  0  0  3  0  0  0  0  0  0
  186.2260  178.6080  140.2040 N   0  0  0  0  0  0  0  0  0  0  0  0
  184.2440  179.4950  143.2560 C   0  0  0  0  0  2  0  0  0  0  0  0
  184.5190  178.7250  145.6080 C   0  0  0  0  0  3  0  0  0  0  0  0
  188.7780  177.1460  143.1670 C   0  0  0  0  0  3  0  0  0  0  0  0
  188.4160  177.2160  144.5580 N   0  0  0  0  0  0  0  0  0  0  0  0
  188.3120  177.4110  140.7470 C   0  0  1  0  0  3  0  0  0  0  0  0
  184.4020  179.1370  141.7670 C   0  0  2  0  0  3  0  0  0  0  0  0
  185.4490  178.4920  146.5390 C   0  0  0  0  0  3  0  0  0  0  0  0
  189.0780  178.0590  138.0390 C   0  0  0  0  0  2  0  0  0  0  0  0
  189.7500  177.8840  140.5190 C   0  0  0  0  0  2  0  0  0  0  0  0
  190.0610  177.9650  147.7760 C   0  0  1  0  0  3  0  0  0  0  0  0
  192.9590  175.5500  147.7130 N   0  0  0  0  0  1  0  0  0  0  0  0
  189.5220  178.6280  149.0310 C   0  0  0  0  0  1  0  0  0  0  0  0
  191.7910  176.4840  145.9090 N   0  0  0  0  0  0  0  0  0  0  0  0
  189.3820  176.8240  145.5830 C   0  0  1  0  0  3  0  0  0  0  0  0
  191.0750  177.0250  148.1180 O   0  0  0  0  0  0  0  0  0  0  0  0
  190.7920  177.2750  145.1990 C   0  0  0  0  0  2  0  0  0  0  0  0
  188.9320  177.3150  146.9640 C   0  0  1  0  0  3  0  0  0  0  0  0
  188.2710  176.1700  147.7180 C   0  0  0  0  0  1  0  0  0  0  0  0
  191.9210  176.3780  147.2010 C   0  0  0  0  0  0  0  0  0  0  0  0
  183.0910  178.6280  141.1820 C   0  0  0  0  0  2  0  0  0  0  0  0
  182.0140  178.9860  141.9950 O   0  0  0  0  0  1  0  0  0  0  0  0
  1  3  2  0  0  0  0
  2  4  2  0  0  0  0
  3 18  1  0  0  0  0
  4 10  1  0  0  0  0
  4  1  1  0  0  0  0
  5 11  1  6  0  0  0
  5 17  1  0  0  0  0
  5  2  1  0  0  0  0
  6 20  1  0  0  0  0
  7  2  1  0  0  0  0
  7 14  2  0  0  0  0
  8  9  1  0  0  0  0
  9 11  2  0  0  0  0
  9 16  1  0  0  0  0
 10 12  1  6  0  0  0
 10 13  1  0  0  0  0
 13 18  2  0  0  0  0
 14 15  1  0  0  0  0
 15  1  1  0  0  0  0
 16 20  1  1  0  0  0
 16  7  1  0  0  0  0
 17 31  1  1  0  0  0
 17 12  1  0  0  0  0
 19  8  1  0  0  0  0
 19  6  1  0  0  0  0
 21 26  1  0  0  0  0
 21 23  1  1  0  0  0
 24 30  2  0  0  0  0
 25 15  1  6  0  0  0
 25 28  1  0  0  0  0
 27 25  1  0  0  0  0
 27 24  1  0  0  0  0
 28 29  1  1  0  0  0
 28 21  1  0  0  0  0
 30 22  1  0  0  0  0
 30 26  1  0  0  0  0
 31 32  1  0  0  0  0
M  END
>  <MODEL>
9

>  <REMARK>
 VINA RESULT:      -8.2      2.500      7.688
  Name = 
  2 active torsions:
  status: ('A' for Active; 'I' for Inactive)
    1  A    between atoms: C_13  and  C_29
    2  A    between atoms: C_16  and  N_27
                            x       y       z     vdW  Elec       q    Type
                         _______ _______ _______ _____ _____    ______ ____

>  <TORSDO>
F 2

$$$$
