=
 OpenBabel10262420463D

 28 31  0  0  1  0  0  0  0  0999 V2000
  188.0510  177.3770  145.5250 C   0  0  2  0  0  3  0  0  0  0  0  0
  191.7960  176.2250  146.9290 O   0  0  0  0  0  0  0  0  0  0  0  0
  190.1910  177.1630  142.3470 N   0  0  0  0  0  0  0  0  0  0  0  0
  190.3990  176.5600  145.0770 N   0  0  0  0  0  0  0  0  0  0  0  0
  189.2490  177.7740  143.2900 C   0  0  0  0  0  2  0  0  0  0  0  0
  189.7260  177.2510  147.4550 C   0  0  0  0  0  2  0  0  0  0  0  0
  191.4560  176.2070  144.1690 C   0  0  0  0  0  3  0  0  0  0  0  0
  190.6980  176.6570  146.4860 C   0  0  0  0  0  0  0  0  0  0  0  0
  191.3470  176.4750  142.8650 C   0  0  0  0  0  3  0  0  0  0  0  0
  188.7730  178.5840  146.6750 S   0  0  0  0  0  0  0  0  0  0  0  0
  189.0750  176.8610  144.5020 C   0  0  2  0  0  3  0  0  0  0  0  0
  188.8630  177.8180  140.4640 C   0  0  0  0  0  3  0  0  0  0  0  0
  191.1780  176.7110  138.8020 C   0  0  0  0  0  3  0  0  0  0  0  0
  188.7760  176.9150  138.1860 C   0  0  0  0  0  0  0  0  0  0  0  0
  190.0520  177.4120  140.9330 C   0  0  0  0  0  0  0  0  0  0  0  0
  192.5900  177.5770  140.5510 C   0  0  0  0  0  1  0  0  0  0  0  0
  189.9630  176.3240  138.0580 C   0  0  0  0  0  3  0  0  0  0  0  0
  191.2340  177.2360  140.0340 C   0  0  0  0  0  0  0  0  0  0  0  0
  187.7290  176.4580  137.4600 F   0  0  0  0  0  0  0  0  0  0  0  0
  188.5940  178.1330  139.0300 C   0  0  0  0  0  2  0  0  0  0  0  0
  186.7490  177.8260  144.9190 C   0  0  0  0  0  0  0  0  0  0  0  0
  186.5450  177.7740  143.5320 C   0  0  0  0  0  3  0  0  0  0  0  0
  184.4760  178.6330  145.2020 C   0  0  0  0  0  0  0  0  0  0  0  0
  185.3190  178.1560  142.9840 C   0  0  0  0  0  3  0  0  0  0  0  0
  185.8750  178.2920  147.1010 F   0  0  0  0  0  0  0  0  0  0  0  0
  185.7040  178.2510  145.7550 C   0  0  0  0  0  0  0  0  0  0  0  0
  183.4640  179.0470  146.0050 F   0  0  0  0  0  0  0  0  0  0  0  0
  184.2850  178.5850  143.8180 C   0  0  0  0  0  3  0  0  0  0  0  0
  1 21  1  6  0  0  0
  1 10  1  0  0  0  0
  3  9  1  0  0  0  0
  3  5  1  0  0  0  0
  4  8  1  0  0  0  0
  7  4  1  0  0  0  0
  8  2  2  0  0  0  0
  8  6  1  0  0  0  0
  9  7  2  0  0  0  0
 10  6  1  0  0  0  0
 11  5  1  6  0  0  0
 11  4  1  0  0  0  0
 11  1  1  0  0  0  0
 12 15  2  0  0  0  0
 13 18  2  0  0  0  0
 14 20  1  0  0  0  0
 15  3  1  0  0  0  0
 17 14  2  0  0  0  0
 17 13  1  0  0  0  0
 18 16  1  0  0  0  0
 18 15  1  0  0  0  0
 19 14  1  0  0  0  0
 20 12  1  0  0  0  0
 21 26  1  0  0  0  0
 22 21  2  0  0  0  0
 23 26  2  0  0  0  0
 23 27  1  0  0  0  0
 24 22  1  0  0  0  0
 24 28  2  0  0  0  0
 26 25  1  0  0  0  0
 28 23  1  0  0  0  0
M  END
>  <MODEL>
1

>  <REMARK>
 VINA RESULT:      -9.6      0.000      0.000
  Name = 
  2 active torsions:
  status: ('A' for Active; 'I' for Inactive)
    1  A    between atoms: C_1  and  C_2
    2  A    between atoms: N_10  and  C_13
                            x       y       z     vdW  Elec       q    Type
                         _______ _______ _______ _____ _____    ______ ____

>  <TORSDO>
F 2

$$$$
=
 OpenBabel10262420463D

 28 31  0  0  1  0  0  0  0  0999 V2000
  190.2240  176.2750  137.3120 C   0  0  2  0  0  3  0  0  0  0  0  0
  194.3410  176.0040  137.8600 O   0  0  0  0  0  0  0  0  0  0  0  0
  190.7290  177.3150  140.9710 N   0  0  0  0  0  0  0  0  0  0  0  0
  192.2800  176.7210  138.7120 N   0  0  0  0  0  0  0  0  0  0  0  0
  190.1220  176.5780  139.8590 C   0  0  0  0  0  2  0  0  0  0  0  0
  192.4720  175.2850  136.5940 C   0  0  0  0  0  2  0  0  0  0  0  0
  192.9000  177.1920  139.9200 C   0  0  0  0  0  3  0  0  0  0  0  0
  193.0860  176.0120  137.7480 C   0  0  0  0  0  0  0  0  0  0  0  0
  192.1600  177.4950  140.9890 C   0  0  0  0  0  3  0  0  0  0  0  0
  190.8590  174.5920  137.0560 S   0  0  0  0  0  0  0  0  0  0  0  0
  190.8300  176.9440  138.5560 C   0  0  2  0  0  3  0  0  0  0  0  0
  190.5270  177.8690  143.2930 C   0  0  0  0  0  3  0  0  0  0  0  0
  187.5270  177.4950  142.8320 C   0  0  0  0  0  3  0  0  0  0  0  0
  188.8250  177.2340  144.9400 C   0  0  0  0  0  0  0  0  0  0  0  0
  189.9240  177.6850  142.1090 C   0  0  0  0  0  0  0  0  0  0  0  0
  187.9410  178.4470  140.6580 C   0  0  0  0  0  1  0  0  0  0  0  0
  187.7730  176.9370  144.1770 C   0  0  0  0  0  3  0  0  0  0  0  0
  188.4500  177.8770  141.9380 C   0  0  0  0  0  0  0  0  0  0  0  0
  188.9500  176.6430  146.1510 F   0  0  0  0  0  0  0  0  0  0  0  0
  189.8140  178.2780  144.5380 C   0  0  0  0  0  2  0  0  0  0  0  0
  188.7260  176.3730  137.2300 C   0  0  0  0  0  0  0  0  0  0  0  0
  187.9310  175.2170  137.1770 C   0  0  0  0  0  3  0  0  0  0  0  0
  186.7130  177.7320  137.2240 C   0  0  0  0  0  0  0  0  0  0  0  0
  186.5390  175.3190  137.1410 C   0  0  0  0  0  3  0  0  0  0  0  0
  188.8590  178.7630  137.3300 F   0  0  0  0  0  0  0  0  0  0  0  0
  188.1090  177.6340  137.2610 C   0  0  0  0  0  0  0  0  0  0  0  0
  186.1120  178.9480  137.2520 F   0  0  0  0  0  0  0  0  0  0  0  0
  185.9300  176.5750  137.1650 C   0  0  0  0  0  3  0  0  0  0  0  0
  1 21  1  1  0  0  0
  1 11  1  0  0  0  0
  3  9  1  0  0  0  0
  3 15  1  0  0  0  0
  4  7  1  0  0  0  0
  5  3  1  0  0  0  0
  6 10  1  0  0  0  0
  6  8  1  0  0  0  0
  7  9  2  0  0  0  0
  8  2  2  0  0  0  0
  8  4  1  0  0  0  0
 10  1  1  0  0  0  0
 11  4  1  0  0  0  0
 11  5  1  1  0  0  0
 12 20  1  0  0  0  0
 13 17  1  0  0  0  0
 14 19  1  0  0  0  0
 15 12  2  0  0  0  0
 16 18  1  0  0  0  0
 17 14  2  0  0  0  0
 18 15  1  0  0  0  0
 18 13  2  0  0  0  0
 20 14  1  0  0  0  0
 21 26  1  0  0  0  0
 22 21  2  0  0  0  0
 23 27  1  0  0  0  0
 23 26  2  0  0  0  0
 24 28  2  0  0  0  0
 24 22  1  0  0  0  0
 26 25  1  0  0  0  0
 28 23  1  0  0  0  0
M  END
>  <MODEL>
2

>  <REMARK>
 VINA RESULT:      -9.5      3.565      7.147
  Name = 
  2 active torsions:
  status: ('A' for Active; 'I' for Inactive)
    1  A    between atoms: C_1  and  C_2
    2  A    between atoms: N_10  and  C_13
                            x       y       z     vdW  Elec       q    Type
                         _______ _______ _______ _____ _____    ______ ____

>  <TORSDO>
F 2

$$$$
=
 OpenBabel10262420463D

 28 31  0  0  1  0  0  0  0  0999 V2000
  189.3740  177.5410  143.4770 C   0  0  2  0  0  3  0  0  0  0  0  0
  192.4700  177.3120  140.7040 O   0  0  0  0  0  0  0  0  0  0  0  0
  187.6250  178.1000  140.1080 N   0  0  0  0  0  0  0  0  0  0  0  0
  190.1580  177.3930  141.0800 N   0  0  0  0  0  0  0  0  0  0  0  0
  187.9600  178.3810  141.5070 C   0  0  0  0  0  2  0  0  0  0  0  0
  191.8740  177.7270  142.9590 C   0  0  0  0  0  2  0  0  0  0  0  0
  189.8900  177.3870  139.6680 C   0  0  0  0  0  3  0  0  0  0  0  0
  191.5280  177.4710  141.5270 C   0  0  0  0  0  0  0  0  0  0  0  0
  188.6780  177.7030  139.2060 C   0  0  0  0  0  3  0  0  0  0  0  0
  190.6440  178.8150  143.7320 S   0  0  0  0  0  0  0  0  0  0  0  0
  189.0020  177.3770  141.9950 C   0  0  2  0  0  3  0  0  0  0  0  0
  185.3900  178.8840  140.4680 C   0  0  0  0  0  3  0  0  0  0  0  0
  184.8260  177.6920  137.7100 C   0  0  0  0  0  3  0  0  0  0  0  0
  183.2520  178.0540  139.6020 C   0  0  0  0  0  0  0  0  0  0  0  0
  186.3020  178.3970  139.6150 C   0  0  0  0  0  0  0  0  0  0  0  0
  187.0540  178.4240  137.1550 C   0  0  0  0  0  1  0  0  0  0  0  0
  183.6150  177.3980  138.5010 C   0  0  0  0  0  3  0  0  0  0  0  0
  185.9890  178.1780  138.1690 C   0  0  0  0  0  0  0  0  0  0  0  0
  182.1250  177.6790  140.2530 F   0  0  0  0  0  0  0  0  0  0  0  0
  183.9980  179.2550  140.0810 C   0  0  0  0  0  2  0  0  0  0  0  0
  188.1920  177.6750  144.3970 C   0  0  0  0  0  0  0  0  0  0  0  0
  186.8980  177.8520  143.8850 C   0  0  0  0  0  3  0  0  0  0  0  0
  187.2760  177.6520  146.6470 C   0  0  0  0  0  0  0  0  0  0  0  0
  185.8030  177.9350  144.7470 C   0  0  0  0  0  3  0  0  0  0  0  0
  189.6180  177.3780  146.3000 F   0  0  0  0  0  0  0  0  0  0  0  0
  188.3770  177.5670  145.7850 C   0  0  0  0  0  0  0  0  0  0  0  0
  187.4490  177.5510  147.9880 F   0  0  0  0  0  0  0  0  0  0  0  0
  185.9920  177.8350  146.1270 C   0  0  0  0  0  3  0  0  0  0  0  0
  1 10  1  0  0  0  0
  1 21  1  1  0  0  0
  2  8  2  0  0  0  0
  3  5  1  0  0  0  0
  4  8  1  0  0  0  0
  4 11  1  0  0  0  0
  6 10  1  0  0  0  0
  7  4  1  0  0  0  0
  8  6  1  0  0  0  0
  9  7  2  0  0  0  0
  9  3  1  0  0  0  0
 11  5  1  6  0  0  0
 11  1  1  0  0  0  0
 13 18  2  0  0  0  0
 13 17  1  0  0  0  0
 14 20  1  0  0  0  0
 14 19  1  0  0  0  0
 15  3  1  0  0  0  0
 15 12  2  0  0  0  0
 16 18  1  0  0  0  0
 17 14  2  0  0  0  0
 18 15  1  0  0  0  0
 20 12  1  0  0  0  0
 21 26  1  0  0  0  0
 22 21  2  0  0  0  0
 22 24  1  0  0  0  0
 23 27  1  0  0  0  0
 24 28  2  0  0  0  0
 26 25  1  0  0  0  0
 26 23  2  0  0  0  0
 28 23  1  0  0  0  0
M  END
>  <MODEL>
3

>  <REMARK>
 VINA RESULT:      -9.3      2.871      4.450
  Name = 
  2 active torsions:
  status: ('A' for Active; 'I' for Inactive)
    1  A    between atoms: C_1  and  C_2
    2  A    between atoms: N_10  and  C_13
                            x       y       z     vdW  Elec       q    Type
                         _______ _______ _______ _____ _____    ______ ____

>  <TORSDO>
F 2

$$$$
=
 OpenBabel10262420463D

 28 31  0  0  1  0  0  0  0  0999 V2000
  188.9290  178.1260  140.4200 C   0  0  2  0  0  3  0  0  0  0  0  0
  193.0120  177.3480  140.6470 O   0  0  0  0  0  0  0  0  0  0  0  0
  189.5320  177.4990  144.1570 N   0  0  0  0  0  0  0  0  0  0  0  0
  191.0190  177.7930  141.7980 N   0  0  0  0  0  0  0  0  0  0  0  0
  188.8620  177.3420  142.8630 C   0  0  0  0  0  2  0  0  0  0  0  0
  191.0840  177.3650  139.2690 C   0  0  0  0  0  2  0  0  0  0  0  0
  191.6810  177.6680  143.0680 C   0  0  0  0  0  3  0  0  0  0  0  0
  191.7600  177.4950  140.5970 C   0  0  0  0  0  0  0  0  0  0  0  0
  190.9730  177.5500  144.1940 C   0  0  0  0  0  3  0  0  0  0  0  0
  189.4210  176.6640  139.4610 S   0  0  0  0  0  0  0  0  0  0  0  0
  189.5930  178.1670  141.8050 C   0  0  2  0  0  3  0  0  0  0  0  0
  187.4280  177.5030  145.3020 C   0  0  0  0  0  3  0  0  0  0  0  0
  189.1220  177.8140  147.8290 C   0  0  0  0  0  3  0  0  0  0  0  0
  186.7740  178.5340  147.4280 C   0  0  0  0  0  0  0  0  0  0  0  0
  188.7640  177.4180  145.3760 C   0  0  0  0  0  0  0  0  0  0  0  0
  190.7000  176.3760  146.7110 C   0  0  0  0  0  1  0  0  0  0  0  0
  187.9390  178.6650  148.0630 C   0  0  0  0  0  3  0  0  0  0  0  0
  189.4700  177.2180  146.6790 C   0  0  0  0  0  0  0  0  0  0  0  0
  185.7650  179.3880  147.7180 F   0  0  0  0  0  0  0  0  0  0  0  0
  186.5200  177.4080  146.4820 C   0  0  0  0  0  2  0  0  0  0  0  0
  187.4430  178.3590  140.4420 C   0  0  0  0  0  0  0  0  0  0  0  0
  186.7750  178.6280  141.6470 C   0  0  0  0  0  3  0  0  0  0  0  0
  185.3450  178.6190  139.2460 C   0  0  0  0  0  0  0  0  0  0  0  0
  185.4030  178.8830  141.6520 C   0  0  0  0  0  3  0  0  0  0  0  0
  187.3520  178.1230  138.0590 F   0  0  0  0  0  0  0  0  0  0  0  0
  186.7220  178.3630  139.2370 C   0  0  0  0  0  0  0  0  0  0  0  0
  184.6440  178.6210  138.0850 F   0  0  0  0  0  0  0  0  0  0  0  0
  184.6880  178.8790  140.4520 C   0  0  0  0  0  3  0  0  0  0  0  0
  1 21  1  1  0  0  0
  1 11  1  0  0  0  0
  3  9  1  0  0  0  0
  3 15  1  0  0  0  0
  4 11  1  0  0  0  0
  4  7  1  0  0  0  0
  5  3  1  0  0  0  0
  6 10  1  0  0  0  0
  6  8  1  0  0  0  0
  7  9  2  0  0  0  0
  8  2  2  0  0  0  0
  8  4  1  0  0  0  0
 10  1  1  0  0  0  0
 11  5  1  1  0  0  0
 12 15  2  0  0  0  0
 12 20  1  0  0  0  0
 13 17  1  0  0  0  0
 14 19  1  0  0  0  0
 14 17  2  0  0  0  0
 15 18  1  0  0  0  0
 18 16  1  0  0  0  0
 18 13  2  0  0  0  0
 20 14  1  0  0  0  0
 21 22  1  0  0  0  0
 22 24  2  0  0  0  0
 23 28  2  0  0  0  0
 25 26  1  0  0  0  0
 26 23  1  0  0  0  0
 26 21  2  0  0  0  0
 27 23  1  0  0  0  0
 28 24  1  0  0  0  0
M  END
>  <MODEL>
4

>  <REMARK>
 VINA RESULT:      -9.2      2.488      6.366
  Name = 
  2 active torsions:
  status: ('A' for Active; 'I' for Inactive)
    1  A    between atoms: C_1  and  C_2
    2  A    between atoms: N_10  and  C_13
                            x       y       z     vdW  Elec       q    Type
                         _______ _______ _______ _____ _____    ______ ____

>  <TORSDO>
F 2

$$$$
=
 OpenBabel10262420463D

 28 31  0  0  1  0  0  0  0  0999 V2000
  190.1260  177.1270  143.2340 C   0  0  2  0  0  3  0  0  0  0  0  0
  191.0920  177.1900  139.1860 O   0  0  0  0  0  0  0  0  0  0  0  0
  186.9340  178.4340  141.5540 N   0  0  0  0  0  0  0  0  0  0  0  0
  189.4220  177.3720  140.8200 N   0  0  0  0  0  0  0  0  0  0  0  0
  188.0250  178.4230  142.5320 C   0  0  0  0  0  2  0  0  0  0  0  0
  191.9150  177.2190  141.4070 C   0  0  0  0  0  2  0  0  0  0  0  0
  188.4250  177.6500  139.8230 C   0  0  0  0  0  3  0  0  0  0  0  0
  190.8020  177.2620  140.4110 C   0  0  0  0  0  0  0  0  0  0  0  0
  187.2320  178.1350  140.1750 C   0  0  0  0  0  3  0  0  0  0  0  0
  191.5180  178.2320  142.8600 S   0  0  0  0  0  0  0  0  0  0  0  0
  188.9780  177.2700  142.2230 C   0  0  2  0  0  3  0  0  0  0  0  0
  185.4410  179.3210  143.2040 C   0  0  0  0  0  3  0  0  0  0  0  0
  183.2530  178.6670  141.1710 C   0  0  0  0  0  3  0  0  0  0  0  0
  183.0810  178.8250  143.6490 C   0  0  0  0  0  0  0  0  0  0  0  0
  185.6300  178.9160  141.9400 C   0  0  0  0  0  0  0  0  0  0  0  0
  184.8790  179.3030  139.5110 C   0  0  0  0  0  1  0  0  0  0  0  0
  182.6580  178.3400  142.4820 C   0  0  0  0  0  3  0  0  0  0  0  0
  184.5340  178.9730  140.9230 C   0  0  0  0  0  0  0  0  0  0  0  0
  182.4640  178.4350  144.7890 F   0  0  0  0  0  0  0  0  0  0  0  0
  184.1510  179.8630  143.7230 C   0  0  0  0  0  2  0  0  0  0  0  0
  189.6880  177.1740  144.6720 C   0  0  0  0  0  0  0  0  0  0  0  0
  188.3410  177.3780  145.0080 C   0  0  0  0  0  3  0  0  0  0  0  0
  190.2220  176.9600  147.0320 C   0  0  0  0  0  0  0  0  0  0  0  0
  187.9390  177.3800  146.3450 C   0  0  0  0  0  3  0  0  0  0  0  0
  191.9330  176.7390  145.3880 F   0  0  0  0  0  0  0  0  0  0  0  0
  190.6280  176.9560  145.6920 C   0  0  0  0  0  0  0  0  0  0  0  0
  191.1260  176.7530  148.0210 F   0  0  0  0  0  0  0  0  0  0  0  0
  188.8790  177.1710  147.3570 C   0  0  0  0  0  3  0  0  0  0  0  0
  1 21  1  1  0  0  0
  2  8  2  0  0  0  0
  3 15  1  0  0  0  0
  3  5  1  0  0  0  0
  4 11  1  0  0  0  0
  6 10  1  0  0  0  0
  7  9  2  0  0  0  0
  7  4  1  0  0  0  0
  8  4  1  0  0  0  0
  8  6  1  0  0  0  0
  9  3  1  0  0  0  0
 10  1  1  0  0  0  0
 11  5  1  1  0  0  0
 11  1  1  0  0  0  0
 12 20  1  0  0  0  0
 13 17  1  0  0  0  0
 14 20  1  0  0  0  0
 14 19  1  0  0  0  0
 15 12  2  0  0  0  0
 16 18  1  0  0  0  0
 17 14  2  0  0  0  0
 18 13  2  0  0  0  0
 18 15  1  0  0  0  0
 21 22  2  0  0  0  0
 21 26  1  0  0  0  0
 22 24  1  0  0  0  0
 23 28  1  0  0  0  0
 23 27  1  0  0  0  0
 24 28  2  0  0  0  0
 25 26  1  0  0  0  0
 26 23  2  0  0  0  0
M  END
>  <MODEL>
5

>  <REMARK>
 VINA RESULT:      -9.2      3.001      6.022
  Name = 
  2 active torsions:
  status: ('A' for Active; 'I' for Inactive)
    1  A    between atoms: C_1  and  C_2
    2  A    between atoms: N_10  and  C_13
                            x       y       z     vdW  Elec       q    Type
                         _______ _______ _______ _____ _____    ______ ____

>  <TORSDO>
F 2

$$$$
=
 OpenBabel10262420463D

 28 31  0  0  1  0  0  0  0  0999 V2000
  188.3010  177.1920  144.5060 C   0  0  2  0  0  3  0  0  0  0  0  0
  192.0780  175.8640  143.3680 O   0  0  0  0  0  0  0  0  0  0  0  0
  188.3110  177.6260  140.6940 N   0  0  0  0  0  0  0  0  0  0  0  0
  189.9310  176.5190  142.6970 N   0  0  0  0  0  0  0  0  0  0  0  0
  188.1030  178.0280  142.0870 C   0  0  0  0  0  2  0  0  0  0  0  0
  190.7420  176.7320  145.1210 C   0  0  0  0  0  2  0  0  0  0  0  0
  190.2760  176.3640  141.3100 C   0  0  0  0  0  3  0  0  0  0  0  0
  190.9620  176.3510  143.6920 C   0  0  0  0  0  0  0  0  0  0  0  0
  189.4940  176.8730  140.3550 C   0  0  0  0  0  3  0  0  0  0  0  0
  189.6430  178.1710  145.2420 S   0  0  0  0  0  0  0  0  0  0  0  0
  188.5420  176.8990  143.0170 C   0  0  2  0  0  3  0  0  0  0  0  0
  186.1790  178.4590  139.9850 C   0  0  0  0  0  3  0  0  0  0  0  0
  187.2730  178.0510  137.1590 C   0  0  0  0  0  3  0  0  0  0  0  0
  184.9070  178.0380  137.9320 C   0  0  0  0  0  0  0  0  0  0  0  0
  187.4410  178.1370  139.6630 C   0  0  0  0  0  0  0  0  0  0  0  0
  189.3880  178.7300  138.0910 C   0  0  0  0  0  1  0  0  0  0  0  0
  185.8520  177.6580  137.0730 C   0  0  0  0  0  3  0  0  0  0  0  0
  187.9680  178.3160  138.2750 C   0  0  0  0  0  0  0  0  0  0  0  0
  183.6400  177.5970  137.7570 F   0  0  0  0  0  0  0  0  0  0  0  0
  185.1880  179.0200  139.0210 C   0  0  0  0  0  2  0  0  0  0  0  0
  186.9280  177.7240  144.8140 C   0  0  0  0  0  0  0  0  0  0  0  0
  186.0670  178.1320  143.7840 C   0  0  0  0  0  3  0  0  0  0  0  0
  185.1890  178.2180  146.4360 C   0  0  0  0  0  0  0  0  0  0  0  0
  184.7800  178.5860  144.0780 C   0  0  0  0  0  3  0  0  0  0  0  0
  187.2910  177.3540  147.1540 F   0  0  0  0  0  0  0  0  0  0  0  0
  186.4800  177.7610  146.1440 C   0  0  0  0  0  0  0  0  0  0  0  0
  184.7520  178.2580  147.7190 F   0  0  0  0  0  0  0  0  0  0  0  0
  184.3410  178.6290  145.4030 C   0  0  0  0  0  3  0  0  0  0  0  0
  1 21  1  6  0  0  0
  1 10  1  0  0  0  0
  2  8  2  0  0  0  0
  3  5  1  0  0  0  0
  4 11  1  0  0  0  0
  4  8  1  0  0  0  0
  6 10  1  0  0  0  0
  7  4  1  0  0  0  0
  8  6  1  0  0  0  0
  9  3  1  0  0  0  0
  9  7  2  0  0  0  0
 11  5  1  6  0  0  0
 11  1  1  0  0  0  0
 13 18  2  0  0  0  0
 14 20  1  0  0  0  0
 15 12  2  0  0  0  0
 15  3  1  0  0  0  0
 16 18  1  0  0  0  0
 17 13  1  0  0  0  0
 17 14  2  0  0  0  0
 18 15  1  0  0  0  0
 19 14  1  0  0  0  0
 20 12  1  0  0  0  0
 21 26  1  0  0  0  0
 22 24  1  0  0  0  0
 22 21  2  0  0  0  0
 23 27  1  0  0  0  0
 24 28  2  0  0  0  0
 26 23  2  0  0  0  0
 26 25  1  0  0  0  0
 28 23  1  0  0  0  0
M  END
>  <MODEL>
6

>  <REMARK>
 VINA RESULT:      -9.2      1.991      2.806
  Name = 
  2 active torsions:
  status: ('A' for Active; 'I' for Inactive)
    1  A    between atoms: C_1  and  C_2
    2  A    between atoms: N_10  and  C_13
                            x       y       z     vdW  Elec       q    Type
                         _______ _______ _______ _____ _____    ______ ____

>  <TORSDO>
F 2

$$$$
=
 OpenBabel10262420463D

 28 31  0  0  1  0  0  0  0  0999 V2000
  183.7260  178.7170  140.8400 C   0  0  2  0  0  3  0  0  0  0  0  0
  186.6790  178.7260  137.9060 O   0  0  0  0  0  0  0  0  0  0  0  0
  186.9310  177.8570  142.7670 N   0  0  0  0  0  0  0  0  0  0  0  0
  186.1670  178.6620  140.1920 N   0  0  0  0  0  0  0  0  0  0  0  0
  185.5340  177.7000  142.3520 C   0  0  0  0  0  2  0  0  0  0  0  0
  184.3670  178.5030  138.3710 C   0  0  0  0  0  2  0  0  0  0  0  0
  187.5580  178.5440  140.5380 C   0  0  0  0  0  3  0  0  0  0  0  0
  185.7940  178.6320  138.7990 C   0  0  0  0  0  0  0  0  0  0  0  0
  187.9210  178.1810  141.7710 C   0  0  0  0  0  3  0  0  0  0  0  0
  183.4340  177.4780  139.5440 S   0  0  0  0  0  0  0  0  0  0  0  0
  185.1930  178.7500  141.2960 C   0  0  2  0  0  3  0  0  0  0  0  0
  186.4490  177.7130  145.1100 C   0  0  0  0  0  3  0  0  0  0  0  0
  189.4490  177.2040  145.4100 C   0  0  0  0  0  3  0  0  0  0  0  0
  187.8610  178.1820  147.0580 C   0  0  0  0  0  0  0  0  0  0  0  0
  187.3210  177.5090  144.1120 C   0  0  0  0  0  0  0  0  0  0  0  0
  189.2540  176.0030  143.3300 C   0  0  0  0  0  1  0  0  0  0  0  0
  189.0930  178.0480  146.5680 C   0  0  0  0  0  3  0  0  0  0  0  0
  188.6720  176.9150  144.3570 C   0  0  0  0  0  0  0  0  0  0  0  0
  187.6570  179.0010  148.1160 F   0  0  0  0  0  0  0  0  0  0  0  0
  186.7190  177.3740  146.5370 C   0  0  0  0  0  2  0  0  0  0  0  0
  182.7330  178.6550  141.9670 C   0  0  0  0  0  0  0  0  0  0  0  0
  183.1600  178.6510  143.3040 C   0  0  0  0  0  3  0  0  0  0  0  0
  180.4260  178.6390  142.7270 C   0  0  0  0  0  0  0  0  0  0  0  0
  182.2280  178.6350  144.3440 C   0  0  0  0  0  3  0  0  0  0  0  0
  180.9230  178.6790  140.3970 F   0  0  0  0  0  0  0  0  0  0  0  0
  181.3580  178.6570  141.6820 C   0  0  0  0  0  0  0  0  0  0  0  0
  179.0970  178.6390  142.4570 F   0  0  0  0  0  0  0  0  0  0  0  0
  180.8620  178.6290  144.0550 C   0  0  0  0  0  3  0  0  0  0  0  0
  1 11  1  0  0  0  0
  1 21  1  1  0  0  0
  2  8  2  0  0  0  0
  3 15  1  0  0  0  0
  4  7  1  0  0  0  0
  4 11  1  0  0  0  0
  5  3  1  0  0  0  0
  6  8  1  0  0  0  0
  6 10  1  0  0  0  0
  7  9  2  0  0  0  0
  8  4  1  0  0  0  0
  9  3  1  0  0  0  0
 10  1  1  0  0  0  0
 11  5  1  1  0  0  0
 12 20  1  0  0  0  0
 13 17  1  0  0  0  0
 14 19  1  0  0  0  0
 15 18  1  0  0  0  0
 15 12  2  0  0  0  0
 16 18  1  0  0  0  0
 17 14  2  0  0  0  0
 18 13  2  0  0  0  0
 20 14  1  0  0  0  0
 21 22  1  0  0  0  0
 22 24  2  0  0  0  0
 23 28  2  0  0  0  0
 25 26  1  0  0  0  0
 26 21  2  0  0  0  0
 26 23  1  0  0  0  0
 27 23  1  0  0  0  0
 28 24  1  0  0  0  0
M  END
>  <MODEL>
7

>  <REMARK>
 VINA RESULT:      -9.2      3.938      6.774
  Name = 
  2 active torsions:
  status: ('A' for Active; 'I' for Inactive)
    1  A    between atoms: C_1  and  C_2
    2  A    between atoms: N_10  and  C_13
                            x       y       z     vdW  Elec       q    Type
                         _______ _______ _______ _____ _____    ______ ____

>  <TORSDO>
F 2

$$$$
=
 OpenBabel10262420463D

 28 31  0  0  1  0  0  0  0  0999 V2000
  185.7640  177.9550  144.8920 C   0  0  2  0  0  3  0  0  0  0  0  0
  188.8260  177.1870  147.6040 O   0  0  0  0  0  0  0  0  0  0  0  0
  188.8800  177.6190  142.6790 N   0  0  0  0  0  0  0  0  0  0  0  0
  188.1480  177.2660  145.3620 N   0  0  0  0  0  0  0  0  0  0  0  0
  187.6490  178.2410  143.1740 C   0  0  0  0  0  2  0  0  0  0  0  0
  186.6680  178.1080  147.2810 C   0  0  0  0  0  2  0  0  0  0  0  0
  189.4660  176.9100  144.9120 C   0  0  0  0  0  3  0  0  0  0  0  0
  187.9350  177.5030  146.7700 C   0  0  0  0  0  0  0  0  0  0  0  0
  189.8080  177.0580  143.6300 C   0  0  0  0  0  3  0  0  0  0  0  0
  185.9980  179.3010  146.0880 S   0  0  0  0  0  0  0  0  0  0  0  0
  187.0960  177.4250  144.3410 C   0  0  2  0  0  3  0  0  0  0  0  0
  188.3330  178.2530  140.4340 C   0  0  0  0  0  3  0  0  0  0  0  0
  190.8330  176.6660  139.6750 C   0  0  0  0  0  3  0  0  0  0  0  0
  188.8120  177.1400  138.3030 C   0  0  0  0  0  0  0  0  0  0  0  0
  189.2320  177.7360  141.2850 C   0  0  0  0  0  0  0  0  0  0  0  0
  191.7530  177.5030  141.7390 C   0  0  0  0  0  1  0  0  0  0  0  0
  189.8640  176.3780  138.5990 C   0  0  0  0  0  3  0  0  0  0  0  0
  190.5890  177.3030  140.8280 C   0  0  0  0  0  0  0  0  0  0  0  0
  187.9830  176.7600  137.3030 F   0  0  0  0  0  0  0  0  0  0  0  0
  188.5810  178.4520  138.9760 C   0  0  0  0  0  2  0  0  0  0  0  0
  184.7380  178.2600  143.8340 C   0  0  0  0  0  0  0  0  0  0  0  0
  185.0040  178.0060  142.4800 C   0  0  0  0  0  3  0  0  0  0  0  0
  182.5050  179.0030  143.2350 C   0  0  0  0  0  0  0  0  0  0  0  0
  184.0300  178.2550  141.5110 C   0  0  0  0  0  3  0  0  0  0  0  0
  183.1950  178.9890  145.5170 F   0  0  0  0  0  0  0  0  0  0  0  0
  183.4790  178.7530  144.2100 C   0  0  0  0  0  0  0  0  0  0  0  0
  181.2880  179.4820  143.5930 F   0  0  0  0  0  0  0  0  0  0  0  0
  182.7820  178.7530  141.8880 C   0  0  0  0  0  3  0  0  0  0  0  0
  1 21  1  6  0  0  0
  1 10  1  0  0  0  0
  3  5  1  0  0  0  0
  3  9  1  0  0  0  0
  4  8  1  0  0  0  0
  7  4  1  0  0  0  0
  8  6  1  0  0  0  0
  8  2  2  0  0  0  0
  9  7  2  0  0  0  0
 10  6  1  0  0  0  0
 11  5  1  6  0  0  0
 11  1  1  0  0  0  0
 11  4  1  0  0  0  0
 12 15  2  0  0  0  0
 13 18  2  0  0  0  0
 14 17  2  0  0  0  0
 14 20  1  0  0  0  0
 15  3  1  0  0  0  0
 17 13  1  0  0  0  0
 18 15  1  0  0  0  0
 18 16  1  0  0  0  0
 19 14  1  0  0  0  0
 20 12  1  0  0  0  0
 21 26  1  0  0  0  0
 22 21  2  0  0  0  0
 23 27  1  0  0  0  0
 23 26  2  0  0  0  0
 24 28  2  0  0  0  0
 24 22  1  0  0  0  0
 26 25  1  0  0  0  0
 28 23  1  0  0  0  0
M  END
>  <MODEL>
8

>  <REMARK>
 VINA RESULT:      -9.1      1.543      2.135
  Name = 
  2 active torsions:
  status: ('A' for Active; 'I' for Inactive)
    1  A    between atoms: C_1  and  C_2
    2  A    between atoms: N_10  and  C_13
                            x       y       z     vdW  Elec       q    Type
                         _______ _______ _______ _____ _____    ______ ____

>  <TORSDO>
F 2

$$$$
=
 OpenBabel10262420463D

 28 31  0  0  1  0  0  0  0  0999 V2000
  181.9210  178.0710  139.9680 C   0  0  2  0  0  3  0  0  0  0  0  0
  179.9190  180.0310  143.0450 O   0  0  0  0  0  0  0  0  0  0  0  0
  184.6320  178.5930  142.6320 N   0  0  0  0  0  0  0  0  0  0  0  0
  181.8630  178.9260  142.3440 N   0  0  0  0  0  0  0  0  0  0  0  0
  184.0510  178.6280  141.2880 C   0  0  0  0  0  2  0  0  0  0  0  0
  179.9600  179.5260  140.7310 C   0  0  0  0  0  2  0  0  0  0  0  0
  182.4980  179.1580  143.6120 C   0  0  0  0  0  3  0  0  0  0  0  0
  180.5700  179.5160  142.0960 C   0  0  0  0  0  0  0  0  0  0  0  0
  183.8140  178.9790  143.7550 C   0  0  0  0  0  3  0  0  0  0  0  0
  181.2420  179.6750  139.4550 S   0  0  0  0  0  0  0  0  0  0  0  0
  182.6050  178.1380  141.3420 C   0  0  2  0  0  3  0  0  0  0  0  0
  186.8740  178.6760  141.7910 C   0  0  0  0  0  3  0  0  0  0  0  0
  187.5340  176.8730  144.1710 C   0  0  0  0  0  3  0  0  0  0  0  0
  188.7080  177.0600  141.9850 C   0  0  0  0  0  0  0  0  0  0  0  0
  186.0450  178.3550  142.7960 C   0  0  0  0  0  0  0  0  0  0  0  0
  185.8770  178.1600  145.3550 C   0  0  0  0  0  1  0  0  0  0  0  0
  188.3710  176.3610  143.0680 C   0  0  0  0  0  3  0  0  0  0  0  0
  186.5520  177.7810  144.0810 C   0  0  0  0  0  0  0  0  0  0  0  0
  189.4680  176.4740  141.0300 F   0  0  0  0  0  0  0  0  0  0  0  0
  188.3550  178.5040  141.8440 C   0  0  0  0  0  2  0  0  0  0  0  0
  182.7440  177.3970  138.9040 C   0  0  0  0  0  0  0  0  0  0  0  0
  183.4430  178.1510  137.9490 C   0  0  0  0  0  3  0  0  0  0  0  0
  183.6550  175.3650  137.9340 C   0  0  0  0  0  0  0  0  0  0  0  0
  184.2360  177.5170  136.9900 C   0  0  0  0  0  3  0  0  0  0  0  0
  182.2060  175.2500  139.8230 F   0  0  0  0  0  0  0  0  0  0  0  0
  182.8600  175.9970  138.8970 C   0  0  0  0  0  0  0  0  0  0  0  0
  183.7680  174.0140  137.9220 F   0  0  0  0  0  0  0  0  0  0  0  0
  184.3420  176.1250  136.9830 C   0  0  0  0  0  3  0  0  0  0  0  0
  1 21  1  6  0  0  0
  1 11  1  0  0  0  0
  3 15  1  0  0  0  0
  3  9  1  0  0  0  0
  4  7  1  0  0  0  0
  5  3  1  0  0  0  0
  6  8  1  0  0  0  0
  7  9  2  0  0  0  0
  8  4  1  0  0  0  0
  8  2  2  0  0  0  0
 10  1  1  0  0  0  0
 10  6  1  0  0  0  0
 11  5  1  6  0  0  0
 11  4  1  0  0  0  0
 12 20  1  0  0  0  0
 12 15  2  0  0  0  0
 14 17  2  0  0  0  0
 15 18  1  0  0  0  0
 17 13  1  0  0  0  0
 18 13  2  0  0  0  0
 18 16  1  0  0  0  0
 19 14  1  0  0  0  0
 20 14  1  0  0  0  0
 22 21  2  0  0  0  0
 23 26  2  0  0  0  0
 24 22  1  0  0  0  0
 26 21  1  0  0  0  0
 26 25  1  0  0  0  0
 27 23  1  0  0  0  0
 28 24  2  0  0  0  0
 28 23  1  0  0  0  0
M  END
>  <MODEL>
9

>  <REMARK>
 VINA RESULT:      -8.9      5.048      7.790
  Name = 
  2 active torsions:
  status: ('A' for Active; 'I' for Inactive)
    1  A    between atoms: C_1  and  C_2
    2  A    between atoms: N_10  and  C_13
                            x       y       z     vdW  Elec       q    Type
                         _______ _______ _______ _____ _____    ______ ____

>  <TORSDO>
F 2

$$$$
