=
 OpenBabel10262423293D

 34 39  0  0  1  0  0  0  0  0999 V2000
  187.1230  178.0320  144.2870 C   0  0  0  0  0  0  0  0  0  0  0  0
  183.5420  178.7830  144.9670 C   0  0  0  0  0  3  0  0  0  0  0  0
  185.3910  178.4240  146.4750 C   0  0  0  0  0  3  0  0  0  0  0  0
  189.9470  177.4540  144.7140 C   0  0  0  0  0  3  0  0  0  0  0  0
  188.0470  177.8240  143.1550 C   0  0  0  0  0  3  0  0  0  0  0  0
  188.9740  177.6730  145.8410 C   0  0  0  0  0  0  0  0  0  0  0  0
  188.5760  177.7920  148.2330 C   0  0  0  0  0  3  0  0  0  0  0  0
  189.4450  177.5960  147.1560 C   0  0  0  0  0  3  0  0  0  0  0  0
  189.3500  177.5570  143.3270 C   0  0  0  0  0  0  0  0  0  0  0  0
  186.7400  178.1480  146.6970 C   0  0  0  0  0  0  0  0  0  0  0  0
  187.6140  177.9500  145.6030 C   0  0  1  0  0  3  0  0  0  0  0  0
  187.2260  178.0670  148.0040 C   0  0  0  0  0  3  0  0  0  0  0  0
  183.0230  178.8710  143.6720 C   0  0  0  0  0  0  0  0  0  0  0  0
  183.8760  178.6780  142.5750 C   0  0  0  0  0  3  0  0  0  0  0  0
  184.8950  178.5070  145.1740 C   0  0  0  0  0  0  0  0  0  0  0  0
  185.2310  178.4010  142.7710 C   0  0  0  0  0  3  0  0  0  0  0  0
  185.7580  178.3110  144.0680 C   0  0  0  0  0  0  0  0  0  0  0  0
  192.4390  177.3590  141.1220 C   0  0  0  0  0  3  0  0  0  0  0  0
  189.6720  176.9700  140.9150 C   0  0  0  0  0  3  0  0  0  0  0  0
  192.1370  176.3980  137.5560 C   0  0  0  0  0  0  0  0  0  0  0  0
  192.6970  176.7840  138.7830 C   0  0  0  0  0  3  0  0  0  0  0  0
  191.8810  176.9750  139.9010 C   0  0  0  0  0  0  0  0  0  0  0  0
  189.9280  176.3960  138.5760 C   0  0  0  0  0  3  0  0  0  0  0  0
  190.4870  176.7790  139.7960 C   0  0  0  0  0  0  0  0  0  0  0  0
  190.7500  176.2060  137.4610 C   0  0  0  0  0  3  0  0  0  0  0  0
  190.2250  177.3570  142.1460 C   0  0  0  0  0  0  0  0  0  0  0  0
  191.6160  177.5490  142.2360 C   0  0  0  0  0  3  0  0  0  0  0  0
  193.0020  176.1990  136.3820 C   0  0  0  0  0  0  0  0  0  0  0  0
  192.5750  175.5770  135.3740 O   0  0  0  0  0  0  0  0  0  0  0  0
  194.2990  176.6960  136.3750 O   0  0  0  0  0  1  0  0  0  0  0  0
  180.8120  178.8220  142.3770 C   0  0  0  0  0  0  0  0  0  0  0  0
  179.3750  179.2020  142.3800 C   0  0  0  0  0  1  0  0  0  0  0  0
  181.2870  178.2150  141.3820 O   0  0  0  0  0  0  0  0  0  0  0  0
  181.6270  179.1570  143.5070 N   0  0  0  0  0  2  0  0  0  0  0  0
  2 15  1  0  0  0  0
  3 10  1  0  0  0  0
  4  6  2  0  0  0  0
  5  9  2  0  0  0  0
  5  1  1  0  0  0  0
  6  8  1  0  0  0  0
  8  7  2  0  0  0  0
  9  4  1  0  0  0  0
 10 12  2  0  0  0  0
 11  1  1  6  0  0  0
 11  6  1  0  0  0  0
 11 10  1  0  0  0  0
 12  7  1  0  0  0  0
 13  2  2  0  0  0  0
 14 16  2  0  0  0  0
 14 13  1  0  0  0  0
 15  3  2  0  0  0  0
 16 17  1  0  0  0  0
 17  1  2  0  0  0  0
 17 15  1  0  0  0  0
 18 27  1  0  0  0  0
 19 26  1  0  0  0  0
 20 21  2  0  0  0  0
 21 22  1  0  0  0  0
 22 18  2  0  0  0  0
 23 24  1  0  0  0  0
 24 22  1  0  0  0  0
 24 19  2  0  0  0  0
 25 20  1  0  0  0  0
 25 23  2  0  0  0  0
 26 27  2  0  0  0  0
 26  9  1  0  0  0  0
 28 20  1  0  0  0  0
 29 28  2  0  0  0  0
 30 28  1  0  0  0  0
 31 32  1  0  0  0  0
 31 34  1  0  0  0  0
 33 31  2  0  0  0  0
 34 13  1  0  0  0  0
M  END
>  <MODEL>
1

>  <REMARK>
 VINA RESULT:     -12.7      0.000      0.000
  Name = 
  3 active torsions:
  status: ('A' for Active; 'I' for Inactive)
    1  A    between atoms: C_7  and  C_11
    2  A    between atoms: C_18  and  C_30
    3  A    between atoms: C_23  and  N_25
                            x       y       z     vdW  Elec       q    Type
                         _______ _______ _______ _____ _____    ______ ____

>  <TORSDO>
F 3

$$$$
=
 OpenBabel10262423293D

 34 39  0  0  1  0  0  0  0  0999 V2000
  186.8660  177.9500  143.6320 C   0  0  0  0  0  0  0  0  0  0  0  0
  183.4680  178.9160  144.8020 C   0  0  0  0  0  3  0  0  0  0  0  0
  185.4630  178.3650  146.0420 C   0  0  0  0  0  3  0  0  0  0  0  0
  189.6720  177.1620  143.6650 C   0  0  0  0  0  3  0  0  0  0  0  0
  187.6190  177.7290  142.3830 C   0  0  0  0  0  3  0  0  0  0  0  0
  188.8700  177.3980  144.9170 C   0  0  0  0  0  0  0  0  0  0  0  0
  188.7930  177.4390  147.3430 C   0  0  0  0  0  3  0  0  0  0  0  0
  189.4990  177.2310  146.1550 C   0  0  0  0  0  3  0  0  0  0  0  0
  188.9100  177.3660  142.3730 C   0  0  0  0  0  0  0  0  0  0  0  0
  186.8060  177.9880  146.0740 C   0  0  0  0  0  0  0  0  0  0  0  0
  187.5160  177.7780  144.8690 C   0  0  1  0  0  3  0  0  0  0  0  0
  187.4490  177.8160  147.3030 C   0  0  0  0  0  3  0  0  0  0  0  0
  182.7940  179.0960  143.5900 C   0  0  0  0  0  0  0  0  0  0  0  0
  183.4830  178.8930  142.3850 C   0  0  0  0  0  3  0  0  0  0  0  0
  184.8120  178.5390  144.8200 C   0  0  0  0  0  0  0  0  0  0  0  0
  184.8270  178.5150  142.3920 C   0  0  0  0  0  3  0  0  0  0  0  0
  185.5090  178.3320  143.6040 C   0  0  0  0  0  0  0  0  0  0  0  0
  189.5480  176.8230  138.6650 C   0  0  0  0  0  3  0  0  0  0  0  0
  191.0120  177.1010  141.0390 C   0  0  0  0  0  3  0  0  0  0  0  0
  193.0110  176.5140  137.3870 C   0  0  0  0  0  0  0  0  0  0  0  0
  191.6100  176.5720  137.4200 C   0  0  0  0  0  3  0  0  0  0  0  0
  190.9430  176.7660  138.6320 C   0  0  0  0  0  0  0  0  0  0  0  0
  193.0750  176.8490  139.7950 C   0  0  0  0  0  3  0  0  0  0  0  0
  191.6800  176.9060  139.8270 C   0  0  0  0  0  0  0  0  0  0  0  0
  193.7370  176.6550  138.5790 C   0  0  0  0  0  3  0  0  0  0  0  0
  189.6090  177.1580  141.0810 C   0  0  0  0  0  0  0  0  0  0  0  0
  188.8870  177.0180  139.8810 C   0  0  0  0  0  3  0  0  0  0  0  0
  193.7090  176.3090  136.1070 C   0  0  0  0  0  0  0  0  0  0  0  0
  193.0660  175.9810  135.0750 O   0  0  0  0  0  0  0  0  0  0  0  0
  195.0860  176.4760  136.0250 O   0  0  0  0  0  1  0  0  0  0  0  0
  180.3000  178.6620  143.9900 C   0  0  0  0  0  0  0  0  0  0  0  0
  178.9310  179.2370  143.9600 C   0  0  0  0  0  1  0  0  0  0  0  0
  180.4580  177.4630  144.3400 O   0  0  0  0  0  0  0  0  0  0  0  0
  181.4140  179.4840  143.6200 N   0  0  0  0  0  2  0  0  0  0  0  0
  2 15  1  0  0  0  0
  3 10  1  0  0  0  0
  4  6  2  0  0  0  0
  5  1  1  0  0  0  0
  6  8  1  0  0  0  0
  8  7  2  0  0  0  0
  9  5  2  0  0  0  0
  9  4  1  0  0  0  0
 10 12  2  0  0  0  0
 11  1  1  6  0  0  0
 11  6  1  0  0  0  0
 11 10  1  0  0  0  0
 12  7  1  0  0  0  0
 13 34  1  0  0  0  0
 13  2  2  0  0  0  0
 14 16  2  0  0  0  0
 14 13  1  0  0  0  0
 15  3  2  0  0  0  0
 16 17  1  0  0  0  0
 17  1  2  0  0  0  0
 17 15  1  0  0  0  0
 18 27  1  0  0  0  0
 19 26  1  0  0  0  0
 20 21  2  0  0  0  0
 20 25  1  0  0  0  0
 21 22  1  0  0  0  0
 22 18  2  0  0  0  0
 22 24  1  0  0  0  0
 23 24  1  0  0  0  0
 24 19  2  0  0  0  0
 25 23  2  0  0  0  0
 26  9  1  0  0  0  0
 27 26  2  0  0  0  0
 28 20  1  0  0  0  0
 29 28  2  0  0  0  0
 30 28  1  0  0  0  0
 31 33  2  0  0  0  0
 32 31  1  0  0  0  0
 34 31  1  0  0  0  0
M  END
>  <MODEL>
2

>  <REMARK>
 VINA RESULT:     -12.1      1.019      1.613
  Name = 
  3 active torsions:
  status: ('A' for Active; 'I' for Inactive)
    1  A    between atoms: C_7  and  C_11
    2  A    between atoms: C_18  and  C_30
    3  A    between atoms: C_23  and  N_25
                            x       y       z     vdW  Elec       q    Type
                         _______ _______ _______ _____ _____    ______ ____

>  <TORSDO>
F 3

$$$$
=
 OpenBabel10262423293D

 34 39  0  0  1  0  0  0  0  0999 V2000
  185.3880  178.3850  142.4110 C   0  0  0  0  0  0  0  0  0  0  0  0
  184.9100  178.6750  138.7310 C   0  0  0  0  0  3  0  0  0  0  0  0
  183.3250  178.8370  140.5440 C   0  0  0  0  0  3  0  0  0  0  0  0
  184.8150  178.3190  145.2680 C   0  0  0  0  0  3  0  0  0  0  0  0
  186.4530  178.1510  143.4050 C   0  0  0  0  0  3  0  0  0  0  0  0
  183.7580  178.5560  144.2240 C   0  0  0  0  0  0  0  0  0  0  0  0
  181.4230  178.9750  143.7060 C   0  0  0  0  0  3  0  0  0  0  0  0
  182.4380  178.7530  144.6410 C   0  0  0  0  0  3  0  0  0  0  0  0
  186.2140  178.1160  144.7240 C   0  0  0  0  0  0  0  0  0  0  0  0
  183.0350  178.8080  141.9070 C   0  0  0  0  0  0  0  0  0  0  0  0
  184.0650  178.5820  142.8500 C   0  0  1  0  0  3  0  0  0  0  0  0
  181.7210  179.0020  142.3420 C   0  0  0  0  0  3  0  0  0  0  0  0
  186.2130  178.4830  138.2630 C   0  0  0  0  0  0  0  0  0  0  0  0
  187.2470  178.2580  139.1830 C   0  0  0  0  0  3  0  0  0  0  0  0
  184.6330  178.6440  140.1000 C   0  0  0  0  0  0  0  0  0  0  0  0
  186.9820  178.2250  140.5540 C   0  0  0  0  0  3  0  0  0  0  0  0
  185.6770  178.4160  141.0310 C   0  0  0  0  0  0  0  0  0  0  0  0
  188.2220  177.8680  147.9420 C   0  0  0  0  0  3  0  0  0  0  0  0
  188.5710  177.4190  145.1970 C   0  0  0  0  0  3  0  0  0  0  0  0
  191.7460  176.7290  147.8660 C   0  0  0  0  0  0  0  0  0  0  0  0
  190.5100  177.1850  148.3470 C   0  0  0  0  0  3  0  0  0  0  0  0
  189.4530  177.4150  147.4630 C   0  0  0  0  0  0  0  0  0  0  0  0
  190.8590  176.7360  145.6010 C   0  0  0  0  0  3  0  0  0  0  0  0
  189.6290  177.1890  146.0810 C   0  0  0  0  0  0  0  0  0  0  0  0
  191.9130  176.5070  146.4910 C   0  0  0  0  0  3  0  0  0  0  0  0
  187.3300  177.8750  145.6710 C   0  0  0  0  0  0  0  0  0  0  0  0
  187.1680  178.0960  147.0510 C   0  0  0  0  0  3  0  0  0  0  0  0
  192.8560  176.4890  148.8030 C   0  0  0  0  0  0  0  0  0  0  0  0
  193.3460  175.3350  148.9280 O   0  0  0  0  0  0  0  0  0  0  0  0
  193.3750  177.5330  149.5580 O   0  0  0  0  0  1  0  0  0  0  0  0
  187.0640  177.5020  136.0540 C   0  0  0  0  0  0  0  0  0  0  0  0
  187.2300  177.7190  134.5940 C   0  0  0  0  0  1  0  0  0  0  0  0
  187.4660  176.4240  136.5670 O   0  0  0  0  0  0  0  0  0  0  0  0
  186.4500  178.5240  136.8490 N   0  0  0  0  0  2  0  0  0  0  0  0
  1 11  1  0  0  0  0
  1  5  1  0  0  0  0
  2 15  1  0  0  0  0
  3 10  1  0  0  0  0
  5  9  2  0  0  0  0
  6  8  1  0  0  0  0
  6  4  2  0  0  0  0
  7  8  2  0  0  0  0
  9  4  1  0  0  0  0
  9 26  1  0  0  0  0
 10 12  2  0  0  0  0
 11 10  1  1  0  0  0
 11  6  1  0  0  0  0
 12  7  1  0  0  0  0
 13  2  2  0  0  0  0
 13 14  1  0  0  0  0
 14 16  2  0  0  0  0
 15  3  2  0  0  0  0
 15 17  1  0  0  0  0
 16 17  1  0  0  0  0
 17  1  2  0  0  0  0
 19 26  2  0  0  0  0
 19 24  1  0  0  0  0
 20 21  1  0  0  0  0
 20 28  1  0  0  0  0
 22 18  1  0  0  0  0
 22 21  2  0  0  0  0
 23 24  2  0  0  0  0
 23 25  1  0  0  0  0
 24 22  1  0  0  0  0
 25 20  2  0  0  0  0
 26 27  1  0  0  0  0
 27 18  2  0  0  0  0
 28 29  2  0  0  0  0
 28 30  1  0  0  0  0
 31 33  2  0  0  0  0
 31 34  1  0  0  0  0
 32 31  1  0  0  0  0
 34 13  1  0  0  0  0
M  END
>  <MODEL>
3

>  <REMARK>
 VINA RESULT:     -10.9      4.139      7.587
  Name = 
  3 active torsions:
  status: ('A' for Active; 'I' for Inactive)
    1  A    between atoms: C_7  and  C_11
    2  A    between atoms: C_18  and  C_30
    3  A    between atoms: C_23  and  N_25
                            x       y       z     vdW  Elec       q    Type
                         _______ _______ _______ _____ _____    ______ ____

>  <TORSDO>
F 3

$$$$
=
 OpenBabel10262423293D

 34 39  0  0  1  0  0  0  0  0999 V2000
  190.9500  176.6090  138.1130 C   0  0  0  0  0  0  0  0  0  0  0  0
  193.3090  175.5060  135.4540 C   0  0  0  0  0  3  0  0  0  0  0  0
  191.0370  176.3080  135.3120 C   0  0  0  0  0  3  0  0  0  0  0  0
  188.5440  177.6000  139.4260 C   0  0  0  0  0  3  0  0  0  0  0  0
  190.8840  176.7760  139.5780 C   0  0  0  0  0  3  0  0  0  0  0  0
  188.6510  177.4180  137.9360 C   0  0  0  0  0  0  0  0  0  0  0  0
  187.6000  177.5830  135.7540 C   0  0  0  0  0  3  0  0  0  0  0  0
  187.5450  177.7380  137.1410 C   0  0  0  0  0  3  0  0  0  0  0  0
  189.7880  177.2290  140.2040 C   0  0  0  0  0  0  0  0  0  0  0  0
  189.8780  176.7830  135.9250 C   0  0  0  0  0  0  0  0  0  0  0  0
  189.8280  176.9370  137.3310 C   0  0  2  0  0  3  0  0  0  0  0  0
  188.7640  177.1070  135.1470 C   0  0  0  0  0  3  0  0  0  0  0  0
  194.4410  175.1730  136.2040 C   0  0  0  0  0  0  0  0  0  0  0  0
  194.4080  175.3200  137.5980 C   0  0  0  0  0  3  0  0  0  0  0  0
  192.1540  175.9810  136.0810 C   0  0  0  0  0  0  0  0  0  0  0  0
  193.2600  175.7940  138.2360 C   0  0  0  0  0  3  0  0  0  0  0  0
  192.1200  176.1300  137.4900 C   0  0  0  0  0  0  0  0  0  0  0  0
  190.9810  177.7140  143.7800 C   0  0  0  0  0  3  0  0  0  0  0  0
  188.5790  177.3040  142.3950 C   0  0  0  0  0  3  0  0  0  0  0  0
  188.5550  177.7090  146.5810 C   0  0  0  0  0  0  0  0  0  0  0  0
  189.7650  177.7790  145.8740 C   0  0  0  0  0  3  0  0  0  0  0  0
  189.7770  177.6440  144.4840 C   0  0  0  0  0  0  0  0  0  0  0  0
  187.3620  177.3690  144.4880 C   0  0  0  0  0  3  0  0  0  0  0  0
  188.5670  177.4380  143.7860 C   0  0  0  0  0  0  0  0  0  0  0  0
  187.3570  177.5040  145.8800 C   0  0  0  0  0  3  0  0  0  0  0  0
  189.7870  177.3720  141.6810 C   0  0  0  0  0  0  0  0  0  0  0  0
  190.9850  177.5790  142.3890 C   0  0  0  0  0  3  0  0  0  0  0  0
  188.5490  177.8510  148.0460 C   0  0  0  0  0  0  0  0  0  0  0  0
  187.5450  177.4940  148.7170 O   0  0  0  0  0  1  0  0  0  0  0  0
  189.6530  178.3800  148.7030 O   0  0  0  0  0  0  0  0  0  0  0  0
  196.8850  175.3250  135.4510 C   0  0  0  0  0  0  0  0  0  0  0  0
  197.9810  174.6730  134.6880 C   0  0  0  0  0  1  0  0  0  0  0  0
  197.1030  176.4250  136.0240 O   0  0  0  0  0  0  0  0  0  0  0  0
  195.6030  174.6890  135.5180 N   0  0  0  0  0  2  0  0  0  0  0  0
  1  5  2  0  0  0  0
  2 15  2  0  0  0  0
  2 13  1  0  0  0  0
  3 10  2  0  0  0  0
  3 15  1  0  0  0  0
  4  9  2  0  0  0  0
  5  9  1  0  0  0  0
  6  4  1  0  0  0  0
  7  8  1  0  0  0  0
  8  6  2  0  0  0  0
  9 26  1  0  0  0  0
 11 10  1  1  0  0  0
 11  6  1  0  0  0  0
 11  1  1  0  0  0  0
 12  7  2  0  0  0  0
 12 10  1  0  0  0  0
 13 14  2  0  0  0  0
 14 16  1  0  0  0  0
 15 17  1  0  0  0  0
 17  1  1  0  0  0  0
 17 16  2  0  0  0  0
 18 22  1  0  0  0  0
 19 24  1  0  0  0  0
 20 28  1  0  0  0  0
 21 20  2  0  0  0  0
 22 21  1  0  0  0  0
 23 25  2  0  0  0  0
 24 22  2  0  0  0  0
 24 23  1  0  0  0  0
 25 20  1  0  0  0  0
 26 27  1  0  0  0  0
 26 19  2  0  0  0  0
 27 18  2  0  0  0  0
 28 30  2  0  0  0  0
 28 29  1  0  0  0  0
 31 34  1  0  0  0  0
 31 33  2  0  0  0  0
 32 31  1  0  0  0  0
 34 13  1  0  0  0  0
M  END
>  <MODEL>
4

>  <REMARK>
 VINA RESULT:     -10.7      4.281     10.883
  Name = 
  3 active torsions:
  status: ('A' for Active; 'I' for Inactive)
    1  A    between atoms: C_7  and  C_11
    2  A    between atoms: C_18  and  C_30
    3  A    between atoms: C_23  and  N_25
                            x       y       z     vdW  Elec       q    Type
                         _______ _______ _______ _____ _____    ______ ____

>  <TORSDO>
F 3

$$$$
=
 OpenBabel10262423293D

 34 39  0  0  1  0  0  0  0  0999 V2000
  188.0570  177.8510  144.5100 C   0  0  0  0  0  0  0  0  0  0  0  0
  191.6300  177.1740  143.7170 C   0  0  0  0  0  3  0  0  0  0  0  0
  190.5060  177.4200  145.8380 C   0  0  0  0  0  3  0  0  0  0  0  0
  185.6130  178.3310  146.0230 C   0  0  0  0  0  3  0  0  0  0  0  0
  186.7650  178.0770  143.8350 C   0  0  0  0  0  3  0  0  0  0  0  0
  186.9480  178.0950  146.6740 C   0  0  0  0  0  0  0  0  0  0  0  0
  188.2430  177.8920  148.7180 C   0  0  0  0  0  3  0  0  0  0  0  0
  187.0230  178.1060  148.0710 C   0  0  0  0  0  3  0  0  0  0  0  0
  185.6270  178.3010  144.5090 C   0  0  0  0  0  0  0  0  0  0  0  0
  189.3450  177.6490  146.5770 C   0  0  0  0  0  0  0  0  0  0  0  0
  188.1130  177.8650  145.9160 C   0  0  2  0  0  3  0  0  0  0  0  0
  189.4010  177.6640  147.9730 C   0  0  0  0  0  3  0  0  0  0  0  0
  191.6080  177.1520  142.3200 C   0  0  0  0  0  0  0  0  0  0  0  0
  190.3950  177.3650  141.6490 C   0  0  0  0  0  3  0  0  0  0  0  0
  190.4590  177.4030  144.4440 C   0  0  0  0  0  0  0  0  0  0  0  0
  189.2180  177.5960  142.3660 C   0  0  0  0  0  3  0  0  0  0  0  0
  189.2330  177.6190  143.7680 C   0  0  0  0  0  0  0  0  0  0  0  0
  181.9730  179.0230  143.7520 C   0  0  0  0  0  3  0  0  0  0  0  0
  184.3400  178.4450  142.3670 C   0  0  0  0  0  3  0  0  0  0  0  0
  180.7610  179.0720  140.2510 C   0  0  0  0  0  0  0  0  0  0  0  0
  180.7740  179.1520  141.6520 C   0  0  0  0  0  3  0  0  0  0  0  0
  181.9610  178.9440  142.3580 C   0  0  0  0  0  0  0  0  0  0  0  0
  183.1420  178.5730  140.2670 C   0  0  0  0  0  3  0  0  0  0  0  0
  183.1530  178.6530  141.6600 C   0  0  0  0  0  0  0  0  0  0  0  0
  181.9500  178.7820  139.5650 C   0  0  0  0  0  3  0  0  0  0  0  0
  184.3610  178.5220  143.7690 C   0  0  0  0  0  0  0  0  0  0  0  0
  183.1650  178.8140  144.4520 C   0  0  0  0  0  3  0  0  0  0  0  0
  179.5070  179.2920  139.5130 C   0  0  0  0  0  0  0  0  0  0  0  0
  178.9300  180.4110  139.5530 O   0  0  0  0  0  1  0  0  0  0  0  0
  178.9460  178.2650  138.7630 O   0  0  0  0  0  0  0  0  0  0  0  0
  193.0560  177.0610  140.2070 C   0  0  0  0  0  0  0  0  0  0  0  0
  194.4000  176.7650  139.6490 C   0  0  0  0  0  1  0  0  0  0  0  0
  192.1360  177.4370  139.4340 O   0  0  0  0  0  0  0  0  0  0  0  0
  192.8340  176.9130  141.6150 N   0  0  0  0  0  2  0  0  0  0  0  0
  2 15  1  0  0  0  0
  3 10  1  0  0  0  0
  4  6  2  0  0  0  0
  5  9  2  0  0  0  0
  5  1  1  0  0  0  0
  6  8  1  0  0  0  0
  8  7  2  0  0  0  0
  9  4  1  0  0  0  0
 10 12  2  0  0  0  0
 11  1  1  6  0  0  0
 11 10  1  0  0  0  0
 11  6  1  0  0  0  0
 12  7  1  0  0  0  0
 13  2  2  0  0  0  0
 14 13  1  0  0  0  0
 14 16  2  0  0  0  0
 15  3  2  0  0  0  0
 16 17  1  0  0  0  0
 17 15  1  0  0  0  0
 17  1  2  0  0  0  0
 18 27  1  0  0  0  0
 19 26  1  0  0  0  0
 20 21  2  0  0  0  0
 21 22  1  0  0  0  0
 22 18  2  0  0  0  0
 23 24  1  0  0  0  0
 24 22  1  0  0  0  0
 24 19  2  0  0  0  0
 25 20  1  0  0  0  0
 25 23  2  0  0  0  0
 26 27  2  0  0  0  0
 26  9  1  0  0  0  0
 28 29  1  0  0  0  0
 28 20  1  0  0  0  0
 30 28  2  0  0  0  0
 31 34  1  0  0  0  0
 32 31  1  0  0  0  0
 33 31  2  0  0  0  0
 34 13  1  0  0  0  0
M  END
>  <MODEL>
5

>  <REMARK>
 VINA RESULT:     -10.7      2.704      8.664
  Name = 
  3 active torsions:
  status: ('A' for Active; 'I' for Inactive)
    1  A    between atoms: C_7  and  C_11
    2  A    between atoms: C_18  and  C_30
    3  A    between atoms: C_23  and  N_25
                            x       y       z     vdW  Elec       q    Type
                         _______ _______ _______ _____ _____    ______ ____

>  <TORSDO>
F 3

$$$$
=
 OpenBabel10262423293D

 34 39  0  0  0  0  0  0  0  0999 V2000
  188.4690  177.6020  145.0950 C   0  0  0  0  0  0  0  0  0  0  0  0
  190.3540  177.0490  148.2560 C   0  0  0  0  0  3  0  0  0  0  0  0
  188.0700  177.7320  147.8820 C   0  0  0  0  0  3  0  0  0  0  0  0
  186.3030  178.2430  143.2540 C   0  0  0  0  0  2  0  0  0  0  0  0
  188.6560  177.5390  143.6330 C   0  0  0  0  0  3  0  0  0  0  0  0
  186.1510  178.2940  144.7500 C   0  0  0  0  0  0  0  0  0  0  0  0
  184.7280  178.7290  146.6680 C   0  0  0  0  0  3  0  0  0  0  0  0
  184.9140  178.6670  145.2850 C   0  0  0  0  0  3  0  0  0  0  0  0
  187.6750  177.8300  142.7660 C   0  0  0  0  0  0  0  0  0  0  0  0
  187.0230  178.0420  147.0150 C   0  0  0  0  0  0  0  0  0  0  0  0
  187.2170  177.9790  145.6150 C   0  0  0  0  0  0  0  0  0  0  0  0
  185.7810  178.4170  147.5320 C   0  0  0  0  0  3  0  0  0  0  0  0
  191.6100  176.6700  147.7720 C   0  0  0  0  0  0  0  0  0  0  0  0
  191.8190  176.6020  146.3870 C   0  0  0  0  0  3  0  0  0  0  0  0
  189.3140  177.3560  147.3760 C   0  0  0  0  0  0  0  0  0  0  0  0
  190.7870  176.9080  145.4970 C   0  0  0  0  0  3  0  0  0  0  0  0
  189.5250  177.2890  145.9760 C   0  0  0  0  0  0  0  0  0  0  0  0
  187.2390  178.1700  139.0060 C   0  0  0  0  0  3  0  0  0  0  0  0
  189.1160  177.1670  140.8290 C   0  0  0  0  0  3  0  0  0  0  0  0
  189.8560  176.9270  136.6970 C   0  0  0  0  0  0  0  0  0  0  0  0
  188.6690  177.5100  137.1670 C   0  0  0  0  0  3  0  0  0  0  0  0
  188.4200  177.5910  138.5380 C   0  0  0  0  0  0  0  0  0  0  0  0
  190.5470  176.5050  138.9910 C   0  0  0  0  0  3  0  0  0  0  0  0
  189.3660  177.0850  139.4570 C   0  0  0  0  0  0  0  0  0  0  0  0
  190.7910  176.4270  137.6160 C   0  0  0  0  0  3  0  0  0  0  0  0
  187.9300  177.7480  141.3070 C   0  0  0  0  0  0  0  0  0  0  0  0
  186.9960  178.2480  140.3810 C   0  0  0  0  0  3  0  0  0  0  0  0
  190.1130  176.8450  135.2500 C   0  0  0  0  0  0  0  0  0  0  0  0
  190.4040  177.8790  134.5940 O   0  0  0  0  0  1  0  0  0  0  0  0
  190.0360  175.6230  134.5940 O   0  0  0  0  0  0  0  0  0  0  0  0
  193.2290  177.2580  149.6700 C   0  0  0  0  0  0  0  0  0  0  0  0
  194.3020  176.7620  150.5690 C   0  0  0  0  0  1  0  0  0  0  0  0
  192.8490  178.4550  149.7640 O   0  0  0  0  0  0  0  0  0  0  0  0
  192.6480  176.3640  148.7130 N   0  0  0  0  0  2  0  0  0  0  0  0
  1 11  2  0  0  0  0
  1 17  1  0  0  0  0
  4  6  1  0  0  0  0
  5  1  1  0  0  0  0
  6  8  2  0  0  0  0
  6 11  1  0  0  0  0
  7 12  2  0  0  0  0
  8  7  1  0  0  0  0
  9  4  1  0  0  0  0
  9  5  2  0  0  0  0
 10 12  1  0  0  0  0
 10  3  2  0  0  0  0
 11 10  1  0  0  0  0
 13  2  1  0  0  0  0
 13 34  1  0  0  0  0
 14 13  2  0  0  0  0
 15  3  1  0  0  0  0
 15  2  2  0  0  0  0
 16 17  2  0  0  0  0
 16 14  1  0  0  0  0
 17 15  1  0  0  0  0
 18 27  1  0  0  0  0
 19 26  1  0  0  0  0
 20 21  2  0  0  0  0
 20 25  1  0  0  0  0
 21 22  1  0  0  0  0
 22 18  2  0  0  0  0
 22 24  1  0  0  0  0
 23 24  1  0  0  0  0
 24 19  2  0  0  0  0
 25 23  2  0  0  0  0
 26  9  1  0  0  0  0
 27 26  2  0  0  0  0
 28 20  1  0  0  0  0
 29 28  1  0  0  0  0
 30 28  2  0  0  0  0
 31 33  2  0  0  0  0
 31 32  1  0  0  0  0
 34 31  1  0  0  0  0
M  END
>  <MODEL>
6

>  <REMARK>
 VINA RESULT:     -10.2      3.757      6.475
  Name = 
  3 active torsions:
  status: ('A' for Active; 'I' for Inactive)
    1  A    between atoms: C_7  and  C_11
    2  A    between atoms: C_18  and  C_30
    3  A    between atoms: C_23  and  N_25
                            x       y       z     vdW  Elec       q    Type
                         _______ _______ _______ _____ _____    ______ ____

>  <TORSDO>
F 3

$$$$
=
 OpenBabel10262423293D

 34 39  0  0  1  0  0  0  0  0999 V2000
  182.1790  177.8850  140.9500 C   0  0  0  0  0  0  0  0  0  0  0  0
  180.7960  176.5610  137.7590 C   0  0  0  0  0  3  0  0  0  0  0  0
  179.8740  178.1270  139.3470 C   0  0  0  0  0  3  0  0  0  0  0  0
  182.4220  179.3860  143.4360 C   0  0  0  0  0  3  0  0  0  0  0  0
  183.3780  177.7740  141.8040 C   0  0  0  0  0  3  0  0  0  0  0  0
  181.2170  179.4730  142.5390 C   0  0  0  0  0  0  0  0  0  0  0  0
  179.0250  180.4230  142.1110 C   0  0  0  0  0  3  0  0  0  0  0  0
  180.1630  180.3130  142.9140 C   0  0  0  0  0  3  0  0  0  0  0  0
  183.5120  178.4540  142.9520 C   0  0  0  0  0  0  0  0  0  0  0  0
  179.9740  178.8510  140.5340 C   0  0  0  0  0  0  0  0  0  0  0  0
  181.1290  178.7350  141.3430 C   0  0  2  0  0  3  0  0  0  0  0  0
  178.9310  179.6940  140.9240 C   0  0  0  0  0  3  0  0  0  0  0  0
  181.8220  175.7090  137.3400 C   0  0  0  0  0  0  0  0  0  0  0  0
  182.9740  175.5820  138.1300 C   0  0  0  0  0  3  0  0  0  0  0  0
  180.9100  177.2820  138.9500 C   0  0  0  0  0  0  0  0  0  0  0  0
  183.0990  176.2970  139.3230 C   0  0  0  0  0  3  0  0  0  0  0  0
  182.0730  177.1540  139.7490 C   0  0  0  0  0  0  0  0  0  0  0  0
  185.9510  178.5870  145.8630 C   0  0  0  0  0  3  0  0  0  0  0  0
  185.8850  177.6980  143.2070 C   0  0  0  0  0  3  0  0  0  0  0  0
  189.3830  177.2410  145.4940 C   0  0  0  0  0  0  0  0  0  0  0  0
  188.2470  177.8390  146.0590 C   0  0  0  0  0  3  0  0  0  0  0  0
  187.0830  177.9920  145.3020 C   0  0  0  0  0  0  0  0  0  0  0  0
  188.1800  176.9490  143.4010 C   0  0  0  0  0  3  0  0  0  0  0  0
  187.0500  177.5440  143.9640 C   0  0  0  0  0  0  0  0  0  0  0  0
  189.3420  176.7980  144.1640 C   0  0  0  0  0  3  0  0  0  0  0  0
  184.7430  178.2960  143.7640 C   0  0  0  0  0  0  0  0  0  0  0  0
  184.7900  178.7380  145.1000 C   0  0  0  0  0  3  0  0  0  0  0  0
  190.6070  177.0820  146.2970 C   0  0  0  0  0  0  0  0  0  0  0  0
  190.5360  176.7290  147.5050 O   0  0  0  0  0  1  0  0  0  0  0  0
  191.8520  177.3190  145.7300 O   0  0  0  0  0  0  0  0  0  0  0  0
  181.5800  173.5670  135.9540 C   0  0  0  0  0  0  0  0  0  0  0  0
  181.4130  172.9940  134.5940 C   0  0  0  0  0  1  0  0  0  0  0  0
  181.6470  172.7940  136.9450 O   0  0  0  0  0  0  0  0  0  0  0  0
  181.6610  174.9890  136.1100 N   0  0  0  0  0  2  0  0  0  0  0  0
  1 11  1  0  0  0  0
  1  5  1  0  0  0  0
  2 15  1  0  0  0  0
  3 10  1  0  0  0  0
  5  9  2  0  0  0  0
  6  8  1  0  0  0  0
  6  4  2  0  0  0  0
  7  8  2  0  0  0  0
  9  4  1  0  0  0  0
  9 26  1  0  0  0  0
 10 12  2  0  0  0  0
 11 10  1  1  0  0  0
 11  6  1  0  0  0  0
 12  7  1  0  0  0  0
 13  2  2  0  0  0  0
 13 14  1  0  0  0  0
 14 16  2  0  0  0  0
 15  3  2  0  0  0  0
 15 17  1  0  0  0  0
 16 17  1  0  0  0  0
 17  1  2  0  0  0  0
 19 26  2  0  0  0  0
 19 24  1  0  0  0  0
 20 21  1  0  0  0  0
 20 28  1  0  0  0  0
 22 18  1  0  0  0  0
 22 21  2  0  0  0  0
 23 24  2  0  0  0  0
 23 25  1  0  0  0  0
 24 22  1  0  0  0  0
 25 20  2  0  0  0  0
 26 27  1  0  0  0  0
 27 18  2  0  0  0  0
 28 29  1  0  0  0  0
 30 28  2  0  0  0  0
 31 34  1  0  0  0  0
 31 33  2  0  0  0  0
 32 31  1  0  0  0  0
 34 13  1  0  0  0  0
M  END
>  <MODEL>
7

>  <REMARK>
 VINA RESULT:     -10.1      4.468      8.055
  Name = 
  3 active torsions:
  status: ('A' for Active; 'I' for Inactive)
    1  A    between atoms: C_7  and  C_11
    2  A    between atoms: C_18  and  C_30
    3  A    between atoms: C_23  and  N_25
                            x       y       z     vdW  Elec       q    Type
                         _______ _______ _______ _____ _____    ______ ____

>  <TORSDO>
F 3

$$$$
=
 OpenBabel10262423293D

 34 39  0  0  0  0  0  0  0  0999 V2000
  188.8000  177.5180  143.9870 C   0  0  0  0  0  0  0  0  0  0  0  0
  189.7280  177.5230  147.5910 C   0  0  0  0  0  3  0  0  0  0  0  0
  187.6200  177.9710  146.5060 C   0  0  0  0  0  3  0  0  0  0  0  0
  187.2230  177.7470  141.5470 C   0  0  0  0  0  2  0  0  0  0  0  0
  189.3970  177.2840  142.6580 C   0  0  0  0  0  3  0  0  0  0  0  0
  186.6500  177.9770  142.9190 C   0  0  0  0  0  0  0  0  0  0  0  0
  184.7240  178.5400  144.2860 C   0  0  0  0  0  3  0  0  0  0  0  0
  185.2980  178.3170  143.0320 C   0  0  0  0  0  3  0  0  0  0  0  0
  188.6920  177.3840  141.5220 C   0  0  0  0  0  0  0  0  0  0  0  0
  186.8520  178.0850  145.3480 C   0  0  0  0  0  0  0  0  0  0  0  0
  187.4380  177.8590  144.0800 C   0  0  0  0  0  0  0  0  0  0  0  0
  185.5000  178.4240  145.4420 C   0  0  0  0  0  3  0  0  0  0  0  0
  191.0840  177.1850  147.5320 C   0  0  0  0  0  0  0  0  0  0  0  0
  191.6810  176.9570  146.2830 C   0  0  0  0  0  3  0  0  0  0  0  0
  188.9710  177.6330  146.4230 C   0  0  0  0  0  0  0  0  0  0  0  0
  190.9330  177.0650  145.1090 C   0  0  0  0  0  3  0  0  0  0  0  0
  189.5720  177.4040  145.1610 C   0  0  0  0  0  0  0  0  0  0  0  0
  189.2390  176.8910  137.7930 C   0  0  0  0  0  3  0  0  0  0  0  0
  190.7400  176.9140  140.1600 C   0  0  0  0  0  3  0  0  0  0  0  0
  192.6340  176.2140  136.4720 C   0  0  0  0  0  0  0  0  0  0  0  0
  191.2490  176.4360  136.5210 C   0  0  0  0  0  3  0  0  0  0  0  0
  190.6170  176.6690  137.7440 C   0  0  0  0  0  0  0  0  0  0  0  0
  192.7500  176.4600  138.8890 C   0  0  0  0  0  3  0  0  0  0  0  0
  191.3730  176.6810  138.9360 C   0  0  0  0  0  0  0  0  0  0  0  0
  193.3780  176.2270  137.6610 C   0  0  0  0  0  3  0  0  0  0  0  0
  189.3540  177.1370  140.2170 C   0  0  0  0  0  0  0  0  0  0  0  0
  188.6130  177.1230  139.0210 C   0  0  0  0  0  3  0  0  0  0  0  0
  193.2940  175.9690  135.1800 C   0  0  0  0  0  0  0  0  0  0  0  0
  193.9130  176.8960  134.5940 O   0  0  0  0  0  1  0  0  0  0  0  0
  193.2420  174.7100  134.5940 O   0  0  0  0  0  0  0  0  0  0  0  0
  193.0170  176.3230  148.9760 C   0  0  0  0  0  0  0  0  0  0  0  0
  193.6490  176.3350  150.3210 C   0  0  0  0  0  1  0  0  0  0  0  0
  193.5420  175.6460  148.0540 O   0  0  0  0  0  0  0  0  0  0  0  0
  191.8230  177.0830  148.7570 N   0  0  0  0  0  2  0  0  0  0  0  0
  1 11  2  0  0  0  0
  1 17  1  0  0  0  0
  4  6  1  0  0  0  0
  5  1  1  0  0  0  0
  6  8  2  0  0  0  0
  6 11  1  0  0  0  0
  7 12  2  0  0  0  0
  8  7  1  0  0  0  0
  9  4  1  0  0  0  0
  9  5  2  0  0  0  0
 10 12  1  0  0  0  0
 10  3  2  0  0  0  0
 11 10  1  0  0  0  0
 13  2  1  0  0  0  0
 13 34  1  0  0  0  0
 14 13  2  0  0  0  0
 15  3  1  0  0  0  0
 15  2  2  0  0  0  0
 16 17  2  0  0  0  0
 16 14  1  0  0  0  0
 17 15  1  0  0  0  0
 18 27  1  0  0  0  0
 19 26  1  0  0  0  0
 20 21  2  0  0  0  0
 20 25  1  0  0  0  0
 21 22  1  0  0  0  0
 22 18  2  0  0  0  0
 22 24  1  0  0  0  0
 23 24  1  0  0  0  0
 24 19  2  0  0  0  0
 25 23  2  0  0  0  0
 26  9  1  0  0  0  0
 27 26  2  0  0  0  0
 28 20  1  0  0  0  0
 29 28  1  0  0  0  0
 30 28  2  0  0  0  0
 31 32  1  0  0  0  0
 33 31  2  0  0  0  0
 34 31  1  0  0  0  0
M  END
>  <MODEL>
8

>  <REMARK>
 VINA RESULT:      -9.9      3.550      6.211
  Name = 
  3 active torsions:
  status: ('A' for Active; 'I' for Inactive)
    1  A    between atoms: C_7  and  C_11
    2  A    between atoms: C_18  and  C_30
    3  A    between atoms: C_23  and  N_25
                            x       y       z     vdW  Elec       q    Type
                         _______ _______ _______ _____ _____    ______ ____

>  <TORSDO>
F 3

$$$$
