=
 OpenBabel10262419213D

 31 35  0  0  1  0  0  0  0  0999 V2000
  186.6550  178.2280  138.8650 C   0  0  2  0  0  3  0  0  0  0  0  0
  184.2150  178.3560  141.8100 N   0  0  0  0  0  0  0  0  0  0  0  0
  182.8940  178.1570  141.2440 C   0  0  0  0  0  0  0  0  0  0  0  0
  181.6020  176.9910  139.3710 C   0  0  0  0  0  3  0  0  0  0  0  0
  185.4390  178.0330  141.0400 C   0  0  1  0  0  3  0  0  0  0  0  0
  187.9540  178.5410  139.6110 C   0  0  0  0  0  2  0  0  0  0  0  0
  182.7770  177.3870  140.1540 C   0  0  0  0  0  3  0  0  0  0  0  0
  185.6110  178.6870  143.9580 C   0  0  1  0  0  3  0  0  0  0  0  0
  186.6700  178.8570  137.6210 O   0  0  0  0  0  1  0  0  0  0  0  0
  181.9610  179.2510  143.1890 C   0  0  0  0  0  3  0  0  0  0  0  0
  180.3520  177.4230  139.4650 C   0  0  0  0  0  3  0  0  0  0  0  0
  186.6830  177.9310  143.1830 C   0  0  0  0  0  2  0  0  0  0  0  0
  184.2980  178.7220  143.2100 C   0  0  0  0  0  0  0  0  0  0  0  0
  185.4430  178.7070  139.6650 C   0  0  0  0  0  2  0  0  0  0  0  0
  179.8000  178.4070  140.3950 C   0  0  0  0  0  3  0  0  0  0  0  0
  186.7160  178.4560  141.7690 C   0  0  1  0  0  3  0  0  0  0  0  0
  187.9310  177.9350  141.0140 C   0  0  0  0  0  2  0  0  0  0  0  0
  183.2430  179.1720  143.8210 N   0  0  0  0  0  0  0  0  0  0  0  0
  181.7460  178.7640  141.9670 C   0  0  0  0  0  0  0  0  0  0  0  0
  180.3870  178.9630  141.4480 C   0  0  0  0  0  3  0  0  0  0  0  0
  185.4350  178.0590  145.3360 C   0  0  0  0  0  2  0  0  0  0  0  0
  185.7090  179.2380  147.3810 O   0  0  0  0  0  1  0  0  0  0  0  0
  186.4180  178.6470  146.3360 C   0  0  1  0  0  3  0  0  0  0  0  0
  187.2790  177.5970  146.8640 N   0  0  0  0  0  2  0  0  0  0  0  0
  190.9040  176.6640  146.9550 C   0  0  0  0  0  0  0  0  0  0  0  0
  190.4290  177.8310  144.8890 C   0  0  0  0  0  3  0  0  0  0  0  0
  191.8050  176.0200  147.7930 O   0  0  0  0  0  1  0  0  0  0  0  0
  189.5670  176.7950  147.3370 C   0  0  0  0  0  3  0  0  0  0  0  0
  189.0900  177.9620  145.2700 C   0  0  0  0  0  3  0  0  0  0  0  0
  188.6520  177.4450  146.4940 C   0  0  0  0  0  0  0  0  0  0  0  0
  191.3350  177.1810  145.7310 C   0  0  0  0  0  3  0  0  0  0  0  0
  1  9  1  6  0  0  0
  1  6  1  0  0  0  0
  1 14  1  0  0  0  0
  2 13  1  0  0  0  0
  3  2  1  0  0  0  0
  3 19  1  0  0  0  0
  4 11  2  0  0  0  0
  4  7  1  0  0  0  0
  5 14  1  6  0  0  0
  5 16  1  0  0  0  0
  5  2  1  0  0  0  0
  6 17  1  0  0  0  0
  7  3  2  0  0  0  0
  8 21  1  1  0  0  0
 10 18  1  0  0  0  0
 11 15  1  0  0  0  0
 12  8  1  0  0  0  0
 13 18  2  0  0  0  0
 13  8  1  0  0  0  0
 15 20  2  0  0  0  0
 16 17  1  6  0  0  0
 16 12  1  0  0  0  0
 19 10  2  0  0  0  0
 20 19  1  0  0  0  0
 21 23  1  0  0  0  0
 23 24  1  0  0  0  0
 23 22  1  1  0  0  0
 25 28  1  0  0  0  0
 25 27  1  0  0  0  0
 26 29  2  0  0  0  0
 26 31  1  0  0  0  0
 29 30  1  0  0  0  0
 30 24  1  0  0  0  0
 30 28  2  0  0  0  0
 31 25  2  0  0  0  0
M  END
>  <MODEL>
1

>  <REMARK>
 VINA RESULT:      -9.3      0.000      0.000
  Name = 
  4 active torsions:
  status: ('A' for Active; 'I' for Inactive)
    1  A    between atoms: N_3  and  C_9
    2  A    between atoms: N_3  and  C_22
    3  A    between atoms: C_9  and  C_23
    4  A    between atoms: C_15  and  C_23
                            x       y       z     vdW  Elec       q    Type
                         _______ _______ _______ _____ _____    ______ ____

>  <TORSDO>
F 4

$$$$
=
 OpenBabel10262419213D

 31 35  0  0  1  0  0  0  0  0999 V2000
  189.8460  177.1300  140.2200 C   0  0  2  0  0  3  0  0  0  0  0  0
  188.0230  177.7950  143.5180 N   0  0  0  0  0  0  0  0  0  0  0  0
  189.0050  177.5890  144.5660 C   0  0  0  0  0  0  0  0  0  0  0  0
  191.4890  177.7820  145.1390 C   0  0  0  0  0  3  0  0  0  0  0  0
  188.4310  177.9650  142.1040 C   0  0  1  0  0  3  0  0  0  0  0  0
  188.6710  177.2960  139.2540 C   0  0  0  0  0  2  0  0  0  0  0  0
  190.2880  177.8710  144.3020 C   0  0  0  0  0  3  0  0  0  0  0  0
  185.6020  178.4850  142.9380 C   0  0  1  0  0  3  0  0  0  0  0  0
  190.6630  176.0880  139.7840 O   0  0  0  0  0  1  0  0  0  0  0  0
  187.1860  177.1930  146.1100 C   0  0  0  0  0  3  0  0  0  0  0  0
  191.6280  177.2560  146.3480 C   0  0  0  0  0  3  0  0  0  0  0  0
  186.2350  179.0300  141.6640 C   0  0  0  0  0  2  0  0  0  0  0  0
  186.6450  177.9960  143.9180 C   0  0  0  0  0  0  0  0  0  0  0  0
  189.3470  176.8310  141.6330 C   0  0  0  0  0  2  0  0  0  0  0  0
  190.6080  176.6290  147.1860 C   0  0  0  0  0  3  0  0  0  0  0  0
  187.2340  178.0210  141.1530 C   0  0  1  0  0  3  0  0  0  0  0  0
  187.7110  178.3760  139.7510 C   0  0  0  0  0  2  0  0  0  0  0  0
  186.2700  177.6740  145.1200 N   0  0  0  0  0  0  0  0  0  0  0  0
  188.5010  177.1520  145.8940 C   0  0  0  0  0  0  0  0  0  0  0  0
  189.2940  176.5940  146.9950 C   0  0  0  0  0  3  0  0  0  0  0  0
  184.7210  179.5550  143.5710 C   0  0  0  0  0  2  0  0  0  0  0  0
  183.2980  179.2260  145.4460 O   0  0  0  0  0  1  0  0  0  0  0  0
  183.4190  178.9600  144.0830 C   0  0  1  0  0  3  0  0  0  0  0  0
  182.2900  179.5460  143.3710 N   0  0  0  0  0  2  0  0  0  0  0  0
  181.4630  177.8570  140.1330 C   0  0  0  0  0  0  0  0  0  0  0  0
  179.4970  177.8890  141.5450 C   0  0  0  0  0  3  0  0  0  0  0  0
  182.0790  177.5130  138.9370 O   0  0  0  0  0  1  0  0  0  0  0  0
  182.1880  178.5160  141.1280 C   0  0  0  0  0  3  0  0  0  0  0  0
  180.2230  178.5490  142.5410 C   0  0  0  0  0  3  0  0  0  0  0  0
  181.5710  178.8650  142.3390 C   0  0  0  0  0  0  0  0  0  0  0  0
  180.1170  177.5420  140.3420 C   0  0  0  0  0  3  0  0  0  0  0  0
  1  9  1  6  0  0  0
  1 14  1  0  0  0  0
  2 13  1  0  0  0  0
  2  3  1  0  0  0  0
  3 19  1  0  0  0  0
  4 11  2  0  0  0  0
  5 14  1  6  0  0  0
  5  2  1  0  0  0  0
  6 17  1  0  0  0  0
  6  1  1  0  0  0  0
  7  3  2  0  0  0  0
  7  4  1  0  0  0  0
  8 21  1  1  0  0  0
  8 13  1  0  0  0  0
 11 15  1  0  0  0  0
 12  8  1  0  0  0  0
 13 18  2  0  0  0  0
 16 17  1  6  0  0  0
 16 12  1  0  0  0  0
 16  5  1  0  0  0  0
 18 10  1  0  0  0  0
 19 10  2  0  0  0  0
 19 20  1  0  0  0  0
 20 15  2  0  0  0  0
 21 23  1  0  0  0  0
 23 22  1  1  0  0  0
 24 23  1  0  0  0  0
 25 31  2  0  0  0  0
 25 28  1  0  0  0  0
 26 29  2  0  0  0  0
 27 25  1  0  0  0  0
 28 30  2  0  0  0  0
 30 29  1  0  0  0  0
 30 24  1  0  0  0  0
 31 26  1  0  0  0  0
M  END
>  <MODEL>
2

>  <REMARK>
 VINA RESULT:      -9.2      2.138      7.737
  Name = 
  4 active torsions:
  status: ('A' for Active; 'I' for Inactive)
    1  A    between atoms: N_3  and  C_9
    2  A    between atoms: N_3  and  C_22
    3  A    between atoms: C_9  and  C_23
    4  A    between atoms: C_15  and  C_23
                            x       y       z     vdW  Elec       q    Type
                         _______ _______ _______ _____ _____    ______ ____

>  <TORSDO>
F 4

$$$$
=
 OpenBabel10262419213D

 31 35  0  0  1  0  0  0  0  0999 V2000
  186.3630  178.0030  146.6090 C   0  0  2  0  0  3  0  0  0  0  0  0
  186.9540  177.9830  142.8290 N   0  0  0  0  0  0  0  0  0  0  0  0
  188.2690  177.4000  142.6320 C   0  0  0  0  0  0  0  0  0  0  0  0
  189.9370  175.7040  143.5670 C   0  0  0  0  0  3  0  0  0  0  0  0
  186.2370  177.8470  144.1170 C   0  0  1  0  0  3  0  0  0  0  0  0
  185.0100  178.7170  146.6400 C   0  0  0  0  0  2  0  0  0  0  0  0
  188.6900  176.4730  143.5030 C   0  0  0  0  0  3  0  0  0  0  0  0
  184.8330  178.9410  141.7080 C   0  0  1  0  0  3  0  0  0  0  0  0
  187.1390  178.4300  147.6850 O   0  0  0  0  0  1  0  0  0  0  0  0
  188.3780  178.5150  140.4890 C   0  0  0  0  0  3  0  0  0  0  0  0
  191.0410  175.8390  142.8440 C   0  0  0  0  0  3  0  0  0  0  0  0
  184.1230  178.3520  142.9210 C   0  0  0  0  0  2  0  0  0  0  0  0
  186.2960  178.5580  141.6730 C   0  0  0  0  0  0  0  0  0  0  0  0
  187.0990  178.2950  145.3010 C   0  0  0  0  0  2  0  0  0  0  0  0
  191.3080  176.7920  141.7670 C   0  0  0  0  0  3  0  0  0  0  0  0
  184.9410  178.6590  144.1530 C   0  0  1  0  0  3  0  0  0  0  0  0
  184.1670  178.3340  145.4230 C   0  0  0  0  0  2  0  0  0  0  0  0
  186.9870  178.8320  140.6070 N   0  0  0  0  0  0  0  0  0  0  0  0
  189.0250  177.8190  141.4240 C   0  0  0  0  0  0  0  0  0  0  0  0
  190.4560  177.6170  141.1690 C   0  0  0  0  0  3  0  0  0  0  0  0
  184.1240  178.4960  140.4340 C   0  0  0  0  0  2  0  0  0  0  0  0
  184.1470  180.3410  138.9350 O   0  0  0  0  0  1  0  0  0  0  0  0
  183.3310  179.6390  139.8220 C   0  0  1  0  0  3  0  0  0  0  0  0
  182.1730  179.1160  139.1080 N   0  0  0  0  0  2  0  0  0  0  0  0
  179.6160  177.7160  141.4580 C   0  0  0  0  0  0  0  0  0  0  0  0
  179.9950  176.1440  139.6560 C   0  0  0  0  0  3  0  0  0  0  0  0
  178.9650  178.0630  142.6340 O   0  0  0  0  0  1  0  0  0  0  0  0
  180.5490  178.5880  140.8920 C   0  0  0  0  0  3  0  0  0  0  0  0
  180.9290  177.0170  139.0900 C   0  0  0  0  0  3  0  0  0  0  0  0
  181.2090  178.2430  139.7030 C   0  0  0  0  0  0  0  0  0  0  0  0
  179.3390  176.4940  140.8390 C   0  0  0  0  0  3  0  0  0  0  0  0
  1  6  1  0  0  0  0
  1  9  1  1  0  0  0
  2  5  1  0  0  0  0
  3  2  1  0  0  0  0
  3  7  2  0  0  0  0
  5 16  1  0  0  0  0
  5 14  1  1  0  0  0
  7  4  1  0  0  0  0
  8 21  1  6  0  0  0
  8 12  1  0  0  0  0
 10 18  1  0  0  0  0
 10 19  2  0  0  0  0
 11  4  2  0  0  0  0
 13  8  1  0  0  0  0
 13  2  1  0  0  0  0
 14  1  1  0  0  0  0
 15 11  1  0  0  0  0
 16 12  1  6  0  0  0
 16 17  1  0  0  0  0
 17  6  1  0  0  0  0
 18 13  2  0  0  0  0
 19  3  1  0  0  0  0
 20 19  1  0  0  0  0
 20 15  2  0  0  0  0
 23 22  1  6  0  0  0
 23 21  1  0  0  0  0
 24 30  1  0  0  0  0
 24 23  1  0  0  0  0
 25 27  1  0  0  0  0
 26 31  1  0  0  0  0
 28 25  1  0  0  0  0
 29 26  2  0  0  0  0
 29 30  1  0  0  0  0
 30 28  2  0  0  0  0
 31 25  2  0  0  0  0
M  END
>  <MODEL>
3

>  <REMARK>
 VINA RESULT:      -9.1      2.425      8.493
  Name = 
  4 active torsions:
  status: ('A' for Active; 'I' for Inactive)
    1  A    between atoms: N_3  and  C_9
    2  A    between atoms: N_3  and  C_22
    3  A    between atoms: C_9  and  C_23
    4  A    between atoms: C_15  and  C_23
                            x       y       z     vdW  Elec       q    Type
                         _______ _______ _______ _____ _____    ______ ____

>  <TORSDO>
F 4

$$$$
=
 OpenBabel10262419213D

 31 35  0  0  1  0  0  0  0  0999 V2000
  186.3790  178.0190  146.6400 C   0  0  2  0  0  3  0  0  0  0  0  0
  186.7430  177.9980  142.8310 N   0  0  0  0  0  0  0  0  0  0  0  0
  188.0380  177.4020  142.5560 C   0  0  0  0  0  0  0  0  0  0  0  0
  189.7420  175.6880  143.3880 C   0  0  0  0  0  3  0  0  0  0  0  0
  186.1030  177.8680  144.1600 C   0  0  1  0  0  3  0  0  0  0  0  0
  185.0380  178.7460  146.7520 C   0  0  0  0  0  2  0  0  0  0  0  0
  188.5020  176.4700  143.3990 C   0  0  0  0  0  3  0  0  0  0  0  0
  184.5690  178.9790  141.8400 C   0  0  1  0  0  3  0  0  0  0  0  0
  187.2230  178.4360  147.6680 O   0  0  0  0  0  1  0  0  0  0  0  0
  188.0300  178.5190  140.4110 C   0  0  0  0  0  3  0  0  0  0  0  0
  190.8020  175.8130  142.6000 C   0  0  0  0  0  3  0  0  0  0  0  0
  183.9270  178.3960  143.0930 C   0  0  0  0  0  2  0  0  0  0  0  0
  186.0230  178.5820  141.7180 C   0  0  0  0  0  0  0  0  0  0  0  0
  187.0390  178.3050  145.2910 C   0  0  0  0  0  2  0  0  0  0  0  0
  191.0130  176.7640  141.5100 C   0  0  0  0  0  3  0  0  0  0  0  0
  184.8200  178.6920  144.2740 C   0  0  1  0  0  3  0  0  0  0  0  0
  184.1200  178.3730  145.5880 C   0  0  0  0  0  2  0  0  0  0  0  0
  186.6520  178.8500  140.6120 N   0  0  0  0  0  0  0  0  0  0  0  0
  188.7250  177.8150  141.3050 C   0  0  0  0  0  0  0  0  0  0  0  0
  190.1360  177.5990  140.9650 C   0  0  0  0  0  3  0  0  0  0  0  0
  183.7810  178.5430  140.6100 C   0  0  0  0  0  2  0  0  0  0  0  0
  184.2950  180.1780  138.9640 O   0  0  0  0  0  1  0  0  0  0  0  0
  183.2850  179.7460  139.8230 C   0  0  1  0  0  3  0  0  0  0  0  0
  182.1070  179.3820  139.0470 N   0  0  0  0  0  2  0  0  0  0  0  0
  180.7560  182.4030  137.2950 C   0  0  0  0  0  0  0  0  0  0  0  0
  180.5800  180.4830  135.8320 C   0  0  0  0  0  3  0  0  0  0  0  0
  180.5590  183.7580  137.5310 O   0  0  0  0  0  1  0  0  0  0  0  0
  181.3270  181.5980  138.2830 C   0  0  0  0  0  3  0  0  0  0  0  0
  181.1520  179.6770  136.8210 C   0  0  0  0  0  3  0  0  0  0  0  0
  181.5300  180.2290  138.0490 C   0  0  0  0  0  0  0  0  0  0  0  0
  180.3820  181.8460  136.0690 C   0  0  0  0  0  3  0  0  0  0  0  0
  1  6  1  0  0  0  0
  1  9  1  1  0  0  0
  2  5  1  0  0  0  0
  3  2  1  0  0  0  0
  3  7  2  0  0  0  0
  4  7  1  0  0  0  0
  5 16  1  0  0  0  0
  5 14  1  1  0  0  0
  8 21  1  6  0  0  0
  8 12  1  0  0  0  0
 10 18  1  0  0  0  0
 10 19  2  0  0  0  0
 11  4  2  0  0  0  0
 13  8  1  0  0  0  0
 13  2  1  0  0  0  0
 14  1  1  0  0  0  0
 15 11  1  0  0  0  0
 16 12  1  6  0  0  0
 16 17  1  0  0  0  0
 17  6  1  0  0  0  0
 18 13  2  0  0  0  0
 19  3  1  0  0  0  0
 20 19  1  0  0  0  0
 20 15  2  0  0  0  0
 23 22  1  6  0  0  0
 23 21  1  0  0  0  0
 24 23  1  0  0  0  0
 25 27  1  0  0  0  0
 25 28  1  0  0  0  0
 26 31  1  0  0  0  0
 26 29  2  0  0  0  0
 29 30  1  0  0  0  0
 30 28  2  0  0  0  0
 30 24  1  0  0  0  0
 31 25  2  0  0  0  0
M  END
>  <MODEL>
4

>  <REMARK>
 VINA RESULT:      -9.1      3.014      9.134
  Name = 
  4 active torsions:
  status: ('A' for Active; 'I' for Inactive)
    1  A    between atoms: N_3  and  C_9
    2  A    between atoms: N_3  and  C_22
    3  A    between atoms: C_9  and  C_23
    4  A    between atoms: C_15  and  C_23
                            x       y       z     vdW  Elec       q    Type
                         _______ _______ _______ _____ _____    ______ ____

>  <TORSDO>
F 4

$$$$
=
 OpenBabel10262419213D

 31 35  0  0  1  0  0  0  0  0999 V2000
  182.4690  176.8780  138.1940 C   0  0  2  0  0  3  0  0  0  0  0  0
  185.4140  178.2510  140.2130 N   0  0  0  0  0  0  0  0  0  0  0  0
  186.5200  178.3670  139.2800 C   0  0  0  0  0  0  0  0  0  0  0  0
  187.1250  178.8290  136.8400 C   0  0  0  0  0  3  0  0  0  0  0  0
  184.0220  178.0820  139.7390 C   0  0  1  0  0  3  0  0  0  0  0  0
  181.4460  176.7340  139.3230 C   0  0  0  0  0  2  0  0  0  0  0  0
  186.2450  178.6410  137.9980 C   0  0  0  0  0  3  0  0  0  0  0  0
  184.5820  178.6440  142.6270 C   0  0  1  0  0  3  0  0  0  0  0  0
  182.3440  175.8040  137.3130 O   0  0  0  0  0  1  0  0  0  0  0  0
  188.0380  178.2750  141.1600 C   0  0  0  0  0  3  0  0  0  0  0  0
  188.4320  178.6300  136.7430 C   0  0  0  0  0  3  0  0  0  0  0  0
  183.2380  178.8850  141.9510 C   0  0  0  0  0  2  0  0  0  0  0  0
  185.6950  178.4720  141.6180 C   0  0  0  0  0  0  0  0  0  0  0  0
  183.8910  176.9160  138.7540 C   0  0  0  0  0  2  0  0  0  0  0  0
  189.3600  178.1810  137.7800 C   0  0  0  0  0  3  0  0  0  0  0  0
  183.0400  177.8340  140.8860 C   0  0  1  0  0  3  0  0  0  0  0  0
  181.6140  177.8520  140.3510 C   0  0  0  0  0  2  0  0  0  0  0  0
  186.9230  178.4430  142.0420 N   0  0  0  0  0  0  0  0  0  0  0  0
  187.8930  178.2500  139.8350 C   0  0  0  0  0  0  0  0  0  0  0  0
  189.1310  178.0290  139.0790 C   0  0  0  0  0  3  0  0  0  0  0  0
  184.8870  179.7910  143.5840 C   0  0  0  0  0  2  0  0  0  0  0  0
  183.6210  179.0650  145.4590 O   0  0  0  0  0  1  0  0  0  0  0  0
  184.9230  179.3070  145.0240 C   0  0  1  0  0  3  0  0  0  0  0  0
  185.7030  178.0790  145.1190 N   0  0  0  0  0  2  0  0  0  0  0  0
  189.1760  177.3240  146.2970 C   0  0  0  0  0  0  0  0  0  0  0  0
  187.8620  178.1480  148.1540 C   0  0  0  0  0  3  0  0  0  0  0  0
  190.3800  176.8480  145.7920 O   0  0  0  0  0  1  0  0  0  0  0  0
  188.0700  177.4580  145.4540 C   0  0  0  0  0  3  0  0  0  0  0  0
  186.7540  178.2820  147.3120 C   0  0  0  0  0  3  0  0  0  0  0  0
  186.8520  177.9400  145.9590 C   0  0  0  0  0  0  0  0  0  0  0  0
  189.0730  177.6700  147.6460 C   0  0  0  0  0  3  0  0  0  0  0  0
  1  9  1  6  0  0  0
  1 14  1  0  0  0  0
  1  6  1  0  0  0  0
  2 13  1  0  0  0  0
  3 19  1  0  0  0  0
  3  2  1  0  0  0  0
  4  7  1  0  0  0  0
  5 14  1  6  0  0  0
  5  2  1  0  0  0  0
  5 16  1  0  0  0  0
  6 17  1  0  0  0  0
  7  3  2  0  0  0  0
  8 21  1  1  0  0  0
 10 18  1  0  0  0  0
 11  4  2  0  0  0  0
 11 15  1  0  0  0  0
 12  8  1  0  0  0  0
 13 18  2  0  0  0  0
 13  8  1  0  0  0  0
 15 20  2  0  0  0  0
 16 17  1  6  0  0  0
 16 12  1  0  0  0  0
 19 10  2  0  0  0  0
 20 19  1  0  0  0  0
 21 23  1  0  0  0  0
 23 24  1  0  0  0  0
 23 22  1  6  0  0  0
 24 30  1  0  0  0  0
 25 31  1  0  0  0  0
 27 25  1  0  0  0  0
 28 30  1  0  0  0  0
 28 25  2  0  0  0  0
 29 26  1  0  0  0  0
 30 29  2  0  0  0  0
 31 26  2  0  0  0  0
M  END
>  <MODEL>
5

>  <REMARK>
 VINA RESULT:      -9.0      1.846      4.747
  Name = 
  4 active torsions:
  status: ('A' for Active; 'I' for Inactive)
    1  A    between atoms: N_3  and  C_9
    2  A    between atoms: N_3  and  C_22
    3  A    between atoms: C_9  and  C_23
    4  A    between atoms: C_15  and  C_23
                            x       y       z     vdW  Elec       q    Type
                         _______ _______ _______ _____ _____    ______ ____

>  <TORSDO>
F 4

$$$$
=
 OpenBabel10262419213D

 31 35  0  0  1  0  0  0  0  0999 V2000
  192.1520  177.0230  140.2500 C   0  0  2  0  0  3  0  0  0  0  0  0
  188.3890  177.5490  139.7990 N   0  0  0  0  0  0  0  0  0  0  0  0
  188.1010  177.2140  138.4160 C   0  0  0  0  0  0  0  0  0  0  0  0
  188.7930  175.7120  136.4670 C   0  0  0  0  0  3  0  0  0  0  0  0
  189.6630  177.1470  140.4390 C   0  0  1  0  0  3  0  0  0  0  0  0
  192.2930  177.5000  141.6980 C   0  0  0  0  0  2  0  0  0  0  0  0
  188.8440  176.2710  137.8220 C   0  0  0  0  0  3  0  0  0  0  0  0
  187.4300  178.2770  142.0840 C   0  0  1  0  0  3  0  0  0  0  0  0
  193.2600  177.4390  139.5140 O   0  0  0  0  0  1  0  0  0  0  0  0
  186.1110  178.5800  138.5620 C   0  0  0  0  0  3  0  0  0  0  0  0
  188.0750  176.1100  135.4260 C   0  0  0  0  0  3  0  0  0  0  0  0
  188.5720  177.4410  142.6470 C   0  0  0  0  0  2  0  0  0  0  0  0
  187.3240  178.1430  140.5810 C   0  0  0  0  0  0  0  0  0  0  0  0
  190.8790  177.5840  139.6170 C   0  0  0  0  0  2  0  0  0  0  0  0
  187.1190  177.2140  135.3520 C   0  0  0  0  0  3  0  0  0  0  0  0
  189.8190  177.7270  141.8460 C   0  0  1  0  0  3  0  0  0  0  0  0
  191.0520  177.1320  142.5110 C   0  0  0  0  0  2  0  0  0  0  0  0
  186.2890  178.6500  139.9810 N   0  0  0  0  0  0  0  0  0  0  0  0
  186.9420  177.8910  137.7800 C   0  0  0  0  0  0  0  0  0  0  0  0
  186.6410  177.9550  136.3450 C   0  0  0  0  0  3  0  0  0  0  0  0
  186.1220  177.8780  142.7580 C   0  0  0  0  0  2  0  0  0  0  0  0
  184.7550  178.8610  144.4350 O   0  0  0  0  0  1  0  0  0  0  0  0
  186.0510  178.4180  144.1780 C   0  0  1  0  0  3  0  0  0  0  0  0
  186.4050  177.3700  145.1270 N   0  0  0  0  0  2  0  0  0  0  0  0
  189.6460  177.3010  147.0000 C   0  0  0  0  0  0  0  0  0  0  0  0
  187.9330  178.2820  148.4000 C   0  0  0  0  0  3  0  0  0  0  0  0
  190.9620  176.8970  146.8130 O   0  0  0  0  0  1  0  0  0  0  0  0
  188.7120  177.1310  145.9750 C   0  0  0  0  0  3  0  0  0  0  0  0
  186.9970  178.1130  147.3750 C   0  0  0  0  0  3  0  0  0  0  0  0
  187.3820  177.5380  146.1580 C   0  0  0  0  0  0  0  0  0  0  0  0
  189.2580  177.8770  148.2120 C   0  0  0  0  0  3  0  0  0  0  0  0
  1  9  1  6  0  0  0
  1  6  1  0  0  0  0
  2  5  1  0  0  0  0
  2 13  1  0  0  0  0
  3  2  1  0  0  0  0
  4  7  1  0  0  0  0
  5 14  1  6  0  0  0
  5 16  1  0  0  0  0
  6 17  1  0  0  0  0
  7  3  2  0  0  0  0
  8 12  1  0  0  0  0
  8 21  1  1  0  0  0
 10 18  1  0  0  0  0
 11  4  2  0  0  0  0
 13  8  1  0  0  0  0
 14  1  1  0  0  0  0
 15 11  1  0  0  0  0
 15 20  2  0  0  0  0
 16 17  1  1  0  0  0
 16 12  1  0  0  0  0
 18 13  2  0  0  0  0
 19  3  1  0  0  0  0
 19 10  2  0  0  0  0
 20 19  1  0  0  0  0
 21 23  1  0  0  0  0
 23 22  1  1  0  0  0
 23 24  1  0  0  0  0
 24 30  1  0  0  0  0
 25 31  1  0  0  0  0
 27 25  1  0  0  0  0
 28 30  1  0  0  0  0
 28 25  2  0  0  0  0
 29 26  1  0  0  0  0
 30 29  2  0  0  0  0
 31 26  2  0  0  0  0
M  END
>  <MODEL>
6

>  <REMARK>
 VINA RESULT:      -8.9      3.225      5.004
  Name = 
  4 active torsions:
  status: ('A' for Active; 'I' for Inactive)
    1  A    between atoms: N_3  and  C_9
    2  A    between atoms: N_3  and  C_22
    3  A    between atoms: C_9  and  C_23
    4  A    between atoms: C_15  and  C_23
                            x       y       z     vdW  Elec       q    Type
                         _______ _______ _______ _____ _____    ______ ____

>  <TORSDO>
F 4

$$$$
=
 OpenBabel10262419213D

 31 35  0  0  1  0  0  0  0  0999 V2000
  190.3770  177.1740  146.2080 C   0  0  2  0  0  3  0  0  0  0  0  0
  187.8180  177.8220  143.4390 N   0  0  0  0  0  0  0  0  0  0  0  0
  188.5200  177.6080  142.1870 C   0  0  0  0  0  0  0  0  0  0  0  0
  190.3750  176.2550  141.0630 C   0  0  0  0  0  3  0  0  0  0  0  0
  188.3720  177.3390  144.7240 C   0  0  1  0  0  3  0  0  0  0  0  0
  189.5160  177.5260  147.4230 C   0  0  0  0  0  2  0  0  0  0  0  0
  189.5040  176.7000  142.1560 C   0  0  0  0  0  3  0  0  0  0  0  0
  185.5690  178.3820  144.5790 C   0  0  1  0  0  3  0  0  0  0  0  0
  191.6800  177.6220  146.4150 O   0  0  0  0  0  1  0  0  0  0  0  0
  186.8740  179.0030  141.0940 C   0  0  0  0  0  3  0  0  0  0  0  0
  190.5020  176.7530  139.8400 C   0  0  0  0  0  3  0  0  0  0  0  0
  186.0910  177.4770  145.6870 C   0  0  0  0  0  2  0  0  0  0  0  0
  186.4800  178.3750  143.3720 C   0  0  0  0  0  0  0  0  0  0  0  0
  189.8120  177.8140  144.9400 C   0  0  0  0  0  2  0  0  0  0  0  0
  189.7900  177.8820  139.2430 C   0  0  0  0  0  3  0  0  0  0  0  0
  187.5460  177.7990  145.9270 C   0  0  1  0  0  3  0  0  0  0  0  0
  188.0610  177.1220  147.1900 C   0  0  0  0  0  2  0  0  0  0  0  0
  186.0750  178.9530  142.2810 N   0  0  0  0  0  0  0  0  0  0  0  0
  188.0390  178.3620  141.0000 C   0  0  0  0  0  0  0  0  0  0  0  0
  188.7510  178.5500  139.7300 C   0  0  0  0  0  3  0  0  0  0  0  0
  184.1550  177.9600  144.1950 C   0  0  0  0  0  2  0  0  0  0  0  0
  183.4900  180.2310  143.9690 O   0  0  0  0  0  1  0  0  0  0  0  0
  183.1420  179.0270  144.5790 C   0  0  1  0  0  3  0  0  0  0  0  0
  181.8090  178.6280  144.1440 N   0  0  0  0  0  2  0  0  0  0  0  0
  181.0500  179.1130  140.5100 C   0  0  0  0  0  0  0  0  0  0  0  0
  179.5540  180.4830  141.8310 C   0  0  0  0  0  3  0  0  0  0  0  0
  181.4950  178.6660  139.2720 O   0  0  0  0  0  1  0  0  0  0  0  0
  181.6520  178.6420  141.6800 C   0  0  0  0  0  3  0  0  0  0  0  0
  180.1560  180.0120  143.0020 C   0  0  0  0  0  3  0  0  0  0  0  0
  181.2060  179.0890  142.9330 C   0  0  0  0  0  0  0  0  0  0  0  0
  180.0010  180.0320  140.5850 C   0  0  0  0  0  3  0  0  0  0  0  0
  1  9  1  1  0  0  0
  1  6  1  0  0  0  0
  2  5  1  0  0  0  0
  3  2  1  0  0  0  0
  4  7  1  0  0  0  0
  5 14  1  1  0  0  0
  5 16  1  0  0  0  0
  7  3  2  0  0  0  0
  8 21  1  6  0  0  0
  8 12  1  0  0  0  0
 10 18  1  0  0  0  0
 11  4  2  0  0  0  0
 13  2  1  0  0  0  0
 13  8  1  0  0  0  0
 14  1  1  0  0  0  0
 15 20  2  0  0  0  0
 15 11  1  0  0  0  0
 16 12  1  6  0  0  0
 16 17  1  0  0  0  0
 17  6  1  0  0  0  0
 18 13  2  0  0  0  0
 19 10  2  0  0  0  0
 19  3  1  0  0  0  0
 20 19  1  0  0  0  0
 21 23  1  0  0  0  0
 23 22  1  6  0  0  0
 24 23  1  0  0  0  0
 25 31  2  0  0  0  0
 25 28  1  0  0  0  0
 26 29  2  0  0  0  0
 27 25  1  0  0  0  0
 28 30  2  0  0  0  0
 30 29  1  0  0  0  0
 30 24  1  0  0  0  0
 31 26  1  0  0  0  0
M  END
>  <MODEL>
7

>  <REMARK>
 VINA RESULT:      -8.7      2.002      7.773
  Name = 
  4 active torsions:
  status: ('A' for Active; 'I' for Inactive)
    1  A    between atoms: N_3  and  C_9
    2  A    between atoms: N_3  and  C_22
    3  A    between atoms: C_9  and  C_23
    4  A    between atoms: C_15  and  C_23
                            x       y       z     vdW  Elec       q    Type
                         _______ _______ _______ _____ _____    ______ ____

>  <TORSDO>
F 4

$$$$
=
 OpenBabel10262419213D

 31 35  0  0  1  0  0  0  0  0999 V2000
  185.7630  178.5830  139.8420 C   0  0  2  0  0  3  0  0  0  0  0  0
  189.2500  177.4460  140.9320 N   0  0  0  0  0  0  0  0  0  0  0  0
  189.2310  177.4320  142.3830 C   0  0  0  0  0  0  0  0  0  0  0  0
  187.7450  177.0430  144.4260 C   0  0  0  0  0  3  0  0  0  0  0  0
  187.9960  177.5010  140.1460 C   0  0  1  0  0  3  0  0  0  0  0  0
  185.9840  178.6300  138.3280 C   0  0  0  0  0  2  0  0  0  0  0  0
  188.0780  177.1470  143.0020 C   0  0  0  0  0  3  0  0  0  0  0  0
  190.6120  176.9650  138.7900 C   0  0  1  0  0  3  0  0  0  0  0  0
  184.9520  179.6490  140.2270 O   0  0  0  0  0  1  0  0  0  0  0  0
  191.6400  177.6370  142.3570 C   0  0  0  0  0  3  0  0  0  0  0  0
  188.4860  177.3520  145.4820 C   0  0  0  0  0  3  0  0  0  0  0  0
  189.2520  176.6170  138.1990 C   0  0  0  0  0  2  0  0  0  0  0  0
  190.5250  177.2380  140.2750 C   0  0  0  0  0  0  0  0  0  0  0  0
  187.0960  178.6590  140.5860 C   0  0  0  0  0  2  0  0  0  0  0  0
  189.8530  177.8700  145.5100 C   0  0  0  0  0  3  0  0  0  0  0  0
  188.2520  177.6550  138.6460 C   0  0  1  0  0  3  0  0  0  0  0  0
  186.9400  177.5220  137.8860 C   0  0  0  0  0  2  0  0  0  0  0  0
  191.6270  177.3680  140.9520 N   0  0  0  0  0  0  0  0  0  0  0  0
  190.5220  177.6600  143.0830 C   0  0  0  0  0  0  0  0  0  0  0  0
  190.7070  177.9910  144.5010 C   0  0  0  0  0  3  0  0  0  0  0  0
  191.5990  175.8400  138.5020 C   0  0  0  0  0  2  0  0  0  0  0  0
  193.5680  177.1220  138.1430 O   0  0  0  0  0  1  0  0  0  0  0  0
  192.6570  176.2830  137.5030 C   0  0  1  0  0  3  0  0  0  0  0  0
  193.3570  175.1210  136.9710 N   0  0  0  0  0  2  0  0  0  0  0  0
  197.0870  174.9520  136.6830 C   0  0  0  0  0  0  0  0  0  0  0  0
  196.3860  173.8060  138.6960 C   0  0  0  0  0  3  0  0  0  0  0  0
  198.0970  175.3730  135.8280 O   0  0  0  0  0  1  0  0  0  0  0  0
  195.7540  175.2530  136.3900 C   0  0  0  0  0  3  0  0  0  0  0  0
  195.0520  174.1060  138.4030 C   0  0  0  0  0  3  0  0  0  0  0  0
  194.7290  174.8320  137.2510 C   0  0  0  0  0  0  0  0  0  0  0  0
  197.4030  174.2300  137.8360 C   0  0  0  0  0  3  0  0  0  0  0  0
  1  9  1  1  0  0  0
  1 14  1  0  0  0  0
  2  3  1  0  0  0  0
  3  7  2  0  0  0  0
  3 19  1  0  0  0  0
  4 11  2  0  0  0  0
  5 14  1  1  0  0  0
  5  2  1  0  0  0  0
  6  1  1  0  0  0  0
  7  4  1  0  0  0  0
  8 21  1  1  0  0  0
  8 13  1  0  0  0  0
 10 19  2  0  0  0  0
 11 15  1  0  0  0  0
 12 16  1  0  0  0  0
 12  8  1  0  0  0  0
 13  2  1  0  0  0  0
 13 18  2  0  0  0  0
 16 17  1  6  0  0  0
 16  5  1  0  0  0  0
 17  6  1  0  0  0  0
 18 10  1  0  0  0  0
 19 20  1  0  0  0  0
 20 15  2  0  0  0  0
 23 22  1  1  0  0  0
 23 21  1  0  0  0  0
 24 30  1  0  0  0  0
 24 23  1  0  0  0  0
 25 31  1  0  0  0  0
 27 25  1  0  0  0  0
 28 25  2  0  0  0  0
 28 30  1  0  0  0  0
 29 26  1  0  0  0  0
 30 29  2  0  0  0  0
 31 26  2  0  0  0  0
M  END
>  <MODEL>
8

>  <REMARK>
 VINA RESULT:      -8.7      5.769      8.768
  Name = 
  4 active torsions:
  status: ('A' for Active; 'I' for Inactive)
    1  A    between atoms: N_3  and  C_9
    2  A    between atoms: N_3  and  C_22
    3  A    between atoms: C_9  and  C_23
    4  A    between atoms: C_15  and  C_23
                            x       y       z     vdW  Elec       q    Type
                         _______ _______ _______ _____ _____    ______ ____

>  <TORSDO>
F 4

$$$$
=
 OpenBabel10262419213D

 31 35  0  0  1  0  0  0  0  0999 V2000
  191.3380  175.6730  136.3710 C   0  0  2  0  0  3  0  0  0  0  0  0
  188.1410  176.9500  138.0400 N   0  0  0  0  0  0  0  0  0  0  0  0
  187.0430  176.4700  137.2210 C   0  0  0  0  0  0  0  0  0  0  0  0
  186.2750  174.5570  135.7100 C   0  0  0  0  0  3  0  0  0  0  0  0
  189.5020  176.3810  137.9120 C   0  0  1  0  0  3  0  0  0  0  0  0
  192.3710  176.3320  137.2870 C   0  0  0  0  0  2  0  0  0  0  0  0
  187.1880  175.3010  136.5830 C   0  0  0  0  0  3  0  0  0  0  0  0
  188.8390  178.2340  140.1690 C   0  0  1  0  0  3  0  0  0  0  0  0
  191.7960  175.7040  135.0550 O   0  0  0  0  0  1  0  0  0  0  0  0
  185.6750  178.2530  138.1150 C   0  0  0  0  0  3  0  0  0  0  0  0
  185.1060  174.9320  135.2090 C   0  0  0  0  0  3  0  0  0  0  0  0
  190.0150  177.2650  140.1720 C   0  0  0  0  0  2  0  0  0  0  0  0
  187.8280  177.8870  139.1000 C   0  0  0  0  0  0  0  0  0  0  0  0
  189.9940  176.3960  136.4620 C   0  0  0  0  0  2  0  0  0  0  0  0
  184.3980  176.1960  135.4080 C   0  0  0  0  0  3  0  0  0  0  0  0
  190.5310  177.1310  138.7600 C   0  0  1  0  0  3  0  0  0  0  0  0
  191.8600  176.3890  138.7260 C   0  0  0  0  0  2  0  0  0  0  0  0
  186.6870  178.5100  139.0940 N   0  0  0  0  0  0  0  0  0  0  0  0
  185.7960  177.2780  137.2130 C   0  0  0  0  0  0  0  0  0  0  0  0
  184.6880  177.1760  136.2560 C   0  0  0  0  0  3  0  0  0  0  0  0
  188.1880  178.2530  141.5480 C   0  0  0  0  0  2  0  0  0  0  0  0
  189.7550  178.6090  143.2980 O   0  0  0  0  0  1  0  0  0  0  0  0
  189.0900  177.6100  142.5890 C   0  0  1  0  0  3  0  0  0  0  0  0
  188.2950  176.8060  143.5090 N   0  0  0  0  0  2  0  0  0  0  0  0
  186.0900  178.3830  146.0910 C   0  0  0  0  0  0  0  0  0  0  0  0
  188.1450  177.6470  147.1350 C   0  0  0  0  0  3  0  0  0  0  0  0
  184.8420  178.9860  146.1840 O   0  0  0  0  0  1  0  0  0  0  0  0
  186.5450  177.9070  144.8590 C   0  0  0  0  0  3  0  0  0  0  0  0
  188.6010  177.1700  145.9020 C   0  0  0  0  0  3  0  0  0  0  0  0
  187.8040  177.2960  144.7590 C   0  0  0  0  0  0  0  0  0  0  0  0
  186.8890  178.2530  147.2290 C   0  0  0  0  0  3  0  0  0  0  0  0
  1  9  1  6  0  0  0
  1 14  1  0  0  0  0
  1  6  1  0  0  0  0
  2 13  1  0  0  0  0
  3  2  1  0  0  0  0
  4  7  1  0  0  0  0
  5 14  1  6  0  0  0
  5  2  1  0  0  0  0
  5 16  1  0  0  0  0
  6 17  1  0  0  0  0
  7  3  2  0  0  0  0
  8 12  1  0  0  0  0
  8 21  1  1  0  0  0
 10 18  1  0  0  0  0
 11 15  1  0  0  0  0
 11  4  2  0  0  0  0
 13  8  1  0  0  0  0
 15 20  2  0  0  0  0
 16 17  1  1  0  0  0
 16 12  1  0  0  0  0
 18 13  2  0  0  0  0
 19  3  1  0  0  0  0
 19 10  2  0  0  0  0
 20 19  1  0  0  0  0
 21 23  1  0  0  0  0
 23 22  1  1  0  0  0
 23 24  1  0  0  0  0
 24 30  1  0  0  0  0
 25 27  1  0  0  0  0
 25 31  1  0  0  0  0
 26 31  2  0  0  0  0
 28 25  2  0  0  0  0
 29 26  1  0  0  0  0
 30 28  1  0  0  0  0
 30 29  2  0  0  0  0
M  END
>  <MODEL>
9

>  <REMARK>
 VINA RESULT:      -8.7      3.598      5.499
  Name = 
  4 active torsions:
  status: ('A' for Active; 'I' for Inactive)
    1  A    between atoms: N_3  and  C_9
    2  A    between atoms: N_3  and  C_22
    3  A    between atoms: C_9  and  C_23
    4  A    between atoms: C_15  and  C_23
                            x       y       z     vdW  Elec       q    Type
                         _______ _______ _______ _____ _____    ______ ____

>  <TORSDO>
F 4

$$$$
