=
 OpenBabel10262420123D

 27 29  0  0  1  0  0  0  0  0999 V2000
  187.8280  178.0030  142.8450 N   0  0  0  0  0  0  0  0  0  0  0  0
  190.2420  178.4840  143.5500 C   0  0  0  0  0  0  0  0  0  0  0  0
  191.9730  176.0760  142.4820 C   0  0  0  0  0  2  0  0  0  0  0  0
  189.8580  179.2870  144.4390 O   0  0  0  0  0  0  0  0  0  0  0  0
  190.7980  175.6780  143.1980 O   0  0  0  0  0  0  0  0  0  0  0  0
  189.2630  177.6430  142.7510 C   0  0  0  0  0  3  0  0  0  0  0  0
  192.0910  177.5780  142.2190 C   0  0  0  0  0  2  0  0  0  0  0  0
  188.5390  175.3670  142.9820 O   0  0  0  0  0  0  0  0  0  0  0  0
  189.5080  176.1730  142.9690 C   0  0  0  0  0  0  0  0  0  0  0  0
  191.6090  178.3510  143.3090 O   0  0  0  0  0  0  0  0  0  0  0  0
  187.1120  178.1970  141.5660 C   0  0  1  0  0  3  0  0  0  0  0  0
  186.0620  179.2940  141.6960 C   0  0  0  0  0  1  0  0  0  0  0  0
  188.0450  178.5790  140.5120 N   0  0  0  0  0  2  0  0  0  0  0  0
  188.9020  178.9530  137.4120 C   0  0  0  0  0  2  0  0  0  0  0  0
  189.9140  177.9020  137.3130 N   0  0  0  0  0  2  0  0  0  0  0  0
  189.0720  176.7300  139.2900 C   0  0  0  0  0  2  0  0  0  0  0  0
  187.8600  177.6610  139.3980 C   0  0  2  0  0  3  0  0  0  0  0  0
  190.2650  177.4490  138.6590 C   0  0  0  0  0  2  0  0  0  0  0  0
  187.6860  178.4370  138.1240 C   0  0  0  0  0  0  0  0  0  0  0  0
  186.5700  178.7000  137.7090 O   0  0  0  0  0  0  0  0  0  0  0  0
  187.1220  177.1090  143.7810 C   0  0  0  0  0  2  0  0  0  0  0  0
  186.3780  178.8250  147.6520 C   0  0  0  0  0  3  0  0  0  0  0  0
  186.8700  177.7090  145.1330 C   0  0  0  0  0  0  0  0  0  0  0  0
  187.7260  177.4290  146.2050 C   0  0  0  0  0  3  0  0  0  0  0  0
  187.4820  177.9890  147.4630 C   0  0  0  0  0  3  0  0  0  0  0  0
  185.5160  179.0990  146.5860 C   0  0  0  0  0  3  0  0  0  0  0  0
  185.7600  178.5390  145.3280 C   0  0  0  0  0  3  0  0  0  0  0  0
  1 21  1  0  0  0  0
  2  4  2  0  0  0  0
  3  5  1  0  0  0  0
  6  1  1  0  0  0  0
  6  9  1  0  0  0  0
  6  2  1  0  0  0  0
  7  3  1  0  0  0  0
  7 10  1  0  0  0  0
  9  8  2  0  0  0  0
  9  5  1  0  0  0  0
 10  2  1  0  0  0  0
 11 12  1  1  0  0  0
 11  1  1  0  0  0  0
 13 11  1  0  0  0  0
 14 19  1  0  0  0  0
 15 14  1  0  0  0  0
 15 18  1  0  0  0  0
 16 17  1  0  0  0  0
 17 13  1  1  0  0  0
 18 16  1  0  0  0  0
 19 17  1  0  0  0  0
 20 19  2  0  0  0  0
 21 23  1  0  0  0  0
 23 27  2  0  0  0  0
 23 24  1  0  0  0  0
 24 25  2  0  0  0  0
 25 22  1  0  0  0  0
 26 22  2  0  0  0  0
 27 26  1  0  0  0  0
M  END
>  <MODEL>
1

>  <REMARK>
 VINA RESULT:      -6.4      0.000      0.000
  Name = 
  6 active torsions:
  status: ('A' for Active; 'I' for Inactive)
    1  A    between atoms: N_1  and  C_2
    2  A    between atoms: N_1  and  C_15
    3  A    between atoms: N_1  and  C_18
    4  A    between atoms: C_2  and  N_19
    5  A    between atoms: C_9  and  C_15
    6  A    between atoms: C_14  and  N_19
                            x       y       z     vdW  Elec       q    Type
                         _______ _______ _______ _____ _____    ______ ____

>  <TORSDO>
F 6

$$$$
=
 OpenBabel10262420123D

 27 29  0  0  1  0  0  0  0  0999 V2000
  187.9650  178.2580  143.0030 N   0  0  0  0  0  0  0  0  0  0  0  0
  190.4310  178.4390  143.6660 C   0  0  0  0  0  0  0  0  0  0  0  0
  191.8560  175.8890  142.4800 C   0  0  0  0  0  2  0  0  0  0  0  0
  190.1590  179.2480  144.5900 O   0  0  0  0  0  0  0  0  0  0  0  0
  190.6580  175.6010  143.2100 O   0  0  0  0  0  0  0  0  0  0  0  0
  189.3470  177.7410  142.8640 C   0  0  0  0  0  3  0  0  0  0  0  0
  192.1380  177.3760  142.2630 C   0  0  0  0  0  2  0  0  0  0  0  0
  188.3740  175.5550  143.0380 O   0  0  0  0  0  0  0  0  0  0  0  0
  189.4280  176.2470  143.0280 C   0  0  0  0  0  0  0  0  0  0  0  0
  191.7690  178.1600  143.3890 O   0  0  0  0  0  0  0  0  0  0  0  0
  187.2940  178.6910  141.7590 C   0  0  1  0  0  3  0  0  0  0  0  0
  188.0580  178.1980  140.5350 C   0  0  0  0  0  1  0  0  0  0  0  0
  185.9390  178.1570  141.6970 N   0  0  0  0  0  2  0  0  0  0  0  0
  183.1490  178.2940  140.0590 C   0  0  0  0  0  2  0  0  0  0  0  0
  182.2230  178.4800  141.1750 N   0  0  0  0  0  2  0  0  0  0  0  0
  183.9910  179.2580  142.6780 C   0  0  0  0  0  2  0  0  0  0  0  0
  185.0240  179.2790  141.5470 C   0  0  2  0  0  3  0  0  0  0  0  0
  182.9220  178.1940  142.4280 C   0  0  0  0  0  2  0  0  0  0  0  0
  184.3360  179.1980  140.2140 C   0  0  0  0  0  0  0  0  0  0  0  0
  184.7770  179.8090  139.2550 O   0  0  0  0  0  0  0  0  0  0  0  0
  187.1450  177.3490  143.8240 C   0  0  0  0  0  2  0  0  0  0  0  0
  186.6860  178.6080  147.9090 C   0  0  0  0  0  3  0  0  0  0  0  0
  186.9770  177.7880  145.2490 C   0  0  0  0  0  0  0  0  0  0  0  0
  185.9040  178.6070  145.6180 C   0  0  0  0  0  3  0  0  0  0  0  0
  185.7570  179.0150  146.9480 C   0  0  0  0  0  3  0  0  0  0  0  0
  187.7640  177.7970  147.5430 C   0  0  0  0  0  3  0  0  0  0  0  0
  187.9110  177.3900  146.2130 C   0  0  0  0  0  3  0  0  0  0  0  0
  1 21  1  0  0  0  0
  2  4  2  0  0  0  0
  3  5  1  0  0  0  0
  6  1  1  0  0  0  0
  6  9  1  0  0  0  0
  6  2  1  0  0  0  0
  7  3  1  0  0  0  0
  7 10  1  0  0  0  0
  9  8  2  0  0  0  0
  9  5  1  0  0  0  0
 10  2  1  0  0  0  0
 11 12  1  6  0  0  0
 11  1  1  0  0  0  0
 13 11  1  0  0  0  0
 14 19  1  0  0  0  0
 14 15  1  0  0  0  0
 15 18  1  0  0  0  0
 17 13  1  1  0  0  0
 17 16  1  0  0  0  0
 18 16  1  0  0  0  0
 19 17  1  0  0  0  0
 20 19  2  0  0  0  0
 21 23  1  0  0  0  0
 23 24  2  0  0  0  0
 23 27  1  0  0  0  0
 24 25  1  0  0  0  0
 25 22  2  0  0  0  0
 26 22  1  0  0  0  0
 27 26  2  0  0  0  0
M  END
>  <MODEL>
2

>  <REMARK>
 VINA RESULT:      -6.3      1.771      3.350
  Name = 
  6 active torsions:
  status: ('A' for Active; 'I' for Inactive)
    1  A    between atoms: N_1  and  C_2
    2  A    between atoms: N_1  and  C_15
    3  A    between atoms: N_1  and  C_18
    4  A    between atoms: C_2  and  N_19
    5  A    between atoms: C_9  and  C_15
    6  A    between atoms: C_14  and  N_19
                            x       y       z     vdW  Elec       q    Type
                         _______ _______ _______ _____ _____    ______ ____

>  <TORSDO>
F 6

$$$$
=
 OpenBabel10262420123D

 27 29  0  0  1  0  0  0  0  0999 V2000
  187.1280  177.9110  143.2100 N   0  0  0  0  0  0  0  0  0  0  0  0
  188.9210  176.2270  142.4990 C   0  0  0  0  0  0  0  0  0  0  0  0
  190.4830  177.5550  140.1050 C   0  0  0  0  0  2  0  0  0  0  0  0
  188.3010  175.2820  143.0530 O   0  0  0  0  0  0  0  0  0  0  0  0
  189.0590  177.5950  139.9650 O   0  0  0  0  0  0  0  0  0  0  0  0
  188.3290  177.6210  142.3920 C   0  0  0  0  0  3  0  0  0  0  0  0
  190.9850  177.0340  141.4520 C   0  0  0  0  0  2  0  0  0  0  0  0
  187.1870  178.7480  140.6080 O   0  0  0  0  0  0  0  0  0  0  0  0
  188.1640  178.0300  140.9510 C   0  0  0  0  0  0  0  0  0  0  0  0
  190.1780  175.9770  141.9510 O   0  0  0  0  0  0  0  0  0  0  0  0
  187.3220  177.9480  144.6750 C   0  0  1  0  0  3  0  0  0  0  0  0
  186.1200  177.3470  145.3940 C   0  0  0  0  0  1  0  0  0  0  0  0
  188.5080  177.1890  145.0530 N   0  0  0  0  0  2  0  0  0  0  0  0
  190.6570  176.5120  147.3780 C   0  0  0  0  0  2  0  0  0  0  0  0
  191.8940  176.8120  146.6590 N   0  0  0  0  0  2  0  0  0  0  0  0
  190.7400  178.1810  144.9890 C   0  0  0  0  0  2  0  0  0  0  0  0
  189.4130  178.0920  145.7490 C   0  0  2  0  0  3  0  0  0  0  0  0
  191.5970  176.9370  145.2320 C   0  0  0  0  0  2  0  0  0  0  0  0
  189.6460  177.5970  147.1470 C   0  0  0  0  0  0  0  0  0  0  0  0
  188.9780  178.0250  148.0730 O   0  0  0  0  0  0  0  0  0  0  0  0
  186.4060  179.0840  142.6850 C   0  0  0  0  0  2  0  0  0  0  0  0
  182.1340  178.8880  143.1320 C   0  0  0  0  0  3  0  0  0  0  0  0
  184.9150  179.0090  142.8370 C   0  0  0  0  0  0  0  0  0  0  0  0
  184.1270  178.4270  141.8370 C   0  0  0  0  0  3  0  0  0  0  0  0
  182.7380  178.3640  141.9850 C   0  0  0  0  0  3  0  0  0  0  0  0
  182.9170  179.4770  144.1280 C   0  0  0  0  0  3  0  0  0  0  0  0
  184.3060  179.5400  143.9800 C   0  0  0  0  0  3  0  0  0  0  0  0
  1 11  1  0  0  0  0
  2  4  2  0  0  0  0
  3  7  1  0  0  0  0
  5  3  1  0  0  0  0
  5  9  1  0  0  0  0
  6  2  1  0  0  0  0
  6  1  1  0  0  0  0
  7 10  1  0  0  0  0
  8  9  2  0  0  0  0
  9  6  1  0  0  0  0
 10  2  1  0  0  0  0
 11 13  1  0  0  0  0
 11 12  1  1  0  0  0
 15 14  1  0  0  0  0
 16 18  1  0  0  0  0
 16 17  1  0  0  0  0
 17 13  1  6  0  0  0
 17 19  1  0  0  0  0
 18 15  1  0  0  0  0
 19 14  1  0  0  0  0
 19 20  2  0  0  0  0
 21 23  1  0  0  0  0
 21  1  1  0  0  0  0
 22 26  1  0  0  0  0
 23 27  1  0  0  0  0
 24 25  1  0  0  0  0
 24 23  2  0  0  0  0
 25 22  2  0  0  0  0
 27 26  2  0  0  0  0
M  END
>  <MODEL>
3

>  <REMARK>
 VINA RESULT:      -6.1      2.497      5.549
  Name = 
  6 active torsions:
  status: ('A' for Active; 'I' for Inactive)
    1  A    between atoms: N_1  and  C_2
    2  A    between atoms: N_1  and  C_15
    3  A    between atoms: N_1  and  C_18
    4  A    between atoms: C_2  and  N_19
    5  A    between atoms: C_9  and  C_15
    6  A    between atoms: C_14  and  N_19
                            x       y       z     vdW  Elec       q    Type
                         _______ _______ _______ _____ _____    ______ ____

>  <TORSDO>
F 6

$$$$
=
 OpenBabel10262420123D

 27 29  0  0  1  0  0  0  0  0999 V2000
  188.6190  177.1940  139.5180 N   0  0  0  0  0  0  0  0  0  0  0  0
  187.9580  176.0540  137.3220 C   0  0  0  0  0  0  0  0  0  0  0  0
  189.6170  177.4780  135.0500 C   0  0  0  0  0  2  0  0  0  0  0  0
  186.8960  175.6130  137.8320 O   0  0  0  0  0  0  0  0  0  0  0  0
  188.9420  178.3810  135.9340 O   0  0  0  0  0  0  0  0  0  0  0  0
  188.8660  177.0160  138.0670 C   0  0  0  0  0  3  0  0  0  0  0  0
  189.5520  176.0060  135.4600 C   0  0  0  0  0  2  0  0  0  0  0  0
  189.0980  179.4030  137.9780 O   0  0  0  0  0  0  0  0  0  0  0  0
  188.9870  178.3260  137.3320 C   0  0  0  0  0  0  0  0  0  0  0  0
  188.2950  175.6630  136.0280 O   0  0  0  0  0  0  0  0  0  0  0  0
  189.7190  176.8080  140.4260 C   0  0  1  0  0  3  0  0  0  0  0  0
  191.0580  177.3030  139.8940 C   0  0  0  0  0  1  0  0  0  0  0  0
  189.5130  177.3810  141.7500 N   0  0  0  0  0  2  0  0  0  0  0  0
  190.3650  177.4380  144.8740 C   0  0  0  0  0  2  0  0  0  0  0  0
  189.0670  177.1580  145.4840 N   0  0  0  0  0  2  0  0  0  0  0  0
  188.1560  176.2160  143.4160 C   0  0  0  0  0  2  0  0  0  0  0  0
  189.5160  176.2910  142.7150 C   0  0  2  0  0  3  0  0  0  0  0  0
  188.0210  177.3140  144.4730 C   0  0  0  0  0  2  0  0  0  0  0  0
  190.6090  176.5080  143.7220 C   0  0  0  0  0  0  0  0  0  0  0  0
  191.7010  175.9860  143.5700 O   0  0  0  0  0  0  0  0  0  0  0  0
  188.0740  178.5360  139.7960 C   0  0  0  0  0  2  0  0  0  0  0  0
  183.9310  178.5710  140.9420 C   0  0  0  0  0  3  0  0  0  0  0  0
  186.6270  178.5430  140.1900 C   0  0  0  0  0  0  0  0  0  0  0  0
  185.6250  178.4190  139.2190 C   0  0  0  0  0  3  0  0  0  0  0  0
  184.2780  178.4300  139.5950 C   0  0  0  0  0  3  0  0  0  0  0  0
  184.9270  178.7040  141.9120 C   0  0  0  0  0  3  0  0  0  0  0  0
  186.2740  178.6930  141.5370 C   0  0  0  0  0  3  0  0  0  0  0  0
  1 21  1  0  0  0  0
  1 11  1  0  0  0  0
  2  4  2  0  0  0  0
  2  6  1  0  0  0  0
  3  7  1  0  0  0  0
  3  5  1  0  0  0  0
  5  9  1  0  0  0  0
  6  1  1  0  0  0  0
  7 10  1  0  0  0  0
  9  8  2  0  0  0  0
  9  6  1  0  0  0  0
 10  2  1  0  0  0  0
 11 12  1  6  0  0  0
 11 13  1  0  0  0  0
 14 15  1  0  0  0  0
 16 18  1  0  0  0  0
 17 13  1  6  0  0  0
 17 16  1  0  0  0  0
 17 19  1  0  0  0  0
 18 15  1  0  0  0  0
 19 14  1  0  0  0  0
 20 19  2  0  0  0  0
 21 23  1  0  0  0  0
 22 26  1  0  0  0  0
 23 27  1  0  0  0  0
 24 25  1  0  0  0  0
 24 23  2  0  0  0  0
 25 22  2  0  0  0  0
 27 26  2  0  0  0  0
M  END
>  <MODEL>
4

>  <REMARK>
 VINA RESULT:      -6.1      2.190      6.381
  Name = 
  6 active torsions:
  status: ('A' for Active; 'I' for Inactive)
    1  A    between atoms: N_1  and  C_2
    2  A    between atoms: N_1  and  C_15
    3  A    between atoms: N_1  and  C_18
    4  A    between atoms: C_2  and  N_19
    5  A    between atoms: C_9  and  C_15
    6  A    between atoms: C_14  and  N_19
                            x       y       z     vdW  Elec       q    Type
                         _______ _______ _______ _____ _____    ______ ____

>  <TORSDO>
F 6

$$$$
=
 OpenBabel10262420123D

 27 29  0  0  1  0  0  0  0  0999 V2000
  183.1100  177.9170  140.3630 N   0  0  0  0  0  0  0  0  0  0  0  0
  180.6080  177.9910  139.8240 C   0  0  0  0  0  0  0  0  0  0  0  0
  179.6240  174.9960  139.7740 C   0  0  0  0  0  2  0  0  0  0  0  0
  180.7100  179.1500  139.3450 O   0  0  0  0  0  0  0  0  0  0  0  0
  180.8060  175.2350  139.0020 O   0  0  0  0  0  0  0  0  0  0  0  0
  181.8230  177.1890  140.2530 C   0  0  0  0  0  3  0  0  0  0  0  0
  179.1500  176.1840  140.6130 C   0  0  0  0  0  2  0  0  0  0  0  0
  183.0800  175.4640  139.1560 O   0  0  0  0  0  0  0  0  0  0  0  0
  181.9420  175.9170  139.4560 C   0  0  0  0  0  0  0  0  0  0  0  0
  179.3400  177.4220  139.9420 O   0  0  0  0  0  0  0  0  0  0  0  0
  183.7350  178.3460  139.0940 C   0  0  1  0  0  3  0  0  0  0  0  0
  183.7540  179.8660  138.9890 C   0  0  0  0  0  1  0  0  0  0  0  0
  185.1090  177.8650  139.0140 N   0  0  0  0  0  2  0  0  0  0  0  0
  187.7150  176.6430  137.5310 C   0  0  0  0  0  2  0  0  0  0  0  0
  187.0540  175.8610  136.4870 N   0  0  0  0  0  2  0  0  0  0  0  0
  184.9630  177.1170  136.6930 C   0  0  0  0  0  2  0  0  0  0  0  0
  185.5930  178.1190  137.6650 C   0  0  2  0  0  3  0  0  0  0  0  0
  185.6310  175.7460  136.8060 C   0  0  0  0  0  2  0  0  0  0  0  0
  187.0900  178.0040  137.6330 C   0  0  0  0  0  0  0  0  0  0  0  0
  187.7890  178.9960  137.7550 O   0  0  0  0  0  0  0  0  0  0  0  0
  183.0180  178.9950  141.3640 C   0  0  0  0  0  2  0  0  0  0  0  0
  185.3470  178.3070  144.9120 C   0  0  0  0  0  3  0  0  0  0  0  0
  183.8240  178.7530  142.6060 C   0  0  0  0  0  0  0  0  0  0  0  0
  183.2840  179.0260  143.8690 C   0  0  0  0  0  3  0  0  0  0  0  0
  184.0440  178.8010  145.0210 C   0  0  0  0  0  3  0  0  0  0  0  0
  185.8920  178.0420  143.6530 C   0  0  0  0  0  3  0  0  0  0  0  0
  185.1330  178.2670  142.5010 C   0  0  0  0  0  3  0  0  0  0  0  0
  1 21  1  0  0  0  0
  2 10  1  0  0  0  0
  2  6  1  0  0  0  0
  3  7  1  0  0  0  0
  4  2  2  0  0  0  0
  5  9  1  0  0  0  0
  5  3  1  0  0  0  0
  6  1  1  0  0  0  0
  8  9  2  0  0  0  0
  9  6  1  0  0  0  0
 10  7  1  0  0  0  0
 11 12  1  1  0  0  0
 11  1  1  0  0  0  0
 13 11  1  0  0  0  0
 14 19  1  0  0  0  0
 15 18  1  0  0  0  0
 15 14  1  0  0  0  0
 16 18  1  0  0  0  0
 16 17  1  0  0  0  0
 17 13  1  1  0  0  0
 19 17  1  0  0  0  0
 19 20  2  0  0  0  0
 21 23  1  0  0  0  0
 22 25  1  0  0  0  0
 23 24  1  0  0  0  0
 24 25  2  0  0  0  0
 26 22  2  0  0  0  0
 27 23  2  0  0  0  0
 27 26  1  0  0  0  0
M  END
>  <MODEL>
5

>  <REMARK>
 VINA RESULT:      -5.9      4.412      6.871
  Name = 
  6 active torsions:
  status: ('A' for Active; 'I' for Inactive)
    1  A    between atoms: N_1  and  C_2
    2  A    between atoms: N_1  and  C_15
    3  A    between atoms: N_1  and  C_18
    4  A    between atoms: C_2  and  N_19
    5  A    between atoms: C_9  and  C_15
    6  A    between atoms: C_14  and  N_19
                            x       y       z     vdW  Elec       q    Type
                         _______ _______ _______ _____ _____    ______ ____

>  <TORSDO>
F 6

$$$$
=
 OpenBabel10262420123D

 27 29  0  0  1  0  0  0  0  0999 V2000
  184.0540  178.3660  139.7470 N   0  0  0  0  0  0  0  0  0  0  0  0
  181.5500  178.7130  140.1520 C   0  0  0  0  0  0  0  0  0  0  0  0
  180.5690  180.7400  137.9460 C   0  0  0  0  0  2  0  0  0  0  0  0
  181.6500  178.3010  141.3360 O   0  0  0  0  0  0  0  0  0  0  0  0
  181.7470  181.1610  138.6420 O   0  0  0  0  0  0  0  0  0  0  0  0
  182.7680  178.9300  139.2720 C   0  0  0  0  0  3  0  0  0  0  0  0
  180.0970  179.3230  138.2740 C   0  0  0  0  0  2  0  0  0  0  0  0
  184.0220  180.8990  138.7180 O   0  0  0  0  0  0  0  0  0  0  0  0
  182.8850  180.3710  138.8530 C   0  0  0  0  0  0  0  0  0  0  0  0
  180.2840  179.0010  139.6450 O   0  0  0  0  0  0  0  0  0  0  0  0
  184.8870  177.6810  138.7360 C   0  0  1  0  0  3  0  0  0  0  0  0
  184.0910  177.4300  137.4610 C   0  0  0  0  0  1  0  0  0  0  0  0
  186.0500  178.4930  138.3970 N   0  0  0  0  0  2  0  0  0  0  0  0
  188.9430  179.2570  137.1610 C   0  0  0  0  0  2  0  0  0  0  0  0
  189.8060  178.5940  138.1380 N   0  0  0  0  0  2  0  0  0  0  0  0
  188.0080  177.1280  138.9190 C   0  0  0  0  0  2  0  0  0  0  0  0
  187.0560  177.6130  137.8220 C   0  0  2  0  0  3  0  0  0  0  0  0
  189.0060  178.2210  139.3040 C   0  0  0  0  0  2  0  0  0  0  0  0
  187.8210  178.3460  136.7570 C   0  0  0  0  0  0  0  0  0  0  0  0
  187.4930  178.2530  135.5860 O   0  0  0  0  0  0  0  0  0  0  0  0
  184.7990  179.3570  140.5440 C   0  0  0  0  0  2  0  0  0  0  0  0
  186.0040  177.9420  144.4210 C   0  0  0  0  0  3  0  0  0  0  0  0
  185.2270  178.8650  141.8960 C   0  0  0  0  0  0  0  0  0  0  0  0
  186.4740  178.2530  142.0660 C   0  0  0  0  0  3  0  0  0  0  0  0
  186.8640  177.7940  143.3280 C   0  0  0  0  0  3  0  0  0  0  0  0
  184.7550  178.5440  144.2520 C   0  0  0  0  0  3  0  0  0  0  0  0
  184.3650  179.0030  142.9900 C   0  0  0  0  0  3  0  0  0  0  0  0
  1 21  1  0  0  0  0
  2  4  2  0  0  0  0
  3  7  1  0  0  0  0
  3  5  1  0  0  0  0
  5  9  1  0  0  0  0
  6  1  1  0  0  0  0
  6  2  1  0  0  0  0
  7 10  1  0  0  0  0
  8  9  2  0  0  0  0
  9  6  1  0  0  0  0
 10  2  1  0  0  0  0
 11 12  1  6  0  0  0
 11  1  1  0  0  0  0
 13 11  1  0  0  0  0
 14 15  1  0  0  0  0
 15 18  1  0  0  0  0
 16 18  1  0  0  0  0
 17 13  1  1  0  0  0
 17 16  1  0  0  0  0
 19 14  1  0  0  0  0
 19 17  1  0  0  0  0
 20 19  2  0  0  0  0
 21 23  1  0  0  0  0
 23 24  2  0  0  0  0
 23 27  1  0  0  0  0
 24 25  1  0  0  0  0
 25 22  2  0  0  0  0
 26 22  1  0  0  0  0
 27 26  2  0  0  0  0
M  END
>  <MODEL>
6

>  <REMARK>
 VINA RESULT:      -5.9      4.012      6.563
  Name = 
  6 active torsions:
  status: ('A' for Active; 'I' for Inactive)
    1  A    between atoms: N_1  and  C_2
    2  A    between atoms: N_1  and  C_15
    3  A    between atoms: N_1  and  C_18
    4  A    between atoms: C_2  and  N_19
    5  A    between atoms: C_9  and  C_15
    6  A    between atoms: C_14  and  N_19
                            x       y       z     vdW  Elec       q    Type
                         _______ _______ _______ _____ _____    ______ ____

>  <TORSDO>
F 6

$$$$
=
 OpenBabel10262420123D

 27 29  0  0  1  0  0  0  0  0999 V2000
  190.1230  176.4970  137.9670 N   0  0  0  0  0  0  0  0  0  0  0  0
  192.6660  176.5890  138.2470 C   0  0  0  0  0  0  0  0  0  0  0  0
  193.8320  174.2120  136.5360 C   0  0  0  0  0  2  0  0  0  0  0  0
  192.5600  177.2730  139.2970 O   0  0  0  0  0  0  0  0  0  0  0  0
  192.7580  173.8340  137.4050 O   0  0  0  0  0  0  0  0  0  0  0  0
  191.4550  176.0010  137.5450 C   0  0  0  0  0  3  0  0  0  0  0  0
  194.1080  175.7150  136.4670 C   0  0  0  0  0  2  0  0  0  0  0  0
  190.4760  173.8120  137.5930 O   0  0  0  0  0  0  0  0  0  0  0  0
  191.5290  174.4980  137.5040 C   0  0  0  0  0  0  0  0  0  0  0  0
  193.9370  176.3480  137.7270 O   0  0  0  0  0  0  0  0  0  0  0  0
  190.0960  177.4060  139.1320 C   0  0  1  0  0  3  0  0  0  0  0  0
  189.2300  178.6270  138.8440 C   0  0  0  0  0  1  0  0  0  0  0  0
  189.5500  176.7240  140.2990 N   0  0  0  0  0  2  0  0  0  0  0  0
  188.1930  176.4230  143.2230 C   0  0  0  0  0  2  0  0  0  0  0  0
  189.4000  176.3780  144.0470 N   0  0  0  0  0  2  0  0  0  0  0  0
  190.7820  177.3930  142.3000 C   0  0  0  0  0  2  0  0  0  0  0  0
  189.5640  177.6620  141.4110 C   0  0  2  0  0  3  0  0  0  0  0  0
  190.5590  176.1630  143.1810 C   0  0  0  0  0  2  0  0  0  0  0  0
  188.2980  177.5230  142.2080 C   0  0  0  0  0  0  0  0  0  0  0  0
  187.3460  178.2530  141.9870 O   0  0  0  0  0  0  0  0  0  0  0  0
  189.3620  177.0050  136.8100 C   0  0  0  0  0  2  0  0  0  0  0  0
  186.2100  174.3960  135.4900 C   0  0  0  0  0  3  0  0  0  0  0  0
  188.2570  176.0980  136.3540 C   0  0  0  0  0  0  0  0  0  0  0  0
  187.2140  175.7560  137.2230 C   0  0  0  0  0  3  0  0  0  0  0  0
  186.1900  174.9080  136.7900 C   0  0  0  0  0  3  0  0  0  0  0  0
  187.2550  174.7280  134.6220 C   0  0  0  0  0  3  0  0  0  0  0  0
  188.2790  175.5770  135.0550 C   0  0  0  0  0  3  0  0  0  0  0  0
  1 11  1  0  0  0  0
  2  4  2  0  0  0  0
  3  5  1  0  0  0  0
  5  9  1  0  0  0  0
  6  1  1  0  0  0  0
  6  2  1  0  0  0  0
  7  3  1  0  0  0  0
  7 10  1  0  0  0  0
  9  6  1  0  0  0  0
  9  8  2  0  0  0  0
 10  2  1  0  0  0  0
 11 12  1  6  0  0  0
 11 13  1  0  0  0  0
 14 15  1  0  0  0  0
 16 18  1  0  0  0  0
 17 13  1  6  0  0  0
 17 19  1  0  0  0  0
 17 16  1  0  0  0  0
 18 15  1  0  0  0  0
 19 14  1  0  0  0  0
 20 19  2  0  0  0  0
 21  1  1  0  0  0  0
 22 25  1  0  0  0  0
 23 21  1  0  0  0  0
 23 24  1  0  0  0  0
 25 24  2  0  0  0  0
 26 27  1  0  0  0  0
 26 22  2  0  0  0  0
 27 23  2  0  0  0  0
M  END
>  <MODEL>
7

>  <REMARK>
 VINA RESULT:      -5.8      3.603      7.155
  Name = 
  6 active torsions:
  status: ('A' for Active; 'I' for Inactive)
    1  A    between atoms: N_1  and  C_2
    2  A    between atoms: N_1  and  C_15
    3  A    between atoms: N_1  and  C_18
    4  A    between atoms: C_2  and  N_19
    5  A    between atoms: C_9  and  C_15
    6  A    between atoms: C_14  and  N_19
                            x       y       z     vdW  Elec       q    Type
                         _______ _______ _______ _____ _____    ______ ____

>  <TORSDO>
F 6

$$$$
=
 OpenBabel10262420123D

 27 29  0  0  1  0  0  0  0  0999 V2000
  188.4680  177.8380  141.2600 N   0  0  0  0  0  0  0  0  0  0  0  0
  186.1250  178.8690  141.2420 C   0  0  0  0  0  0  0  0  0  0  0  0
  185.0710  178.7250  144.2100 C   0  0  0  0  0  2  0  0  0  0  0  0
  186.0190  178.6940  140.0010 O   0  0  0  0  0  0  0  0  0  0  0  0
  185.6080  177.4910  143.7210 O   0  0  0  0  0  0  0  0  0  0  0  0
  187.3020  178.3280  142.0330 C   0  0  0  0  0  3  0  0  0  0  0  0
  185.2550  179.9230  143.2780 C   0  0  0  0  0  2  0  0  0  0  0  0
  187.5670  176.3550  143.3730 O   0  0  0  0  0  0  0  0  0  0  0  0
  186.8450  177.3470  143.0810 C   0  0  0  0  0  0  0  0  0  0  0  0
  185.1170  179.5640  141.9110 O   0  0  0  0  0  0  0  0  0  0  0  0
  188.3270  177.8310  139.7890 C   0  0  1  0  0  3  0  0  0  0  0  0
  189.2410  178.8730  139.1540 C   0  0  0  0  0  1  0  0  0  0  0  0
  188.6810  176.5240  139.2480 N   0  0  0  0  0  2  0  0  0  0  0  0
  189.5800  174.2960  137.0770 C   0  0  0  0  0  2  0  0  0  0  0  0
  188.3260  174.1590  136.3380 N   0  0  0  0  0  2  0  0  0  0  0  0
  187.4740  176.3120  137.1340 C   0  0  0  0  0  2  0  0  0  0  0  0
  188.8070  176.6570  137.8050 C   0  0  2  0  0  3  0  0  0  0  0  0
  187.2520  174.7990  137.0980 C   0  0  0  0  0  2  0  0  0  0  0  0
  189.8920  175.7460  137.3040 C   0  0  0  0  0  0  0  0  0  0  0  0
  191.0270  176.1650  137.1480 O   0  0  0  0  0  0  0  0  0  0  0  0
  189.7120  178.4770  141.7260 C   0  0  0  0  0  2  0  0  0  0  0  0
  191.5900  176.4820  145.0400 C   0  0  0  0  0  3  0  0  0  0  0  0
  190.3620  177.7830  142.8870 C   0  0  0  0  0  0  0  0  0  0  0  0
  190.3990  178.3920  144.1480 C   0  0  0  0  0  3  0  0  0  0  0  0
  191.0100  177.7410  145.2240 C   0  0  0  0  0  3  0  0  0  0  0  0
  191.5630  175.8760  143.7810 C   0  0  0  0  0  3  0  0  0  0  0  0
  190.9520  176.5270  142.7050 C   0  0  0  0  0  3  0  0  0  0  0  0
  1 21  1  0  0  0  0
  1  6  1  0  0  0  0
  2 10  1  0  0  0  0
  2  6  1  0  0  0  0
  4  2  2  0  0  0  0
  5  3  1  0  0  0  0
  6  9  1  0  0  0  0
  7  3  1  0  0  0  0
  9  8  2  0  0  0  0
  9  5  1  0  0  0  0
 10  7  1  0  0  0  0
 11 12  1  6  0  0  0
 11  1  1  0  0  0  0
 13 11  1  0  0  0  0
 14 19  1  0  0  0  0
 15 14  1  0  0  0  0
 15 18  1  0  0  0  0
 16 17  1  0  0  0  0
 17 13  1  1  0  0  0
 18 16  1  0  0  0  0
 19 17  1  0  0  0  0
 20 19  2  0  0  0  0
 21 23  1  0  0  0  0
 22 25  1  0  0  0  0
 23 24  1  0  0  0  0
 24 25  2  0  0  0  0
 26 22  2  0  0  0  0
 27 23  2  0  0  0  0
 27 26  1  0  0  0  0
M  END
>  <MODEL>
8

>  <REMARK>
 VINA RESULT:      -5.8      2.407      4.682
  Name = 
  6 active torsions:
  status: ('A' for Active; 'I' for Inactive)
    1  A    between atoms: N_1  and  C_2
    2  A    between atoms: N_1  and  C_15
    3  A    between atoms: N_1  and  C_18
    4  A    between atoms: C_2  and  N_19
    5  A    between atoms: C_9  and  C_15
    6  A    between atoms: C_14  and  N_19
                            x       y       z     vdW  Elec       q    Type
                         _______ _______ _______ _____ _____    ______ ____

>  <TORSDO>
F 6

$$$$
=
 OpenBabel10262420123D

 27 29  0  0  1  0  0  0  0  0999 V2000
  181.3840  179.2680  140.8390 N   0  0  0  0  0  0  0  0  0  0  0  0
  180.7840  177.2890  139.3280 C   0  0  0  0  0  0  0  0  0  0  0  0
  183.4290  176.5080  137.8000 C   0  0  0  0  0  2  0  0  0  0  0  0
  179.5600  177.5720  139.3860 O   0  0  0  0  0  0  0  0  0  0  0  0
  183.1230  177.9070  137.7600 O   0  0  0  0  0  0  0  0  0  0  0  0
  181.8460  178.1920  139.9290 C   0  0  0  0  0  3  0  0  0  0  0  0
  182.5220  175.6750  138.7070 C   0  0  0  0  0  2  0  0  0  0  0  0
  183.2820  179.8520  138.9590 O   0  0  0  0  0  0  0  0  0  0  0  0
  182.7940  178.6930  138.8720 C   0  0  0  0  0  0  0  0  0  0  0  0
  181.1740  176.1220  138.6720 O   0  0  0  0  0  0  0  0  0  0  0  0
  180.1910  180.0280  140.4080 C   0  0  1  0  0  3  0  0  0  0  0  0
  179.3610  180.4560  141.6110 C   0  0  0  0  0  1  0  0  0  0  0  0
  180.5860  181.2250  139.6750 N   0  0  0  0  0  2  0  0  0  0  0  0
  180.6930  183.2250  137.1310 C   0  0  0  0  0  2  0  0  0  0  0  0
  180.5840  182.2470  136.0500 N   0  0  0  0  0  2  0  0  0  0  0  0
  179.6530  180.5310  137.5270 C   0  0  0  0  0  2  0  0  0  0  0  0
  179.5470  181.5130  138.6980 C   0  0  2  0  0  3  0  0  0  0  0  0
  180.8050  180.9080  136.5950 C   0  0  0  0  0  2  0  0  0  0  0  0
  179.6900  182.9250  138.2060 C   0  0  0  0  0  0  0  0  0  0  0  0
  179.0470  183.8250  138.7190 O   0  0  0  0  0  0  0  0  0  0  0  0
  181.2970  178.7790  142.2270 C   0  0  0  0  0  2  0  0  0  0  0  0
  185.0210  178.8370  144.3750 C   0  0  0  0  0  3  0  0  0  0  0  0
  182.6000  178.8030  142.9710 C   0  0  0  0  0  0  0  0  0  0  0  0
  183.8100  178.6280  142.2880 C   0  0  0  0  0  3  0  0  0  0  0  0
  185.0200  178.6480  142.9900 C   0  0  0  0  0  3  0  0  0  0  0  0
  183.8140  179.0030  145.0600 C   0  0  0  0  0  3  0  0  0  0  0  0
  182.6040  178.9830  144.3590 C   0  0  0  0  0  3  0  0  0  0  0  0
  1 21  1  0  0  0  0
  2  4  2  0  0  0  0
  2  6  1  0  0  0  0
  3  7  1  0  0  0  0
  5  3  1  0  0  0  0
  5  9  1  0  0  0  0
  6  1  1  0  0  0  0
  9  8  2  0  0  0  0
  9  6  1  0  0  0  0
 10  7  1  0  0  0  0
 10  2  1  0  0  0  0
 11  1  1  0  0  0  0
 11 12  1  1  0  0  0
 13 11  1  0  0  0  0
 14 19  1  0  0  0  0
 15 18  1  0  0  0  0
 15 14  1  0  0  0  0
 16 17  1  0  0  0  0
 17 13  1  1  0  0  0
 18 16  1  0  0  0  0
 19 17  1  0  0  0  0
 19 20  2  0  0  0  0
 21 23  1  0  0  0  0
 22 26  1  0  0  0  0
 23 27  1  0  0  0  0
 24 23  2  0  0  0  0
 24 25  1  0  0  0  0
 25 22  2  0  0  0  0
 27 26  2  0  0  0  0
M  END
>  <MODEL>
9

>  <REMARK>
 VINA RESULT:      -5.7      6.024      8.362
  Name = 
  6 active torsions:
  status: ('A' for Active; 'I' for Inactive)
    1  A    between atoms: N_1  and  C_2
    2  A    between atoms: N_1  and  C_15
    3  A    between atoms: N_1  and  C_18
    4  A    between atoms: C_2  and  N_19
    5  A    between atoms: C_9  and  C_15
    6  A    between atoms: C_14  and  N_19
                            x       y       z     vdW  Elec       q    Type
                         _______ _______ _______ _____ _____    ______ ____

>  <TORSDO>
F 6

$$$$
