=
 OpenBabel10252415003D

 34 40  0  0  1  0  0  0  0  0999 V2000
  188.3800  177.4110  144.9110 C   0  0  0  0  0  0  0  0  0  0  0  0
  190.5310  177.3880  143.7860 C   0  0  0  0  0  3  0  0  0  0  0  0
  188.5070  178.0230  142.5410 C   0  0  0  0  0  0  0  0  0  0  0  0
  188.5210  178.9480  140.1360 C   0  0  1  0  0  3  0  0  0  0  0  0
  190.3770  176.7650  146.1190 C   0  0  0  0  0  3  0  0  0  0  0  0
  191.1420  176.9680  144.9700 C   0  0  0  0  0  3  0  0  0  0  0  0
  189.7930  177.0300  140.5980 C   0  0  0  0  0  0  0  0  0  0  0  0
  189.1450  177.6030  143.7330 C   0  0  0  0  0  0  0  0  0  0  0  0
  189.1830  178.4410  138.8490 C   0  0  0  0  0  2  0  0  0  0  0  0
  188.9980  176.9890  146.0910 C   0  0  0  0  0  3  0  0  0  0  0  0
  187.1190  178.2880  142.5570 C   0  0  0  0  0  0  0  0  0  0  0  0
  187.0120  177.6690  144.9060 C   0  0  0  0  0  3  0  0  0  0  0  0
  190.2000  175.9940  141.1890 O   0  0  0  0  0  0  0  0  0  0  0  0
  187.1340  178.4860  140.1180 N   0  0  0  0  0  2  0  0  0  0  0  0
  186.4620  178.9070  141.3420 C   0  0  1  0  0  3  0  0  0  0  0  0
  189.7660  177.1530  139.1890 N   0  0  0  0  0  0  0  0  0  0  0  0
  189.3090  178.2610  141.2730 C   0  0  2  0  0  3  0  0  0  0  0  0
  186.3910  178.1200  143.7450 C   0  0  0  0  0  3  0  0  0  0  0  0
  190.7370  175.0840  138.6390 O   0  0  0  0  0  0  0  0  0  0  0  0
  189.9640  174.0660  136.2110 O   0  0  0  0  0  1  0  0  0  0  0  0
  190.9750  175.8660  137.4950 C   0  0  1  0  0  0  0  0  0  0  0  0
  190.9760  175.0310  136.2030 C   0  0  1  0  0  3  0  0  0  0  0  0
  189.7220  176.0070  138.2890 C   0  0  2  0  0  3  0  0  0  0  0  0
  193.1810  175.4210  135.8580 C   0  0  0  0  0  2  0  0  0  0  0  0
  193.4480  176.1190  137.1950 C   0  0  0  0  0  2  0  0  0  0  0  0
  192.1720  176.7930  137.6990 C   0  0  0  0  0  2  0  0  0  0  0  0
  192.2240  174.4020  136.0360 O   0  0  0  0  0  0  0  0  0  0  0  0
  182.7530  178.6320  142.1650 C   0  0  0  0  0  0  0  0  0  0  0  0
  182.2660  178.0230  141.0040 C   0  0  0  0  0  3  0  0  0  0  0  0
  184.9970  178.5980  141.2390 C   0  0  0  0  0  0  0  0  0  0  0  0
  183.1400  177.7030  139.9620 C   0  0  0  0  0  3  0  0  0  0  0  0
  184.1160  178.9200  142.2830 C   0  0  0  0  0  3  0  0  0  0  0  0
  184.5040  177.9900  140.0790 C   0  0  0  0  0  3  0  0  0  0  0  0
  181.6580  179.0360  143.4680 Cl  0  0  0  0  0  0  0  0  0  0  0  0
  1 10  2  0  0  0  0
  2  6  1  0  0  0  0
  3 11  2  0  0  0  0
  3  8  1  0  0  0  0
  4  9  1  6  0  0  0
  4 17  1  0  0  0  0
  6  5  2  0  0  0  0
  7 13  2  0  0  0  0
  8  2  2  0  0  0  0
  8  1  1  0  0  0  0
  9 16  1  0  0  0  0
 10  5  1  0  0  0  0
 11 18  1  0  0  0  0
 12  1  1  0  0  0  0
 14  4  1  0  0  0  0
 14 15  1  0  0  0  0
 15 30  1  6  0  0  0
 15 11  1  0  0  0  0
 16  7  1  0  0  0  0
 17  7  1  6  0  0  0
 17  3  1  0  0  0  0
 18 12  2  0  0  0  0
 21 26  1  1  0  0  0
 21 23  1  0  0  0  0
 21 19  1  0  0  0  0
 22 20  1  1  0  0  0
 22 21  1  0  0  0  0
 23 19  1  0  0  0  0
 23 16  1  1  0  0  0
 24 27  1  0  0  0  0
 24 25  1  0  0  0  0
 25 26  1  0  0  0  0
 27 22  1  0  0  0  0
 28 32  1  0  0  0  0
 28 34  1  0  0  0  0
 29 28  2  0  0  0  0
 30 32  2  0  0  0  0
 31 33  2  0  0  0  0
 31 29  1  0  0  0  0
 33 30  1  0  0  0  0
M  END
>  <MODEL>
1

>  <REMARK>
 VINA RESULT:     -10.0      0.000      0.000
  Name = 
  2 active torsions:
  status: ('A' for Active; 'I' for Inactive)
    1  A    between atoms: C_12  and  C_28
    2  A    between atoms: C_17  and  N_29
                            x       y       z     vdW  Elec       q    Type
                         _______ _______ _______ _____ _____    ______ ____

>  <TORSDO>
F 2

$$$$
=
 OpenBabel10252415003D

 34 40  0  0  1  0  0  0  0  0999 V2000
  187.1350  177.8780  143.4700 C   0  0  0  0  0  0  0  0  0  0  0  0
  189.5010  177.7130  142.9520 C   0  0  0  0  0  3  0  0  0  0  0  0
  187.8880  178.2040  141.1600 C   0  0  0  0  0  0  0  0  0  0  0  0
  188.5520  178.8380  138.7520 C   0  0  1  0  0  3  0  0  0  0  0  0
  188.7300  177.3720  145.2200 C   0  0  0  0  0  3  0  0  0  0  0  0
  189.7720  177.4350  144.2940 C   0  0  0  0  0  3  0  0  0  0  0  0
  189.5960  176.9830  139.7440 C   0  0  0  0  0  0  0  0  0  0  0  0
  188.1830  177.9260  142.5170 C   0  0  0  0  0  0  0  0  0  0  0  0
  189.5050  178.1790  137.7480 C   0  0  0  0  0  2  0  0  0  0  0  0
  187.4140  177.5960  144.8100 C   0  0  0  0  0  3  0  0  0  0  0  0
  186.5520  178.4740  140.7860 C   0  0  0  0  0  0  0  0  0  0  0  0
  185.8230  178.1380  143.0810 C   0  0  0  0  0  3  0  0  0  0  0  0
  189.8020  176.0230  140.5340 O   0  0  0  0  0  0  0  0  0  0  0  0
  187.2020  178.3820  138.4280 N   0  0  0  0  0  2  0  0  0  0  0  0
  186.2520  178.9470  139.3800 C   0  0  1  0  0  3  0  0  0  0  0  0
  189.9360  176.9380  138.3720 N   0  0  0  0  0  0  0  0  0  0  0  0
  188.9970  178.2870  140.1260 C   0  0  2  0  0  3  0  0  0  0  0  0
  185.5380  178.4510  141.7550 C   0  0  0  0  0  3  0  0  0  0  0  0
  190.9270  174.8070  138.3410 O   0  0  0  0  0  0  0  0  0  0  0  0
  190.7940  173.5170  135.9230 O   0  0  0  0  0  1  0  0  0  0  0  0
  191.4990  175.4440  137.2270 C   0  0  1  0  0  0  0  0  0  0  0  0
  191.8120  174.4610  136.0850 C   0  0  1  0  0  3  0  0  0  0  0  0
  190.0860  175.6940  137.6270 C   0  0  2  0  0  3  0  0  0  0  0  0
  194.0430  174.7800  136.3140 C   0  0  0  0  0  2  0  0  0  0  0  0
  193.9710  175.6290  137.5870 C   0  0  0  0  0  2  0  0  0  0  0  0
  192.6370  176.3740  137.6450 C   0  0  0  0  0  2  0  0  0  0  0  0
  193.0300  173.8020  136.3360 O   0  0  0  0  0  0  0  0  0  0  0  0
  182.5160  179.2450  138.7040 C   0  0  0  0  0  0  0  0  0  0  0  0
  182.2580  178.0220  138.0770 C   0  0  0  0  0  3  0  0  0  0  0  0
  184.8530  178.6330  138.9360 C   0  0  0  0  0  0  0  0  0  0  0  0
  183.2950  177.1060  137.8790 C   0  0  0  0  0  3  0  0  0  0  0  0
  183.8100  179.5520  139.1320 C   0  0  0  0  0  3  0  0  0  0  0  0
  184.5910  177.4110  138.3070 C   0  0  0  0  0  3  0  0  0  0  0  0
  181.2180  180.3920  138.9510 Cl  0  0  0  0  0  0  0  0  0  0  0  0
  1 10  2  0  0  0  0
  2  6  1  0  0  0  0
  3  8  1  0  0  0  0
  4  9  1  6  0  0  0
  4 17  1  0  0  0  0
  6  5  2  0  0  0  0
  7 13  2  0  0  0  0
  8  2  2  0  0  0  0
  8  1  1  0  0  0  0
  9 16  1  0  0  0  0
 10  5  1  0  0  0  0
 11  3  2  0  0  0  0
 11 18  1  0  0  0  0
 12  1  1  0  0  0  0
 14  4  1  0  0  0  0
 14 15  1  0  0  0  0
 15 30  1  6  0  0  0
 15 11  1  0  0  0  0
 16  7  1  0  0  0  0
 17  7  1  6  0  0  0
 17  3  1  0  0  0  0
 18 12  2  0  0  0  0
 21 23  1  0  0  0  0
 21 26  1  1  0  0  0
 21 19  1  0  0  0  0
 22 20  1  1  0  0  0
 22 27  1  0  0  0  0
 22 21  1  0  0  0  0
 23 19  1  0  0  0  0
 23 16  1  1  0  0  0
 24 27  1  0  0  0  0
 24 25  1  0  0  0  0
 25 26  1  0  0  0  0
 28 34  1  0  0  0  0
 28 32  1  0  0  0  0
 29 28  2  0  0  0  0
 30 32  2  0  0  0  0
 31 29  1  0  0  0  0
 31 33  2  0  0  0  0
 33 30  1  0  0  0  0
M  END
>  <MODEL>
2

>  <REMARK>
 VINA RESULT:      -9.3      1.464      1.900
  Name = 
  2 active torsions:
  status: ('A' for Active; 'I' for Inactive)
    1  A    between atoms: C_12  and  C_28
    2  A    between atoms: C_17  and  N_29
                            x       y       z     vdW  Elec       q    Type
                         _______ _______ _______ _____ _____    ______ ____

>  <TORSDO>
F 2

$$$$
=
 OpenBabel10252415003D

 34 40  0  0  1  0  0  0  0  0999 V2000
  187.5660  177.5070  145.8160 C   0  0  0  0  0  0  0  0  0  0  0  0
  189.8260  177.5290  144.9300 C   0  0  0  0  0  3  0  0  0  0  0  0
  187.9330  178.1030  143.4670 C   0  0  0  0  0  0  0  0  0  0  0  0
  188.1840  179.0110  141.0680 C   0  0  1  0  0  3  0  0  0  0  0  0
  189.4350  176.9210  147.2390 C   0  0  0  0  0  3  0  0  0  0  0  0
  190.3150  177.1340  146.1780 C   0  0  0  0  0  3  0  0  0  0  0  0
  189.4460  177.1290  141.6850 C   0  0  0  0  0  0  0  0  0  0  0  0
  188.4480  177.7090  144.7260 C   0  0  0  0  0  0  0  0  0  0  0  0
  188.9940  178.5100  139.8660 C   0  0  0  0  0  2  0  0  0  0  0  0
  188.0630  177.1090  147.0600 C   0  0  0  0  0  3  0  0  0  0  0  0
  186.5450  178.3330  143.3310 C   0  0  0  0  0  0  0  0  0  0  0  0
  186.2000  177.7300  145.6610 C   0  0  0  0  0  3  0  0  0  0  0  0
  189.8110  176.1080  142.3270 O   0  0  0  0  0  0  0  0  0  0  0  0
  186.8190  178.5140  140.9060 N   0  0  0  0  0  2  0  0  0  0  0  0
  186.0090  178.9260  142.0460 C   0  0  1  0  0  3  0  0  0  0  0  0
  189.5680  177.2400  140.2800 N   0  0  0  0  0  0  0  0  0  0  0  0
  188.8620  178.3520  142.2910 C   0  0  2  0  0  3  0  0  0  0  0  0
  185.6970  178.1560  144.4350 C   0  0  0  0  0  3  0  0  0  0  0  0
  190.6000  176.3330  138.3730 O   0  0  0  0  0  0  0  0  0  0  0  0
  189.3980  174.0730  137.3860 O   0  0  0  0  0  1  0  0  0  0  0  0
  189.2490  176.4220  137.9970 C   0  0  1  0  0  0  0  0  0  0  0  0
  188.8360  175.3010  137.0260 C   0  0  1  0  0  3  0  0  0  0  0  0
  189.6490  176.0860  139.3920 C   0  0  2  0  0  3  0  0  0  0  0  0
  188.4970  176.7770  135.3410 C   0  0  0  0  0  2  0  0  0  0  0  0
  189.0550  178.0060  136.0670 C   0  0  0  0  0  2  0  0  0  0  0  0
  188.8840  177.8450  137.5780 C   0  0  0  0  0  2  0  0  0  0  0  0
  189.2260  175.6310  135.7150 O   0  0  0  0  0  0  0  0  0  0  0  0
  182.2310  178.6320  142.4290 C   0  0  0  0  0  0  0  0  0  0  0  0
  181.8970  177.9310  141.2670 C   0  0  0  0  0  3  0  0  0  0  0  0
  184.5710  178.5790  141.7890 C   0  0  0  0  0  0  0  0  0  0  0  0
  182.8970  177.5550  140.3660 C   0  0  0  0  0  3  0  0  0  0  0  0
  183.5650  178.9570  142.6910 C   0  0  0  0  0  3  0  0  0  0  0  0
  184.2320  177.8790  140.6260 C   0  0  0  0  0  3  0  0  0  0  0  0
  180.9790  179.1050  143.5560 Cl  0  0  0  0  0  0  0  0  0  0  0  0
  1 10  2  0  0  0  0
  2  6  1  0  0  0  0
  3  8  1  0  0  0  0
  4  9  1  6  0  0  0
  4 17  1  0  0  0  0
  6  5  2  0  0  0  0
  7 13  2  0  0  0  0
  8  2  2  0  0  0  0
  8  1  1  0  0  0  0
  9 16  1  0  0  0  0
 10  5  1  0  0  0  0
 11  3  2  0  0  0  0
 11 18  1  0  0  0  0
 12  1  1  0  0  0  0
 14  4  1  0  0  0  0
 14 15  1  0  0  0  0
 15 30  1  6  0  0  0
 15 11  1  0  0  0  0
 16  7  1  0  0  0  0
 17  7  1  6  0  0  0
 17  3  1  0  0  0  0
 18 12  2  0  0  0  0
 19 23  1  0  0  0  0
 21 26  1  6  0  0  0
 21 19  1  0  0  0  0
 21 23  1  0  0  0  0
 22 20  1  1  0  0  0
 22 21  1  0  0  0  0
 23 16  1  1  0  0  0
 24 27  1  0  0  0  0
 24 25  1  0  0  0  0
 25 26  1  0  0  0  0
 27 22  1  0  0  0  0
 28 32  1  0  0  0  0
 28 34  1  0  0  0  0
 29 28  2  0  0  0  0
 30 32  2  0  0  0  0
 31 33  2  0  0  0  0
 31 29  1  0  0  0  0
 33 30  1  0  0  0  0
M  END
>  <MODEL>
3

>  <REMARK>
 VINA RESULT:      -8.8      1.633      1.805
  Name = 
  2 active torsions:
  status: ('A' for Active; 'I' for Inactive)
    1  A    between atoms: C_12  and  C_28
    2  A    between atoms: C_17  and  N_29
                            x       y       z     vdW  Elec       q    Type
                         _______ _______ _______ _____ _____    ______ ____

>  <TORSDO>
F 2

$$$$
=
 OpenBabel10252415003D

 34 40  0  0  1  0  0  0  0  0999 V2000
  182.1310  178.3360  141.7030 C   0  0  0  0  0  0  0  0  0  0  0  0
  183.6830  179.0450  143.4300 C   0  0  0  0  0  3  0  0  0  0  0  0
  184.5040  178.6070  141.1520 C   0  0  0  0  0  0  0  0  0  0  0  0
  186.9040  179.1110  140.3590 C   0  0  1  0  0  3  0  0  0  0  0  0
  181.3400  178.7470  143.9540 C   0  0  0  0  0  3  0  0  0  0  0  0
  182.6340  179.0850  144.3520 C   0  0  0  0  0  3  0  0  0  0  0  0
  186.6180  177.9730  142.3940 C   0  0  0  0  0  0  0  0  0  0  0  0
  183.4530  178.6600  142.0990 C   0  0  0  0  0  0  0  0  0  0  0  0
  188.2710  178.7470  140.9490 C   0  0  0  0  0  2  0  0  0  0  0  0
  181.0880  178.3750  142.6320 C   0  0  0  0  0  3  0  0  0  0  0  0
  184.2080  178.2750  139.8100 C   0  0  0  0  0  0  0  0  0  0  0  0
  181.8600  178.0020  140.3780 C   0  0  0  0  0  3  0  0  0  0  0  0
  186.0710  177.2910  143.3010 O   0  0  0  0  0  0  0  0  0  0  0  0
  186.6020  178.1200  139.3280 N   0  0  0  0  0  2  0  0  0  0  0  0
  185.2880  178.3920  138.7570 C   0  0  1  0  0  3  0  0  0  0  0  0
  187.9930  177.8760  142.0790 N   0  0  0  0  0  0  0  0  0  0  0  0
  185.9240  178.9760  141.5470 C   0  0  2  0  0  3  0  0  0  0  0  0
  182.8850  177.9900  139.4380 C   0  0  0  0  0  3  0  0  0  0  0  0
  188.5490  176.2780  143.7120 O   0  0  0  0  0  0  0  0  0  0  0  0
  190.7610  174.7640  143.1260 O   0  0  0  0  0  1  0  0  0  0  0  0
  189.7640  176.9510  143.4920 C   0  0  1  0  0  0  0  0  0  0  0  0
  190.9850  176.0310  143.6720 C   0  0  1  0  0  3  0  0  0  0  0  0
  188.8000  176.7000  142.3840 C   0  0  2  0  0  3  0  0  0  0  0  0
  191.6830  177.1820  145.4940 C   0  0  0  0  0  2  0  0  0  0  0  0
  190.4510  178.0830  145.6180 C   0  0  0  0  0  2  0  0  0  0  0  0
  189.8040  178.2790  144.2470 C   0  0  0  0  0  2  0  0  0  0  0  0
  191.2970  175.9060  145.0380 O   0  0  0  0  0  0  0  0  0  0  0  0
  185.7920  175.7190  136.0910 C   0  0  0  0  0  0  0  0  0  0  0  0
  184.5950  175.8240  135.3760 C   0  0  0  0  0  3  0  0  0  0  0  0
  185.0610  177.4950  137.5750 C   0  0  0  0  0  0  0  0  0  0  0  0
  183.6310  176.7610  135.7590 C   0  0  0  0  0  3  0  0  0  0  0  0
  186.0250  176.5520  137.1890 C   0  0  0  0  0  3  0  0  0  0  0  0
  183.8630  177.5950  136.8580 C   0  0  0  0  0  3  0  0  0  0  0  0
  186.9970  174.5450  135.6120 Cl  0  0  0  0  0  0  0  0  0  0  0  0
  1  8  1  0  0  0  0
  1 10  2  0  0  0  0
  2  6  1  0  0  0  0
  3  8  1  0  0  0  0
  4  9  1  1  0  0  0
  4 17  1  0  0  0  0
  5  6  2  0  0  0  0
  7 13  2  0  0  0  0
  8  2  2  0  0  0  0
  9 16  1  0  0  0  0
 10  5  1  0  0  0  0
 11  3  2  0  0  0  0
 12  1  1  0  0  0  0
 14  4  1  0  0  0  0
 15 30  1  6  0  0  0
 15 14  1  0  0  0  0
 15 11  1  0  0  0  0
 16  7  1  0  0  0  0
 17  3  1  6  0  0  0
 17  7  1  0  0  0  0
 18 11  1  0  0  0  0
 18 12  2  0  0  0  0
 21 22  1  0  0  0  0
 21 19  1  0  0  0  0
 21 26  1  1  0  0  0
 22 20  1  1  0  0  0
 22 27  1  0  0  0  0
 23 16  1  1  0  0  0
 23 21  1  0  0  0  0
 23 19  1  0  0  0  0
 24 25  1  0  0  0  0
 26 25  1  0  0  0  0
 27 24  1  0  0  0  0
 28 32  1  0  0  0  0
 29 31  1  0  0  0  0
 29 28  2  0  0  0  0
 31 33  2  0  0  0  0
 32 30  2  0  0  0  0
 33 30  1  0  0  0  0
 34 28  1  0  0  0  0
M  END
>  <MODEL>
4

>  <REMARK>
 VINA RESULT:      -8.0      3.778      6.346
  Name = 
  2 active torsions:
  status: ('A' for Active; 'I' for Inactive)
    1  A    between atoms: C_12  and  C_28
    2  A    between atoms: C_17  and  N_29
                            x       y       z     vdW  Elec       q    Type
                         _______ _______ _______ _____ _____    ______ ____

>  <TORSDO>
F 2

$$$$
=
 OpenBabel10252415003D

 34 40  0  0  1  0  0  0  0  0999 V2000
  183.3990  178.4600  141.2250 C   0  0  0  0  0  0  0  0  0  0  0  0
  184.8450  179.1780  143.0390 C   0  0  0  0  0  3  0  0  0  0  0  0
  185.8170  178.6060  140.8520 C   0  0  0  0  0  0  0  0  0  0  0  0
  188.2910  178.9720  140.2320 C   0  0  1  0  0  3  0  0  0  0  0  0
  182.4570  179.0030  143.3890 C   0  0  0  0  0  3  0  0  0  0  0  0
  183.7310  179.3030  143.8730 C   0  0  0  0  0  3  0  0  0  0  0  0
  187.7980  177.9390  142.2820 C   0  0  0  0  0  0  0  0  0  0  0  0
  184.7000  178.7450  141.7110 C   0  0  0  0  0  0  0  0  0  0  0  0
  189.5920  178.5780  140.9410 C   0  0  0  0  0  2  0  0  0  0  0  0
  182.2900  178.5850  142.0670 C   0  0  0  0  0  3  0  0  0  0  0  0
  185.6100  178.2290  139.5060 C   0  0  0  0  0  0  0  0  0  0  0  0
  183.2150  178.0800  139.8980 C   0  0  0  0  0  3  0  0  0  0  0  0
  187.1530  177.3210  143.1700 O   0  0  0  0  0  0  0  0  0  0  0  0
  188.0250  177.9510  139.2200 N   0  0  0  0  0  2  0  0  0  0  0  0
  186.7720  178.2530  138.5370 C   0  0  1  0  0  3  0  0  0  0  0  0
  189.1880  177.7690  142.0810 N   0  0  0  0  0  0  0  0  0  0  0  0
  187.2180  178.9310  141.3420 C   0  0  2  0  0  3  0  0  0  0  0  0
  184.3080  177.9830  139.0430 C   0  0  0  0  0  3  0  0  0  0  0  0
  189.2870  176.0030  143.6280 O   0  0  0  0  0  0  0  0  0  0  0  0
  191.6380  174.5880  143.6010 O   0  0  0  0  0  1  0  0  0  0  0  0
  190.4790  176.7080  143.8670 C   0  0  1  0  0  0  0  0  0  0  0  0
  191.6260  175.7870  144.3190 C   0  0  1  0  0  3  0  0  0  0  0  0
  189.9150  176.5750  142.4950 C   0  0  2  0  0  3  0  0  0  0  0  0
  191.6800  176.7310  146.3780 C   0  0  0  0  0  2  0  0  0  0  0  0
  190.4300  177.5990  146.2080 C   0  0  0  0  0  2  0  0  0  0  0  0
  190.2270  177.9430  144.7320 C   0  0  0  0  0  2  0  0  0  0  0  0
  191.5100  175.5110  145.6940 O   0  0  0  0  0  0  0  0  0  0  0  0
  186.6290  175.0770  136.4390 C   0  0  0  0  0  0  0  0  0  0  0  0
  186.2390  175.5920  135.1990 C   0  0  0  0  0  3  0  0  0  0  0  0
  186.5960  177.3150  137.3780 C   0  0  0  0  0  0  0  0  0  0  0  0
  186.0260  176.9650  135.0480 C   0  0  0  0  0  3  0  0  0  0  0  0
  186.8070  175.9360  137.5280 C   0  0  0  0  0  3  0  0  0  0  0  0
  186.2040  177.8260  136.1360 C   0  0  0  0  0  3  0  0  0  0  0  0
  186.8940  173.3580  136.6290 Cl  0  0  0  0  0  0  0  0  0  0  0  0
  1  8  1  0  0  0  0
  1 10  2  0  0  0  0
  2  6  1  0  0  0  0
  3  8  1  0  0  0  0
  4  9  1  1  0  0  0
  4 17  1  0  0  0  0
  5  6  2  0  0  0  0
  7 13  2  0  0  0  0
  8  2  2  0  0  0  0
  9 16  1  0  0  0  0
 10  5  1  0  0  0  0
 11  3  2  0  0  0  0
 12  1  1  0  0  0  0
 14  4  1  0  0  0  0
 15 30  1  6  0  0  0
 15 14  1  0  0  0  0
 15 11  1  0  0  0  0
 16  7  1  0  0  0  0
 17  3  1  6  0  0  0
 17  7  1  0  0  0  0
 18 11  1  0  0  0  0
 18 12  2  0  0  0  0
 19 21  1  0  0  0  0
 21 22  1  0  0  0  0
 21 26  1  1  0  0  0
 22 20  1  6  0  0  0
 22 27  1  0  0  0  0
 23 16  1  1  0  0  0
 23 19  1  0  0  0  0
 23 21  1  0  0  0  0
 25 24  1  0  0  0  0
 26 25  1  0  0  0  0
 27 24  1  0  0  0  0
 28 34  1  0  0  0  0
 28 32  1  0  0  0  0
 29 28  2  0  0  0  0
 30 32  2  0  0  0  0
 31 29  1  0  0  0  0
 31 33  2  0  0  0  0
 33 30  1  0  0  0  0
M  END
>  <MODEL>
5

>  <REMARK>
 VINA RESULT:      -7.9      3.591      6.281
  Name = 
  2 active torsions:
  status: ('A' for Active; 'I' for Inactive)
    1  A    between atoms: C_12  and  C_28
    2  A    between atoms: C_17  and  N_29
                            x       y       z     vdW  Elec       q    Type
                         _______ _______ _______ _____ _____    ______ ____

>  <TORSDO>
F 2

$$$$
=
 OpenBabel10252415003D

 34 40  0  0  1  0  0  0  0  0999 V2000
  188.5600  177.5010  143.2900 C   0  0  0  0  0  0  0  0  0  0  0  0
  190.7290  177.5010  142.2000 C   0  0  0  0  0  3  0  0  0  0  0  0
  188.7070  178.0270  140.9010 C   0  0  0  0  0  0  0  0  0  0  0  0
  188.7320  178.8630  138.4630 C   0  0  1  0  0  3  0  0  0  0  0  0
  190.5550  176.9620  144.5520 C   0  0  0  0  0  3  0  0  0  0  0  0
  191.3330  177.1450  143.4080 C   0  0  0  0  0  3  0  0  0  0  0  0
  190.0540  177.0030  139.0170 C   0  0  0  0  0  0  0  0  0  0  0  0
  189.3380  177.6720  142.1180 C   0  0  0  0  0  0  0  0  0  0  0  0
  189.4310  178.3280  137.2070 C   0  0  0  0  0  2  0  0  0  0  0  0
  189.1720  177.1420  144.4940 C   0  0  0  0  0  3  0  0  0  0  0  0
  187.3110  178.2500  140.8860 C   0  0  0  0  0  0  0  0  0  0  0  0
  187.1850  177.7160  143.2550 C   0  0  0  0  0  3  0  0  0  0  0  0
  190.4830  176.0030  139.6520 O   0  0  0  0  0  0  0  0  0  0  0  0
  187.3610  178.3580  138.4420 N   0  0  0  0  0  2  0  0  0  0  0  0
  186.6560  178.8020  139.6390 C   0  0  1  0  0  3  0  0  0  0  0  0
  190.0460  177.0720  137.6040 N   0  0  0  0  0  0  0  0  0  0  0  0
  189.5220  178.2420  139.6370 C   0  0  2  0  0  3  0  0  0  0  0  0
  186.5690  178.1040  142.0680 C   0  0  0  0  0  3  0  0  0  0  0  0
  189.0710  176.0320  135.7350 O   0  0  0  0  0  0  0  0  0  0  0  0
  189.7100  173.3810  135.4370 O   0  0  0  0  0  1  0  0  0  0  0  0
  188.7550  175.1600  136.7910 C   0  0  1  0  0  0  0  0  0  0  0  0
  188.6870  173.6910  136.3380 C   0  0  1  0  0  3  0  0  0  0  0  0
  190.0510  175.8920  136.7470 C   0  0  2  0  0  3  0  0  0  0  0  0
  186.4610  173.5850  136.7430 C   0  0  0  0  0  2  0  0  0  0  0  0
  186.2650  175.0750  137.0450 C   0  0  0  0  0  2  0  0  0  0  0  0
  187.5600  175.6730  137.5930 C   0  0  0  0  0  2  0  0  0  0  0  0
  187.4390  173.4270  135.7430 O   0  0  0  0  0  0  0  0  0  0  0  0
  182.9660  178.3410  140.4620 C   0  0  0  0  0  0  0  0  0  0  0  0
  182.4930  177.7820  139.2710 C   0  0  0  0  0  3  0  0  0  0  0  0
  185.2030  178.4450  139.5250 C   0  0  0  0  0  0  0  0  0  0  0  0
  183.3720  177.5560  138.2080 C   0  0  0  0  0  3  0  0  0  0  0  0
  184.3180  178.6730  140.5900 C   0  0  0  0  0  3  0  0  0  0  0  0
  184.7250  177.8870  138.3340 C   0  0  0  0  0  3  0  0  0  0  0  0
  181.8660  178.6270  141.7920 Cl  0  0  0  0  0  0  0  0  0  0  0  0
  1 10  2  0  0  0  0
  2  6  1  0  0  0  0
  3  8  1  0  0  0  0
  4  9  1  6  0  0  0
  4 17  1  0  0  0  0
  6  5  2  0  0  0  0
  7 13  2  0  0  0  0
  8  2  2  0  0  0  0
  8  1  1  0  0  0  0
  9 16  1  0  0  0  0
 10  5  1  0  0  0  0
 11  3  2  0  0  0  0
 11 18  1  0  0  0  0
 12  1  1  0  0  0  0
 14  4  1  0  0  0  0
 14 15  1  0  0  0  0
 15 30  1  6  0  0  0
 15 11  1  0  0  0  0
 16  7  1  0  0  0  0
 17  7  1  6  0  0  0
 17  3  1  0  0  0  0
 18 12  2  0  0  0  0
 19 23  1  0  0  0  0
 19 21  1  0  0  0  0
 21 26  1  1  0  0  0
 22 20  1  6  0  0  0
 22 21  1  0  0  0  0
 23 21  1  0  0  0  0
 23 16  1  1  0  0  0
 24 25  1  0  0  0  0
 25 26  1  0  0  0  0
 27 22  1  0  0  0  0
 27 24  1  0  0  0  0
 28 32  1  0  0  0  0
 28 34  1  0  0  0  0
 29 28  2  0  0  0  0
 30 32  2  0  0  0  0
 31 33  2  0  0  0  0
 31 29  1  0  0  0  0
 33 30  1  0  0  0  0
M  END
>  <MODEL>
6

>  <REMARK>
 VINA RESULT:      -7.8      1.734      2.696
  Name = 
  2 active torsions:
  status: ('A' for Active; 'I' for Inactive)
    1  A    between atoms: C_12  and  C_28
    2  A    between atoms: C_17  and  N_29
                            x       y       z     vdW  Elec       q    Type
                         _______ _______ _______ _____ _____    ______ ____

>  <TORSDO>
F 2

$$$$
=
 OpenBabel10252415003D

 34 40  0  0  1  0  0  0  0  0999 V2000
  188.5940  177.9520  141.4490 C   0  0  0  0  0  0  0  0  0  0  0  0
  190.2770  177.5050  139.7570 C   0  0  0  0  0  3  0  0  0  0  0  0
  187.9500  177.9390  139.0850 C   0  0  0  0  0  0  0  0  0  0  0  0
  187.1830  178.2290  136.6420 C   0  0  1  0  0  3  0  0  0  0  0  0
  190.8830  177.4990  142.1000 C   0  0  0  0  0  3  0  0  0  0  0  0
  191.2400  177.3560  140.7590 C   0  0  0  0  0  3  0  0  0  0  0  0
  188.5700  176.4080  137.1650 C   0  0  0  0  0  0  0  0  0  0  0  0
  188.9420  177.7920  140.0850 C   0  0  0  0  0  0  0  0  0  0  0  0
  187.4110  177.3720  135.3910 C   0  0  0  0  0  2  0  0  0  0  0  0
  189.5630  177.8000  142.4450 C   0  0  0  0  0  3  0  0  0  0  0  0
  186.6350  178.2920  139.4640 C   0  0  0  0  0  0  0  0  0  0  0  0
  187.2910  178.2910  141.8050 C   0  0  0  0  0  3  0  0  0  0  0  0
  189.1620  175.5290  137.8470 O   0  0  0  0  0  0  0  0  0  0  0  0
  185.8710  177.8700  137.1770 N   0  0  0  0  0  2  0  0  0  0  0  0
  185.6160  178.6280  138.3970 C   0  0  1  0  0  3  0  0  0  0  0  0
  188.0940  176.1750  135.8540 N   0  0  0  0  0  0  0  0  0  0  0  0
  188.3040  177.7980  137.6140 C   0  0  2  0  0  3  0  0  0  0  0  0
  186.3260  178.4760  140.8200 C   0  0  0  0  0  3  0  0  0  0  0  0
  186.4560  174.8150  134.8570 O   0  0  0  0  0  0  0  0  0  0  0  0
  187.0390  172.1350  134.8550 O   0  0  0  0  0  1  0  0  0  0  0  0
  186.6800  174.1930  136.0970 C   0  0  1  0  0  0  0  0  0  0  0  0
  186.4980  172.6660  136.0290 C   0  0  1  0  0  3  0  0  0  0  0  0
  187.7860  174.8450  135.3410 C   0  0  2  0  0  3  0  0  0  0  0  0
  184.6820  172.7420  137.3810 C   0  0  0  0  0  2  0  0  0  0  0  0
  184.5590  174.2690  137.4280 C   0  0  0  0  0  2  0  0  0  0  0  0
  185.9310  174.9110  137.2190 C   0  0  0  0  0  2  0  0  0  0  0  0
  185.1310  172.3390  136.1080 O   0  0  0  0  0  0  0  0  0  0  0  0
  181.9770  179.2350  139.3440 C   0  0  0  0  0  0  0  0  0  0  0  0
  181.5590  177.9360  139.6490 C   0  0  0  0  0  3  0  0  0  0  0  0
  184.1990  178.4000  138.8390 C   0  0  0  0  0  0  0  0  0  0  0  0
  182.4580  176.8700  139.5480 C   0  0  0  0  0  3  0  0  0  0  0  0
  183.2940  179.4680  138.9390 C   0  0  0  0  0  3  0  0  0  0  0  0
  183.7760  177.1020  139.1430 C   0  0  0  0  0  3  0  0  0  0  0  0
  180.8510  180.5680  139.4680 Cl  0  0  0  0  0  0  0  0  0  0  0  0
  1 12  1  0  0  0  0
  1 10  2  0  0  0  0
  2  8  2  0  0  0  0
  2  6  1  0  0  0  0
  3 11  2  0  0  0  0
  3  8  1  0  0  0  0
  4  9  1  6  0  0  0
  4 14  1  0  0  0  0
  4 17  1  0  0  0  0
  5 10  1  0  0  0  0
  6  5  2  0  0  0  0
  7 13  2  0  0  0  0
  8  1  1  0  0  0  0
  9 16  1  0  0  0  0
 11 18  1  0  0  0  0
 14 15  1  0  0  0  0
 15 30  1  1  0  0  0
 15 11  1  0  0  0  0
 16  7  1  0  0  0  0
 17  7  1  1  0  0  0
 17  3  1  0  0  0  0
 18 12  2  0  0  0  0
 19 23  1  0  0  0  0
 19 21  1  0  0  0  0
 21 26  1  1  0  0  0
 22 20  1  6  0  0  0
 22 21  1  0  0  0  0
 22 27  1  0  0  0  0
 23 16  1  1  0  0  0
 23 21  1  0  0  0  0
 24 25  1  0  0  0  0
 26 25  1  0  0  0  0
 27 24  1  0  0  0  0
 28 34  1  0  0  0  0
 28 29  1  0  0  0  0
 30 32  1  0  0  0  0
 30 33  2  0  0  0  0
 31 29  2  0  0  0  0
 32 28  2  0  0  0  0
 33 31  1  0  0  0  0
M  END
>  <MODEL>
7

>  <REMARK>
 VINA RESULT:      -7.3      2.939      4.412
  Name = 
  2 active torsions:
  status: ('A' for Active; 'I' for Inactive)
    1  A    between atoms: C_12  and  C_28
    2  A    between atoms: C_17  and  N_29
                            x       y       z     vdW  Elec       q    Type
                         _______ _______ _______ _____ _____    ______ ____

>  <TORSDO>
F 2

$$$$
=
 OpenBabel10252415003D

 34 40  0  0  1  0  0  0  0  0999 V2000
  185.3240  178.0740  144.7720 C   0  0  0  0  0  0  0  0  0  0  0  0
  187.7480  178.1730  144.6730 C   0  0  0  0  0  3  0  0  0  0  0  0
  186.4260  178.4830  142.6210 C   0  0  0  0  0  0  0  0  0  0  0  0
  187.4230  179.1890  140.3520 C   0  0  1  0  0  3  0  0  0  0  0  0
  186.6380  177.7460  146.7800 C   0  0  0  0  0  3  0  0  0  0  0  0
  187.8110  177.9250  146.0460 C   0  0  0  0  0  3  0  0  0  0  0  0
  188.4760  177.4600  141.5430 C   0  0  0  0  0  0  0  0  0  0  0  0
  186.5100  178.2390  144.0130 C   0  0  0  0  0  0  0  0  0  0  0  0
  188.6020  178.6410  139.5400 C   0  0  0  0  0  2  0  0  0  0  0  0
  185.3960  177.8240  146.1460 C   0  0  0  0  0  3  0  0  0  0  0  0
  185.1530  178.6040  142.0180 C   0  0  0  0  0  0  0  0  0  0  0  0
  184.0790  178.1880  144.1590 C   0  0  0  0  0  3  0  0  0  0  0  0
  188.6450  176.5280  142.3730 O   0  0  0  0  0  0  0  0  0  0  0  0
  186.2070  178.5870  139.8090 N   0  0  0  0  0  2  0  0  0  0  0  0
  185.0510  179.0430  140.5730 C   0  0  1  0  0  3  0  0  0  0  0  0
  189.0510  177.4540  140.2510 N   0  0  0  0  0  0  0  0  0  0  0  0
  187.6810  178.6890  141.7920 C   0  0  2  0  0  3  0  0  0  0  0  0
  183.9950  178.4680  142.7980 C   0  0  0  0  0  3  0  0  0  0  0  0
  190.5640  175.6550  140.2400 O   0  0  0  0  0  0  0  0  0  0  0  0
  190.5770  174.1840  137.9240 O   0  0  0  0  0  1  0  0  0  0  0  0
  190.8530  176.3260  139.0400 C   0  0  1  0  0  0  0  0  0  0  0  0
  191.3200  175.3680  137.9290 C   0  0  1  0  0  3  0  0  0  0  0  0
  189.4620  176.2340  139.5650 C   0  0  2  0  0  3  0  0  0  0  0  0
  193.3990  176.2680  137.9160 C   0  0  0  0  0  2  0  0  0  0  0  0
  193.2090  177.1700  139.1400 C   0  0  0  0  0  2  0  0  0  0  0  0
  191.7360  177.5490  139.2890 C   0  0  0  0  0  2  0  0  0  0  0  0
  192.6850  175.0670  138.0940 O   0  0  0  0  0  0  0  0  0  0  0  0
  181.4780  177.8530  140.0030 C   0  0  0  0  0  0  0  0  0  0  0  0
  181.4560  177.7280  138.6100 C   0  0  0  0  0  3  0  0  0  0  0  0
  183.7930  178.5760  139.9000 C   0  0  0  0  0  0  0  0  0  0  0  0
  182.5990  178.0270  137.8630 C   0  0  0  0  0  3  0  0  0  0  0  0
  182.6440  178.2770  140.6480 C   0  0  0  0  0  3  0  0  0  0  0  0
  183.7650  178.4520  138.5070 C   0  0  0  0  0  3  0  0  0  0  0  0
  180.0480  177.4800  140.9380 Cl  0  0  0  0  0  0  0  0  0  0  0  0
  1 10  2  0  0  0  0
  2  6  1  0  0  0  0
  3  8  1  0  0  0  0
  4  9  1  6  0  0  0
  4 17  1  0  0  0  0
  6  5  2  0  0  0  0
  7 13  2  0  0  0  0
  8  2  2  0  0  0  0
  8  1  1  0  0  0  0
  9 16  1  0  0  0  0
 10  5  1  0  0  0  0
 11  3  2  0  0  0  0
 11 18  1  0  0  0  0
 12  1  1  0  0  0  0
 14  4  1  0  0  0  0
 14 15  1  0  0  0  0
 15 30  1  6  0  0  0
 15 11  1  0  0  0  0
 16  7  1  0  0  0  0
 17  7  1  6  0  0  0
 17  3  1  0  0  0  0
 18 12  2  0  0  0  0
 21 26  1  1  0  0  0
 21 23  1  0  0  0  0
 21 19  1  0  0  0  0
 22 20  1  1  0  0  0
 22 27  1  0  0  0  0
 22 21  1  0  0  0  0
 23 19  1  0  0  0  0
 23 16  1  1  0  0  0
 24 27  1  0  0  0  0
 24 25  1  0  0  0  0
 25 26  1  0  0  0  0
 28 32  1  0  0  0  0
 28 34  1  0  0  0  0
 29 28  2  0  0  0  0
 30 32  2  0  0  0  0
 31 33  2  0  0  0  0
 31 29  1  0  0  0  0
 33 30  1  0  0  0  0
M  END
>  <MODEL>
8

>  <REMARK>
 VINA RESULT:      -7.2      1.615      2.328
  Name = 
  2 active torsions:
  status: ('A' for Active; 'I' for Inactive)
    1  A    between atoms: C_12  and  C_28
    2  A    between atoms: C_17  and  N_29
                            x       y       z     vdW  Elec       q    Type
                         _______ _______ _______ _____ _____    ______ ____

>  <TORSDO>
F 2

$$$$
=
 OpenBabel10252415003D

 34 40  0  0  1  0  0  0  0  0999 V2000
  189.0590  175.9570  136.4790 C   0  0  0  0  0  0  0  0  0  0  0  0
  188.3320  177.2900  138.3730 C   0  0  0  0  0  3  0  0  0  0  0  0
  190.7200  176.7740  138.0850 C   0  0  0  0  0  0  0  0  0  0  0  0
  192.6010  177.7850  139.5280 C   0  0  1  0  0  3  0  0  0  0  0  0
  186.7090  176.4520  136.7860 C   0  0  0  0  0  3  0  0  0  0  0  0
  187.0080  177.1760  137.9410 C   0  0  0  0  0  3  0  0  0  0  0  0
  190.7130  176.9080  140.6140 C   0  0  0  0  0  0  0  0  0  0  0  0
  189.3740  176.6750  137.6590 C   0  0  0  0  0  0  0  0  0  0  0  0
  192.7810  177.8870  141.0470 C   0  0  0  0  0  2  0  0  0  0  0  0
  187.7320  175.8460  136.0550 C   0  0  0  0  0  3  0  0  0  0  0  0
  191.7380  176.1910  137.2960 C   0  0  0  0  0  0  0  0  0  0  0  0
  190.0740  175.3820  135.7190 C   0  0  0  0  0  3  0  0  0  0  0  0
  189.6630  176.2390  140.8060 O   0  0  0  0  0  0  0  0  0  0  0  0
  193.3560  176.6160  139.0820 N   0  0  0  0  0  2  0  0  0  0  0  0
  193.1890  176.4440  137.6430 C   0  0  1  0  0  3  0  0  0  0  0  0
  191.6750  177.1390  141.6250 N   0  0  0  0  0  0  0  0  0  0  0  0
  191.0850  177.5600  139.3330 C   0  0  2  0  0  3  0  0  0  0  0  0
  191.4020  175.5130  136.1140 C   0  0  0  0  0  3  0  0  0  0  0  0
  190.5620  175.8250  143.2240 O   0  0  0  0  0  0  0  0  0  0  0  0
  192.1120  175.0560  145.3540 O   0  0  0  0  0  1  0  0  0  0  0  0
  191.1600  176.8350  143.9970 C   0  0  1  0  0  0  0  0  0  0  0  0
  191.5640  176.3410  145.3980 C   0  0  1  0  0  3  0  0  0  0  0  0
  191.8320  176.2770  142.7900 C   0  0  2  0  0  3  0  0  0  0  0  0
  190.0410  177.6880  146.3980 C   0  0  0  0  0  2  0  0  0  0  0  0
  189.3570  178.1660  145.1140 C   0  0  0  0  0  2  0  0  0  0  0  0
  190.3440  178.1260  143.9470 C   0  0  0  0  0  2  0  0  0  0  0  0
  190.4450  176.3470  146.2520 O   0  0  0  0  0  0  0  0  0  0  0  0
  195.0780  173.1470  137.3750 C   0  0  0  0  0  0  0  0  0  0  0  0
  195.8260  173.3600  136.2140 C   0  0  0  0  0  3  0  0  0  0  0  0
  194.1110  175.3630  137.1580 C   0  0  0  0  0  0  0  0  0  0  0  0
  195.7170  174.5710  135.5240 C   0  0  0  0  0  3  0  0  0  0  0  0
  194.2210  174.1450  137.8470 C   0  0  0  0  0  3  0  0  0  0  0  0
  194.8600  175.5710  135.9950 C   0  0  0  0  0  3  0  0  0  0  0  0
  195.2130  171.6310  138.2380 Cl  0  0  0  0  0  0  0  0  0  0  0  0
  1  8  1  0  0  0  0
  4  9  1  1  0  0  0
  5  6  2  0  0  0  0
  6  2  1  0  0  0  0
  7 13  2  0  0  0  0
  7 16  1  0  0  0  0
  8  3  1  0  0  0  0
  8  2  2  0  0  0  0
  9 16  1  0  0  0  0
 10  1  2  0  0  0  0
 10  5  1  0  0  0  0
 11 15  1  0  0  0  0
 11  3  2  0  0  0  0
 12 18  2  0  0  0  0
 12  1  1  0  0  0  0
 14  4  1  0  0  0  0
 15 30  1  1  0  0  0
 15 14  1  0  0  0  0
 17  3  1  6  0  0  0
 17  4  1  0  0  0  0
 17  7  1  0  0  0  0
 18 11  1  0  0  0  0
 19 21  1  0  0  0  0
 21 26  1  6  0  0  0
 21 22  1  0  0  0  0
 22 20  1  6  0  0  0
 22 27  1  0  0  0  0
 23 16  1  6  0  0  0
 23 19  1  0  0  0  0
 23 21  1  0  0  0  0
 25 24  1  0  0  0  0
 26 25  1  0  0  0  0
 27 24  1  0  0  0  0
 28 32  1  0  0  0  0
 28 34  1  0  0  0  0
 29 28  2  0  0  0  0
 30 32  2  0  0  0  0
 31 33  2  0  0  0  0
 31 29  1  0  0  0  0
 33 30  1  0  0  0  0
M  END
>  <MODEL>
9

>  <REMARK>
 VINA RESULT:      -7.2      4.165      8.995
  Name = 
  2 active torsions:
  status: ('A' for Active; 'I' for Inactive)
    1  A    between atoms: C_12  and  C_28
    2  A    between atoms: C_17  and  N_29
                            x       y       z     vdW  Elec       q    Type
                         _______ _______ _______ _____ _____    ______ ____

>  <TORSDO>
F 2

$$$$
