=
 OpenBabel10262421473D

 30 32  0  0  1  0  0  0  0  0999 V2000
  183.1990  177.7370  138.8850 C   0  0  1  0  0  3  0  0  0  0  0  0
  180.9800  179.0550  138.9680 C   0  0  2  0  0  3  0  0  0  0  0  0
  183.6790  178.3600  140.1110 N   0  0  0  0  0  2  0  0  0  0  0  0
  180.8760  178.5260  142.6220 C   0  0  0  0  0  3  0  0  0  0  0  0
  181.5200  178.3820  141.3860 C   0  0  0  0  0  0  0  0  0  0  0  0
  183.6490  178.7720  142.4940 C   0  0  0  0  0  3  0  0  0  0  0  0
  182.9320  178.4950  141.3250 C   0  0  0  0  0  0  0  0  0  0  0  0
  180.6390  178.1750  140.1850 C   0  0  2  0  0  3  0  0  0  0  0  0
  181.6060  178.7850  143.7830 C   0  0  0  0  0  3  0  0  0  0  0  0
  182.9920  178.9120  143.7190 C   0  0  0  0  0  3  0  0  0  0  0  0
  182.1980  178.6290  138.1360 C   0  0  2  0  0  3  0  0  0  0  0  0
  184.4910  176.0750  137.4220 C   0  0  0  0  0  0  0  0  0  0  0  0
  185.6100  175.7880  136.6340 C   0  0  0  0  0  3  0  0  0  0  0  0
  183.2800  174.8160  137.6280 Cl  0  0  0  0  0  0  0  0  0  0  0  0
  185.3660  178.3050  137.8160 C   0  0  0  0  0  3  0  0  0  0  0  0
  187.4420  178.9430  136.8360 F   0  0  0  0  0  0  0  0  0  0  0  0
  184.3650  177.3490  138.0210 C   0  0  0  0  0  0  0  0  0  0  0  0
  186.6020  176.7500  136.4360 C   0  0  0  0  0  3  0  0  0  0  0  0
  186.4800  178.0080  137.0270 C   0  0  0  0  0  0  0  0  0  0  0  0
  181.7460  177.9630  136.9320 N   0  0  0  0  0  0  0  0  0  0  0  0
  181.1020  180.0800  135.8820 C   0  0  0  0  0  1  0  0  0  0  0  0
  181.2500  178.5900  135.9210 C   0  0  0  0  0  3  0  0  0  0  0  0
  179.5080  176.4470  138.5460 O   0  0  0  0  0  0  0  0  0  0  0  0
  180.3980  176.4230  139.7810 S   0  0  2  0  0  0  0  0  0  0  0  0
  179.3220  175.7740  141.0800 C   0  0  0  0  0  2  0  0  0  0  0  0
  179.3490  174.2580  141.0960 C   0  0  0  0  0  1  0  0  0  0  0  0
  181.0630  180.5390  139.3130 C   0  0  0  0  0  2  0  0  0  0  0  0
  179.6330  181.4440  141.0000 O   0  0  0  0  0  1  0  0  0  0  0  0
  179.6930  181.1010  139.6490 C   0  0  1  0  0  3  0  0  0  0  0  0
  179.4420  182.3350  138.8100 C   0  0  0  0  0  1  0  0  0  0  0  0
  1 17  1  6  0  0  0
  1  3  1  0  0  0  0
  2 27  1  1  0  0  0
  2  8  1  0  0  0  0
  3  7  1  0  0  0  0
  4  9  1  0  0  0  0
  5  4  2  0  0  0  0
  6 10  1  0  0  0  0
  7  5  1  0  0  0  0
  7  6  2  0  0  0  0
  8 24  1  6  0  0  0
  8  5  1  0  0  0  0
 10  9  2  0  0  0  0
 11 20  1  6  0  0  0
 11  1  1  0  0  0  0
 11  2  1  0  0  0  0
 12 14  1  0  0  0  0
 12 17  1  0  0  0  0
 13 12  2  0  0  0  0
 15 17  2  0  0  0  0
 16 19  1  0  0  0  0
 18 13  1  0  0  0  0
 18 19  2  0  0  0  0
 19 15  1  0  0  0  0
 21 22  1  0  0  0  0
 22 20  2  0  0  0  0
 24 23  2  6  0  0  0
 24 25  1  0  0  0  0
 25 26  1  0  0  0  0
 27 29  1  0  0  0  0
 29 30  1  6  0  0  0
 29 28  1  0  0  0  0
M  END
>  <MODEL>
1

>  <REMARK>
 VINA RESULT:      -5.4      0.000      0.000
  Name = 
  6 active torsions:
  status: ('A' for Active; 'I' for Inactive)
    1  A    between atoms: C_1  and  C_22
    2  A    between atoms: C_4  and  C_25
    3  A    between atoms: C_7  and  S_30
    4  A    between atoms: N_10  and  C_23
    5  A    between atoms: C_11  and  C_25
    6  A    between atoms: C_13  and  S_30
                            x       y       z     vdW  Elec       q    Type
                         _______ _______ _______ _____ _____    ______ ____

>  <TORSDO>
F 6

$$$$
=
 OpenBabel10262421473D

 30 32  0  0  1  0  0  0  0  0999 V2000
  182.8340  179.1530  139.4300 C   0  0  1  0  0  3  0  0  0  0  0  0
  180.4760  178.1960  138.9910 C   0  0  2  0  0  3  0  0  0  0  0  0
  182.5810  180.3120  138.5850 N   0  0  0  0  0  2  0  0  0  0  0  0
  179.1100  181.6180  139.2410 C   0  0  0  0  0  3  0  0  0  0  0  0
  180.1980  180.7360  139.2390 C   0  0  0  0  0  0  0  0  0  0  0  0
  181.4950  182.4010  138.0310 C   0  0  0  0  0  3  0  0  0  0  0  0
  181.4150  181.1410  138.6340 C   0  0  0  0  0  0  0  0  0  0  0  0
  179.9670  179.3770  139.8390 C   0  0  2  0  0  3  0  0  0  0  0  0
  179.2090  182.8790  138.6510 C   0  0  0  0  0  3  0  0  0  0  0  0
  180.4010  183.2690  138.0420 C   0  0  0  0  0  3  0  0  0  0  0  0
  181.9900  177.9390  139.0160 C   0  0  2  0  0  3  0  0  0  0  0  0
  185.0810  178.8300  140.6200 C   0  0  0  0  0  0  0  0  0  0  0  0
  186.4470  178.5350  140.5470 C   0  0  0  0  0  3  0  0  0  0  0  0
  184.3950  179.1770  142.2020 Cl  0  0  0  0  0  0  0  0  0  0  0  0
  184.9140  178.5570  138.2140 C   0  0  0  0  0  3  0  0  0  0  0  0
  186.8570  177.9890  136.9580 F   0  0  0  0  0  0  0  0  0  0  0  0
  184.3040  178.8420  139.4400 C   0  0  0  0  0  0  0  0  0  0  0  0
  187.0440  178.2520  139.3180 C   0  0  0  0  0  3  0  0  0  0  0  0
  186.2780  178.2630  138.1520 C   0  0  0  0  0  0  0  0  0  0  0  0
  182.2710  176.8190  139.8880 N   0  0  0  0  0  0  0  0  0  0  0  0
  182.9920  175.4120  138.0170 C   0  0  0  0  0  1  0  0  0  0  0  0
  182.7120  175.6850  139.4640 C   0  0  0  0  0  3  0  0  0  0  0  0
  180.0140  177.8910  142.0160 O   0  0  0  0  0  0  0  0  0  0  0  0
  180.4450  179.2870  141.5870 S   0  0  2  0  0  0  0  0  0  0  0  0
  179.2990  180.3820  142.4540 C   0  0  0  0  0  2  0  0  0  0  0  0
  178.9390  179.8170  143.8150 C   0  0  0  0  0  1  0  0  0  0  0  0
  179.9660  178.2340  137.5530 C   0  0  0  0  0  2  0  0  0  0  0  0
  180.7420  176.6950  135.8960 O   0  0  0  0  0  1  0  0  0  0  0  0
  181.0670  177.8730  136.5720 C   0  0  1  0  0  3  0  0  0  0  0  0
  181.2270  178.9940  135.5680 C   0  0  0  0  0  1  0  0  0  0  0  0
  1 17  1  6  0  0  0
  2 27  1  6  0  0  0
  2 11  1  0  0  0  0
  2  8  1  0  0  0  0
  3  7  1  0  0  0  0
  3  1  1  0  0  0  0
  5  4  1  0  0  0  0
  5  8  1  0  0  0  0
  6 10  2  0  0  0  0
  6  7  1  0  0  0  0
  7  5  2  0  0  0  0
  8 24  1  1  0  0  0
  9  4  2  0  0  0  0
 10  9  1  0  0  0  0
 11  1  1  0  0  0  0
 11 20  1  1  0  0  0
 12 14  1  0  0  0  0
 13 12  1  0  0  0  0
 15 17  1  0  0  0  0
 16 19  1  0  0  0  0
 17 12  2  0  0  0  0
 18 13  2  0  0  0  0
 19 15  2  0  0  0  0
 19 18  1  0  0  0  0
 21 22  1  0  0  0  0
 22 20  2  0  0  0  0
 24 23  2  1  0  0  0
 24 25  1  0  0  0  0
 25 26  1  0  0  0  0
 28 29  1  0  0  0  0
 29 30  1  6  0  0  0
 29 27  1  0  0  0  0
M  END
>  <MODEL>
2

>  <REMARK>
 VINA RESULT:      -5.2      2.518      4.355
  Name = 
  6 active torsions:
  status: ('A' for Active; 'I' for Inactive)
    1  A    between atoms: C_1  and  C_22
    2  A    between atoms: C_4  and  C_25
    3  A    between atoms: C_7  and  S_30
    4  A    between atoms: N_10  and  C_23
    5  A    between atoms: C_11  and  C_25
    6  A    between atoms: C_13  and  S_30
                            x       y       z     vdW  Elec       q    Type
                         _______ _______ _______ _____ _____    ______ ____

>  <TORSDO>
F 6

$$$$
=
 OpenBabel10262421473D

 30 32  0  0  1  0  0  0  0  0999 V2000
  182.1300  177.4530  139.8800 C   0  0  1  0  0  3  0  0  0  0  0  0
  181.5690  177.9470  137.4080 C   0  0  2  0  0  3  0  0  0  0  0  0
  181.0610  176.4690  139.9830 N   0  0  0  0  0  2  0  0  0  0  0  0
  181.0060  174.3350  136.8800 C   0  0  0  0  0  3  0  0  0  0  0  0
  181.3080  175.4120  137.7230 C   0  0  0  0  0  0  0  0  0  0  0  0
  179.9960  174.3580  139.4770 C   0  0  0  0  0  3  0  0  0  0  0  0
  180.8030  175.4170  139.0490 C   0  0  0  0  0  0  0  0  0  0  0  0
  182.1120  176.5340  137.1240 C   0  0  2  0  0  3  0  0  0  0  0  0
  180.2120  173.2780  137.3270 C   0  0  0  0  0  3  0  0  0  0  0  0
  179.7030  173.2910  138.6250 C   0  0  0  0  0  3  0  0  0  0  0  0
  181.8390  178.5150  138.8090 C   0  0  2  0  0  3  0  0  0  0  0  0
  181.3870  178.7090  141.9870 C   0  0  0  0  0  0  0  0  0  0  0  0
  181.7090  179.2600  143.2320 C   0  0  0  0  0  3  0  0  0  0  0  0
  179.7250  178.8460  141.4280 Cl  0  0  0  0  0  0  0  0  0  0  0  0
  183.6930  177.9920  141.7320 C   0  0  0  0  0  3  0  0  0  0  0  0
  185.2680  178.4670  143.4540 F   0  0  0  0  0  0  0  0  0  0  0  0
  182.3900  178.0660  141.2260 C   0  0  0  0  0  0  0  0  0  0  0  0
  183.0120  179.1790  143.7260 C   0  0  0  0  0  3  0  0  0  0  0  0
  184.0040  178.5460  142.9760 C   0  0  0  0  0  0  0  0  0  0  0  0
  182.9310  179.4610  138.7400 N   0  0  0  0  0  0  0  0  0  0  0  0
  181.4030  181.3740  138.6620 C   0  0  0  0  0  1  0  0  0  0  0  0
  182.7590  180.7360  138.6680 C   0  0  0  0  0  3  0  0  0  0  0  0
  184.5200  177.4300  136.5350 O   0  0  0  0  0  0  0  0  0  0  0  0
  183.8940  176.3580  137.4160 S   0  0  2  0  0  0  0  0  0  0  0  0
  184.3610  174.8080  136.6130 C   0  0  0  0  0  2  0  0  0  0  0  0
  184.6170  173.7240  137.6420 C   0  0  0  0  0  1  0  0  0  0  0  0
  180.0950  178.1010  137.0460 C   0  0  0  0  0  2  0  0  0  0  0  0
  181.0210  179.7030  135.5330 O   0  0  0  0  0  1  0  0  0  0  0  0
  179.9280  178.8610  135.7410 C   0  0  1  0  0  3  0  0  0  0  0  0
  179.8370  177.8730  134.5980 C   0  0  0  0  0  1  0  0  0  0  0  0
  1  3  1  0  0  0  0
  1 17  1  1  0  0  0
  2 27  1  1  0  0  0
  2 11  1  0  0  0  0
  4  9  2  0  0  0  0
  4  5  1  0  0  0  0
  5  7  2  0  0  0  0
  7  6  1  0  0  0  0
  7  3  1  0  0  0  0
  8  2  1  0  0  0  0
  8 24  1  1  0  0  0
  8  5  1  0  0  0  0
  9 10  1  0  0  0  0
 10  6  2  0  0  0  0
 11 20  1  6  0  0  0
 11  1  1  0  0  0  0
 12 13  1  0  0  0  0
 13 18  2  0  0  0  0
 14 12  1  0  0  0  0
 15 19  2  0  0  0  0
 17 15  1  0  0  0  0
 17 12  2  0  0  0  0
 19 16  1  0  0  0  0
 19 18  1  0  0  0  0
 21 22  1  0  0  0  0
 22 20  2  0  0  0  0
 24 23  2  6  0  0  0
 25 24  1  0  0  0  0
 25 26  1  0  0  0  0
 28 29  1  0  0  0  0
 29 30  1  6  0  0  0
 29 27  1  0  0  0  0
M  END
>  <MODEL>
3

>  <REMARK>
 VINA RESULT:      -5.1      2.992      5.552
  Name = 
  6 active torsions:
  status: ('A' for Active; 'I' for Inactive)
    1  A    between atoms: C_1  and  C_22
    2  A    between atoms: C_4  and  C_25
    3  A    between atoms: C_7  and  S_30
    4  A    between atoms: N_10  and  C_23
    5  A    between atoms: C_11  and  C_25
    6  A    between atoms: C_13  and  S_30
                            x       y       z     vdW  Elec       q    Type
                         _______ _______ _______ _____ _____    ______ ____

>  <TORSDO>
F 6

$$$$
=
 OpenBabel10262421473D

 30 32  0  0  1  0  0  0  0  0999 V2000
  183.1610  176.4430  138.4100 C   0  0  1  0  0  3  0  0  0  0  0  0
  181.3210  178.2110  138.0150 C   0  0  2  0  0  3  0  0  0  0  0  0
  183.7540  177.2210  139.4890 N   0  0  0  0  0  2  0  0  0  0  0  0
  181.0280  178.6290  141.6730 C   0  0  0  0  0  3  0  0  0  0  0  0
  181.6410  178.0450  140.5580 C   0  0  0  0  0  0  0  0  0  0  0  0
  183.7810  178.1980  141.7020 C   0  0  0  0  0  3  0  0  0  0  0  0
  183.0400  177.8150  140.5780 C   0  0  0  0  0  0  0  0  0  0  0  0
  180.7570  177.7560  139.3750 C   0  0  2  0  0  3  0  0  0  0  0  0
  181.7770  178.9900  142.7940 C   0  0  0  0  0  3  0  0  0  0  0  0
  183.1550  178.7790  142.8060 C   0  0  0  0  0  3  0  0  0  0  0  0
  182.4160  177.3280  137.4000 C   0  0  2  0  0  3  0  0  0  0  0  0
  185.3600  176.1460  137.1270 C   0  0  0  0  0  0  0  0  0  0  0  0
  186.2970  175.2950  136.5300 C   0  0  0  0  0  3  0  0  0  0  0  0
  185.6640  177.8780  137.0670 Cl  0  0  0  0  0  0  0  0  0  0  0  0
  184.0370  174.2130  137.7620 C   0  0  0  0  0  3  0  0  0  0  0  0
  184.7930  172.0290  137.1800 F   0  0  0  0  0  0  0  0  0  0  0  0
  184.2160  175.6000  137.7510 C   0  0  0  0  0  0  0  0  0  0  0  0
  186.1070  173.9120  136.5470 C   0  0  0  0  0  3  0  0  0  0  0  0
  184.9780  173.3710  137.1630 C   0  0  0  0  0  0  0  0  0  0  0  0
  181.8400  176.5090  136.3550 N   0  0  0  0  0  0  0  0  0  0  0  0
  182.9830  177.7740  134.5950 C   0  0  0  0  0  1  0  0  0  0  0  0
  182.0750  176.6950  135.1010 C   0  0  0  0  0  3  0  0  0  0  0  0
  178.9870  176.0940  138.3480 O   0  0  0  0  0  0  0  0  0  0  0  0
  180.1110  176.0610  139.3740 S   0  0  2  0  0  0  0  0  0  0  0  0
  179.2530  175.8730  140.9540 C   0  0  0  0  0  2  0  0  0  0  0  0
  179.1920  174.4150  141.3640 C   0  0  0  0  0  1  0  0  0  0  0  0
  181.7500  179.6740  138.0100 C   0  0  0  0  0  2  0  0  0  0  0  0
  181.0870  181.8900  137.4060 O   0  0  0  0  0  1  0  0  0  0  0  0
  180.6460  180.5670  137.4710 C   0  0  1  0  0  3  0  0  0  0  0  0
  180.2630  180.1020  136.0820 C   0  0  0  0  0  1  0  0  0  0  0  0
  1 17  1  6  0  0  0
  1  3  1  0  0  0  0
  2 27  1  1  0  0  0
  2  8  1  0  0  0  0
  3  7  1  0  0  0  0
  4  9  1  0  0  0  0
  5  7  1  0  0  0  0
  5  4  2  0  0  0  0
  6 10  1  0  0  0  0
  7  6  2  0  0  0  0
  8 24  1  6  0  0  0
  8  5  1  0  0  0  0
  9 10  2  0  0  0  0
 11 20  1  6  0  0  0
 11  2  1  0  0  0  0
 11  1  1  0  0  0  0
 12 17  1  0  0  0  0
 13 18  1  0  0  0  0
 13 12  2  0  0  0  0
 14 12  1  0  0  0  0
 17 15  2  0  0  0  0
 18 19  2  0  0  0  0
 19 16  1  0  0  0  0
 19 15  1  0  0  0  0
 21 22  1  0  0  0  0
 22 20  2  0  0  0  0
 24 23  2  6  0  0  0
 24 25  1  0  0  0  0
 25 26  1  0  0  0  0
 28 29  1  0  0  0  0
 29 30  1  6  0  0  0
 29 27  1  0  0  0  0
M  END
>  <MODEL>
4

>  <REMARK>
 VINA RESULT:      -4.8      2.123      2.555
  Name = 
  6 active torsions:
  status: ('A' for Active; 'I' for Inactive)
    1  A    between atoms: C_1  and  C_22
    2  A    between atoms: C_4  and  C_25
    3  A    between atoms: C_7  and  S_30
    4  A    between atoms: N_10  and  C_23
    5  A    between atoms: C_11  and  C_25
    6  A    between atoms: C_13  and  S_30
                            x       y       z     vdW  Elec       q    Type
                         _______ _______ _______ _____ _____    ______ ____

>  <TORSDO>
F 6

$$$$
=
 OpenBabel10262421473D

 30 32  0  0  1  0  0  0  0  0999 V2000
  181.4030  178.2850  137.6600 C   0  0  1  0  0  3  0  0  0  0  0  0
  181.8120  176.7840  139.7210 C   0  0  2  0  0  3  0  0  0  0  0  0
  182.8070  178.2350  137.2770 N   0  0  0  0  0  2  0  0  0  0  0  0
  184.1020  174.7220  137.6850 C   0  0  0  0  0  3  0  0  0  0  0  0
  183.2580  175.8300  137.8250 C   0  0  0  0  0  0  0  0  0  0  0  0
  184.8000  177.1290  136.4660 C   0  0  0  0  0  3  0  0  0  0  0  0
  183.6070  177.0510  137.1940 C   0  0  0  0  0  0  0  0  0  0  0  0
  182.0490  175.6520  138.7030 C   0  0  2  0  0  3  0  0  0  0  0  0
  185.2800  174.8100  136.9420 C   0  0  0  0  0  3  0  0  0  0  0  0
  185.6310  176.0150  136.3360 C   0  0  0  0  0  3  0  0  0  0  0  0
  181.2070  178.0830  139.1700 C   0  0  2  0  0  3  0  0  0  0  0  0
  179.6910  179.6120  136.2890 C   0  0  0  0  0  0  0  0  0  0  0  0
  179.1780  180.8480  135.8820 C   0  0  0  0  0  3  0  0  0  0  0  0
  178.9310  178.1550  135.6620 Cl  0  0  0  0  0  0  0  0  0  0  0  0
  181.3460  180.7660  137.6390 C   0  0  0  0  0  3  0  0  0  0  0  0
  181.3740  183.1480  137.6790 F   0  0  0  0  0  0  0  0  0  0  0  0
  180.7890  179.5680  137.1780 C   0  0  0  0  0  0  0  0  0  0  0  0
  179.7420  182.0360  136.3480 C   0  0  0  0  0  3  0  0  0  0  0  0
  180.8260  181.9960  137.2260 C   0  0  0  0  0  0  0  0  0  0  0  0
  179.7990  178.1330  139.4980 N   0  0  0  0  0  0  0  0  0  0  0  0
  180.0970  180.1010  140.9250 C   0  0  0  0  0  1  0  0  0  0  0  0
  179.2860  179.0190  140.2810 C   0  0  0  0  0  3  0  0  0  0  0  0
  179.5640  174.7830  138.8510 O   0  0  0  0  0  0  0  0  0  0  0  0
  180.5660  175.1760  137.7730 S   0  0  2  0  0  0  0  0  0  0  0  0
  180.9820  173.6090  136.9750 C   0  0  0  0  0  2  0  0  0  0  0  0
  180.3980  172.4400  137.7450 C   0  0  0  0  0  1  0  0  0  0  0  0
  183.0420  177.0860  140.5700 C   0  0  0  0  0  2  0  0  0  0  0  0
  183.0910  178.8390  142.1950 O   0  0  0  0  0  1  0  0  0  0  0  0
  183.1770  178.5780  140.8270 C   0  0  1  0  0  3  0  0  0  0  0  0
  184.5190  179.0520  140.3120 C   0  0  0  0  0  1  0  0  0  0  0  0
  1 17  1  1  0  0  0
  1 11  1  0  0  0  0
  2 27  1  6  0  0  0
  3  1  1  0  0  0  0
  4  5  1  0  0  0  0
  5  8  1  0  0  0  0
  6  7  1  0  0  0  0
  7  3  1  0  0  0  0
  7  5  2  0  0  0  0
  8 24  1  6  0  0  0
  8  2  1  0  0  0  0
  9  4  2  0  0  0  0
 10  6  2  0  0  0  0
 10  9  1  0  0  0  0
 11 20  1  6  0  0  0
 11  2  1  0  0  0  0
 12 17  1  0  0  0  0
 13 12  2  0  0  0  0
 13 18  1  0  0  0  0
 14 12  1  0  0  0  0
 17 15  2  0  0  0  0
 18 19  2  0  0  0  0
 19 15  1  0  0  0  0
 19 16  1  0  0  0  0
 20 22  2  0  0  0  0
 22 21  1  0  0  0  0
 24 23  2  1  0  0  0
 25 26  1  0  0  0  0
 25 24  1  0  0  0  0
 27 29  1  0  0  0  0
 29 30  1  1  0  0  0
 29 28  1  0  0  0  0
M  END
>  <MODEL>
5

>  <REMARK>
 VINA RESULT:      -4.7      2.694      5.392
  Name = 
  6 active torsions:
  status: ('A' for Active; 'I' for Inactive)
    1  A    between atoms: C_1  and  C_22
    2  A    between atoms: C_4  and  C_25
    3  A    between atoms: C_7  and  S_30
    4  A    between atoms: N_10  and  C_23
    5  A    between atoms: C_11  and  C_25
    6  A    between atoms: C_13  and  S_30
                            x       y       z     vdW  Elec       q    Type
                         _______ _______ _______ _____ _____    ______ ____

>  <TORSDO>
F 6

$$$$
=
 OpenBabel10262421473D

 30 32  0  0  1  0  0  0  0  0999 V2000
  183.8420  178.4500  138.9330 C   0  0  1  0  0  3  0  0  0  0  0  0
  182.1120  177.4610  137.2900 C   0  0  2  0  0  3  0  0  0  0  0  0
  183.4100  179.8120  138.6550 N   0  0  0  0  0  2  0  0  0  0  0  0
  179.6480  179.9340  138.4970 C   0  0  0  0  0  3  0  0  0  0  0  0
  180.9420  179.3960  138.5060 C   0  0  0  0  0  0  0  0  0  0  0  0
  181.8350  181.6470  138.7190 C   0  0  0  0  0  3  0  0  0  0  0  0
  182.0530  180.2680  138.6320 C   0  0  0  0  0  0  0  0  0  0  0  0
  181.0550  177.9080  138.3180 C   0  0  2  0  0  3  0  0  0  0  0  0
  179.4460  181.3110  138.6010 C   0  0  0  0  0  3  0  0  0  0  0  0
  180.5400  182.1680  138.7080 C   0  0  0  0  0  3  0  0  0  0  0  0
  183.5760  177.5050  137.7520 C   0  0  2  0  0  3  0  0  0  0  0  0
  185.7110  178.6380  140.6780 C   0  0  0  0  0  0  0  0  0  0  0  0
  187.0770  178.6270  140.9790 C   0  0  0  0  0  3  0  0  0  0  0  0
  184.5760  178.8890  141.9980 Cl  0  0  0  0  0  0  0  0  0  0  0  0
  186.2440  178.2530  138.3410 C   0  0  0  0  0  3  0  0  0  0  0  0
  188.5230  178.0540  137.6730 F   0  0  0  0  0  0  0  0  0  0  0  0
  185.2870  178.4480  139.3430 C   0  0  0  0  0  0  0  0  0  0  0  0
  188.0220  178.4320  139.9710 C   0  0  0  0  0  3  0  0  0  0  0  0
  187.6060  178.2440  138.6520 C   0  0  0  0  0  0  0  0  0  0  0  0
  184.0150  176.1660  138.0800 N   0  0  0  0  0  0  0  0  0  0  0  0
  184.8920  175.7900  135.8240 C   0  0  0  0  0  1  0  0  0  0  0  0
  184.5960  175.3850  137.2360 C   0  0  0  0  0  3  0  0  0  0  0  0
  180.9770  175.5430  139.4810 O   0  0  0  0  0  0  0  0  0  0  0  0
  181.1270  177.0020  139.8890 S   0  0  2  0  0  0  0  0  0  0  0  0
  179.5740  177.3800  140.7320 C   0  0  0  0  0  2  0  0  0  0  0  0
  179.8210  178.2410  141.9560 C   0  0  0  0  0  1  0  0  0  0  0  0
  181.9580  178.1550  135.9400 C   0  0  0  0  0  2  0  0  0  0  0  0
  181.3290  175.9160  135.3880 O   0  0  0  0  0  1  0  0  0  0  0  0
  181.3160  177.2300  134.9200 C   0  0  1  0  0  3  0  0  0  0  0  0
  179.8840  177.6630  134.6890 C   0  0  0  0  0  1  0  0  0  0  0  0
  1 17  1  6  0  0  0
  2 27  1  6  0  0  0
  2 11  1  0  0  0  0
  2  8  1  0  0  0  0
  3  1  1  0  0  0  0
  4  5  2  0  0  0  0
  4  9  1  0  0  0  0
  5  7  1  0  0  0  0
  7  3  1  0  0  0  0
  7  6  2  0  0  0  0
  8  5  1  0  0  0  0
  8 24  1  1  0  0  0
  9 10  2  0  0  0  0
 10  6  1  0  0  0  0
 11 20  1  1  0  0  0
 11  1  1  0  0  0  0
 12 13  1  0  0  0  0
 12 14  1  0  0  0  0
 15 19  2  0  0  0  0
 15 17  1  0  0  0  0
 16 19  1  0  0  0  0
 17 12  2  0  0  0  0
 18 13  2  0  0  0  0
 19 18  1  0  0  0  0
 21 22  1  0  0  0  0
 22 20  2  0  0  0  0
 24 23  2  6  0  0  0
 24 25  1  0  0  0  0
 25 26  1  0  0  0  0
 29 30  1  1  0  0  0
 29 28  1  0  0  0  0
 29 27  1  0  0  0  0
M  END
>  <MODEL>
6

>  <REMARK>
 VINA RESULT:      -4.6      2.401      4.209
  Name = 
  6 active torsions:
  status: ('A' for Active; 'I' for Inactive)
    1  A    between atoms: C_1  and  C_22
    2  A    between atoms: C_4  and  C_25
    3  A    between atoms: C_7  and  S_30
    4  A    between atoms: N_10  and  C_23
    5  A    between atoms: C_11  and  C_25
    6  A    between atoms: C_13  and  S_30
                            x       y       z     vdW  Elec       q    Type
                         _______ _______ _______ _____ _____    ______ ____

>  <TORSDO>
F 6

$$$$
=
 OpenBabel10262421473D

 30 32  0  0  1  0  0  0  0  0999 V2000
  184.8290  176.7610  137.3850 C   0  0  1  0  0  3  0  0  0  0  0  0
  182.4910  176.7660  138.4820 C   0  0  2  0  0  3  0  0  0  0  0  0
  184.9840  175.3280  137.5940 N   0  0  0  0  0  2  0  0  0  0  0  0
  181.7520  173.5770  136.7720 C   0  0  0  0  0  3  0  0  0  0  0  0
  182.6340  174.6200  137.0790 C   0  0  0  0  0  0  0  0  0  0  0  0
  184.4470  173.0040  137.1930 C   0  0  0  0  0  3  0  0  0  0  0  0
  184.0080  174.3290  137.2810 C   0  0  0  0  0  0  0  0  0  0  0  0
  182.0330  175.9900  137.2320 C   0  0  2  0  0  3  0  0  0  0  0  0
  182.2080  172.2610  136.6720 C   0  0  0  0  0  3  0  0  0  0  0  0
  183.5550  171.9740  136.8870 C   0  0  0  0  0  3  0  0  0  0  0  0
  183.8890  177.3980  138.4190 C   0  0  2  0  0  3  0  0  0  0  0  0
  186.8110  177.8470  136.1770 C   0  0  0  0  0  0  0  0  0  0  0  0
  188.0720  178.4510  136.2420 C   0  0  0  0  0  3  0  0  0  0  0  0
  186.0710  177.6480  134.5940 Cl  0  0  0  0  0  0  0  0  0  0  0  0
  186.8230  177.6110  138.5930 C   0  0  0  0  0  3  0  0  0  0  0  0
  188.6970  178.3930  139.8410 F   0  0  0  0  0  0  0  0  0  0  0  0
  186.1780  177.4220  137.3670 C   0  0  0  0  0  0  0  0  0  0  0  0
  188.7060  178.6350  137.4720 C   0  0  0  0  0  3  0  0  0  0  0  0
  188.0820  178.2150  138.6470 C   0  0  0  0  0  0  0  0  0  0  0  0
  183.7620  178.8170  138.1650 N   0  0  0  0  0  0  0  0  0  0  0  0
  184.0940  179.3730  140.5280 C   0  0  0  0  0  1  0  0  0  0  0  0
  183.8440  179.7110  139.0900 C   0  0  0  0  0  3  0  0  0  0  0  0
  181.4370  178.2850  136.0780 O   0  0  0  0  0  0  0  0  0  0  0  0
  182.0900  176.9620  135.7010 S   0  0  2  0  0  0  0  0  0  0  0  0
  180.8910  176.1850  134.5950 C   0  0  0  0  0  2  0  0  0  0  0  0
  179.4730  176.4810  135.0430 C   0  0  0  0  0  1  0  0  0  0  0  0
  182.3250  175.9670  139.7710 C   0  0  0  0  0  2  0  0  0  0  0  0
  180.5610  177.5550  140.0590 O   0  0  0  0  0  1  0  0  0  0  0  0
  181.0040  176.2900  140.4490 C   0  0  1  0  0  3  0  0  0  0  0  0
  179.9730  175.2570  140.0490 C   0  0  0  0  0  1  0  0  0  0  0  0
  1 17  1  1  0  0  0
  1  3  1  0  0  0  0
  1 11  1  0  0  0  0
  2 27  1  1  0  0  0
  4  5  1  0  0  0  0
  5  8  1  0  0  0  0
  5  7  2  0  0  0  0
  6  7  1  0  0  0  0
  7  3  1  0  0  0  0
  8 24  1  6  0  0  0
  8  2  1  0  0  0  0
  9  4  2  0  0  0  0
  9 10  1  0  0  0  0
 10  6  2  0  0  0  0
 11 20  1  6  0  0  0
 11  2  1  0  0  0  0
 12 13  2  0  0  0  0
 12 17  1  0  0  0  0
 13 18  1  0  0  0  0
 14 12  1  0  0  0  0
 15 19  1  0  0  0  0
 17 15  2  0  0  0  0
 18 19  2  0  0  0  0
 19 16  1  0  0  0  0
 20 22  2  0  0  0  0
 22 21  1  0  0  0  0
 24 23  2  1  0  0  0
 25 26  1  0  0  0  0
 25 24  1  0  0  0  0
 27 29  1  0  0  0  0
 28 29  1  0  0  0  0
 29 30  1  6  0  0  0
M  END
>  <MODEL>
7

>  <REMARK>
 VINA RESULT:      -4.4      2.851      5.170
  Name = 
  6 active torsions:
  status: ('A' for Active; 'I' for Inactive)
    1  A    between atoms: C_1  and  C_22
    2  A    between atoms: C_4  and  C_25
    3  A    between atoms: C_7  and  S_30
    4  A    between atoms: N_10  and  C_23
    5  A    between atoms: C_11  and  C_25
    6  A    between atoms: C_13  and  S_30
                            x       y       z     vdW  Elec       q    Type
                         _______ _______ _______ _____ _____    ______ ____

>  <TORSDO>
F 6

$$$$
=
 OpenBabel10262421473D

 30 32  0  0  1  0  0  0  0  0999 V2000
  182.0610  177.6100  139.5770 C   0  0  1  0  0  3  0  0  0  0  0  0
  180.9160  175.7740  138.1670 C   0  0  2  0  0  3  0  0  0  0  0  0
  183.3420  177.3930  138.9190 N   0  0  0  0  0  2  0  0  0  0  0  0
  182.8010  176.9520  135.2180 C   0  0  0  0  0  3  0  0  0  0  0  0
  182.5040  177.0250  136.5850 C   0  0  0  0  0  0  0  0  0  0  0  0
  184.8540  177.4600  137.0320 C   0  0  0  0  0  3  0  0  0  0  0  0
  183.5480  177.2960  137.5060 C   0  0  0  0  0  0  0  0  0  0  0  0
  181.0810  176.7450  136.9830 C   0  0  2  0  0  3  0  0  0  0  0  0
  184.1060  177.1350  134.7580 C   0  0  0  0  0  3  0  0  0  0  0  0
  185.1340  177.3840  135.6670 C   0  0  0  0  0  3  0  0  0  0  0  0
  181.1830  176.3490  139.5650 C   0  0  2  0  0  3  0  0  0  0  0  0
  181.3430  178.9290  141.6540 C   0  0  0  0  0  0  0  0  0  0  0  0
  181.6260  179.3780  142.9480 C   0  0  0  0  0  3  0  0  0  0  0  0
  179.8040  179.3910  140.9390 Cl  0  0  0  0  0  0  0  0  0  0  0  0
  183.4900  177.7980  141.5970 C   0  0  0  0  0  3  0  0  0  0  0  0
  184.9350  177.9240  143.4880 F   0  0  0  0  0  0  0  0  0  0  0  0
  182.2850  178.1290  140.9690 C   0  0  0  0  0  0  0  0  0  0  0  0
  182.8330  179.0410  143.5650 C   0  0  0  0  0  3  0  0  0  0  0  0
  183.7640  178.2510  142.8900 C   0  0  0  0  0  0  0  0  0  0  0  0
  179.9220  176.6180  140.2220 N   0  0  0  0  0  0  0  0  0  0  0  0
  179.7030  174.2970  140.9750 C   0  0  0  0  0  1  0  0  0  0  0  0
  179.2450  175.7180  140.8490 C   0  0  0  0  0  3  0  0  0  0  0  0
  179.0950  178.1470  135.9620 O   0  0  0  0  0  0  0  0  0  0  0  0
  180.0780  178.2500  137.1200 S   0  0  2  0  0  0  0  0  0  0  0  0
  181.1750  179.6040  136.6410 C   0  0  0  0  0  2  0  0  0  0  0  0
  181.2790  180.6320  137.7510 C   0  0  0  0  0  1  0  0  0  0  0  0
  181.6790  174.4670  137.9740 C   0  0  0  0  0  2  0  0  0  0  0  0
  181.7800  173.4080  135.8330 O   0  0  0  0  0  1  0  0  0  0  0  0
  180.9810  173.5700  136.9660 C   0  0  1  0  0  3  0  0  0  0  0  0
  180.7300  172.2160  137.5950 C   0  0  0  0  0  1  0  0  0  0  0  0
  1 17  1  1  0  0  0
  2 27  1  6  0  0  0
  2 11  1  0  0  0  0
  3  1  1  0  0  0  0
  4  5  1  0  0  0  0
  5  8  1  0  0  0  0
  5  7  2  0  0  0  0
  6  7  1  0  0  0  0
  7  3  1  0  0  0  0
  8 24  1  1  0  0  0
  8  2  1  0  0  0  0
  9  4  2  0  0  0  0
  9 10  1  0  0  0  0
 10  6  2  0  0  0  0
 11  1  1  0  0  0  0
 11 20  1  6  0  0  0
 12 13  1  0  0  0  0
 13 18  2  0  0  0  0
 14 12  1  0  0  0  0
 15 19  2  0  0  0  0
 17 15  1  0  0  0  0
 17 12  2  0  0  0  0
 19 16  1  0  0  0  0
 19 18  1  0  0  0  0
 20 22  2  0  0  0  0
 22 21  1  0  0  0  0
 24 23  2  6  0  0  0
 25 24  1  0  0  0  0
 25 26  1  0  0  0  0
 28 29  1  0  0  0  0
 29 30  1  1  0  0  0
 29 27  1  0  0  0  0
M  END
>  <MODEL>
8

>  <REMARK>
 VINA RESULT:      -4.2      2.909      6.357
  Name = 
  6 active torsions:
  status: ('A' for Active; 'I' for Inactive)
    1  A    between atoms: C_1  and  C_22
    2  A    between atoms: C_4  and  C_25
    3  A    between atoms: C_7  and  S_30
    4  A    between atoms: N_10  and  C_23
    5  A    between atoms: C_11  and  C_25
    6  A    between atoms: C_13  and  S_30
                            x       y       z     vdW  Elec       q    Type
                         _______ _______ _______ _____ _____    ______ ____

>  <TORSDO>
F 6

$$$$
=
 OpenBabel10262421473D

 30 32  0  0  1  0  0  0  0  0999 V2000
  182.7000  176.2290  137.8200 C   0  0  1  0  0  3  0  0  0  0  0  0
  182.6300  175.8050  135.2730 C   0  0  2  0  0  3  0  0  0  0  0  0
  183.2660  174.9120  138.0790 N   0  0  0  0  0  2  0  0  0  0  0  0
  185.9270  174.1570  135.5210 C   0  0  0  0  0  3  0  0  0  0  0  0
  184.8300  174.7880  136.1220 C   0  0  0  0  0  0  0  0  0  0  0  0
  185.0160  173.2440  137.9910 C   0  0  0  0  0  3  0  0  0  0  0  0
  184.3750  174.3300  137.3850 C   0  0  0  0  0  0  0  0  0  0  0  0
  184.1670  175.8860  135.3360 C   0  0  2  0  0  3  0  0  0  0  0  0
  186.5670  173.0860  136.1460 C   0  0  0  0  0  3  0  0  0  0  0  0
  186.1090  172.6270  137.3790 C   0  0  0  0  0  3  0  0  0  0  0  0
  181.8700  176.2580  136.5280 C   0  0  2  0  0  3  0  0  0  0  0  0
  180.7810  175.9850  139.5020 C   0  0  0  0  0  0  0  0  0  0  0  0
  180.0910  176.4770  140.6150 C   0  0  0  0  0  3  0  0  0  0  0  0
  180.2030  174.4980  138.7620 Cl  0  0  0  0  0  0  0  0  0  0  0  0
  182.3130  177.8630  139.6470 C   0  0  0  0  0  3  0  0  0  0  0  0
  182.0210  179.4870  141.3660 F   0  0  0  0  0  0  0  0  0  0  0  0
  181.9070  176.6850  139.0110 C   0  0  0  0  0  0  0  0  0  0  0  0
  180.5060  177.6530  141.2410 C   0  0  0  0  0  3  0  0  0  0  0  0
  181.6170  178.3460  140.7580 C   0  0  0  0  0  0  0  0  0  0  0  0
  181.3370  177.5860  136.3120 N   0  0  0  0  0  0  0  0  0  0  0  0
  179.0240  176.7940  136.4670 C   0  0  0  0  0  1  0  0  0  0  0  0
  180.0750  177.8450  136.2750 C   0  0  0  0  0  3  0  0  0  0  0  0
  185.7530  177.8650  134.6140 O   0  0  0  0  0  0  0  0  0  0  0  0
  184.8010  177.5340  135.7550 S   0  0  2  0  0  0  0  0  0  0  0  0
  185.8920  177.2820  137.1730 C   0  0  0  0  0  2  0  0  0  0  0  0
  185.7030  178.3810  138.2000 C   0  0  0  0  0  1  0  0  0  0  0  0
  182.1260  174.4430  134.8070 C   0  0  0  0  0  2  0  0  0  0  0  0
  179.8090  173.8840  134.9930 O   0  0  0  0  0  1  0  0  0  0  0  0
  181.0090  173.9370  135.7040 C   0  0  1  0  0  3  0  0  0  0  0  0
  181.3560  172.5490  136.1960 C   0  0  0  0  0  1  0  0  0  0  0  0
  1  3  1  0  0  0  0
  1 17  1  1  0  0  0
  2 27  1  1  0  0  0
  2  8  1  0  0  0  0
  2 11  1  0  0  0  0
  4  5  2  0  0  0  0
  4  9  1  0  0  0  0
  5  7  1  0  0  0  0
  7  6  2  0  0  0  0
  7  3  1  0  0  0  0
  8 24  1  1  0  0  0
  8  5  1  0  0  0  0
  9 10  2  0  0  0  0
 10  6  1  0  0  0  0
 11 20  1  6  0  0  0
 11  1  1  0  0  0  0
 12 13  1  0  0  0  0
 13 18  2  0  0  0  0
 14 12  1  0  0  0  0
 15 19  2  0  0  0  0
 17 12  2  0  0  0  0
 17 15  1  0  0  0  0
 19 18  1  0  0  0  0
 19 16  1  0  0  0  0
 22 20  2  0  0  0  0
 22 21  1  0  0  0  0
 24 23  2  6  0  0  0
 24 25  1  0  0  0  0
 25 26  1  0  0  0  0
 27 29  1  0  0  0  0
 28 29  1  0  0  0  0
 29 30  1  6  0  0  0
M  END
>  <MODEL>
9

>  <REMARK>
 VINA RESULT:      -3.4      3.350      6.696
  Name = 
  6 active torsions:
  status: ('A' for Active; 'I' for Inactive)
    1  A    between atoms: C_1  and  C_22
    2  A    between atoms: C_4  and  C_25
    3  A    between atoms: C_7  and  S_30
    4  A    between atoms: N_10  and  C_23
    5  A    between atoms: C_11  and  C_25
    6  A    between atoms: C_13  and  S_30
                            x       y       z     vdW  Elec       q    Type
                         _______ _______ _______ _____ _____    ______ ____

>  <TORSDO>
F 6

$$$$
