=
 OpenBabel10262423233D

 34 37  0  0  1  0  0  0  0  0999 V2000
  187.8810  177.8950  140.8890 C   0  0  0  0  0  0  0  0  0  0  0  0
  187.5600  177.2090  144.4610 C   0  0  0  0  0  3  0  0  0  0  0  0
  189.4030  176.6710  142.9860 C   0  0  0  0  0  3  0  0  0  0  0  0
  187.5230  178.3830  138.4450 N   0  0  0  0  0  0  0  0  0  0  0  0
  187.0840  178.3600  139.7810 N   0  0  0  0  0  2  0  0  0  0  0  0
  189.3740  176.7800  138.3040 C   0  0  0  0  0  2  0  0  0  0  0  0
  191.3160  177.4320  139.5440 O   0  0  0  0  0  1  0  0  0  0  0  0
  187.8820  177.0200  138.0780 C   0  0  0  0  0  2  0  0  0  0  0  0
  189.9420  176.7660  141.7730 C   0  0  0  0  0  3  0  0  0  0  0  0
  189.2420  177.4200  140.6940 N   0  0  0  0  0  0  0  0  0  0  0  0
  189.9400  177.6510  139.4240 C   0  0  2  0  0  3  0  0  0  0  0  0
  186.2340  177.7760  144.7600 C   0  0  0  0  0  0  0  0  0  0  0  0
  185.4820  178.2890  143.7750 C   0  0  0  0  0  3  0  0  0  0  0  0
  188.0750  177.2370  143.2310 C   0  0  0  0  0  0  0  0  0  0  0  0
  185.8920  178.2790  142.3260 C   0  0  0  0  0  2  0  0  0  0  0  0
  187.3180  177.8340  142.1100 C   0  0  0  0  0  0  0  0  0  0  0  0
  186.3750  178.7480  137.6310 C   0  0  0  0  0  2  0  0  0  0  0  0
  183.3090  179.1430  139.8140 C   0  0  0  0  0  3  0  0  0  0  0  0
  184.5140  177.1870  138.2260 C   0  0  0  0  0  3  0  0  0  0  0  0
  182.7050  177.8860  139.6850 C   0  0  0  0  0  0  0  0  0  0  0  0
  183.3130  176.8950  138.8870 C   0  0  0  0  0  0  0  0  0  0  0  0
  185.1130  178.4420  138.3620 C   0  0  0  0  0  0  0  0  0  0  0  0
  184.5060  179.4210  139.1520 C   0  0  0  0  0  3  0  0  0  0  0  0
  182.6980  175.5660  138.7360 C   0  0  0  0  0  3  0  0  0  0  0  0
  181.9770  175.2870  137.7420 O   0  0  0  0  0  0  0  0  0  0  0  0
  181.4320  177.6250  140.4250 C   0  0  0  0  0  2  0  0  0  0  0  0
  180.9820  178.8810  141.1530 C   0  0  0  0  0  2  0  0  0  0  0  0
  180.7160  178.5770  142.5890 C   0  0  0  0  0  0  0  0  0  0  0  0
  181.7360  178.9200  143.6210 C   0  0  0  0  0  1  0  0  0  0  0  0
  179.6600  178.0650  142.9250 O   0  0  0  0  0  0  0  0  0  0  0  0
  185.8090  177.7680  146.1000 O   0  0  0  0  0  0  0  0  0  0  0  0
  185.7140  179.7050  147.3860 O   0  0  0  0  0  0  0  0  0  0  0  0
  187.4400  178.1760  147.9340 C   0  0  0  0  0  1  0  0  0  0  0  0
  186.2700  178.6050  147.1260 C   0  0  0  0  0  0  0  0  0  0  0  0
  1 16  2  0  0  0  0
  2 12  1  0  0  0  0
  3 14  1  0  0  0  0
  4  5  1  0  0  0  0
  5  1  1  0  0  0  0
  6 11  1  0  0  0  0
  8  6  1  0  0  0  0
  8  4  1  0  0  0  0
  9  3  2  0  0  0  0
 10  1  1  0  0  0  0
 10  9  1  0  0  0  0
 11  7  1  1  0  0  0
 11 10  1  0  0  0  0
 12 31  1  0  0  0  0
 13 12  2  0  0  0  0
 14  2  2  0  0  0  0
 15 13  1  0  0  0  0
 16 15  1  0  0  0  0
 16 14  1  0  0  0  0
 17 22  1  0  0  0  0
 17  4  1  0  0  0  0
 19 22  2  0  0  0  0
 19 21  1  0  0  0  0
 20 18  1  0  0  0  0
 20 26  1  0  0  0  0
 21 20  2  0  0  0  0
 22 23  1  0  0  0  0
 23 18  2  0  0  0  0
 24 21  1  0  0  0  0
 25 24  2  0  0  0  0
 26 27  1  0  0  0  0
 27 28  1  0  0  0  0
 28 30  2  0  0  0  0
 28 29  1  0  0  0  0
 31 34  1  0  0  0  0
 34 32  2  0  0  0  0
 34 33  1  0  0  0  0
M  END
>  <MODEL>
1

>  <REMARK>
 VINA RESULT:      -8.3      0.000      0.000
  Name = 
  8 active torsions:
  status: ('A' for Active; 'I' for Inactive)
    1  A    between atoms: C_7  and  C_11
    2  A    between atoms: C_7  and  C_14
    3  A    between atoms: N_8  and  C_18
    4  A    between atoms: C_14  and  C_16
    5  A    between atoms: C_18  and  C_30
    6  A    between atoms: O_23  and  C_24
    7  A    between atoms: O_23  and  C_25
    8  A    between atoms: C_26  and  C_28
                            x       y       z     vdW  Elec       q    Type
                         _______ _______ _______ _____ _____    ______ ____

>  <TORSDO>
F 8

$$$$
=
 OpenBabel10262423233D

 34 37  0  0  1  0  0  0  0  0999 V2000
  186.9850  177.9690  144.6650 C   0  0  0  0  0  0  0  0  0  0  0  0
  189.7950  177.4790  146.9430 C   0  0  0  0  0  3  0  0  0  0  0  0
  187.5770  178.3060  147.4480 C   0  0  0  0  0  3  0  0  0  0  0  0
  185.4630  178.3380  142.6930 N   0  0  0  0  0  0  0  0  0  0  0  0
  186.6980  177.9630  143.2520 N   0  0  0  0  0  2  0  0  0  0  0  0
  184.3460  179.7320  144.3740 C   0  0  0  0  0  2  0  0  0  0  0  0
  183.7250  178.5450  146.3580 O   0  0  0  0  0  1  0  0  0  0  0  0
  185.1950  179.7100  143.1040 C   0  0  0  0  0  2  0  0  0  0  0  0
  186.3440  178.5650  147.0180 C   0  0  0  0  0  3  0  0  0  0  0  0
  185.9770  178.3620  145.6390 N   0  0  0  0  0  0  0  0  0  0  0  0
  184.5700  178.4980  145.2450 C   0  0  2  0  0  3  0  0  0  0  0  0
  190.8340  176.9630  146.0350 C   0  0  0  0  0  0  0  0  0  0  0  0
  190.5920  176.8670  144.7190 C   0  0  0  0  0  3  0  0  0  0  0  0
  188.5800  177.8090  146.5050 C   0  0  0  0  0  0  0  0  0  0  0  0
  189.3060  177.3130  144.0760 C   0  0  0  0  0  2  0  0  0  0  0  0
  188.2330  177.6780  145.0730 C   0  0  0  0  0  0  0  0  0  0  0  0
  185.6440  178.3600  141.2510 C   0  0  0  0  0  2  0  0  0  0  0  0
  183.1580  179.7800  138.7760 C   0  0  0  0  0  3  0  0  0  0  0  0
  183.1520  178.2190  141.0920 C   0  0  0  0  0  3  0  0  0  0  0  0
  181.9450  179.3000  139.2840 C   0  0  0  0  0  0  0  0  0  0  0  0
  181.9380  178.5150  140.4550 C   0  0  0  0  0  0  0  0  0  0  0  0
  184.3580  178.7050  140.5810 C   0  0  0  0  0  0  0  0  0  0  0  0
  184.3610  179.4810  139.4190 C   0  0  0  0  0  3  0  0  0  0  0  0
  180.6760  177.9990  141.0100 C   0  0  0  0  0  3  0  0  0  0  0  0
  180.1430  178.5270  142.0220 O   0  0  0  0  0  0  0  0  0  0  0  0
  180.6800  179.6590  138.5730 C   0  0  0  0  0  2  0  0  0  0  0  0
  180.3140  181.1080  138.8520 C   0  0  0  0  0  2  0  0  0  0  0  0
  180.5980  181.9510  137.6540 C   0  0  0  0  0  0  0  0  0  0  0  0
  180.3940  181.3900  136.2880 C   0  0  0  0  0  1  0  0  0  0  0  0
  180.9790  183.1020  137.7880 O   0  0  0  0  0  0  0  0  0  0  0  0
  192.0590  176.5710  146.6020 O   0  0  0  0  0  0  0  0  0  0  0  0
  191.6260  174.6520  147.8460 O   0  0  0  0  0  0  0  0  0  0  0  0
  193.1670  176.1820  148.7960 C   0  0  0  0  0  1  0  0  0  0  0  0
  192.2340  175.7490  147.7250 C   0  0  0  0  0  0  0  0  0  0  0  0
  1 16  2  0  0  0  0
  1 10  1  0  0  0  0
  4  8  1  0  0  0  0
  4  5  1  0  0  0  0
  5  1  1  0  0  0  0
  6 11  1  0  0  0  0
  8  6  1  0  0  0  0
  9  3  2  0  0  0  0
 10  9  1  0  0  0  0
 11 10  1  0  0  0  0
 11  7  1  1  0  0  0
 12 31  1  0  0  0  0
 12  2  1  0  0  0  0
 13 12  2  0  0  0  0
 14  2  2  0  0  0  0
 14  3  1  0  0  0  0
 15 13  1  0  0  0  0
 15 16  1  0  0  0  0
 16 14  1  0  0  0  0
 17  4  1  0  0  0  0
 18 20  2  0  0  0  0
 18 23  1  0  0  0  0
 20 21  1  0  0  0  0
 21 24  1  0  0  0  0
 21 19  2  0  0  0  0
 22 19  1  0  0  0  0
 22 17  1  0  0  0  0
 23 22  2  0  0  0  0
 24 25  2  0  0  0  0
 26 27  1  0  0  0  0
 26 20  1  0  0  0  0
 28 30  2  0  0  0  0
 28 27  1  0  0  0  0
 29 28  1  0  0  0  0
 31 34  1  0  0  0  0
 34 32  2  0  0  0  0
 34 33  1  0  0  0  0
M  END
>  <MODEL>
2

>  <REMARK>
 VINA RESULT:      -7.9      3.373      5.360
  Name = 
  8 active torsions:
  status: ('A' for Active; 'I' for Inactive)
    1  A    between atoms: C_7  and  C_11
    2  A    between atoms: C_7  and  C_14
    3  A    between atoms: N_8  and  C_18
    4  A    between atoms: C_14  and  C_16
    5  A    between atoms: C_18  and  C_30
    6  A    between atoms: O_23  and  C_24
    7  A    between atoms: O_23  and  C_25
    8  A    between atoms: C_26  and  C_28
                            x       y       z     vdW  Elec       q    Type
                         _______ _______ _______ _____ _____    ______ ____

>  <TORSDO>
F 8

$$$$
=
 OpenBabel10262423233D

 34 37  0  0  1  0  0  0  0  0999 V2000
  186.9000  177.9480  142.9690 C   0  0  0  0  0  0  0  0  0  0  0  0
  190.3100  177.5350  141.7340 C   0  0  0  0  0  3  0  0  0  0  0  0
  189.5370  177.5830  144.0280 C   0  0  0  0  0  3  0  0  0  0  0  0
  184.4630  178.4860  143.3060 N   0  0  0  0  0  0  0  0  0  0  0  0
  185.5850  178.2890  142.4830 N   0  0  0  0  0  2  0  0  0  0  0  0
  185.3350  178.9880  145.5440 C   0  0  0  0  0  2  0  0  0  0  0  0
  186.4690  177.1480  146.5740 O   0  0  0  0  0  1  0  0  0  0  0  0
  184.7870  179.5600  144.2380 C   0  0  0  0  0  2  0  0  0  0  0  0
  188.5090  177.6360  144.8710 C   0  0  0  0  0  3  0  0  0  0  0  0
  187.1550  177.7650  144.3900 N   0  0  0  0  0  0  0  0  0  0  0  0
  186.0430  177.6500  145.3410 C   0  0  2  0  0  3  0  0  0  0  0  0
  190.1130  177.5930  140.2750 C   0  0  0  0  0  0  0  0  0  0  0  0
  188.8950  177.8340  139.7690 C   0  0  0  0  0  3  0  0  0  0  0  0
  189.2920  177.6600  142.5860 C   0  0  0  0  0  0  0  0  0  0  0  0
  187.6820  178.1080  140.6180 C   0  0  0  0  0  2  0  0  0  0  0  0
  187.9160  177.8760  142.0910 C   0  0  0  0  0  0  0  0  0  0  0  0
  183.3960  178.9800  142.4520 C   0  0  0  0  0  2  0  0  0  0  0  0
  184.6270  178.8830  138.8750 C   0  0  0  0  0  3  0  0  0  0  0  0
  183.0880  177.3220  140.6050 C   0  0  0  0  0  3  0  0  0  0  0  0
  184.0950  177.6690  138.4240 C   0  0  0  0  0  0  0  0  0  0  0  0
  183.3140  176.8800  139.2940 C   0  0  0  0  0  0  0  0  0  0  0  0
  183.6200  178.5360  141.0470 C   0  0  0  0  0  0  0  0  0  0  0  0
  184.3940  179.3130  140.1820 C   0  0  0  0  0  3  0  0  0  0  0  0
  182.7430  175.6020  138.8430 C   0  0  0  0  0  3  0  0  0  0  0  0
  181.5630  175.2710  139.1400 O   0  0  0  0  0  0  0  0  0  0  0  0
  184.3550  177.2550  137.0110 C   0  0  0  0  0  2  0  0  0  0  0  0
  185.7920  176.7840  136.8590 C   0  0  0  0  0  2  0  0  0  0  0  0
  186.5280  177.6720  135.9120 C   0  0  0  0  0  0  0  0  0  0  0  0
  187.5580  178.6170  136.4300 C   0  0  0  0  0  1  0  0  0  0  0  0
  186.3030  177.6140  134.7130 O   0  0  0  0  0  0  0  0  0  0  0  0
  191.2350  177.3750  139.4570 O   0  0  0  0  0  0  0  0  0  0  0  0
  190.7030  175.2660  138.6270 O   0  0  0  0  0  0  0  0  0  0  0  0
  192.5490  176.3490  137.6090 C   0  0  0  0  0  1  0  0  0  0  0  0
  191.4390  176.2880  138.5940 C   0  0  0  0  0  0  0  0  0  0  0  0
  1 10  1  0  0  0  0
  2 14  2  0  0  0  0
  3  9  2  0  0  0  0
  4  8  1  0  0  0  0
  5  1  1  0  0  0  0
  5  4  1  0  0  0  0
  8  6  1  0  0  0  0
 10  9  1  0  0  0  0
 10 11  1  0  0  0  0
 11  6  1  0  0  0  0
 11  7  1  1  0  0  0
 12  2  1  0  0  0  0
 13 12  2  0  0  0  0
 13 15  1  0  0  0  0
 14  3  1  0  0  0  0
 15 16  1  0  0  0  0
 16 14  1  0  0  0  0
 16  1  2  0  0  0  0
 17  4  1  0  0  0  0
 18 23  1  0  0  0  0
 19 22  1  0  0  0  0
 20 18  2  0  0  0  0
 20 21  1  0  0  0  0
 21 19  2  0  0  0  0
 22 17  1  0  0  0  0
 23 22  2  0  0  0  0
 24 25  2  0  0  0  0
 24 21  1  0  0  0  0
 26 20  1  0  0  0  0
 27 26  1  0  0  0  0
 28 29  1  0  0  0  0
 28 27  1  0  0  0  0
 30 28  2  0  0  0  0
 31 12  1  0  0  0  0
 33 34  1  0  0  0  0
 34 32  2  0  0  0  0
 34 31  1  0  0  0  0
M  END
>  <MODEL>
3

>  <REMARK>
 VINA RESULT:      -7.7      2.052      6.077
  Name = 
  8 active torsions:
  status: ('A' for Active; 'I' for Inactive)
    1  A    between atoms: C_7  and  C_11
    2  A    between atoms: C_7  and  C_14
    3  A    between atoms: N_8  and  C_18
    4  A    between atoms: C_14  and  C_16
    5  A    between atoms: C_18  and  C_30
    6  A    between atoms: O_23  and  C_24
    7  A    between atoms: O_23  and  C_25
    8  A    between atoms: C_26  and  C_28
                            x       y       z     vdW  Elec       q    Type
                         _______ _______ _______ _____ _____    ______ ____

>  <TORSDO>
F 8

$$$$
=
 OpenBabel10262423233D

 34 37  0  0  1  0  0  0  0  0999 V2000
  187.7250  178.0020  142.8620 C   0  0  0  0  0  0  0  0  0  0  0  0
  184.7750  178.3830  144.9790 C   0  0  0  0  0  3  0  0  0  0  0  0
  187.0480  177.8800  145.6440 C   0  0  0  0  0  3  0  0  0  0  0  0
  189.3680  177.6200  140.9930 N   0  0  0  0  0  0  0  0  0  0  0  0
  188.0740  177.9000  141.4660 N   0  0  0  0  0  2  0  0  0  0  0  0
  190.5600  176.5450  142.8480 C   0  0  0  0  0  2  0  0  0  0  0  0
  190.9480  177.9920  144.7160 O   0  0  0  0  0  1  0  0  0  0  0  0
  189.7730  176.3380  141.5550 C   0  0  0  0  0  2  0  0  0  0  0  0
  188.3200  177.7280  145.2850 C   0  0  0  0  0  3  0  0  0  0  0  0
  188.7250  177.8320  143.9050 N   0  0  0  0  0  0  0  0  0  0  0  0
  190.1550  177.8250  143.5760 C   0  0  2  0  0  3  0  0  0  0  0  0
  183.7260  178.6770  143.9870 C   0  0  0  0  0  0  0  0  0  0  0  0
  184.0160  178.6680  142.6770 C   0  0  0  0  0  3  0  0  0  0  0  0
  186.0390  178.1570  144.6190 C   0  0  0  0  0  0  0  0  0  0  0  0
  185.3730  178.3160  142.1290 C   0  0  0  0  0  2  0  0  0  0  0  0
  186.4340  178.1830  143.1950 C   0  0  0  0  0  0  0  0  0  0  0  0
  189.2580  177.4320  139.5550 C   0  0  0  0  0  2  0  0  0  0  0  0
  192.9390  176.8310  138.9140 C   0  0  0  0  0  3  0  0  0  0  0  0
  190.4760  175.7430  138.1700 C   0  0  0  0  0  3  0  0  0  0  0  0
  192.9010  175.7220  138.0600 C   0  0  0  0  0  0  0  0  0  0  0  0
  191.6590  175.1720  137.6790 C   0  0  0  0  0  0  0  0  0  0  0  0
  190.5210  176.8520  139.0180 C   0  0  0  0  0  0  0  0  0  0  0  0
  191.7540  177.3910  139.3950 C   0  0  0  0  0  3  0  0  0  0  0  0
  191.5930  174.0080  136.7820 C   0  0  0  0  0  3  0  0  0  0  0  0
  190.9730  174.0610  135.6860 O   0  0  0  0  0  0  0  0  0  0  0  0
  194.1930  175.1640  137.5550 C   0  0  0  0  0  2  0  0  0  0  0  0
  195.0550  174.7030  138.7190 C   0  0  0  0  0  2  0  0  0  0  0  0
  195.5430  173.3130  138.4800 C   0  0  0  0  0  0  0  0  0  0  0  0
  196.6440  173.0710  137.5050 C   0  0  0  0  0  1  0  0  0  0  0  0
  195.0560  172.3770  139.0940 O   0  0  0  0  0  0  0  0  0  0  0  0
  182.4400  178.9760  144.4670 O   0  0  0  0  0  0  0  0  0  0  0  0
  181.0460  179.8770  142.8350 O   0  0  0  0  0  0  0  0  0  0  0  0
  180.2220  177.9640  143.9670 C   0  0  0  0  0  1  0  0  0  0  0  0
  181.2550  179.0020  143.7170 C   0  0  0  0  0  0  0  0  0  0  0  0
  1 16  2  0  0  0  0
  1 10  1  0  0  0  0
  4  5  1  0  0  0  0
  4  8  1  0  0  0  0
  5  1  1  0  0  0  0
  6 11  1  0  0  0  0
  8  6  1  0  0  0  0
  9  3  2  0  0  0  0
 10  9  1  0  0  0  0
 11 10  1  0  0  0  0
 11  7  1  1  0  0  0
 12 31  1  0  0  0  0
 12  2  1  0  0  0  0
 13 12  2  0  0  0  0
 14  2  2  0  0  0  0
 14  3  1  0  0  0  0
 15 13  1  0  0  0  0
 15 16  1  0  0  0  0
 16 14  1  0  0  0  0
 17  4  1  0  0  0  0
 18 23  1  0  0  0  0
 19 22  1  0  0  0  0
 20 18  2  0  0  0  0
 21 20  1  0  0  0  0
 21 19  2  0  0  0  0
 22 23  2  0  0  0  0
 22 17  1  0  0  0  0
 24 21  1  0  0  0  0
 25 24  2  0  0  0  0
 26 20  1  0  0  0  0
 26 27  1  0  0  0  0
 28 27  1  0  0  0  0
 28 30  2  0  0  0  0
 29 28  1  0  0  0  0
 32 34  2  0  0  0  0
 34 33  1  0  0  0  0
 34 31  1  0  0  0  0
M  END
>  <MODEL>
4

>  <REMARK>
 VINA RESULT:      -7.7      3.327      7.993
  Name = 
  8 active torsions:
  status: ('A' for Active; 'I' for Inactive)
    1  A    between atoms: C_7  and  C_11
    2  A    between atoms: C_7  and  C_14
    3  A    between atoms: N_8  and  C_18
    4  A    between atoms: C_14  and  C_16
    5  A    between atoms: C_18  and  C_30
    6  A    between atoms: O_23  and  C_24
    7  A    between atoms: O_23  and  C_25
    8  A    between atoms: C_26  and  C_28
                            x       y       z     vdW  Elec       q    Type
                         _______ _______ _______ _____ _____    ______ ____

>  <TORSDO>
F 8

$$$$
=
 OpenBabel10262423233D

 34 37  0  0  1  0  0  0  0  0999 V2000
  188.2100  177.8050  140.9110 C   0  0  0  0  0  0  0  0  0  0  0  0
  187.7350  177.0820  144.4580 C   0  0  0  0  0  3  0  0  0  0  0  0
  189.5980  176.4750  143.0360 C   0  0  0  0  0  3  0  0  0  0  0  0
  187.9600  178.3480  138.4650 N   0  0  0  0  0  0  0  0  0  0  0  0
  187.4750  178.3260  139.7840 N   0  0  0  0  0  2  0  0  0  0  0  0
  189.7340  176.6570  138.3580 C   0  0  0  0  0  2  0  0  0  0  0  0
  191.6620  177.1930  139.6730 O   0  0  0  0  0  1  0  0  0  0  0  0
  188.2640  176.9730  138.0870 C   0  0  0  0  0  2  0  0  0  0  0  0
  190.1820  176.5620  141.8430 C   0  0  0  0  0  3  0  0  0  0  0  0
  189.5520  177.2660  140.7530 N   0  0  0  0  0  0  0  0  0  0  0  0
  190.3030  177.4810  139.5110 C   0  0  2  0  0  3  0  0  0  0  0  0
  186.4280  177.7090  144.7220 C   0  0  0  0  0  0  0  0  0  0  0  0
  185.7370  178.2730  143.7210 C   0  0  0  0  0  3  0  0  0  0  0  0
  188.2920  177.1030  143.2460 C   0  0  0  0  0  0  0  0  0  0  0  0
  186.1950  178.2650  142.2870 C   0  0  0  0  0  2  0  0  0  0  0  0
  187.6040  177.7540  142.1110 C   0  0  0  0  0  0  0  0  0  0  0  0
  186.8600  178.7810  137.6190 C   0  0  0  0  0  2  0  0  0  0  0  0
  184.0550  176.2650  137.9680 C   0  0  0  0  0  3  0  0  0  0  0  0
  184.7880  178.7470  139.0200 C   0  0  0  0  0  3  0  0  0  0  0  0
  183.2410  176.8780  138.9290 C   0  0  0  0  0  0  0  0  0  0  0  0
  183.6060  178.1320  139.4600 C   0  0  0  0  0  0  0  0  0  0  0  0
  185.5920  178.1310  138.0580 C   0  0  0  0  0  0  0  0  0  0  0  0
  185.2280  176.8870  137.5370 C   0  0  0  0  0  3  0  0  0  0  0  0
  182.7680  178.7970  140.4690 C   0  0  0  0  0  3  0  0  0  0  0  0
  182.9040  178.5520  141.6980 O   0  0  0  0  0  0  0  0  0  0  0  0
  181.9850  176.1840  139.3500 C   0  0  0  0  0  2  0  0  0  0  0  0
  180.8340  176.5890  138.4450 C   0  0  0  0  0  2  0  0  0  0  0  0
  179.6910  177.0960  139.2600 C   0  0  0  0  0  0  0  0  0  0  0  0
  179.3460  176.4290  140.5480 C   0  0  0  0  0  1  0  0  0  0  0  0
  179.0500  178.0650  138.8860 O   0  0  0  0  0  0  0  0  0  0  0  0
  185.9580  177.7010  146.0460 O   0  0  0  0  0  0  0  0  0  0  0  0
  185.6820  179.6180  147.3380 O   0  0  0  0  0  0  0  0  0  0  0  0
  187.5520  178.2630  147.8720 C   0  0  0  0  0  1  0  0  0  0  0  0
  186.3410  178.5770  147.0730 C   0  0  0  0  0  0  0  0  0  0  0  0
  1 16  2  0  0  0  0
  2 12  1  0  0  0  0
  3 14  1  0  0  0  0
  4  5  1  0  0  0  0
  5  1  1  0  0  0  0
  6 11  1  0  0  0  0
  8  6  1  0  0  0  0
  8  4  1  0  0  0  0
  9  3  2  0  0  0  0
 10  1  1  0  0  0  0
 10  9  1  0  0  0  0
 11  7  1  1  0  0  0
 11 10  1  0  0  0  0
 12 31  1  0  0  0  0
 13 12  2  0  0  0  0
 14  2  2  0  0  0  0
 15 13  1  0  0  0  0
 16 15  1  0  0  0  0
 16 14  1  0  0  0  0
 17 22  1  0  0  0  0
 17  4  1  0  0  0  0
 18 20  1  0  0  0  0
 19 21  1  0  0  0  0
 20 26  1  0  0  0  0
 20 21  2  0  0  0  0
 21 24  1  0  0  0  0
 22 19  2  0  0  0  0
 23 18  2  0  0  0  0
 23 22  1  0  0  0  0
 24 25  2  0  0  0  0
 27 28  1  0  0  0  0
 27 26  1  0  0  0  0
 28 29  1  0  0  0  0
 30 28  2  0  0  0  0
 31 34  1  0  0  0  0
 34 32  2  0  0  0  0
 34 33  1  0  0  0  0
M  END
>  <MODEL>
5

>  <REMARK>
 VINA RESULT:      -7.6      1.368      2.032
  Name = 
  8 active torsions:
  status: ('A' for Active; 'I' for Inactive)
    1  A    between atoms: C_7  and  C_11
    2  A    between atoms: C_7  and  C_14
    3  A    between atoms: N_8  and  C_18
    4  A    between atoms: C_14  and  C_16
    5  A    between atoms: C_18  and  C_30
    6  A    between atoms: O_23  and  C_24
    7  A    between atoms: O_23  and  C_25
    8  A    between atoms: C_26  and  C_28
                            x       y       z     vdW  Elec       q    Type
                         _______ _______ _______ _____ _____    ______ ____

>  <TORSDO>
F 8

$$$$
=
 OpenBabel10262423233D

 34 37  0  0  1  0  0  0  0  0999 V2000
  185.5680  177.8680  137.9360 C   0  0  0  0  0  0  0  0  0  0  0  0
  181.9590  178.3550  138.1910 C   0  0  0  0  0  3  0  0  0  0  0  0
  183.2240  177.4250  136.3480 C   0  0  0  0  0  3  0  0  0  0  0  0
  188.0740  177.9520  138.1580 N   0  0  0  0  0  0  0  0  0  0  0  0
  186.7790  178.2170  138.6360 N   0  0  0  0  0  2  0  0  0  0  0  0
  187.8610  177.6460  135.7330 C   0  0  0  0  0  2  0  0  0  0  0  0
  186.6230  175.6940  135.1100 O   0  0  0  0  0  1  0  0  0  0  0  0
  188.2080  178.6120  136.8650 C   0  0  0  0  0  2  0  0  0  0  0  0
  184.4040  177.0310  135.8750 C   0  0  0  0  0  3  0  0  0  0  0  0
  185.6080  177.1810  136.6540 N   0  0  0  0  0  0  0  0  0  0  0  0
  186.8560  176.5810  136.1650 C   0  0  2  0  0  3  0  0  0  0  0  0
  181.8270  178.9490  139.5320 C   0  0  0  0  0  0  0  0  0  0  0  0
  182.9220  179.2260  140.2570 C   0  0  0  0  0  3  0  0  0  0  0  0
  183.1460  178.0240  137.6820 C   0  0  1  0  0  3  0  0  0  0  0  0
  184.3250  179.0110  139.7570 C   0  0  0  0  0  3  0  0  0  0  0  0
  184.3870  178.2560  138.4510 C   0  0  0  0  0  0  0  0  0  0  0  0
  189.0000  178.6120  139.0640 C   0  0  0  0  0  2  0  0  0  0  0  0
  187.4570  178.1320  142.4850 C   0  0  0  0  0  3  0  0  0  0  0  0
  189.6430  177.1940  141.0210 C   0  0  0  0  0  3  0  0  0  0  0  0
  188.3220  177.1910  143.0570 C   0  0  0  0  0  0  0  0  0  0  0  0
  189.4280  176.7180  142.3220 C   0  0  0  0  0  0  0  0  0  0  0  0
  188.7780  178.1360  140.4580 C   0  0  0  0  0  0  0  0  0  0  0  0
  187.6820  178.6000  141.1890 C   0  0  0  0  0  3  0  0  0  0  0  0
  190.3520  175.7300  142.9020 C   0  0  0  0  0  3  0  0  0  0  0  0
  191.4420  176.0830  143.4270 O   0  0  0  0  0  0  0  0  0  0  0  0
  188.0540  176.7300  144.4540 C   0  0  0  0  0  2  0  0  0  0  0  0
  188.3790  177.8370  145.4430 C   0  0  0  0  0  2  0  0  0  0  0  0
  187.4220  177.8030  146.5880 C   0  0  0  0  0  0  0  0  0  0  0  0
  186.0180  178.2650  146.3950 C   0  0  0  0  0  1  0  0  0  0  0  0
  187.7800  177.3810  147.6760 O   0  0  0  0  0  0  0  0  0  0  0  0
  180.5300  179.1940  140.0130 O   0  0  0  0  0  0  0  0  0  0  0  0
  180.0330  180.6560  141.7540 O   0  0  0  0  0  0  0  0  0  0  0  0
  179.9380  178.3460  142.2770 C   0  0  0  0  0  1  0  0  0  0  0  0
  180.1700  179.4750  141.3390 C   0  0  0  0  0  0  0  0  0  0  0  0
  1 16  2  0  0  0  0
  1  5  1  0  0  0  0
  2 12  2  0  0  0  0
  4  5  1  0  0  0  0
  4 17  1  0  0  0  0
  6 11  1  0  0  0  0
  6  8  1  0  0  0  0
  8  4  1  0  0  0  0
  9  3  2  0  0  0  0
  9 10  1  0  0  0  0
 10  1  1  0  0  0  0
 11  7  1  6  0  0  0
 11 10  1  0  0  0  0
 12 31  1  0  0  0  0
 12 13  1  0  0  0  0
 14  3  1  6  0  0  0
 14  2  1  0  0  0  0
 14 16  1  0  0  0  0
 15 13  2  0  0  0  0
 16 15  1  0  0  0  0
 17 22  1  0  0  0  0
 18 20  1  0  0  0  0
 19 21  1  0  0  0  0
 20 26  1  0  0  0  0
 21 24  1  0  0  0  0
 21 20  2  0  0  0  0
 22 19  2  0  0  0  0
 22 23  1  0  0  0  0
 23 18  2  0  0  0  0
 24 25  2  0  0  0  0
 26 27  1  0  0  0  0
 27 28  1  0  0  0  0
 28 30  2  0  0  0  0
 29 28  1  0  0  0  0
 31 34  1  0  0  0  0
 34 32  2  0  0  0  0
 34 33  1  0  0  0  0
M  END
>  <MODEL>
6

>  <REMARK>
 VINA RESULT:      -7.6      1.954      6.636
  Name = 
  8 active torsions:
  status: ('A' for Active; 'I' for Inactive)
    1  A    between atoms: C_7  and  C_11
    2  A    between atoms: C_7  and  C_14
    3  A    between atoms: N_8  and  C_18
    4  A    between atoms: C_14  and  C_16
    5  A    between atoms: C_18  and  C_30
    6  A    between atoms: O_23  and  C_24
    7  A    between atoms: O_23  and  C_25
    8  A    between atoms: C_26  and  C_28
                            x       y       z     vdW  Elec       q    Type
                         _______ _______ _______ _____ _____    ______ ____

>  <TORSDO>
F 8

$$$$
=
 OpenBabel10262423233D

 34 37  0  0  1  0  0  0  0  0999 V2000
  188.5420  177.8550  140.9230 C   0  0  0  0  0  0  0  0  0  0  0  0
  187.6950  177.1930  144.4120 C   0  0  0  0  0  3  0  0  0  0  0  0
  189.6720  176.5150  143.1900 C   0  0  0  0  0  3  0  0  0  0  0  0
  188.5520  178.3710  138.4580 N   0  0  0  0  0  0  0  0  0  0  0  0
  187.9380  178.3810  139.7230 N   0  0  0  0  0  2  0  0  0  0  0  0
  190.2780  176.6290  138.5470 C   0  0  0  0  0  2  0  0  0  0  0  0
  192.0800  177.1290  140.0420 O   0  0  0  0  0  1  0  0  0  0  0  0
  188.8520  176.9840  138.1270 C   0  0  0  0  0  2  0  0  0  0  0  0
  190.3740  176.5690  142.0600 C   0  0  0  0  0  3  0  0  0  0  0  0
  189.8760  177.2760  140.9060 N   0  0  0  0  0  0  0  0  0  0  0  0
  190.7530  177.4530  139.7420 C   0  0  2  0  0  3  0  0  0  0  0  0
  186.3870  177.8600  144.5380 C   0  0  0  0  0  0  0  0  0  0  0  0
  185.8160  178.4300  143.4670 C   0  0  0  0  0  3  0  0  0  0  0  0
  188.3700  177.1810  143.2620 C   0  0  0  0  0  0  0  0  0  0  0  0
  186.4140  178.3900  142.0860 C   0  0  0  0  0  2  0  0  0  0  0  0
  187.8180  177.8360  142.0570 C   0  0  0  0  0  0  0  0  0  0  0  0
  187.5550  178.8240  137.5030 C   0  0  0  0  0  2  0  0  0  0  0  0
  184.0780  177.8920  138.6710 C   0  0  0  0  0  3  0  0  0  0  0  0
  186.0820  176.8610  137.0220 C   0  0  0  0  0  3  0  0  0  0  0  0
  183.8700  176.6790  138.0030 C   0  0  0  0  0  0  0  0  0  0  0  0
  184.8810  176.1540  137.1720 C   0  0  0  0  0  0  0  0  0  0  0  0
  186.2840  178.0680  137.6940 C   0  0  0  0  0  0  0  0  0  0  0  0
  185.2790  178.5860  138.5140 C   0  0  0  0  0  3  0  0  0  0  0  0
  184.6860  174.8800  136.4610 C   0  0  0  0  0  3  0  0  0  0  0  0
  185.0830  173.7900  136.9520 O   0  0  0  0  0  0  0  0  0  0  0  0
  182.5750  175.9610  138.2130 C   0  0  0  0  0  2  0  0  0  0  0  0
  182.1880  175.9960  139.6820 C   0  0  0  0  0  2  0  0  0  0  0  0
  180.7710  176.4390  139.8310 C   0  0  0  0  0  0  0  0  0  0  0  0
  180.2860  177.6350  139.0840 C   0  0  0  0  0  1  0  0  0  0  0  0
  180.0030  175.8170  140.5470 O   0  0  0  0  0  0  0  0  0  0  0  0
  185.7880  177.8830  145.8090 O   0  0  0  0  0  0  0  0  0  0  0  0
  185.6800  179.7180  147.2370 O   0  0  0  0  0  0  0  0  0  0  0  0
  187.3300  178.0960  147.7500 C   0  0  0  0  0  1  0  0  0  0  0  0
  186.2170  178.6230  146.9200 C   0  0  0  0  0  0  0  0  0  0  0  0
  1 16  2  0  0  0  0
  2 12  1  0  0  0  0
  3 14  1  0  0  0  0
  4  5  1  0  0  0  0
  5  1  1  0  0  0  0
  6 11  1  0  0  0  0
  8  4  1  0  0  0  0
  8  6  1  0  0  0  0
  9  3  2  0  0  0  0
 10  1  1  0  0  0  0
 10  9  1  0  0  0  0
 11  7  1  1  0  0  0
 11 10  1  0  0  0  0
 12 31  1  0  0  0  0
 13 12  2  0  0  0  0
 14  2  2  0  0  0  0
 15 13  1  0  0  0  0
 16 15  1  0  0  0  0
 16 14  1  0  0  0  0
 17 22  1  0  0  0  0
 17  4  1  0  0  0  0
 19 21  2  0  0  0  0
 19 22  1  0  0  0  0
 20 26  1  0  0  0  0
 20 18  2  0  0  0  0
 21 20  1  0  0  0  0
 22 23  2  0  0  0  0
 23 18  1  0  0  0  0
 24 25  2  0  0  0  0
 24 21  1  0  0  0  0
 26 27  1  0  0  0  0
 27 28  1  0  0  0  0
 28 30  2  0  0  0  0
 29 28  1  0  0  0  0
 31 34  1  0  0  0  0
 34 32  2  0  0  0  0
 34 33  1  0  0  0  0
M  END
>  <MODEL>
7

>  <REMARK>
 VINA RESULT:      -7.5      1.522      1.898
  Name = 
  8 active torsions:
  status: ('A' for Active; 'I' for Inactive)
    1  A    between atoms: C_7  and  C_11
    2  A    between atoms: C_7  and  C_14
    3  A    between atoms: N_8  and  C_18
    4  A    between atoms: C_14  and  C_16
    5  A    between atoms: C_18  and  C_30
    6  A    between atoms: O_23  and  C_24
    7  A    between atoms: O_23  and  C_25
    8  A    between atoms: C_26  and  C_28
                            x       y       z     vdW  Elec       q    Type
                         _______ _______ _______ _____ _____    ______ ____

>  <TORSDO>
F 8

$$$$
=
 OpenBabel10262423233D

 34 37  0  0  1  0  0  0  0  0999 V2000
  187.5710  178.3020  141.7240 C   0  0  0  0  0  0  0  0  0  0  0  0
  184.8790  178.1890  144.1870 C   0  0  0  0  0  3  0  0  0  0  0  0
  187.1990  177.5520  144.4640 C   0  0  0  0  0  3  0  0  0  0  0  0
  188.9910  178.3550  139.6450 N   0  0  0  0  0  0  0  0  0  0  0  0
  187.7640  178.5190  140.3110 N   0  0  0  0  0  2  0  0  0  0  0  0
  190.3520  176.8890  141.0660 C   0  0  0  0  0  2  0  0  0  0  0  0
  190.9760  177.8770  143.1560 O   0  0  0  0  0  1  0  0  0  0  0  0
  189.4240  176.9790  139.8560 C   0  0  0  0  0  2  0  0  0  0  0  0
  188.4200  177.4860  143.9410 C   0  0  0  0  0  3  0  0  0  0  0  0
  188.6740  177.9010  142.5840 N   0  0  0  0  0  0  0  0  0  0  0  0
  190.0600  177.9710  142.1040 C   0  0  2  0  0  3  0  0  0  0  0  0
  183.7360  178.6990  143.4100 C   0  0  0  0  0  0  0  0  0  0  0  0
  183.8810  178.9870  142.1080 C   0  0  0  0  0  3  0  0  0  0  0  0
  186.0910  178.0520  143.6480 C   0  0  0  0  0  0  0  0  0  0  0  0
  185.1620  178.7700  141.3470 C   0  0  0  0  0  2  0  0  0  0  0  0
  186.3290  178.4010  142.2300 C   0  0  0  0  0  0  0  0  0  0  0  0
  188.7210  178.4960  138.2240 C   0  0  0  0  0  2  0  0  0  0  0  0
  185.1290  177.5410  137.5130 C   0  0  0  0  0  3  0  0  0  0  0  0
  187.6650  176.3750  137.4230 C   0  0  0  0  0  3  0  0  0  0  0  0
  185.2670  176.2140  137.0870 C   0  0  0  0  0  0  0  0  0  0  0  0
  186.5450  175.6210  137.0440 C   0  0  0  0  0  0  0  0  0  0  0  0
  187.5190  177.6970  137.8510 C   0  0  0  0  0  0  0  0  0  0  0  0
  186.2510  178.2810  137.8890 C   0  0  0  0  0  3  0  0  0  0  0  0
  186.7160  174.2280  136.6020 C   0  0  0  0  0  3  0  0  0  0  0  0
  186.6320  173.2690  137.4150 O   0  0  0  0  0  0  0  0  0  0  0  0
  184.0360  175.4530  136.7090 C   0  0  0  0  0  2  0  0  0  0  0  0
  183.4130  174.8180  137.9420 C   0  0  0  0  0  2  0  0  0  0  0  0
  182.2810  175.6560  138.4360 C   0  0  0  0  0  0  0  0  0  0  0  0
  182.3930  176.3560  139.7470 C   0  0  0  0  0  1  0  0  0  0  0  0
  181.2710  175.7850  137.7620 O   0  0  0  0  0  0  0  0  0  0  0  0
  182.5170  178.8790  144.0860 O   0  0  0  0  0  0  0  0  0  0  0  0
  181.0120  179.9710  142.6860 O   0  0  0  0  0  0  0  0  0  0  0  0
  180.1740  178.0780  143.8400 C   0  0  0  0  0  1  0  0  0  0  0  0
  181.2540  179.0390  143.4990 C   0  0  0  0  0  0  0  0  0  0  0  0
  1 16  2  0  0  0  0
  1 10  1  0  0  0  0
  4  8  1  0  0  0  0
  4  5  1  0  0  0  0
  5  1  1  0  0  0  0
  6 11  1  0  0  0  0
  8  6  1  0  0  0  0
  9  3  2  0  0  0  0
 10  9  1  0  0  0  0
 11 10  1  0  0  0  0
 11  7  1  1  0  0  0
 12 31  1  0  0  0  0
 12  2  1  0  0  0  0
 13 12  2  0  0  0  0
 14  2  2  0  0  0  0
 14  3  1  0  0  0  0
 15 13  1  0  0  0  0
 15 16  1  0  0  0  0
 16 14  1  0  0  0  0
 17  4  1  0  0  0  0
 18 23  1  0  0  0  0
 19 22  1  0  0  0  0
 20 18  2  0  0  0  0
 21 20  1  0  0  0  0
 21 19  2  0  0  0  0
 22 23  2  0  0  0  0
 22 17  1  0  0  0  0
 24 21  1  0  0  0  0
 24 25  2  0  0  0  0
 26 20  1  0  0  0  0
 26 27  1  0  0  0  0
 27 28  1  0  0  0  0
 28 29  1  0  0  0  0
 30 28  2  0  0  0  0
 32 34  2  0  0  0  0
 34 33  1  0  0  0  0
 34 31  1  0  0  0  0
M  END
>  <MODEL>
8

>  <REMARK>
 VINA RESULT:      -7.5      1.922      3.920
  Name = 
  8 active torsions:
  status: ('A' for Active; 'I' for Inactive)
    1  A    between atoms: C_7  and  C_11
    2  A    between atoms: C_7  and  C_14
    3  A    between atoms: N_8  and  C_18
    4  A    between atoms: C_14  and  C_16
    5  A    between atoms: C_18  and  C_30
    6  A    between atoms: O_23  and  C_24
    7  A    between atoms: O_23  and  C_25
    8  A    between atoms: C_26  and  C_28
                            x       y       z     vdW  Elec       q    Type
                         _______ _______ _______ _____ _____    ______ ____

>  <TORSDO>
F 8

$$$$
=
 OpenBabel10262423233D

 34 37  0  0  1  0  0  0  0  0999 V2000
  189.0160  177.9200  140.5710 C   0  0  0  0  0  0  0  0  0  0  0  0
  187.6120  176.9940  143.8110 C   0  0  0  0  0  3  0  0  0  0  0  0
  189.7040  176.2850  142.8210 C   0  0  0  0  0  3  0  0  0  0  0  0
  189.4310  178.6680  138.2030 N   0  0  0  0  0  0  0  0  0  0  0  0
  188.6350  178.6040  139.3600 N   0  0  0  0  0  2  0  0  0  0  0  0
  191.0100  176.7970  138.3530 C   0  0  0  0  0  2  0  0  0  0  0  0
  192.5940  177.0090  140.1360 O   0  0  0  0  0  1  0  0  0  0  0  0
  189.6900  177.3000  137.7730 C   0  0  0  0  0  2  0  0  0  0  0  0
  190.5710  176.3930  141.8170 C   0  0  0  0  0  3  0  0  0  0  0  0
  190.2990  177.2430  140.6850 N   0  0  0  0  0  0  0  0  0  0  0  0
  191.3510  177.4630  139.6850 C   0  0  2  0  0  3  0  0  0  0  0  0
  186.3450  177.7460  143.8180 C   0  0  0  0  0  0  0  0  0  0  0  0
  185.9790  178.4590  142.7430 C   0  0  0  0  0  3  0  0  0  0  0  0
  188.4510  177.0410  142.7760 C   0  0  0  0  0  0  0  0  0  0  0  0
  186.7750  178.5050  141.4660 C   0  0  0  0  0  2  0  0  0  0  0  0
  188.1300  177.8490  141.5800 C   0  0  0  0  0  0  0  0  0  0  0  0
  188.6200  179.2860  137.1670 C   0  0  0  0  0  2  0  0  0  0  0  0
  186.4730  176.7420  135.3690 C   0  0  0  0  0  3  0  0  0  0  0  0
  186.3540  178.3450  137.6530 C   0  0  0  0  0  3  0  0  0  0  0  0
  185.3450  176.6840  136.1980 C   0  0  0  0  0  0  0  0  0  0  0  0
  185.2810  177.4950  137.3500 C   0  0  0  0  0  0  0  0  0  0  0  0
  187.4740  178.4000  136.8190 C   0  0  0  0  0  0  0  0  0  0  0  0
  187.5340  177.5930  135.6800 C   0  0  0  0  0  3  0  0  0  0  0  0
  184.1070  177.4540  138.2360 C   0  0  0  0  0  3  0  0  0  0  0  0
  183.2950  178.4160  138.2920 O   0  0  0  0  0  0  0  0  0  0  0  0
  184.2240  175.7710  135.8180 C   0  0  0  0  0  2  0  0  0  0  0  0
  184.7210  174.3370  135.7350 C   0  0  0  0  0  2  0  0  0  0  0  0
  184.9390  173.7880  137.1060 C   0  0  0  0  0  0  0  0  0  0  0  0
  186.2170  173.0930  137.4310 C   0  0  0  0  0  1  0  0  0  0  0  0
  184.0830  173.9220  137.9660 O   0  0  0  0  0  0  0  0  0  0  0  0
  185.5630  177.6940  144.9850 O   0  0  0  0  0  0  0  0  0  0  0  0
  185.3000  179.4670  146.4700 O   0  0  0  0  0  0  0  0  0  0  0  0
  183.4680  179.0360  145.0290 C   0  0  0  0  0  1  0  0  0  0  0  0
  184.8310  178.7510  145.5460 C   0  0  0  0  0  0  0  0  0  0  0  0
  1 10  1  0  0  0  0
  1 16  2  0  0  0  0
  2 12  1  0  0  0  0
  4  5  1  0  0  0  0
  5  1  1  0  0  0  0
  6 11  1  0  0  0  0
  8  4  1  0  0  0  0
  8  6  1  0  0  0  0
  9  3  2  0  0  0  0
 10  9  1  0  0  0  0
 11  7  1  1  0  0  0
 11 10  1  0  0  0  0
 12 31  1  0  0  0  0
 13 12  2  0  0  0  0
 14  3  1  0  0  0  0
 14  2  2  0  0  0  0
 15 16  1  0  0  0  0
 15 13  1  0  0  0  0
 16 14  1  0  0  0  0
 17  4  1  0  0  0  0
 18 23  2  0  0  0  0
 18 20  1  0  0  0  0
 20 21  2  0  0  0  0
 21 19  1  0  0  0  0
 21 24  1  0  0  0  0
 22 17  1  0  0  0  0
 22 19  2  0  0  0  0
 23 22  1  0  0  0  0
 24 25  2  0  0  0  0
 26 20  1  0  0  0  0
 27 26  1  0  0  0  0
 27 28  1  0  0  0  0
 28 29  1  0  0  0  0
 28 30  2  0  0  0  0
 31 34  1  0  0  0  0
 33 34  1  0  0  0  0
 34 32  2  0  0  0  0
M  END
>  <MODEL>
9

>  <REMARK>
 VINA RESULT:      -7.5      2.143      3.843
  Name = 
  8 active torsions:
  status: ('A' for Active; 'I' for Inactive)
    1  A    between atoms: C_7  and  C_11
    2  A    between atoms: C_7  and  C_14
    3  A    between atoms: N_8  and  C_18
    4  A    between atoms: C_14  and  C_16
    5  A    between atoms: C_18  and  C_30
    6  A    between atoms: O_23  and  C_24
    7  A    between atoms: O_23  and  C_25
    8  A    between atoms: C_26  and  C_28
                            x       y       z     vdW  Elec       q    Type
                         _______ _______ _______ _____ _____    ______ ____

>  <TORSDO>
F 8

$$$$
