=
 OpenBabel10262420573D

 28 32  0  0  1  0  0  0  0  0999 V2000
  186.6410  177.8470  142.1030 C   0  0  2  0  0  3  0  0  0  0  0  0
  190.4380  176.7180  145.5840 C   0  0  0  0  0  3  0  0  0  0  0  0
  184.6250  178.4580  146.4960 F   0  0  0  0  0  0  0  0  0  0  0  0
  189.4650  177.4470  147.6900 C   0  0  0  0  0  0  0  0  0  0  0  0
  188.1130  177.4910  145.6590 C   0  0  0  0  0  0  0  0  0  0  0  0
  191.7640  176.6890  147.6110 C   0  0  0  0  0  0  0  0  0  0  0  0
  189.3380  177.2170  146.2980 C   0  0  0  0  0  0  0  0  0  0  0  0
  187.1660  178.1940  147.7870 C   0  0  0  0  0  3  0  0  0  0  0  0
  190.6760  177.1830  148.3360 C   0  0  0  0  0  3  0  0  0  0  0  0
  185.6670  178.3190  144.4000 C   0  0  0  0  0  0  0  0  0  0  0  0
  187.9030  177.1820  144.2020 C   0  0  0  0  0  2  0  0  0  0  0  0
  188.3800  177.9310  148.4230 C   0  0  0  0  0  3  0  0  0  0  0  0
  184.2040  178.7980  142.4650 C   0  0  0  0  0  3  0  0  0  0  0  0
  185.7400  178.2700  145.7410 C   0  0  0  0  0  0  0  0  0  0  0  0
  184.3520  178.5150  143.7580 C   0  0  0  0  0  3  0  0  0  0  0  0
  192.9650  176.4280  148.2560 O   0  0  0  0  0  1  0  0  0  0  0  0
  191.6450  176.4560  146.2380 C   0  0  0  0  0  3  0  0  0  0  0  0
  187.0260  177.9820  146.4110 C   0  0  0  0  0  0  0  0  0  0  0  0
  185.5940  179.1540  141.3860 S   0  0  0  0  0  0  0  0  0  0  0  0
  186.9380  178.1940  143.5700 C   0  0  1  0  0  3  0  0  0  0  0  0
  187.8900  177.7000  141.2850 C   0  0  0  0  0  0  0  0  0  0  0  0
  188.0050  178.2910  140.0170 C   0  0  0  0  0  3  0  0  0  0  0  0
  190.2470  177.4000  139.7970 C   0  0  0  0  0  0  0  0  0  0  0  0
  188.9580  176.9570  141.8010 C   0  0  0  0  0  3  0  0  0  0  0  0
  189.2820  178.7340  138.0220 O   0  0  0  0  0  1  0  0  0  0  0  0
  189.1800  178.1420  139.2760 C   0  0  0  0  0  0  0  0  0  0  0  0
  191.4190  177.2460  139.0690 O   0  0  0  0  0  1  0  0  0  0  0  0
  190.1330  176.8080  141.0590 C   0  0  0  0  0  3  0  0  0  0  0  0
  1 21  1  6  0  0  0
  1 20  1  0  0  0  0
  2 17  2  0  0  0  0
  2  7  1  0  0  0  0
  4  9  1  0  0  0  0
  4 12  1  0  0  0  0
  5  7  1  0  0  0  0
  5 18  2  0  0  0  0
  6 16  1  0  0  0  0
  6  9  2  0  0  0  0
  7  4  2  0  0  0  0
  8 12  2  0  0  0  0
 10 14  2  0  0  0  0
 11  5  1  0  0  0  0
 13 15  2  0  0  0  0
 14 18  1  0  0  0  0
 14  3  1  0  0  0  0
 15 10  1  0  0  0  0
 17  6  1  0  0  0  0
 18  8  1  0  0  0  0
 19  1  1  0  0  0  0
 19 13  1  0  0  0  0
 20 11  1  1  0  0  0
 20 10  1  0  0  0  0
 21 24  1  0  0  0  0
 22 21  2  0  0  0  0
 23 28  1  0  0  0  0
 25 26  1  0  0  0  0
 26 23  2  0  0  0  0
 26 22  1  0  0  0  0
 27 23  1  0  0  0  0
 28 24  2  0  0  0  0
M  END
>  <MODEL>
1

>  <REMARK>
 VINA RESULT:     -11.9      0.000      0.000
  Name = 
  1 active torsions:
  status: ('A' for Active; 'I' for Inactive)
    1  A    between atoms: C_1  and  C_2
                            x       y       z     vdW  Elec       q    Type
                         _______ _______ _______ _____ _____    ______ ____

>  <TORSDO>
F 1

$$$$
=
 OpenBabel10262420573D

 28 32  0  0  1  0  0  0  0  0999 V2000
  186.6360  177.7010  145.9980 C   0  0  2  0  0  3  0  0  0  0  0  0
  188.4630  177.3700  141.0620 C   0  0  0  0  0  3  0  0  0  0  0  0
  191.4190  176.8780  146.4170 F   0  0  0  0  0  0  0  0  0  0  0  0
  190.8730  177.3770  141.3840 C   0  0  0  0  0  0  0  0  0  0  0  0
  189.3990  177.2910  143.3260 C   0  0  0  0  0  0  0  0  0  0  0  0
  189.9460  177.4610  139.1490 C   0  0  0  0  0  0  0  0  0  0  0  0
  189.5670  177.3460  141.9290 C   0  0  0  0  0  0  0  0  0  0  0  0
  191.8150  177.2800  143.6110 C   0  0  0  0  0  3  0  0  0  0  0  0
  191.0540  177.4360  140.0000 C   0  0  0  0  0  3  0  0  0  0  0  0
  189.1550  177.4390  146.1850 C   0  0  0  0  0  0  0  0  0  0  0  0
  188.0350  177.1700  143.9480 C   0  0  0  0  0  2  0  0  0  0  0  0
  191.9860  177.3430  142.2270 C   0  0  0  0  0  3  0  0  0  0  0  0
  187.9140  177.7030  148.3080 C   0  0  0  0  0  3  0  0  0  0  0  0
  190.3560  177.2010  145.6330 C   0  0  0  0  0  0  0  0  0  0  0  0
  188.9890  177.2820  147.6440 C   0  0  0  0  0  3  0  0  0  0  0  0
  190.1290  177.5200  137.7740 O   0  0  0  0  0  1  0  0  0  0  0  0
  188.6530  177.4280  139.6790 C   0  0  0  0  0  3  0  0  0  0  0  0
  190.5310  177.2580  144.1660 C   0  0  0  0  0  0  0  0  0  0  0  0
  186.6180  178.6770  147.5360 S   0  0  0  0  0  0  0  0  0  0  0  0
  187.9940  177.8850  145.3050 C   0  0  1  0  0  3  0  0  0  0  0  0
  185.4880  178.1170  145.1270 C   0  0  0  0  0  0  0  0  0  0  0  0
  185.5510  177.9930  143.7290 C   0  0  0  0  0  3  0  0  0  0  0  0
  183.3140  178.9030  143.5400 C   0  0  0  0  0  0  0  0  0  0  0  0
  184.3340  178.6380  145.7230 C   0  0  0  0  0  3  0  0  0  0  0  0
  184.5420  178.2550  141.5570 O   0  0  0  0  0  1  0  0  0  0  0  0
  184.4670  178.3840  142.9390 C   0  0  0  0  0  0  0  0  0  0  0  0
  182.2310  179.2940  142.7640 O   0  0  0  0  0  1  0  0  0  0  0  0
  183.2500  179.0300  144.9320 C   0  0  0  0  0  3  0  0  0  0  0  0
  1 21  1  6  0  0  0
  1 19  1  0  0  0  0
  2  7  1  0  0  0  0
  4  7  2  0  0  0  0
  4 12  1  0  0  0  0
  5 11  1  0  0  0  0
  5 18  2  0  0  0  0
  6 17  1  0  0  0  0
  6  9  2  0  0  0  0
  7  5  1  0  0  0  0
  8 18  1  0  0  0  0
  9  4  1  0  0  0  0
 10 15  1  0  0  0  0
 12  8  2  0  0  0  0
 14 10  2  0  0  0  0
 14  3  1  0  0  0  0
 15 13  2  0  0  0  0
 16  6  1  0  0  0  0
 17  2  2  0  0  0  0
 18 14  1  0  0  0  0
 19 13  1  0  0  0  0
 20 11  1  6  0  0  0
 20  1  1  0  0  0  0
 20 10  1  0  0  0  0
 21 24  1  0  0  0  0
 22 21  2  0  0  0  0
 23 28  1  0  0  0  0
 25 26  1  0  0  0  0
 26 23  2  0  0  0  0
 26 22  1  0  0  0  0
 27 23  1  0  0  0  0
 28 24  2  0  0  0  0
M  END
>  <MODEL>
2

>  <REMARK>
 VINA RESULT:     -11.9      2.929      6.374
  Name = 
  1 active torsions:
  status: ('A' for Active; 'I' for Inactive)
    1  A    between atoms: C_1  and  C_2
                            x       y       z     vdW  Elec       q    Type
                         _______ _______ _______ _____ _____    ______ ____

>  <TORSDO>
F 1

$$$$
=
 OpenBabel10262420573D

 28 32  0  0  1  0  0  0  0  0999 V2000
  190.1850  177.3920  143.1840 C   0  0  2  0  0  3  0  0  0  0  0  0
  185.1170  178.8120  142.8630 C   0  0  0  0  0  3  0  0  0  0  0  0
  188.6030  177.6700  147.7820 F   0  0  0  0  0  0  0  0  0  0  0  0
  184.3350  178.5180  145.1470 C   0  0  0  0  0  0  0  0  0  0  0  0
  186.7040  178.2320  144.6380 C   0  0  0  0  0  0  0  0  0  0  0  0
  182.7680  179.0850  143.3900 C   0  0  0  0  0  0  0  0  0  0  0  0
  185.3950  178.5200  144.2080 C   0  0  0  0  0  0  0  0  0  0  0  0
  185.8910  177.9630  146.9160 C   0  0  0  0  0  3  0  0  0  0  0  0
  183.0300  178.7990  144.7320 C   0  0  0  0  0  3  0  0  0  0  0  0
  189.2890  177.3810  145.5590 C   0  0  0  0  0  0  0  0  0  0  0  0
  187.8740  178.3060  143.6960 C   0  0  0  0  0  2  0  0  0  0  0  0
  184.5900  178.2410  146.4920 C   0  0  0  0  0  3  0  0  0  0  0  0
  191.6460  176.6920  145.2680 C   0  0  0  0  0  3  0  0  0  0  0  0
  188.3220  177.6490  146.4520 C   0  0  0  0  0  0  0  0  0  0  0  0
  190.6720  177.1760  146.0370 C   0  0  0  0  0  3  0  0  0  0  0  0
  181.4710  179.3630  142.9820 O   0  0  0  0  0  1  0  0  0  0  0  0
  183.8090  179.0920  142.4580 C   0  0  0  0  0  3  0  0  0  0  0  0
  186.9470  177.9530  145.9990 C   0  0  0  0  0  0  0  0  0  0  0  0
  191.3530  176.0620  143.6130 S   0  0  0  0  0  0  0  0  0  0  0  0
  188.9430  177.2750  144.0790 C   0  0  1  0  0  3  0  0  0  0  0  0
  189.8470  177.3110  141.7240 C   0  0  0  0  0  0  0  0  0  0  0  0
  188.7010  177.9350  141.2060 C   0  0  0  0  0  3  0  0  0  0  0  0
  189.2600  177.1360  138.9880 C   0  0  0  0  0  0  0  0  0  0  0  0
  190.6930  176.5990  140.8670 C   0  0  0  0  0  3  0  0  0  0  0  0
  187.2720  178.4710  139.3410 O   0  0  0  0  0  1  0  0  0  0  0  0
  188.4090  177.8480  139.8420 C   0  0  0  0  0  0  0  0  0  0  0  0
  188.9790  177.0440  137.6310 O   0  0  0  0  0  1  0  0  0  0  0  0
  190.4010  176.5120  139.5030 C   0  0  0  0  0  3  0  0  0  0  0  0
  1 21  1  6  0  0  0
  1 19  1  0  0  0  0
  1 20  1  0  0  0  0
  2  7  1  0  0  0  0
  4 12  1  0  0  0  0
  5 18  2  0  0  0  0
  6  9  2  0  0  0  0
  7  5  1  0  0  0  0
  7  4  2  0  0  0  0
  9  4  1  0  0  0  0
 10 15  1  0  0  0  0
 10 14  2  0  0  0  0
 11  5  1  0  0  0  0
 12  8  2  0  0  0  0
 13 15  2  0  0  0  0
 14  3  1  0  0  0  0
 16  6  1  0  0  0  0
 17  2  2  0  0  0  0
 17  6  1  0  0  0  0
 18 14  1  0  0  0  0
 18  8  1  0  0  0  0
 19 13  1  0  0  0  0
 20 11  1  6  0  0  0
 20 10  1  0  0  0  0
 22 21  1  0  0  0  0
 23 28  2  0  0  0  0
 23 26  1  0  0  0  0
 24 21  2  0  0  0  0
 25 26  1  0  0  0  0
 26 22  2  0  0  0  0
 27 23  1  0  0  0  0
 28 24  1  0  0  0  0
M  END
>  <MODEL>
3

>  <REMARK>
 VINA RESULT:     -11.7      2.852      5.355
  Name = 
  1 active torsions:
  status: ('A' for Active; 'I' for Inactive)
    1  A    between atoms: C_1  and  C_2
                            x       y       z     vdW  Elec       q    Type
                         _______ _______ _______ _____ _____    ______ ____

>  <TORSDO>
F 1

$$$$
=
 OpenBabel10262420573D

 28 32  0  0  1  0  0  0  0  0999 V2000
  184.6170  178.2220  143.6830 C   0  0  2  0  0  3  0  0  0  0  0  0
  189.0950  177.3280  141.0440 C   0  0  0  0  0  3  0  0  0  0  0  0
  188.0810  177.7760  147.0790 F   0  0  0  0  0  0  0  0  0  0  0  0
  190.7870  177.5360  142.7790 C   0  0  0  0  0  0  0  0  0  0  0  0
  188.4250  177.6250  143.3830 C   0  0  0  0  0  0  0  0  0  0  0  0
  191.4460  177.2490  140.4660 C   0  0  0  0  0  0  0  0  0  0  0  0
  189.4230  177.4960  142.3990 C   0  0  0  0  0  0  0  0  0  0  0  0
  190.1430  177.8100  145.0950 C   0  0  0  0  0  3  0  0  0  0  0  0
  191.7880  177.4130  141.8120 C   0  0  0  0  0  3  0  0  0  0  0  0
  186.4680  178.1520  145.4200 C   0  0  0  0  0  0  0  0  0  0  0  0
  186.9650  177.5030  143.0400 C   0  0  0  0  0  2  0  0  0  0  0  0
  191.1360  177.6910  144.1220 C   0  0  0  0  0  3  0  0  0  0  0  0
  184.1900  178.6270  146.2560 C   0  0  0  0  0  3  0  0  0  0  0  0
  187.7430  177.9180  145.7700 C   0  0  0  0  0  0  0  0  0  0  0  0
  185.4290  178.1880  146.4690 C   0  0  0  0  0  3  0  0  0  0  0  0
  192.4430  177.1280  139.5080 O   0  0  0  0  0  1  0  0  0  0  0  0
  190.1030  177.2060  140.0840 C   0  0  0  0  0  3  0  0  0  0  0  0
  188.7920  177.7820  144.7360 C   0  0  0  0  0  0  0  0  0  0  0  0
  183.6860  179.3990  144.7150 S   0  0  0  0  0  0  0  0  0  0  0  0
  186.1190  178.3960  143.9570 C   0  0  1  0  0  3  0  0  0  0  0  0
  184.2710  178.4380  142.2390 C   0  0  0  0  0  0  0  0  0  0  0  0
  185.2700  178.6250  141.2700 C   0  0  0  0  0  3  0  0  0  0  0  0
  183.5740  178.8330  139.5520 C   0  0  0  0  0  0  0  0  0  0  0  0
  182.9260  178.4530  141.8560 C   0  0  0  0  0  3  0  0  0  0  0  0
  185.9210  179.0030  138.9810 O   0  0  0  0  0  1  0  0  0  0  0  0
  184.9230  178.8210  139.9310 C   0  0  0  0  0  0  0  0  0  0  0  0
  183.2190  179.0270  138.2240 O   0  0  0  0  0  1  0  0  0  0  0  0
  182.5780  178.6500  140.5160 C   0  0  0  0  0  3  0  0  0  0  0  0
  1 21  1  6  0  0  0
  1 20  1  0  0  0  0
  1 19  1  0  0  0  0
  2  7  1  0  0  0  0
  4 12  1  0  0  0  0
  5 18  2  0  0  0  0
  6  9  2  0  0  0  0
  7  4  2  0  0  0  0
  7  5  1  0  0  0  0
  9  4  1  0  0  0  0
 10 14  2  0  0  0  0
 10 15  1  0  0  0  0
 11  5  1  0  0  0  0
 12  8  2  0  0  0  0
 13 15  2  0  0  0  0
 14  3  1  0  0  0  0
 16  6  1  0  0  0  0
 17  6  1  0  0  0  0
 17  2  2  0  0  0  0
 18  8  1  0  0  0  0
 18 14  1  0  0  0  0
 19 13  1  0  0  0  0
 20 11  1  6  0  0  0
 20 10  1  0  0  0  0
 22 21  2  0  0  0  0
 23 26  2  0  0  0  0
 23 28  1  0  0  0  0
 24 21  1  0  0  0  0
 25 26  1  0  0  0  0
 26 22  1  0  0  0  0
 27 23  1  0  0  0  0
 28 24  2  0  0  0  0
M  END
>  <MODEL>
4

>  <REMARK>
 VINA RESULT:     -11.0      2.555      4.890
  Name = 
  1 active torsions:
  status: ('A' for Active; 'I' for Inactive)
    1  A    between atoms: C_1  and  C_2
                            x       y       z     vdW  Elec       q    Type
                         _______ _______ _______ _____ _____    ______ ____

>  <TORSDO>
F 1

$$$$
=
 OpenBabel10262420573D

 28 32  0  0  1  0  0  0  0  0999 V2000
  189.0280  177.9370  144.9380 C   0  0  2  0  0  3  0  0  0  0  0  0
  185.2710  178.8710  141.3570 C   0  0  0  0  0  3  0  0  0  0  0  0
  184.9300  178.6270  147.4790 F   0  0  0  0  0  0  0  0  0  0  0  0
  183.2360  178.7860  142.6850 C   0  0  0  0  0  0  0  0  0  0  0  0
  185.4040  178.6450  143.7940 C   0  0  0  0  0  0  0  0  0  0  0  0
  183.1070  179.0030  140.2760 C   0  0  0  0  0  0  0  0  0  0  0  0
  184.6500  178.7660  142.6110 C   0  0  0  0  0  0  0  0  0  0  0  0
  183.3480  178.5820  145.0940 C   0  0  0  0  0  3  0  0  0  0  0  0
  182.4740  178.9030  141.5190 C   0  0  0  0  0  3  0  0  0  0  0  0
  186.8480  178.1350  146.2250 C   0  0  0  0  0  0  0  0  0  0  0  0
  186.9070  178.7060  143.7750 C   0  0  0  0  0  2  0  0  0  0  0  0
  182.5960  178.6950  143.9230 C   0  0  0  0  0  3  0  0  0  0  0  0
  188.8690  177.6200  147.5540 C   0  0  0  0  0  3  0  0  0  0  0  0
  185.5380  178.4240  146.2800 C   0  0  0  0  0  0  0  0  0  0  0  0
  187.6320  178.1060  147.4770 C   0  0  0  0  0  3  0  0  0  0  0  0
  182.3480  179.1180  139.1200 O   0  0  0  0  0  1  0  0  0  0  0  0
  184.5020  178.9880  140.1960 C   0  0  0  0  0  3  0  0  0  0  0  0
  184.7460  178.5520  145.0380 C   0  0  0  0  0  0  0  0  0  0  0  0
  189.6650  176.7730  146.1860 S   0  0  0  0  0  0  0  0  0  0  0  0
  187.4970  177.8230  144.8820 C   0  0  1  0  0  3  0  0  0  0  0  0
  189.6710  177.6540  143.6120 C   0  0  0  0  0  0  0  0  0  0  0  0
  188.9040  177.5180  142.4440 C   0  0  0  0  0  3  0  0  0  0  0  0
  190.9200  177.1290  141.1570 C   0  0  0  0  0  0  0  0  0  0  0  0
  191.0620  177.5220  143.5440 C   0  0  0  0  0  3  0  0  0  0  0  0
  188.7560  177.1280  140.0710 O   0  0  0  0  0  1  0  0  0  0  0  0
  189.5260  177.2580  141.2210 C   0  0  0  0  0  0  0  0  0  0  0  0
  191.5470  176.8710  139.9460 O   0  0  0  0  0  1  0  0  0  0  0  0
  191.6850  177.2610  142.3200 C   0  0  0  0  0  3  0  0  0  0  0  0
  1 21  1  6  0  0  0
  1 19  1  0  0  0  0
  2  7  1  0  0  0  0
  4 12  1  0  0  0  0
  5 18  2  0  0  0  0
  6  9  2  0  0  0  0
  7  4  2  0  0  0  0
  7  5  1  0  0  0  0
  9  4  1  0  0  0  0
 10 14  2  0  0  0  0
 10 15  1  0  0  0  0
 11  5  1  0  0  0  0
 12  8  2  0  0  0  0
 14  3  1  0  0  0  0
 15 13  2  0  0  0  0
 16  6  1  0  0  0  0
 17  6  1  0  0  0  0
 17  2  2  0  0  0  0
 18  8  1  0  0  0  0
 18 14  1  0  0  0  0
 19 13  1  0  0  0  0
 20 11  1  6  0  0  0
 20  1  1  0  0  0  0
 20 10  1  0  0  0  0
 22 21  2  0  0  0  0
 23 26  2  0  0  0  0
 23 28  1  0  0  0  0
 24 21  1  0  0  0  0
 25 26  1  0  0  0  0
 26 22  1  0  0  0  0
 27 23  1  0  0  0  0
 28 24  2  0  0  0  0
M  END
>  <MODEL>
5

>  <REMARK>
 VINA RESULT:     -10.9      2.530      5.929
  Name = 
  1 active torsions:
  status: ('A' for Active; 'I' for Inactive)
    1  A    between atoms: C_1  and  C_2
                            x       y       z     vdW  Elec       q    Type
                         _______ _______ _______ _____ _____    ______ ____

>  <TORSDO>
F 1

$$$$
=
 OpenBabel10262420573D

 28 32  0  0  1  0  0  0  0  0999 V2000
  189.9630  177.6800  139.1060 C   0  0  2  0  0  3  0  0  0  0  0  0
  185.5930  178.5300  141.9320 C   0  0  0  0  0  3  0  0  0  0  0  0
  191.3740  177.6050  143.7670 F   0  0  0  0  0  0  0  0  0  0  0  0
  186.3270  178.0640  144.2030 C   0  0  0  0  0  0  0  0  0  0  0  0
  187.9560  178.0660  142.3870 C   0  0  0  0  0  0  0  0  0  0  0  0
  183.9910  178.5160  143.7500 C   0  0  0  0  0  0  0  0  0  0  0  0
  186.6280  178.2210  142.8280 C   0  0  0  0  0  0  0  0  0  0  0  0
  188.6590  177.6230  144.6730 C   0  0  0  0  0  3  0  0  0  0  0  0
  185.0130  178.2110  144.6540 C   0  0  0  0  0  3  0  0  0  0  0  0
  190.6400  177.4790  141.5450 C   0  0  0  0  0  0  0  0  0  0  0  0
  188.3390  178.3080  140.9520 C   0  0  0  0  0  2  0  0  0  0  0  0
  187.3430  177.7680  145.1140 C   0  0  0  0  0  3  0  0  0  0  0  0
  192.4150  177.0720  139.8720 C   0  0  0  0  0  3  0  0  0  0  0  0
  190.3670  177.6030  142.8540 C   0  0  0  0  0  0  0  0  0  0  0  0
  192.0490  177.4130  141.1060 C   0  0  0  0  0  3  0  0  0  0  0  0
  182.6870  178.6610  144.2010 O   0  0  0  0  0  1  0  0  0  0  0  0
  184.2820  178.6760  142.3920 C   0  0  0  0  0  3  0  0  0  0  0  0
  188.9720  177.7660  143.3170 C   0  0  0  0  0  0  0  0  0  0  0  0
  191.2490  176.4750  138.6450 S   0  0  0  0  0  0  0  0  0  0  0  0
  189.4980  177.3900  140.5400 C   0  0  1  0  0  3  0  0  0  0  0  0
  188.8380  177.6160  138.1150 C   0  0  0  0  0  0  0  0  0  0  0  0
  188.1030  176.4350  137.9230 C   0  0  0  0  0  3  0  0  0  0  0  0
  186.7390  177.5470  136.2570 C   0  0  0  0  0  0  0  0  0  0  0  0
  188.5190  178.7570  137.3720 C   0  0  0  0  0  3  0  0  0  0  0  0
  186.3350  175.2270  136.8170 O   0  0  0  0  0  1  0  0  0  0  0  0
  187.0560  176.4010  136.9970 C   0  0  0  0  0  0  0  0  0  0  0  0
  185.7020  177.5240  135.3350 O   0  0  0  0  0  1  0  0  0  0  0  0
  187.4730  178.7230  136.4450 C   0  0  0  0  0  3  0  0  0  0  0  0
  1 21  1  6  0  0  0
  1 20  1  0  0  0  0
  2 17  2  0  0  0  0
  2  7  1  0  0  0  0
  4  9  1  0  0  0  0
  4 12  1  0  0  0  0
  5  7  1  0  0  0  0
  5 18  2  0  0  0  0
  6 16  1  0  0  0  0
  6  9  2  0  0  0  0
  7  4  2  0  0  0  0
  8 12  2  0  0  0  0
 10 14  2  0  0  0  0
 11  5  1  0  0  0  0
 13 15  2  0  0  0  0
 14 18  1  0  0  0  0
 14  3  1  0  0  0  0
 15 10  1  0  0  0  0
 17  6  1  0  0  0  0
 18  8  1  0  0  0  0
 19  1  1  0  0  0  0
 19 13  1  0  0  0  0
 20 11  1  1  0  0  0
 20 10  1  0  0  0  0
 22 21  1  0  0  0  0
 23 28  2  0  0  0  0
 23 26  1  0  0  0  0
 24 21  2  0  0  0  0
 25 26  1  0  0  0  0
 26 22  2  0  0  0  0
 27 23  1  0  0  0  0
 28 24  1  0  0  0  0
M  END
>  <MODEL>
6

>  <REMARK>
 VINA RESULT:     -10.8      3.705      5.964
  Name = 
  1 active torsions:
  status: ('A' for Active; 'I' for Inactive)
    1  A    between atoms: C_1  and  C_2
                            x       y       z     vdW  Elec       q    Type
                         _______ _______ _______ _____ _____    ______ ____

>  <TORSDO>
F 1

$$$$
=
 OpenBabel10262420573D

 28 32  0  0  1  0  0  0  0  0999 V2000
  190.6780  177.3300  143.1410 C   0  0  2  0  0  3  0  0  0  0  0  0
  186.0210  178.6750  141.0630 C   0  0  0  0  0  3  0  0  0  0  0  0
  187.6350  177.7910  146.9160 F   0  0  0  0  0  0  0  0  0  0  0  0
  184.5120  178.4720  142.9590 C   0  0  0  0  0  0  0  0  0  0  0  0
  186.9130  178.1920  143.2940 C   0  0  0  0  0  0  0  0  0  0  0  0
  183.6340  178.9440  140.7520 C   0  0  0  0  0  0  0  0  0  0  0  0
  185.8270  178.4460  142.4340 C   0  0  0  0  0  0  0  0  0  0  0  0
  185.3760  178.0140  145.1720 C   0  0  0  0  0  3  0  0  0  0  0  0
  183.4260  178.7190  142.1160 C   0  0  0  0  0  3  0  0  0  0  0  0
  189.0310  177.4130  145.0710 C   0  0  0  0  0  0  0  0  0  0  0  0
  188.3330  178.2390  142.8000 C   0  0  0  0  0  2  0  0  0  0  0  0
  184.2970  178.2580  144.3220 C   0  0  0  0  0  3  0  0  0  0  0  0
  191.3450  176.7390  145.6250 C   0  0  0  0  0  3  0  0  0  0  0  0
  187.8200  177.7080  145.5720 C   0  0  0  0  0  0  0  0  0  0  0  0
  190.1700  177.2440  145.9970 C   0  0  0  0  0  3  0  0  0  0  0  0
  182.5520  179.1890  139.9170 O   0  0  0  0  0  1  0  0  0  0  0  0
  184.9290  178.9220  140.2270 C   0  0  0  0  0  3  0  0  0  0  0  0
  186.6810  177.9750  144.6680 C   0  0  0  0  0  0  0  0  0  0  0  0
  191.6270  176.0330  143.9990 S   0  0  0  0  0  0  0  0  0  0  0  0
  189.2050  177.2380  143.5680 C   0  0  1  0  0  3  0  0  0  0  0  0
  190.8530  177.1810  141.6580 C   0  0  0  0  0  0  0  0  0  0  0  0
  192.1240  177.2400  141.0640 C   0  0  0  0  0  3  0  0  0  0  0  0
  191.1300  176.8920  138.8820 C   0  0  0  0  0  0  0  0  0  0  0  0
  189.7250  176.9800  140.8550 C   0  0  0  0  0  3  0  0  0  0  0  0
  193.5260  177.1540  139.1060 O   0  0  0  0  0  1  0  0  0  0  0  0
  192.2620  177.0950  139.6820 C   0  0  0  0  0  0  0  0  0  0  0  0
  191.2560  176.7470  137.5080 O   0  0  0  0  0  1  0  0  0  0  0  0
  189.8630  176.8360  139.4720 C   0  0  0  0  0  3  0  0  0  0  0  0
  1 21  1  6  0  0  0
  1 20  1  0  0  0  0
  1 19  1  0  0  0  0
  2  7  1  0  0  0  0
  4 12  1  0  0  0  0
  5 18  2  0  0  0  0
  6  9  2  0  0  0  0
  7  4  2  0  0  0  0
  7  5  1  0  0  0  0
  9  4  1  0  0  0  0
 10 14  2  0  0  0  0
 10 15  1  0  0  0  0
 11  5  1  0  0  0  0
 12  8  2  0  0  0  0
 13 15  2  0  0  0  0
 14  3  1  0  0  0  0
 16  6  1  0  0  0  0
 17  6  1  0  0  0  0
 17  2  2  0  0  0  0
 18  8  1  0  0  0  0
 18 14  1  0  0  0  0
 19 13  1  0  0  0  0
 20 11  1  6  0  0  0
 20 10  1  0  0  0  0
 22 21  1  0  0  0  0
 23 28  2  0  0  0  0
 23 26  1  0  0  0  0
 24 21  2  0  0  0  0
 25 26  1  0  0  0  0
 26 22  2  0  0  0  0
 27 23  1  0  0  0  0
 28 24  1  0  0  0  0
M  END
>  <MODEL>
7

>  <REMARK>
 VINA RESULT:     -10.7      2.716      5.799
  Name = 
  1 active torsions:
  status: ('A' for Active; 'I' for Inactive)
    1  A    between atoms: C_1  and  C_2
                            x       y       z     vdW  Elec       q    Type
                         _______ _______ _______ _____ _____    ______ ____

>  <TORSDO>
F 1

$$$$
=
 OpenBabel10262420573D

 28 32  0  0  1  0  0  0  0  0999 V2000
  187.5440  178.1110  144.2940 C   0  0  2  0  0  3  0  0  0  0  0  0
  184.5610  178.5750  139.9690 C   0  0  0  0  0  3  0  0  0  0  0  0
  183.0800  179.2380  145.8870 F   0  0  0  0  0  0  0  0  0  0  0  0
  182.3140  178.7210  140.8850 C   0  0  0  0  0  0  0  0  0  0  0  0
  184.2300  178.7060  142.3940 C   0  0  0  0  0  0  0  0  0  0  0  0
  182.6440  178.5850  138.4890 C   0  0  0  0  0  0  0  0  0  0  0  0
  183.7140  178.6670  141.0850 C   0  0  0  0  0  0  0  0  0  0  0  0
  181.9680  178.8710  143.2750 C   0  0  0  0  0  3  0  0  0  0  0  0
  181.7880  178.6790  139.5910 C   0  0  0  0  0  3  0  0  0  0  0  0
  185.1740  178.5330  145.1020 C   0  0  0  0  0  0  0  0  0  0  0  0
  185.7120  178.7380  142.6530 C   0  0  0  0  0  2  0  0  0  0  0  0
  181.4520  178.8240  141.9790 C   0  0  0  0  0  3  0  0  0  0  0  0
  186.8880  178.1830  146.8500 C   0  0  0  0  0  3  0  0  0  0  0  0
  183.8900  178.8500  144.8660 C   0  0  0  0  0  0  0  0  0  0  0  0
  185.7100  178.6750  146.4710 C   0  0  0  0  0  3  0  0  0  0  0  0
  182.1180  178.5430  137.2050 O   0  0  0  0  0  1  0  0  0  0  0  0
  184.0270  178.5340  138.6790 C   0  0  0  0  0  3  0  0  0  0  0  0
  183.3490  178.8090  143.4910 C   0  0  0  0  0  0  0  0  0  0  0  0
  187.8850  177.1310  145.7910 S   0  0  0  0  0  0  0  0  0  0  0  0
  186.0460  178.0160  143.9650 C   0  0  1  0  0  3  0  0  0  0  0  0
  188.4080  177.6250  143.1680 C   0  0  0  0  0  0  0  0  0  0  0  0
  188.3640  178.2310  141.9020 C   0  0  0  0  0  3  0  0  0  0  0  0
  190.0470  176.6840  141.0960 C   0  0  0  0  0  0  0  0  0  0  0  0
  189.2730  176.5480  143.3890 C   0  0  0  0  0  3  0  0  0  0  0  0
  189.1300  178.3710  139.6210 O   0  0  0  0  0  1  0  0  0  0  0  0
  189.1810  177.7620  140.8700 C   0  0  0  0  0  0  0  0  0  0  0  0
  190.8630  176.2120  140.0780 O   0  0  0  0  0  1  0  0  0  0  0  0
  190.0900  176.0790  142.3560 C   0  0  0  0  0  3  0  0  0  0  0  0
  1 21  1  6  0  0  0
  1 19  1  0  0  0  0
  2  7  1  0  0  0  0
  4  7  2  0  0  0  0
  4 12  1  0  0  0  0
  5 11  1  0  0  0  0
  5 18  2  0  0  0  0
  6 17  1  0  0  0  0
  6  9  2  0  0  0  0
  7  5  1  0  0  0  0
  8 18  1  0  0  0  0
  9  4  1  0  0  0  0
 10 15  1  0  0  0  0
 12  8  2  0  0  0  0
 14 10  2  0  0  0  0
 14  3  1  0  0  0  0
 15 13  2  0  0  0  0
 16  6  1  0  0  0  0
 17  2  2  0  0  0  0
 18 14  1  0  0  0  0
 19 13  1  0  0  0  0
 20 11  1  6  0  0  0
 20  1  1  0  0  0  0
 20 10  1  0  0  0  0
 21 24  1  0  0  0  0
 22 21  2  0  0  0  0
 23 28  1  0  0  0  0
 25 26  1  0  0  0  0
 26 23  2  0  0  0  0
 26 22  1  0  0  0  0
 27 23  1  0  0  0  0
 28 24  2  0  0  0  0
M  END
>  <MODEL>
8

>  <REMARK>
 VINA RESULT:     -10.6      2.737      6.604
  Name = 
  1 active torsions:
  status: ('A' for Active; 'I' for Inactive)
    1  A    between atoms: C_1  and  C_2
                            x       y       z     vdW  Elec       q    Type
                         _______ _______ _______ _____ _____    ______ ____

>  <TORSDO>
F 1

$$$$
=
 OpenBabel10262420573D

 28 32  0  0  1  0  0  0  0  0999 V2000
  189.4600  177.6340  141.6000 C   0  0  2  0  0  3  0  0  0  0  0  0
  184.3330  178.7710  142.0820 C   0  0  0  0  0  3  0  0  0  0  0  0
  188.6390  178.0090  146.3860 F   0  0  0  0  0  0  0  0  0  0  0  0
  183.9550  178.5250  144.4720 C   0  0  0  0  0  0  0  0  0  0  0  0
  186.2210  178.3450  143.5860 C   0  0  0  0  0  0  0  0  0  0  0  0
  182.0900  178.9400  142.9830 C   0  0  0  0  0  0  0  0  0  0  0  0
  184.8440  178.5470  143.3700 C   0  0  0  0  0  0  0  0  0  0  0  0
  185.8090  178.1240  145.9740 C   0  0  0  0  0  3  0  0  0  0  0  0
  182.5860  178.7200  144.2720 C   0  0  0  0  0  3  0  0  0  0  0  0
  188.9680  177.6700  144.0900 C   0  0  0  0  0  0  0  0  0  0  0  0
  187.2140  178.4450  142.4610 C   0  0  0  0  0  2  0  0  0  0  0  0
  184.4430  178.3160  145.7640 C   0  0  0  0  0  3  0  0  0  0  0  0
  191.2820  177.0960  143.4330 C   0  0  0  0  0  3  0  0  0  0  0  0
  188.1460  177.9210  145.1230 C   0  0  0  0  0  0  0  0  0  0  0  0
  190.4190  177.5570  144.3370 C   0  0  0  0  0  3  0  0  0  0  0  0
  180.7300  179.1320  142.7880 O   0  0  0  0  0  1  0  0  0  0  0  0
  182.9620  178.9650  141.8910 C   0  0  0  0  0  3  0  0  0  0  0  0
  186.7000  178.1330  144.8950 C   0  0  0  0  0  0  0  0  0  0  0  0
  190.7590  176.3860  141.8690 S   0  0  0  0  0  0  0  0  0  0  0  0
  188.3900  177.4870  142.6920 C   0  0  1  0  0  3  0  0  0  0  0  0
  188.8920  177.4780  140.2190 C   0  0  0  0  0  0  0  0  0  0  0  0
  187.7550  178.1950  139.8140 C   0  0  0  0  0  3  0  0  0  0  0  0
  187.8720  177.1570  137.6280 C   0  0  0  0  0  0  0  0  0  0  0  0
  189.5120  176.6000  139.3230 C   0  0  0  0  0  3  0  0  0  0  0  0
  186.1210  178.7510  138.1320 O   0  0  0  0  0  1  0  0  0  0  0  0
  187.2470  178.0350  138.5220 C   0  0  0  0  0  0  0  0  0  0  0  0
  187.3750  176.9910  136.3420 O   0  0  0  0  0  1  0  0  0  0  0  0
  189.0030  176.4400  138.0310 C   0  0  0  0  0  3  0  0  0  0  0  0
  1 21  1  6  0  0  0
  1 19  1  0  0  0  0
  1 20  1  0  0  0  0
  2  7  1  0  0  0  0
  4 12  1  0  0  0  0
  5 18  2  0  0  0  0
  6  9  2  0  0  0  0
  7  5  1  0  0  0  0
  7  4  2  0  0  0  0
  9  4  1  0  0  0  0
 10 15  1  0  0  0  0
 10 14  2  0  0  0  0
 11  5  1  0  0  0  0
 12  8  2  0  0  0  0
 13 15  2  0  0  0  0
 14  3  1  0  0  0  0
 16  6  1  0  0  0  0
 17  2  2  0  0  0  0
 17  6  1  0  0  0  0
 18 14  1  0  0  0  0
 18  8  1  0  0  0  0
 19 13  1  0  0  0  0
 20 11  1  6  0  0  0
 20 10  1  0  0  0  0
 22 21  1  0  0  0  0
 23 28  2  0  0  0  0
 23 26  1  0  0  0  0
 24 21  2  0  0  0  0
 25 26  1  0  0  0  0
 26 22  2  0  0  0  0
 27 23  1  0  0  0  0
 28 24  1  0  0  0  0
M  END
>  <MODEL>
9

>  <REMARK>
 VINA RESULT:     -10.6      3.374      5.677
  Name = 
  1 active torsions:
  status: ('A' for Active; 'I' for Inactive)
    1  A    between atoms: C_1  and  C_2
                            x       y       z     vdW  Elec       q    Type
                         _______ _______ _______ _____ _____    ______ ____

>  <TORSDO>
F 1

$$$$
