=
 OpenBabel10262419163D

 34 38  0  0  1  0  0  0  0  0999 V2000
  189.7650  177.1660  146.3890 C   0  0  0  0  0  0  0  0  0  0  0  0
  191.1670  176.0010  144.7890 C   0  0  0  0  0  0  0  0  0  0  0  0
  189.1180  177.2540  144.0200 C   0  0  0  0  0  0  0  0  0  0  0  0
  188.4210  177.6170  141.7080 C   0  0  0  0  0  0  0  0  0  0  0  0
  190.6820  176.8730  147.4010 C   0  0  0  0  0  3  0  0  0  0  0  0
  192.0690  175.7070  145.8150 C   0  0  0  0  0  3  0  0  0  0  0  0
  190.8770  177.4640  142.1800 C   0  0  0  0  0  2  0  0  0  0  0  0
  190.0370  176.8270  145.0360 C   0  0  0  0  0  0  0  0  0  0  0  0
  191.0700  177.0470  140.7300 C   0  0  0  0  0  2  0  0  0  0  0  0
  188.6610  177.5590  140.2240 C   0  0  0  0  0  2  0  0  0  0  0  0
  191.8450  176.1660  147.1110 C   0  0  0  0  0  3  0  0  0  0  0  0
  187.8290  177.7120  144.4250 C   0  0  0  0  0  0  0  0  0  0  0  0
  188.5520  177.7420  146.7440 C   0  0  0  0  0  3  0  0  0  0  0  0
  191.3320  175.3370  143.6180 F   0  0  0  0  0  0  0  0  0  0  0  0
  187.1670  177.8920  142.1370 N   0  0  0  0  0  0  0  0  0  0  0  0
  186.8350  177.9720  143.4510 C   0  0  0  0  0  0  0  0  0  0  0  0
  190.1160  177.8500  139.8550 C   0  0  2  0  0  3  0  0  0  0  0  0
  189.4430  177.3280  142.6380 C   0  0  0  0  0  0  0  0  0  0  0  0
  187.5850  177.9800  145.7770 C   0  0  0  0  0  3  0  0  0  0  0  0
  183.1400  178.7000  143.0490 C   0  0  0  0  0  0  0  0  0  0  0  0
  182.7490  178.9390  144.3680 C   0  0  0  0  0  3  0  0  0  0  0  0
  185.4320  178.3370  143.7840 C   0  0  0  0  0  0  0  0  0  0  0  0
  183.6900  178.8690  145.3990 C   0  0  0  0  0  3  0  0  0  0  0  0
  184.4740  178.3960  142.7600 C   0  0  0  0  0  3  0  0  0  0  0  0
  185.0230  178.5650  145.1080 C   0  0  0  0  0  3  0  0  0  0  0  0
  182.1830  178.7640  142.0010 N   0  0  0  0  0  1  0  0  0  0  0  0
  190.3700  177.6380  138.4280 N   0  0  0  0  0  2  0  0  0  0  0  0
  189.1290  177.3340  137.7200 C   0  0  0  0  0  2  0  0  0  0  0  0
  188.9850  179.6920  137.3660 O   0  0  0  0  0  1  0  0  0  0  0  0
  188.7960  178.4550  136.7480 C   0  0  2  0  0  3  0  0  0  0  0  0
  187.3700  178.3400  136.2030 C   0  0  0  0  0  2  0  0  0  0  0  0
  185.8960  176.6400  137.2890 O   0  0  0  0  0  0  0  0  0  0  0  0
  186.3840  177.9400  137.2530 C   0  0  0  0  0  0  0  0  0  0  0  0
  186.0140  178.7730  138.1210 O   0  0  0  0  0  1  0  0  0  0  0  0
  1 13  1  0  0  0  0
  1  5  2  0  0  0  0
  2  8  2  0  0  0  0
  2  6  1  0  0  0  0
  3 12  1  0  0  0  0
  3  8  1  0  0  0  0
  4 15  2  0  0  0  0
  4 18  1  0  0  0  0
  6 11  2  0  0  0  0
  7 18  1  0  0  0  0
  8  1  1  0  0  0  0
  9  7  1  0  0  0  0
 10  4  1  0  0  0  0
 11  5  1  0  0  0  0
 12 19  1  0  0  0  0
 14  2  1  0  0  0  0
 15 16  1  0  0  0  0
 16 22  1  0  0  0  0
 16 12  2  0  0  0  0
 17 27  1  6  0  0  0
 17 10  1  0  0  0  0
 17  9  1  0  0  0  0
 18  3  2  0  0  0  0
 19 13  2  0  0  0  0
 20 21  1  0  0  0  0
 21 23  2  0  0  0  0
 22 25  2  0  0  0  0
 24 20  2  0  0  0  0
 24 22  1  0  0  0  0
 25 23  1  0  0  0  0
 26 20  1  0  0  0  0
 28 27  1  0  0  0  0
 30 29  1  1  0  0  0
 30 28  1  0  0  0  0
 31 30  1  0  0  0  0
 31 33  1  0  0  0  0
 33 32  2  0  0  0  0
 33 34  1  0  0  0  0
M  END
>  <MODEL>
1

>  <REMARK>
 VINA RESULT:     -11.2      0.000      0.000
  Name = 
  6 active torsions:
  status: ('A' for Active; 'I' for Inactive)
    1  A    between atoms: N_3  and  C_13
    2  A    between atoms: N_3  and  C_29
    3  A    between atoms: C_12  and  C_28
    4  A    between atoms: C_13  and  C_33
    5  A    between atoms: C_20  and  C_22
    6  A    between atoms: C_22  and  C_33
                            x       y       z     vdW  Elec       q    Type
                         _______ _______ _______ _____ _____    ______ ____

>  <TORSDO>
F 6

$$$$
=
 OpenBabel10262419163D

 34 38  0  0  1  0  0  0  0  0999 V2000
  189.7780  177.2300  146.4430 C   0  0  0  0  0  0  0  0  0  0  0  0
  191.2460  176.0050  144.9490 C   0  0  0  0  0  0  0  0  0  0  0  0
  189.2280  177.2210  144.0480 C   0  0  0  0  0  0  0  0  0  0  0  0
  188.6270  177.4900  141.6960 C   0  0  0  0  0  0  0  0  0  0  0  0
  190.6530  176.9800  147.5030 C   0  0  0  0  0  3  0  0  0  0  0  0
  192.1040  175.7540  146.0230 C   0  0  0  0  0  3  0  0  0  0  0  0
  191.0620  177.3610  142.2750 C   0  0  0  0  0  2  0  0  0  0  0  0
  190.1060  176.8370  145.1170 C   0  0  0  0  0  0  0  0  0  0  0  0
  191.3150  176.8880  140.8510 C   0  0  0  0  0  2  0  0  0  0  0  0
  188.9280  177.3730  140.2270 C   0  0  0  0  0  2  0  0  0  0  0  0
  191.8280  176.2640  147.2890 C   0  0  0  0  0  3  0  0  0  0  0  0
  187.9240  177.6930  144.3810 C   0  0  0  0  0  0  0  0  0  0  0  0
  188.5510  177.8170  146.7240 C   0  0  0  0  0  3  0  0  0  0  0  0
  191.4590  175.2950  143.8140 F   0  0  0  0  0  0  0  0  0  0  0  0
  187.3570  177.7790  142.0630 N   0  0  0  0  0  0  0  0  0  0  0  0
  186.9710  177.9110  143.3570 C   0  0  0  0  0  0  0  0  0  0  0  0
  190.3960  177.6530  139.9070 C   0  0  2  0  0  3  0  0  0  0  0  0
  189.6110  177.2400  142.6780 C   0  0  0  0  0  0  0  0  0  0  0  0
  187.6250  178.0130  145.7100 C   0  0  0  0  0  3  0  0  0  0  0  0
  183.3010  178.6380  142.7700 C   0  0  0  0  0  0  0  0  0  0  0  0
  182.8500  178.9050  144.0650 C   0  0  0  0  0  3  0  0  0  0  0  0
  185.5550  178.2860  143.6170 C   0  0  0  0  0  0  0  0  0  0  0  0
  183.7420  178.8540  145.1390 C   0  0  0  0  0  3  0  0  0  0  0  0
  184.6450  178.3250  142.5500 C   0  0  0  0  0  3  0  0  0  0  0  0
  185.0860  178.5410  144.9160 C   0  0  0  0  0  3  0  0  0  0  0  0
  182.3930  178.6830  141.6780 N   0  0  0  0  0  1  0  0  0  0  0  0
  190.7090  177.3840  138.5010 N   0  0  0  0  0  2  0  0  0  0  0  0
  191.9590  176.6380  138.3810 C   0  0  0  0  0  2  0  0  0  0  0  0
  190.5870  174.7310  137.9460 O   0  0  0  0  0  1  0  0  0  0  0  0
  191.7430  175.3940  137.5320 C   0  0  2  0  0  3  0  0  0  0  0  0
  192.9480  174.4510  137.5770 C   0  0  0  0  0  2  0  0  0  0  0  0
  195.0660  175.1170  138.7230 O   0  0  0  0  0  1  0  0  0  0  0  0
  194.2510  175.1850  137.6010 C   0  0  0  0  0  0  0  0  0  0  0  0
  194.6220  175.8430  136.5950 O   0  0  0  0  0  0  0  0  0  0  0  0
  1 13  1  0  0  0  0
  1  5  2  0  0  0  0
  2  8  2  0  0  0  0
  2  6  1  0  0  0  0
  3 12  1  0  0  0  0
  3  8  1  0  0  0  0
  4 15  2  0  0  0  0
  4 18  1  0  0  0  0
  6 11  2  0  0  0  0
  7 18  1  0  0  0  0
  8  1  1  0  0  0  0
  9  7  1  0  0  0  0
 10  4  1  0  0  0  0
 11  5  1  0  0  0  0
 12 19  1  0  0  0  0
 14  2  1  0  0  0  0
 15 16  1  0  0  0  0
 16 22  1  0  0  0  0
 16 12  2  0  0  0  0
 17 27  1  6  0  0  0
 17 10  1  0  0  0  0
 17  9  1  0  0  0  0
 18  3  2  0  0  0  0
 19 13  2  0  0  0  0
 20 21  1  0  0  0  0
 21 23  2  0  0  0  0
 22 25  2  0  0  0  0
 24 20  2  0  0  0  0
 24 22  1  0  0  0  0
 25 23  1  0  0  0  0
 26 20  1  0  0  0  0
 28 27  1  0  0  0  0
 30 31  1  0  0  0  0
 30 29  1  1  0  0  0
 30 28  1  0  0  0  0
 31 33  1  0  0  0  0
 33 32  1  0  0  0  0
 34 33  2  0  0  0  0
M  END
>  <MODEL>
2

>  <REMARK>
 VINA RESULT:     -10.9      2.397      3.199
  Name = 
  6 active torsions:
  status: ('A' for Active; 'I' for Inactive)
    1  A    between atoms: N_3  and  C_13
    2  A    between atoms: N_3  and  C_29
    3  A    between atoms: C_12  and  C_28
    4  A    between atoms: C_13  and  C_33
    5  A    between atoms: C_20  and  C_22
    6  A    between atoms: C_22  and  C_33
                            x       y       z     vdW  Elec       q    Type
                         _______ _______ _______ _____ _____    ______ ____

>  <TORSDO>
F 6

$$$$
=
 OpenBabel10262419163D

 34 38  0  0  1  0  0  0  0  0999 V2000
  187.0000  178.2830  146.9470 C   0  0  0  0  0  0  0  0  0  0  0  0
  188.9070  177.1190  146.0000 C   0  0  0  0  0  0  0  0  0  0  0  0
  187.0830  178.0150  144.5060 C   0  0  0  0  0  0  0  0  0  0  0  0
  187.0800  178.0180  142.0630 C   0  0  0  0  0  0  0  0  0  0  0  0
  187.5950  178.2240  148.2090 C   0  0  0  0  0  3  0  0  0  0  0  0
  189.4820  177.0590  147.2730 C   0  0  0  0  0  3  0  0  0  0  0  0
  189.2870  178.2220  143.2310 C   0  0  0  0  0  2  0  0  0  0  0  0
  187.6900  177.8240  145.7930 C   0  0  0  0  0  0  0  0  0  0  0  0
  189.9380  177.6670  141.9740 C   0  0  0  0  0  2  0  0  0  0  0  0
  187.7550  177.8170  140.7340 C   0  0  0  0  0  2  0  0  0  0  0  0
  188.8460  177.6360  148.3690 C   0  0  0  0  0  3  0  0  0  0  0  0
  185.6990  178.3560  144.4560 C   0  0  0  0  0  0  0  0  0  0  0  0
  185.6930  178.7440  146.8530 C   0  0  0  0  0  3  0  0  0  0  0  0
  189.4670  176.3490  145.0360 F   0  0  0  0  0  0  0  0  0  0  0  0
  185.7370  178.1860  142.0740 N   0  0  0  0  0  0  0  0  0  0  0  0
  185.0230  178.3770  143.2120 C   0  0  0  0  0  0  0  0  0  0  0  0
  189.2240  178.2390  140.7550 C   0  0  2  0  0  3  0  0  0  0  0  0
  187.7990  177.9660  143.2780 C   0  0  0  0  0  0  0  0  0  0  0  0
  185.0420  178.7470  145.6280 C   0  0  0  0  0  3  0  0  0  0  0  0
  181.6050  178.8090  141.6390 C   0  0  0  0  0  0  0  0  0  0  0  0
  180.7860  178.9450  142.7620 C   0  0  0  0  0  3  0  0  0  0  0  0
  183.5600  178.6040  143.0750 C   0  0  0  0  0  0  0  0  0  0  0  0
  181.3450  178.9020  144.0420 C   0  0  0  0  0  3  0  0  0  0  0  0
  182.9830  178.6340  141.7960 C   0  0  0  0  0  3  0  0  0  0  0  0
  182.7230  178.7270  144.1960 C   0  0  0  0  0  3  0  0  0  0  0  0
  181.0370  178.8460  140.3360 N   0  0  0  0  0  1  0  0  0  0  0  0
  189.9090  177.8950  139.5070 N   0  0  0  0  0  2  0  0  0  0  0  0
  188.9590  177.4020  138.5130 C   0  0  0  0  0  2  0  0  0  0  0  0
  189.0210  179.6570  137.7270 O   0  0  0  0  0  1  0  0  0  0  0  0
  188.9380  178.3290  137.3070 C   0  0  2  0  0  3  0  0  0  0  0  0
  187.6950  178.1170  136.4400 C   0  0  0  0  0  2  0  0  0  0  0  0
  185.8750  176.6110  137.2530 O   0  0  0  0  0  0  0  0  0  0  0  0
  186.4630  177.8680  137.2510 C   0  0  0  0  0  0  0  0  0  0  0  0
  185.9730  178.7920  137.9510 O   0  0  0  0  0  1  0  0  0  0  0  0
  1  5  2  0  0  0  0
  2  6  1  0  0  0  0
  3  8  1  0  0  0  0
  4 15  2  0  0  0  0
  4 18  1  0  0  0  0
  5 11  1  0  0  0  0
  6 11  2  0  0  0  0
  7 18  1  0  0  0  0
  8  2  2  0  0  0  0
  8  1  1  0  0  0  0
  9  7  1  0  0  0  0
 10 17  1  0  0  0  0
 10  4  1  0  0  0  0
 12  3  1  0  0  0  0
 12 19  1  0  0  0  0
 13  1  1  0  0  0  0
 14  2  1  0  0  0  0
 15 16  1  0  0  0  0
 16 12  2  0  0  0  0
 17 27  1  6  0  0  0
 17  9  1  0  0  0  0
 18  3  2  0  0  0  0
 19 13  2  0  0  0  0
 20 24  2  0  0  0  0
 20 21  1  0  0  0  0
 21 23  2  0  0  0  0
 22 16  1  0  0  0  0
 22 25  2  0  0  0  0
 23 25  1  0  0  0  0
 24 22  1  0  0  0  0
 26 20  1  0  0  0  0
 28 27  1  0  0  0  0
 30 29  1  1  0  0  0
 30 28  1  0  0  0  0
 31 33  1  0  0  0  0
 31 30  1  0  0  0  0
 33 32  2  0  0  0  0
 33 34  1  0  0  0  0
M  END
>  <MODEL>
3

>  <REMARK>
 VINA RESULT:     -10.9      1.352      2.116
  Name = 
  6 active torsions:
  status: ('A' for Active; 'I' for Inactive)
    1  A    between atoms: N_3  and  C_13
    2  A    between atoms: N_3  and  C_29
    3  A    between atoms: C_12  and  C_28
    4  A    between atoms: C_13  and  C_33
    5  A    between atoms: C_20  and  C_22
    6  A    between atoms: C_22  and  C_33
                            x       y       z     vdW  Elec       q    Type
                         _______ _______ _______ _____ _____    ______ ____

>  <TORSDO>
F 6

$$$$
=
 OpenBabel10262419163D

 34 38  0  0  1  0  0  0  0  0999 V2000
  188.8530  177.1830  146.0820 C   0  0  0  0  0  0  0  0  0  0  0  0
  187.0320  178.5250  146.9610 C   0  0  0  0  0  0  0  0  0  0  0  0
  187.1620  178.0000  144.4970 C   0  0  0  0  0  0  0  0  0  0  0  0
  185.4900  178.5530  142.8050 C   0  0  0  0  0  0  0  0  0  0  0  0
  189.3040  176.9510  147.3830 C   0  0  0  0  0  3  0  0  0  0  0  0
  187.5040  178.2910  148.2550 C   0  0  0  0  0  3  0  0  0  0  0  0
  184.6890  178.0800  145.1320 C   0  0  0  0  0  2  0  0  0  0  0  0
  187.6430  177.8900  145.8450 C   0  0  0  0  0  0  0  0  0  0  0  0
  183.4520  178.9050  144.8110 C   0  0  0  0  0  2  0  0  0  0  0  0
  184.1300  179.0490  142.3940 C   0  0  0  0  0  2  0  0  0  0  0  0
  188.6170  177.4830  148.4700 C   0  0  0  0  0  3  0  0  0  0  0  0
  188.0580  177.6840  143.4330 C   0  0  0  0  0  0  0  0  0  0  0  0
  189.6450  176.7610  145.0230 C   0  0  0  0  0  3  0  0  0  0  0  0
  186.0940  179.4920  146.8140 F   0  0  0  0  0  0  0  0  0  0  0  0
  186.4250  178.3930  141.8400 N   0  0  0  0  0  0  0  0  0  0  0  0
  187.6820  177.9500  142.0930 C   0  0  0  0  0  0  0  0  0  0  0  0
  183.0340  178.6280  143.3730 C   0  0  2  0  0  3  0  0  0  0  0  0
  185.8190  178.3250  144.1590 C   0  0  0  0  0  0  0  0  0  0  0  0
  189.2670  177.0390  143.7170 C   0  0  0  0  0  3  0  0  0  0  0  0
  189.2640  178.4120  138.6840 C   0  0  0  0  0  0  0  0  0  0  0  0
  190.3360  177.5180  138.7400 C   0  0  0  0  0  3  0  0  0  0  0  0
  188.5930  177.7650  140.9320 C   0  0  0  0  0  0  0  0  0  0  0  0
  190.5470  176.7540  139.8900 C   0  0  0  0  0  3  0  0  0  0  0  0
  188.4010  178.5380  139.7760 C   0  0  0  0  0  3  0  0  0  0  0  0
  189.6830  176.8810  140.9810 C   0  0  0  0  0  3  0  0  0  0  0  0
  189.0520  179.1960  137.5170 N   0  0  0  0  0  1  0  0  0  0  0  0
  181.7460  179.2440  143.0480 N   0  0  0  0  0  2  0  0  0  0  0  0
  181.0890  178.5300  141.9560 C   0  0  0  0  0  2  0  0  0  0  0  0
  179.7230  179.4060  140.2020 O   0  0  0  0  0  1  0  0  0  0  0  0
  181.0190  179.4150  140.7210 C   0  0  2  0  0  3  0  0  0  0  0  0
  182.0290  178.9920  139.6520 C   0  0  0  0  0  2  0  0  0  0  0  0
  184.1820  180.1280  139.0920 O   0  0  0  0  0  1  0  0  0  0  0  0
  182.7940  180.1500  139.0940 C   0  0  0  0  0  0  0  0  0  0  0  0
  182.1800  181.1330  138.6040 O   0  0  0  0  0  0  0  0  0  0  0  0
  1  5  2  0  0  0  0
  2  6  1  0  0  0  0
  3  8  1  0  0  0  0
  4 18  2  0  0  0  0
  5 11  1  0  0  0  0
  6 11  2  0  0  0  0
  8  1  1  0  0  0  0
  8  2  2  0  0  0  0
  9  7  1  0  0  0  0
 10  4  1  0  0  0  0
 10 17  1  0  0  0  0
 12 19  1  0  0  0  0
 12  3  2  0  0  0  0
 13  1  1  0  0  0  0
 14  2  1  0  0  0  0
 15 16  2  0  0  0  0
 15  4  1  0  0  0  0
 16 12  1  0  0  0  0
 17 27  1  6  0  0  0
 17  9  1  0  0  0  0
 18  3  1  0  0  0  0
 18  7  1  0  0  0  0
 19 13  2  0  0  0  0
 20 21  2  0  0  0  0
 20 24  1  0  0  0  0
 21 23  1  0  0  0  0
 22 25  1  0  0  0  0
 22 16  1  0  0  0  0
 23 25  2  0  0  0  0
 24 22  2  0  0  0  0
 26 20  1  0  0  0  0
 28 27  1  0  0  0  0
 30 29  1  6  0  0  0
 30 28  1  0  0  0  0
 31 30  1  0  0  0  0
 32 33  1  0  0  0  0
 33 31  1  0  0  0  0
 34 33  2  0  0  0  0
M  END
>  <MODEL>
4

>  <REMARK>
 VINA RESULT:     -10.7      2.453      6.045
  Name = 
  6 active torsions:
  status: ('A' for Active; 'I' for Inactive)
    1  A    between atoms: N_3  and  C_13
    2  A    between atoms: N_3  and  C_29
    3  A    between atoms: C_12  and  C_28
    4  A    between atoms: C_13  and  C_33
    5  A    between atoms: C_20  and  C_22
    6  A    between atoms: C_22  and  C_33
                            x       y       z     vdW  Elec       q    Type
                         _______ _______ _______ _____ _____    ______ ____

>  <TORSDO>
F 6

$$$$
=
 OpenBabel10262419163D

 34 38  0  0  1  0  0  0  0  0999 V2000
  187.0480  178.4210  147.1010 C   0  0  0  0  0  0  0  0  0  0  0  0
  189.0510  177.1740  146.5310 C   0  0  0  0  0  0  0  0  0  0  0  0
  187.4790  177.9660  144.7240 C   0  0  0  0  0  0  0  0  0  0  0  0
  187.8290  177.7820  142.3140 C   0  0  0  0  0  0  0  0  0  0  0  0
  187.4540  178.4550  148.4370 C   0  0  0  0  0  3  0  0  0  0  0  0
  189.4350  177.2070  147.8750 C   0  0  0  0  0  3  0  0  0  0  0  0
  189.8480  178.0580  143.7730 C   0  0  0  0  0  2  0  0  0  0  0  0
  187.8900  177.8700  146.0960 C   0  0  0  0  0  0  0  0  0  0  0  0
  190.6630  177.4030  142.6680 C   0  0  0  0  0  2  0  0  0  0  0  0
  188.6860  177.4750  141.1160 C   0  0  0  0  0  2  0  0  0  0  0  0
  188.6580  177.8710  148.8200 C   0  0  0  0  0  3  0  0  0  0  0  0
  186.1240  178.3120  144.4480 C   0  0  0  0  0  0  0  0  0  0  0  0
  185.7780  178.8830  146.7830 C   0  0  0  0  0  3  0  0  0  0  0  0
  189.7300  176.3280  145.7190 F   0  0  0  0  0  0  0  0  0  0  0  0
  186.5020  177.9600  142.1160 N   0  0  0  0  0  0  0  0  0  0  0  0
  185.6350  178.2430  143.1210 C   0  0  0  0  0  0  0  0  0  0  0  0
  190.1440  177.8860  141.3190 C   0  0  2  0  0  3  0  0  0  0  0  0
  188.3640  177.8180  143.6210 C   0  0  0  0  0  0  0  0  0  0  0  0
  185.3110  178.7970  145.4800 C   0  0  0  0  0  3  0  0  0  0  0  0
  182.4560  178.4230  141.0690 C   0  0  0  0  0  0  0  0  0  0  0  0
  181.5150  178.8010  142.0290 C   0  0  0  0  0  3  0  0  0  0  0  0
  184.2110  178.4700  142.7560 C   0  0  0  0  0  0  0  0  0  0  0  0
  181.9130  179.0060  143.3530 C   0  0  0  0  0  3  0  0  0  0  0  0
  183.7960  178.2530  141.4330 C   0  0  0  0  0  3  0  0  0  0  0  0
  183.2520  178.8360  143.7140 C   0  0  0  0  0  3  0  0  0  0  0  0
  182.0520  178.2080  139.7240 N   0  0  0  0  0  1  0  0  0  0  0  0
  190.9960  177.4430  140.2130 N   0  0  0  0  0  2  0  0  0  0  0  0
  190.2060  176.7570  139.1930 C   0  0  0  0  0  2  0  0  0  0  0  0
  190.9350  174.7900  138.0500 O   0  0  0  0  0  1  0  0  0  0  0  0
  191.1230  176.1710  138.1310 C   0  0  2  0  0  3  0  0  0  0  0  0
  192.5940  176.4980  138.3970 C   0  0  0  0  0  2  0  0  0  0  0  0
  194.6790  175.3010  137.7190 O   0  0  0  0  0  1  0  0  0  0  0  0
  193.5050  175.9440  137.3490 C   0  0  0  0  0  0  0  0  0  0  0  0
  193.1970  176.0370  136.1330 O   0  0  0  0  0  0  0  0  0  0  0  0
  1  5  2  0  0  0  0
  2  6  1  0  0  0  0
  3  8  1  0  0  0  0
  4 18  1  0  0  0  0
  5 11  1  0  0  0  0
  6 11  2  0  0  0  0
  8  2  2  0  0  0  0
  8  1  1  0  0  0  0
  9  7  1  0  0  0  0
 10 17  1  0  0  0  0
 10  4  1  0  0  0  0
 12  3  1  0  0  0  0
 12 19  1  0  0  0  0
 13  1  1  0  0  0  0
 14  2  1  0  0  0  0
 15  4  2  0  0  0  0
 15 16  1  0  0  0  0
 16 12  2  0  0  0  0
 17 27  1  6  0  0  0
 17  9  1  0  0  0  0
 18  7  1  0  0  0  0
 18  3  2  0  0  0  0
 19 13  2  0  0  0  0
 20 24  2  0  0  0  0
 20 21  1  0  0  0  0
 21 23  2  0  0  0  0
 22 16  1  0  0  0  0
 22 25  2  0  0  0  0
 23 25  1  0  0  0  0
 24 22  1  0  0  0  0
 26 20  1  0  0  0  0
 28 27  1  0  0  0  0
 30 29  1  1  0  0  0
 30 31  1  0  0  0  0
 30 28  1  0  0  0  0
 33 32  1  0  0  0  0
 33 31  1  0  0  0  0
 34 33  2  0  0  0  0
M  END
>  <MODEL>
5

>  <REMARK>
 VINA RESULT:     -10.7      2.518      3.554
  Name = 
  6 active torsions:
  status: ('A' for Active; 'I' for Inactive)
    1  A    between atoms: N_3  and  C_13
    2  A    between atoms: N_3  and  C_29
    3  A    between atoms: C_12  and  C_28
    4  A    between atoms: C_13  and  C_33
    5  A    between atoms: C_20  and  C_22
    6  A    between atoms: C_22  and  C_33
                            x       y       z     vdW  Elec       q    Type
                         _______ _______ _______ _____ _____    ______ ____

>  <TORSDO>
F 6

$$$$
=
 OpenBabel10262419163D

 34 38  0  0  1  0  0  0  0  0999 V2000
  191.1190  176.3210  145.1730 C   0  0  0  0  0  0  0  0  0  0  0  0
  189.8340  177.6040  146.7820 C   0  0  0  0  0  0  0  0  0  0  0  0
  189.0340  177.3690  144.4010 C   0  0  0  0  0  0  0  0  0  0  0  0
  186.9100  178.1670  143.4980 C   0  0  0  0  0  0  0  0  0  0  0  0
  191.9890  175.9240  146.1900 C   0  0  0  0  0  3  0  0  0  0  0  0
  190.7210  177.2060  147.7850 C   0  0  0  0  0  3  0  0  0  0  0  0
  186.9660  177.4490  145.8980 C   0  0  0  0  0  2  0  0  0  0  0  0
  189.9580  177.0870  145.4640 C   0  0  0  0  0  0  0  0  0  0  0  0
  185.7580  178.3420  146.1340 C   0  0  0  0  0  2  0  0  0  0  0  0
  185.5320  178.7480  143.6620 C   0  0  0  0  0  2  0  0  0  0  0  0
  191.7770  176.3450  147.5000 C   0  0  0  0  0  3  0  0  0  0  0  0
  189.4640  177.1540  143.0590 C   0  0  0  0  0  0  0  0  0  0  0  0
  191.4460  176.0030  143.8620 C   0  0  0  0  0  3  0  0  0  0  0  0
  188.9760  178.6100  147.0840 F   0  0  0  0  0  0  0  0  0  0  0  0
  187.4230  178.0930  142.2480 N   0  0  0  0  0  0  0  0  0  0  0  0
  188.6520  177.5860  141.9810 C   0  0  0  0  0  0  0  0  0  0  0  0
  184.8330  178.2480  144.9260 C   0  0  2  0  0  3  0  0  0  0  0  0
  187.6860  177.7720  144.6100 C   0  0  0  0  0  0  0  0  0  0  0  0
  190.6460  176.4440  142.8170 C   0  0  0  0  0  3  0  0  0  0  0  0
  188.7720  178.2430  138.2530 C   0  0  0  0  0  0  0  0  0  0  0  0
  189.8710  177.4750  137.8610 C   0  0  0  0  0  3  0  0  0  0  0  0
  189.0710  177.5120  140.5560 C   0  0  0  0  0  0  0  0  0  0  0  0
  190.5780  176.7330  138.8100 C   0  0  0  0  0  3  0  0  0  0  0  0
  188.3790  178.2650  139.5940 C   0  0  0  0  0  3  0  0  0  0  0  0
  190.1830  176.7560  140.1500 C   0  0  0  0  0  3  0  0  0  0  0  0
  188.0560  179.0040  137.2900 N   0  0  0  0  0  1  0  0  0  0  0  0
  183.5610  178.9380  145.1550 N   0  0  0  0  0  2  0  0  0  0  0  0
  183.1420  179.6640  143.9590 C   0  0  0  0  0  2  0  0  0  0  0  0
  182.4870  178.6300  141.9080 O   0  0  0  0  0  1  0  0  0  0  0  0
  182.0730  178.8760  143.2180 C   0  0  2  0  0  3  0  0  0  0  0  0
  180.7190  179.5900  143.2290 C   0  0  0  0  0  2  0  0  0  0  0  0
  179.1220  178.3460  144.6920 O   0  0  0  0  0  1  0  0  0  0  0  0
  179.5740  178.6470  143.4140 C   0  0  0  0  0  0  0  0  0  0  0  0
  179.0030  178.1440  142.4120 O   0  0  0  0  0  0  0  0  0  0  0  0
  1  8  1  0  0  0  0
  1  5  2  0  0  0  0
  2 14  1  0  0  0  0
  2  6  1  0  0  0  0
  3 18  1  0  0  0  0
  3  8  1  0  0  0  0
  4 10  1  0  0  0  0
  4 18  2  0  0  0  0
  5 11  1  0  0  0  0
  7  9  1  0  0  0  0
  8  2  2  0  0  0  0
 10 17  1  0  0  0  0
 11  6  2  0  0  0  0
 12  3  2  0  0  0  0
 13  1  1  0  0  0  0
 15  4  1  0  0  0  0
 16 15  2  0  0  0  0
 16 12  1  0  0  0  0
 17 27  1  1  0  0  0
 17  9  1  0  0  0  0
 18  7  1  0  0  0  0
 19 12  1  0  0  0  0
 19 13  2  0  0  0  0
 20 24  1  0  0  0  0
 21 20  2  0  0  0  0
 21 23  1  0  0  0  0
 22 16  1  0  0  0  0
 23 25  2  0  0  0  0
 24 22  2  0  0  0  0
 25 22  1  0  0  0  0
 26 20  1  0  0  0  0
 28 27  1  0  0  0  0
 30 29  1  6  0  0  0
 30 31  1  0  0  0  0
 30 28  1  0  0  0  0
 31 33  1  0  0  0  0
 33 32  1  0  0  0  0
 34 33  2  0  0  0  0
M  END
>  <MODEL>
6

>  <REMARK>
 VINA RESULT:     -10.6      2.805      6.336
  Name = 
  6 active torsions:
  status: ('A' for Active; 'I' for Inactive)
    1  A    between atoms: N_3  and  C_13
    2  A    between atoms: N_3  and  C_29
    3  A    between atoms: C_12  and  C_28
    4  A    between atoms: C_13  and  C_33
    5  A    between atoms: C_20  and  C_22
    6  A    between atoms: C_22  and  C_33
                            x       y       z     vdW  Elec       q    Type
                         _______ _______ _______ _____ _____    ______ ____

>  <TORSDO>
F 6

$$$$
=
 OpenBabel10262419163D

 34 38  0  0  1  0  0  0  0  0999 V2000
  190.8960  176.3800  144.9970 C   0  0  0  0  0  0  0  0  0  0  0  0
  189.5330  177.6610  146.5430 C   0  0  0  0  0  0  0  0  0  0  0  0
  188.8620  177.4440  144.1210 C   0  0  0  0  0  0  0  0  0  0  0  0
  186.7930  178.2590  143.1110 C   0  0  0  0  0  0  0  0  0  0  0  0
  191.7080  175.9720  146.0570 C   0  0  0  0  0  3  0  0  0  0  0  0
  190.3630  177.2520  147.5900 C   0  0  0  0  0  3  0  0  0  0  0  0
  186.7160  177.5260  145.5060 C   0  0  0  0  0  2  0  0  0  0  0  0
  189.7250  177.1510  145.2300 C   0  0  0  0  0  0  0  0  0  0  0  0
  185.5020  178.4260  145.6810 C   0  0  0  0  0  2  0  0  0  0  0  0
  185.4120  178.8470  143.2040 C   0  0  0  0  0  2  0  0  0  0  0  0
  191.4290  176.3860  147.3560 C   0  0  0  0  0  3  0  0  0  0  0  0
  189.3610  177.2340  142.8030 C   0  0  0  0  0  0  0  0  0  0  0  0
  191.2910  176.0670  143.7040 C   0  0  0  0  0  3  0  0  0  0  0  0
  188.6660  178.6700  146.8040 F   0  0  0  0  0  0  0  0  0  0  0  0
  187.3710  178.1900  141.8900 N   0  0  0  0  0  0  0  0  0  0  0  0
  188.6110  177.6770  141.6860 C   0  0  0  0  0  0  0  0  0  0  0  0
  184.6420  178.3440  144.4260 C   0  0  2  0  0  3  0  0  0  0  0  0
  187.5060  177.8530  144.2600 C   0  0  0  0  0  0  0  0  0  0  0  0
  190.5510  176.5190  142.6210 C   0  0  0  0  0  3  0  0  0  0  0  0
  190.3160  176.3970  138.5560 C   0  0  0  0  0  0  0  0  0  0  0  0
  189.9920  177.3870  137.6260 C   0  0  0  0  0  3  0  0  0  0  0  0
  189.1050  177.6090  140.2840 C   0  0  0  0  0  0  0  0  0  0  0  0
  189.2180  178.4830  138.0150 C   0  0  0  0  0  3  0  0  0  0  0  0
  189.8700  176.5050  139.8760 C   0  0  0  0  0  3  0  0  0  0  0  0
  188.7730  178.5900  139.3360 C   0  0  0  0  0  3  0  0  0  0  0  0
  191.0980  175.2780  138.1590 N   0  0  0  0  0  1  0  0  0  0  0  0
  183.3640  179.0390  144.5900 N   0  0  0  0  0  2  0  0  0  0  0  0
  182.3160  178.3910  143.8060 C   0  0  0  0  0  2  0  0  0  0  0  0
  180.7210  180.0370  143.1320 O   0  0  0  0  0  1  0  0  0  0  0  0
  181.8400  179.3220  142.7020 C   0  0  2  0  0  3  0  0  0  0  0  0
  181.5300  178.5680  141.4060 C   0  0  0  0  0  2  0  0  0  0  0  0
  183.0110  179.4500  139.5980 O   0  0  0  0  0  0  0  0  0  0  0  0
  182.7230  178.4460  140.5130 C   0  0  0  0  0  0  0  0  0  0  0  0
  183.4810  177.4460  140.6070 O   0  0  0  0  0  1  0  0  0  0  0  0
  1  8  1  0  0  0  0
  1  5  2  0  0  0  0
  2 14  1  0  0  0  0
  2  6  1  0  0  0  0
  3 18  1  0  0  0  0
  3  8  1  0  0  0  0
  4 10  1  0  0  0  0
  4 18  2  0  0  0  0
  5 11  1  0  0  0  0
  7  9  1  0  0  0  0
  8  2  2  0  0  0  0
 10 17  1  0  0  0  0
 11  6  2  0  0  0  0
 12  3  2  0  0  0  0
 13  1  1  0  0  0  0
 15  4  1  0  0  0  0
 16 15  2  0  0  0  0
 16 12  1  0  0  0  0
 17 27  1  1  0  0  0
 17  9  1  0  0  0  0
 18  7  1  0  0  0  0
 19 12  1  0  0  0  0
 19 13  2  0  0  0  0
 20 24  1  0  0  0  0
 21 23  1  0  0  0  0
 21 20  2  0  0  0  0
 22 16  1  0  0  0  0
 23 25  2  0  0  0  0
 24 22  2  0  0  0  0
 25 22  1  0  0  0  0
 26 20  1  0  0  0  0
 28 27  1  0  0  0  0
 30 29  1  1  0  0  0
 30 28  1  0  0  0  0
 31 30  1  0  0  0  0
 32 33  2  0  0  0  0
 33 34  1  0  0  0  0
 33 31  1  0  0  0  0
M  END
>  <MODEL>
7

>  <REMARK>
 VINA RESULT:     -10.1      2.136      6.040
  Name = 
  6 active torsions:
  status: ('A' for Active; 'I' for Inactive)
    1  A    between atoms: N_3  and  C_13
    2  A    between atoms: N_3  and  C_29
    3  A    between atoms: C_12  and  C_28
    4  A    between atoms: C_13  and  C_33
    5  A    between atoms: C_20  and  C_22
    6  A    between atoms: C_22  and  C_33
                            x       y       z     vdW  Elec       q    Type
                         _______ _______ _______ _____ _____    ______ ____

>  <TORSDO>
F 6

$$$$
=
 OpenBabel10262419163D

 34 38  0  0  1  0  0  0  0  0999 V2000
  185.9660  178.3500  146.0870 C   0  0  0  0  0  0  0  0  0  0  0  0
  187.6730  177.2600  144.7510 C   0  0  0  0  0  0  0  0  0  0  0  0
  185.6210  178.2350  143.6560 C   0  0  0  0  0  0  0  0  0  0  0  0
  185.1910  178.3910  141.2570 C   0  0  0  0  0  0  0  0  0  0  0  0
  186.7720  178.2160  147.2190 C   0  0  0  0  0  3  0  0  0  0  0  0
  188.4620  177.1240  145.8970 C   0  0  0  0  0  3  0  0  0  0  0  0
  187.5700  178.5350  142.0320 C   0  0  0  0  0  2  0  0  0  0  0  0
  186.4420  177.9690  144.8030 C   0  0  0  0  0  0  0  0  0  0  0  0
  187.9880  178.0630  140.6480 C   0  0  0  0  0  2  0  0  0  0  0  0
  185.6230  178.2780  139.8210 C   0  0  0  0  0  2  0  0  0  0  0  0
  188.0290  177.6270  147.1210 C   0  0  0  0  0  3  0  0  0  0  0  0
  184.2510  178.5700  143.8700 C   0  0  0  0  0  0  0  0  0  0  0  0
  184.6660  178.8080  146.2510 C   0  0  0  0  0  3  0  0  0  0  0  0
  188.0530  176.5550  143.6570 F   0  0  0  0  0  0  0  0  0  0  0  0
  183.8720  178.5490  141.5120 N   0  0  0  0  0  0  0  0  0  0  0  0
  183.3680  178.6650  142.7670 C   0  0  0  0  0  0  0  0  0  0  0  0
  187.0760  178.7070  139.6110 C   0  0  2  0  0  3  0  0  0  0  0  0
  186.1110  178.2680  142.3210 C   0  0  0  0  0  0  0  0  0  0  0  0
  183.8100  178.8830  145.1610 C   0  0  0  0  0  3  0  0  0  0  0  0
  179.8010  179.5980  141.9010 C   0  0  0  0  0  0  0  0  0  0  0  0
  179.1220  179.2590  143.0740 C   0  0  0  0  0  3  0  0  0  0  0  0
  181.9040  178.8910  142.9020 C   0  0  0  0  0  0  0  0  0  0  0  0
  179.8250  178.7280  144.1580 C   0  0  0  0  0  3  0  0  0  0  0  0
  181.1830  179.4090  141.8150 C   0  0  0  0  0  3  0  0  0  0  0  0
  181.2070  178.5410  144.0700 C   0  0  0  0  0  3  0  0  0  0  0  0
  179.0860  180.1310  140.7950 N   0  0  0  0  0  1  0  0  0  0  0  0
  187.5300  178.4450  138.2430 N   0  0  0  0  0  2  0  0  0  0  0  0
  188.9860  178.5240  138.1560 C   0  0  0  0  0  2  0  0  0  0  0  0
  188.5230  176.6400  136.7620 O   0  0  0  0  0  1  0  0  0  0  0  0
  189.5350  177.2760  137.4820 C   0  0  2  0  0  3  0  0  0  0  0  0
  190.1690  176.3110  138.4870 C   0  0  0  0  0  2  0  0  0  0  0  0
  191.7360  174.4680  137.8620 O   0  0  0  0  0  1  0  0  0  0  0  0
  191.5140  175.8260  138.0490 C   0  0  0  0  0  0  0  0  0  0  0  0
  192.4390  176.6500  137.8270 O   0  0  0  0  0  0  0  0  0  0  0  0
  1 13  1  0  0  0  0
  1  5  2  0  0  0  0
  2  8  2  0  0  0  0
  2  6  1  0  0  0  0
  3 12  1  0  0  0  0
  3  8  1  0  0  0  0
  4 15  2  0  0  0  0
  4 18  1  0  0  0  0
  6 11  2  0  0  0  0
  7 18  1  0  0  0  0
  8  1  1  0  0  0  0
  9  7  1  0  0  0  0
 10  4  1  0  0  0  0
 11  5  1  0  0  0  0
 12 19  1  0  0  0  0
 14  2  1  0  0  0  0
 15 16  1  0  0  0  0
 16 22  1  0  0  0  0
 16 12  2  0  0  0  0
 17 27  1  6  0  0  0
 17 10  1  0  0  0  0
 17  9  1  0  0  0  0
 18  3  2  0  0  0  0
 19 13  2  0  0  0  0
 20 21  1  0  0  0  0
 21 23  2  0  0  0  0
 22 25  2  0  0  0  0
 24 20  2  0  0  0  0
 24 22  1  0  0  0  0
 25 23  1  0  0  0  0
 26 20  1  0  0  0  0
 28 27  1  0  0  0  0
 30 29  1  1  0  0  0
 30 28  1  0  0  0  0
 30 31  1  0  0  0  0
 32 33  1  0  0  0  0
 33 31  1  0  0  0  0
 34 33  2  0  0  0  0
M  END
>  <MODEL>
8

>  <REMARK>
 VINA RESULT:      -9.8      2.368      3.875
  Name = 
  6 active torsions:
  status: ('A' for Active; 'I' for Inactive)
    1  A    between atoms: N_3  and  C_13
    2  A    between atoms: N_3  and  C_29
    3  A    between atoms: C_12  and  C_28
    4  A    between atoms: C_13  and  C_33
    5  A    between atoms: C_20  and  C_22
    6  A    between atoms: C_22  and  C_33
                            x       y       z     vdW  Elec       q    Type
                         _______ _______ _______ _____ _____    ______ ____

>  <TORSDO>
F 6

$$$$
=
 OpenBabel10262419163D

 34 38  0  0  1  0  0  0  0  0999 V2000
  185.5570  178.0010  143.3500 C   0  0  0  0  0  0  0  0  0  0  0  0
  185.8990  178.8630  141.1080 C   0  0  0  0  0  0  0  0  0  0  0  0
  187.7980  177.7790  142.3660 C   0  0  0  0  0  0  0  0  0  0  0  0
  190.0270  177.2950  141.4940 C   0  0  0  0  0  0  0  0  0  0  0  0
  184.1920  178.2770  143.2450 C   0  0  0  0  0  3  0  0  0  0  0  0
  184.5330  179.1440  141.0240 C   0  0  0  0  0  3  0  0  0  0  0  0
  188.1020  177.2200  139.8920 C   0  0  0  0  0  2  0  0  0  0  0  0
  186.4280  178.1900  142.2430 C   0  0  0  0  0  0  0  0  0  0  0  0
  189.0980  177.4860  138.7730 C   0  0  0  0  0  2  0  0  0  0  0  0
  191.0210  177.1990  140.3690 C   0  0  0  0  0  2  0  0  0  0  0  0
  183.6760  178.8250  142.0740 C   0  0  0  0  0  3  0  0  0  0  0  0
  188.3050  177.5010  143.6700 C   0  0  0  0  0  0  0  0  0  0  0  0
  186.0550  177.5930  144.5800 C   0  0  0  0  0  3  0  0  0  0  0  0
  186.6970  179.4000  140.1530 F   0  0  0  0  0  0  0  0  0  0  0  0
  190.4930  177.1970  142.7610 N   0  0  0  0  0  0  0  0  0  0  0  0
  189.6900  177.2680  143.8530 C   0  0  0  0  0  0  0  0  0  0  0  0
  190.3820  176.7190  139.0650 C   0  0  2  0  0  3  0  0  0  0  0  0
  188.6590  177.5510  141.2570 C   0  0  0  0  0  0  0  0  0  0  0  0
  187.4160  177.3800  144.7450 C   0  0  0  0  0  3  0  0  0  0  0  0
  190.2690  177.4630  147.5900 C   0  0  0  0  0  0  0  0  0  0  0  0
  191.4350  176.7090  147.7410 C   0  0  0  0  0  3  0  0  0  0  0  0
  190.3250  177.0880  145.1860 C   0  0  0  0  0  0  0  0  0  0  0  0
  192.0440  176.1350  146.6210 C   0  0  0  0  0  3  0  0  0  0  0  0
  189.7150  177.6460  146.3200 C   0  0  0  0  0  3  0  0  0  0  0  0
  191.4880  176.3200  145.3530 C   0  0  0  0  0  3  0  0  0  0  0  0
  189.6450  178.0410  148.7290 N   0  0  0  0  0  1  0  0  0  0  0  0
  191.3220  176.7780  137.9430 N   0  0  0  0  0  2  0  0  0  0  0  0
  192.0390  175.5130  137.7990 C   0  0  0  0  0  2  0  0  0  0  0  0
  193.9540  176.8210  137.2270 O   0  0  0  0  0  1  0  0  0  0  0  0
  193.5310  175.7350  137.9940 C   0  0  2  0  0  3  0  0  0  0  0  0
  194.3470  174.4860  137.6530 C   0  0  0  0  0  2  0  0  0  0  0  0
  195.7210  172.7950  138.8750 O   0  0  0  0  0  0  0  0  0  0  0  0
  195.3080  174.1130  138.7370 C   0  0  0  0  0  0  0  0  0  0  0  0
  195.7600  174.9970  139.5080 O   0  0  0  0  0  1  0  0  0  0  0  0
  1 13  1  0  0  0  0
  2  8  1  0  0  0  0
  3 12  1  0  0  0  0
  4 15  2  0  0  0  0
  5  1  1  0  0  0  0
  6  2  2  0  0  0  0
  6 11  1  0  0  0  0
  7 18  1  0  0  0  0
  8  3  1  0  0  0  0
  8  1  2  0  0  0  0
  9 17  1  0  0  0  0
  9  7  1  0  0  0  0
 10  4  1  0  0  0  0
 11  5  2  0  0  0  0
 12 16  2  0  0  0  0
 12 19  1  0  0  0  0
 13 19  2  0  0  0  0
 14  2  1  0  0  0  0
 15 16  1  0  0  0  0
 16 22  1  0  0  0  0
 17 27  1  6  0  0  0
 17 10  1  0  0  0  0
 18  4  1  0  0  0  0
 18  3  2  0  0  0  0
 20 21  1  0  0  0  0
 20 26  1  0  0  0  0
 22 25  2  0  0  0  0
 22 24  1  0  0  0  0
 23 21  2  0  0  0  0
 24 20  2  0  0  0  0
 25 23  1  0  0  0  0
 28 27  1  0  0  0  0
 28 30  1  0  0  0  0
 30 29  1  6  0  0  0
 31 30  1  0  0  0  0
 31 33  1  0  0  0  0
 33 32  2  0  0  0  0
 33 34  1  0  0  0  0
M  END
>  <MODEL>
9

>  <REMARK>
 VINA RESULT:      -9.6      3.525      6.416
  Name = 
  6 active torsions:
  status: ('A' for Active; 'I' for Inactive)
    1  A    between atoms: N_3  and  C_13
    2  A    between atoms: N_3  and  C_29
    3  A    between atoms: C_12  and  C_28
    4  A    between atoms: C_13  and  C_33
    5  A    between atoms: C_20  and  C_22
    6  A    between atoms: C_22  and  C_33
                            x       y       z     vdW  Elec       q    Type
                         _______ _______ _______ _____ _____    ______ ____

>  <TORSDO>
F 6

$$$$
