=
 OpenBabel10262419323D

 31 34  0  0  1  0  0  0  0  0999 V2000
  190.8100  177.4580  145.8180 C   0  0  2  0  0  3  0  0  0  0  0  0
  188.7740  177.6420  144.3530 C   0  0  1  0  0  3  0  0  0  0  0  0
  191.6870  177.3650  144.5760 C   0  0  0  0  0  2  0  0  0  0  0  0
  191.4420  176.6690  146.9430 C   0  0  0  0  0  1  0  0  0  0  0  0
  189.4250  176.8950  145.5190 C   0  0  0  0  0  2  0  0  0  0  0  0
  189.6750  177.6440  143.1000 C   0  0  2  0  0  3  0  0  0  0  0  0
  191.0640  178.1740  143.4450 C   0  0  0  0  0  2  0  0  0  0  0  0
  187.3980  177.0910  144.0890 C   0  0  0  0  0  0  0  0  0  0  0  0
  187.3150  176.0640  143.3640 O   0  0  0  0  0  0  0  0  0  0  0  0
  186.1640  177.7300  144.6310 C   0  0  0  0  0  0  0  0  0  0  0  0
  184.8530  178.3690  146.5860 C   0  0  0  0  0  3  0  0  0  0  0  0
  185.9870  177.7840  146.0240 C   0  0  0  0  0  3  0  0  0  0  0  0
  183.8690  178.9100  145.7630 C   0  0  0  0  0  3  0  0  0  0  0  0
  184.0170  178.8610  144.3770 C   0  0  0  0  0  3  0  0  0  0  0  0
  185.1550  178.2780  143.7940 C   0  0  0  0  0  0  0  0  0  0  0  0
  185.8700  179.4500  141.7070 C   0  0  0  0  0  1  0  0  0  0  0  0
  183.8790  177.9510  141.6770 C   0  0  0  0  0  1  0  0  0  0  0  0
  185.2430  178.2000  142.2950 C   0  0  0  0  0  3  0  0  0  0  0  0
  189.0920  178.5250  142.0070 C   0  0  0  0  0  2  0  0  0  0  0  0
  188.9700  177.7400  140.7120 C   0  0  0  0  0  2  0  0  0  0  0  0
  188.6710  178.6410  139.6100 N   0  0  0  0  0  2  0  0  0  0  0  0
  184.6710  177.3170  136.5630 C   0  0  0  0  0  0  0  0  0  0  0  0
  185.8930  178.0820  138.5290 C   0  0  0  0  0  3  0  0  0  0  0  0
  188.3300  177.3400  135.8960 C   0  0  0  0  0  3  0  0  0  0  0  0
  189.4510  177.8220  137.0680 S   0  0  0  0  0  0  0  0  0  0  0  0
  183.1480  176.9430  135.7860 Cl  0  0  0  0  0  0  0  0  0  0  0  0
  188.3550  178.1740  138.2960 C   0  0  0  0  0  0  0  0  0  0  0  0
  184.6820  177.7770  137.8910 C   0  0  0  0  0  3  0  0  0  0  0  0
  187.0750  177.4590  136.4900 C   0  0  0  0  0  0  0  0  0  0  0  0
  187.0840  177.9200  137.8180 C   0  0  0  0  0  0  0  0  0  0  0  0
  185.8710  177.1560  135.8550 C   0  0  0  0  0  3  0  0  0  0  0  0
  1  4  1  1  0  0  0
  2  8  1  6  0  0  0
  2  5  1  0  0  0  0
  3  1  1  0  0  0  0
  5  1  1  0  0  0  0
  6 19  1  6  0  0  0
  6  7  1  0  0  0  0
  6  2  1  0  0  0  0
  7  3  1  0  0  0  0
  8 10  1  0  0  0  0
  9  8  2  0  0  0  0
 10 12  1  0  0  0  0
 12 11  2  0  0  0  0
 13 11  1  0  0  0  0
 14 13  2  0  0  0  0
 15 14  1  0  0  0  0
 15 10  2  0  0  0  0
 16 18  1  0  0  0  0
 17 18  1  0  0  0  0
 18 15  1  0  0  0  0
 20 19  1  0  0  0  0
 21 20  1  0  0  0  0
 22 28  1  0  0  0  0
 24 29  2  0  0  0  0
 24 25  1  0  0  0  0
 25 27  1  0  0  0  0
 26 22  1  0  0  0  0
 27 21  1  0  0  0  0
 28 23  2  0  0  0  0
 29 30  1  0  0  0  0
 30 27  2  0  0  0  0
 30 23  1  0  0  0  0
 31 29  1  0  0  0  0
 31 22  2  0  0  0  0
M  END
>  <MODEL>
1

>  <REMARK>
 VINA RESULT:      -9.0      0.000      0.000
  Name = 
  7 active torsions:
  status: ('A' for Active; 'I' for Inactive)
    1  A    between atoms: C_4  and  C_5
    2  A    between atoms: C_4  and  C_12
    3  A    between atoms: C_9  and  N_23
    4  A    between atoms: C_15  and  C_20
    5  A    between atoms: C_15  and  N_23
    6  A    between atoms: C_20  and  C_27
    7  A    between atoms: C_30  and  C_31
                            x       y       z     vdW  Elec       q    Type
                         _______ _______ _______ _____ _____    ______ ____

>  <TORSDO>
F 7

$$$$
=
 OpenBabel10262419323D

 31 34  0  0  1  0  0  0  0  0999 V2000
  186.0060  176.6630  137.1970 C   0  0  2  0  0  3  0  0  0  0  0  0
  185.7270  178.0630  139.2680 C   0  0  1  0  0  3  0  0  0  0  0  0
  187.4720  177.0690  137.1280 C   0  0  0  0  0  2  0  0  0  0  0  0
  185.4810  176.4270  135.7970 C   0  0  0  0  0  1  0  0  0  0  0  0
  185.1920  177.7660  137.8640 C   0  0  0  0  0  2  0  0  0  0  0  0
  187.2340  178.3930  139.2480 C   0  0  2  0  0  3  0  0  0  0  0  0
  188.0110  177.2890  138.5360 C   0  0  0  0  0  2  0  0  0  0  0  0
  184.8970  179.1350  139.9220 C   0  0  0  0  0  0  0  0  0  0  0  0
  184.6750  180.1810  139.2590 O   0  0  0  0  0  0  0  0  0  0  0  0
  184.3670  178.9980  141.3100 C   0  0  0  0  0  0  0  0  0  0  0  0
  184.8010  179.0910  143.7090 C   0  0  0  0  0  3  0  0  0  0  0  0
  185.2410  179.2050  142.3910 C   0  0  0  0  0  3  0  0  0  0  0  0
  183.4740  178.7610  143.9730 C   0  0  0  0  0  3  0  0  0  0  0  0
  182.5880  178.5420  142.9180 C   0  0  0  0  0  3  0  0  0  0  0  0
  183.0150  178.6570  141.5830 C   0  0  0  0  0  0  0  0  0  0  0  0
  180.6040  178.5590  140.9360 C   0  0  0  0  0  1  0  0  0  0  0  0
  182.2280  176.9480  139.9460 C   0  0  0  0  0  1  0  0  0  0  0  0
  182.0380  178.3560  140.4810 C   0  0  0  0  0  3  0  0  0  0  0  0
  187.7850  178.5240  140.6580 C   0  0  0  0  0  2  0  0  0  0  0  0
  188.9250  177.5420  140.8680 C   0  0  0  0  0  2  0  0  0  0  0  0
  188.6800  176.7390  142.0550 N   0  0  0  0  0  2  0  0  0  0  0  0
  188.5190  177.6770  147.1670 C   0  0  0  0  0  0  0  0  0  0  0  0
  187.7540  177.3820  144.8710 C   0  0  0  0  0  3  0  0  0  0  0  0
  191.3750  176.8310  144.9410 C   0  0  0  0  0  3  0  0  0  0  0  0
  191.1710  176.5650  143.2820 S   0  0  0  0  0  0  0  0  0  0  0  0
  188.1560  178.0350  148.8410 Cl  0  0  0  0  0  0  0  0  0  0  0  0
  189.5070  176.8110  143.2200 C   0  0  0  0  0  0  0  0  0  0  0  0
  187.4830  177.6680  146.2160 C   0  0  0  0  0  3  0  0  0  0  0  0
  190.1080  177.1190  145.4450 C   0  0  0  0  0  0  0  0  0  0  0  0
  189.0720  177.1090  144.4960 C   0  0  0  0  0  0  0  0  0  0  0  0
  189.8390  177.4010  146.7830 C   0  0  0  0  0  3  0  0  0  0  0  0
  1  4  1  6  0  0  0
  1  5  1  0  0  0  0
  2  8  1  6  0  0  0
  3  1  1  0  0  0  0
  3  7  1  0  0  0  0
  5  2  1  0  0  0  0
  6  2  1  0  0  0  0
  6 19  1  1  0  0  0
  7  6  1  0  0  0  0
  8 10  1  0  0  0  0
  9  8  2  0  0  0  0
 10 15  2  0  0  0  0
 10 12  1  0  0  0  0
 11 13  1  0  0  0  0
 12 11  2  0  0  0  0
 14 13  2  0  0  0  0
 15 14  1  0  0  0  0
 17 18  1  0  0  0  0
 18 16  1  0  0  0  0
 18 15  1  0  0  0  0
 19 20  1  0  0  0  0
 20 21  1  0  0  0  0
 21 27  1  0  0  0  0
 22 26  1  0  0  0  0
 23 28  2  0  0  0  0
 24 29  2  0  0  0  0
 25 24  1  0  0  0  0
 27 25  1  0  0  0  0
 27 30  2  0  0  0  0
 28 22  1  0  0  0  0
 29 31  1  0  0  0  0
 30 23  1  0  0  0  0
 30 29  1  0  0  0  0
 31 22  2  0  0  0  0
M  END
>  <MODEL>
2

>  <REMARK>
 VINA RESULT:      -8.9      3.345      7.116
  Name = 
  7 active torsions:
  status: ('A' for Active; 'I' for Inactive)
    1  A    between atoms: C_4  and  C_5
    2  A    between atoms: C_4  and  C_12
    3  A    between atoms: C_9  and  N_23
    4  A    between atoms: C_15  and  C_20
    5  A    between atoms: C_15  and  N_23
    6  A    between atoms: C_20  and  C_27
    7  A    between atoms: C_30  and  C_31
                            x       y       z     vdW  Elec       q    Type
                         _______ _______ _______ _____ _____    ______ ____

>  <TORSDO>
F 7

$$$$
=
 OpenBabel10262419323D

 31 34  0  0  1  0  0  0  0  0999 V2000
  190.5770  177.5780  140.4160 C   0  0  2  0  0  3  0  0  0  0  0  0
  188.9340  177.4850  142.3180 C   0  0  1  0  0  3  0  0  0  0  0  0
  189.4570  178.0060  139.4780 C   0  0  0  0  0  2  0  0  0  0  0  0
  191.6050  176.7790  139.6450 C   0  0  0  0  0  1  0  0  0  0  0  0
  190.0120  176.7220  141.5440 C   0  0  0  0  0  2  0  0  0  0  0  0
  187.8240  178.0110  141.3850 C   0  0  2  0  0  3  0  0  0  0  0  0
  188.4290  178.8280  140.2450 C   0  0  0  0  0  2  0  0  0  0  0  0
  188.4050  176.6350  143.4430 C   0  0  0  0  0  0  0  0  0  0  0  0
  187.9970  175.4800  143.1540 O   0  0  0  0  0  0  0  0  0  0  0  0
  188.3330  177.1280  144.8490 C   0  0  0  0  0  0  0  0  0  0  0  0
  186.9530  177.9440  146.6870 C   0  0  0  0  0  3  0  0  0  0  0  0
  187.0800  177.4780  145.3790 C   0  0  0  0  0  3  0  0  0  0  0  0
  188.0820  178.0740  147.4920 C   0  0  0  0  0  3  0  0  0  0  0  0
  189.3380  177.7410  146.9870 C   0  0  0  0  0  3  0  0  0  0  0  0
  189.4830  177.2660  145.6710 C   0  0  0  0  0  0  0  0  0  0  0  0
  191.7290  176.3170  146.2150 C   0  0  0  0  0  1  0  0  0  0  0  0
  191.5340  178.2310  144.6310 C   0  0  0  0  0  1  0  0  0  0  0  0
  190.8650  176.9730  145.1540 C   0  0  0  0  0  3  0  0  0  0  0  0
  186.8510  178.9030  142.1390 C   0  0  0  0  0  2  0  0  0  0  0  0
  185.4230  178.5800  141.7330 C   0  0  0  0  0  2  0  0  0  0  0  0
  185.0270  179.4050  140.6030 N   0  0  0  0  0  2  0  0  0  0  0  0
  184.9930  176.8450  136.0770 C   0  0  0  0  0  0  0  0  0  0  0  0
  185.8460  177.8760  138.1150 C   0  0  0  0  0  3  0  0  0  0  0  0
  182.2140  178.3450  138.0410 C   0  0  0  0  0  3  0  0  0  0  0  0
  182.4820  179.1390  139.5110 S   0  0  0  0  0  0  0  0  0  0  0  0
  185.2930  175.9650  134.5940 Cl  0  0  0  0  0  0  0  0  0  0  0  0
  184.1520  178.9370  139.5740 C   0  0  0  0  0  0  0  0  0  0  0  0
  186.0670  177.1730  136.9230 C   0  0  0  0  0  3  0  0  0  0  0  0
  183.4640  177.9190  137.5990 C   0  0  0  0  0  0  0  0  0  0  0  0
  184.5400  178.2440  138.4430 C   0  0  0  0  0  0  0  0  0  0  0  0
  183.6830  177.2180  136.4130 C   0  0  0  0  0  3  0  0  0  0  0  0
  1  4  1  6  0  0  0
  1  5  1  0  0  0  0
  2  8  1  1  0  0  0
  3  7  1  0  0  0  0
  3  1  1  0  0  0  0
  5  2  1  0  0  0  0
  6 19  1  1  0  0  0
  6  2  1  0  0  0  0
  7  6  1  0  0  0  0
  8 10  1  0  0  0  0
  9  8  2  0  0  0  0
 10 12  2  0  0  0  0
 10 15  1  0  0  0  0
 11 13  2  0  0  0  0
 12 11  1  0  0  0  0
 14 13  1  0  0  0  0
 15 14  2  0  0  0  0
 17 18  1  0  0  0  0
 18 15  1  0  0  0  0
 18 16  1  0  0  0  0
 20 19  1  0  0  0  0
 21 20  1  0  0  0  0
 22 31  2  0  0  0  0
 22 28  1  0  0  0  0
 23 30  1  0  0  0  0
 24 25  1  0  0  0  0
 25 27  1  0  0  0  0
 26 22  1  0  0  0  0
 27 21  1  0  0  0  0
 28 23  2  0  0  0  0
 29 24  2  0  0  0  0
 29 30  1  0  0  0  0
 30 27  2  0  0  0  0
 31 29  1  0  0  0  0
M  END
>  <MODEL>
3

>  <REMARK>
 VINA RESULT:      -8.6      2.122      4.464
  Name = 
  7 active torsions:
  status: ('A' for Active; 'I' for Inactive)
    1  A    between atoms: C_4  and  C_5
    2  A    between atoms: C_4  and  C_12
    3  A    between atoms: C_9  and  N_23
    4  A    between atoms: C_15  and  C_20
    5  A    between atoms: C_15  and  N_23
    6  A    between atoms: C_20  and  C_27
    7  A    between atoms: C_30  and  C_31
                            x       y       z     vdW  Elec       q    Type
                         _______ _______ _______ _____ _____    ______ ____

>  <TORSDO>
F 7

$$$$
=
 OpenBabel10262419323D

 31 34  0  0  1  0  0  0  0  0999 V2000
  190.7380  177.4290  145.9870 C   0  0  2  0  0  3  0  0  0  0  0  0
  188.7830  177.5790  144.4130 C   0  0  1  0  0  3  0  0  0  0  0  0
  191.6720  177.2400  144.7990 C   0  0  0  0  0  2  0  0  0  0  0  0
  191.2920  176.6910  147.1870 C   0  0  0  0  0  1  0  0  0  0  0  0
  189.3540  176.8850  145.6520 C   0  0  0  0  0  2  0  0  0  0  0  0
  189.7440  177.4840  143.2090 C   0  0  2  0  0  3  0  0  0  0  0  0
  191.1300  177.9970  143.5930 C   0  0  0  0  0  2  0  0  0  0  0  0
  187.4060  177.0500  144.1110 C   0  0  0  0  0  0  0  0  0  0  0  0
  187.3270  176.0120  143.4020 O   0  0  0  0  0  0  0  0  0  0  0  0
  186.1680  177.7220  144.6000 C   0  0  0  0  0  0  0  0  0  0  0  0
  184.8140  178.4390  146.4990 C   0  0  0  0  0  3  0  0  0  0  0  0
  185.9540  177.8210  145.9850 C   0  0  0  0  0  3  0  0  0  0  0  0
  183.8600  178.9670  145.6330 C   0  0  0  0  0  3  0  0  0  0  0  0
  184.0430  178.8730  144.2540 C   0  0  0  0  0  3  0  0  0  0  0  0
  185.1890  178.2570  143.7200 C   0  0  0  0  0  0  0  0  0  0  0  0
  186.0240  179.3300  141.6240 C   0  0  0  0  0  1  0  0  0  0  0  0
  183.9580  177.9360  141.5750 C   0  0  0  0  0  1  0  0  0  0  0  0
  185.3150  178.1310  142.2270 C   0  0  0  0  0  3  0  0  0  0  0  0
  189.2410  178.3140  142.0390 C   0  0  0  0  0  2  0  0  0  0  0  0
  189.2060  177.4710  140.7760 C   0  0  0  0  0  2  0  0  0  0  0  0
  189.5280  178.2920  139.6190 N   0  0  0  0  0  2  0  0  0  0  0  0
  192.1350  175.5320  136.0660 C   0  0  0  0  0  0  0  0  0  0  0  0
  191.6170  176.6280  138.1810 C   0  0  0  0  0  3  0  0  0  0  0  0
  188.8160  177.2010  135.8900 C   0  0  0  0  0  3  0  0  0  0  0  0
  188.1710  178.0520  137.2030 S   0  0  0  0  0  0  0  0  0  0  0  0
  193.2320  174.5770  135.0930 Cl  0  0  0  0  0  0  0  0  0  0  0  0
  189.4410  177.8030  138.2780 C   0  0  0  0  0  0  0  0  0  0  0  0
  192.4840  175.8650  137.3870 C   0  0  0  0  0  3  0  0  0  0  0  0
  190.0530  176.7180  136.3140 C   0  0  0  0  0  0  0  0  0  0  0  0
  190.4030  177.0490  137.6340 C   0  0  0  0  0  0  0  0  0  0  0  0
  190.9140  175.9580  135.5230 C   0  0  0  0  0  3  0  0  0  0  0  0
  1  4  1  1  0  0  0
  2  8  1  6  0  0  0
  2  5  1  0  0  0  0
  3  1  1  0  0  0  0
  5  1  1  0  0  0  0
  6 19  1  6  0  0  0
  6  7  1  0  0  0  0
  6  2  1  0  0  0  0
  7  3  1  0  0  0  0
  8 10  1  0  0  0  0
  9  8  2  0  0  0  0
 10 12  1  0  0  0  0
 12 11  2  0  0  0  0
 13 11  1  0  0  0  0
 14 13  2  0  0  0  0
 15 14  1  0  0  0  0
 15 10  2  0  0  0  0
 16 18  1  0  0  0  0
 17 18  1  0  0  0  0
 18 15  1  0  0  0  0
 20 19  1  0  0  0  0
 21 20  1  0  0  0  0
 22 28  1  0  0  0  0
 24 29  2  0  0  0  0
 24 25  1  0  0  0  0
 25 27  1  0  0  0  0
 26 22  1  0  0  0  0
 27 21  1  0  0  0  0
 28 23  2  0  0  0  0
 29 30  1  0  0  0  0
 30 23  1  0  0  0  0
 30 27  2  0  0  0  0
 31 22  2  0  0  0  0
 31 29  1  0  0  0  0
M  END
>  <MODEL>
4

>  <REMARK>
 VINA RESULT:      -8.6      2.431      3.211
  Name = 
  7 active torsions:
  status: ('A' for Active; 'I' for Inactive)
    1  A    between atoms: C_4  and  C_5
    2  A    between atoms: C_4  and  C_12
    3  A    between atoms: C_9  and  N_23
    4  A    between atoms: C_15  and  C_20
    5  A    between atoms: C_15  and  N_23
    6  A    between atoms: C_20  and  C_27
    7  A    between atoms: C_30  and  C_31
                            x       y       z     vdW  Elec       q    Type
                         _______ _______ _______ _____ _____    ______ ____

>  <TORSDO>
F 7

$$$$
=
 OpenBabel10262419323D

 31 34  0  0  1  0  0  0  0  0999 V2000
  190.8560  177.8300  141.0000 C   0  0  2  0  0  3  0  0  0  0  0  0
  188.6920  177.6410  142.2680 C   0  0  1  0  0  3  0  0  0  0  0  0
  190.0800  177.8470  139.6900 C   0  0  0  0  0  2  0  0  0  0  0  0
  192.2070  177.1840  140.7790 C   0  0  0  0  0  1  0  0  0  0  0  0
  190.0840  177.0410  142.0510 C   0  0  0  0  0  2  0  0  0  0  0  0
  187.9070  177.7560  140.9440 C   0  0  2  0  0  3  0  0  0  0  0  0
  188.7270  178.5140  139.9030 C   0  0  0  0  0  2  0  0  0  0  0  0
  187.9530  176.8670  143.3260 C   0  0  0  0  0  0  0  0  0  0  0  0
  187.9310  175.6130  143.2180 O   0  0  0  0  0  0  0  0  0  0  0  0
  187.2450  177.5360  144.4560 C   0  0  0  0  0  0  0  0  0  0  0  0
  185.2650  178.7230  145.2450 C   0  0  0  0  0  3  0  0  0  0  0  0
  185.9730  178.0870  144.2260 C   0  0  0  0  0  3  0  0  0  0  0  0
  185.8210  178.8270  146.5170 C   0  0  0  0  0  3  0  0  0  0  0  0
  187.0860  178.2970  146.7700 C   0  0  0  0  0  3  0  0  0  0  0  0
  187.8110  177.6490  145.7540 C   0  0  0  0  0  0  0  0  0  0  0  0
  189.3970  176.9450  147.5510 C   0  0  0  0  0  1  0  0  0  0  0  0
  190.2550  178.0740  145.5010 C   0  0  0  0  0  1  0  0  0  0  0  0
  189.1940  177.1440  146.0610 C   0  0  0  0  0  3  0  0  0  0  0  0
  186.5970  178.5010  141.1470 C   0  0  0  0  0  2  0  0  0  0  0  0
  185.8580  178.6280  139.8260 C   0  0  0  0  0  2  0  0  0  0  0  0
  184.7570  179.5690  139.9590 N   0  0  0  0  0  2  0  0  0  0  0  0
  180.7060  178.5820  143.0670 C   0  0  0  0  0  0  0  0  0  0  0  0
  182.9570  179.2120  142.3740 C   0  0  0  0  0  3  0  0  0  0  0  0
  181.0300  178.4040  139.3660 C   0  0  0  0  0  3  0  0  0  0  0  0
  182.4770  178.7810  138.5740 S   0  0  0  0  0  0  0  0  0  0  0  0
  179.5400  178.3250  144.3450 Cl  0  0  0  0  0  0  0  0  0  0  0  0
  183.3860  179.1620  139.9380 C   0  0  0  0  0  0  0  0  0  0  0  0
  182.0100  179.0010  143.3860 C   0  0  0  0  0  3  0  0  0  0  0  0
  181.2770  178.5800  140.7260 C   0  0  0  0  0  0  0  0  0  0  0  0
  182.5790  178.9990  141.0470 C   0  0  0  0  0  0  0  0  0  0  0  0
  180.3330  178.3710  141.7310 C   0  0  0  0  0  3  0  0  0  0  0  0
  1  4  1  6  0  0  0
  1  5  1  0  0  0  0
  2  8  1  1  0  0  0
  3  7  1  0  0  0  0
  3  1  1  0  0  0  0
  5  2  1  0  0  0  0
  6 19  1  1  0  0  0
  6  2  1  0  0  0  0
  7  6  1  0  0  0  0
  8 10  1  0  0  0  0
  9  8  2  0  0  0  0
 10 15  1  0  0  0  0
 11 13  2  0  0  0  0
 12 10  2  0  0  0  0
 12 11  1  0  0  0  0
 13 14  1  0  0  0  0
 15 18  1  0  0  0  0
 15 14  2  0  0  0  0
 17 18  1  0  0  0  0
 18 16  1  0  0  0  0
 20 21  1  0  0  0  0
 20 19  1  0  0  0  0
 22 28  1  0  0  0  0
 22 26  1  0  0  0  0
 23 28  2  0  0  0  0
 24 29  2  0  0  0  0
 25 24  1  0  0  0  0
 25 27  1  0  0  0  0
 27 21  1  0  0  0  0
 27 30  2  0  0  0  0
 29 30  1  0  0  0  0
 29 31  1  0  0  0  0
 30 23  1  0  0  0  0
 31 22  2  0  0  0  0
M  END
>  <MODEL>
5

>  <REMARK>
 VINA RESULT:      -8.6      2.968      5.249
  Name = 
  7 active torsions:
  status: ('A' for Active; 'I' for Inactive)
    1  A    between atoms: C_4  and  C_5
    2  A    between atoms: C_4  and  C_12
    3  A    between atoms: C_9  and  N_23
    4  A    between atoms: C_15  and  C_20
    5  A    between atoms: C_15  and  N_23
    6  A    between atoms: C_20  and  C_27
    7  A    between atoms: C_30  and  C_31
                            x       y       z     vdW  Elec       q    Type
                         _______ _______ _______ _____ _____    ______ ____

>  <TORSDO>
F 7

$$$$
=
 OpenBabel10262419323D

 31 34  0  0  1  0  0  0  0  0999 V2000
  188.1100  178.6210  140.5480 C   0  0  2  0  0  3  0  0  0  0  0  0
  187.5920  177.8620  142.8890 C   0  0  1  0  0  3  0  0  0  0  0  0
  186.6200  178.6440  140.2330 C   0  0  0  0  0  2  0  0  0  0  0  0
  188.8870  178.2830  139.2940 C   0  0  0  0  0  1  0  0  0  0  0  0
  188.3980  177.5760  141.6200 C   0  0  0  0  0  2  0  0  0  0  0  0
  186.0820  177.9800  142.5930 C   0  0  2  0  0  3  0  0  0  0  0  0
  185.8340  179.0030  141.4880 C   0  0  0  0  0  2  0  0  0  0  0  0
  187.9070  176.8370  143.9450 C   0  0  0  0  0  0  0  0  0  0  0  0
  187.9120  175.6270  143.5960 O   0  0  0  0  0  0  0  0  0  0  0  0
  188.1830  177.2100  145.3630 C   0  0  0  0  0  0  0  0  0  0  0  0
  187.2980  177.8790  147.5360 C   0  0  0  0  0  3  0  0  0  0  0  0
  187.1000  177.5230  146.2020 C   0  0  0  0  0  3  0  0  0  0  0  0
  188.5880  177.9330  148.0570 C   0  0  0  0  0  3  0  0  0  0  0  0
  189.6800  177.6360  147.2420 C   0  0  0  0  0  3  0  0  0  0  0  0
  189.4980  177.2730  145.8970 C   0  0  0  0  0  0  0  0  0  0  0  0
  191.8290  176.3770  145.8450 C   0  0  0  0  0  1  0  0  0  0  0  0
  191.1950  178.2920  144.3810 C   0  0  0  0  0  1  0  0  0  0  0  0
  190.7100  177.0160  145.0440 C   0  0  0  0  0  3  0  0  0  0  0  0
  185.3150  178.4250  143.8280 C   0  0  0  0  0  2  0  0  0  0  0  0
  184.1980  179.3770  143.4350 C   0  0  0  0  0  2  0  0  0  0  0  0
  182.9140  178.6980  143.5110 N   0  0  0  0  0  2  0  0  0  0  0  0
  181.5650  177.8000  138.5700 C   0  0  0  0  0  0  0  0  0  0  0  0
  182.8840  177.7800  140.6200 C   0  0  0  0  0  3  0  0  0  0  0  0
  179.7720  179.5920  141.2910 C   0  0  0  0  0  3  0  0  0  0  0  0
  180.4280  179.7530  142.8430 S   0  0  0  0  0  0  0  0  0  0  0  0
  181.3880  177.3520  136.8880 Cl  0  0  0  0  0  0  0  0  0  0  0  0
  181.8660  178.9230  142.5650 C   0  0  0  0  0  0  0  0  0  0  0  0
  182.7260  177.4300  139.2720 C   0  0  0  0  0  3  0  0  0  0  0  0
  180.7070  178.8740  140.5490 C   0  0  0  0  0  0  0  0  0  0  0  0
  181.8670  178.5020  141.2490 C   0  0  0  0  0  0  0  0  0  0  0  0
  180.5480  178.5260  139.2080 C   0  0  0  0  0  3  0  0  0  0  0  0
  1  4  1  6  0  0  0
  1  5  1  0  0  0  0
  2  8  1  1  0  0  0
  3  1  1  0  0  0  0
  3  7  1  0  0  0  0
  5  2  1  0  0  0  0
  6  2  1  0  0  0  0
  6 19  1  1  0  0  0
  7  6  1  0  0  0  0
  8 10  1  0  0  0  0
  9  8  2  0  0  0  0
 10 15  2  0  0  0  0
 10 12  1  0  0  0  0
 11 13  1  0  0  0  0
 12 11  2  0  0  0  0
 14 13  2  0  0  0  0
 15 14  1  0  0  0  0
 17 18  1  0  0  0  0
 18 16  1  0  0  0  0
 18 15  1  0  0  0  0
 20 21  1  0  0  0  0
 20 19  1  0  0  0  0
 22 31  2  0  0  0  0
 22 28  1  0  0  0  0
 23 30  1  0  0  0  0
 24 25  1  0  0  0  0
 26 22  1  0  0  0  0
 27 25  1  0  0  0  0
 27 21  1  0  0  0  0
 28 23  2  0  0  0  0
 29 30  1  0  0  0  0
 29 24  2  0  0  0  0
 30 27  2  0  0  0  0
 31 29  1  0  0  0  0
M  END
>  <MODEL>
6

>  <REMARK>
 VINA RESULT:      -8.5      3.026      5.819
  Name = 
  7 active torsions:
  status: ('A' for Active; 'I' for Inactive)
    1  A    between atoms: C_4  and  C_5
    2  A    between atoms: C_4  and  C_12
    3  A    between atoms: C_9  and  N_23
    4  A    between atoms: C_15  and  C_20
    5  A    between atoms: C_15  and  N_23
    6  A    between atoms: C_20  and  C_27
    7  A    between atoms: C_30  and  C_31
                            x       y       z     vdW  Elec       q    Type
                         _______ _______ _______ _____ _____    ______ ____

>  <TORSDO>
F 7

$$$$
=
 OpenBabel10262419323D

 31 34  0  0  1  0  0  0  0  0999 V2000
  184.5100  178.5470  143.4760 C   0  0  2  0  0  3  0  0  0  0  0  0
  186.7110  177.3880  143.1110 C   0  0  1  0  0  3  0  0  0  0  0  0
  185.0230  179.7520  142.6990 C   0  0  0  0  0  2  0  0  0  0  0  0
  183.5270  179.0070  144.5310 C   0  0  0  0  0  1  0  0  0  0  0  0
  185.6740  177.8270  144.1460 C   0  0  0  0  0  2  0  0  0  0  0  0
  187.1910  178.5710  142.2440 C   0  0  2  0  0  3  0  0  0  0  0  0
  185.9980  179.2930  141.6220 C   0  0  0  0  0  2  0  0  0  0  0  0
  187.8400  176.6570  143.7860 C   0  0  0  0  0  0  0  0  0  0  0  0
  188.2850  175.6250  143.2180 O   0  0  0  0  0  0  0  0  0  0  0  0
  188.4120  177.1010  145.0900 C   0  0  0  0  0  0  0  0  0  0  0  0
  188.0580  177.5350  147.4650 C   0  0  0  0  0  3  0  0  0  0  0  0
  187.5780  177.1280  146.2210 C   0  0  0  0  0  3  0  0  0  0  0  0
  189.3870  177.9290  147.6020 C   0  0  0  0  0  3  0  0  0  0  0  0
  190.2330  177.9200  146.4940 C   0  0  0  0  0  3  0  0  0  0  0  0
  189.7660  177.5100  145.2330 C   0  0  0  0  0  0  0  0  0  0  0  0
  191.6820  176.4120  144.0650 C   0  0  0  0  0  1  0  0  0  0  0  0
  191.4460  178.8930  144.0160 C   0  0  0  0  0  1  0  0  0  0  0  0
  190.7010  177.5710  144.0580 C   0  0  0  0  0  3  0  0  0  0  0  0
  188.0930  178.0950  141.1170 C   0  0  0  0  0  2  0  0  0  0  0  0
  187.3890  178.2530  139.7800 C   0  0  0  0  0  2  0  0  0  0  0  0
  188.3050  178.8110  138.7970 N   0  0  0  0  0  2  0  0  0  0  0  0
  192.2880  175.7210  137.5200 C   0  0  0  0  0  0  0  0  0  0  0  0
  190.8520  177.1650  138.8610 C   0  0  0  0  0  3  0  0  0  0  0  0
  189.3670  176.8690  135.5260 C   0  0  0  0  0  3  0  0  0  0  0  0
  188.1830  177.8890  136.1750 S   0  0  0  0  0  0  0  0  0  0  0  0
  193.7250  174.7330  137.3850 Cl  0  0  0  0  0  0  0  0  0  0  0  0
  188.8400  178.0410  137.7170 C   0  0  0  0  0  0  0  0  0  0  0  0
  192.0000  176.3700  138.7340 C   0  0  0  0  0  3  0  0  0  0  0  0
  190.2920  176.6530  136.5450 C   0  0  0  0  0  0  0  0  0  0  0  0
  190.0050  177.2990  137.7590 C   0  0  0  0  0  0  0  0  0  0  0  0
  191.4320  175.8600  136.4180 C   0  0  0  0  0  3  0  0  0  0  0  0
  1  5  1  0  0  0  0
  1  4  1  1  0  0  0
  2  8  1  1  0  0  0
  2  5  1  0  0  0  0
  3  1  1  0  0  0  0
  6 19  1  6  0  0  0
  6  2  1  0  0  0  0
  7  6  1  0  0  0  0
  7  3  1  0  0  0  0
  8 10  1  0  0  0  0
  9  8  2  0  0  0  0
 10 15  2  0  0  0  0
 10 12  1  0  0  0  0
 11 13  1  0  0  0  0
 12 11  2  0  0  0  0
 14 13  2  0  0  0  0
 15 14  1  0  0  0  0
 17 18  1  0  0  0  0
 18 16  1  0  0  0  0
 18 15  1  0  0  0  0
 20 19  1  0  0  0  0
 21 20  1  0  0  0  0
 22 28  1  0  0  0  0
 24 25  1  0  0  0  0
 24 29  2  0  0  0  0
 25 27  1  0  0  0  0
 26 22  1  0  0  0  0
 27 30  2  0  0  0  0
 27 21  1  0  0  0  0
 28 23  2  0  0  0  0
 29 30  1  0  0  0  0
 30 23  1  0  0  0  0
 31 29  1  0  0  0  0
 31 22  2  0  0  0  0
M  END
>  <MODEL>
7

>  <REMARK>
 VINA RESULT:      -8.3      2.675      5.178
  Name = 
  7 active torsions:
  status: ('A' for Active; 'I' for Inactive)
    1  A    between atoms: C_4  and  C_5
    2  A    between atoms: C_4  and  C_12
    3  A    between atoms: C_9  and  N_23
    4  A    between atoms: C_15  and  C_20
    5  A    between atoms: C_15  and  N_23
    6  A    between atoms: C_20  and  C_27
    7  A    between atoms: C_30  and  C_31
                            x       y       z     vdW  Elec       q    Type
                         _______ _______ _______ _____ _____    ______ ____

>  <TORSDO>
F 7

$$$$
=
 OpenBabel10262419323D

 31 34  0  0  1  0  0  0  0  0999 V2000
  191.1990  176.4020  138.5200 C   0  0  2  0  0  3  0  0  0  0  0  0
  188.9290  177.4750  138.6620 C   0  0  1  0  0  3  0  0  0  0  0  0
  191.5880  177.0680  139.8330 C   0  0  0  0  0  2  0  0  0  0  0  0
  192.4260  176.2420  137.6500 C   0  0  0  0  0  1  0  0  0  0  0  0
  190.1680  177.2550  137.7900 C   0  0  0  0  0  2  0  0  0  0  0  0
  189.2950  178.0700  140.0380 C   0  0  2  0  0  3  0  0  0  0  0  0
  190.3590  177.2130  140.7210 C   0  0  0  0  0  2  0  0  0  0  0  0
  187.9110  178.2970  137.9170 C   0  0  0  0  0  0  0  0  0  0  0  0
  188.3060  179.3710  137.3910 O   0  0  0  0  0  0  0  0  0  0  0  0
  186.4790  177.8910  137.8120 C   0  0  0  0  0  0  0  0  0  0  0  0
  184.1830  178.1860  138.5820 C   0  0  0  0  0  3  0  0  0  0  0  0
  185.5350  178.5250  138.6370 C   0  0  0  0  0  3  0  0  0  0  0  0
  183.7500  177.2000  137.7000 C   0  0  0  0  0  3  0  0  0  0  0  0
  184.6680  176.5500  136.8760 C   0  0  0  0  0  3  0  0  0  0  0  0
  186.0340  176.8820  136.9170 C   0  0  0  0  0  0  0  0  0  0  0  0
  186.4460  175.9240  134.6480 C   0  0  0  0  0  1  0  0  0  0  0  0
  187.3400  174.7720  136.6690 C   0  0  0  0  0  1  0  0  0  0  0  0
  186.9930  176.1140  136.0510 C   0  0  0  0  0  3  0  0  0  0  0  0
  188.0810  178.1300  140.9500 C   0  0  0  0  0  2  0  0  0  0  0  0
  188.5200  178.2500  142.3990 C   0  0  0  0  0  2  0  0  0  0  0  0
  187.7380  177.3510  143.2340 N   0  0  0  0  0  2  0  0  0  0  0  0
  182.8140  179.0080  143.4460 C   0  0  0  0  0  0  0  0  0  0  0  0
  184.9060  178.1670  142.5180 C   0  0  0  0  0  3  0  0  0  0  0  0
  185.3550  178.5940  146.1290 C   0  0  0  0  0  3  0  0  0  0  0  0
  186.9170  178.0270  145.8040 S   0  0  0  0  0  0  0  0  0  0  0  0
  181.1570  179.5180  143.2070 Cl  0  0  0  0  0  0  0  0  0  0  0  0
  186.7390  177.8180  144.1440 C   0  0  0  0  0  0  0  0  0  0  0  0
  183.5770  178.5800  142.3450 C   0  0  0  0  0  3  0  0  0  0  0  0
  184.6910  178.6180  144.9040 C   0  0  0  0  0  0  0  0  0  0  0  0
  185.4530  178.1900  143.8030 C   0  0  0  0  0  0  0  0  0  0  0  0
  183.3700  179.0280  144.7330 C   0  0  0  0  0  3  0  0  0  0  0  0
  1  4  1  6  0  0  0
  1  3  1  0  0  0  0
  2  8  1  6  0  0  0
  2  6  1  0  0  0  0
  3  7  1  0  0  0  0
  5  1  1  0  0  0  0
  5  2  1  0  0  0  0
  6  7  1  0  0  0  0
  6 19  1  1  0  0  0
  9  8  2  0  0  0  0
 10  8  1  0  0  0  0
 10 12  1  0  0  0  0
 11 12  2  0  0  0  0
 13 11  1  0  0  0  0
 14 15  1  0  0  0  0
 14 13  2  0  0  0  0
 15 10  2  0  0  0  0
 16 18  1  0  0  0  0
 18 17  1  0  0  0  0
 18 15  1  0  0  0  0
 19 20  1  0  0  0  0
 20 21  1  0  0  0  0
 21 27  1  0  0  0  0
 22 31  2  0  0  0  0
 23 30  1  0  0  0  0
 25 24  1  0  0  0  0
 26 22  1  0  0  0  0
 27 25  1  0  0  0  0
 28 23  2  0  0  0  0
 28 22  1  0  0  0  0
 29 24  2  0  0  0  0
 30 27  2  0  0  0  0
 30 29  1  0  0  0  0
 31 29  1  0  0  0  0
M  END
>  <MODEL>
8

>  <REMARK>
 VINA RESULT:      -8.3      3.210      6.922
  Name = 
  7 active torsions:
  status: ('A' for Active; 'I' for Inactive)
    1  A    between atoms: C_4  and  C_5
    2  A    between atoms: C_4  and  C_12
    3  A    between atoms: C_9  and  N_23
    4  A    between atoms: C_15  and  C_20
    5  A    between atoms: C_15  and  N_23
    6  A    between atoms: C_20  and  C_27
    7  A    between atoms: C_30  and  C_31
                            x       y       z     vdW  Elec       q    Type
                         _______ _______ _______ _____ _____    ______ ____

>  <TORSDO>
F 7

$$$$
=
 OpenBabel10262419323D

 31 34  0  0  1  0  0  0  0  0999 V2000
  181.0660  178.4030  143.3410 C   0  0  2  0  0  3  0  0  0  0  0  0
  183.5210  178.4590  142.7980 C   0  0  1  0  0  3  0  0  0  0  0  0
  180.7440  178.7290  141.8890 C   0  0  0  0  0  2  0  0  0  0  0  0
  179.9960  178.9840  144.2390 C   0  0  0  0  0  1  0  0  0  0  0  0
  182.4200  178.9920  143.7180 C   0  0  0  0  0  2  0  0  0  0  0  0
  183.1870  178.6950  141.3100 C   0  0  2  0  0  3  0  0  0  0  0  0
  181.8080  178.1290  140.9780 C   0  0  0  0  0  2  0  0  0  0  0  0
  184.8540  179.0310  143.2000 C   0  0  0  0  0  0  0  0  0  0  0  0
  185.3780  179.8770  142.4290 O   0  0  0  0  0  0  0  0  0  0  0  0
  185.5600  178.6100  144.4450 C   0  0  0  0  0  0  0  0  0  0  0  0
  185.6560  178.6470  146.8820 C   0  0  0  0  0  3  0  0  0  0  0  0
  185.0380  179.0110  145.6860 C   0  0  0  0  0  3  0  0  0  0  0  0
  186.8160  177.8770  146.8590 C   0  0  0  0  0  3  0  0  0  0  0  0
  187.3600  177.4750  145.6400 C   0  0  0  0  0  3  0  0  0  0  0  0
  186.7470  177.8300  144.4250 C   0  0  0  0  0  0  0  0  0  0  0  0
  188.0560  176.0550  143.2530 C   0  0  0  0  0  1  0  0  0  0  0  0
  188.4150  178.4540  142.6790 C   0  0  0  0  0  1  0  0  0  0  0  0
  187.4020  177.4190  143.1360 C   0  0  0  0  0  3  0  0  0  0  0  0
  184.2040  178.0180  140.4060 C   0  0  0  0  0  2  0  0  0  0  0  0
  184.2130  178.6820  139.0390 C   0  0  0  0  0  2  0  0  0  0  0  0
  185.5820  178.9360  138.6180 N   0  0  0  0  0  2  0  0  0  0  0  0
  190.3430  176.8590  138.3680 C   0  0  0  0  0  0  0  0  0  0  0  0
  188.4950  178.2590  139.1220 C   0  0  0  0  0  3  0  0  0  0  0  0
  187.2930  176.1960  136.3450 C   0  0  0  0  0  3  0  0  0  0  0  0
  185.8380  177.0130  136.6230 S   0  0  0  0  0  0  0  0  0  0  0  0
  192.0110  176.3540  138.5210 Cl  0  0  0  0  0  0  0  0  0  0  0  0
  186.3610  177.9720  137.9040 C   0  0  0  0  0  0  0  0  0  0  0  0
  189.8300  177.8430  139.2310 C   0  0  0  0  0  3  0  0  0  0  0  0
  188.2000  176.6940  137.2780 C   0  0  0  0  0  0  0  0  0  0  0  0
  187.6890  177.6770  138.1420 C   0  0  0  0  0  0  0  0  0  0  0  0
  189.5270  176.2780  137.3850 C   0  0  0  0  0  3  0  0  0  0  0  0
  1  5  1  0  0  0  0
  1  4  1  1  0  0  0
  2  8  1  1  0  0  0
  2  5  1  0  0  0  0
  3  1  1  0  0  0  0
  6 19  1  6  0  0  0
  6  2  1  0  0  0  0
  7  6  1  0  0  0  0
  7  3  1  0  0  0  0
  8 10  1  0  0  0  0
  9  8  2  0  0  0  0
 10 12  1  0  0  0  0
 12 11  2  0  0  0  0
 13 11  1  0  0  0  0
 14 13  2  0  0  0  0
 15 10  2  0  0  0  0
 15 14  1  0  0  0  0
 17 18  1  0  0  0  0
 18 16  1  0  0  0  0
 18 15  1  0  0  0  0
 20 19  1  0  0  0  0
 21 20  1  0  0  0  0
 22 26  1  0  0  0  0
 22 28  1  0  0  0  0
 23 28  2  0  0  0  0
 24 25  1  0  0  0  0
 24 29  2  0  0  0  0
 25 27  1  0  0  0  0
 27 30  2  0  0  0  0
 27 21  1  0  0  0  0
 29 31  1  0  0  0  0
 29 30  1  0  0  0  0
 30 23  1  0  0  0  0
 31 22  2  0  0  0  0
M  END
>  <MODEL>
9

>  <REMARK>
 VINA RESULT:      -8.3      2.718      5.598
  Name = 
  7 active torsions:
  status: ('A' for Active; 'I' for Inactive)
    1  A    between atoms: C_4  and  C_5
    2  A    between atoms: C_4  and  C_12
    3  A    between atoms: C_9  and  N_23
    4  A    between atoms: C_15  and  C_20
    5  A    between atoms: C_15  and  N_23
    6  A    between atoms: C_20  and  C_27
    7  A    between atoms: C_30  and  C_31
                            x       y       z     vdW  Elec       q    Type
                         _______ _______ _______ _____ _____    ______ ____

>  <TORSDO>
F 7

$$$$
