=
 OpenBabel10262420373D

 55 63  0  0  1  0  0  0  0  0999 V2000
  182.6410  178.6690  141.1380 C   0  0  0  0  0  3  0  0  0  0  0  0
  183.3620  178.8640  143.8420 C   0  0  0  0  0  0  0  0  0  0  0  0
  184.3460  178.7080  142.8630 C   0  0  0  0  0  3  0  0  0  0  0  0
  181.6520  178.8220  142.1160 C   0  0  0  0  0  3  0  0  0  0  0  0
  183.9910  178.6060  141.5110 C   0  0  0  0  0  0  0  0  0  0  0  0
  182.0120  178.9180  143.4670 C   0  0  0  0  0  3  0  0  0  0  0  0
  185.0510  178.4980  140.4710 C   0  0  0  0  0  2  0  0  0  0  0  0
  184.5200  179.0520  139.1550 C   0  0  0  0  0  2  0  0  0  0  0  0
  181.7600  175.5980  136.8900 C   0  0  0  0  0  2  0  0  0  0  0  0
  187.2940  178.8960  136.8150 C   0  0  0  0  0  2  0  0  0  0  0  0
  182.9450  173.5350  136.2100 N   0  0  0  0  0  2  0  0  0  0  0  0
  184.2060  175.7250  136.3090 C   0  0  1  0  0  3  0  0  0  0  0  0
  184.2280  174.2050  136.4920 C   0  0  0  0  0  2  0  0  0  0  0  0
  181.8460  174.4550  135.8810 C   0  0  0  0  0  2  0  0  0  0  0  0
  183.0420  176.3030  136.9890 N   0  0  0  0  0  0  0  0  0  0  0  0
  185.5640  177.3120  137.5810 C   0  0  0  0  0  0  0  0  0  0  0  0
  187.9510  177.0970  138.2770 C   0  0  0  0  0  2  0  0  0  0  0  0
  185.4630  176.2910  136.7810 N   0  0  0  0  0  0  0  0  0  0  0  0
  189.1680  177.5230  137.4790 C   0  0  1  0  0  3  0  0  0  0  0  0
  183.1310  177.5200  137.7590 C   0  0  0  0  0  0  0  0  0  0  0  0
  188.8160  178.8370  136.7990 C   0  0  0  0  0  2  0  0  0  0  0  0
  184.3520  177.9680  138.1280 C   0  0  0  0  0  0  0  0  0  0  0  0
  186.8540  177.9010  137.7750 N   0  0  0  0  0  0  0  0  0  0  0  0
  181.1940  178.6700  136.8280 C   0  0  1  0  0  3  0  0  0  0  0  0
  180.7700  180.4090  138.6620 C   0  0  0  0  0  1  0  0  0  0  0  0
  181.8380  178.2240  138.1320 C   0  0  2  0  0  3  0  0  0  0  0  0
  179.6840  178.5010  136.9020 C   0  0  0  0  0  1  0  0  0  0  0  0
  181.7850  179.7040  137.7790 C   0  0  1  0  0  3  0  0  0  0  0  0
  191.1760  176.5130  138.7040 C   0  0  0  0  0  0  0  0  0  0  0  0
  190.8880  175.2270  138.2630 O   0  0  0  0  0  0  0  0  0  0  0  0
  190.3640  177.6290  138.3110 N   0  0  0  0  0  2  0  0  0  0  0  0
  192.2160  176.7210  139.3880 O   0  0  0  0  0  1  0  0  0  0  0  0
  183.7630  178.9760  145.2760 C   0  0  0  0  0  2  0  0  0  0  0  0
  185.6780  179.3810  146.8200 C   0  0  0  0  0  2  0  0  0  0  0  0
  186.0090  178.1990  145.9310 C   0  0  1  0  0  3  0  0  0  0  0  0
  185.2270  179.3700  145.3750 C   0  0  1  0  0  3  0  0  0  0  0  0
  187.3290  178.3000  145.4730 O   0  0  0  0  0  0  0  0  0  0  0  0
  191.8550  176.3300  146.8990 C   0  0  0  0  0  0  0  0  0  0  0  0
  191.6050  177.9880  142.7080 C   0  0  0  0  0  1  0  0  0  0  0  0
  190.2960  177.5530  145.4230 C   0  0  2  0  0  0  0  0  0  0  0  0
  189.0660  178.2270  147.5890 C   0  0  0  0  0  1  0  0  0  0  0  0
  188.3250  176.4600  144.3190 C   0  0  0  0  0  2  0  0  0  0  0  0
  189.8020  176.7850  144.1820 C   0  0  2  0  0  0  0  0  0  0  0  0
  189.2240  177.1720  146.4820 C   0  0  1  0  0  0  0  0  0  0  0  0
  190.7180  175.9170  147.7690 C   0  0  0  0  0  2  0  0  0  0  0  0
  187.9140  177.0370  145.6750 C   0  0  1  0  0  3  0  0  0  0  0  0
  190.5870  175.6840  143.4400 C   0  0  1  0  0  3  0  0  0  0  0  0
  193.0230  175.9370  147.1500 O   0  0  0  0  0  0  0  0  0  0  0  0
  190.3870  177.0680  142.7960 C   0  0  2  0  0  0  0  0  0  0  0  0
  189.5070  175.8950  147.0410 O   0  0  0  0  0  0  0  0  0  0  0  0
  190.2520  178.9280  145.1620 O   0  0  0  0  0  1  0  0  0  0  0  0
  191.8970  175.5170  143.9010 O   0  0  0  0  0  1  0  0  0  0  0  0
  191.6210  177.1970  145.8330 O   0  0  0  0  0  0  0  0  0  0  0  0
  189.4070  177.0890  141.6390 C   0  0  0  0  0  2  0  0  0  0  0  0
  188.8540  178.3640  141.4960 O   0  0  0  0  0  1  0  0  0  0  0  0
  1  5  2  0  0  0  0
  1  4  1  0  0  0  0
  2 33  1  0  0  0  0
  3  2  2  0  0  0  0
  4  6  2  0  0  0  0
  5  3  1  0  0  0  0
  6  2  1  0  0  0  0
  7  5  1  0  0  0  0
  8  7  1  0  0  0  0
  9 15  1  0  0  0  0
 10 23  1  0  0  0  0
 11 13  1  0  0  0  0
 12 13  1  1  0  0  0
 12 18  1  0  0  0  0
 12 15  1  0  0  0  0
 14 11  1  0  0  0  0
 14  9  1  0  0  0  0
 15 20  1  0  0  0  0
 16 23  1  0  0  0  0
 16 22  1  0  0  0  0
 18 16  2  0  0  0  0
 19 17  1  0  0  0  0
 19 31  1  1  0  0  0
 20 22  2  0  0  0  0
 21 10  1  0  0  0  0
 21 19  1  0  0  0  0
 22  8  1  0  0  0  0
 23 17  1  0  0  0  0
 24 27  1  1  0  0  0
 24 28  1  0  0  0  0
 24 26  1  0  0  0  0
 26 20  1  6  0  0  0
 28 26  1  0  0  0  0
 28 25  1  1  0  0  0
 29 32  1  0  0  0  0
 30 29  2  0  0  0  0
 31 29  1  0  0  0  0
 35 37  1  6  0  0  0
 35 34  1  0  0  0  0
 36 33  1  1  0  0  0
 36 35  1  0  0  0  0
 36 34  1  0  0  0  0
 38 48  2  0  0  0  0
 38 45  1  0  0  0  0
 40 51  1  6  0  0  0
 40 53  1  0  0  0  0
 40 44  1  0  0  0  0
 42 46  1  0  0  0  0
 43 42  1  6  0  0  0
 43 40  1  0  0  0  0
 44 50  1  0  0  0  0
 44 41  1  1  0  0  0
 46 37  1  6  0  0  0
 46 44  1  0  0  0  0
 47 52  1  1  0  0  0
 47 43  1  0  0  0  0
 49 39  1  6  0  0  0
 49 47  1  0  0  0  0
 49 43  1  0  0  0  0
 50 45  1  0  0  0  0
 53 38  1  0  0  0  0
 54 49  1  0  0  0  0
 55 54  1  0  0  0  0
M  END
>  <MODEL>
1

>  <REMARK>
 VINA RESULT:     -10.4      0.000      0.000
  Name = 
  10 active torsions:
  status: ('A' for Active; 'I' for Inactive)
    1  A    between atoms: C_2  and  C_28
    2  A    between atoms: C_2  and  C_44
    3  A    between atoms: O_8  and  C_22
    4  A    between atoms: O_8  and  C_43
    5  A    between atoms: C_11  and  C_38
    6  A    between atoms: C_19  and  C_45
    7  A    between atoms: C_27  and  C_54
    8  A    between atoms: C_28  and  C_49
    9  A    between atoms: N_32  and  C_39
   10  A    between atoms: C_51  and  C_54
                            x       y       z     vdW  Elec       q    Type
                         _______ _______ _______ _____ _____    ______ ____

>  <TORSDO>
F 10

$$$$
=
 OpenBabel10262420373D

 55 63  0  0  1  0  0  0  0  0999 V2000
  183.8260  178.0780  138.4260 C   0  0  0  0  0  3  0  0  0  0  0  0
  183.7620  178.3370  141.2180 C   0  0  0  0  0  0  0  0  0  0  0  0
  183.2740  177.1790  140.6100 C   0  0  0  0  0  3  0  0  0  0  0  0
  184.3140  179.2420  139.0320 C   0  0  0  0  0  3  0  0  0  0  0  0
  183.3000  177.0460  139.2150 C   0  0  0  0  0  0  0  0  0  0  0  0
  184.2810  179.3710  140.4260 C   0  0  0  0  0  3  0  0  0  0  0  0
  182.8290  175.7840  138.5800 C   0  0  0  0  0  2  0  0  0  0  0  0
  182.7680  175.9740  137.0710 C   0  0  0  0  0  2  0  0  0  0  0  0
  182.2320  171.2060  135.7840 C   0  0  0  0  0  2  0  0  0  0  0  0
  185.4820  176.6740  134.7590 C   0  0  0  0  0  2  0  0  0  0  0  0
  184.3200  169.8930  135.5890 N   0  0  0  0  0  2  0  0  0  0  0  0
  184.3590  172.3780  135.1200 C   0  0  1  0  0  3  0  0  0  0  0  0
  185.0910  171.1480  135.6640 C   0  0  0  0  0  2  0  0  0  0  0  0
  182.9510  170.0580  135.0790 C   0  0  0  0  0  2  0  0  0  0  0  0
  183.0020  172.4490  135.6740 N   0  0  0  0  0  0  0  0  0  0  0  0
  184.6610  174.6650  135.9330 C   0  0  0  0  0  0  0  0  0  0  0  0
  186.7810  175.8050  136.5930 C   0  0  0  0  0  2  0  0  0  0  0  0
  185.1390  173.5750  135.4060 N   0  0  0  0  0  0  0  0  0  0  0  0
  187.7130  176.5800  135.6810 C   0  0  1  0  0  3  0  0  0  0  0  0
  182.4240  173.6910  136.1250 C   0  0  0  0  0  0  0  0  0  0  0  0
  186.8390  177.3640  134.7150 C   0  0  0  0  0  2  0  0  0  0  0  0
  183.2390  174.7480  136.3400 C   0  0  0  0  0  0  0  0  0  0  0  0
  185.4850  175.8350  135.9430 N   0  0  0  0  0  0  0  0  0  0  0  0
  180.2750  173.8140  134.9790 C   0  0  1  0  0  3  0  0  0  0  0  0
  178.9370  175.2060  136.6630 C   0  0  0  0  0  1  0  0  0  0  0  0
  180.9230  173.7370  136.3530 C   0  0  2  0  0  3  0  0  0  0  0  0
  179.0050  172.9770  134.9470 C   0  0  0  0  0  1  0  0  0  0  0  0
  180.2410  175.0230  135.9060 C   0  0  1  0  0  3  0  0  0  0  0  0
  188.2340  178.6430  137.1070 C   0  0  0  0  0  0  0  0  0  0  0  0
  186.9050  179.0490  137.1300 O   0  0  0  0  0  0  0  0  0  0  0  0
  188.6270  177.4400  136.4290 N   0  0  0  0  0  2  0  0  0  0  0  0
  189.0970  179.2880  137.7630 O   0  0  0  0  0  1  0  0  0  0  0  0
  183.7300  178.4550  142.7060 C   0  0  0  0  0  2  0  0  0  0  0  0
  184.9450  179.3620  144.6850 C   0  0  0  0  0  2  0  0  0  0  0  0
  185.6460  178.1030  144.2180 C   0  0  1  0  0  3  0  0  0  0  0  0
  185.0360  179.0500  143.2060 C   0  0  1  0  0  3  0  0  0  0  0  0
  187.0330  178.3000  144.2160 O   0  0  0  0  0  0  0  0  0  0  0  0
  191.2930  176.7740  146.6500 C   0  0  0  0  0  0  0  0  0  0  0  0
  191.7190  177.7730  142.2690 C   0  0  0  0  0  1  0  0  0  0  0  0
  189.9810  177.6900  144.7680 C   0  0  2  0  0  0  0  0  0  0  0  0
  188.3900  178.6230  146.5730 C   0  0  0  0  0  1  0  0  0  0  0  0
  188.2450  176.3550  143.5390 C   0  0  0  0  0  2  0  0  0  0  0  0
  189.7180  176.7230  143.5970 C   0  0  2  0  0  0  0  0  0  0  0  0
  188.7530  177.4230  145.6830 C   0  0  1  0  0  0  0  0  0  0  0  0
  190.0350  176.4440  147.3760 C   0  0  0  0  0  2  0  0  0  0  0  0
  187.6010  177.1100  144.7050 C   0  0  1  0  0  3  0  0  0  0  0  0
  190.6390  175.5610  143.1730 C   0  0  1  0  0  3  0  0  0  0  0  0
  192.4090  176.4760  147.1470 O   0  0  0  0  0  0  0  0  0  0  0  0
  190.5220  176.8220  142.2980 C   0  0  2  0  0  0  0  0  0  0  0  0
  188.9630  176.2590  146.4720 O   0  0  0  0  0  0  0  0  0  0  0  0
  189.9540  179.0070  144.2930 O   0  0  0  0  0  1  0  0  0  0  0  0
  191.8550  175.5240  143.8620 O   0  0  0  0  0  1  0  0  0  0  0  0
  191.2240  177.4600  145.4380 O   0  0  0  0  0  0  0  0  0  0  0  0
  189.7510  176.6250  141.0080 C   0  0  0  0  0  2  0  0  0  0  0  0
  190.4770  177.1310  139.9270 O   0  0  0  0  0  1  0  0  0  0  0  0
  1  4  2  0  0  0  0
  1  5  1  0  0  0  0
  2 33  1  0  0  0  0
  3  2  1  0  0  0  0
  4  6  1  0  0  0  0
  5  3  2  0  0  0  0
  6  2  2  0  0  0  0
  7  5  1  0  0  0  0
  8  7  1  0  0  0  0
 10 23  1  0  0  0  0
 11 13  1  0  0  0  0
 12 18  1  0  0  0  0
 12 13  1  1  0  0  0
 12 15  1  0  0  0  0
 14 11  1  0  0  0  0
 14  9  1  0  0  0  0
 15  9  1  0  0  0  0
 15 20  1  0  0  0  0
 16 23  1  0  0  0  0
 16 22  1  0  0  0  0
 18 16  2  0  0  0  0
 19 31  1  1  0  0  0
 19 17  1  0  0  0  0
 20 22  2  0  0  0  0
 21 10  1  0  0  0  0
 21 19  1  0  0  0  0
 22  8  1  0  0  0  0
 23 17  1  0  0  0  0
 24 27  1  1  0  0  0
 24 28  1  0  0  0  0
 24 26  1  0  0  0  0
 26 20  1  6  0  0  0
 28 26  1  0  0  0  0
 28 25  1  1  0  0  0
 29 30  2  0  0  0  0
 29 32  1  0  0  0  0
 31 29  1  0  0  0  0
 35 37  1  6  0  0  0
 35 34  1  0  0  0  0
 36 33  1  1  0  0  0
 36 35  1  0  0  0  0
 36 34  1  0  0  0  0
 38 48  2  0  0  0  0
 38 45  1  0  0  0  0
 40 51  1  6  0  0  0
 40 53  1  0  0  0  0
 40 44  1  0  0  0  0
 42 46  1  0  0  0  0
 43 42  1  6  0  0  0
 43 40  1  0  0  0  0
 44 50  1  0  0  0  0
 44 41  1  1  0  0  0
 46 37  1  6  0  0  0
 46 44  1  0  0  0  0
 47 43  1  0  0  0  0
 47 52  1  1  0  0  0
 49 39  1  6  0  0  0
 49 47  1  0  0  0  0
 49 43  1  0  0  0  0
 50 45  1  0  0  0  0
 53 38  1  0  0  0  0
 54 49  1  0  0  0  0
 55 54  1  0  0  0  0
M  END
>  <MODEL>
2

>  <REMARK>
 VINA RESULT:      -8.9      1.911      3.170
  Name = 
  10 active torsions:
  status: ('A' for Active; 'I' for Inactive)
    1  A    between atoms: C_2  and  C_28
    2  A    between atoms: C_2  and  C_44
    3  A    between atoms: O_8  and  C_22
    4  A    between atoms: O_8  and  C_43
    5  A    between atoms: C_11  and  C_38
    6  A    between atoms: C_19  and  C_45
    7  A    between atoms: C_27  and  C_54
    8  A    between atoms: C_28  and  C_49
    9  A    between atoms: N_32  and  C_39
   10  A    between atoms: C_51  and  C_54
                            x       y       z     vdW  Elec       q    Type
                         _______ _______ _______ _____ _____    ______ ____

>  <TORSDO>
F 10

$$$$
=
 OpenBabel10262420373D

 55 63  0  0  1  0  0  0  0  0999 V2000
  180.9080  177.4130  140.7300 C   0  0  0  0  0  3  0  0  0  0  0  0
  183.5410  178.3660  140.8960 C   0  0  0  0  0  0  0  0  0  0  0  0
  183.2790  177.1300  140.3030 C   0  0  0  0  0  3  0  0  0  0  0  0
  181.1670  178.6520  141.3280 C   0  0  0  0  0  3  0  0  0  0  0  0
  181.9650  176.6470  140.2220 C   0  0  0  0  0  0  0  0  0  0  0  0
  182.4820  179.1280  141.4120 C   0  0  0  0  0  3  0  0  0  0  0  0
  181.6910  175.3530  139.5370 C   0  0  0  0  0  2  0  0  0  0  0  0
  181.5020  175.6050  138.0470 C   0  0  0  0  0  2  0  0  0  0  0  0
  186.3120  174.9970  136.9650 C   0  0  0  0  0  2  0  0  0  0  0  0
  180.9890  178.4500  135.8480 C   0  0  0  0  0  2  0  0  0  0  0  0
  187.6880  177.0530  136.9400 N   0  0  0  0  0  2  0  0  0  0  0  0
  185.2310  177.1870  136.3560 C   0  0  1  0  0  3  0  0  0  0  0  0
  186.4520  177.8550  136.9950 C   0  0  0  0  0  2  0  0  0  0  0  0
  187.5120  175.7170  136.3530 C   0  0  0  0  0  2  0  0  0  0  0  0
  185.0970  175.8070  136.8350 N   0  0  0  0  0  0  0  0  0  0  0  0
  182.9160  177.5140  137.0730 C   0  0  0  0  0  0  0  0  0  0  0  0
  181.8010  179.6300  137.7850 C   0  0  0  0  0  2  0  0  0  0  0  0
  184.0420  177.9860  136.6240 N   0  0  0  0  0  0  0  0  0  0  0  0
  181.0960  180.6280  136.8870 C   0  0  1  0  0  3  0  0  0  0  0  0
  183.8190  175.2420  137.1960 C   0  0  0  0  0  0  0  0  0  0  0  0
  180.3380  179.8270  135.8410 C   0  0  0  0  0  2  0  0  0  0  0  0
  182.7750  176.0760  137.4010 C   0  0  0  0  0  0  0  0  0  0  0  0
  181.7690  178.3700  137.0690 N   0  0  0  0  0  0  0  0  0  0  0  0
  183.9610  173.1440  135.9620 C   0  0  1  0  0  3  0  0  0  0  0  0
  182.2220  171.7510  137.2280 C   0  0  0  0  0  1  0  0  0  0  0  0
  183.7230  173.7340  137.3440 C   0  0  2  0  0  3  0  0  0  0  0  0
  184.7830  171.8680  136.0680 C   0  0  0  0  0  1  0  0  0  0  0  0
  182.5720  173.0830  136.5880 C   0  0  1  0  0  3  0  0  0  0  0  0
  180.2570  182.9590  137.5340 C   0  0  0  0  0  0  0  0  0  0  0  0
  181.1180  183.5930  136.6460 O   0  0  0  0  0  0  0  0  0  0  0  0
  180.2250  181.5280  137.6390 N   0  0  0  0  0  2  0  0  0  0  0  0
  179.4280  183.6420  138.1960 O   0  0  0  0  0  1  0  0  0  0  0  0
  184.9470  178.8640  140.9670 C   0  0  0  0  0  2  0  0  0  0  0  0
  184.5490  178.2330  143.3460 C   0  0  0  0  0  2  0  0  0  0  0  0
  185.9820  177.8980  142.9860 C   0  0  1  0  0  3  0  0  0  0  0  0
  185.3260  179.1370  142.4130 C   0  0  1  0  0  3  0  0  0  0  0  0
  186.8400  178.2980  144.0180 O   0  0  0  0  0  0  0  0  0  0  0  0
  191.0430  176.8720  146.6060 C   0  0  0  0  0  0  0  0  0  0  0  0
  191.6040  177.8770  142.2420 C   0  0  0  0  0  1  0  0  0  0  0  0
  189.7790  177.7560  144.6770 C   0  0  2  0  0  0  0  0  0  0  0  0
  188.1040  178.6540  146.4210 C   0  0  0  0  0  1  0  0  0  0  0  0
  188.1200  176.3800  143.3890 C   0  0  0  0  0  2  0  0  0  0  0  0
  189.5810  176.7820  143.4980 C   0  0  2  0  0  0  0  0  0  0  0  0
  188.5260  177.4620  145.5470 C   0  0  1  0  0  0  0  0  0  0  0  0
  189.7680  176.5140  147.2880 C   0  0  0  0  0  2  0  0  0  0  0  0
  187.4170  177.1210  144.5290 C   0  0  1  0  0  3  0  0  0  0  0  0
  190.5430  175.6410  143.1100 C   0  0  1  0  0  3  0  0  0  0  0  0
  192.1470  176.6000  147.1430 O   0  0  0  0  0  0  0  0  0  0  0  0
  190.4290  176.8980  142.2300 C   0  0  2  0  0  0  0  0  0  0  0  0
  188.7340  176.3030  146.3460 O   0  0  0  0  0  0  0  0  0  0  0  0
  189.7400  179.0720  144.1990 O   0  0  0  0  0  1  0  0  0  0  0  0
  191.7340  175.6330  143.8430 O   0  0  0  0  0  1  0  0  0  0  0  0
  191.0030  177.5550  145.3920 O   0  0  0  0  0  0  0  0  0  0  0  0
  189.7090  176.6830  140.9120 C   0  0  0  0  0  2  0  0  0  0  0  0
  190.5510  176.0420  140.0000 O   0  0  0  0  0  1  0  0  0  0  0  0
  1  4  1  0  0  0  0
  2 33  1  0  0  0  0
  2  6  1  0  0  0  0
  3  2  2  0  0  0  0
  4  6  2  0  0  0  0
  5  3  1  0  0  0  0
  5  1  2  0  0  0  0
  7  5  1  0  0  0  0
  8  7  1  0  0  0  0
 10 23  1  0  0  0  0
 11 13  1  0  0  0  0
 12 18  1  0  0  0  0
 12 15  1  0  0  0  0
 12 13  1  1  0  0  0
 14 11  1  0  0  0  0
 14  9  1  0  0  0  0
 15  9  1  0  0  0  0
 15 20  1  0  0  0  0
 16 22  1  0  0  0  0
 18 16  2  0  0  0  0
 19 31  1  1  0  0  0
 19 17  1  0  0  0  0
 20 22  2  0  0  0  0
 21 10  1  0  0  0  0
 21 19  1  0  0  0  0
 22  8  1  0  0  0  0
 23 16  1  0  0  0  0
 23 17  1  0  0  0  0
 24 27  1  1  0  0  0
 24 28  1  0  0  0  0
 24 26  1  0  0  0  0
 26 20  1  6  0  0  0
 28 25  1  1  0  0  0
 28 26  1  0  0  0  0
 29 31  1  0  0  0  0
 29 32  1  0  0  0  0
 30 29  2  0  0  0  0
 35 34  1  0  0  0  0
 35 37  1  1  0  0  0
 36 33  1  6  0  0  0
 36 35  1  0  0  0  0
 36 34  1  0  0  0  0
 38 48  2  0  0  0  0
 38 45  1  0  0  0  0
 40 51  1  6  0  0  0
 40 53  1  0  0  0  0
 40 44  1  0  0  0  0
 42 46  1  0  0  0  0
 43 42  1  6  0  0  0
 43 40  1  0  0  0  0
 44 50  1  0  0  0  0
 44 41  1  1  0  0  0
 46 37  1  6  0  0  0
 46 44  1  0  0  0  0
 47 43  1  0  0  0  0
 47 52  1  1  0  0  0
 49 39  1  1  0  0  0
 49 47  1  0  0  0  0
 49 43  1  0  0  0  0
 50 45  1  0  0  0  0
 53 38  1  0  0  0  0
 54 49  1  0  0  0  0
 55 54  1  0  0  0  0
M  END
>  <MODEL>
3

>  <REMARK>
 VINA RESULT:      -8.2      2.659      5.200
  Name = 
  10 active torsions:
  status: ('A' for Active; 'I' for Inactive)
    1  A    between atoms: C_2  and  C_28
    2  A    between atoms: C_2  and  C_44
    3  A    between atoms: O_8  and  C_22
    4  A    between atoms: O_8  and  C_43
    5  A    between atoms: C_11  and  C_38
    6  A    between atoms: C_19  and  C_45
    7  A    between atoms: C_27  and  C_54
    8  A    between atoms: C_28  and  C_49
    9  A    between atoms: N_32  and  C_39
   10  A    between atoms: C_51  and  C_54
                            x       y       z     vdW  Elec       q    Type
                         _______ _______ _______ _____ _____    ______ ____

>  <TORSDO>
F 10

$$$$
=
 OpenBabel10262420373D

 55 63  0  0  1  0  0  0  0  0999 V2000
  183.0850  178.4370  141.4700 C   0  0  0  0  0  3  0  0  0  0  0  0
  184.2160  179.3360  143.8740 C   0  0  0  0  0  0  0  0  0  0  0  0
  184.9940  179.2670  142.7160 C   0  0  0  0  0  3  0  0  0  0  0  0
  182.3040  178.5020  142.6300 C   0  0  0  0  0  3  0  0  0  0  0  0
  184.4340  178.8140  141.5130 C   0  0  0  0  0  0  0  0  0  0  0  0
  182.8690  178.9500  143.8310 C   0  0  0  0  0  3  0  0  0  0  0  0
  185.2560  178.7980  140.2720 C   0  0  0  0  0  2  0  0  0  0  0  0
  184.4160  179.3060  139.1080 C   0  0  0  0  0  2  0  0  0  0  0  0
  180.7730  176.1560  137.8890 C   0  0  0  0  0  2  0  0  0  0  0  0
  186.5680  178.4800  136.3010 C   0  0  0  0  0  2  0  0  0  0  0  0
  181.4800  173.8730  137.2520 N   0  0  0  0  0  2  0  0  0  0  0  0
  183.0280  175.8250  136.8220 C   0  0  1  0  0  3  0  0  0  0  0  0
  182.8750  174.3460  137.1860 C   0  0  0  0  0  2  0  0  0  0  0  0
  180.4780  174.9250  137.0350 C   0  0  0  0  0  2  0  0  0  0  0  0
  182.1320  176.6480  137.6420 N   0  0  0  0  0  0  0  0  0  0  0  0
  184.8390  177.2800  137.5890 C   0  0  0  0  0  0  0  0  0  0  0  0
  187.2650  176.7420  137.8170 C   0  0  0  0  0  2  0  0  0  0  0  0
  184.4250  176.2190  136.9590 N   0  0  0  0  0  0  0  0  0  0  0  0
  188.3290  176.8860  136.7460 C   0  0  1  0  0  3  0  0  0  0  0  0
  182.5560  177.8990  138.2200 C   0  0  0  0  0  0  0  0  0  0  0  0
  188.0270  178.1710  135.9900 C   0  0  0  0  0  2  0  0  0  0  0  0
  183.8790  178.1740  138.2790 C   0  0  0  0  0  0  0  0  0  0  0  0
  186.2100  177.6650  137.4470 N   0  0  0  0  0  0  0  0  0  0  0  0
  180.6820  179.3060  137.5480 C   0  0  1  0  0  3  0  0  0  0  0  0
  180.8980  181.2030  139.2570 C   0  0  0  0  0  1  0  0  0  0  0  0
  181.4870  178.8380  138.7510 C   0  0  2  0  0  3  0  0  0  0  0  0
  179.2070  179.4050  137.9070 C   0  0  0  0  0  1  0  0  0  0  0  0
  181.6000  180.2800  138.2770 C   0  0  1  0  0  3  0  0  0  0  0  0
  190.8220  176.3160  136.6370 C   0  0  0  0  0  0  0  0  0  0  0  0
  190.7170  175.7820  135.3590 O   0  0  0  0  0  0  0  0  0  0  0  0
  189.6790  176.8710  137.3030 N   0  0  0  0  0  2  0  0  0  0  0  0
  191.9540  176.3970  137.1900 O   0  0  0  0  0  1  0  0  0  0  0  0
  184.8310  179.8260  145.1440 C   0  0  0  0  0  2  0  0  0  0  0  0
  185.8860  178.0830  146.5800 C   0  0  0  0  0  2  0  0  0  0  0  0
  185.8560  177.5840  145.1500 C   0  0  1  0  0  3  0  0  0  0  0  0
  186.1040  179.0510  145.4360 C   0  0  1  0  0  3  0  0  0  0  0  0
  187.0830  176.9910  144.8240 O   0  0  0  0  0  0  0  0  0  0  0  0
  190.3260  177.5330  140.8760 C   0  0  0  0  0  0  0  0  0  0  0  0
  191.9170  175.3870  144.5150 C   0  0  0  0  0  1  0  0  0  0  0  0
  189.5690  176.6790  143.0670 C   0  0  2  0  0  0  0  0  0  0  0  0
  187.1840  176.8240  142.0930 C   0  0  0  0  0  1  0  0  0  0  0  0
  189.1490  178.1730  145.0410 C   0  0  0  0  0  2  0  0  0  0  0  0
  190.1940  177.3520  144.3050 C   0  0  2  0  0  0  0  0  0  0  0  0
  188.3180  177.5670  142.8190 C   0  0  1  0  0  0  0  0  0  0  0  0
  189.1470  178.4410  140.8150 C   0  0  0  0  0  2  0  0  0  0  0  0
  187.8630  177.9990  144.2290 C   0  0  1  0  0  3  0  0  0  0  0  0
  191.5980  177.9860  144.3640 C   0  0  1  0  0  3  0  0  0  0  0  0
  191.1860  177.5460  139.9590 O   0  0  0  0  0  0  0  0  0  0  0  0
  191.3080  176.6640  145.0970 C   0  0  2  0  0  0  0  0  0  0  0  0
  188.6770  178.7480  142.1130 O   0  0  0  0  0  0  0  0  0  0  0  0
  189.1800  175.3750  143.4000 O   0  0  0  0  0  1  0  0  0  0  0  0
  192.3610  177.7780  143.2100 O   0  0  0  0  0  1  0  0  0  0  0  0
  190.4410  176.6310  141.9330 O   0  0  0  0  0  0  0  0  0  0  0  0
  191.2380  176.7830  146.6070 C   0  0  0  0  0  2  0  0  0  0  0  0
  192.3170  176.1190  147.1960 O   0  0  0  0  0  1  0  0  0  0  0  0
  1  5  2  0  0  0  0
  1  4  1  0  0  0  0
  2 33  1  0  0  0  0
  3  2  2  0  0  0  0
  4  6  2  0  0  0  0
  5  3  1  0  0  0  0
  6  2  1  0  0  0  0
  7  5  1  0  0  0  0
  8  7  1  0  0  0  0
 10 23  1  0  0  0  0
 12 18  1  0  0  0  0
 12 13  1  1  0  0  0
 12 15  1  0  0  0  0
 13 11  1  0  0  0  0
 14 11  1  0  0  0  0
 14  9  1  0  0  0  0
 15  9  1  0  0  0  0
 15 20  1  0  0  0  0
 16 22  1  0  0  0  0
 18 16  2  0  0  0  0
 19 31  1  1  0  0  0
 19 17  1  0  0  0  0
 20 22  2  0  0  0  0
 21 10  1  0  0  0  0
 21 19  1  0  0  0  0
 22  8  1  0  0  0  0
 23 16  1  0  0  0  0
 23 17  1  0  0  0  0
 24 27  1  1  0  0  0
 24 28  1  0  0  0  0
 24 26  1  0  0  0  0
 26 20  1  6  0  0  0
 28 26  1  0  0  0  0
 28 25  1  1  0  0  0
 29 32  1  0  0  0  0
 29 31  1  0  0  0  0
 30 29  2  0  0  0  0
 35 37  1  1  0  0  0
 35 36  1  0  0  0  0
 35 34  1  0  0  0  0
 36 33  1  6  0  0  0
 36 34  1  0  0  0  0
 38 53  1  0  0  0  0
 40 51  1  1  0  0  0
 40 43  1  0  0  0  0
 43 47  1  0  0  0  0
 43 42  1  1  0  0  0
 43 49  1  0  0  0  0
 44 41  1  6  0  0  0
 44 40  1  0  0  0  0
 44 46  1  0  0  0  0
 45 38  1  0  0  0  0
 45 50  1  0  0  0  0
 46 37  1  1  0  0  0
 46 42  1  0  0  0  0
 47 52  1  6  0  0  0
 47 49  1  0  0  0  0
 48 38  2  0  0  0  0
 49 39  1  6  0  0  0
 49 54  1  0  0  0  0
 50 44  1  0  0  0  0
 53 40  1  0  0  0  0
 54 55  1  0  0  0  0
M  END
>  <MODEL>
4

>  <REMARK>
 VINA RESULT:      -7.8      1.380      2.874
  Name = 
  10 active torsions:
  status: ('A' for Active; 'I' for Inactive)
    1  A    between atoms: C_2  and  C_28
    2  A    between atoms: C_2  and  C_44
    3  A    between atoms: O_8  and  C_22
    4  A    between atoms: O_8  and  C_43
    5  A    between atoms: C_11  and  C_38
    6  A    between atoms: C_19  and  C_45
    7  A    between atoms: C_27  and  C_54
    8  A    between atoms: C_28  and  C_49
    9  A    between atoms: N_32  and  C_39
   10  A    between atoms: C_51  and  C_54
                            x       y       z     vdW  Elec       q    Type
                         _______ _______ _______ _____ _____    ______ ____

>  <TORSDO>
F 10

$$$$
=
 OpenBabel10262420373D

 55 63  0  0  1  0  0  0  0  0999 V2000
  183.4660  178.0520  140.2430 C   0  0  0  0  0  3  0  0  0  0  0  0
  183.6210  178.9170  142.9070 C   0  0  0  0  0  0  0  0  0  0  0  0
  182.5150  178.1840  142.4710 C   0  0  0  0  0  3  0  0  0  0  0  0
  184.5750  178.7890  140.6760 C   0  0  0  0  0  3  0  0  0  0  0  0
  182.4310  177.7530  141.1390 C   0  0  0  0  0  0  0  0  0  0  0  0
  184.6520  179.2210  142.0060 C   0  0  0  0  0  3  0  0  0  0  0  0
  181.2750  176.9250  140.6980 C   0  0  0  0  0  2  0  0  0  0  0  0
  180.4700  177.6970  139.6630 C   0  0  0  0  0  2  0  0  0  0  0  0
  182.5840  174.6810  136.3300 C   0  0  0  0  0  2  0  0  0  0  0  0
  179.3220  180.1600  137.2510 C   0  0  0  0  0  2  0  0  0  0  0  0
  183.9970  175.7740  134.6190 N   0  0  0  0  0  2  0  0  0  0  0  0
  182.0480  177.0360  135.6200 C   0  0  1  0  0  3  0  0  0  0  0  0
  183.4670  177.0810  135.0470 C   0  0  0  0  0  2  0  0  0  0  0  0
  183.1000  174.6420  134.8940 C   0  0  0  0  0  2  0  0  0  0  0  0
  181.9350  175.9640  136.6170 N   0  0  0  0  0  0  0  0  0  0  0  0
  181.1810  178.5390  137.3440 C   0  0  0  0  0  0  0  0  0  0  0  0
  181.5580  180.9940  137.5880 C   0  0  0  0  0  2  0  0  0  0  0  0
  181.7010  178.3410  136.1680 N   0  0  0  0  0  0  0  0  0  0  0  0
  180.7300  182.1030  136.9670 C   0  0  1  0  0  3  0  0  0  0  0  0
  181.2310  176.1470  137.8620 C   0  0  0  0  0  0  0  0  0  0  0  0
  179.2750  181.6680  137.0450 C   0  0  0  0  0  2  0  0  0  0  0  0
  180.9400  177.4040  138.2660 C   0  0  0  0  0  0  0  0  0  0  0  0
  180.6790  179.8430  137.6560 N   0  0  0  0  0  0  0  0  0  0  0  0
  179.9130  174.0970  137.8050 C   0  0  1  0  0  3  0  0  0  0  0  0
  179.2580  173.9050  140.2750 C   0  0  0  0  0  1  0  0  0  0  0  0
  180.8690  174.9100  138.6650 C   0  0  2  0  0  3  0  0  0  0  0  0
  180.1980  172.6110  137.9600 C   0  0  0  0  0  1  0  0  0  0  0  0
  179.4020  174.8010  139.0570 C   0  0  1  0  0  3  0  0  0  0  0  0
  181.0430  184.6430  136.9130 C   0  0  0  0  0  0  0  0  0  0  0  0
  180.8530  184.7090  135.5380 O   0  0  0  0  0  0  0  0  0  0  0  0
  180.9620  183.3920  137.6120 N   0  0  0  0  0  2  0  0  0  0  0  0
  181.2010  185.7070  137.5740 O   0  0  0  0  0  1  0  0  0  0  0  0
  183.6930  179.3610  144.3310 C   0  0  0  0  0  2  0  0  0  0  0  0
  185.3710  179.1630  146.1630 C   0  0  0  0  0  2  0  0  0  0  0  0
  185.7800  178.2500  145.0260 C   0  0  1  0  0  3  0  0  0  0  0  0
  185.1410  179.5900  144.7290 C   0  0  1  0  0  3  0  0  0  0  0  0
  187.1570  178.3640  144.7930 O   0  0  0  0  0  0  0  0  0  0  0  0
  191.5260  176.6090  146.8500 C   0  0  0  0  0  0  0  0  0  0  0  0
  191.6910  177.8440  142.5110 C   0  0  0  0  0  1  0  0  0  0  0  0
  190.1180  177.6590  145.1130 C   0  0  2  0  0  0  0  0  0  0  0  0
  188.6740  178.5240  147.0680 C   0  0  0  0  0  1  0  0  0  0  0  0
  188.2720  176.4340  143.9320 C   0  0  0  0  0  2  0  0  0  0  0  0
  189.7540  176.7650  143.9100 C   0  0  2  0  0  0  0  0  0  0  0  0
  188.9470  177.3680  146.0920 C   0  0  1  0  0  0  0  0  0  0  0  0
  190.3100  176.2670  147.6400 C   0  0  0  0  0  2  0  0  0  0  0  0
  187.7250  177.1360  145.1770 C   0  0  1  0  0  3  0  0  0  0  0  0
  190.6150  175.6090  143.3630 C   0  0  1  0  0  3  0  0  0  0  0  0
  192.6650  176.2600  147.2540 O   0  0  0  0  0  0  0  0  0  0  0  0
  190.4740  176.9190  142.5680 C   0  0  2  0  0  0  0  0  0  0  0  0
  189.1780  176.1570  146.8000 O   0  0  0  0  0  0  0  0  0  0  0  0
  190.0940  179.0010  144.7130 O   0  0  0  0  0  1  0  0  0  0  0  0
  191.8720  175.5060  143.9670 O   0  0  0  0  0  1  0  0  0  0  0  0
  191.3970  177.3640  145.6850 O   0  0  0  0  0  0  0  0  0  0  0  0
  189.6140  176.8120  141.3230 C   0  0  0  0  0  2  0  0  0  0  0  0
  190.3110  177.2910  140.2110 O   0  0  0  0  0  1  0  0  0  0  0  0
  1  4  2  0  0  0  0
  1  5  1  0  0  0  0
  2 33  1  0  0  0  0
  3  2  1  0  0  0  0
  4  6  1  0  0  0  0
  5  3  2  0  0  0  0
  6  2  2  0  0  0  0
  7  5  1  0  0  0  0
  8  7  1  0  0  0  0
  9 15  1  0  0  0  0
 10 23  1  0  0  0  0
 11 14  1  0  0  0  0
 11 13  1  0  0  0  0
 12 13  1  1  0  0  0
 12 18  1  0  0  0  0
 12 15  1  0  0  0  0
 14  9  1  0  0  0  0
 15 20  1  0  0  0  0
 16 23  1  0  0  0  0
 16 22  1  0  0  0  0
 17 23  1  0  0  0  0
 18 16  2  0  0  0  0
 19 21  1  0  0  0  0
 19 17  1  0  0  0  0
 19 31  1  1  0  0  0
 20 22  2  0  0  0  0
 21 10  1  0  0  0  0
 22  8  1  0  0  0  0
 24 27  1  1  0  0  0
 24 26  1  0  0  0  0
 24 28  1  0  0  0  0
 26 20  1  6  0  0  0
 26 28  1  0  0  0  0
 28 25  1  1  0  0  0
 29 32  1  0  0  0  0
 29 31  1  0  0  0  0
 30 29  2  0  0  0  0
 35 37  1  6  0  0  0
 35 34  1  0  0  0  0
 36 33  1  1  0  0  0
 36 35  1  0  0  0  0
 36 34  1  0  0  0  0
 38 48  2  0  0  0  0
 38 45  1  0  0  0  0
 40 51  1  6  0  0  0
 40 53  1  0  0  0  0
 40 44  1  0  0  0  0
 42 46  1  0  0  0  0
 43 42  1  6  0  0  0
 43 40  1  0  0  0  0
 44 50  1  0  0  0  0
 44 41  1  1  0  0  0
 46 37  1  6  0  0  0
 46 44  1  0  0  0  0
 47 43  1  0  0  0  0
 47 52  1  1  0  0  0
 49 39  1  6  0  0  0
 49 47  1  0  0  0  0
 49 43  1  0  0  0  0
 50 45  1  0  0  0  0
 53 38  1  0  0  0  0
 54 49  1  0  0  0  0
 55 54  1  0  0  0  0
M  END
>  <MODEL>
5

>  <REMARK>
 VINA RESULT:      -7.6      2.978      4.989
  Name = 
  10 active torsions:
  status: ('A' for Active; 'I' for Inactive)
    1  A    between atoms: C_2  and  C_28
    2  A    between atoms: C_2  and  C_44
    3  A    between atoms: O_8  and  C_22
    4  A    between atoms: O_8  and  C_43
    5  A    between atoms: C_11  and  C_38
    6  A    between atoms: C_19  and  C_45
    7  A    between atoms: C_27  and  C_54
    8  A    between atoms: C_28  and  C_49
    9  A    between atoms: N_32  and  C_39
   10  A    between atoms: C_51  and  C_54
                            x       y       z     vdW  Elec       q    Type
                         _______ _______ _______ _____ _____    ______ ____

>  <TORSDO>
F 10

$$$$
