=
 OpenBabel10262420083D

 27 29  0  0  1  0  0  0  0  0999 V2000
  188.7120  178.0020  144.0230 C   0  0  2  0  0  3  0  0  0  0  0  0
  191.3410  176.4300  147.0460 C   0  0  0  0  0  3  0  0  0  0  0  0
  189.6170  177.4650  145.0920 C   0  0  0  0  0  0  0  0  0  0  0  0
  189.2380  177.4700  146.4440 C   0  0  0  0  0  3  0  0  0  0  0  0
  190.1010  176.9590  147.4170 C   0  0  0  0  0  3  0  0  0  0  0  0
  191.7180  176.4140  145.6990 C   0  0  0  0  0  3  0  0  0  0  0  0
  190.8580  176.9320  144.7250 C   0  0  0  0  0  3  0  0  0  0  0  0
  187.4440  177.1630  143.7990 C   0  0  0  0  0  2  0  0  0  0  0  0
  184.0380  178.8650  144.0760 C   0  0  0  0  0  3  0  0  0  0  0  0
  183.8920  178.9390  145.4640 C   0  0  0  0  0  3  0  0  0  0  0  0
  186.1930  177.7790  144.3570 C   0  0  0  0  0  0  0  0  0  0  0  0
  185.3130  178.2610  142.0320 C   0  0  0  0  0  1  0  0  0  0  0  0
  184.8940  178.4430  146.3000 C   0  0  0  0  0  3  0  0  0  0  0  0
  186.0430  177.8690  145.7480 C   0  0  0  0  0  3  0  0  0  0  0  0
  185.1830  178.2900  143.5170 C   0  0  0  0  0  0  0  0  0  0  0  0
  189.4410  178.2400  142.7870 N   0  0  0  0  0  2  0  0  0  0  0  0
  188.7350  177.5130  141.7410 C   0  0  0  0  0  2  0  0  0  0  0  0
  190.4960  176.4080  138.8430 C   0  0  0  0  0  0  0  0  0  0  0  0
  191.2800  175.1290  137.0000 O   0  0  0  0  0  1  0  0  0  0  0  0
  189.2110  176.6470  138.2940 N   0  0  0  0  0  0  0  0  0  0  0  0
  188.6910  175.9690  137.2430 O   0  0  0  0  0  1  0  0  0  0  0  0
  188.3900  177.3860  139.2320 C   0  0  1  0  0  3  0  0  0  0  0  0
  191.4610  175.7080  138.2490 C   0  0  0  0  0  3  0  0  0  0  0  0
  189.3410  177.7890  140.3710 C   0  0  2  0  0  3  0  0  0  0  0  0
  190.6640  177.0370  140.1710 C   0  0  0  0  0  2  0  0  0  0  0  0
  186.2500  178.1690  138.2630 S   0  0  0  0  0  1  0  0  0  0  0  0
  187.8920  178.5340  138.6150 O   0  0  0  0  0  0  0  0  0  0  0  0
  1  8  1  6  0  0  0
  1  3  1  0  0  0  0
  2  5  1  0  0  0  0
  3  4  1  0  0  0  0
  4  5  2  0  0  0  0
  6  2  2  0  0  0  0
  7  3  2  0  0  0  0
  7  6  1  0  0  0  0
  8 11  1  0  0  0  0
  9 10  1  0  0  0  0
 10 13  2  0  0  0  0
 11 14  2  0  0  0  0
 12 15  1  0  0  0  0
 14 13  1  0  0  0  0
 15  9  2  0  0  0  0
 15 11  1  0  0  0  0
 16  1  1  0  0  0  0
 17 16  1  0  0  0  0
 18 25  1  0  0  0  0
 19 23  1  0  0  0  0
 20 18  1  0  0  0  0
 20 22  1  0  0  0  0
 21 20  1  0  0  0  0
 22 27  1  6  0  0  0
 22 24  1  0  0  0  0
 23 18  2  0  0  0  0
 24 17  1  1  0  0  0
 25 24  1  0  0  0  0
 26 27  1  0  0  0  0
M  END
>  <MODEL>
1

>  <REMARK>
 VINA RESULT:      -9.1      0.000      0.000
  Name = 
  7 active torsions:
  status: ('A' for Active; 'I' for Inactive)
    1  A    between atoms: C_1  and  C_15
    2  A    between atoms: C_1  and  C_18
    3  A    between atoms: N_2  and  C_6
    4  A    between atoms: N_2  and  C_15
    5  A    between atoms: C_6  and  C_17
    6  A    between atoms: C_9  and  C_15
    7  A    between atoms: C_14  and  O_19
                            x       y       z     vdW  Elec       q    Type
                         _______ _______ _______ _____ _____    ______ ____

>  <TORSDO>
F 7

$$$$
=
 OpenBabel10262420083D

 27 29  0  0  1  0  0  0  0  0999 V2000
  187.8860  177.4060  144.1280 C   0  0  2  0  0  3  0  0  0  0  0  0
  184.0530  178.7380  145.5620 C   0  0  0  0  0  3  0  0  0  0  0  0
  186.5540  177.8600  144.6470 C   0  0  0  0  0  0  0  0  0  0  0  0
  186.2620  177.8560  146.0200 C   0  0  0  0  0  3  0  0  0  0  0  0
  185.0130  178.2890  146.4750 C   0  0  0  0  0  3  0  0  0  0  0  0
  184.3440  178.7520  144.1950 C   0  0  0  0  0  3  0  0  0  0  0  0
  185.5910  178.3130  143.7390 C   0  0  0  0  0  3  0  0  0  0  0  0
  189.0780  178.1920  144.6970 C   0  0  0  0  0  2  0  0  0  0  0  0
  190.8820  176.5070  147.6100 C   0  0  0  0  0  3  0  0  0  0  0  0
  191.8810  175.8040  146.9300 C   0  0  0  0  0  3  0  0  0  0  0  0
  190.0390  177.3590  145.4960 C   0  0  0  0  0  0  0  0  0  0  0  0
  188.9310  178.0440  147.6680 C   0  0  0  0  0  1  0  0  0  0  0  0
  191.9680  175.8830  145.5380 C   0  0  0  0  0  3  0  0  0  0  0  0
  191.0520  176.6610  144.8250 C   0  0  0  0  0  3  0  0  0  0  0  0
  189.9610  177.2860  146.9020 C   0  0  0  0  0  0  0  0  0  0  0  0
  187.8980  177.3620  142.6750 N   0  0  0  0  0  2  0  0  0  0  0  0
  189.1540  176.7360  142.2880 C   0  0  0  0  0  2  0  0  0  0  0  0
  191.9010  177.2480  140.0720 C   0  0  0  0  0  0  0  0  0  0  0  0
  193.5690  176.9630  138.4010 O   0  0  0  0  0  1  0  0  0  0  0  0
  190.8170  177.2960  139.1600 N   0  0  0  0  0  0  0  0  0  0  0  0
  190.8900  176.9120  137.8630 O   0  0  0  0  0  1  0  0  0  0  0  0
  189.5610  177.4030  139.8740 C   0  0  1  0  0  3  0  0  0  0  0  0
  193.1790  177.0950  139.7280 C   0  0  0  0  0  3  0  0  0  0  0  0
  189.9500  177.6300  141.3440 C   0  0  2  0  0  3  0  0  0  0  0  0
  191.4610  177.3930  141.4750 C   0  0  0  0  0  2  0  0  0  0  0  0
  187.5660  177.8440  138.4750 S   0  0  0  0  0  1  0  0  0  0  0  0
  188.8480  178.5080  139.4080 O   0  0  0  0  0  0  0  0  0  0  0  0
  1  3  1  0  0  0  0
  1  8  1  6  0  0  0
  2  5  1  0  0  0  0
  3  4  1  0  0  0  0
  4  5  2  0  0  0  0
  6  2  2  0  0  0  0
  7  6  1  0  0  0  0
  7  3  2  0  0  0  0
  8 11  1  0  0  0  0
 10  9  1  0  0  0  0
 11 15  1  0  0  0  0
 13 10  2  0  0  0  0
 14 11  2  0  0  0  0
 14 13  1  0  0  0  0
 15  9  2  0  0  0  0
 15 12  1  0  0  0  0
 16  1  1  0  0  0  0
 17 16  1  0  0  0  0
 18 25  1  0  0  0  0
 19 23  1  0  0  0  0
 20 22  1  0  0  0  0
 20 18  1  0  0  0  0
 21 20  1  0  0  0  0
 22 27  1  6  0  0  0
 22 24  1  0  0  0  0
 23 18  2  0  0  0  0
 24 25  1  0  0  0  0
 24 17  1  1  0  0  0
 26 27  1  0  0  0  0
M  END
>  <MODEL>
2

>  <REMARK>
 VINA RESULT:      -8.9      1.286      4.607
  Name = 
  7 active torsions:
  status: ('A' for Active; 'I' for Inactive)
    1  A    between atoms: C_1  and  C_15
    2  A    between atoms: C_1  and  C_18
    3  A    between atoms: N_2  and  C_6
    4  A    between atoms: N_2  and  C_15
    5  A    between atoms: C_6  and  C_17
    6  A    between atoms: C_9  and  C_15
    7  A    between atoms: C_14  and  O_19
                            x       y       z     vdW  Elec       q    Type
                         _______ _______ _______ _____ _____    ______ ____

>  <TORSDO>
F 7

$$$$
=
 OpenBabel10262420083D

 27 29  0  0  1  0  0  0  0  0999 V2000
  187.8470  177.4590  143.3990 C   0  0  2  0  0  3  0  0  0  0  0  0
  183.8870  178.8130  144.3990 C   0  0  0  0  0  3  0  0  0  0  0  0
  186.4710  177.9260  143.7690 C   0  0  0  0  0  0  0  0  0  0  0  0
  186.1330  178.2350  145.0960 C   0  0  0  0  0  3  0  0  0  0  0  0
  184.8430  178.6720  145.4100 C   0  0  0  0  0  3  0  0  0  0  0  0
  184.2220  178.5160  143.0750 C   0  0  0  0  0  3  0  0  0  0  0  0
  185.5100  178.0720  142.7610 C   0  0  0  0  0  3  0  0  0  0  0  0
  188.9770  178.3170  143.9920 C   0  0  0  0  0  2  0  0  0  0  0  0
  191.7390  176.3680  145.7670 C   0  0  0  0  0  3  0  0  0  0  0  0
  191.2330  176.3200  147.0690 C   0  0  0  0  0  3  0  0  0  0  0  0
  189.7850  177.6230  145.0510 C   0  0  0  0  0  0  0  0  0  0  0  0
  191.5830  177.0140  143.3730 C   0  0  0  0  0  1  0  0  0  0  0  0
  190.0030  176.9130  147.3630 C   0  0  0  0  0  3  0  0  0  0  0  0
  189.2800  177.5580  146.3560 C   0  0  0  0  0  3  0  0  0  0  0  0
  191.0220  177.0140  144.7540 C   0  0  0  0  0  0  0  0  0  0  0  0
  187.9780  177.2930  141.9600 N   0  0  0  0  0  2  0  0  0  0  0  0
  188.5990  178.5100  141.4550 C   0  0  0  0  0  2  0  0  0  0  0  0
  189.8710  176.5900  138.7320 C   0  0  0  0  0  0  0  0  0  0  0  0
  190.3580  174.8240  137.2170 O   0  0  0  0  0  1  0  0  0  0  0  0
  188.5080  176.7030  138.3590 N   0  0  0  0  0  0  0  0  0  0  0  0
  187.8320  175.7750  137.6410 O   0  0  0  0  0  1  0  0  0  0  0  0
  187.8420  177.6990  139.1750 C   0  0  1  0  0  3  0  0  0  0  0  0
  190.7350  175.7230  138.2070 C   0  0  0  0  0  3  0  0  0  0  0  0
  188.9620  178.3750  139.9820 C   0  0  2  0  0  3  0  0  0  0  0  0
  190.2460  177.5580  139.7840 C   0  0  0  0  0  2  0  0  0  0  0  0
  185.5420  178.3710  138.5510 S   0  0  0  0  0  1  0  0  0  0  0  0
  187.2260  178.6440  138.3530 O   0  0  0  0  0  0  0  0  0  0  0  0
  1  3  1  0  0  0  0
  1  8  1  6  0  0  0
  2  5  1  0  0  0  0
  3  4  1  0  0  0  0
  4  5  2  0  0  0  0
  6  2  2  0  0  0  0
  7  6  1  0  0  0  0
  7  3  2  0  0  0  0
  8 11  1  0  0  0  0
  9 10  1  0  0  0  0
 10 13  2  0  0  0  0
 11 14  2  0  0  0  0
 12 15  1  0  0  0  0
 14 13  1  0  0  0  0
 15 11  1  0  0  0  0
 15  9  2  0  0  0  0
 16  1  1  0  0  0  0
 17 16  1  0  0  0  0
 18 25  1  0  0  0  0
 19 23  1  0  0  0  0
 20 18  1  0  0  0  0
 20 22  1  0  0  0  0
 21 20  1  0  0  0  0
 22 27  1  6  0  0  0
 22 24  1  0  0  0  0
 23 18  2  0  0  0  0
 24 17  1  1  0  0  0
 25 24  1  0  0  0  0
 27 26  1  0  0  0  0
M  END
>  <MODEL>
3

>  <REMARK>
 VINA RESULT:      -8.9      0.813      4.345
  Name = 
  7 active torsions:
  status: ('A' for Active; 'I' for Inactive)
    1  A    between atoms: C_1  and  C_15
    2  A    between atoms: C_1  and  C_18
    3  A    between atoms: N_2  and  C_6
    4  A    between atoms: N_2  and  C_15
    5  A    between atoms: C_6  and  C_17
    6  A    between atoms: C_9  and  C_15
    7  A    between atoms: C_14  and  O_19
                            x       y       z     vdW  Elec       q    Type
                         _______ _______ _______ _____ _____    ______ ____

>  <TORSDO>
F 7

$$$$
=
 OpenBabel10262420083D

 27 29  0  0  1  0  0  0  0  0999 V2000
  188.3040  177.4350  143.4040 C   0  0  2  0  0  3  0  0  0  0  0  0
  191.7210  176.4760  145.8380 C   0  0  0  0  0  3  0  0  0  0  0  0
  189.5020  177.0870  144.2360 C   0  0  0  0  0  0  0  0  0  0  0  0
  190.6440  176.5000  143.6690 C   0  0  0  0  0  3  0  0  0  0  0  0
  191.7470  176.1910  144.4700 C   0  0  0  0  0  3  0  0  0  0  0  0
  190.5900  177.0700  146.4050 C   0  0  0  0  0  3  0  0  0  0  0  0
  189.4820  177.3730  145.6060 C   0  0  0  0  0  3  0  0  0  0  0  0
  186.9920  176.8130  143.9090 C   0  0  0  0  0  2  0  0  0  0  0  0
  184.3420  179.2410  145.1980 C   0  0  0  0  0  3  0  0  0  0  0  0
  183.6630  179.5420  144.0140 C   0  0  0  0  0  3  0  0  0  0  0  0
  185.8390  177.7740  143.9680 C   0  0  0  0  0  0  0  0  0  0  0  0
  186.1040  178.0390  146.4740 C   0  0  0  0  0  1  0  0  0  0  0  0
  184.0620  178.9580  142.8110 C   0  0  0  0  0  3  0  0  0  0  0  0
  185.1440  178.0730  142.7890 C   0  0  0  0  0  3  0  0  0  0  0  0
  185.4270  178.3580  145.1840 C   0  0  0  0  0  0  0  0  0  0  0  0
  188.5410  177.1540  141.9970 N   0  0  0  0  0  2  0  0  0  0  0  0
  188.4390  178.4260  141.2960 C   0  0  0  0  0  2  0  0  0  0  0  0
  190.0600  176.5710  138.7170 C   0  0  0  0  0  0  0  0  0  0  0  0
  190.7680  174.8340  137.2570 O   0  0  0  0  0  1  0  0  0  0  0  0
  188.7410  176.6380  138.2020 N   0  0  0  0  0  0  0  0  0  0  0  0
  188.1780  175.6920  137.4130 O   0  0  0  0  0  1  0  0  0  0  0  0
  187.9570  177.6040  138.9450 C   0  0  1  0  0  3  0  0  0  0  0  0
  191.0050  175.7390  138.2830 C   0  0  0  0  0  3  0  0  0  0  0  0
  188.9600  178.3140  139.8680 C   0  0  2  0  0  3  0  0  0  0  0  0
  190.2870  177.5450  139.8050 C   0  0  0  0  0  2  0  0  0  0  0  0
  185.7120  178.2040  138.0890 S   0  0  0  0  0  1  0  0  0  0  0  0
  187.3990  178.5320  138.0660 O   0  0  0  0  0  0  0  0  0  0  0  0
  1  8  1  1  0  0  0
  1  3  1  0  0  0  0
  2  6  1  0  0  0  0
  3  7  1  0  0  0  0
  4  3  2  0  0  0  0
  4  5  1  0  0  0  0
  5  2  2  0  0  0  0
  7  6  2  0  0  0  0
  8 11  1  0  0  0  0
 10  9  2  0  0  0  0
 11 15  2  0  0  0  0
 13 10  1  0  0  0  0
 14 13  2  0  0  0  0
 14 11  1  0  0  0  0
 15  9  1  0  0  0  0
 15 12  1  0  0  0  0
 16  1  1  0  0  0  0
 17 16  1  0  0  0  0
 18 25  1  0  0  0  0
 19 23  1  0  0  0  0
 20 18  1  0  0  0  0
 20 22  1  0  0  0  0
 21 20  1  0  0  0  0
 22 27  1  6  0  0  0
 22 24  1  0  0  0  0
 23 18  2  0  0  0  0
 24 17  1  1  0  0  0
 25 24  1  0  0  0  0
 27 26  1  0  0  0  0
M  END
>  <MODEL>
4

>  <REMARK>
 VINA RESULT:      -8.9      0.838      1.818
  Name = 
  7 active torsions:
  status: ('A' for Active; 'I' for Inactive)
    1  A    between atoms: C_1  and  C_15
    2  A    between atoms: C_1  and  C_18
    3  A    between atoms: N_2  and  C_6
    4  A    between atoms: N_2  and  C_15
    5  A    between atoms: C_6  and  C_17
    6  A    between atoms: C_9  and  C_15
    7  A    between atoms: C_14  and  O_19
                            x       y       z     vdW  Elec       q    Type
                         _______ _______ _______ _____ _____    ______ ____

>  <TORSDO>
F 7

$$$$
=
 OpenBabel10262420083D

 27 29  0  0  1  0  0  0  0  0999 V2000
  188.7190  177.8890  143.8720 C   0  0  2  0  0  3  0  0  0  0  0  0
  191.3450  176.5390  147.0020 C   0  0  0  0  0  3  0  0  0  0  0  0
  189.6220  177.4310  144.9770 C   0  0  0  0  0  0  0  0  0  0  0  0
  189.2510  177.5510  146.3260 C   0  0  0  0  0  3  0  0  0  0  0  0
  190.1130  177.1110  147.3340 C   0  0  0  0  0  3  0  0  0  0  0  0
  191.7150  176.4090  145.6600 C   0  0  0  0  0  3  0  0  0  0  0  0
  190.8560  176.8560  144.6500 C   0  0  0  0  0  3  0  0  0  0  0  0
  187.4110  177.0880  143.7620 C   0  0  0  0  0  2  0  0  0  0  0  0
  184.0860  178.8340  144.4510 C   0  0  0  0  0  3  0  0  0  0  0  0
  184.1060  178.8980  145.8470 C   0  0  0  0  0  3  0  0  0  0  0  0
  186.2440  177.7160  144.4680 C   0  0  0  0  0  0  0  0  0  0  0  0
  185.1030  178.2290  142.2660 C   0  0  0  0  0  1  0  0  0  0  0  0
  185.1930  178.3810  146.5550 C   0  0  0  0  0  3  0  0  0  0  0  0
  186.2600  177.7960  145.8670 C   0  0  0  0  0  3  0  0  0  0  0  0
  185.1490  178.2480  143.7560 C   0  0  0  0  0  0  0  0  0  0  0  0
  189.4290  177.9610  142.6050 N   0  0  0  0  0  2  0  0  0  0  0  0
  188.5060  178.5440  141.6420 C   0  0  0  0  0  2  0  0  0  0  0  0
  187.6030  178.1270  138.2170 C   0  0  0  0  0  0  0  0  0  0  0  0
  187.2860  178.4580  135.8850 O   0  0  0  0  0  1  0  0  0  0  0  0
  189.0110  177.9900  138.1350 N   0  0  0  0  0  0  0  0  0  0  0  0
  189.7520  178.3400  137.0570 O   0  0  0  0  0  1  0  0  0  0  0  0
  189.5810  177.8320  139.4580 C   0  0  1  0  0  3  0  0  0  0  0  0
  186.7970  178.3420  137.1790 C   0  0  0  0  0  3  0  0  0  0  0  0
  188.3780  177.6700  140.4010 C   0  0  2  0  0  3  0  0  0  0  0  0
  187.1070  177.9960  139.6040 C   0  0  0  0  0  2  0  0  0  0  0  0
  191.9310  177.2160  139.9420 S   0  0  0  0  0  1  0  0  0  0  0  0
  190.3610  176.6760  139.4980 O   0  0  0  0  0  0  0  0  0  0  0  0
  1  8  1  6  0  0  0
  1  3  1  0  0  0  0
  2  5  1  0  0  0  0
  3  4  1  0  0  0  0
  4  5  2  0  0  0  0
  6  2  2  0  0  0  0
  7  3  2  0  0  0  0
  7  6  1  0  0  0  0
  8 11  1  0  0  0  0
  9 10  1  0  0  0  0
 10 13  2  0  0  0  0
 11 14  2  0  0  0  0
 12 15  1  0  0  0  0
 14 13  1  0  0  0  0
 15  9  2  0  0  0  0
 15 11  1  0  0  0  0
 16  1  1  0  0  0  0
 17 16  1  0  0  0  0
 18 25  1  0  0  0  0
 19 23  1  0  0  0  0
 20 18  1  0  0  0  0
 20 22  1  0  0  0  0
 21 20  1  0  0  0  0
 22 27  1  6  0  0  0
 22 24  1  0  0  0  0
 23 18  2  0  0  0  0
 24 17  1  1  0  0  0
 25 24  1  0  0  0  0
 27 26  1  0  0  0  0
M  END
>  <MODEL>
5

>  <REMARK>
 VINA RESULT:      -8.5      1.717      2.305
  Name = 
  7 active torsions:
  status: ('A' for Active; 'I' for Inactive)
    1  A    between atoms: C_1  and  C_15
    2  A    between atoms: C_1  and  C_18
    3  A    between atoms: N_2  and  C_6
    4  A    between atoms: N_2  and  C_15
    5  A    between atoms: C_6  and  C_17
    6  A    between atoms: C_9  and  C_15
    7  A    between atoms: C_14  and  O_19
                            x       y       z     vdW  Elec       q    Type
                         _______ _______ _______ _____ _____    ______ ____

>  <TORSDO>
F 7

$$$$
=
 OpenBabel10262420083D

 27 29  0  0  1  0  0  0  0  0999 V2000
  188.1440  178.3160  142.5460 C   0  0  2  0  0  3  0  0  0  0  0  0
  191.7080  176.2010  143.7060 C   0  0  0  0  0  3  0  0  0  0  0  0
  189.3740  177.5610  142.9540 C   0  0  0  0  0  0  0  0  0  0  0  0
  189.4040  176.1570  142.9610 C   0  0  0  0  0  3  0  0  0  0  0  0
  190.5660  175.4810  143.3420 C   0  0  0  0  0  3  0  0  0  0  0  0
  191.6850  177.5990  143.6920 C   0  0  0  0  0  3  0  0  0  0  0  0
  190.5200  178.2770  143.3180 C   0  0  0  0  0  3  0  0  0  0  0  0
  186.8330  177.5510  142.7910 C   0  0  0  0  0  2  0  0  0  0  0  0
  184.2960  178.8370  145.3380 C   0  0  0  0  0  3  0  0  0  0  0  0
  184.9480  178.5320  146.5360 C   0  0  0  0  0  3  0  0  0  0  0  0
  186.1520  177.8950  144.0850 C   0  0  0  0  0  0  0  0  0  0  0  0
  184.1770  178.8960  142.8570 C   0  0  0  0  0  1  0  0  0  0  0  0
  186.2010  177.9170  146.5130 C   0  0  0  0  0  3  0  0  0  0  0  0
  186.8030  177.6040  145.2910 C   0  0  0  0  0  3  0  0  0  0  0  0
  184.8910  178.5250  144.1110 C   0  0  0  0  0  0  0  0  0  0  0  0
  188.2520  178.8020  141.1800 N   0  0  0  0  0  2  0  0  0  0  0  0
  188.5840  177.6490  140.3530 C   0  0  0  0  0  2  0  0  0  0  0  0
  191.3250  176.6760  138.2900 C   0  0  0  0  0  0  0  0  0  0  0  0
  192.7600  175.4880  136.8140 O   0  0  0  0  0  1  0  0  0  0  0  0
  190.3490  176.9710  137.3060 N   0  0  0  0  0  0  0  0  0  0  0  0
  190.2730  176.3640  136.0970 O   0  0  0  0  0  1  0  0  0  0  0  0
  189.2280  177.6720  137.9000 C   0  0  1  0  0  3  0  0  0  0  0  0
  192.4460  175.9910  138.0690 C   0  0  0  0  0  3  0  0  0  0  0  0
  189.6680  177.9910  139.3390 C   0  0  2  0  0  3  0  0  0  0  0  0
  190.9690  177.2250  139.6150 C   0  0  0  0  0  2  0  0  0  0  0  0
  187.4500  178.6710  136.4960 S   0  0  0  0  0  1  0  0  0  0  0  0
  189.0010  178.8640  137.2100 O   0  0  0  0  0  0  0  0  0  0  0  0
  1  8  1  6  0  0  0
  1  3  1  0  0  0  0
  3  4  2  0  0  0  0
  3  7  1  0  0  0  0
  4  5  1  0  0  0  0
  5  2  2  0  0  0  0
  6  2  1  0  0  0  0
  7  6  2  0  0  0  0
  8 11  1  0  0  0  0
  9 10  1  0  0  0  0
 11 15  1  0  0  0  0
 11 14  2  0  0  0  0
 12 15  1  0  0  0  0
 13 10  2  0  0  0  0
 14 13  1  0  0  0  0
 15  9  2  0  0  0  0
 16  1  1  0  0  0  0
 17 16  1  0  0  0  0
 18 25  1  0  0  0  0
 19 23  1  0  0  0  0
 20 22  1  0  0  0  0
 20 18  1  0  0  0  0
 21 20  1  0  0  0  0
 22 27  1  6  0  0  0
 22 24  1  0  0  0  0
 23 18  2  0  0  0  0
 24 25  1  0  0  0  0
 24 17  1  1  0  0  0
 26 27  1  0  0  0  0
M  END
>  <MODEL>
6

>  <REMARK>
 VINA RESULT:      -8.4      1.726      1.941
  Name = 
  7 active torsions:
  status: ('A' for Active; 'I' for Inactive)
    1  A    between atoms: C_1  and  C_15
    2  A    between atoms: C_1  and  C_18
    3  A    between atoms: N_2  and  C_6
    4  A    between atoms: N_2  and  C_15
    5  A    between atoms: C_6  and  C_17
    6  A    between atoms: C_9  and  C_15
    7  A    between atoms: C_14  and  O_19
                            x       y       z     vdW  Elec       q    Type
                         _______ _______ _______ _____ _____    ______ ____

>  <TORSDO>
F 7

$$$$
=
 OpenBabel10262420083D

 27 29  0  0  1  0  0  0  0  0999 V2000
  188.2270  177.6910  142.6950 C   0  0  2  0  0  3  0  0  0  0  0  0
  191.8960  177.8620  144.9380 C   0  0  0  0  0  3  0  0  0  0  0  0
  189.5130  177.7660  143.4630 C   0  0  0  0  0  0  0  0  0  0  0  0
  190.3610  178.8810  143.3650 C   0  0  0  0  0  3  0  0  0  0  0  0
  191.5520  178.9240  144.0970 C   0  0  0  0  0  3  0  0  0  0  0  0
  191.0490  176.7540  145.0450 C   0  0  0  0  0  3  0  0  0  0  0  0
  189.8610  176.7070  144.3080 C   0  0  0  0  0  3  0  0  0  0  0  0
  187.1150  176.9100  143.4140 C   0  0  0  0  0  2  0  0  0  0  0  0
  184.7160  178.9310  145.5910 C   0  0  0  0  0  3  0  0  0  0  0  0
  183.7670  179.3230  144.6430 C   0  0  0  0  0  3  0  0  0  0  0  0
  185.9600  177.7590  143.8640 C   0  0  0  0  0  0  0  0  0  0  0  0
  186.7830  177.7260  146.2590 C   0  0  0  0  0  1  0  0  0  0  0  0
  183.9060  178.9300  143.3100 C   0  0  0  0  0  3  0  0  0  0  0  0
  184.9970  178.1470  142.9240 C   0  0  0  0  0  3  0  0  0  0  0  0
  185.8110  178.1490  145.2110 C   0  0  0  0  0  0  0  0  0  0  0  0
  188.4500  177.2110  141.3400 N   0  0  0  0  0  2  0  0  0  0  0  0
  188.3550  178.3710  140.4660 C   0  0  0  0  0  2  0  0  0  0  0  0
  190.3900  176.3440  138.3520 C   0  0  0  0  0  0  0  0  0  0  0  0
  191.4040  174.4990  137.2480 O   0  0  0  0  0  1  0  0  0  0  0  0
  189.1260  176.1840  137.7300 N   0  0  0  0  0  0  0  0  0  0  0  0
  188.7380  175.0720  137.0620 O   0  0  0  0  0  1  0  0  0  0  0  0
  188.1830  177.1560  138.2460 C   0  0  1  0  0  3  0  0  0  0  0  0
  191.4510  175.5690  138.1330 C   0  0  0  0  0  3  0  0  0  0  0  0
  189.0180  178.1060  139.1200 C   0  0  2  0  0  3  0  0  0  0  0  0
  190.4140  177.4910  139.2850 C   0  0  0  0  0  2  0  0  0  0  0  0
  185.9360  177.9080  137.5250 S   0  0  0  0  0  1  0  0  0  0  0  0
  187.6210  177.8720  137.1890 O   0  0  0  0  0  0  0  0  0  0  0  0
  1  8  1  1  0  0  0
  1  3  1  0  0  0  0
  2  6  1  0  0  0  0
  3  7  1  0  0  0  0
  4  3  2  0  0  0  0
  4  5  1  0  0  0  0
  5  2  2  0  0  0  0
  7  6  2  0  0  0  0
  8 11  1  0  0  0  0
 10  9  2  0  0  0  0
 11 15  2  0  0  0  0
 13 10  1  0  0  0  0
 14 13  2  0  0  0  0
 14 11  1  0  0  0  0
 15  9  1  0  0  0  0
 15 12  1  0  0  0  0
 16  1  1  0  0  0  0
 17 16  1  0  0  0  0
 18 25  1  0  0  0  0
 19 23  1  0  0  0  0
 20 22  1  0  0  0  0
 20 18  1  0  0  0  0
 21 20  1  0  0  0  0
 22 27  1  6  0  0  0
 22 24  1  0  0  0  0
 23 18  2  0  0  0  0
 24 25  1  0  0  0  0
 24 17  1  1  0  0  0
 27 26  1  0  0  0  0
M  END
>  <MODEL>
7

>  <REMARK>
 VINA RESULT:      -8.3      1.189      1.987
  Name = 
  7 active torsions:
  status: ('A' for Active; 'I' for Inactive)
    1  A    between atoms: C_1  and  C_15
    2  A    between atoms: C_1  and  C_18
    3  A    between atoms: N_2  and  C_6
    4  A    between atoms: N_2  and  C_15
    5  A    between atoms: C_6  and  C_17
    6  A    between atoms: C_9  and  C_15
    7  A    between atoms: C_14  and  O_19
                            x       y       z     vdW  Elec       q    Type
                         _______ _______ _______ _____ _____    ______ ____

>  <TORSDO>
F 7

$$$$
=
 OpenBabel10262420083D

 27 29  0  0  1  0  0  0  0  0999 V2000
  187.6180  178.1840  143.1750 C   0  0  2  0  0  3  0  0  0  0  0  0
  191.6740  177.3940  141.9760 C   0  0  0  0  0  3  0  0  0  0  0  0
  189.0370  177.9260  142.7690 C   0  0  0  0  0  0  0  0  0  0  0  0
  190.1150  178.4840  143.4760 C   0  0  0  0  0  3  0  0  0  0  0  0
  191.4290  178.2220  143.0760 C   0  0  0  0  0  3  0  0  0  0  0  0
  190.6040  176.8290  141.2760 C   0  0  0  0  0  3  0  0  0  0  0  0
  189.2890  177.0960  141.6710 C   0  0  0  0  0  3  0  0  0  0  0  0
  187.0750  177.1880  144.2140 C   0  0  0  0  0  2  0  0  0  0  0  0
  187.1480  178.3820  147.8400 C   0  0  0  0  0  3  0  0  0  0  0  0
  188.4250  177.9680  148.2280 C   0  0  0  0  0  3  0  0  0  0  0  0
  187.5210  177.4640  145.6210 C   0  0  0  0  0  0  0  0  0  0  0  0
  185.3340  178.6230  146.1590 C   0  0  0  0  0  1  0  0  0  0  0  0
  189.2540  177.3110  147.3160 C   0  0  0  0  0  3  0  0  0  0  0  0
  188.8050  177.0640  146.0160 C   0  0  0  0  0  3  0  0  0  0  0  0
  186.6910  178.1360  146.5410 C   0  0  0  0  0  0  0  0  0  0  0  0
  186.7500  178.2960  142.0140 N   0  0  0  0  0  2  0  0  0  0  0  0
  185.5980  179.0860  142.4290 C   0  0  0  0  0  2  0  0  0  0  0  0
  182.0360  178.9430  142.5000 C   0  0  0  0  0  0  0  0  0  0  0  0
  179.7270  179.4890  142.3460 O   0  0  0  0  0  1  0  0  0  0  0  0
  182.2680  178.9850  141.1020 N   0  0  0  0  0  0  0  0  0  0  0  0
  181.4210  179.5380  140.2020 O   0  0  0  0  0  1  0  0  0  0  0  0
  183.6700  178.7520  140.8160 C   0  0  1  0  0  3  0  0  0  0  0  0
  180.8610  179.1730  143.0840 C   0  0  0  0  0  3  0  0  0  0  0  0
  184.2940  178.3450  142.1610 C   0  0  2  0  0  3  0  0  0  0  0  0
  183.2560  178.6020  143.2610 C   0  0  0  0  0  2  0  0  0  0  0  0
  184.8120  178.3070  138.6640 S   0  0  0  0  0  1  0  0  0  0  0  0
  183.7950  177.6990  139.9090 O   0  0  0  0  0  0  0  0  0  0  0  0
  1  8  1  1  0  0  0
  2  5  1  0  0  0  0
  3  1  1  0  0  0  0
  3  4  1  0  0  0  0
  5  4  2  0  0  0  0
  6  7  1  0  0  0  0
  6  2  2  0  0  0  0
  7  3  2  0  0  0  0
  8 11  1  0  0  0  0
  9 10  1  0  0  0  0
 11 14  2  0  0  0  0
 11 15  1  0  0  0  0
 12 15  1  0  0  0  0
 13 10  2  0  0  0  0
 14 13  1  0  0  0  0
 15  9  2  0  0  0  0
 16 17  1  0  0  0  0
 16  1  1  0  0  0  0
 18 23  2  0  0  0  0
 18 25  1  0  0  0  0
 19 23  1  0  0  0  0
 20 18  1  0  0  0  0
 21 20  1  0  0  0  0
 22 27  1  6  0  0  0
 22 20  1  0  0  0  0
 22 24  1  0  0  0  0
 24 17  1  1  0  0  0
 24 25  1  0  0  0  0
 26 27  1  0  0  0  0
M  END
>  <MODEL>
8

>  <REMARK>
 VINA RESULT:      -8.3      3.150      5.888
  Name = 
  7 active torsions:
  status: ('A' for Active; 'I' for Inactive)
    1  A    between atoms: C_1  and  C_15
    2  A    between atoms: C_1  and  C_18
    3  A    between atoms: N_2  and  C_6
    4  A    between atoms: N_2  and  C_15
    5  A    between atoms: C_6  and  C_17
    6  A    between atoms: C_9  and  C_15
    7  A    between atoms: C_14  and  O_19
                            x       y       z     vdW  Elec       q    Type
                         _______ _______ _______ _____ _____    ______ ____

>  <TORSDO>
F 7

$$$$
=
 OpenBabel10262420083D

 27 29  0  0  1  0  0  0  0  0999 V2000
  187.7650  177.2300  144.1240 C   0  0  2  0  0  3  0  0  0  0  0  0
  184.2300  178.7350  146.0630 C   0  0  0  0  0  3  0  0  0  0  0  0
  186.5390  177.7440  144.8180 C   0  0  0  0  0  0  0  0  0  0  0  0
  186.4270  177.7270  146.2180 C   0  0  0  0  0  3  0  0  0  0  0  0
  185.2730  178.2160  146.8370 C   0  0  0  0  0  3  0  0  0  0  0  0
  184.3420  178.7620  144.6700 C   0  0  0  0  0  3  0  0  0  0  0  0
  185.4930  178.2660  144.0490 C   0  0  0  0  0  3  0  0  0  0  0  0
  189.0470  178.0060  144.4670 C   0  0  0  0  0  2  0  0  0  0  0  0
  191.0460  176.4190  147.3070 C   0  0  0  0  0  3  0  0  0  0  0  0
  192.0110  175.7090  146.5850 C   0  0  0  0  0  3  0  0  0  0  0  0
  190.0660  177.2050  145.2270 C   0  0  0  0  0  0  0  0  0  0  0  0
  189.0840  177.9360  147.4440 C   0  0  0  0  0  1  0  0  0  0  0  0
  192.0120  175.7510  145.1900 C   0  0  0  0  0  3  0  0  0  0  0  0
  191.0450  176.5000  144.5140 C   0  0  0  0  0  3  0  0  0  0  0  0
  190.0750  177.1680  146.6360 C   0  0  0  0  0  0  0  0  0  0  0  0
  187.5530  177.1230  142.6890 N   0  0  0  0  0  2  0  0  0  0  0  0
  188.7600  177.6300  142.0510 C   0  0  0  0  0  2  0  0  0  0  0  0
  188.5580  178.2270  138.5410 C   0  0  0  0  0  0  0  0  0  0  0  0
  188.2000  177.9890  136.2030 O   0  0  0  0  0  1  0  0  0  0  0  0
  187.1820  178.2040  138.8820 N   0  0  0  0  0  0  0  0  0  0  0  0
  186.1950  177.7960  138.0500 O   0  0  0  0  0  1  0  0  0  0  0  0
  187.0180  178.2650  140.3210 C   0  0  1  0  0  3  0  0  0  0  0  0
  189.0380  178.1300  137.3020 C   0  0  0  0  0  3  0  0  0  0  0  0
  188.4240  178.5410  140.8770 C   0  0  2  0  0  3  0  0  0  0  0  0
  189.4270  178.3810  139.7270 C   0  0  0  0  0  2  0  0  0  0  0  0
  184.6090  178.6190  140.7730 S   0  0  0  0  0  1  0  0  0  0  0  0
  186.1710  179.3240  140.6520 O   0  0  0  0  0  0  0  0  0  0  0  0
  1  8  1  6  0  0  0
  1  3  1  0  0  0  0
  2  5  1  0  0  0  0
  3  4  1  0  0  0  0
  4  5  2  0  0  0  0
  6  2  2  0  0  0  0
  7  6  1  0  0  0  0
  7  3  2  0  0  0  0
  8 11  1  0  0  0  0
 10  9  2  0  0  0  0
 11 15  2  0  0  0  0
 13 10  1  0  0  0  0
 14 13  2  0  0  0  0
 14 11  1  0  0  0  0
 15  9  1  0  0  0  0
 15 12  1  0  0  0  0
 16  1  1  0  0  0  0
 17 16  1  0  0  0  0
 18 20  1  0  0  0  0
 18 25  1  0  0  0  0
 19 23  1  0  0  0  0
 20 22  1  0  0  0  0
 21 20  1  0  0  0  0
 22 27  1  6  0  0  0
 22 24  1  0  0  0  0
 23 18  2  0  0  0  0
 24 17  1  1  0  0  0
 25 24  1  0  0  0  0
 27 26  1  0  0  0  0
M  END
>  <MODEL>
9

>  <REMARK>
 VINA RESULT:      -8.2      1.749      4.747
  Name = 
  7 active torsions:
  status: ('A' for Active; 'I' for Inactive)
    1  A    between atoms: C_1  and  C_15
    2  A    between atoms: C_1  and  C_18
    3  A    between atoms: N_2  and  C_6
    4  A    between atoms: N_2  and  C_15
    5  A    between atoms: C_6  and  C_17
    6  A    between atoms: C_9  and  C_15
    7  A    between atoms: C_14  and  O_19
                            x       y       z     vdW  Elec       q    Type
                         _______ _______ _______ _____ _____    ______ ____

>  <TORSDO>
F 7

$$$$
