=
 OpenBabel10262420583D

 28 30  0  0  1  0  0  0  0  0999 V2000
  184.8130  178.5360  147.3300 O   0  0  0  0  0  1  0  0  0  0  0  0
  185.1160  178.5710  143.6920 N   0  0  0  0  0  0  0  0  0  0  0  0
  183.4480  179.3810  145.1290 O   0  0  0  0  0  0  0  0  0  0  0  0
  186.7320  177.9550  146.0140 C   0  0  1  0  0  3  0  0  0  0  0  0
  186.4230  177.9980  143.5540 C   0  0  0  0  0  3  0  0  0  0  0  0
  185.5260  178.8980  146.1850 C   0  0  1  0  0  3  0  0  0  0  0  0
  184.6190  178.9320  144.9940 C   0  0  0  0  0  0  0  0  0  0  0  0
  187.2200  177.7330  144.5900 C   0  0  0  0  0  0  0  0  0  0  0  0
  182.9150  178.4890  142.5850 C   0  0  0  0  0  3  0  0  0  0  0  0
  184.8760  179.0290  141.2660 C   0  0  0  0  0  0  0  0  0  0  0  0
  182.6950  178.9180  140.2150 C   0  0  0  0  0  0  0  0  0  0  0  0
  184.3010  178.7070  142.5120 C   0  0  0  0  0  0  0  0  0  0  0  0
  184.0710  179.1360  140.1270 C   0  0  0  0  0  3  0  0  0  0  0  0
  186.2070  179.2660  141.1560 F   0  0  0  0  0  0  0  0  0  0  0  0
  181.9200  179.0220  139.1080 F   0  0  0  0  0  0  0  0  0  0  0  0
  182.1170  178.5960  141.4450 C   0  0  0  0  0  3  0  0  0  0  0  0
  188.4630  176.9440  144.2760 C   0  0  1  0  0  3  0  0  0  0  0  0
  188.3270  175.8400  143.2340 C   0  0  0  0  0  1  0  0  0  0  0  0
  190.3880  177.9680  142.9190 N   0  0  0  0  0  0  0  0  0  0  0  0
  191.7690  176.6090  143.9560 C   0  0  1  0  0  3  0  0  0  0  0  0
  190.8140  177.0750  145.0300 C   0  0  0  0  0  2  0  0  0  0  0  0
  189.7630  177.7850  144.2340 C   0  0  2  0  0  3  0  0  0  0  0  0
  191.9830  175.2380  144.0820 O   0  0  0  0  0  1  0  0  0  0  0  0
  191.1860  176.8830  142.7060 O   0  0  0  0  0  0  0  0  0  0  0  0
  189.4380  178.0770  141.8190 C   0  0  0  0  0  2  0  0  0  0  0  0
  189.9930  177.5310  140.6610 O   0  0  0  0  0  1  0  0  0  0  0  0
  187.9370  177.1270  147.7810 C   0  0  0  0  0  1  0  0  0  0  0  0
  187.7650  178.2380  146.9360 O   0  0  0  0  0  0  0  0  0  0  0  0
  2  7  1  0  0  0  0
  4  6  1  0  0  0  0
  4 28  1  1  0  0  0
  5  2  1  0  0  0  0
  5  8  2  0  0  0  0
  6  1  1  1  0  0  0
  7  3  2  0  0  0  0
  7  6  1  0  0  0  0
  8  4  1  0  0  0  0
 10 12  2  0  0  0  0
 11 16  1  0  0  0  0
 12  9  1  0  0  0  0
 12  2  1  0  0  0  0
 13 11  2  0  0  0  0
 13 10  1  0  0  0  0
 14 10  1  0  0  0  0
 15 11  1  0  0  0  0
 16  9  2  0  0  0  0
 17 18  1  6  0  0  0
 17  8  1  0  0  0  0
 19 22  1  0  0  0  0
 20 23  1  1  0  0  0
 20 21  1  0  0  0  0
 22 17  1  6  0  0  0
 22 21  1  0  0  0  0
 24 19  1  0  0  0  0
 24 20  1  0  0  0  0
 25 19  1  0  0  0  0
 26 25  1  0  0  0  0
 28 27  1  0  0  0  0
M  END
>  <MODEL>
1

>  <REMARK>
 VINA RESULT:      -8.6      0.000      0.000
  Name = 
  5 active torsions:
  status: ('A' for Active; 'I' for Inactive)
    1  A    between atoms: C_1  and  C_11
    2  A    between atoms: C_1  and  C_27
    3  A    between atoms: C_2  and  N_3
    4  A    between atoms: N_10  and  C_13
    5  A    between atoms: C_16  and  O_21
                            x       y       z     vdW  Elec       q    Type
                         _______ _______ _______ _____ _____    ______ ____

>  <TORSDO>
F 5

$$$$
=
 OpenBabel10262420583D

 28 30  0  0  1  0  0  0  0  0999 V2000
  188.8670  178.8540  139.6490 O   0  0  0  0  0  1  0  0  0  0  0  0
  186.5920  177.9580  142.3610 N   0  0  0  0  0  0  0  0  0  0  0  0
  186.2200  178.9800  140.2820 O   0  0  0  0  0  0  0  0  0  0  0  0
  189.3460  177.5190  141.5830 C   0  0  1  0  0  3  0  0  0  0  0  0
  187.5120  177.2940  143.2370 C   0  0  0  0  0  3  0  0  0  0  0  0
  188.3220  177.8830  140.4920 C   0  0  1  0  0  3  0  0  0  0  0  0
  187.0060  178.3430  141.0360 C   0  0  0  0  0  0  0  0  0  0  0  0
  188.7780  177.0350  142.9090 C   0  0  0  0  0  0  0  0  0  0  0  0
  184.1650  178.2200  142.0190 C   0  0  0  0  0  3  0  0  0  0  0  0
  185.1050  178.7100  144.1990 C   0  0  0  0  0  0  0  0  0  0  0  0
  182.7270  178.9730  143.8120 C   0  0  0  0  0  0  0  0  0  0  0  0
  185.2830  178.2880  142.8650 C   0  0  0  0  0  0  0  0  0  0  0  0
  183.8300  179.0460  144.6650 C   0  0  0  0  0  3  0  0  0  0  0  0
  186.1560  178.7700  145.0540 F   0  0  0  0  0  0  0  0  0  0  0  0
  181.4940  179.3000  144.2690 F   0  0  0  0  0  0  0  0  0  0  0  0
  182.8940  178.5590  142.4890 C   0  0  0  0  0  3  0  0  0  0  0  0
  189.6520  176.5210  144.0240 C   0  0  1  0  0  3  0  0  0  0  0  0
  190.9220  175.7860  143.6140 C   0  0  0  0  0  1  0  0  0  0  0  0
  191.0330  178.1720  145.4240 N   0  0  0  0  0  0  0  0  0  0  0  0
  191.0220  176.7070  147.0620 C   0  0  1  0  0  3  0  0  0  0  0  0
  189.6240  176.6530  146.4920 C   0  0  0  0  0  2  0  0  0  0  0  0
  189.7580  177.4690  145.2440 C   0  0  2  0  0  3  0  0  0  0  0  0
  191.4790  175.4130  147.3050 O   0  0  0  0  0  1  0  0  0  0  0  0
  191.8540  177.3310  146.1150 O   0  0  0  0  0  0  0  0  0  0  0  0
  191.6860  178.5480  144.1770 C   0  0  0  0  0  2  0  0  0  0  0  0
  191.1680  179.7600  143.7200 O   0  0  0  0  0  1  0  0  0  0  0  0
  191.4390  177.5550  140.6460 C   0  0  0  0  0  1  0  0  0  0  0  0
  190.3980  176.7180  141.0840 O   0  0  0  0  0  0  0  0  0  0  0  0
  2 12  1  0  0  0  0
  2  5  1  0  0  0  0
  3  7  2  0  0  0  0
  4 28  1  6  0  0  0
  4  8  1  0  0  0  0
  6  1  1  1  0  0  0
  6  7  1  0  0  0  0
  6  4  1  0  0  0  0
  7  2  1  0  0  0  0
  8  5  2  0  0  0  0
  8 17  1  0  0  0  0
  9 16  2  0  0  0  0
  9 12  1  0  0  0  0
 10 13  1  0  0  0  0
 10 14  1  0  0  0  0
 11 15  1  0  0  0  0
 11 13  2  0  0  0  0
 12 10  2  0  0  0  0
 16 11  1  0  0  0  0
 17 18  1  6  0  0  0
 19 24  1  0  0  0  0
 20 23  1  6  0  0  0
 21 20  1  0  0  0  0
 22 17  1  6  0  0  0
 22 19  1  0  0  0  0
 22 21  1  0  0  0  0
 24 20  1  0  0  0  0
 25 19  1  0  0  0  0
 26 25  1  0  0  0  0
 27 28  1  0  0  0  0
M  END
>  <MODEL>
2

>  <REMARK>
 VINA RESULT:      -8.3      2.732      4.160
  Name = 
  5 active torsions:
  status: ('A' for Active; 'I' for Inactive)
    1  A    between atoms: C_1  and  C_11
    2  A    between atoms: C_1  and  C_27
    3  A    between atoms: C_2  and  N_3
    4  A    between atoms: N_10  and  C_13
    5  A    between atoms: C_16  and  O_21
                            x       y       z     vdW  Elec       q    Type
                         _______ _______ _______ _____ _____    ______ ____

>  <TORSDO>
F 5

$$$$
=
 OpenBabel10262420583D

 28 30  0  0  1  0  0  0  0  0999 V2000
  188.8740  179.0110  139.5140 O   0  0  0  0  0  1  0  0  0  0  0  0
  186.6350  177.9600  142.2000 N   0  0  0  0  0  0  0  0  0  0  0  0
  186.2330  179.0830  140.1800 O   0  0  0  0  0  0  0  0  0  0  0  0
  189.3840  177.5840  141.3720 C   0  0  1  0  0  3  0  0  0  0  0  0
  187.5700  177.2600  143.0320 C   0  0  0  0  0  3  0  0  0  0  0  0
  188.3450  177.9940  140.3110 C   0  0  1  0  0  3  0  0  0  0  0  0
  187.0320  178.4150  140.8920 C   0  0  0  0  0  0  0  0  0  0  0  0
  188.8350  177.0270  142.6770 C   0  0  0  0  0  0  0  0  0  0  0  0
  184.1990  178.1920  141.9030 C   0  0  0  0  0  3  0  0  0  0  0  0
  185.1660  178.6310  144.0820 C   0  0  0  0  0  0  0  0  0  0  0  0
  182.7790  178.8670  143.7400 C   0  0  0  0  0  0  0  0  0  0  0  0
  185.3300  178.2530  142.7340 C   0  0  0  0  0  0  0  0  0  0  0  0
  183.8940  178.9320  144.5780 C   0  0  0  0  0  3  0  0  0  0  0  0
  186.2290  178.6830  144.9230 F   0  0  0  0  0  0  0  0  0  0  0  0
  181.5480  179.1600  144.2260 F   0  0  0  0  0  0  0  0  0  0  0  0
  182.9310  178.4950  142.4030 C   0  0  0  0  0  3  0  0  0  0  0  0
  189.7240  176.4650  143.7550 C   0  0  1  0  0  3  0  0  0  0  0  0
  190.6260  175.3020  143.3600 C   0  0  0  0  0  1  0  0  0  0  0  0
  191.1510  177.0270  145.8150 N   0  0  0  0  0  0  0  0  0  0  0  0
  189.3320  177.7540  146.8090 C   0  0  1  0  0  3  0  0  0  0  0  0
  189.2140  178.2510  145.3870 C   0  0  0  0  0  2  0  0  0  0  0  0
  190.3320  177.5270  144.7040 C   0  0  2  0  0  3  0  0  0  0  0  0
  188.1040  177.2490  147.2320 O   0  0  0  0  0  1  0  0  0  0  0  0
  190.2960  176.7310  146.8340 O   0  0  0  0  0  0  0  0  0  0  0  0
  191.9290  175.8370  145.4920 C   0  0  0  0  0  2  0  0  0  0  0  0
  192.3690  175.2290  146.6670 O   0  0  0  0  0  1  0  0  0  0  0  0
  191.6030  177.6020  140.7910 C   0  0  0  0  0  1  0  0  0  0  0  0
  190.4360  176.8170  140.8210 O   0  0  0  0  0  0  0  0  0  0  0  0
  2 12  1  0  0  0  0
  2  5  1  0  0  0  0
  3  7  2  0  0  0  0
  4 28  1  6  0  0  0
  4  8  1  0  0  0  0
  6  1  1  1  0  0  0
  6  7  1  0  0  0  0
  6  4  1  0  0  0  0
  7  2  1  0  0  0  0
  8  5  2  0  0  0  0
  8 17  1  0  0  0  0
  9 16  2  0  0  0  0
  9 12  1  0  0  0  0
 10 13  1  0  0  0  0
 10 14  1  0  0  0  0
 11 15  1  0  0  0  0
 11 13  2  0  0  0  0
 12 10  2  0  0  0  0
 16 11  1  0  0  0  0
 17 18  1  6  0  0  0
 19 24  1  0  0  0  0
 20 24  1  0  0  0  0
 20 23  1  6  0  0  0
 21 20  1  0  0  0  0
 22 17  1  1  0  0  0
 22 21  1  0  0  0  0
 22 19  1  0  0  0  0
 25 19  1  0  0  0  0
 25 26  1  0  0  0  0
 27 28  1  0  0  0  0
M  END
>  <MODEL>
3

>  <REMARK>
 VINA RESULT:      -8.0      2.339      4.514
  Name = 
  5 active torsions:
  status: ('A' for Active; 'I' for Inactive)
    1  A    between atoms: C_1  and  C_11
    2  A    between atoms: C_1  and  C_27
    3  A    between atoms: C_2  and  N_3
    4  A    between atoms: N_10  and  C_13
    5  A    between atoms: C_16  and  O_21
                            x       y       z     vdW  Elec       q    Type
                         _______ _______ _______ _____ _____    ______ ____

>  <TORSDO>
F 5

$$$$
=
 OpenBabel10262420583D

 28 30  0  0  1  0  0  0  0  0999 V2000
  191.4440  177.8260  145.3200 O   0  0  0  0  0  1  0  0  0  0  0  0
  189.4040  177.3320  142.3330 N   0  0  0  0  0  0  0  0  0  0  0  0
  191.7280  177.3870  142.6470 O   0  0  0  0  0  0  0  0  0  0  0  0
  189.0740  177.4740  145.2060 C   0  0  1  0  0  3  0  0  0  0  0  0
  188.1000  177.3260  142.9300 C   0  0  0  0  0  3  0  0  0  0  0  0
  190.4590  177.1060  144.6410 C   0  0  1  0  0  3  0  0  0  0  0  0
  190.5790  177.3220  143.1650 C   0  0  0  0  0  0  0  0  0  0  0  0
  187.8980  177.3500  144.2480 C   0  0  0  0  0  0  0  0  0  0  0  0
  190.4130  176.6130  140.2020 C   0  0  0  0  0  3  0  0  0  0  0  0
  188.7040  178.3310  140.1740 C   0  0  0  0  0  0  0  0  0  0  0  0
  189.7370  177.6080  138.1040 C   0  0  0  0  0  0  0  0  0  0  0  0
  189.4990  177.4200  140.8980 C   0  0  0  0  0  0  0  0  0  0  0  0
  188.8240  178.4180  138.7830 C   0  0  0  0  0  3  0  0  0  0  0  0
  187.7940  179.1150  140.8060 F   0  0  0  0  0  0  0  0  0  0  0  0
  189.8500  177.6970  136.7570 F   0  0  0  0  0  0  0  0  0  0  0  0
  190.5300  176.7040  138.8140 C   0  0  0  0  0  3  0  0  0  0  0  0
  186.4720  177.5490  144.6890 C   0  0  1  0  0  3  0  0  0  0  0  0
  186.0060  176.7300  145.8860 C   0  0  0  0  0  1  0  0  0  0  0  0
  185.2710  179.5350  145.7880 N   0  0  0  0  0  0  0  0  0  0  0  0
  183.6760  179.3290  144.2910 C   0  0  1  0  0  3  0  0  0  0  0  0
  184.9550  179.1110  143.5170 C   0  0  0  0  0  2  0  0  0  0  0  0
  185.9740  179.0140  144.6100 C   0  0  2  0  0  3  0  0  0  0  0  0
  182.7280  178.3840  143.9030 O   0  0  0  0  0  1  0  0  0  0  0  0
  183.9630  179.1750  145.6590 O   0  0  0  0  0  0  0  0  0  0  0  0
  185.7770  179.0260  147.0570 C   0  0  0  0  0  2  0  0  0  0  0  0
  186.0780  180.0910  147.9050 O   0  0  0  0  0  1  0  0  0  0  0  0
  189.1030  177.8530  147.4680 C   0  0  0  0  0  1  0  0  0  0  0  0
  188.8430  176.8930  146.4740 O   0  0  0  0  0  0  0  0  0  0  0  0
  2  5  1  0  0  0  0
  2  7  1  0  0  0  0
  3  7  2  0  0  0  0
  4 28  1  1  0  0  0
  5  8  2  0  0  0  0
  6  4  1  0  0  0  0
  6  1  1  1  0  0  0
  7  6  1  0  0  0  0
  8 17  1  0  0  0  0
  8  4  1  0  0  0  0
  9 12  1  0  0  0  0
 10 14  1  0  0  0  0
 10 12  2  0  0  0  0
 11 13  2  0  0  0  0
 11 16  1  0  0  0  0
 12  2  1  0  0  0  0
 13 10  1  0  0  0  0
 15 11  1  0  0  0  0
 16  9  2  0  0  0  0
 17 18  1  1  0  0  0
 19 25  1  0  0  0  0
 20 23  1  6  0  0  0
 20 24  1  0  0  0  0
 21 20  1  0  0  0  0
 21 22  1  0  0  0  0
 22 17  1  1  0  0  0
 22 19  1  0  0  0  0
 24 19  1  0  0  0  0
 25 26  1  0  0  0  0
 28 27  1  0  0  0  0
M  END
>  <MODEL>
4

>  <REMARK>
 VINA RESULT:      -7.6      2.202      6.113
  Name = 
  5 active torsions:
  status: ('A' for Active; 'I' for Inactive)
    1  A    between atoms: C_1  and  C_11
    2  A    between atoms: C_1  and  C_27
    3  A    between atoms: C_2  and  N_3
    4  A    between atoms: N_10  and  C_13
    5  A    between atoms: C_16  and  O_21
                            x       y       z     vdW  Elec       q    Type
                         _______ _______ _______ _____ _____    ______ ____

>  <TORSDO>
F 5

$$$$
=
 OpenBabel10262420583D

 28 30  0  0  1  0  0  0  0  0999 V2000
  187.3920  178.5710  138.3980 O   0  0  0  0  0  1  0  0  0  0  0  0
  190.4910  176.7940  139.1520 N   0  0  0  0  0  0  0  0  0  0  0  0
  189.6320  177.6570  137.1460 O   0  0  0  0  0  0  0  0  0  0  0  0
  188.2830  178.0330  140.5580 C   0  0  1  0  0  3  0  0  0  0  0  0
  190.3640  176.6830  140.5750 C   0  0  0  0  0  3  0  0  0  0  0  0
  188.5860  178.4860  139.1170 C   0  0  1  0  0  3  0  0  0  0  0  0
  189.5620  177.6020  138.4050 C   0  0  0  0  0  0  0  0  0  0  0  0
  189.3880  177.2680  141.2720 C   0  0  0  0  0  0  0  0  0  0  0  0
  191.1760  174.8830  137.7540 C   0  0  0  0  0  3  0  0  0  0  0  0
  192.8760  176.3880  138.6040 C   0  0  0  0  0  0  0  0  0  0  0  0
  193.5050  174.4840  137.2420 C   0  0  0  0  0  0  0  0  0  0  0  0
  191.5180  176.0260  138.4940 C   0  0  0  0  0  0  0  0  0  0  0  0
  193.8600  175.6190  137.9750 C   0  0  0  0  0  3  0  0  0  0  0  0
  193.2460  177.4960  139.2920 F   0  0  0  0  0  0  0  0  0  0  0  0
  194.4640  173.7420  136.6370 F   0  0  0  0  0  0  0  0  0  0  0  0
  192.1630  174.1170  137.1310 C   0  0  0  0  0  3  0  0  0  0  0  0
  189.2920  176.8730  142.7220 C   0  0  1  0  0  3  0  0  0  0  0  0
  190.3160  175.8640  143.2260 C   0  0  0  0  0  1  0  0  0  0  0  0
  190.0450  178.7050  144.3570 N   0  0  0  0  0  0  0  0  0  0  0  0
  189.0620  177.5880  145.9750 C   0  0  1  0  0  3  0  0  0  0  0  0
  188.1100  177.4840  144.8060 C   0  0  0  0  0  2  0  0  0  0  0  0
  188.9280  178.0350  143.6800 C   0  0  2  0  0  3  0  0  0  0  0  0
  189.1730  176.3480  146.6010 O   0  0  0  0  0  1  0  0  0  0  0  0
  190.3180  177.9800  145.4790 O   0  0  0  0  0  0  0  0  0  0  0  0
  191.2560  178.8030  143.5530 C   0  0  0  0  0  2  0  0  0  0  0  0
  192.2820  179.3650  144.3120 O   0  0  0  0  0  1  0  0  0  0  0  0
  186.3410  178.7960  141.5080 C   0  0  0  0  0  1  0  0  0  0  0  0
  187.7100  179.0660  141.3330 O   0  0  0  0  0  0  0  0  0  0  0  0
  2  5  1  0  0  0  0
  3  7  2  0  0  0  0
  4  8  1  0  0  0  0
  4 28  1  1  0  0  0
  5  8  2  0  0  0  0
  6  1  1  6  0  0  0
  6  4  1  0  0  0  0
  7  6  1  0  0  0  0
  7  2  1  0  0  0  0
  8 17  1  0  0  0  0
  9 12  1  0  0  0  0
 10 14  1  0  0  0  0
 11 13  2  0  0  0  0
 12 10  2  0  0  0  0
 12  2  1  0  0  0  0
 13 10  1  0  0  0  0
 15 11  1  0  0  0  0
 16 11  1  0  0  0  0
 16  9  2  0  0  0  0
 17 18  1  1  0  0  0
 19 24  1  0  0  0  0
 20 23  1  6  0  0  0
 21 20  1  0  0  0  0
 22 17  1  6  0  0  0
 22 19  1  0  0  0  0
 22 21  1  0  0  0  0
 24 20  1  0  0  0  0
 25 26  1  0  0  0  0
 25 19  1  0  0  0  0
 28 27  1  0  0  0  0
M  END
>  <MODEL>
5

>  <REMARK>
 VINA RESULT:      -7.6      4.254      7.349
  Name = 
  5 active torsions:
  status: ('A' for Active; 'I' for Inactive)
    1  A    between atoms: C_1  and  C_11
    2  A    between atoms: C_1  and  C_27
    3  A    between atoms: C_2  and  N_3
    4  A    between atoms: N_10  and  C_13
    5  A    between atoms: C_16  and  O_21
                            x       y       z     vdW  Elec       q    Type
                         _______ _______ _______ _____ _____    ______ ____

>  <TORSDO>
F 5

$$$$
=
 OpenBabel10262420583D

 28 30  0  0  1  0  0  0  0  0999 V2000
  184.4530  178.8250  141.8060 O   0  0  0  0  0  1  0  0  0  0  0  0
  187.5400  178.0360  140.0220 N   0  0  0  0  0  0  0  0  0  0  0  0
  185.5020  178.9430  139.2950 O   0  0  0  0  0  0  0  0  0  0  0  0
  186.5690  178.1990  142.7460 C   0  0  1  0  0  3  0  0  0  0  0  0
  188.3550  177.6170  141.1250 C   0  0  0  0  0  3  0  0  0  0  0  0
  185.8310  178.9940  141.6520 C   0  0  1  0  0  3  0  0  0  0  0  0
  186.2490  178.6280  140.2620 C   0  0  0  0  0  0  0  0  0  0  0  0
  187.9670  177.7090  142.3990 C   0  0  0  0  0  0  0  0  0  0  0  0
  187.5530  176.6630  137.9750 C   0  0  0  0  0  3  0  0  0  0  0  0
  188.9650  178.6300  138.0820 C   0  0  0  0  0  0  0  0  0  0  0  0
  188.9620  177.2400  136.0970 C   0  0  0  0  0  0  0  0  0  0  0  0
  188.0140  177.7820  138.6860 C   0  0  0  0  0  0  0  0  0  0  0  0
  189.4300  178.3570  136.7920 C   0  0  0  0  0  3  0  0  0  0  0  0
  189.4210  179.7320  138.7260 F   0  0  0  0  0  0  0  0  0  0  0  0
  189.4170  176.9800  134.8470 F   0  0  0  0  0  0  0  0  0  0  0  0
  188.0220  176.3940  136.6880 C   0  0  0  0  0  3  0  0  0  0  0  0
  188.8610  177.0330  143.4050 C   0  0  1  0  0  3  0  0  0  0  0  0
  189.3680  175.6430  143.0440 C   0  0  0  0  0  1  0  0  0  0  0  0
  191.2780  177.5910  144.0680 N   0  0  0  0  0  0  0  0  0  0  0  0
  190.7210  177.2620  146.1680 C   0  0  1  0  0  3  0  0  0  0  0  0
  189.5460  178.0040  145.5740 C   0  0  0  0  0  2  0  0  0  0  0  0
  189.8630  177.9800  144.1110 C   0  0  2  0  0  3  0  0  0  0  0  0
  190.2580  176.2210  146.9720 O   0  0  0  0  0  1  0  0  0  0  0  0
  191.4850  176.7370  145.1100 O   0  0  0  0  0  0  0  0  0  0  0  0
  191.6770  176.9310  142.8320 C   0  0  0  0  0  2  0  0  0  0  0  0
  191.8230  177.8780  141.8180 O   0  0  0  0  0  1  0  0  0  0  0  0
  185.7660  177.9780  144.8830 C   0  0  0  0  0  1  0  0  0  0  0  0
  186.4780  178.8210  144.0110 O   0  0  0  0  0  0  0  0  0  0  0  0
  2  7  1  0  0  0  0
  2  5  1  0  0  0  0
  3  7  2  0  0  0  0
  4 28  1  1  0  0  0
  5  8  2  0  0  0  0
  6  1  1  6  0  0  0
  6  4  1  0  0  0  0
  7  6  1  0  0  0  0
  8  4  1  0  0  0  0
  8 17  1  0  0  0  0
  9 12  1  0  0  0  0
 10 12  2  0  0  0  0
 10 14  1  0  0  0  0
 11 16  1  0  0  0  0
 11 13  2  0  0  0  0
 12  2  1  0  0  0  0
 13 10  1  0  0  0  0
 15 11  1  0  0  0  0
 16  9  2  0  0  0  0
 17 18  1  6  0  0  0
 19 22  1  0  0  0  0
 19 24  1  0  0  0  0
 20 23  1  1  0  0  0
 21 20  1  0  0  0  0
 22 17  1  6  0  0  0
 22 21  1  0  0  0  0
 24 20  1  0  0  0  0
 25 19  1  0  0  0  0
 26 25  1  0  0  0  0
 28 27  1  0  0  0  0
M  END
>  <MODEL>
6

>  <REMARK>
 VINA RESULT:      -7.5      3.321      4.583
  Name = 
  5 active torsions:
  status: ('A' for Active; 'I' for Inactive)
    1  A    between atoms: C_1  and  C_11
    2  A    between atoms: C_1  and  C_27
    3  A    between atoms: C_2  and  N_3
    4  A    between atoms: N_10  and  C_13
    5  A    between atoms: C_16  and  O_21
                            x       y       z     vdW  Elec       q    Type
                         _______ _______ _______ _____ _____    ______ ____

>  <TORSDO>
F 5

$$$$
=
 OpenBabel10262420583D

 28 30  0  0  1  0  0  0  0  0999 V2000
  188.7800  176.2530  147.9160 O   0  0  0  0  0  1  0  0  0  0  0  0
  187.4540  178.0950  145.0560 N   0  0  0  0  0  0  0  0  0  0  0  0
  186.4180  177.2330  146.9770 O   0  0  0  0  0  0  0  0  0  0  0  0
  190.0170  177.3510  146.1800 C   0  0  1  0  0  3  0  0  0  0  0  0
  188.6760  178.3620  144.3550 C   0  0  0  0  0  3  0  0  0  0  0  0
  188.7890  177.3930  147.1100 C   0  0  1  0  0  3  0  0  0  0  0  0
  187.4900  177.5250  146.3780 C   0  0  0  0  0  0  0  0  0  0  0  0
  189.8810  178.0740  144.8480 C   0  0  0  0  0  0  0  0  0  0  0  0
  185.9470  177.7360  143.1380 C   0  0  0  0  0  3  0  0  0  0  0  0
  185.2450  179.2140  144.9260 C   0  0  0  0  0  0  0  0  0  0  0  0
  183.8040  178.8480  143.0120 C   0  0  0  0  0  0  0  0  0  0  0  0
  186.2070  178.3430  144.3780 C   0  0  0  0  0  0  0  0  0  0  0  0
  184.0490  179.4590  144.2430 C   0  0  0  0  0  3  0  0  0  0  0  0
  185.4480  179.8050  146.1300 F   0  0  0  0  0  0  0  0  0  0  0  0
  182.6440  179.0900  142.3550 F   0  0  0  0  0  0  0  0  0  0  0  0
  184.7530  177.9850  142.4600 C   0  0  0  0  0  3  0  0  0  0  0  0
  191.0340  178.2310  143.8920 C   0  0  1  0  0  3  0  0  0  0  0  0
  192.0560  179.3120  144.2250 C   0  0  0  0  0  1  0  0  0  0  0  0
  191.4420  176.6820  141.8850 N   0  0  0  0  0  0  0  0  0  0  0  0
  190.0140  175.2610  142.7610 C   0  0  1  0  0  3  0  0  0  0  0  0
  190.8170  175.7690  143.9370 C   0  0  0  0  0  2  0  0  0  0  0  0
  191.5880  176.8990  143.3290 C   0  0  2  0  0  3  0  0  0  0  0  0
  188.6630  175.2170  143.1010 O   0  0  0  0  0  1  0  0  0  0  0  0
  190.2030  176.1500  141.6890 O   0  0  0  0  0  0  0  0  0  0  0  0
  191.5660  177.8950  141.0860 C   0  0  0  0  0  2  0  0  0  0  0  0
  190.7210  177.8180  139.9780 O   0  0  0  0  0  1  0  0  0  0  0  0
  191.8410  176.4280  147.2190 C   0  0  0  0  0  1  0  0  0  0  0  0
  191.2180  177.6380  146.8670 O   0  0  0  0  0  0  0  0  0  0  0  0
  2  7  1  0  0  0  0
  4 28  1  1  0  0  0
  4  6  1  0  0  0  0
  5  8  2  0  0  0  0
  5  2  1  0  0  0  0
  6  1  1  6  0  0  0
  7  3  2  0  0  0  0
  7  6  1  0  0  0  0
  8  4  1  0  0  0  0
  9 12  1  0  0  0  0
 10 14  1  0  0  0  0
 11 13  2  0  0  0  0
 12 10  2  0  0  0  0
 12  2  1  0  0  0  0
 13 10  1  0  0  0  0
 15 11  1  0  0  0  0
 16 11  1  0  0  0  0
 16  9  2  0  0  0  0
 17 18  1  1  0  0  0
 17  8  1  0  0  0  0
 19 22  1  0  0  0  0
 20 23  1  1  0  0  0
 20 21  1  0  0  0  0
 22 17  1  6  0  0  0
 22 21  1  0  0  0  0
 24 19  1  0  0  0  0
 24 20  1  0  0  0  0
 25 19  1  0  0  0  0
 26 25  1  0  0  0  0
 28 27  1  0  0  0  0
M  END
>  <MODEL>
7

>  <REMARK>
 VINA RESULT:      -7.3      2.067      3.275
  Name = 
  5 active torsions:
  status: ('A' for Active; 'I' for Inactive)
    1  A    between atoms: C_1  and  C_11
    2  A    between atoms: C_1  and  C_27
    3  A    between atoms: C_2  and  N_3
    4  A    between atoms: N_10  and  C_13
    5  A    between atoms: C_16  and  O_21
                            x       y       z     vdW  Elec       q    Type
                         _______ _______ _______ _____ _____    ______ ____

>  <TORSDO>
F 5

$$$$
=
 OpenBabel10262420583D

 28 30  0  0  1  0  0  0  0  0999 V2000
  185.5130  179.7600  147.2670 O   0  0  0  0  0  1  0  0  0  0  0  0
  188.0280  177.5170  145.8630 N   0  0  0  0  0  0  0  0  0  0  0  0
  187.7070  178.3410  148.0360 O   0  0  0  0  0  0  0  0  0  0  0  0
  185.5240  178.7510  145.0920 C   0  0  1  0  0  3  0  0  0  0  0  0
  187.5260  177.4010  144.5250 C   0  0  0  0  0  3  0  0  0  0  0  0
  185.8300  178.5800  146.5920 C   0  0  1  0  0  3  0  0  0  0  0  0
  187.2460  178.1830  146.8730 C   0  0  0  0  0  0  0  0  0  0  0  0
  186.3610  177.9180  144.1320 C   0  0  0  0  0  0  0  0  0  0  0  0
  189.6150  176.3690  147.3600 C   0  0  0  0  0  3  0  0  0  0  0  0
  190.4030  177.1990  145.2230 C   0  0  0  0  0  0  0  0  0  0  0  0
  191.9330  176.0820  146.7340 C   0  0  0  0  0  0  0  0  0  0  0  0
  189.3510  177.0190  146.1430 C   0  0  0  0  0  0  0  0  0  0  0  0
  191.6850  176.7270  145.5210 C   0  0  0  0  0  3  0  0  0  0  0  0
  190.1850  177.8040  144.0290 F   0  0  0  0  0  0  0  0  0  0  0  0
  193.1780  175.6280  147.0180 F   0  0  0  0  0  0  0  0  0  0  0  0
  190.8970  175.9020  147.6530 C   0  0  0  0  0  3  0  0  0  0  0  0
  186.0930  177.8790  142.6510 C   0  0  1  0  0  3  0  0  0  0  0  0
  184.6800  177.5040  142.2210 C   0  0  0  0  0  1  0  0  0  0  0  0
  186.3200  179.2150  140.4700 N   0  0  0  0  0  0  0  0  0  0  0  0
  188.3050  178.3170  140.1900 C   0  0  1  0  0  3  0  0  0  0  0  0
  188.2330  178.6290  141.6660 C   0  0  0  0  0  2  0  0  0  0  0  0
  186.7930  178.9990  141.8420 C   0  0  2  0  0  3  0  0  0  0  0  0
  188.8590  177.0510  140.0060 O   0  0  0  0  0  1  0  0  0  0  0  0
  186.9970  178.3390  139.6760 O   0  0  0  0  0  0  0  0  0  0  0  0
  184.8890  179.0030  140.2930 C   0  0  0  0  0  2  0  0  0  0  0  0
  184.3630  179.9980  139.4690 O   0  0  0  0  0  1  0  0  0  0  0  0
  183.7350  179.9750  144.3440 C   0  0  0  0  0  1  0  0  0  0  0  0
  184.1380  178.7160  144.8220 O   0  0  0  0  0  0  0  0  0  0  0  0
  2 12  1  0  0  0  0
  2  7  1  0  0  0  0
  4 28  1  1  0  0  0
  4  6  1  0  0  0  0
  5  2  1  0  0  0  0
  6  7  1  0  0  0  0
  6  1  1  1  0  0  0
  7  3  2  0  0  0  0
  8  5  2  0  0  0  0
  8  4  1  0  0  0  0
  9 16  1  0  0  0  0
 10 13  2  0  0  0  0
 10 12  1  0  0  0  0
 11 15  1  0  0  0  0
 11 16  2  0  0  0  0
 12  9  2  0  0  0  0
 13 11  1  0  0  0  0
 14 10  1  0  0  0  0
 17 18  1  1  0  0  0
 17  8  1  0  0  0  0
 19 22  1  0  0  0  0
 20 23  1  1  0  0  0
 20 21  1  0  0  0  0
 21 22  1  0  0  0  0
 22 17  1  6  0  0  0
 24 20  1  0  0  0  0
 24 19  1  0  0  0  0
 25 19  1  0  0  0  0
 26 25  1  0  0  0  0
 27 28  1  0  0  0  0
M  END
>  <MODEL>
8

>  <REMARK>
 VINA RESULT:      -7.3      2.921      6.258
  Name = 
  5 active torsions:
  status: ('A' for Active; 'I' for Inactive)
    1  A    between atoms: C_1  and  C_11
    2  A    between atoms: C_1  and  C_27
    3  A    between atoms: C_2  and  N_3
    4  A    between atoms: N_10  and  C_13
    5  A    between atoms: C_16  and  O_21
                            x       y       z     vdW  Elec       q    Type
                         _______ _______ _______ _____ _____    ______ ____

>  <TORSDO>
F 5

$$$$
=
 OpenBabel10262420583D

 28 30  0  0  1  0  0  0  0  0999 V2000
  188.4240  179.4640  137.5410 O   0  0  0  0  0  1  0  0  0  0  0  0
  189.7000  177.2450  140.1440 N   0  0  0  0  0  0  0  0  0  0  0  0
  188.0930  178.9540  140.1970 O   0  0  0  0  0  0  0  0  0  0  0  0
  189.8370  177.5470  137.2680 C   0  0  1  0  0  3  0  0  0  0  0  0
  190.5670  176.4210  139.3540 C   0  0  0  0  0  3  0  0  0  0  0  0
  188.6450  178.1710  138.0180 C   0  0  1  0  0  3  0  0  0  0  0  0
  188.8150  178.1840  139.5050 C   0  0  0  0  0  0  0  0  0  0  0  0
  190.6360  176.4950  138.0240 C   0  0  0  0  0  0  0  0  0  0  0  0
  188.6810  176.7530  142.3340 C   0  0  0  0  0  3  0  0  0  0  0  0
  190.9860  177.5000  142.2500 C   0  0  0  0  0  0  0  0  0  0  0  0
  189.9370  177.0250  144.3830 C   0  0  0  0  0  0  0  0  0  0  0  0
  189.7940  177.1570  141.5790 C   0  0  0  0  0  0  0  0  0  0  0  0
  191.0520  177.4290  143.6450 C   0  0  0  0  0  3  0  0  0  0  0  0
  192.0890  177.8760  141.5570 F   0  0  0  0  0  0  0  0  0  0  0  0
  190.0060  176.9580  145.7340 F   0  0  0  0  0  0  0  0  0  0  0  0
  188.7520  176.6860  143.7270 C   0  0  0  0  0  3  0  0  0  0  0  0
  191.7450  175.7050  137.3800 C   0  0  1  0  0  3  0  0  0  0  0  0
  193.1640  176.2160  137.5980 C   0  0  0  0  0  1  0  0  0  0  0  0
  192.3380  173.3780  136.4690 N   0  0  0  0  0  0  0  0  0  0  0  0
  190.2960  173.2300  135.6740 C   0  0  1  0  0  3  0  0  0  0  0  0
  190.1300  173.8660  137.0340 C   0  0  0  0  0  2  0  0  0  0  0  0
  191.5440  174.1700  137.4170 C   0  0  2  0  0  3  0  0  0  0  0  0
  189.4880  173.8870  134.7470 O   0  0  0  0  0  1  0  0  0  0  0  0
  191.6450  173.3540  135.2970 O   0  0  0  0  0  0  0  0  0  0  0  0
  193.6710  173.9130  136.2180 C   0  0  0  0  0  2  0  0  0  0  0  0
  193.8310  174.1570  134.8540 O   0  0  0  0  0  1  0  0  0  0  0  0
  188.1620  176.7370  135.9260 C   0  0  0  0  0  1  0  0  0  0  0  0
  189.5000  177.1700  135.9480 O   0  0  0  0  0  0  0  0  0  0  0  0
  2 12  1  0  0  0  0
  4 28  1  6  0  0  0
  4  6  1  0  0  0  0
  4  8  1  0  0  0  0
  5  2  1  0  0  0  0
  6  1  1  6  0  0  0
  6  7  1  0  0  0  0
  7  2  1  0  0  0  0
  7  3  2  0  0  0  0
  8  5  2  0  0  0  0
  9 16  1  0  0  0  0
 10 13  2  0  0  0  0
 11 15  1  0  0  0  0
 12 10  1  0  0  0  0
 12  9  2  0  0  0  0
 13 11  1  0  0  0  0
 14 10  1  0  0  0  0
 16 11  2  0  0  0  0
 17 18  1  1  0  0  0
 17  8  1  0  0  0  0
 19 22  1  0  0  0  0
 20 23  1  6  0  0  0
 20 21  1  0  0  0  0
 21 22  1  0  0  0  0
 22 17  1  6  0  0  0
 24 20  1  0  0  0  0
 24 19  1  0  0  0  0
 25 19  1  0  0  0  0
 26 25  1  0  0  0  0
 27 28  1  0  0  0  0
M  END
>  <MODEL>
9

>  <REMARK>
 VINA RESULT:      -7.2      5.160      8.245
  Name = 
  5 active torsions:
  status: ('A' for Active; 'I' for Inactive)
    1  A    between atoms: C_1  and  C_11
    2  A    between atoms: C_1  and  C_27
    3  A    between atoms: C_2  and  N_3
    4  A    between atoms: N_10  and  C_13
    5  A    between atoms: C_16  and  O_21
                            x       y       z     vdW  Elec       q    Type
                         _______ _______ _______ _____ _____    ______ ____

>  <TORSDO>
F 5

$$$$
