=
 OpenBabel10262421103D

 32 36  0  0  1  0  0  0  0  0999 V2000
  186.3640  178.5760  140.3050 C   0  0  0  0  0  0  0  0  0  0  0  0
  188.8230  178.0900  140.2040 C   0  0  2  0  0  3  0  0  0  0  0  0
  185.2940  178.9130  139.6420 N   0  0  0  0  0  0  0  0  0  0  0  0
  187.4370  177.7430  139.6560 C   0  0  2  0  0  3  0  0  0  0  0  0
  189.7310  177.0910  139.8260 O   0  0  0  0  0  0  0  0  0  0  0  0
  188.8440  178.4270  141.7230 C   0  0  1  0  0  3  0  0  0  0  0  0
  189.6010  177.0800  137.3750 C   0  0  2  0  0  3  0  0  0  0  0  0
  187.4710  177.9060  138.1340 C   0  0  1  0  0  3  0  0  0  0  0  0
  188.1780  176.7670  137.5580 N   0  0  0  0  0  2  0  0  0  0  0  0
  186.0930  178.0200  137.5480 C   0  0  0  0  0  3  0  0  0  0  0  0
  187.5740  178.0830  142.3700 N   0  0  0  0  0  2  0  0  0  0  0  0
  190.3160  175.8530  136.8500 C   0  0  0  0  0  1  0  0  0  0  0  0
  186.5010  178.8890  141.7750 C   0  0  2  0  0  3  0  0  0  0  0  0
  190.3150  177.5820  138.6470 C   0  0  0  0  0  2  0  0  0  0  0  0
  185.0990  178.5460  138.2680 C   0  0  0  0  0  3  0  0  0  0  0  0
  184.3950  178.7250  144.8890 C   0  0  0  0  0  0  0  0  0  0  0  0
  181.0110  178.5880  144.0050 O   0  0  0  0  0  1  0  0  0  0  0  0
  184.5430  178.3740  146.1930 F   0  0  0  0  0  0  0  0  0  0  0  0
  182.6980  178.5080  142.3740 C   0  0  0  0  0  3  0  0  0  0  0  0
  185.2160  178.6820  142.5320 C   0  0  0  0  0  0  0  0  0  0  0  0
  183.2270  179.5800  144.5310 C   0  0  0  0  0  2  0  0  0  0  0  0
  184.0610  178.6930  141.8390 C   0  0  0  0  0  3  0  0  0  0  0  0
  185.3100  178.3490  143.9820 C   0  0  0  0  0  0  0  0  0  0  0  0
  186.5030  177.5800  144.4520 C   0  0  0  0  0  1  0  0  0  0  0  0
  182.3120  178.8600  143.6000 C   0  0  0  0  0  0  0  0  0  0  0  0
  191.5350  175.8760  144.7360 C   0  0  0  0  0  2  0  0  0  0  0  0
  191.7660  178.3710  144.2680 C   0  0  0  0  0  2  0  0  0  0  0  0
  190.4770  178.8110  143.5860 C   0  0  0  0  0  2  0  0  0  0  0  0
  190.0400  177.8400  142.4870 C   0  0  0  0  0  3  0  0  0  0  0  0
  189.6880  176.4780  143.0850 C   0  0  0  0  0  2  0  0  0  0  0  0
  191.4530  177.2980  145.3000 C   0  0  0  0  0  2  0  0  0  0  0  0
  190.9660  175.6870  143.3270 C   0  0  0  0  0  2  0  0  0  0  0  0
  1 13  1  0  0  0  0
  2  5  1  1  0  0  0
  2  6  1  0  0  0  0
  3  1  2  0  0  0  0
  4  2  1  0  0  0  0
  4  1  1  1  0  0  0
  6 11  1  0  0  0  0
  6 29  1  1  0  0  0
  7 12  1  1  0  0  0
  7  9  1  0  0  0  0
  7 14  1  0  0  0  0
  8 10  1  6  0  0  0
  8  4  1  0  0  0  0
  9  8  1  0  0  0  0
 10 15  2  0  0  0  0
 13 11  1  0  0  0  0
 13 20  1  1  0  0  0
 14  5  1  0  0  0  0
 15  3  1  0  0  0  0
 16 18  1  0  0  0  0
 19 25  2  0  0  0  0
 20 23  1  0  0  0  0
 21 16  1  0  0  0  0
 22 19  1  0  0  0  0
 22 20  2  0  0  0  0
 23 24  1  0  0  0  0
 23 16  2  0  0  0  0
 25 17  1  0  0  0  0
 25 21  1  0  0  0  0
 26 31  1  0  0  0  0
 27 31  1  0  0  0  0
 28 27  1  0  0  0  0
 29 30  1  0  0  0  0
 29 28  1  0  0  0  0
 30 32  1  0  0  0  0
 32 26  1  0  0  0  0
M  END
>  <MODEL>
1

>  <REMARK>
 VINA RESULT:     -10.7      0.000      0.000
  Name = 
  2 active torsions:
  status: ('A' for Active; 'I' for Inactive)
    1  A    between atoms: C_10  and  C_17
    2  A    between atoms: C_16  and  C_27
                            x       y       z     vdW  Elec       q    Type
                         _______ _______ _______ _____ _____    ______ ____

>  <TORSDO>
F 2

$$$$
=
 OpenBabel10262421103D

 32 36  0  0  1  0  0  0  0  0999 V2000
  187.8540  178.1170  139.9640 C   0  0  0  0  0  0  0  0  0  0  0  0
  188.4830  177.4490  137.6290 C   0  0  2  0  0  3  0  0  0  0  0  0
  187.0190  178.7710  140.7200 N   0  0  0  0  0  0  0  0  0  0  0  0
  187.3840  177.4580  138.6950 C   0  0  2  0  0  3  0  0  0  0  0  0
  188.1260  176.5570  136.6070 O   0  0  0  0  0  0  0  0  0  0  0  0
  189.9170  177.2310  138.1920 C   0  0  1  0  0  3  0  0  0  0  0  0
  185.9690  177.4160  135.8100 C   0  0  2  0  0  3  0  0  0  0  0  0
  186.1480  178.1370  138.1000 C   0  0  1  0  0  3  0  0  0  0  0  0
  185.4980  177.2050  137.1850 N   0  0  0  0  0  2  0  0  0  0  0  0
  185.1870  178.5880  139.1610 C   0  0  0  0  0  3  0  0  0  0  0  0
  189.8890  176.8150  139.5970 N   0  0  0  0  0  2  0  0  0  0  0  0
  185.3330  176.3820  134.9030 C   0  0  0  0  0  1  0  0  0  0  0  0
  189.2800  177.8820  140.4000 C   0  0  2  0  0  3  0  0  0  0  0  0
  187.5020  177.3670  135.6450 C   0  0  0  0  0  2  0  0  0  0  0  0
  185.6340  178.9280  140.3720 C   0  0  0  0  0  3  0  0  0  0  0  0
  190.8540  178.1110  143.8090 C   0  0  0  0  0  0  0  0  0  0  0  0
  188.7120  176.6890  146.1830 O   0  0  0  0  0  1  0  0  0  0  0  0
  192.0940  178.2610  144.3430 F   0  0  0  0  0  0  0  0  0  0  0  0
  188.2190  176.5950  143.8900 C   0  0  0  0  0  3  0  0  0  0  0  0
  189.3900  177.5560  141.8650 C   0  0  0  0  0  0  0  0  0  0  0  0
  189.6840  178.4130  144.6830 C   0  0  0  0  0  2  0  0  0  0  0  0
  188.3270  176.9950  142.4740 C   0  0  0  0  0  3  0  0  0  0  0  0
  190.7130  177.7540  142.5230 C   0  0  0  0  0  0  0  0  0  0  0  0
  191.9450  177.5730  141.6960 C   0  0  0  0  0  1  0  0  0  0  0  0
  188.8560  177.1910  144.8970 C   0  0  0  0  0  0  0  0  0  0  0  0
  192.2580  173.4000  136.5570 C   0  0  0  0  0  2  0  0  0  0  0  0
  193.2030  175.7590  136.7570 C   0  0  0  0  0  2  0  0  0  0  0  0
  192.2700  176.5290  137.6820 C   0  0  0  0  0  2  0  0  0  0  0  0
  190.7950  176.2960  137.3470 C   0  0  0  0  0  3  0  0  0  0  0  0
  190.4160  174.8340  137.5820 C   0  0  0  0  0  2  0  0  0  0  0  0
  193.2950  174.3120  137.2180 C   0  0  0  0  0  2  0  0  0  0  0  0
  190.8580  173.9990  136.3890 C   0  0  0  0  0  2  0  0  0  0  0  0
  1 13  1  0  0  0  0
  1  3  2  0  0  0  0
  2  5  1  6  0  0  0
  2  6  1  0  0  0  0
  2  4  1  0  0  0  0
  4  1  1  1  0  0  0
  6 29  1  6  0  0  0
  6 11  1  0  0  0  0
  7 12  1  6  0  0  0
  7  9  1  0  0  0  0
  8  4  1  0  0  0  0
  8 10  1  1  0  0  0
  9  8  1  0  0  0  0
 10 15  2  0  0  0  0
 11 13  1  0  0  0  0
 13 20  1  1  0  0  0
 14  7  1  0  0  0  0
 14  5  1  0  0  0  0
 15  3  1  0  0  0  0
 16 18  1  0  0  0  0
 16 21  1  0  0  0  0
 19 25  2  0  0  0  0
 20 22  2  0  0  0  0
 20 23  1  0  0  0  0
 21 25  1  0  0  0  0
 22 19  1  0  0  0  0
 23 16  2  0  0  0  0
 24 23  1  0  0  0  0
 25 17  1  0  0  0  0
 26 31  1  0  0  0  0
 27 31  1  0  0  0  0
 27 28  1  0  0  0  0
 29 30  1  0  0  0  0
 29 28  1  0  0  0  0
 32 26  1  0  0  0  0
 32 30  1  0  0  0  0
M  END
>  <MODEL>
2

>  <REMARK>
 VINA RESULT:      -9.9      2.997      5.389
  Name = 
  2 active torsions:
  status: ('A' for Active; 'I' for Inactive)
    1  A    between atoms: C_10  and  C_17
    2  A    between atoms: C_16  and  C_27
                            x       y       z     vdW  Elec       q    Type
                         _______ _______ _______ _____ _____    ______ ____

>  <TORSDO>
F 2

$$$$
=
 OpenBabel10262421103D

 32 36  0  0  1  0  0  0  0  0999 V2000
  189.0470  177.0570  142.2630 C   0  0  0  0  0  0  0  0  0  0  0  0
  187.0410  177.7830  140.9450 C   0  0  2  0  0  3  0  0  0  0  0  0
  190.2300  176.5120  142.2310 N   0  0  0  0  0  0  0  0  0  0  0  0
  188.5580  177.8940  141.1110 C   0  0  2  0  0  3  0  0  0  0  0  0
  186.5940  178.8060  140.0960 O   0  0  0  0  0  0  0  0  0  0  0  0
  186.2560  177.6810  142.2850 C   0  0  1  0  0  3  0  0  0  0  0  0
  187.8560  178.4360  138.0230 C   0  0  2  0  0  3  0  0  0  0  0  0
  189.2130  177.5090  139.7820 C   0  0  1  0  0  3  0  0  0  0  0  0
  189.0570  178.6190  138.8470 N   0  0  0  0  0  2  0  0  0  0  0  0
  190.6640  177.1630  139.9490 C   0  0  0  0  0  3  0  0  0  0  0  0
  187.1130  177.9790  143.4360 N   0  0  0  0  0  2  0  0  0  0  0  0
  187.6850  179.6410  137.1210 C   0  0  0  0  0  1  0  0  0  0  0  0
  188.1890  176.9840  143.5020 C   0  0  2  0  0  3  0  0  0  0  0  0
  186.5580  178.2090  138.8250 C   0  0  0  0  0  2  0  0  0  0  0  0
  191.1040  176.6470  141.0990 C   0  0  0  0  0  3  0  0  0  0  0  0
  188.6440  177.0280  147.2370 C   0  0  0  0  0  0  0  0  0  0  0  0
  192.0560  177.2050  147.9960 O   0  0  0  0  0  1  0  0  0  0  0  0
  187.9130  177.3280  148.3420 F   0  0  0  0  0  0  0  0  0  0  0  0
  191.2940  177.3460  145.7800 C   0  0  0  0  0  3  0  0  0  0  0  0
  188.9840  177.1630  144.7670 C   0  0  0  0  0  0  0  0  0  0  0  0
  189.8630  176.1900  147.4210 C   0  0  0  0  0  2  0  0  0  0  0  0
  190.3290  177.1810  144.6760 C   0  0  0  0  0  3  0  0  0  0  0  0
  188.2350  177.4390  146.0260 C   0  0  0  0  0  0  0  0  0  0  0  0
  186.9440  178.1870  145.9270 C   0  0  0  0  0  1  0  0  0  0  0  0
  191.0880  176.9470  147.0340 C   0  0  0  0  0  0  0  0  0  0  0  0
  181.9610  179.3810  143.5050 C   0  0  0  0  0  2  0  0  0  0  0  0
  182.7420  178.8460  141.1380 C   0  0  0  0  0  2  0  0  0  0  0  0
  183.9800  177.9690  141.2720 C   0  0  0  0  0  2  0  0  0  0  0  0
  184.9570  178.5000  142.3240 C   0  0  0  0  0  3  0  0  0  0  0  0
  184.3250  178.4520  143.7150 C   0  0  0  0  0  2  0  0  0  0  0  0
  181.7640  178.5170  142.2560 C   0  0  0  0  0  2  0  0  0  0  0  0
  183.4150  179.6580  143.8990 C   0  0  0  0  0  2  0  0  0  0  0  0
  1 13  1  0  0  0  0
  2  5  1  1  0  0  0
  2  4  1  0  0  0  0
  2  6  1  0  0  0  0
  3  1  2  0  0  0  0
  4  1  1  1  0  0  0
  6 29  1  6  0  0  0
  6 11  1  0  0  0  0
  7 12  1  1  0  0  0
  7 14  1  0  0  0  0
  7  9  1  0  0  0  0
  8 10  1  1  0  0  0
  8  4  1  0  0  0  0
  9  8  1  0  0  0  0
 10 15  2  0  0  0  0
 11 13  1  0  0  0  0
 13 20  1  1  0  0  0
 14  5  1  0  0  0  0
 15  3  1  0  0  0  0
 16 21  1  0  0  0  0
 16 18  1  0  0  0  0
 19 25  2  0  0  0  0
 20 23  1  0  0  0  0
 22 20  2  0  0  0  0
 22 19  1  0  0  0  0
 23 16  2  0  0  0  0
 24 23  1  0  0  0  0
 25 21  1  0  0  0  0
 25 17  1  0  0  0  0
 26 32  1  0  0  0  0
 27 28  1  0  0  0  0
 27 31  1  0  0  0  0
 28 29  1  0  0  0  0
 29 30  1  0  0  0  0
 30 32  1  0  0  0  0
 31 26  1  0  0  0  0
M  END
>  <MODEL>
3

>  <REMARK>
 VINA RESULT:      -9.6      2.389      6.157
  Name = 
  2 active torsions:
  status: ('A' for Active; 'I' for Inactive)
    1  A    between atoms: C_10  and  C_17
    2  A    between atoms: C_16  and  C_27
                            x       y       z     vdW  Elec       q    Type
                         _______ _______ _______ _____ _____    ______ ____

>  <TORSDO>
F 2

$$$$
=
 OpenBabel10262421103D

 32 36  0  0  1  0  0  0  0  0999 V2000
  185.7610  178.6250  140.3570 C   0  0  0  0  0  0  0  0  0  0  0  0
  187.9140  178.1460  141.5530 C   0  0  2  0  0  3  0  0  0  0  0  0
  185.1960  179.0490  139.2630 N   0  0  0  0  0  0  0  0  0  0  0  0
  187.0670  177.8780  140.3060 C   0  0  2  0  0  3  0  0  0  0  0  0
  188.9470  177.2000  141.6200 O   0  0  0  0  0  0  0  0  0  0  0  0
  187.0920  178.2860  142.8670 C   0  0  1  0  0  3  0  0  0  0  0  0
  190.1560  177.5030  139.5060 C   0  0  2  0  0  3  0  0  0  0  0  0
  187.9040  178.2350  139.0750 C   0  0  1  0  0  3  0  0  0  0  0  0
  188.8830  177.1750  138.8530 N   0  0  0  0  0  2  0  0  0  0  0  0
  187.0530  178.4280  137.8530 C   0  0  0  0  0  3  0  0  0  0  0  0
  185.7000  177.8680  142.6790 N   0  0  0  0  0  2  0  0  0  0  0  0
  191.1210  176.3500  139.3210 C   0  0  0  0  0  1  0  0  0  0  0  0
  185.0650  178.7470  141.6910 C   0  0  2  0  0  3  0  0  0  0  0  0
  190.0390  177.8360  141.0080 C   0  0  0  0  0  2  0  0  0  0  0  0
  185.7960  178.8620  137.9710 C   0  0  0  0  0  3  0  0  0  0  0  0
  181.4420  179.3110  142.5350 C   0  0  0  0  0  0  0  0  0  0  0  0
  179.4320  177.4450  140.3610 O   0  0  0  0  0  1  0  0  0  0  0  0
  180.7040  179.7300  143.5950 F   0  0  0  0  0  0  0  0  0  0  0  0
  181.7710  177.2500  140.3230 C   0  0  0  0  0  3  0  0  0  0  0  0
  183.5920  178.4500  141.6030 C   0  0  0  0  0  0  0  0  0  0  0  0
  180.8010  179.3450  141.1890 C   0  0  0  0  0  2  0  0  0  0  0  0
  183.1600  177.6670  140.5950 C   0  0  0  0  0  3  0  0  0  0  0  0
  182.7190  178.9340  142.7100 C   0  0  0  0  0  0  0  0  0  0  0  0
  183.3070  179.0320  144.0800 C   0  0  0  0  0  1  0  0  0  0  0  0
  180.6910  177.9700  140.6220 C   0  0  0  0  0  0  0  0  0  0  0  0
  188.3050  177.1340  147.3430 C   0  0  0  0  0  2  0  0  0  0  0  0
  189.9010  177.3430  145.3650 C   0  0  0  0  0  2  0  0  0  0  0  0
  189.1560  178.1080  144.2790 C   0  0  0  0  0  2  0  0  0  0  0  0
  187.7250  177.6010  144.0870 C   0  0  0  0  0  3  0  0  0  0  0  0
  186.8940  177.8540  145.3450 C   0  0  0  0  0  2  0  0  0  0  0  0
  189.4960  177.8780  146.7310 C   0  0  0  0  0  2  0  0  0  0  0  0
  187.1810  176.7650  146.3680 C   0  0  0  0  0  2  0  0  0  0  0  0
  1 13  1  0  0  0  0
  2  5  1  1  0  0  0
  2  6  1  0  0  0  0
  3  1  2  0  0  0  0
  4  1  1  1  0  0  0
  4  2  1  0  0  0  0
  6 29  1  1  0  0  0
  7 12  1  1  0  0  0
  7 14  1  0  0  0  0
  8 10  1  6  0  0  0
  8  4  1  0  0  0  0
  9  8  1  0  0  0  0
  9  7  1  0  0  0  0
 10 15  2  0  0  0  0
 11  6  1  0  0  0  0
 13 20  1  6  0  0  0
 13 11  1  0  0  0  0
 14  5  1  0  0  0  0
 15  3  1  0  0  0  0
 16 23  2  0  0  0  0
 16 18  1  0  0  0  0
 17 25  1  0  0  0  0
 19 22  1  0  0  0  0
 19 25  2  0  0  0  0
 20 23  1  0  0  0  0
 21 16  1  0  0  0  0
 22 20  2  0  0  0  0
 23 24  1  0  0  0  0
 25 21  1  0  0  0  0
 27 31  1  0  0  0  0
 28 27  1  0  0  0  0
 29 28  1  0  0  0  0
 29 30  1  0  0  0  0
 30 32  1  0  0  0  0
 31 26  1  0  0  0  0
 32 26  1  0  0  0  0
M  END
>  <MODEL>
4

>  <REMARK>
 VINA RESULT:      -9.4      1.933      2.745
  Name = 
  2 active torsions:
  status: ('A' for Active; 'I' for Inactive)
    1  A    between atoms: C_10  and  C_17
    2  A    between atoms: C_16  and  C_27
                            x       y       z     vdW  Elec       q    Type
                         _______ _______ _______ _____ _____    ______ ____

>  <TORSDO>
F 2

$$$$
=
 OpenBabel10262421103D

 32 36  0  0  1  0  0  0  0  0999 V2000
  189.4400  177.9050  142.0510 C   0  0  0  0  0  0  0  0  0  0  0  0
  187.6630  178.1900  143.7990 C   0  0  2  0  0  3  0  0  0  0  0  0
  190.7160  177.9120  141.7870 N   0  0  0  0  0  0  0  0  0  0  0  0
  188.9390  177.4470  143.3950 C   0  0  2  0  0  3  0  0  0  0  0  0
  187.0600  177.5190  144.8730 O   0  0  0  0  0  0  0  0  0  0  0  0
  186.6990  178.4940  142.6160 C   0  0  1  0  0  3  0  0  0  0  0  0
  188.7990  177.5070  146.6050 C   0  0  2  0  0  3  0  0  0  0  0  0
  189.9740  177.6370  144.5080 C   0  0  1  0  0  3  0  0  0  0  0  0
  189.6160  176.7740  145.6290 N   0  0  0  0  0  2  0  0  0  0  0  0
  191.3680  177.3350  144.0370 C   0  0  0  0  0  3  0  0  0  0  0  0
  187.0890  177.7710  141.4020 N   0  0  0  0  0  2  0  0  0  0  0  0
  188.3830  176.5630  147.7140 C   0  0  0  0  0  1  0  0  0  0  0  0
  188.4210  178.2220  140.9840 C   0  0  2  0  0  3  0  0  0  0  0  0
  187.5460  178.1830  146.0110 C   0  0  0  0  0  2  0  0  0  0  0  0
  191.7010  177.5240  142.7580 C   0  0  0  0  0  3  0  0  0  0  0  0
  188.3960  178.0760  137.2250 C   0  0  0  0  0  0  0  0  0  0  0  0
  190.7310  175.7100  136.1310 O   0  0  0  0  0  1  0  0  0  0  0  0
  187.5570  178.3970  136.2060 F   0  0  0  0  0  0  0  0  0  0  0  0
  190.2720  176.0000  138.4150 C   0  0  0  0  0  3  0  0  0  0  0  0
  188.7770  177.6240  139.6500 C   0  0  0  0  0  0  0  0  0  0  0  0
  189.8400  177.8970  136.9010 C   0  0  0  0  0  2  0  0  0  0  0  0
  189.7660  176.7100  139.6060 C   0  0  0  0  0  3  0  0  0  0  0  0
  187.9270  177.9820  138.4790 C   0  0  0  0  0  0  0  0  0  0  0  0
  186.4820  178.2810  138.7220 C   0  0  0  0  0  1  0  0  0  0  0  0
  190.2740  176.4980  137.1800 C   0  0  0  0  0  0  0  0  0  0  0  0
  181.9280  178.7490  142.5480 C   0  0  0  0  0  2  0  0  0  0  0  0
  183.4040  178.8620  144.6240 C   0  0  0  0  0  2  0  0  0  0  0  0
  184.8190  179.1500  144.1410 C   0  0  0  0  0  2  0  0  0  0  0  0
  185.2120  178.2860  142.9400 C   0  0  0  0  0  3  0  0  0  0  0  0
  184.3390  178.6210  141.7300 C   0  0  0  0  0  2  0  0  0  0  0  0
  182.4060  179.5900  143.7350 C   0  0  0  0  0  2  0  0  0  0  0  0
  183.0030  177.9040  141.8570 C   0  0  0  0  0  2  0  0  0  0  0  0
  2  5  1  1  0  0  0
  3  1  2  0  0  0  0
  3 15  1  0  0  0  0
  4  1  1  6  0  0  0
  4  2  1  0  0  0  0
  4  8  1  0  0  0  0
  5 14  1  0  0  0  0
  6 29  1  1  0  0  0
  6  2  1  0  0  0  0
  7 12  1  1  0  0  0
  8 10  1  6  0  0  0
  8  9  1  0  0  0  0
  9  7  1  0  0  0  0
 11  6  1  0  0  0  0
 13 20  1  6  0  0  0
 13 11  1  0  0  0  0
 13  1  1  0  0  0  0
 14  7  1  0  0  0  0
 15 10  2  0  0  0  0
 16 23  2  0  0  0  0
 17 25  1  0  0  0  0
 18 16  1  0  0  0  0
 19 22  1  0  0  0  0
 21 25  1  0  0  0  0
 21 16  1  0  0  0  0
 22 20  2  0  0  0  0
 23 24  1  0  0  0  0
 23 20  1  0  0  0  0
 25 19  2  0  0  0  0
 26 31  1  0  0  0  0
 28 27  1  0  0  0  0
 29 28  1  0  0  0  0
 30 32  1  0  0  0  0
 30 29  1  0  0  0  0
 31 27  1  0  0  0  0
 32 26  1  0  0  0  0
M  END
>  <MODEL>
5

>  <REMARK>
 VINA RESULT:      -9.2      2.742      7.597
  Name = 
  2 active torsions:
  status: ('A' for Active; 'I' for Inactive)
    1  A    between atoms: C_10  and  C_17
    2  A    between atoms: C_16  and  C_27
                            x       y       z     vdW  Elec       q    Type
                         _______ _______ _______ _____ _____    ______ ____

>  <TORSDO>
F 2

$$$$
=
 OpenBabel10262421103D

 32 36  0  0  1  0  0  0  0  0999 V2000
  185.0710  178.1170  138.6280 C   0  0  0  0  0  0  0  0  0  0  0  0
  186.8000  178.6080  140.3770 C   0  0  2  0  0  3  0  0  0  0  0  0
  184.8190  177.9750  137.3570 N   0  0  0  0  0  0  0  0  0  0  0  0
  186.4090  177.7210  139.1920 C   0  0  2  0  0  3  0  0  0  0  0  0
  187.8670  178.0130  141.0650 O   0  0  0  0  0  0  0  0  0  0  0  0
  185.6080  179.0220  141.2880 C   0  0  1  0  0  3  0  0  0  0  0  0
  189.6170  177.7980  139.3570 C   0  0  2  0  0  3  0  0  0  0  0  0
  187.5320  177.7890  138.1540 C   0  0  1  0  0  3  0  0  0  0  0  0
  188.6490  176.9750  138.6220 N   0  0  0  0  0  2  0  0  0  0  0  0
  187.0760  177.3270  136.8000 C   0  0  0  0  0  3  0  0  0  0  0  0
  184.3970  178.2580  140.9720 N   0  0  0  0  0  2  0  0  0  0  0  0
  190.7210  176.9090  139.8920 C   0  0  0  0  0  1  0  0  0  0  0  0
  183.9940  178.5510  139.5920 C   0  0  2  0  0  3  0  0  0  0  0  0
  189.0110  178.6150  140.5170 C   0  0  0  0  0  2  0  0  0  0  0  0
  185.8000  177.4750  136.4350 C   0  0  0  0  0  3  0  0  0  0  0  0
  180.7520  178.2040  137.7130 C   0  0  0  0  0  0  0  0  0  0  0  0
  179.2260  175.1720  138.5660 O   0  0  0  0  0  1  0  0  0  0  0  0
  179.8540  179.0090  137.0880 F   0  0  0  0  0  0  0  0  0  0  0  0
  181.1820  175.8940  139.6450 C   0  0  0  0  0  3  0  0  0  0  0  0
  182.6620  177.9140  139.2950 C   0  0  0  0  0  0  0  0  0  0  0  0
  180.7300  176.7510  137.3780 C   0  0  0  0  0  2  0  0  0  0  0  0
  182.4120  176.6940  139.8070 C   0  0  0  0  0  3  0  0  0  0  0  0
  181.6530  178.7290  138.5600 C   0  0  0  0  0  0  0  0  0  0  0  0
  181.6650  180.2110  138.7550 C   0  0  0  0  0  1  0  0  0  0  0  0
  180.3850  175.9370  138.5780 C   0  0  0  0  0  0  0  0  0  0  0  0
  186.2620  177.5540  145.7870 C   0  0  0  0  0  2  0  0  0  0  0  0
  185.0040  179.6500  145.0640 C   0  0  0  0  0  2  0  0  0  0  0  0
  184.7050  179.4920  143.5790 C   0  0  0  0  0  2  0  0  0  0  0  0
  185.9170  178.9890  142.7920 C   0  0  0  0  0  3  0  0  0  0  0  0
  186.2980  177.5770  143.2380 C   0  0  0  0  0  2  0  0  0  0  0  0
  184.9200  178.2920  145.7450 C   0  0  0  0  0  2  0  0  0  0  0  0
  187.1160  177.6550  144.5190 C   0  0  0  0  0  2  0  0  0  0  0  0
  1 13  1  0  0  0  0
  2  5  1  1  0  0  0
  2  6  1  0  0  0  0
  3  1  2  0  0  0  0
  4  1  1  6  0  0  0
  4  2  1  0  0  0  0
  6 29  1  1  0  0  0
  7 12  1  1  0  0  0
  7 14  1  0  0  0  0
  8 10  1  6  0  0  0
  8  9  1  0  0  0  0
  8  4  1  0  0  0  0
  9  7  1  0  0  0  0
 11  6  1  0  0  0  0
 13 20  1  6  0  0  0
 13 11  1  0  0  0  0
 14  5  1  0  0  0  0
 15 10  2  0  0  0  0
 15  3  1  0  0  0  0
 16 23  2  0  0  0  0
 17 25  1  0  0  0  0
 18 16  1  0  0  0  0
 19 22  1  0  0  0  0
 20 22  2  0  0  0  0
 21 16  1  0  0  0  0
 21 25  1  0  0  0  0
 23 24  1  0  0  0  0
 23 20  1  0  0  0  0
 25 19  2  0  0  0  0
 27 31  1  0  0  0  0
 28 27  1  0  0  0  0
 29 30  1  0  0  0  0
 29 28  1  0  0  0  0
 30 32  1  0  0  0  0
 31 26  1  0  0  0  0
 32 26  1  0  0  0  0
M  END
>  <MODEL>
6

>  <REMARK>
 VINA RESULT:      -9.1      3.170      4.884
  Name = 
  2 active torsions:
  status: ('A' for Active; 'I' for Inactive)
    1  A    between atoms: C_10  and  C_17
    2  A    between atoms: C_16  and  C_27
                            x       y       z     vdW  Elec       q    Type
                         _______ _______ _______ _____ _____    ______ ____

>  <TORSDO>
F 2

$$$$
=
 OpenBabel10262421103D

 32 36  0  0  1  0  0  0  0  0999 V2000
  182.9770  178.6410  141.5440 C   0  0  0  0  0  0  0  0  0  0  0  0
  185.1880  178.2040  142.6440 C   0  0  2  0  0  3  0  0  0  0  0  0
  181.6800  178.6360  141.6700 N   0  0  0  0  0  0  0  0  0  0  0  0
  183.8590  178.9600  142.7210 C   0  0  2  0  0  3  0  0  0  0  0  0
  186.0910  178.7650  143.5590 O   0  0  0  0  0  0  0  0  0  0  0  0
  185.7550  178.0510  141.2030 C   0  0  1  0  0  3  0  0  0  0  0  0
  184.9440  178.5520  145.7180 C   0  0  2  0  0  3  0  0  0  0  0  0
  183.1990  178.6280  144.0620 C   0  0  1  0  0  3  0  0  0  0  0  0
  183.8840  179.3700  145.1150 N   0  0  0  0  0  2  0  0  0  0  0  0
  181.7320  178.9490  144.0620 C   0  0  0  0  0  3  0  0  0  0  0  0
  185.0310  178.8940  140.2460 N   0  0  0  0  0  2  0  0  0  0  0  0
  185.6820  179.3780  146.7510 C   0  0  0  0  0  1  0  0  0  0  0  0
  183.6300  178.4630  140.1950 C   0  0  2  0  0  3  0  0  0  0  0  0
  185.9560  177.9720  144.7090 C   0  0  0  0  0  2  0  0  0  0  0  0
  181.0330  178.8950  142.9260 C   0  0  0  0  0  3  0  0  0  0  0  0
  181.5560  178.6770  137.0630 C   0  0  0  0  0  0  0  0  0  0  0  0
  180.4510  181.9680  136.6150 O   0  0  0  0  0  1  0  0  0  0  0  0
  181.3870  177.9770  135.9110 F   0  0  0  0  0  0  0  0  0  0  0  0
  181.9380  181.4090  138.3430 C   0  0  0  0  0  3  0  0  0  0  0  0
  182.9010  179.1970  139.1000 C   0  0  0  0  0  0  0  0  0  0  0  0
  180.4790  179.6310  137.4560 C   0  0  0  0  0  2  0  0  0  0  0  0
  182.6330  180.5050  139.2800 C   0  0  0  0  0  3  0  0  0  0  0  0
  182.6360  178.4620  137.8310 C   0  0  0  0  0  0  0  0  0  0  0  0
  183.6110  177.4110  137.4070 C   0  0  0  0  0  1  0  0  0  0  0  0
  180.9960  181.0290  137.4810 C   0  0  0  0  0  0  0  0  0  0  0  0
  190.3110  177.7790  139.7880 C   0  0  0  0  0  2  0  0  0  0  0  0
  189.4810  177.6710  142.1970 C   0  0  0  0  0  2  0  0  0  0  0  0
  187.9860  177.3880  142.1340 C   0  0  0  0  0  2  0  0  0  0  0  0
  187.2730  178.2530  141.0930 C   0  0  0  0  0  3  0  0  0  0  0  0
  187.7670  177.9160  139.6860 C   0  0  0  0  0  2  0  0  0  0  0  0
  190.1850  176.9390  141.0630 C   0  0  0  0  0  2  0  0  0  0  0  0
  189.0870  178.6280  139.4290 C   0  0  0  0  0  2  0  0  0  0  0  0
  1  3  2  0  0  0  0
  2  4  1  0  0  0  0
  2  5  1  1  0  0  0
  3 15  1  0  0  0  0
  4  1  1  6  0  0  0
  4  8  1  0  0  0  0
  5 14  1  0  0  0  0
  6 29  1  1  0  0  0
  6  2  1  0  0  0  0
  7 12  1  1  0  0  0
  8 10  1  6  0  0  0
  8  9  1  0  0  0  0
  9  7  1  0  0  0  0
 11  6  1  0  0  0  0
 13 20  1  6  0  0  0
 13 11  1  0  0  0  0
 13  1  1  0  0  0  0
 14  7  1  0  0  0  0
 15 10  2  0  0  0  0
 16 21  1  0  0  0  0
 16 23  2  0  0  0  0
 17 25  1  0  0  0  0
 18 16  1  0  0  0  0
 19 22  1  0  0  0  0
 20 22  2  0  0  0  0
 21 25  1  0  0  0  0
 23 20  1  0  0  0  0
 24 23  1  0  0  0  0
 25 19  2  0  0  0  0
 26 31  1  0  0  0  0
 28 27  1  0  0  0  0
 29 28  1  0  0  0  0
 30 29  1  0  0  0  0
 31 27  1  0  0  0  0
 32 30  1  0  0  0  0
 32 26  1  0  0  0  0
M  END
>  <MODEL>
7

>  <REMARK>
 VINA RESULT:      -9.0      3.452      6.345
  Name = 
  2 active torsions:
  status: ('A' for Active; 'I' for Inactive)
    1  A    between atoms: C_10  and  C_17
    2  A    between atoms: C_16  and  C_27
                            x       y       z     vdW  Elec       q    Type
                         _______ _______ _______ _____ _____    ______ ____

>  <TORSDO>
F 2

$$$$
=
 OpenBabel10262421103D

 32 36  0  0  1  0  0  0  0  0999 V2000
  190.0030  177.6600  140.2420 C   0  0  0  0  0  0  0  0  0  0  0  0
  189.1230  177.9560  142.5730 C   0  0  2  0  0  3  0  0  0  0  0  0
  191.0490  177.6720  139.4650 N   0  0  0  0  0  0  0  0  0  0  0  0
  190.1190  177.2160  141.6760 C   0  0  2  0  0  3  0  0  0  0  0  0
  189.0360  177.2950  143.8070 O   0  0  0  0  0  0  0  0  0  0  0  0
  187.7480  178.2400  141.9040 C   0  0  1  0  0  3  0  0  0  0  0  0
  191.3420  177.3160  144.6460 C   0  0  2  0  0  3  0  0  0  0  0  0
  191.5240  177.4260  142.2480 C   0  0  1  0  0  3  0  0  0  0  0  0
  191.6800  176.5750  143.4230 N   0  0  0  0  0  2  0  0  0  0  0  0
  192.5930  177.1270  141.2370 C   0  0  0  0  0  3  0  0  0  0  0  0
  187.5980  177.5040  140.6440 N   0  0  0  0  0  2  0  0  0  0  0  0
  191.4420  176.3830  145.8350 C   0  0  0  0  0  1  0  0  0  0  0  0
  188.6260  177.9580  139.7010 C   0  0  2  0  0  3  0  0  0  0  0  0
  189.9480  177.9760  144.6290 C   0  0  0  0  0  2  0  0  0  0  0  0
  192.3550  177.3020  139.9350 C   0  0  0  0  0  3  0  0  0  0  0  0
  189.3510  177.4580  136.0420 C   0  0  0  0  0  0  0  0  0  0  0  0
  187.5670  174.6860  134.8660 O   0  0  0  0  0  1  0  0  0  0  0  0
  189.8060  178.1890  134.9920 F   0  0  0  0  0  0  0  0  0  0  0  0
  187.2700  175.4840  137.0540 C   0  0  0  0  0  3  0  0  0  0  0  0
  188.3940  177.3450  138.3460 C   0  0  0  0  0  0  0  0  0  0  0  0
  189.4080  175.9720  135.9270 C   0  0  0  0  0  2  0  0  0  0  0  0
  187.6270  176.2400  138.2700 C   0  0  0  0  0  3  0  0  0  0  0  0
  188.9190  178.0720  137.1550 C   0  0  0  0  0  0  0  0  0  0  0  0
  188.9960  179.5640  137.2190 C   0  0  0  0  0  1  0  0  0  0  0  0
  188.0380  175.3870  135.9690 C   0  0  0  0  0  0  0  0  0  0  0  0
  183.6220  178.8340  144.2400 C   0  0  0  0  0  2  0  0  0  0  0  0
  185.8170  178.0260  145.2570 C   0  0  0  0  0  2  0  0  0  0  0  0
  186.9170  178.3800  144.2650 C   0  0  0  0  0  2  0  0  0  0  0  0
  186.5380  178.0270  142.8250 C   0  0  0  0  0  3  0  0  0  0  0  0
  185.3470  178.8670  142.3630 C   0  0  0  0  0  2  0  0  0  0  0  0
  184.7500  179.1110  145.2400 C   0  0  0  0  0  2  0  0  0  0  0  0
  184.0590  178.2530  142.8920 C   0  0  0  0  0  2  0  0  0  0  0  0
  2  5  1  1  0  0  0
  3 15  1  0  0  0  0
  3  1  2  0  0  0  0
  4  1  1  6  0  0  0
  4  8  1  0  0  0  0
  4  2  1  0  0  0  0
  5 14  1  0  0  0  0
  6  2  1  0  0  0  0
  6 29  1  1  0  0  0
  7 12  1  1  0  0  0
  8 10  1  6  0  0  0
  8  9  1  0  0  0  0
  9  7  1  0  0  0  0
 11  6  1  0  0  0  0
 13 20  1  6  0  0  0
 13  1  1  0  0  0  0
 13 11  1  0  0  0  0
 14  7  1  0  0  0  0
 15 10  2  0  0  0  0
 16 23  2  0  0  0  0
 17 25  1  0  0  0  0
 18 16  1  0  0  0  0
 19 22  1  0  0  0  0
 21 25  1  0  0  0  0
 21 16  1  0  0  0  0
 22 20  2  0  0  0  0
 23 24  1  0  0  0  0
 23 20  1  0  0  0  0
 25 19  2  0  0  0  0
 26 31  1  0  0  0  0
 28 27  1  0  0  0  0
 29 28  1  0  0  0  0
 30 29  1  0  0  0  0
 30 32  1  0  0  0  0
 31 27  1  0  0  0  0
 32 26  1  0  0  0  0
M  END
>  <MODEL>
8

>  <REMARK>
 VINA RESULT:      -9.0      3.136      7.061
  Name = 
  2 active torsions:
  status: ('A' for Active; 'I' for Inactive)
    1  A    between atoms: C_10  and  C_17
    2  A    between atoms: C_16  and  C_27
                            x       y       z     vdW  Elec       q    Type
                         _______ _______ _______ _____ _____    ______ ____

>  <TORSDO>
F 2

$$$$
=
 OpenBabel10262421103D

 32 36  0  0  1  0  0  0  0  0999 V2000
  185.6450  178.7490  141.9180 C   0  0  0  0  0  0  0  0  0  0  0  0
  184.9620  178.5350  139.5140 C   0  0  2  0  0  3  0  0  0  0  0  0
  185.3200  179.1680  143.1080 N   0  0  0  0  0  0  0  0  0  0  0  0
  184.5910  178.2420  140.9700 C   0  0  2  0  0  3  0  0  0  0  0  0
  184.1400  177.7760  138.6680 O   0  0  0  0  0  0  0  0  0  0  0  0
  186.4810  178.4130  139.2030 C   0  0  1  0  0  3  0  0  0  0  0  0
  181.8680  178.4730  139.2810 C   0  0  2  0  0  3  0  0  0  0  0  0
  183.2110  178.8460  141.2430 C   0  0  1  0  0  3  0  0  0  0  0  0
  182.1990  177.9940  140.6290 N   0  0  0  0  0  2  0  0  0  0  0  0
  182.9460  179.0030  142.7120 C   0  0  0  0  0  3  0  0  0  0  0  0
  187.2090  177.7830  140.3090 N   0  0  0  0  0  2  0  0  0  0  0  0
  180.8740  177.5220  138.6460 C   0  0  0  0  0  1  0  0  0  0  0  0
  187.0910  178.6280  141.5030 C   0  0  2  0  0  3  0  0  0  0  0  0
  183.0830  178.6410  138.3450 C   0  0  0  0  0  2  0  0  0  0  0  0
  183.9570  179.2040  143.5600 C   0  0  0  0  0  3  0  0  0  0  0  0
  190.3600  178.1720  143.3090 C   0  0  0  0  0  0  0  0  0  0  0  0
  189.7700  176.7530  146.4530 O   0  0  0  0  0  1  0  0  0  0  0  0
  191.6800  178.0740  143.0020 F   0  0  0  0  0  0  0  0  0  0  0  0
  188.0310  177.0410  144.9030 C   0  0  0  0  0  3  0  0  0  0  0  0
  187.9660  178.0950  142.6050 C   0  0  0  0  0  0  0  0  0  0  0  0
  190.0000  178.5120  144.7150 C   0  0  0  0  0  2  0  0  0  0  0  0
  187.3710  177.6100  143.7120 C   0  0  0  0  0  3  0  0  0  0  0  0
  189.4330  178.0150  142.3500 C   0  0  0  0  0  0  0  0  0  0  0  0
  189.8930  177.7790  140.9480 C   0  0  0  0  0  1  0  0  0  0  0  0
  189.2340  177.4000  145.3470 C   0  0  0  0  0  0  0  0  0  0  0  0
  188.7110  176.0770  135.6810 C   0  0  0  0  0  2  0  0  0  0  0  0
  187.3420  178.2140  135.4300 C   0  0  0  0  0  2  0  0  0  0  0  0
  187.1810  178.7990  136.8270 C   0  0  0  0  0  2  0  0  0  0  0  0
  186.8030  177.7380  137.8620 C   0  0  0  0  0  3  0  0  0  0  0  0
  187.9310  176.7190  138.0220 C   0  0  0  0  0  2  0  0  0  0  0  0
  188.7120  177.5630  135.3070 C   0  0  0  0  0  2  0  0  0  0  0  0
  187.8560  175.6990  136.8950 C   0  0  0  0  0  2  0  0  0  0  0  0
  1  3  2  0  0  0  0
  2  5  1  6  0  0  0
  2  4  1  0  0  0  0
  3 15  1  0  0  0  0
  4  8  1  0  0  0  0
  4  1  1  1  0  0  0
  6 29  1  6  0  0  0
  6  2  1  0  0  0  0
  6 11  1  0  0  0  0
  7 12  1  6  0  0  0
  7  9  1  0  0  0  0
  8 10  1  1  0  0  0
  9  8  1  0  0  0  0
 10 15  2  0  0  0  0
 11 13  1  0  0  0  0
 13  1  1  0  0  0  0
 13 20  1  1  0  0  0
 14  5  1  0  0  0  0
 14  7  1  0  0  0  0
 16 21  1  0  0  0  0
 18 16  1  0  0  0  0
 19 25  2  0  0  0  0
 20 22  2  0  0  0  0
 21 25  1  0  0  0  0
 22 19  1  0  0  0  0
 23 20  1  0  0  0  0
 23 16  2  0  0  0  0
 24 23  1  0  0  0  0
 25 17  1  0  0  0  0
 26 32  1  0  0  0  0
 27 28  1  0  0  0  0
 28 29  1  0  0  0  0
 29 30  1  0  0  0  0
 31 27  1  0  0  0  0
 31 26  1  0  0  0  0
 32 30  1  0  0  0  0
M  END
>  <MODEL>
9

>  <REMARK>
 VINA RESULT:      -9.0      2.749      6.376
  Name = 
  2 active torsions:
  status: ('A' for Active; 'I' for Inactive)
    1  A    between atoms: C_10  and  C_17
    2  A    between atoms: C_16  and  C_27
                            x       y       z     vdW  Elec       q    Type
                         _______ _______ _______ _____ _____    ______ ____

>  <TORSDO>
F 2

$$$$
