=
 OpenBabel10252415043D

 34 38  0  0  1  0  0  0  0  0999 V2000
  182.0980  178.6200  141.5980 C   0  0  1  0  0  3  0  0  0  0  0  0
  181.2770  178.3580  143.9930 C   0  0  0  0  0  2  0  0  0  0  0  0
  183.7450  178.7650  143.5760 C   0  0  0  0  0  0  0  0  0  0  0  0
  185.3720  178.7040  145.3380 N   0  0  0  0  0  0  0  0  0  0  0  0
  180.0300  180.1350  141.8830 C   0  0  0  0  0  2  0  0  0  0  0  0
  179.1880  179.1940  142.7510 C   0  0  0  0  0  2  0  0  0  0  0  0
  183.2150  179.2750  145.7770 O   0  0  0  0  0  0  0  0  0  0  0  0
  182.3280  179.0220  143.0760 C   0  0  1  0  0  3  0  0  0  0  0  0
  180.9690  179.4090  140.9120 C   0  0  0  0  0  2  0  0  0  0  0  0
  184.7750  178.4920  142.6550 C   0  0  0  0  0  0  0  0  0  0  0  0
  183.3240  178.6650  140.7440 C   0  0  0  0  0  3  0  0  0  0  0  0
  179.9520  177.9920  143.3130 C   0  0  0  0  0  2  0  0  0  0  0  0
  186.3230  178.3890  144.4610 N   0  0  0  0  0  0  0  0  0  0  0  0
  186.0850  178.2730  143.1280 C   0  0  0  0  0  0  0  0  0  0  0  0
  184.0860  178.9210  144.9350 C   0  0  0  0  0  0  0  0  0  0  0  0
  184.5130  178.5630  141.2480 N   0  0  0  0  0  0  0  0  0  0  0  0
  188.5240  178.2780  140.2030 C   0  0  0  0  0  0  0  0  0  0  0  0
  189.3700  177.2270  140.5590 C   0  0  0  0  0  3  0  0  0  0  0  0
  187.2290  177.9400  142.2380 C   0  0  0  0  0  0  0  0  0  0  0  0
  189.1480  176.5240  141.7470 C   0  0  0  0  0  3  0  0  0  0  0  0
  187.4570  178.6280  141.0350 C   0  0  0  0  0  3  0  0  0  0  0  0
  188.0820  176.8780  142.5780 C   0  0  0  0  0  3  0  0  0  0  0  0
  188.7400  178.9740  139.0220 O   0  0  0  0  0  1  0  0  0  0  0  0
  185.7470  178.8500  146.7390 C   0  0  0  0  0  2  0  0  0  0  0  0
  186.5850  177.6650  147.1740 C   0  0  0  0  0  2  0  0  0  0  0  0
  187.8450  178.1580  147.8590 C   0  0  0  0  0  2  0  0  0  0  0  0
  188.9250  177.0860  147.8190 C   0  0  0  0  0  2  0  0  0  0  0  0
  191.4260  175.9090  147.5800 O   0  0  0  0  0  0  0  0  0  0  0  0
  189.8570  177.3300  146.7210 N   0  0  0  0  0  0  0  0  0  0  0  0
  191.0730  176.7060  146.6690 C   0  0  0  0  0  0  0  0  0  0  0  0
  191.5710  177.7980  144.6310 C   0  0  0  0  0  3  0  0  0  0  0  0
  190.3390  178.4450  144.6620 C   0  0  0  0  0  3  0  0  0  0  0  0
  189.4850  178.1910  145.7350 C   0  0  0  0  0  3  0  0  0  0  0  0
  191.9150  176.9440  145.6290 N   0  0  0  0  0  0  0  0  0  0  0  0
  1 11  1  6  0  0  0
  1  8  1  0  0  0  0
  3 15  1  0  0  0  0
  4 24  1  0  0  0  0
  5  6  1  0  0  0  0
  6 12  1  0  0  0  0
  8  3  1  0  0  0  0
  8  2  1  1  0  0  0
  9  1  1  0  0  0  0
  9  5  1  0  0  0  0
 10 14  1  0  0  0  0
 10  3  2  0  0  0  0
 11 16  2  0  0  0  0
 12  2  1  0  0  0  0
 13  4  1  0  0  0  0
 14 13  2  0  0  0  0
 15  4  1  0  0  0  0
 15  7  2  0  0  0  0
 16 10  1  0  0  0  0
 17 18  2  0  0  0  0
 17 21  1  0  0  0  0
 18 20  1  0  0  0  0
 19 22  1  0  0  0  0
 19 14  1  0  0  0  0
 20 22  2  0  0  0  0
 21 19  2  0  0  0  0
 23 17  1  0  0  0  0
 24 25  1  0  0  0  0
 25 26  1  0  0  0  0
 27 26  1  0  0  0  0
 29 27  1  0  0  0  0
 30 29  1  0  0  0  0
 30 28  2  0  0  0  0
 31 32  1  0  0  0  0
 31 34  2  0  0  0  0
 32 33  2  0  0  0  0
 33 29  1  0  0  0  0
 34 30  1  0  0  0  0
M  END
>  <MODEL>
1

>  <REMARK>
 VINA RESULT:     -10.0      0.000      0.000
  Name = 
  6 active torsions:
  status: ('A' for Active; 'I' for Inactive)
    1  A    between atoms: C_3  and  N_13
    2  A    between atoms: C_3  and  C_17
    3  A    between atoms: N_5  and  C_18
    4  A    between atoms: C_12  and  C_28
    5  A    between atoms: C_17  and  C_29
    6  A    between atoms: C_18  and  C_29
                            x       y       z     vdW  Elec       q    Type
                         _______ _______ _______ _____ _____    ______ ____

>  <TORSDO>
F 6

$$$$
=
 OpenBabel10252415043D

 34 38  0  0  1  0  0  0  0  0999 V2000
  189.7760  176.2720  137.5540 C   0  0  1  0  0  3  0  0  0  0  0  0
  187.2800  176.4860  137.1070 C   0  0  0  0  0  2  0  0  0  0  0  0
  188.2530  177.5610  139.1870 C   0  0  0  0  0  0  0  0  0  0  0  0
  186.8820  178.5950  140.8610 N   0  0  0  0  0  0  0  0  0  0  0  0
  189.4840  177.0020  135.0980 C   0  0  0  0  0  2  0  0  0  0  0  0
  188.2630  176.1430  134.7580 C   0  0  0  0  0  2  0  0  0  0  0  0
  186.1910  178.5030  138.6960 O   0  0  0  0  0  0  0  0  0  0  0  0
  188.5190  177.1560  137.7420 C   0  0  1  0  0  3  0  0  0  0  0  0
  190.4060  176.3810  136.1550 C   0  0  0  0  0  2  0  0  0  0  0  0
  189.2580  177.3890  140.1590 C   0  0  0  0  0  0  0  0  0  0  0  0
  190.8340  176.4690  138.5920 C   0  0  0  0  0  3  0  0  0  0  0  0
  187.5780  175.5030  135.9680 C   0  0  0  0  0  2  0  0  0  0  0  0
  187.8190  178.3720  141.7800 N   0  0  0  0  0  0  0  0  0  0  0  0
  189.0080  177.7830  141.4890 C   0  0  0  0  0  0  0  0  0  0  0  0
  187.0700  178.2280  139.5600 C   0  0  0  0  0  0  0  0  0  0  0  0
  190.5610  176.9350  139.7680 N   0  0  0  0  0  0  0  0  0  0  0  0
  191.4710  176.2130  143.9330 C   0  0  0  0  0  0  0  0  0  0  0  0
  191.7950  177.3120  144.7290 C   0  0  0  0  0  3  0  0  0  0  0  0
  189.9910  177.6050  142.5910 C   0  0  0  0  0  0  0  0  0  0  0  0
  191.2160  178.5570  144.4680 C   0  0  0  0  0  3  0  0  0  0  0  0
  190.5700  176.3580  142.8740 C   0  0  0  0  0  3  0  0  0  0  0  0
  190.3170  178.7000  143.4080 C   0  0  0  0  0  3  0  0  0  0  0  0
  192.0420  174.9750  144.1930 O   0  0  0  0  0  1  0  0  0  0  0  0
  185.6610  179.2780  141.2720 C   0  0  0  0  0  2  0  0  0  0  0  0
  184.9600  178.4760  142.3500 C   0  0  0  0  0  2  0  0  0  0  0  0
  184.9440  179.2670  143.6430 C   0  0  0  0  0  2  0  0  0  0  0  0
  184.6990  178.3440  144.8280 C   0  0  0  0  0  2  0  0  0  0  0  0
  185.3330  179.3610  147.3300 O   0  0  0  0  0  0  0  0  0  0  0  0
  185.9450  178.0760  145.5430 N   0  0  0  0  0  0  0  0  0  0  0  0
  186.1840  178.6110  146.7790 C   0  0  0  0  0  0  0  0  0  0  0  0
  188.2880  177.5350  146.8620 C   0  0  0  0  0  3  0  0  0  0  0  0
  188.0680  176.9800  145.6050 C   0  0  0  0  0  3  0  0  0  0  0  0
  186.8700  177.2700  144.9540 C   0  0  0  0  0  3  0  0  0  0  0  0
  187.3470  178.3360  147.4250 N   0  0  0  0  0  0  0  0  0  0  0  0
  1  9  1  6  0  0  0
  1  8  1  0  0  0  0
  1 11  1  0  0  0  0
  3 15  1  0  0  0  0
  3 10  2  0  0  0  0
  4 24  1  0  0  0  0
  4 13  1  0  0  0  0
  5  9  1  0  0  0  0
  6  5  1  0  0  0  0
  6 12  1  0  0  0  0
  7 15  2  0  0  0  0
  8  2  1  1  0  0  0
  8  3  1  0  0  0  0
 10 14  1  0  0  0  0
 11 16  2  0  0  0  0
 12  2  1  0  0  0  0
 14 13  2  0  0  0  0
 14 19  1  0  0  0  0
 15  4  1  0  0  0  0
 16 10  1  0  0  0  0
 17 23  1  0  0  0  0
 17 18  1  0  0  0  0
 19 21  1  0  0  0  0
 19 22  2  0  0  0  0
 20 18  2  0  0  0  0
 21 17  2  0  0  0  0
 22 20  1  0  0  0  0
 24 25  1  0  0  0  0
 25 26  1  0  0  0  0
 26 27  1  0  0  0  0
 27 29  1  0  0  0  0
 29 30  1  0  0  0  0
 30 28  2  0  0  0  0
 30 34  1  0  0  0  0
 31 34  2  0  0  0  0
 32 31  1  0  0  0  0
 33 29  1  0  0  0  0
 33 32  2  0  0  0  0
M  END
>  <MODEL>
2

>  <REMARK>
 VINA RESULT:      -9.7      2.810      6.674
  Name = 
  6 active torsions:
  status: ('A' for Active; 'I' for Inactive)
    1  A    between atoms: C_3  and  N_13
    2  A    between atoms: C_3  and  C_17
    3  A    between atoms: N_5  and  C_18
    4  A    between atoms: C_12  and  C_28
    5  A    between atoms: C_17  and  C_29
    6  A    between atoms: C_18  and  C_29
                            x       y       z     vdW  Elec       q    Type
                         _______ _______ _______ _____ _____    ______ ____

>  <TORSDO>
F 6

$$$$
=
 OpenBabel10252415043D

 34 38  0  0  1  0  0  0  0  0999 V2000
  182.5280  179.0010  141.1700 C   0  0  1  0  0  3  0  0  0  0  0  0
  183.7780  179.7410  139.0800 C   0  0  0  0  0  2  0  0  0  0  0  0
  185.0720  178.6380  140.9600 C   0  0  0  0  0  0  0  0  0  0  0  0
  187.4640  178.4520  140.9370 N   0  0  0  0  0  0  0  0  0  0  0  0
  181.2070  178.1440  139.1270 C   0  0  0  0  0  2  0  0  0  0  0  0
  181.3830  179.3680  138.2230 C   0  0  0  0  0  2  0  0  0  0  0  0
  186.2930  178.5380  138.9890 O   0  0  0  0  0  0  0  0  0  0  0  0
  183.7330  178.7190  140.2380 C   0  0  1  0  0  3  0  0  0  0  0  0
  181.1890  178.4750  140.6250 C   0  0  0  0  0  2  0  0  0  0  0  0
  185.1050  178.5170  142.3630 C   0  0  0  0  0  0  0  0  0  0  0  0
  182.7100  178.5310  142.5770 C   0  0  0  0  0  3  0  0  0  0  0  0
  182.4300  180.3730  138.7110 C   0  0  0  0  0  2  0  0  0  0  0  0
  187.4810  178.3980  142.2680 N   0  0  0  0  0  0  0  0  0  0  0  0
  186.3500  178.4250  143.0200 C   0  0  0  0  0  0  0  0  0  0  0  0
  186.2870  178.5480  140.2520 C   0  0  0  0  0  0  0  0  0  0  0  0
  183.8840  178.3630  143.0970 N   0  0  0  0  0  0  0  0  0  0  0  0
  187.6310  177.5340  146.4930 C   0  0  0  0  0  0  0  0  0  0  0  0
  186.6660  178.1410  147.2980 C   0  0  0  0  0  3  0  0  0  0  0  0
  186.4880  178.3340  144.4980 C   0  0  0  0  0  0  0  0  0  0  0  0
  185.6060  178.8380  146.7110 C   0  0  0  0  0  3  0  0  0  0  0  0
  187.5390  177.6260  145.1020 C   0  0  0  0  0  3  0  0  0  0  0  0
  185.5180  178.9310  145.3190 C   0  0  0  0  0  3  0  0  0  0  0  0
  188.6810  176.8370  147.0740 O   0  0  0  0  0  1  0  0  0  0  0  0
  188.7330  178.3680  140.2270 C   0  0  0  0  0  2  0  0  0  0  0  0
  189.1600  176.9180  140.1060 C   0  0  0  0  0  2  0  0  0  0  0  0
  190.5520  176.7490  140.6820 C   0  0  0  0  0  2  0  0  0  0  0  0
  190.8830  177.9010  141.6200 C   0  0  0  0  0  2  0  0  0  0  0  0
  190.9870  179.4860  143.8940 O   0  0  0  0  0  0  0  0  0  0  0  0
  191.1780  177.4090  142.9630 N   0  0  0  0  0  0  0  0  0  0  0  0
  191.2060  178.2530  144.0390 C   0  0  0  0  0  0  0  0  0  0  0  0
  191.7160  176.4430  145.4730 C   0  0  0  0  0  3  0  0  0  0  0  0
  191.6940  175.5650  144.3940 C   0  0  0  0  0  3  0  0  0  0  0  0
  191.4180  176.0800  143.1280 C   0  0  0  0  0  3  0  0  0  0  0  0
  191.4730  177.7650  145.2790 N   0  0  0  0  0  0  0  0  0  0  0  0
  1  9  1  6  0  0  0
  1 11  1  0  0  0  0
  3 10  2  0  0  0  0
  4 13  1  0  0  0  0
  5  9  1  0  0  0  0
  6 12  1  0  0  0  0
  6  5  1  0  0  0  0
  7 15  2  0  0  0  0
  8  2  1  6  0  0  0
  8  3  1  0  0  0  0
  8  1  1  0  0  0  0
 10 14  1  0  0  0  0
 10 16  1  0  0  0  0
 11 16  2  0  0  0  0
 12  2  1  0  0  0  0
 13 14  2  0  0  0  0
 14 19  1  0  0  0  0
 15  4  1  0  0  0  0
 15  3  1  0  0  0  0
 17 23  1  0  0  0  0
 17 18  1  0  0  0  0
 19 21  1  0  0  0  0
 19 22  2  0  0  0  0
 20 18  2  0  0  0  0
 21 17  2  0  0  0  0
 22 20  1  0  0  0  0
 24  4  1  0  0  0  0
 25 24  1  0  0  0  0
 25 26  1  0  0  0  0
 26 27  1  0  0  0  0
 27 29  1  0  0  0  0
 28 30  2  0  0  0  0
 29 33  1  0  0  0  0
 29 30  1  0  0  0  0
 30 34  1  0  0  0  0
 32 31  1  0  0  0  0
 33 32  2  0  0  0  0
 34 31  2  0  0  0  0
M  END
>  <MODEL>
3

>  <REMARK>
 VINA RESULT:      -9.2      2.002      4.807
  Name = 
  6 active torsions:
  status: ('A' for Active; 'I' for Inactive)
    1  A    between atoms: C_3  and  N_13
    2  A    between atoms: C_3  and  C_17
    3  A    between atoms: N_5  and  C_18
    4  A    between atoms: C_12  and  C_28
    5  A    between atoms: C_17  and  C_29
    6  A    between atoms: C_18  and  C_29
                            x       y       z     vdW  Elec       q    Type
                         _______ _______ _______ _____ _____    ______ ____

>  <TORSDO>
F 6

$$$$
=
 OpenBabel10252415043D

 34 38  0  0  1  0  0  0  0  0999 V2000
  184.5730  178.3760  144.2070 C   0  0  1  0  0  3  0  0  0  0  0  0
  187.0010  177.6150  144.2500 C   0  0  0  0  0  2  0  0  0  0  0  0
  186.0510  178.5770  142.1050 C   0  0  0  0  0  0  0  0  0  0  0  0
  187.2890  178.6050  140.0500 N   0  0  0  0  0  0  0  0  0  0  0  0
  185.6660  179.3760  146.3190 C   0  0  0  0  0  2  0  0  0  0  0  0
  186.5230  178.1700  146.7130 C   0  0  0  0  0  2  0  0  0  0  0  0
  188.3690  178.6520  142.0510 O   0  0  0  0  0  0  0  0  0  0  0  0
  185.9900  178.6050  143.6270 C   0  0  1  0  0  3  0  0  0  0  0  0
  184.3650  179.0040  145.5960 C   0  0  0  0  0  2  0  0  0  0  0  0
  184.8610  178.6540  141.3550 C   0  0  0  0  0  0  0  0  0  0  0  0
  183.4570  178.7920  143.3030 C   0  0  0  0  0  3  0  0  0  0  0  0
  186.6270  177.0840  145.6390 C   0  0  0  0  0  2  0  0  0  0  0  0
  186.1530  178.6200  139.3550 N   0  0  0  0  0  0  0  0  0  0  0  0
  184.9290  178.6460  139.9460 C   0  0  0  0  0  0  0  0  0  0  0  0
  187.2790  178.6070  141.4150 C   0  0  0  0  0  0  0  0  0  0  0  0
  183.6090  178.8670  142.0190 N   0  0  0  0  0  0  0  0  0  0  0  0
  181.8930  179.8830  138.0090 C   0  0  0  0  0  0  0  0  0  0  0  0
  181.4240  178.6900  137.4570 C   0  0  0  0  0  3  0  0  0  0  0  0
  183.7290  178.6850  139.0700 C   0  0  0  0  0  0  0  0  0  0  0  0
  182.0960  177.4920  137.7130 C   0  0  0  0  0  3  0  0  0  0  0  0
  183.0360  179.8790  138.8150 C   0  0  0  0  0  3  0  0  0  0  0  0
  183.2390  177.4900  138.5170 C   0  0  0  0  0  3  0  0  0  0  0  0
  181.2250  181.0740  137.7600 O   0  0  0  0  0  1  0  0  0  0  0  0
  188.5470  178.6260  139.3160 C   0  0  0  0  0  2  0  0  0  0  0  0
  189.2550  177.2940  139.4660 C   0  0  0  0  0  2  0  0  0  0  0  0
  190.7120  177.5290  139.8150 C   0  0  0  0  0  2  0  0  0  0  0  0
  191.2050  176.4620  140.7820 C   0  0  0  0  0  2  0  0  0  0  0  0
  189.9480  175.1010  142.8460 O   0  0  0  0  0  0  0  0  0  0  0  0
  191.1230  176.9360  142.1620 N   0  0  0  0  0  0  0  0  0  0  0  0
  190.4890  176.2040  143.1270 C   0  0  0  0  0  0  0  0  0  0  0  0
  191.0070  177.8490  144.7450 C   0  0  0  0  0  3  0  0  0  0  0  0
  191.6570  178.6130  143.7790 C   0  0  0  0  0  3  0  0  0  0  0  0
  191.7020  178.1270  142.4730 C   0  0  0  0  0  3  0  0  0  0  0  0
  190.4380  176.6650  144.4050 N   0  0  0  0  0  0  0  0  0  0  0  0
  1 11  1  6  0  0  0
  1  9  1  0  0  0  0
  2 12  1  0  0  0  0
  3  8  1  0  0  0  0
  4 15  1  0  0  0  0
  5  6  1  0  0  0  0
  8  1  1  0  0  0  0
  8  2  1  1  0  0  0
  9  5  1  0  0  0  0
 10 16  1  0  0  0  0
 10  3  2  0  0  0  0
 12  6  1  0  0  0  0
 13 14  2  0  0  0  0
 13  4  1  0  0  0  0
 14 10  1  0  0  0  0
 15  7  2  0  0  0  0
 15  3  1  0  0  0  0
 16 11  2  0  0  0  0
 17 21  1  0  0  0  0
 18 20  1  0  0  0  0
 18 17  2  0  0  0  0
 19 14  1  0  0  0  0
 20 22  2  0  0  0  0
 21 19  2  0  0  0  0
 22 19  1  0  0  0  0
 23 17  1  0  0  0  0
 24 25  1  0  0  0  0
 24  4  1  0  0  0  0
 25 26  1  0  0  0  0
 26 27  1  0  0  0  0
 27 29  1  0  0  0  0
 28 30  2  0  0  0  0
 29 33  1  0  0  0  0
 29 30  1  0  0  0  0
 30 34  1  0  0  0  0
 32 31  1  0  0  0  0
 33 32  2  0  0  0  0
 34 31  2  0  0  0  0
M  END
>  <MODEL>
4

>  <REMARK>
 VINA RESULT:      -9.1      2.551      5.697
  Name = 
  6 active torsions:
  status: ('A' for Active; 'I' for Inactive)
    1  A    between atoms: C_3  and  N_13
    2  A    between atoms: C_3  and  C_17
    3  A    between atoms: N_5  and  C_18
    4  A    between atoms: C_12  and  C_28
    5  A    between atoms: C_17  and  C_29
    6  A    between atoms: C_18  and  C_29
                            x       y       z     vdW  Elec       q    Type
                         _______ _______ _______ _____ _____    ______ ____

>  <TORSDO>
F 6

$$$$
=
 OpenBabel10252415043D

 34 38  0  0  1  0  0  0  0  0999 V2000
  189.5700  176.8330  146.3200 C   0  0  1  0  0  3  0  0  0  0  0  0
  191.6010  175.7930  145.1930 C   0  0  0  0  0  2  0  0  0  0  0  0
  190.0370  177.2390  143.8180 C   0  0  0  0  0  0  0  0  0  0  0  0
  190.2790  177.4970  141.4450 N   0  0  0  0  0  0  0  0  0  0  0  0
  191.6150  177.2900  147.8240 C   0  0  0  0  0  2  0  0  0  0  0  0
  192.3150  175.9380  147.6570 C   0  0  0  0  0  2  0  0  0  0  0  0
  192.0870  177.0460  142.7480 O   0  0  0  0  0  0  0  0  0  0  0  0
  190.6280  176.9930  145.2010 C   0  0  1  0  0  3  0  0  0  0  0  0
  190.0870  177.2150  147.7180 C   0  0  0  0  0  2  0  0  0  0  0  0
  188.6800  177.5950  143.6880 C   0  0  0  0  0  0  0  0  0  0  0  0
  188.2780  177.5380  146.0590 C   0  0  0  0  0  3  0  0  0  0  0  0
  191.7530  175.0640  146.5330 C   0  0  0  0  0  2  0  0  0  0  0  0
  188.9810  177.7750  141.3340 N   0  0  0  0  0  0  0  0  0  0  0  0
  188.1480  177.8380  142.4050 C   0  0  0  0  0  0  0  0  0  0  0  0
  190.8440  177.2490  142.6620 C   0  0  0  0  0  0  0  0  0  0  0  0
  187.8880  177.8300  144.8590 N   0  0  0  0  0  0  0  0  0  0  0  0
  184.9550  179.1420  140.7920 C   0  0  0  0  0  0  0  0  0  0  0  0
  184.0190  178.8640  141.7890 C   0  0  0  0  0  3  0  0  0  0  0  0
  186.7210  178.1800  142.1650 C   0  0  0  0  0  0  0  0  0  0  0  0
  184.4270  178.2530  142.9780 C   0  0  0  0  0  3  0  0  0  0  0  0
  186.2980  178.8060  140.9810 C   0  0  0  0  0  3  0  0  0  0  0  0
  185.7700  177.9170  143.1640 C   0  0  0  0  0  3  0  0  0  0  0  0
  184.5530  179.7530  139.6120 O   0  0  0  0  0  1  0  0  0  0  0  0
  191.0920  177.5030  140.2350 C   0  0  0  0  0  2  0  0  0  0  0  0
  190.6570  176.3780  139.3170 C   0  0  0  0  0  2  0  0  0  0  0  0
  191.2890  176.5640  137.9510 C   0  0  0  0  0  2  0  0  0  0  0  0
  190.3290  176.1170  136.8570 C   0  0  0  0  0  2  0  0  0  0  0  0
  187.8470  174.9330  137.2160 O   0  0  0  0  0  0  0  0  0  0  0  0
  189.0660  176.8450  136.9470 N   0  0  0  0  0  0  0  0  0  0  0  0
  187.8800  176.1900  137.1300 C   0  0  0  0  0  0  0  0  0  0  0  0
  186.7170  178.2490  137.1300 C   0  0  0  0  0  3  0  0  0  0  0  0
  187.9110  178.9380  136.9420 C   0  0  0  0  0  3  0  0  0  0  0  0
  189.0920  178.2030  136.8520 C   0  0  0  0  0  3  0  0  0  0  0  0
  186.7210  176.8940  137.2210 N   0  0  0  0  0  0  0  0  0  0  0  0
  1 11  1  6  0  0  0
  1  9  1  0  0  0  0
  2 12  1  0  0  0  0
  3  8  1  0  0  0  0
  4 15  1  0  0  0  0
  6  5  1  0  0  0  0
  8  2  1  6  0  0  0
  8  1  1  0  0  0  0
  9  5  1  0  0  0  0
 10  3  2  0  0  0  0
 10 16  1  0  0  0  0
 12  6  1  0  0  0  0
 13  4  1  0  0  0  0
 13 14  2  0  0  0  0
 14 10  1  0  0  0  0
 15  7  2  0  0  0  0
 15  3  1  0  0  0  0
 16 11  2  0  0  0  0
 17 21  2  0  0  0  0
 17 18  1  0  0  0  0
 18 20  2  0  0  0  0
 19 14  1  0  0  0  0
 19 22  2  0  0  0  0
 20 22  1  0  0  0  0
 21 19  1  0  0  0  0
 23 17  1  0  0  0  0
 24  4  1  0  0  0  0
 25 24  1  0  0  0  0
 26 25  1  0  0  0  0
 27 29  1  0  0  0  0
 27 26  1  0  0  0  0
 29 30  1  0  0  0  0
 30 28  2  0  0  0  0
 30 34  1  0  0  0  0
 31 34  2  0  0  0  0
 32 31  1  0  0  0  0
 33 32  2  0  0  0  0
 33 29  1  0  0  0  0
M  END
>  <MODEL>
5

>  <REMARK>
 VINA RESULT:      -9.0      2.918      8.451
  Name = 
  6 active torsions:
  status: ('A' for Active; 'I' for Inactive)
    1  A    between atoms: C_3  and  N_13
    2  A    between atoms: C_3  and  C_17
    3  A    between atoms: N_5  and  C_18
    4  A    between atoms: C_12  and  C_28
    5  A    between atoms: C_17  and  C_29
    6  A    between atoms: C_18  and  C_29
                            x       y       z     vdW  Elec       q    Type
                         _______ _______ _______ _____ _____    ______ ____

>  <TORSDO>
F 6

$$$$
=
 OpenBabel10252415043D

 34 38  0  0  1  0  0  0  0  0999 V2000
  184.8730  178.2530  144.3850 C   0  0  1  0  0  3  0  0  0  0  0  0
  187.2820  177.4340  144.3270 C   0  0  0  0  0  2  0  0  0  0  0  0
  186.2930  178.4910  142.2460 C   0  0  0  0  0  0  0  0  0  0  0  0
  187.4700  178.5620  140.1570 N   0  0  0  0  0  0  0  0  0  0  0  0
  186.0520  179.1530  146.4940 C   0  0  0  0  0  2  0  0  0  0  0  0
  186.8910  177.9140  146.8220 C   0  0  0  0  0  2  0  0  0  0  0  0
  188.6100  178.5140  142.1240 O   0  0  0  0  0  0  0  0  0  0  0  0
  186.2780  178.4680  143.7700 C   0  0  1  0  0  3  0  0  0  0  0  0
  184.7220  178.8370  145.8000 C   0  0  0  0  0  2  0  0  0  0  0  0
  185.0840  178.6230  141.5360 C   0  0  0  0  0  0  0  0  0  0  0  0
  183.7420  178.7260  143.5290 C   0  0  0  0  0  3  0  0  0  0  0  0
  186.9370  176.8640  145.7080 C   0  0  0  0  0  2  0  0  0  0  0  0
  186.3150  178.6280  139.4980 N   0  0  0  0  0  0  0  0  0  0  0  0
  185.1100  178.6620  140.1260 C   0  0  0  0  0  0  0  0  0  0  0  0
  187.5010  178.5170  141.5210 C   0  0  0  0  0  0  0  0  0  0  0  0
  183.8580  178.8420  142.2450 N   0  0  0  0  0  0  0  0  0  0  0  0
  182.2000  177.7630  137.8410 C   0  0  0  0  0  0  0  0  0  0  0  0
  181.6030  179.0120  137.6650 C   0  0  0  0  0  3  0  0  0  0  0  0
  183.8850  178.7590  139.2890 C   0  0  0  0  0  0  0  0  0  0  0  0
  182.1450  180.1380  138.2900 C   0  0  0  0  0  3  0  0  0  0  0  0
  183.3370  177.6390  138.6450 C   0  0  0  0  0  3  0  0  0  0  0  0
  183.2810  180.0120  139.0940 C   0  0  0  0  0  3  0  0  0  0  0  0
  181.6660  176.6430  137.2180 O   0  0  0  0  0  1  0  0  0  0  0  0
  188.7060  178.5790  139.3860 C   0  0  0  0  0  2  0  0  0  0  0  0
  188.3890  178.6170  137.9040 C   0  0  0  0  0  2  0  0  0  0  0  0
  189.3210  177.6800  137.1600 C   0  0  0  0  0  2  0  0  0  0  0  0
  189.4830  176.3750  137.9250 C   0  0  0  0  0  2  0  0  0  0  0  0
  190.1630  173.7410  137.3810 O   0  0  0  0  0  0  0  0  0  0  0  0
  190.8510  175.8750  137.8140 N   0  0  0  0  0  0  0  0  0  0  0  0
  191.1070  174.5610  137.5380 C   0  0  0  0  0  0  0  0  0  0  0  0
  193.4340  174.9790  137.5940 C   0  0  0  0  0  3  0  0  0  0  0  0
  193.1990  176.3220  137.8780 C   0  0  0  0  0  3  0  0  0  0  0  0
  191.8770  176.7530  137.9850 C   0  0  0  0  0  3  0  0  0  0  0  0
  192.3910  174.1270  137.4300 N   0  0  0  0  0  0  0  0  0  0  0  0
  1 11  1  6  0  0  0
  1  9  1  0  0  0  0
  2 12  1  0  0  0  0
  3  8  1  0  0  0  0
  4 15  1  0  0  0  0
  5  6  1  0  0  0  0
  8  2  1  6  0  0  0
  8  1  1  0  0  0  0
  9  5  1  0  0  0  0
 10 16  1  0  0  0  0
 10  3  2  0  0  0  0
 12  6  1  0  0  0  0
 13 14  2  0  0  0  0
 13  4  1  0  0  0  0
 14 10  1  0  0  0  0
 15  7  2  0  0  0  0
 15  3  1  0  0  0  0
 16 11  2  0  0  0  0
 17 21  1  0  0  0  0
 18 17  2  0  0  0  0
 18 20  1  0  0  0  0
 19 14  1  0  0  0  0
 20 22  2  0  0  0  0
 21 19  2  0  0  0  0
 22 19  1  0  0  0  0
 23 17  1  0  0  0  0
 24  4  1  0  0  0  0
 25 24  1  0  0  0  0
 26 25  1  0  0  0  0
 26 27  1  0  0  0  0
 28 30  2  0  0  0  0
 29 27  1  0  0  0  0
 29 33  1  0  0  0  0
 30 29  1  0  0  0  0
 31 32  1  0  0  0  0
 32 33  2  0  0  0  0
 34 30  1  0  0  0  0
 34 31  2  0  0  0  0
M  END
>  <MODEL>
6

>  <REMARK>
 VINA RESULT:      -8.9      3.521      7.077
  Name = 
  6 active torsions:
  status: ('A' for Active; 'I' for Inactive)
    1  A    between atoms: C_3  and  N_13
    2  A    between atoms: C_3  and  C_17
    3  A    between atoms: N_5  and  C_18
    4  A    between atoms: C_12  and  C_28
    5  A    between atoms: C_17  and  C_29
    6  A    between atoms: C_18  and  C_29
                            x       y       z     vdW  Elec       q    Type
                         _______ _______ _______ _____ _____    ______ ____

>  <TORSDO>
F 6

$$$$
=
 OpenBabel10252415043D

 34 38  0  0  1  0  0  0  0  0999 V2000
  187.4860  177.5030  146.5710 C   0  0  1  0  0  3  0  0  0  0  0  0
  189.6500  176.8820  145.3860 C   0  0  0  0  0  2  0  0  0  0  0  0
  187.8260  178.0610  144.0780 C   0  0  0  0  0  0  0  0  0  0  0  0
  187.9740  178.4290  141.7120 N   0  0  0  0  0  0  0  0  0  0  0  0
  189.4410  178.2770  148.0640 C   0  0  0  0  0  2  0  0  0  0  0  0
  190.3710  177.0800  147.8440 C   0  0  0  0  0  2  0  0  0  0  0  0
  189.8580  178.2740  142.9770 O   0  0  0  0  0  0  0  0  0  0  0  0
  188.4770  177.8850  145.4450 C   0  0  1  0  0  3  0  0  0  0  0  0
  187.9500  177.9300  147.9740 C   0  0  0  0  0  2  0  0  0  0  0  0
  186.4250  178.1690  143.9770 C   0  0  0  0  0  0  0  0  0  0  0  0
  186.0830  177.9700  146.3490 C   0  0  0  0  0  3  0  0  0  0  0  0
  189.9550  176.1520  146.7000 C   0  0  0  0  0  2  0  0  0  0  0  0
  186.6460  178.4710  141.6260 N   0  0  0  0  0  0  0  0  0  0  0  0
  185.8350  178.3500  142.7090 C   0  0  0  0  0  0  0  0  0  0  0  0
  188.5970  178.2510  142.9140 C   0  0  0  0  0  0  0  0  0  0  0  0
  185.6250  178.2220  145.1650 N   0  0  0  0  0  0  0  0  0  0  0  0
  182.3940  178.2380  141.0830 C   0  0  0  0  0  0  0  0  0  0  0  0
  181.5870  178.6760  142.1340 C   0  0  0  0  0  3  0  0  0  0  0  0
  184.3650  178.4350  142.4980 C   0  0  0  0  0  0  0  0  0  0  0  0
  182.1620  179.0020  143.3650 C   0  0  0  0  0  3  0  0  0  0  0  0
  183.7750  178.1240  141.2630 C   0  0  0  0  0  3  0  0  0  0  0  0
  183.5430  178.8860  143.5430 C   0  0  0  0  0  3  0  0  0  0  0  0
  181.8250  177.9180  139.8580 O   0  0  0  0  0  1  0  0  0  0  0  0
  188.7510  178.6180  140.4930 C   0  0  0  0  0  2  0  0  0  0  0  0
  189.0530  177.2740  139.8610 C   0  0  0  0  0  2  0  0  0  0  0  0
  189.6060  177.4820  138.4650 C   0  0  0  0  0  2  0  0  0  0  0  0
  188.6370  178.3030  137.6270 C   0  0  0  0  0  2  0  0  0  0  0  0
  186.0170  178.9070  138.3070 O   0  0  0  0  0  0  0  0  0  0  0  0
  187.4750  177.5050  137.2460 N   0  0  0  0  0  0  0  0  0  0  0  0
  186.2100  177.8710  137.6160 C   0  0  0  0  0  0  0  0  0  0  0  0
  185.3150  175.9890  136.4970 C   0  0  0  0  0  3  0  0  0  0  0  0
  186.5930  175.5960  136.1100 C   0  0  0  0  0  3  0  0  0  0  0  0
  187.6740  176.3820  136.5030 C   0  0  0  0  0  3  0  0  0  0  0  0
  185.1460  177.1130  137.2390 N   0  0  0  0  0  0  0  0  0  0  0  0
  1 11  1  6  0  0  0
  1  9  1  0  0  0  0
  2 12  1  0  0  0  0
  3  8  1  0  0  0  0
  4 15  1  0  0  0  0
  6  5  1  0  0  0  0
  8  2  1  6  0  0  0
  8  1  1  0  0  0  0
  9  5  1  0  0  0  0
 10  3  2  0  0  0  0
 10 16  1  0  0  0  0
 12  6  1  0  0  0  0
 13  4  1  0  0  0  0
 13 14  2  0  0  0  0
 14 10  1  0  0  0  0
 15  7  2  0  0  0  0
 15  3  1  0  0  0  0
 16 11  2  0  0  0  0
 17 21  2  0  0  0  0
 17 18  1  0  0  0  0
 18 20  2  0  0  0  0
 19 14  1  0  0  0  0
 19 22  2  0  0  0  0
 20 22  1  0  0  0  0
 21 19  1  0  0  0  0
 23 17  1  0  0  0  0
 24  4  1  0  0  0  0
 25 24  1  0  0  0  0
 26 25  1  0  0  0  0
 27 26  1  0  0  0  0
 29 30  1  0  0  0  0
 29 27  1  0  0  0  0
 30 28  2  0  0  0  0
 31 34  2  0  0  0  0
 32 31  1  0  0  0  0
 32 33  2  0  0  0  0
 33 29  1  0  0  0  0
 34 30  1  0  0  0  0
M  END
>  <MODEL>
7

>  <REMARK>
 VINA RESULT:      -8.9      2.673      7.974
  Name = 
  6 active torsions:
  status: ('A' for Active; 'I' for Inactive)
    1  A    between atoms: C_3  and  N_13
    2  A    between atoms: C_3  and  C_17
    3  A    between atoms: N_5  and  C_18
    4  A    between atoms: C_12  and  C_28
    5  A    between atoms: C_17  and  C_29
    6  A    between atoms: C_18  and  C_29
                            x       y       z     vdW  Elec       q    Type
                         _______ _______ _______ _____ _____    ______ ____

>  <TORSDO>
F 6

$$$$
=
 OpenBabel10252415043D

 34 38  0  0  1  0  0  0  0  0999 V2000
  189.0960  177.5710  145.8910 C   0  0  1  0  0  3  0  0  0  0  0  0
  186.9300  178.6470  146.6850 C   0  0  0  0  0  2  0  0  0  0  0  0
  187.1120  177.8820  144.2740 C   0  0  0  0  0  0  0  0  0  0  0  0
  185.3990  178.3210  142.6540 N   0  0  0  0  0  0  0  0  0  0  0  0
  188.4310  176.4390  148.1110 C   0  0  0  0  0  2  0  0  0  0  0  0
  187.9260  177.6830  148.8490 C   0  0  0  0  0  2  0  0  0  0  0  0
  184.8820  178.1370  144.8610 O   0  0  0  0  0  0  0  0  0  0  0  0
  187.5590  177.6270  145.7090 C   0  0  1  0  0  3  0  0  0  0  0  0
  189.5440  176.7270  147.0970 C   0  0  0  0  0  2  0  0  0  0  0  0
  188.0350  177.7490  143.2190 C   0  0  0  0  0  0  0  0  0  0  0  0
  189.8500  177.1390  144.6750 C   0  0  0  0  0  3  0  0  0  0  0  0
  187.7360  178.9160  147.9610 C   0  0  0  0  0  2  0  0  0  0  0  0
  186.2960  178.2490  141.6720 N   0  0  0  0  0  0  0  0  0  0  0  0
  187.6070  177.9690  141.8930 C   0  0  0  0  0  0  0  0  0  0  0  0
  185.7610  178.1220  143.9550 C   0  0  0  0  0  0  0  0  0  0  0  0
  189.3600  177.2710  143.4840 N   0  0  0  0  0  0  0  0  0  0  0  0
  189.1890  178.5930  138.4860 C   0  0  0  0  0  0  0  0  0  0  0  0
  190.2230  177.6560  138.4960 C   0  0  0  0  0  3  0  0  0  0  0  0
  188.5150  177.8900  140.7180 C   0  0  0  0  0  0  0  0  0  0  0  0
  190.4040  176.8290  139.6080 C   0  0  0  0  0  3  0  0  0  0  0  0
  188.3380  178.7060  139.5890 C   0  0  0  0  0  3  0  0  0  0  0  0
  189.5520  176.9440  140.7100 C   0  0  0  0  0  3  0  0  0  0  0  0
  189.0060  179.4130  137.3820 O   0  0  0  0  0  1  0  0  0  0  0  0
  184.0090  178.5800  142.3000 C   0  0  0  0  0  2  0  0  0  0  0  0
  183.8270  178.4590  140.8000 C   0  0  0  0  0  2  0  0  0  0  0  0
  182.7280  177.4590  140.5000 C   0  0  0  0  0  2  0  0  0  0  0  0
  181.5310  178.1580  139.8720 C   0  0  0  0  0  2  0  0  0  0  0  0
  180.7630  180.8170  139.6810 O   0  0  0  0  0  0  0  0  0  0  0  0
  180.7590  178.8750  140.8840 N   0  0  0  0  0  0  0  0  0  0  0  0
  180.4140  180.1880  140.7160 C   0  0  0  0  0  0  0  0  0  0  0  0
  179.2930  180.1820  142.7980 C   0  0  0  0  0  3  0  0  0  0  0  0
  179.6340  178.8470  142.9930 C   0  0  0  0  0  3  0  0  0  0  0  0
  180.3800  178.2050  142.0060 C   0  0  0  0  0  3  0  0  0  0  0  0
  179.6860  180.8260  141.6700 N   0  0  0  0  0  0  0  0  0  0  0  0
  1 11  1  6  0  0  0
  1  9  1  0  0  0  0
  2 12  1  0  0  0  0
  3  8  1  0  0  0  0
  4 15  1  0  0  0  0
  5  6  1  0  0  0  0
  8  1  1  0  0  0  0
  8  2  1  1  0  0  0
  9  5  1  0  0  0  0
 10 16  1  0  0  0  0
 10  3  2  0  0  0  0
 12  6  1  0  0  0  0
 13 14  2  0  0  0  0
 13  4  1  0  0  0  0
 14 10  1  0  0  0  0
 15  3  1  0  0  0  0
 15  7  2  0  0  0  0
 16 11  2  0  0  0  0
 17 18  2  0  0  0  0
 17 21  1  0  0  0  0
 18 20  1  0  0  0  0
 19 14  1  0  0  0  0
 20 22  2  0  0  0  0
 21 19  2  0  0  0  0
 22 19  1  0  0  0  0
 23 17  1  0  0  0  0
 24  4  1  0  0  0  0
 25 24  1  0  0  0  0
 26 25  1  0  0  0  0
 27 26  1  0  0  0  0
 27 29  1  0  0  0  0
 28 30  2  0  0  0  0
 29 33  1  0  0  0  0
 30 29  1  0  0  0  0
 30 34  1  0  0  0  0
 31 32  1  0  0  0  0
 33 32  2  0  0  0  0
 34 31  2  0  0  0  0
M  END
>  <MODEL>
8

>  <REMARK>
 VINA RESULT:      -8.7      2.105      7.793
  Name = 
  6 active torsions:
  status: ('A' for Active; 'I' for Inactive)
    1  A    between atoms: C_3  and  N_13
    2  A    between atoms: C_3  and  C_17
    3  A    between atoms: N_5  and  C_18
    4  A    between atoms: C_12  and  C_28
    5  A    between atoms: C_17  and  C_29
    6  A    between atoms: C_18  and  C_29
                            x       y       z     vdW  Elec       q    Type
                         _______ _______ _______ _____ _____    ______ ____

>  <TORSDO>
F 6

$$$$
=
 OpenBabel10252415043D

 34 38  0  0  1  0  0  0  0  0999 V2000
  188.1250  177.5240  146.8440 C   0  0  1  0  0  3  0  0  0  0  0  0
  190.1740  176.6920  145.5860 C   0  0  0  0  0  2  0  0  0  0  0  0
  188.3560  177.9100  144.3060 C   0  0  0  0  0  0  0  0  0  0  0  0
  188.3910  178.1270  141.9170 N   0  0  0  0  0  0  0  0  0  0  0  0
  190.2080  178.2530  148.1780 C   0  0  0  0  0  2  0  0  0  0  0  0
  191.0460  176.9860  147.9850 C   0  0  0  0  0  2  0  0  0  0  0  0
  190.3300  177.9220  143.0870 O   0  0  0  0  0  0  0  0  0  0  0  0
  189.0710  177.7730  145.6440 C   0  0  1  0  0  3  0  0  0  0  0  0
  188.6950  178.0010  148.1900 C   0  0  0  0  0  2  0  0  0  0  0  0
  186.9610  178.1050  144.2730 C   0  0  0  0  0  0  0  0  0  0  0  0
  186.7440  178.0690  146.6690 C   0  0  0  0  0  3  0  0  0  0  0  0
  190.5080  176.0220  146.9250 C   0  0  0  0  0  2  0  0  0  0  0  0
  187.0650  178.2520  141.8990 N   0  0  0  0  0  0  0  0  0  0  0  0
  186.3110  178.2490  143.0300 C   0  0  0  0  0  0  0  0  0  0  0  0
  189.0690  177.9800  143.0920 C   0  0  0  0  0  0  0  0  0  0  0  0
  186.2350  178.2810  145.4970 N   0  0  0  0  0  0  0  0  0  0  0  0
  182.8060  178.4410  141.5540 C   0  0  0  0  0  0  0  0  0  0  0  0
  182.0650  178.8160  142.6750 C   0  0  0  0  0  3  0  0  0  0  0  0
  184.8410  178.4190  142.8930 C   0  0  0  0  0  0  0  0  0  0  0  0
  182.7040  179.0020  143.9040 C   0  0  0  0  0  3  0  0  0  0  0  0
  184.1870  178.2480  141.6620 C   0  0  0  0  0  3  0  0  0  0  0  0
  184.0840  178.8080  144.0100 C   0  0  0  0  0  3  0  0  0  0  0  0
  182.1740  178.2590  140.3320 O   0  0  0  0  0  1  0  0  0  0  0  0
  189.1070  178.1920  140.6490 C   0  0  0  0  0  2  0  0  0  0  0  0
  188.1350  178.0130  139.4990 C   0  0  0  0  0  2  0  0  0  0  0  0
  188.7800  178.4860  138.2110 C   0  0  0  0  0  2  0  0  0  0  0  0
  188.6580  177.4180  137.1330 C   0  0  0  0  0  2  0  0  0  0  0  0
  188.1820  174.6860  137.1250 O   0  0  0  0  0  0  0  0  0  0  0  0
  189.6870  176.3950  137.2990 N   0  0  0  0  0  0  0  0  0  0  0  0
  189.3740  175.0640  137.2790 C   0  0  0  0  0  0  0  0  0  0  0  0
  191.6500  174.5020  137.5930 C   0  0  0  0  0  3  0  0  0  0  0  0
  191.9930  175.8510  137.6190 C   0  0  0  0  0  3  0  0  0  0  0  0
  190.9770  176.7940  137.4670 C   0  0  0  0  0  3  0  0  0  0  0  0
  190.3550  174.1330  137.4250 N   0  0  0  0  0  0  0  0  0  0  0  0
  1 11  1  6  0  0  0
  1  9  1  0  0  0  0
  2 12  1  0  0  0  0
  3  8  1  0  0  0  0
  4 15  1  0  0  0  0
  5  9  1  0  0  0  0
  6  5  1  0  0  0  0
  7 15  2  0  0  0  0
  8  2  1  6  0  0  0
  8  1  1  0  0  0  0
 10  3  2  0  0  0  0
 10 16  1  0  0  0  0
 12  6  1  0  0  0  0
 13  4  1  0  0  0  0
 13 14  2  0  0  0  0
 14 10  1  0  0  0  0
 15  3  1  0  0  0  0
 16 11  2  0  0  0  0
 17 21  2  0  0  0  0
 17 18  1  0  0  0  0
 18 20  2  0  0  0  0
 19 14  1  0  0  0  0
 19 22  2  0  0  0  0
 20 22  1  0  0  0  0
 21 19  1  0  0  0  0
 23 17  1  0  0  0  0
 24  4  1  0  0  0  0
 25 24  1  0  0  0  0
 26 25  1  0  0  0  0
 27 29  1  0  0  0  0
 27 26  1  0  0  0  0
 28 30  2  0  0  0  0
 29 33  1  0  0  0  0
 30 29  1  0  0  0  0
 30 34  1  0  0  0  0
 31 32  1  0  0  0  0
 33 32  2  0  0  0  0
 34 31  2  0  0  0  0
M  END
>  <MODEL>
9

>  <REMARK>
 VINA RESULT:      -8.7      3.034      7.871
  Name = 
  6 active torsions:
  status: ('A' for Active; 'I' for Inactive)
    1  A    between atoms: C_3  and  N_13
    2  A    between atoms: C_3  and  C_17
    3  A    between atoms: N_5  and  C_18
    4  A    between atoms: C_12  and  C_28
    5  A    between atoms: C_17  and  C_29
    6  A    between atoms: C_18  and  C_29
                            x       y       z     vdW  Elec       q    Type
                         _______ _______ _______ _____ _____    ______ ____

>  <TORSDO>
F 6

$$$$
