=
 OpenBabel10262421423D

 30 36  0  0  1  0  0  0  0  0999 V2000
  186.8180  178.4970  142.1720 C   0  0  2  0  0  3  0  0  0  0  0  0
  188.3340  177.9110  140.1320 C   0  0  0  0  0  0  0  0  0  0  0  0
  191.2090  177.0090  143.9680 N   0  0  0  0  0  2  0  0  0  0  0  0
  186.7210  177.7380  143.4910 C   0  0  2  0  0  3  0  0  0  0  0  0
  185.4430  178.5710  141.6020 C   0  0  0  0  0  3  0  0  0  0  0  0
  183.2220  178.7470  144.8130 S   0  0  0  0  0  0  0  0  0  0  0  0
  187.0030  177.2150  146.4670 C   0  0  1  0  0  3  0  0  0  0  0  0
  184.7330  179.2720  143.9200 C   0  0  2  0  0  3  0  0  0  0  0  0
  183.1100  178.8940  142.0880 N   0  0  0  0  0  2  0  0  0  0  0  0
  188.4950  177.3250  146.1740 C   0  0  2  0  0  3  0  0  0  0  0  0
  190.4050  177.9830  144.6620 C   0  0  0  0  0  0  0  0  0  0  0  0
  184.4770  178.9650  142.4470 C   0  0  0  0  0  0  0  0  0  0  0  0
  186.0840  178.7130  144.4820 C   0  0  1  0  0  3  0  0  0  0  0  0
  189.5150  177.3260  139.7720 N   0  0  0  0  0  0  0  0  0  0  0  0
  189.0110  178.0370  147.3760 C   0  0  0  0  0  2  0  0  0  0  0  0
  186.8700  177.0600  147.8610 O   0  0  0  0  0  0  0  0  0  0  0  0
  181.0750  179.0150  143.2280 O   0  0  0  0  0  0  0  0  0  0  0  0
  187.5810  178.6510  139.1760 N   0  0  0  0  0  1  0  0  0  0  0  0
  190.7330  175.9560  143.0780 C   0  0  0  0  0  2  0  0  0  0  0  0
  190.2970  176.6600  140.6760 C   0  0  0  0  0  3  0  0  0  0  0  0
  182.3250  178.8900  143.2680 C   0  0  0  0  0  0  0  0  0  0  0  0
  187.9000  177.7900  141.4540 C   0  0  0  0  0  0  0  0  0  0  0  0
  188.1080  177.1420  143.7420 C   0  0  2  0  0  3  0  0  0  0  0  0
  190.9970  178.9500  145.2100 O   0  0  0  0  0  0  0  0  0  0  0  0
  188.8910  177.9130  144.8150 C   0  0  1  0  0  3  0  0  0  0  0  0
  188.0610  177.5470  148.4510 C   0  0  0  0  0  2  0  0  0  0  0  0
  186.2820  179.6530  146.7850 C   0  0  0  0  0  1  0  0  0  0  0  0
  189.8860  176.5570  142.0120 C   0  0  0  0  0  0  0  0  0  0  0  0
  188.6880  177.1440  142.3740 C   0  0  0  0  0  0  0  0  0  0  0  0
  186.0880  178.3740  145.9830 C   0  0  2  0  0  3  0  0  0  0  0  0
  1  5  1  6  0  0  0
  1  4  1  0  0  0  0
  2 22  1  0  0  0  0
  3 11  1  0  0  0  0
  4 23  1  0  0  0  0
  4 13  1  0  0  0  0
  5 12  2  0  0  0  0
  7 16  1  0  0  0  0
  8 13  1  0  0  0  0
  8  6  1  0  0  0  0
  9 12  1  0  0  0  0
  9 21  1  0  0  0  0
 10  7  1  0  0  0  0
 10 15  1  0  0  0  0
 11 25  1  0  0  0  0
 11 24  2  0  0  0  0
 12  8  1  0  0  0  0
 13 30  1  0  0  0  0
 14  2  2  0  0  0  0
 14 20  1  0  0  0  0
 15 26  1  0  0  0  0
 16 26  1  0  0  0  0
 17 21  2  0  0  0  0
 18  2  1  0  0  0  0
 19  3  1  0  0  0  0
 20 28  2  0  0  0  0
 21  6  1  0  0  0  0
 22  1  1  0  0  0  0
 22 29  2  0  0  0  0
 23 25  1  0  0  0  0
 25 10  1  0  0  0  0
 28 29  1  0  0  0  0
 28 19  1  0  0  0  0
 29 23  1  0  0  0  0
 30  7  1  0  0  0  0
 30 27  1  0  0  0  0
M  END
>  <MODEL>
1

>  <REMARK>
 VINA RESULT:     -10.8      0.000      0.000
  Name = 
  0 active torsions:
  status: ('A' for Active; 'I' for Inactive)
                            x       y       z     vdW  Elec       q    Type
                         _______ _______ _______ _____ _____    ______ ____

>  <TORSDO>
F 0

$$$$
=
 OpenBabel10262421423D

 30 36  0  0  1  0  0  0  0  0999 V2000
  187.8490  178.2100  145.6770 C   0  0  2  0  0  3  0  0  0  0  0  0
  185.4120  178.8320  146.3690 C   0  0  0  0  0  0  0  0  0  0  0  0
  185.2140  178.7440  141.4950 N   0  0  0  0  0  2  0  0  0  0  0  0
  188.2730  177.2670  144.5560 C   0  0  2  0  0  3  0  0  0  0  0  0
  188.4730  177.7090  146.9350 C   0  0  0  0  0  3  0  0  0  0  0  0
  191.8270  176.1740  145.6410 S   0  0  0  0  0  0  0  0  0  0  0  0
  189.4920  176.3990  141.9160 C   0  0  1  0  0  3  0  0  0  0  0  0
  190.5920  177.5260  145.5760 C   0  0  2  0  0  3  0  0  0  0  0  0
  190.4470  176.7570  147.9250 N   0  0  0  0  0  2  0  0  0  0  0  0
  188.3980  177.2750  141.3150 C   0  0  2  0  0  3  0  0  0  0  0  0
  186.6200  179.0520  141.5400 C   0  0  0  0  0  0  0  0  0  0  0  0
  189.7820  177.4160  146.8640 C   0  0  0  0  0  0  0  0  0  0  0  0
  189.7360  177.6020  144.2660 C   0  0  1  0  0  3  0  0  0  0  0  0
  184.1380  178.9770  145.8960 N   0  0  0  0  0  0  0  0  0  0  0  0
  189.0880  177.9080  140.1570 C   0  0  0  0  0  2  0  0  0  0  0  0
  190.2840  175.9410  140.8450 O   0  0  0  0  0  0  0  0  0  0  0  0
  192.4890  175.6540  148.1880 O   0  0  0  0  0  0  0  0  0  0  0  0
  185.7430  179.2760  147.6800 N   0  0  0  0  0  1  0  0  0  0  0  0
  184.5020  177.7810  142.3280 C   0  0  0  0  0  2  0  0  0  0  0  0
  183.7960  178.6200  144.6200 C   0  0  0  0  0  3  0  0  0  0  0  0
  191.6240  176.1490  147.4220 C   0  0  0  0  0  0  0  0  0  0  0  0
  186.3790  178.2690  145.5320 C   0  0  0  0  0  0  0  0  0  0  0  0
  187.1990  177.3880  143.4710 C   0  0  2  0  0  3  0  0  0  0  0  0
  187.0210  180.0610  140.9040 O   0  0  0  0  0  0  0  0  0  0  0  0
  187.6700  178.2250  142.2720 C   0  0  1  0  0  3  0  0  0  0  0  0
  190.0720  176.8260  139.7610 C   0  0  0  0  0  2  0  0  0  0  0  0
  191.3670  178.0670  142.4360 C   0  0  0  0  0  1  0  0  0  0  0  0
  184.7640  178.0810  143.7620 C   0  0  0  0  0  0  0  0  0  0  0  0
  186.0510  177.9290  144.2430 C   0  0  0  0  0  0  0  0  0  0  0  0
  190.4040  177.0330  143.0030 C   0  0  2  0  0  3  0  0  0  0  0  0
  1  5  1  1  0  0  0
  2 18  1  0  0  0  0
  3 11  1  0  0  0  0
  3 19  1  0  0  0  0
  4  1  1  0  0  0  0
  6 21  1  0  0  0  0
  7 30  1  0  0  0  0
  8  6  1  0  0  0  0
  8 12  1  0  0  0  0
 10  7  1  0  0  0  0
 10 25  1  0  0  0  0
 11 25  1  0  0  0  0
 12  5  2  0  0  0  0
 12  9  1  0  0  0  0
 13  4  1  0  0  0  0
 13  8  1  0  0  0  0
 14  2  1  0  0  0  0
 15 10  1  0  0  0  0
 16  7  1  0  0  0  0
 19 28  1  0  0  0  0
 20 14  2  0  0  0  0
 21  9  1  0  0  0  0
 21 17  2  0  0  0  0
 22  1  1  0  0  0  0
 22  2  2  0  0  0  0
 23 29  1  0  0  0  0
 23  4  1  0  0  0  0
 24 11  2  0  0  0  0
 25 23  1  0  0  0  0
 26 15  1  0  0  0  0
 26 16  1  0  0  0  0
 27 30  1  0  0  0  0
 28 29  2  0  0  0  0
 28 20  1  0  0  0  0
 29 22  1  0  0  0  0
 30 13  1  0  0  0  0
M  END
>  <MODEL>
2

>  <REMARK>
 VINA RESULT:     -10.5      3.029      6.852
  Name = 
  0 active torsions:
  status: ('A' for Active; 'I' for Inactive)
                            x       y       z     vdW  Elec       q    Type
                         _______ _______ _______ _____ _____    ______ ____

>  <TORSDO>
F 0

$$$$
=
 OpenBabel10262421423D

 30 36  0  0  1  0  0  0  0  0999 V2000
  187.2100  178.6240  140.8250 C   0  0  2  0  0  3  0  0  0  0  0  0
  189.1070  178.2500  139.0730 C   0  0  0  0  0  0  0  0  0  0  0  0
  191.3260  177.4090  143.3350 N   0  0  0  0  0  2  0  0  0  0  0  0
  186.9470  177.8010  142.0820 C   0  0  2  0  0  3  0  0  0  0  0  0
  185.9570  178.6130  140.0190 C   0  0  0  0  0  3  0  0  0  0  0  0
  183.1970  178.4710  142.7830 S   0  0  0  0  0  0  0  0  0  0  0  0
  186.7430  177.1700  145.0430 C   0  0  1  0  0  3  0  0  0  0  0  0
  184.7920  179.1530  142.1920 C   0  0  2  0  0  3  0  0  0  0  0  0
  183.5560  178.7300  140.0880 N   0  0  0  0  0  2  0  0  0  0  0  0
  188.2490  177.4110  145.0260 C   0  0  2  0  0  3  0  0  0  0  0  0
  190.3330  178.2840  143.9020 C   0  0  0  0  0  0  0  0  0  0  0  0
  184.8270  178.8920  140.6890 C   0  0  0  0  0  0  0  0  0  0  0  0
  186.0640  178.6780  142.9710 C   0  0  1  0  0  3  0  0  0  0  0  0
  190.3790  177.7760  138.9140 N   0  0  0  0  0  0  0  0  0  0  0  0
  188.4820  178.1070  146.3220 C   0  0  0  0  0  2  0  0  0  0  0  0
  186.3800  176.9440  146.3850 O   0  0  0  0  0  0  0  0  0  0  0  0
  181.3480  178.6390  140.8470 O   0  0  0  0  0  0  0  0  0  0  0  0
  188.4750  178.9700  138.0200 N   0  0  0  0  0  1  0  0  0  0  0  0
  191.1070  176.3620  142.3430 C   0  0  0  0  0  2  0  0  0  0  0  0
  191.0430  177.1350  139.9240 C   0  0  0  0  0  3  0  0  0  0  0  0
  182.5780  178.6120  141.1070 C   0  0  0  0  0  0  0  0  0  0  0  0
  188.4580  178.0360  140.2920 C   0  0  0  0  0  0  0  0  0  0  0  0
  188.3140  177.3060  142.5600 C   0  0  2  0  0  3  0  0  0  0  0  0
  190.7340  179.2690  144.5750 O   0  0  0  0  0  0  0  0  0  0  0  0
  188.8270  178.0880  143.7790 C   0  0  1  0  0  3  0  0  0  0  0  0
  187.4030  177.4970  147.1930 C   0  0  0  0  0  2  0  0  0  0  0  0
  185.7720  179.5270  145.2980 C   0  0  0  0  0  1  0  0  0  0  0  0
  190.4130  176.9400  141.1610 C   0  0  0  0  0  0  0  0  0  0  0  0
  189.1240  177.4150  141.3190 C   0  0  0  0  0  0  0  0  0  0  0  0
  185.8330  178.2740  144.4370 C   0  0  2  0  0  3  0  0  0  0  0  0
  1  5  1  6  0  0  0
  1  4  1  0  0  0  0
  2 22  1  0  0  0  0
  3 11  1  0  0  0  0
  4 23  1  0  0  0  0
  4 13  1  0  0  0  0
  5 12  2  0  0  0  0
  7 16  1  0  0  0  0
  8  6  1  0  0  0  0
  8 13  1  0  0  0  0
  9 12  1  0  0  0  0
  9 21  1  0  0  0  0
 10  7  1  0  0  0  0
 10 15  1  0  0  0  0
 11 24  2  0  0  0  0
 12  8  1  0  0  0  0
 13 30  1  0  0  0  0
 14  2  2  0  0  0  0
 14 20  1  0  0  0  0
 15 26  1  0  0  0  0
 16 26  1  0  0  0  0
 17 21  2  0  0  0  0
 18  2  1  0  0  0  0
 19  3  1  0  0  0  0
 20 28  2  0  0  0  0
 21  6  1  0  0  0  0
 22  1  1  0  0  0  0
 22 29  2  0  0  0  0
 23 25  1  0  0  0  0
 25 11  1  0  0  0  0
 25 10  1  0  0  0  0
 28 29  1  0  0  0  0
 28 19  1  0  0  0  0
 29 23  1  0  0  0  0
 30  7  1  0  0  0  0
 30 27  1  0  0  0  0
M  END
>  <MODEL>
3

>  <REMARK>
 VINA RESULT:     -10.0      1.273      1.475
  Name = 
  0 active torsions:
  status: ('A' for Active; 'I' for Inactive)
                            x       y       z     vdW  Elec       q    Type
                         _______ _______ _______ _____ _____    ______ ____

>  <TORSDO>
F 0

$$$$
=
 OpenBabel10262421423D

 30 36  0  0  1  0  0  0  0  0999 V2000
  187.8960  177.3940  142.1180 C   0  0  2  0  0  3  0  0  0  0  0  0
  190.3500  176.8940  141.3910 C   0  0  0  0  0  0  0  0  0  0  0  0
  188.0440  177.6210  137.1530 N   0  0  0  0  0  2  0  0  0  0  0  0
  186.9540  178.4340  141.5190 C   0  0  2  0  0  3  0  0  0  0  0  0
  187.9930  177.6760  143.5780 C   0  0  0  0  0  3  0  0  0  0  0  0
  184.4370  179.0790  144.3910 S   0  0  0  0  0  0  0  0  0  0  0  0
  184.5570  179.5270  140.0140 C   0  0  1  0  0  3  0  0  0  0  0  0
  185.4770  177.8540  143.5100 C   0  0  2  0  0  3  0  0  0  0  0  0
  186.7900  178.3260  145.5560 N   0  0  0  0  0  2  0  0  0  0  0  0
  185.2000  178.8300  138.8200 C   0  0  2  0  0  3  0  0  0  0  0  0
  186.8580  177.1940  137.8500 C   0  0  0  0  0  0  0  0  0  0  0  0
  186.8280  177.8660  144.2190 C   0  0  0  0  0  0  0  0  0  0  0  0
  185.5490  178.0180  141.9550 C   0  0  1  0  0  3  0  0  0  0  0  0
  191.2090  176.9190  140.3270 N   0  0  0  0  0  0  0  0  0  0  0  0
  184.0220  178.2950  138.0830 C   0  0  0  0  0  2  0  0  0  0  0  0
  183.3280  180.0510  139.5680 O   0  0  0  0  0  0  0  0  0  0  0  0
  185.1560  179.2130  146.9720 O   0  0  0  0  0  0  0  0  0  0  0  0
  190.7340  176.2600  142.6060 N   0  0  0  0  0  1  0  0  0  0  0  0
  189.0740  178.5250  137.6530 C   0  0  0  0  0  2  0  0  0  0  0  0
  190.8530  177.4620  139.1230 C   0  0  0  0  0  3  0  0  0  0  0  0
  185.5160  178.8930  145.8100 C   0  0  0  0  0  0  0  0  0  0  0  0
  189.0890  177.4770  141.2490 C   0  0  0  0  0  0  0  0  0  0  0  0
  187.3280  178.5430  140.0380 C   0  0  2  0  0  3  0  0  0  0  0  0
  186.1970  176.2440  137.3550 O   0  0  0  0  0  0  0  0  0  0  0  0
  186.3200  177.8290  139.1260 C   0  0  1  0  0  3  0  0  0  0  0  0
  182.9650  179.3330  138.4030 C   0  0  0  0  0  2  0  0  0  0  0  0
  183.2180  177.6560  141.1420 C   0  0  0  0  0  1  0  0  0  0  0  0
  189.5790  178.0240  138.9600 C   0  0  0  0  0  0  0  0  0  0  0  0
  188.7130  178.0050  140.0380 C   0  0  0  0  0  0  0  0  0  0  0  0
  184.3280  178.6860  141.3000 C   0  0  2  0  0  3  0  0  0  0  0  0
  1  5  1  1  0  0  0
  2 18  1  0  0  0  0
  3 19  1  0  0  0  0
  3 11  1  0  0  0  0
  4 13  1  0  0  0  0
  4  1  1  0  0  0  0
  5 12  2  0  0  0  0
  6 21  1  0  0  0  0
  7 30  1  0  0  0  0
  8 12  1  0  0  0  0
  8  6  1  0  0  0  0
  9 21  1  0  0  0  0
 10 25  1  0  0  0  0
 10  7  1  0  0  0  0
 11 25  1  0  0  0  0
 12  9  1  0  0  0  0
 13  8  1  0  0  0  0
 14  2  2  0  0  0  0
 15 26  1  0  0  0  0
 15 10  1  0  0  0  0
 16  7  1  0  0  0  0
 19 28  1  0  0  0  0
 20 14  1  0  0  0  0
 21 17  2  0  0  0  0
 22  2  1  0  0  0  0
 22  1  1  0  0  0  0
 23 29  1  0  0  0  0
 23  4  1  0  0  0  0
 24 11  2  0  0  0  0
 25 23  1  0  0  0  0
 26 16  1  0  0  0  0
 27 30  1  0  0  0  0
 28 20  2  0  0  0  0
 28 29  1  0  0  0  0
 29 22  2  0  0  0  0
 30 13  1  0  0  0  0
M  END
>  <MODEL>
4

>  <REMARK>
 VINA RESULT:      -8.9      2.694      5.767
  Name = 
  0 active torsions:
  status: ('A' for Active; 'I' for Inactive)
                            x       y       z     vdW  Elec       q    Type
                         _______ _______ _______ _____ _____    ______ ____

>  <TORSDO>
F 0

$$$$
=
 OpenBabel10262421423D

 30 36  0  0  1  0  0  0  0  0999 V2000
  189.3550  177.8230  143.6050 C   0  0  2  0  0  3  0  0  0  0  0  0
  190.6420  177.3400  145.8220 C   0  0  0  0  0  0  0  0  0  0  0  0
  186.1270  178.3890  147.3440 N   0  0  0  0  0  2  0  0  0  0  0  0
  187.9300  177.4020  143.2600 C   0  0  2  0  0  3  0  0  0  0  0  0
  190.2460  177.2870  142.5370 C   0  0  0  0  0  3  0  0  0  0  0  0
  187.9360  177.4250  139.3860 S   0  0  0  0  0  0  0  0  0  0  0  0
  184.9780  177.7080  142.6330 C   0  0  1  0  0  3  0  0  0  0  0  0
  188.5400  178.2160  140.9250 C   0  0  2  0  0  3  0  0  0  0  0  0
  190.4960  176.8930  140.1780 N   0  0  0  0  0  2  0  0  0  0  0  0
  184.9040  178.2520  144.0550 C   0  0  2  0  0  3  0  0  0  0  0  0
  186.0140  179.1590  146.1320 C   0  0  0  0  0  0  0  0  0  0  0  0
  189.8470  177.5090  141.2740 C   0  0  0  0  0  0  0  0  0  0  0  0
  187.5060  178.3000  142.0970 C   0  0  1  0  0  3  0  0  0  0  0  0
  190.4810  177.1290  147.1630 N   0  0  0  0  0  0  0  0  0  0  0  0
  183.9100  179.3540  143.9300 C   0  0  0  0  0  2  0  0  0  0  0  0
  183.6900  177.8420  142.0760 O   0  0  0  0  0  0  0  0  0  0  0  0
  190.0100  176.5670  137.9160 O   0  0  0  0  0  0  0  0  0  0  0  0
  191.9430  177.5360  145.2790 N   0  0  0  0  0  1  0  0  0  0  0  0
  186.7160  177.0620  147.4850 C   0  0  0  0  0  2  0  0  0  0  0  0
  189.2440  177.0000  147.7310 C   0  0  0  0  0  3  0  0  0  0  0  0
  189.6170  176.8920  139.0660 C   0  0  0  0  0  0  0  0  0  0  0  0
  189.5070  177.3850  145.0090 C   0  0  0  0  0  0  0  0  0  0  0  0
  187.1580  177.3930  144.5820 C   0  0  2  0  0  3  0  0  0  0  0  0
  185.6800  180.3680  146.2340 O   0  0  0  0  0  0  0  0  0  0  0  0
  186.2340  178.6110  144.7280 C   0  0  1  0  0  3  0  0  0  0  0  0
  183.0110  178.8300  142.8290 C   0  0  0  0  0  2  0  0  0  0  0  0
  185.6630  179.7530  141.2510 C   0  0  0  0  0  1  0  0  0  0  0  0
  188.0960  177.0720  146.9300 C   0  0  0  0  0  0  0  0  0  0  0  0
  188.2590  177.2790  145.5720 C   0  0  0  0  0  0  0  0  0  0  0  0
  186.0260  178.3380  141.6760 C   0  0  2  0  0  3  0  0  0  0  0  0
  1  5  1  6  0  0  0
  1 22  1  0  0  0  0
  2 14  1  0  0  0  0
  3 19  1  0  0  0  0
  4  1  1  0  0  0  0
  4 23  1  0  0  0  0
  6  8  1  0  0  0  0
  7 10  1  0  0  0  0
  8 12  1  0  0  0  0
  8 13  1  0  0  0  0
  9 12  1  0  0  0  0
 10 25  1  0  0  0  0
 11 24  2  0  0  0  0
 11  3  1  0  0  0  0
 12  5  2  0  0  0  0
 13  4  1  0  0  0  0
 14 20  2  0  0  0  0
 15 10  1  0  0  0  0
 16  7  1  0  0  0  0
 16 26  1  0  0  0  0
 17 21  2  0  0  0  0
 18  2  1  0  0  0  0
 21  6  1  0  0  0  0
 21  9  1  0  0  0  0
 22 29  1  0  0  0  0
 22  2  2  0  0  0  0
 23 25  1  0  0  0  0
 23 29  1  0  0  0  0
 25 11  1  0  0  0  0
 26 15  1  0  0  0  0
 27 30  1  0  0  0  0
 28 19  1  0  0  0  0
 28 20  1  0  0  0  0
 29 28  2  0  0  0  0
 30 13  1  0  0  0  0
 30  7  1  0  0  0  0
M  END
>  <MODEL>
5

>  <REMARK>
 VINA RESULT:      -8.6      2.662      5.859
  Name = 
  0 active torsions:
  status: ('A' for Active; 'I' for Inactive)
                            x       y       z     vdW  Elec       q    Type
                         _______ _______ _______ _____ _____    ______ ____

>  <TORSDO>
F 0

$$$$
=
 OpenBabel10262421423D

 30 36  0  0  1  0  0  0  0  0999 V2000
  188.3890  178.3270  141.7730 C   0  0  2  0  0  3  0  0  0  0  0  0
  189.8200  178.1390  143.9460 C   0  0  0  0  0  0  0  0  0  0  0  0
  185.2780  178.7100  145.6330 N   0  0  0  0  0  2  0  0  0  0  0  0
  187.0150  177.7140  141.5230 C   0  0  2  0  0  3  0  0  0  0  0  0
  189.2930  177.8430  140.6920 C   0  0  0  0  0  3  0  0  0  0  0  0
  186.8510  177.5080  137.6580 S   0  0  0  0  0  0  0  0  0  0  0  0
  184.0230  177.6140  141.0290 C   0  0  1  0  0  3  0  0  0  0  0  0
  187.4160  178.4570  139.1200 C   0  0  2  0  0  3  0  0  0  0  0  0
  189.4900  177.3440  138.3480 N   0  0  0  0  0  2  0  0  0  0  0  0
  183.9420  178.2290  142.4220 C   0  0  2  0  0  3  0  0  0  0  0  0
  185.0170  179.3870  144.3890 C   0  0  0  0  0  0  0  0  0  0  0  0
  188.8150  177.9390  139.4400 C   0  0  0  0  0  0  0  0  0  0  0  0
  186.4310  178.4820  140.3370 C   0  0  1  0  0  3  0  0  0  0  0  0
  189.7450  177.9890  145.3030 N   0  0  0  0  0  0  0  0  0  0  0  0
  182.8130  179.1910  142.2880 C   0  0  0  0  0  2  0  0  0  0  0  0
  182.7060  177.5560  140.5310 O   0  0  0  0  0  0  0  0  0  0  0  0
  188.9510  176.8280  136.1340 O   0  0  0  0  0  0  0  0  0  0  0  0
  191.0620  178.4610  143.3290 N   0  0  0  0  0  1  0  0  0  0  0  0
  186.0350  177.4760  145.8160 C   0  0  0  0  0  2  0  0  0  0  0  0
  188.5590  177.7420  145.9380 C   0  0  0  0  0  3  0  0  0  0  0  0
  188.5710  177.1690  137.2830 C   0  0  0  0  0  0  0  0  0  0  0  0
  188.6540  177.9950  143.1890 C   0  0  0  0  0  0  0  0  0  0  0  0
  186.3070  177.6880  142.8800 C   0  0  2  0  0  3  0  0  0  0  0  0
  184.5380  180.5500  144.4440 O   0  0  0  0  0  0  0  0  0  0  0  0
  185.2440  178.7890  143.0070 C   0  0  1  0  0  3  0  0  0  0  0  0
  181.9410  178.4950  141.2630 C   0  0  0  0  0  2  0  0  0  0  0  0
  184.3850  179.6440  139.5070 C   0  0  0  0  0  1  0  0  0  0  0  0
  187.3780  177.6240  145.1920 C   0  0  0  0  0  0  0  0  0  0  0  0
  187.4550  177.7690  143.8190 C   0  0  0  0  0  0  0  0  0  0  0  0
  184.9420  178.3120  139.9880 C   0  0  2  0  0  3  0  0  0  0  0  0
  1  5  1  6  0  0  0
  1 22  1  0  0  0  0
  2 14  1  0  0  0  0
  3 19  1  0  0  0  0
  4  1  1  0  0  0  0
  4 23  1  0  0  0  0
  6  8  1  0  0  0  0
  7 10  1  0  0  0  0
  8 12  1  0  0  0  0
  8 13  1  0  0  0  0
  9 12  1  0  0  0  0
 10 25  1  0  0  0  0
 11 24  2  0  0  0  0
 11  3  1  0  0  0  0
 12  5  2  0  0  0  0
 13  4  1  0  0  0  0
 14 20  2  0  0  0  0
 15 10  1  0  0  0  0
 16  7  1  0  0  0  0
 16 26  1  0  0  0  0
 17 21  2  0  0  0  0
 18  2  1  0  0  0  0
 21  6  1  0  0  0  0
 21  9  1  0  0  0  0
 22 29  1  0  0  0  0
 22  2  2  0  0  0  0
 23 25  1  0  0  0  0
 23 29  1  0  0  0  0
 25 11  1  0  0  0  0
 26 15  1  0  0  0  0
 27 30  1  0  0  0  0
 28 19  1  0  0  0  0
 28 20  1  0  0  0  0
 29 28  2  0  0  0  0
 30 13  1  0  0  0  0
 30  7  1  0  0  0  0
M  END
>  <MODEL>
6

>  <REMARK>
 VINA RESULT:      -8.4      2.918      6.103
  Name = 
  0 active torsions:
  status: ('A' for Active; 'I' for Inactive)
                            x       y       z     vdW  Elec       q    Type
                         _______ _______ _______ _____ _____    ______ ____

>  <TORSDO>
F 0

$$$$
=
 OpenBabel10262421423D

 30 36  0  0  1  0  0  0  0  0999 V2000
  185.8760  178.0700  141.2880 C   0  0  2  0  0  3  0  0  0  0  0  0
  183.4490  178.6500  142.0460 C   0  0  0  0  0  0  0  0  0  0  0  0
  185.8670  178.1970  146.2580 N   0  0  0  0  0  2  0  0  0  0  0  0
  187.1760  178.5880  141.8950 C   0  0  2  0  0  3  0  0  0  0  0  0
  185.9010  178.4080  139.8370 C   0  0  0  0  0  3  0  0  0  0  0  0
  189.7110  178.1720  138.9960 S   0  0  0  0  0  0  0  0  0  0  0  0
  189.8190  178.5030  143.3840 C   0  0  1  0  0  3  0  0  0  0  0  0
  188.2510  177.4860  139.8650 C   0  0  2  0  0  3  0  0  0  0  0  0
  187.2560  178.5350  137.8540 N   0  0  0  0  0  2  0  0  0  0  0  0
  188.9450  178.1150  144.5720 C   0  0  2  0  0  3  0  0  0  0  0  0
  186.7510  177.3220  145.5320 C   0  0  0  0  0  0  0  0  0  0  0  0
  187.0310  178.0970  139.1810 C   0  0  0  0  0  0  0  0  0  0  0  0
  188.2640  177.6210  141.4250 C   0  0  1  0  0  3  0  0  0  0  0  0
  182.6900  179.0110  143.1240 N   0  0  0  0  0  0  0  0  0  0  0  0
  189.7840  177.1050  145.2760 C   0  0  0  0  0  2  0  0  0  0  0  0
  191.1570  178.4360  143.8200 O   0  0  0  0  0  0  0  0  0  0  0  0
  189.1040  178.6740  136.4320 O   0  0  0  0  0  0  0  0  0  0  0  0
  182.8230  178.2780  140.8220 N   0  0  0  0  0  1  0  0  0  0  0  0
  185.3220  179.4690  145.7980 C   0  0  0  0  0  2  0  0  0  0  0  0
  183.2510  179.3140  144.3340 C   0  0  0  0  0  3  0  0  0  0  0  0
  188.6480  178.5070  137.5910 C   0  0  0  0  0  0  0  0  0  0  0  0
  184.8390  178.6320  142.1800 C   0  0  0  0  0  0  0  0  0  0  0  0
  186.8930  178.8040  143.3840 C   0  0  2  0  0  3  0  0  0  0  0  0
  186.9420  176.1660  145.9930 O   0  0  0  0  0  0  0  0  0  0  0  0
  187.5020  177.7010  144.2620 C   0  0  1  0  0  3  0  0  0  0  0  0
  191.1820  177.5980  144.9620 C   0  0  0  0  0  2  0  0  0  0  0  0
  190.2180  176.2720  142.1890 C   0  0  0  0  0  1  0  0  0  0  0  0
  184.6440  179.2710  144.4890 C   0  0  0  0  0  0  0  0  0  0  0  0
  185.4110  178.9120  143.3960 C   0  0  0  0  0  0  0  0  0  0  0  0
  189.6580  177.6810  142.0750 C   0  0  2  0  0  3  0  0  0  0  0  0
  1  5  1  6  0  0  0
  1  4  1  0  0  0  0
  1 22  1  0  0  0  0
  2 22  2  0  0  0  0
  2 14  1  0  0  0  0
  4 23  1  0  0  0  0
  6  8  1  0  0  0  0
  7 16  1  0  0  0  0
  7 10  1  0  0  0  0
  8 13  1  0  0  0  0
  9 12  1  0  0  0  0
 10 15  1  0  0  0  0
 11 24  2  0  0  0  0
 11  3  1  0  0  0  0
 12  5  2  0  0  0  0
 12  8  1  0  0  0  0
 13  4  1  0  0  0  0
 13 30  1  0  0  0  0
 14 20  2  0  0  0  0
 16 26  1  0  0  0  0
 17 21  2  0  0  0  0
 18  2  1  0  0  0  0
 19  3  1  0  0  0  0
 20 28  1  0  0  0  0
 21  9  1  0  0  0  0
 21  6  1  0  0  0  0
 22 29  1  0  0  0  0
 23 29  1  0  0  0  0
 23 25  1  0  0  0  0
 25 10  1  0  0  0  0
 25 11  1  0  0  0  0
 26 15  1  0  0  0  0
 28 19  1  0  0  0  0
 29 28  2  0  0  0  0
 30 27  1  0  0  0  0
 30  7  1  0  0  0  0
M  END
>  <MODEL>
7

>  <REMARK>
 VINA RESULT:      -8.2      2.735      5.517
  Name = 
  0 active torsions:
  status: ('A' for Active; 'I' for Inactive)
                            x       y       z     vdW  Elec       q    Type
                         _______ _______ _______ _____ _____    ______ ____

>  <TORSDO>
F 0

$$$$
=
 OpenBabel10262421423D

 30 36  0  0  1  0  0  0  0  0999 V2000
  188.5130  177.1980  139.4070 C   0  0  2  0  0  3  0  0  0  0  0  0
  186.1550  177.8330  138.4900 C   0  0  0  0  0  0  0  0  0  0  0  0
  185.7190  178.5280  143.2990 N   0  0  0  0  0  2  0  0  0  0  0  0
  189.2900  177.9070  140.5120 C   0  0  2  0  0  3  0  0  0  0  0  0
  189.3850  177.1740  138.1990 C   0  0  0  0  0  3  0  0  0  0  0  0
  192.9590  176.9150  139.7620 S   0  0  0  0  0  0  0  0  0  0  0  0
  190.6100  178.3070  143.2140 C   0  0  1  0  0  3  0  0  0  0  0  0
  191.2020  176.3960  139.7700 C   0  0  2  0  0  3  0  0  0  0  0  0
  191.6260  176.8770  137.3770 N   0  0  0  0  0  2  0  0  0  0  0  0
  189.1850  178.1800  143.7420 C   0  0  2  0  0  3  0  0  0  0  0  0
  186.7630  177.5440  143.4270 C   0  0  0  0  0  0  0  0  0  0  0  0
  190.6500  176.7660  138.3960 C   0  0  0  0  0  0  0  0  0  0  0  0
  190.3480  176.9060  140.9790 C   0  0  1  0  0  3  0  0  0  0  0  0
  184.9630  178.4090  138.8280 N   0  0  0  0  0  0  0  0  0  0  0  0
  189.3730  177.4110  145.0040 C   0  0  0  0  0  2  0  0  0  0  0  0
  191.4540  178.4100  144.3380 O   0  0  0  0  0  0  0  0  0  0  0  0
  193.9570  176.7510  137.2770 O   0  0  0  0  0  0  0  0  0  0  0  0
  186.2930  177.1460  137.2510 N   0  0  0  0  0  1  0  0  0  0  0  0
  185.6620  179.6240  142.3380 C   0  0  0  0  0  2  0  0  0  0  0  0
  184.7730  179.0230  140.0350 C   0  0  0  0  0  3  0  0  0  0  0  0
  192.9130  176.8500  137.9710 C   0  0  0  0  0  0  0  0  0  0  0  0
  187.2180  177.9110  139.3930 C   0  0  0  0  0  0  0  0  0  0  0  0
  188.2420  178.4650  141.4780 C   0  0  2  0  0  3  0  0  0  0  0  0
  186.5430  176.5450  144.1600 O   0  0  0  0  0  0  0  0  0  0  0  0
  188.1340  177.6370  142.7670 C   0  0  1  0  0  3  0  0  0  0  0  0
  190.7460  177.8770  145.4420 C   0  0  0  0  0  2  0  0  0  0  0  0
  191.3820  175.8730  143.0010 C   0  0  0  0  0  1  0  0  0  0  0  0
  185.8230  179.0820  140.9620 C   0  0  0  0  0  0  0  0  0  0  0  0
  187.0310  178.5050  140.6170 C   0  0  0  0  0  0  0  0  0  0  0  0
  191.1310  177.1860  142.2740 C   0  0  2  0  0  3  0  0  0  0  0  0
  1  5  1  6  0  0  0
  1  4  1  0  0  0  0
  2 14  2  0  0  0  0
  2 22  1  0  0  0  0
  3 11  1  0  0  0  0
  4 13  1  0  0  0  0
  4 23  1  0  0  0  0
  5 12  2  0  0  0  0
  6  8  1  0  0  0  0
  7 10  1  0  0  0  0
  7 16  1  0  0  0  0
  8 13  1  0  0  0  0
  9 21  1  0  0  0  0
  9 12  1  0  0  0  0
 10 15  1  0  0  0  0
 11 24  2  0  0  0  0
 12  8  1  0  0  0  0
 13 30  1  0  0  0  0
 14 20  1  0  0  0  0
 15 26  1  0  0  0  0
 16 26  1  0  0  0  0
 17 21  2  0  0  0  0
 18  2  1  0  0  0  0
 19  3  1  0  0  0  0
 20 28  2  0  0  0  0
 21  6  1  0  0  0  0
 22  1  1  0  0  0  0
 22 29  2  0  0  0  0
 23 25  1  0  0  0  0
 25 11  1  0  0  0  0
 25 10  1  0  0  0  0
 28 19  1  0  0  0  0
 29 28  1  0  0  0  0
 29 23  1  0  0  0  0
 30 27  1  0  0  0  0
 30  7  1  0  0  0  0
M  END
>  <MODEL>
8

>  <REMARK>
 VINA RESULT:      -8.1      3.260      6.357
  Name = 
  0 active torsions:
  status: ('A' for Active; 'I' for Inactive)
                            x       y       z     vdW  Elec       q    Type
                         _______ _______ _______ _____ _____    ______ ____

>  <TORSDO>
F 0

$$$$
=
 OpenBabel10262421423D

 30 36  0  0  1  0  0  0  0  0999 V2000
  187.0790  177.5960  143.5020 C   0  0  2  0  0  3  0  0  0  0  0  0
  184.7840  178.4960  144.3560 C   0  0  0  0  0  0  0  0  0  0  0  0
  187.2370  177.5750  148.4710 N   0  0  0  0  0  2  0  0  0  0  0  0
  188.4570  177.9050  144.0770 C   0  0  2  0  0  3  0  0  0  0  0  0
  187.1080  177.9710  142.0590 C   0  0  0  0  0  3  0  0  0  0  0  0
  190.8170  177.2170  141.0830 S   0  0  0  0  0  0  0  0  0  0  0  0
  191.1040  177.3990  145.4720 C   0  0  1  0  0  3  0  0  0  0  0  0
  189.3000  176.7220  141.9850 C   0  0  2  0  0  3  0  0  0  0  0  0
  188.4060  177.9620  140.0350 N   0  0  0  0  0  2  0  0  0  0  0  0
  190.2200  177.1040  146.6790 C   0  0  2  0  0  3  0  0  0  0  0  0
  187.9640  176.6050  147.6930 C   0  0  0  0  0  0  0  0  0  0  0  0
  188.1610  177.5220  141.3580 C   0  0  0  0  0  0  0  0  0  0  0  0
  189.3800  176.8070  143.5460 C   0  0  1  0  0  3  0  0  0  0  0  0
  184.1170  178.9280  145.4690 N   0  0  0  0  0  0  0  0  0  0  0  0
  190.9250  175.9650  147.3280 C   0  0  0  0  0  2  0  0  0  0  0  0
  192.4310  177.1280  145.8610 O   0  0  0  0  0  0  0  0  0  0  0  0
  190.2110  177.8780  138.5550 O   0  0  0  0  0  0  0  0  0  0  0  0
  184.0740  178.2530  143.1460 N   0  0  0  0  0  1  0  0  0  0  0  0
  186.8680  178.9260  148.0620 C   0  0  0  0  0  2  0  0  0  0  0  0
  184.7530  179.1120  146.6660 C   0  0  0  0  0  3  0  0  0  0  0  0
  189.7720  177.7430  139.7250 C   0  0  0  0  0  0  0  0  0  0  0  0
  186.1600  178.2740  144.4420 C   0  0  0  0  0  0  0  0  0  0  0  0
  188.2530  178.1150  145.5800 C   0  0  2  0  0  3  0  0  0  0  0  0
  188.0010  175.4200  148.1180 O   0  0  0  0  0  0  0  0  0  0  0  0
  188.7230  176.9100  146.4090 C   0  0  1  0  0  3  0  0  0  0  0  0
  192.3690  176.2620  146.9790 C   0  0  0  0  0  2  0  0  0  0  0  0
  191.1420  175.1700  144.2090 C   0  0  0  0  0  1  0  0  0  0  0  0
  186.1290  178.8650  146.7720 C   0  0  0  0  0  0  0  0  0  0  0  0
  186.8040  178.4340  145.6450 C   0  0  0  0  0  0  0  0  0  0  0  0
  190.7870  176.6480  144.1490 C   0  0  2  0  0  3  0  0  0  0  0  0
  1  5  1  6  0  0  0
  1  4  1  0  0  0  0
  1 22  1  0  0  0  0
  2 22  2  0  0  0  0
  2 14  1  0  0  0  0
  4 23  1  0  0  0  0
  6  8  1  0  0  0  0
  7 16  1  0  0  0  0
  7 10  1  0  0  0  0
  8 13  1  0  0  0  0
  9 12  1  0  0  0  0
 10 15  1  0  0  0  0
 11 24  2  0  0  0  0
 11  3  1  0  0  0  0
 12  8  1  0  0  0  0
 12  5  2  0  0  0  0
 13  4  1  0  0  0  0
 13 30  1  0  0  0  0
 14 20  2  0  0  0  0
 16 26  1  0  0  0  0
 17 21  2  0  0  0  0
 18  2  1  0  0  0  0
 19  3  1  0  0  0  0
 20 28  1  0  0  0  0
 21  9  1  0  0  0  0
 21  6  1  0  0  0  0
 22 29  1  0  0  0  0
 23 29  1  0  0  0  0
 23 25  1  0  0  0  0
 25 10  1  0  0  0  0
 25 11  1  0  0  0  0
 26 15  1  0  0  0  0
 28 19  1  0  0  0  0
 29 28  2  0  0  0  0
 30 27  1  0  0  0  0
 30  7  1  0  0  0  0
M  END
>  <MODEL>
9

>  <REMARK>
 VINA RESULT:      -7.9      2.784      5.558
  Name = 
  0 active torsions:
  status: ('A' for Active; 'I' for Inactive)
                            x       y       z     vdW  Elec       q    Type
                         _______ _______ _______ _____ _____    ______ ____

>  <TORSDO>
F 0

$$$$
