=
 OpenBabel10262423263D

 34 38  0  0  0  0  0  0  0  0999 V2000
  186.9150  177.6220  144.0610 C   0  0  0  0  0  0  0  0  0  0  0  0
  188.1760  178.0170  147.6890 C   0  0  0  0  0  3  0  0  0  0  0  0
  186.0800  178.4690  146.6200 C   0  0  0  0  0  3  0  0  0  0  0  0
  184.4830  178.2670  143.3500 C   0  0  0  0  0  2  0  0  0  0  0  0
  183.4880  178.8100  144.2150 O   0  0  0  0  0  0  0  0  0  0  0  0
  185.2220  178.5050  145.5350 C   0  0  0  0  0  0  0  0  0  0  0  0
  185.6160  178.0870  144.2970 C   0  0  0  0  0  0  0  0  0  0  0  0
  183.9770  178.9370  145.5140 C   0  0  0  0  0  3  0  0  0  0  0  0
  189.4170  177.6190  147.9360 C   0  0  0  0  0  3  0  0  0  0  0  0
  190.3960  176.9940  147.0410 C   0  0  0  0  0  0  0  0  0  0  0  0
  190.1890  176.7340  145.7530 C   0  0  0  0  0  3  0  0  0  0  0  0
  187.3830  177.9730  146.4540 C   0  0  0  0  0  0  0  0  0  0  0  0
  189.0160  176.9870  144.9100 C   0  0  0  0  0  3  0  0  0  0  0  0
  187.8130  177.5160  145.1670 C   0  0  0  0  0  0  0  0  0  0  0  0
  191.7060  176.6300  147.6190 C   0  0  0  0  0  0  0  0  0  0  0  0
  192.2040  177.3180  148.5490 O   0  0  0  0  0  0  0  0  0  0  0  0
  192.4280  175.4980  147.1350 N   0  0  0  0  0  1  0  0  0  0  0  0
  187.3370  177.2720  142.6530 C   0  0  0  0  0  2  0  0  0  0  0  0
  187.8960  178.4840  141.9040 C   0  0  0  0  0  2  0  0  0  0  0  0
  187.8630  178.3390  140.3800 C   0  0  0  0  0  2  0  0  0  0  0  0
  191.4690  177.2440  140.1570 C   0  0  0  0  0  3  0  0  0  0  0  0
  189.2010  177.2510  138.4900 C   0  0  0  0  0  0  0  0  0  0  0  0
  192.9540  175.9670  137.0230 C   0  0  0  0  0  0  0  0  0  0  0  0
  192.8200  176.3950  138.3500 C   0  0  0  0  0  3  0  0  0  0  0  0
  191.5800  176.8140  138.8360 C   0  0  0  0  0  0  0  0  0  0  0  0
  187.9800  177.2070  137.6200 C   0  0  0  0  0  1  0  0  0  0  0  0
  190.5860  176.3750  136.6650 C   0  0  0  0  0  3  0  0  0  0  0  0
  190.4450  176.8100  137.9910 C   0  0  0  0  0  0  0  0  0  0  0  0
  191.8310  175.9580  136.1860 C   0  0  0  0  0  3  0  0  0  0  0  0
  189.1190  177.7440  139.8120 C   0  0  0  0  0  0  0  0  0  0  0  0
  190.2450  177.7060  140.6390 C   0  0  0  0  0  3  0  0  0  0  0  0
  194.2670  175.5320  136.5180 C   0  0  0  0  0  0  0  0  0  0  0  0
  194.5960  174.1820  136.4980 O   0  0  0  0  0  1  0  0  0  0  0  0
  195.1030  176.3780  136.1010 O   0  0  0  0  0  0  0  0  0  0  0  0
  1  7  2  0  0  0  0
  1 14  1  0  0  0  0
  2  9  2  0  0  0  0
  4  5  1  0  0  0  0
  4  7  1  0  0  0  0
  5  8  1  0  0  0  0
  6  3  1  0  0  0  0
  7  6  1  0  0  0  0
  8  6  2  0  0  0  0
 10 15  1  0  0  0  0
 10  9  1  0  0  0  0
 11 10  2  0  0  0  0
 12  3  2  0  0  0  0
 12  2  1  0  0  0  0
 13 14  2  0  0  0  0
 13 11  1  0  0  0  0
 14 12  1  0  0  0  0
 15 16  2  0  0  0  0
 17 15  1  0  0  0  0
 18  1  1  0  0  0  0
 19 18  1  0  0  0  0
 20 19  1  0  0  0  0
 21 31  1  0  0  0  0
 22 30  1  0  0  0  0
 23 24  2  0  0  0  0
 24 25  1  0  0  0  0
 25 21  2  0  0  0  0
 26 22  1  0  0  0  0
 27 28  1  0  0  0  0
 28 22  2  0  0  0  0
 28 25  1  0  0  0  0
 29 27  2  0  0  0  0
 29 23  1  0  0  0  0
 30 20  1  0  0  0  0
 30 31  2  0  0  0  0
 32 23  1  0  0  0  0
 33 32  1  0  0  0  0
 34 32  2  0  0  0  0
M  END
>  <MODEL>
1

>  <REMARK>
 VINA RESULT:     -11.0      0.000      0.000
  Name = 
  6 active torsions:
  status: ('A' for Active; 'I' for Inactive)
    1  A    between atoms: C_1  and  C_9
    2  A    between atoms: C_3  and  C_25
    3  A    between atoms: C_7  and  C_11
    4  A    between atoms: C_8  and  C_9
    5  A    between atoms: C_8  and  C_18
    6  A    between atoms: C_18  and  C_30
                            x       y       z     vdW  Elec       q    Type
                         _______ _______ _______ _____ _____    ______ ____

>  <TORSDO>
F 6

$$$$
=
 OpenBabel10262423263D

 34 38  0  0  0  0  0  0  0  0999 V2000
  184.9610  178.7450  140.1710 C   0  0  0  0  0  0  0  0  0  0  0  0
  187.3590  177.1780  137.5820 C   0  0  0  0  0  3  0  0  0  0  0  0
  185.0250  177.7230  137.5420 C   0  0  0  0  0  3  0  0  0  0  0  0
  182.4290  179.1560  139.6610 C   0  0  0  0  0  2  0  0  0  0  0  0
  181.7700  178.8250  138.4410 O   0  0  0  0  0  0  0  0  0  0  0  0
  183.8560  178.2180  138.0930 C   0  0  0  0  0  0  0  0  0  0  0  0
  183.8210  178.7240  139.3600 C   0  0  0  0  0  0  0  0  0  0  0  0
  182.6650  178.2640  137.5320 C   0  0  0  0  0  3  0  0  0  0  0  0
  188.6290  177.0560  137.9430 C   0  0  0  0  0  3  0  0  0  0  0  0
  189.2960  177.4740  139.1800 C   0  0  0  0  0  0  0  0  0  0  0  0
  188.6880  178.0550  140.2110 C   0  0  0  0  0  3  0  0  0  0  0  0
  186.2110  177.7560  138.2930 C   0  0  0  0  0  0  0  0  0  0  0  0
  187.2790  178.4120  140.4040 C   0  0  0  0  0  3  0  0  0  0  0  0
  186.1990  178.2940  139.6200 C   0  0  0  0  0  0  0  0  0  0  0  0
  190.7490  177.2260  139.2830 C   0  0  0  0  0  0  0  0  0  0  0  0
  191.3670  177.5060  140.3440 O   0  0  0  0  0  0  0  0  0  0  0  0
  191.4730  176.6710  138.1870 N   0  0  0  0  0  1  0  0  0  0  0  0
  184.8480  179.2150  141.6030 C   0  0  0  0  0  2  0  0  0  0  0  0
  184.5640  178.0590  142.5650 C   0  0  0  0  0  2  0  0  0  0  0  0
  184.8000  178.4070  144.0380 C   0  0  0  0  0  2  0  0  0  0  0  0
  188.3460  177.1140  143.9660 C   0  0  0  0  0  3  0  0  0  0  0  0
  186.5950  178.2510  145.8540 C   0  0  0  0  0  0  0  0  0  0  0  0
  190.4200  176.8700  147.0150 C   0  0  0  0  0  0  0  0  0  0  0  0
  190.0050  176.7700  145.6810 C   0  0  0  0  0  3  0  0  0  0  0  0
  188.7440  177.2300  145.2970 C   0  0  0  0  0  0  0  0  0  0  0  0
  185.6800  178.9040  146.8470 C   0  0  0  0  0  1  0  0  0  0  0  0
  188.2980  177.9060  147.5850 C   0  0  0  0  0  3  0  0  0  0  0  0
  187.8720  177.8040  146.2520 C   0  0  0  0  0  0  0  0  0  0  0  0
  189.5610  177.4420  147.9630 C   0  0  0  0  0  3  0  0  0  0  0  0
  186.1820  178.0670  144.5150 C   0  0  0  0  0  0  0  0  0  0  0  0
  187.0720  177.5300  143.5800 C   0  0  0  0  0  3  0  0  0  0  0  0
  191.7490  176.3770  147.4120 C   0  0  0  0  0  0  0  0  0  0  0  0
  192.3540  175.3470  146.7010 O   0  0  0  0  0  0  0  0  0  0  0  0
  192.3480  176.8810  148.3990 O   0  0  0  0  0  1  0  0  0  0  0  0
  1 18  1  0  0  0  0
  2  9  2  0  0  0  0
  2 12  1  0  0  0  0
  3  6  1  0  0  0  0
  3 12  2  0  0  0  0
  5  4  1  0  0  0  0
  6  7  1  0  0  0  0
  7  4  1  0  0  0  0
  7  1  2  0  0  0  0
  8  6  2  0  0  0  0
  8  5  1  0  0  0  0
  9 10  1  0  0  0  0
 10 15  1  0  0  0  0
 10 11  2  0  0  0  0
 11 13  1  0  0  0  0
 12 14  1  0  0  0  0
 14  1  1  0  0  0  0
 14 13  2  0  0  0  0
 15 16  2  0  0  0  0
 17 15  1  0  0  0  0
 18 19  1  0  0  0  0
 19 20  1  0  0  0  0
 20 30  1  0  0  0  0
 21 25  1  0  0  0  0
 22 28  1  0  0  0  0
 22 26  1  0  0  0  0
 23 32  1  0  0  0  0
 23 29  1  0  0  0  0
 24 23  2  0  0  0  0
 25 24  1  0  0  0  0
 25 28  2  0  0  0  0
 27 29  2  0  0  0  0
 28 27  1  0  0  0  0
 30 22  2  0  0  0  0
 31 21  2  0  0  0  0
 31 30  1  0  0  0  0
 32 34  1  0  0  0  0
 33 32  2  0  0  0  0
M  END
>  <MODEL>
2

>  <REMARK>
 VINA RESULT:     -10.9      2.869      8.042
  Name = 
  6 active torsions:
  status: ('A' for Active; 'I' for Inactive)
    1  A    between atoms: C_1  and  C_9
    2  A    between atoms: C_3  and  C_25
    3  A    between atoms: C_7  and  C_11
    4  A    between atoms: C_8  and  C_9
    5  A    between atoms: C_8  and  C_18
    6  A    between atoms: C_18  and  C_30
                            x       y       z     vdW  Elec       q    Type
                         _______ _______ _______ _____ _____    ______ ____

>  <TORSDO>
F 6

$$$$
=
 OpenBabel10262423263D

 34 38  0  0  0  0  0  0  0  0999 V2000
  187.6740  177.4220  145.1790 C   0  0  0  0  0  0  0  0  0  0  0  0
  184.1290  178.9140  145.5270 C   0  0  0  0  0  3  0  0  0  0  0  0
  185.9340  178.5870  147.0700 C   0  0  0  0  0  3  0  0  0  0  0  0
  189.3300  177.2720  147.1970 C   0  0  0  0  0  2  0  0  0  0  0  0
  189.0480  177.6970  148.5280 O   0  0  0  0  0  0  0  0  0  0  0  0
  187.2070  178.1760  147.4220 C   0  0  0  0  0  0  0  0  0  0  0  0
  188.0570  177.6210  146.5100 C   0  0  0  0  0  0  0  0  0  0  0  0
  187.7630  178.2300  148.6150 C   0  0  0  0  0  3  0  0  0  0  0  0
  183.3950  178.9720  144.4240 C   0  0  0  0  0  3  0  0  0  0  0  0
  183.7390  178.5950  143.0490 C   0  0  0  0  0  0  0  0  0  0  0  0
  184.9060  178.0790  142.6730 C   0  0  0  0  0  3  0  0  0  0  0  0
  185.5070  178.4520  145.7390 C   0  0  0  0  0  0  0  0  0  0  0  0
  186.0970  177.7500  143.4620 C   0  0  0  0  0  3  0  0  0  0  0  0
  186.3880  177.8850  144.7630 C   0  0  0  0  0  0  0  0  0  0  0  0
  182.7080  178.8050  142.0110 C   0  0  0  0  0  0  0  0  0  0  0  0
  183.0300  178.8430  140.7940 O   0  0  0  0  0  0  0  0  0  0  0  0
  181.3370  178.9680  142.3690 N   0  0  0  0  0  1  0  0  0  0  0  0
  188.6100  176.7070  144.2320 C   0  0  0  0  0  2  0  0  0  0  0  0
  189.9710  177.4000  144.1390 C   0  0  0  0  0  2  0  0  0  0  0  0
  190.0050  178.5670  143.1470 C   0  0  0  0  0  2  0  0  0  0  0  0
  187.9540  178.0950  140.0130 C   0  0  0  0  0  3  0  0  0  0  0  0
  190.5420  177.4490  140.9100 C   0  0  0  0  0  0  0  0  0  0  0  0
  189.1710  176.1180  137.1370 C   0  0  0  0  0  0  0  0  0  0  0  0
  188.3420  176.8900  137.9600 C   0  0  0  0  0  3  0  0  0  0  0  0
  188.7960  177.3340  139.2040 C   0  0  0  0  0  0  0  0  0  0  0  0
  191.9390  177.1500  141.3680 C   0  0  0  0  0  1  0  0  0  0  0  0
  190.9270  176.2390  138.8110 C   0  0  0  0  0  3  0  0  0  0  0  0
  190.1010  177.0080  139.6440 C   0  0  0  0  0  0  0  0  0  0  0  0
  190.4650  175.7970  137.5680 C   0  0  0  0  0  3  0  0  0  0  0  0
  189.6540  178.1640  141.7440 C   0  0  0  0  0  0  0  0  0  0  0  0
  188.3820  178.5050  141.2750 C   0  0  0  0  0  3  0  0  0  0  0  0
  188.6810  175.6500  135.8300 C   0  0  0  0  0  0  0  0  0  0  0  0
  187.3160  175.5450  135.5910 O   0  0  0  0  0  1  0  0  0  0  0  0
  189.4930  175.3400  134.9180 O   0  0  0  0  0  0  0  0  0  0  0  0
  1  7  2  0  0  0  0
  2 12  1  0  0  0  0
  3  6  1  0  0  0  0
  4  5  1  0  0  0  0
  5  8  1  0  0  0  0
  6  8  2  0  0  0  0
  7  4  1  0  0  0  0
  7  6  1  0  0  0  0
  9  2  2  0  0  0  0
 10  9  1  0  0  0  0
 11 10  2  0  0  0  0
 11 13  1  0  0  0  0
 12  3  2  0  0  0  0
 13 14  2  0  0  0  0
 14  1  1  0  0  0  0
 14 12  1  0  0  0  0
 15 17  1  0  0  0  0
 15 10  1  0  0  0  0
 16 15  2  0  0  0  0
 18  1  1  0  0  0  0
 19 18  1  0  0  0  0
 20 19  1  0  0  0  0
 21 31  1  0  0  0  0
 22 26  1  0  0  0  0
 22 30  1  0  0  0  0
 23 29  1  0  0  0  0
 23 24  2  0  0  0  0
 24 25  1  0  0  0  0
 25 28  1  0  0  0  0
 25 21  2  0  0  0  0
 27 28  1  0  0  0  0
 28 22  2  0  0  0  0
 29 27  2  0  0  0  0
 30 20  1  0  0  0  0
 31 30  2  0  0  0  0
 32 23  1  0  0  0  0
 33 32  1  0  0  0  0
 34 32  2  0  0  0  0
M  END
>  <MODEL>
3

>  <REMARK>
 VINA RESULT:     -10.9      2.988      5.453
  Name = 
  6 active torsions:
  status: ('A' for Active; 'I' for Inactive)
    1  A    between atoms: C_1  and  C_9
    2  A    between atoms: C_3  and  C_25
    3  A    between atoms: C_7  and  C_11
    4  A    between atoms: C_8  and  C_9
    5  A    between atoms: C_8  and  C_18
    6  A    between atoms: C_18  and  C_30
                            x       y       z     vdW  Elec       q    Type
                         _______ _______ _______ _____ _____    ______ ____

>  <TORSDO>
F 6

$$$$
=
 OpenBabel10262423263D

 34 38  0  0  0  0  0  0  0  0999 V2000
  187.8110  177.4380  144.6610 C   0  0  0  0  0  0  0  0  0  0  0  0
  184.3800  178.7440  145.8580 C   0  0  0  0  0  3  0  0  0  0  0  0
  186.4520  178.3030  146.9780 C   0  0  0  0  0  3  0  0  0  0  0  0
  189.8270  177.1100  146.2930 C   0  0  0  0  0  2  0  0  0  0  0  0
  189.8010  177.3620  147.6960 O   0  0  0  0  0  0  0  0  0  0  0  0
  187.7750  177.9000  147.0280 C   0  0  0  0  0  0  0  0  0  0  0  0
  188.4410  177.4910  145.9090 C   0  0  0  0  0  0  0  0  0  0  0  0
  188.5500  177.8320  148.0910 C   0  0  0  0  0  3  0  0  0  0  0  0
  183.4460  178.9060  144.9310 C   0  0  0  0  0  3  0  0  0  0  0  0
  183.5230  178.7090  143.4800 C   0  0  0  0  0  0  0  0  0  0  0  0
  184.6030  178.2850  142.8280 C   0  0  0  0  0  3  0  0  0  0  0  0
  185.7790  178.3120  145.7460 C   0  0  0  0  0  0  0  0  0  0  0  0
  185.9280  177.9090  143.3290 C   0  0  0  0  0  3  0  0  0  0  0  0
  186.4620  177.8990  144.5580 C   0  0  0  0  0  0  0  0  0  0  0  0
  182.3080  179.0020  142.6910 C   0  0  0  0  0  0  0  0  0  0  0  0
  181.3110  179.5430  143.2380 O   0  0  0  0  0  0  0  0  0  0  0  0
  182.2450  178.6780  141.3030 N   0  0  0  0  0  1  0  0  0  0  0  0
  188.5560  176.8760  143.4730 C   0  0  0  0  0  2  0  0  0  0  0  0
  189.2510  177.9720  142.6620 C   0  0  0  0  0  2  0  0  0  0  0  0
  188.8920  177.9630  141.1730 C   0  0  0  0  0  2  0  0  0  0  0  0
  192.3960  177.1230  140.0460 C   0  0  0  0  0  3  0  0  0  0  0  0
  189.7960  177.0160  138.9750 C   0  0  0  0  0  0  0  0  0  0  0  0
  193.1520  176.0280  136.5980 C   0  0  0  0  0  0  0  0  0  0  0  0
  193.3180  176.4130  137.9340 C   0  0  0  0  0  3  0  0  0  0  0  0
  192.2100  176.7340  138.7210 C   0  0  0  0  0  0  0  0  0  0  0  0
  188.4050  176.9090  138.4220 C   0  0  0  0  0  1  0  0  0  0  0  0
  190.7480  176.2810  136.8370 C   0  0  0  0  0  3  0  0  0  0  0  0
  190.9060  176.6730  138.1740 C   0  0  0  0  0  0  0  0  0  0  0  0
  191.8610  175.9620  136.0560 C   0  0  0  0  0  3  0  0  0  0  0  0
  190.0070  177.4690  140.2960 C   0  0  0  0  0  0  0  0  0  0  0  0
  191.3000  177.4890  140.8270 C   0  0  0  0  0  3  0  0  0  0  0  0
  194.3260  175.6960  135.7750 C   0  0  0  0  0  0  0  0  0  0  0  0
  194.2470  174.6940  134.8160 O   0  0  0  0  0  0  0  0  0  0  0  0
  195.4120  176.3150  135.9340 O   0  0  0  0  0  1  0  0  0  0  0  0
  1  7  2  0  0  0  0
  3  6  1  0  0  0  0
  4  5  1  0  0  0  0
  5  8  1  0  0  0  0
  6  8  2  0  0  0  0
  7  4  1  0  0  0  0
  7  6  1  0  0  0  0
  9  2  2  0  0  0  0
 10  9  1  0  0  0  0
 11 13  1  0  0  0  0
 11 10  2  0  0  0  0
 12  2  1  0  0  0  0
 12  3  2  0  0  0  0
 13 14  2  0  0  0  0
 14  1  1  0  0  0  0
 14 12  1  0  0  0  0
 15 16  2  0  0  0  0
 15 10  1  0  0  0  0
 17 15  1  0  0  0  0
 18  1  1  0  0  0  0
 19 18  1  0  0  0  0
 20 19  1  0  0  0  0
 21 31  1  0  0  0  0
 22 30  1  0  0  0  0
 23 24  2  0  0  0  0
 24 25  1  0  0  0  0
 25 21  2  0  0  0  0
 26 22  1  0  0  0  0
 27 28  1  0  0  0  0
 28 25  1  0  0  0  0
 28 22  2  0  0  0  0
 29 23  1  0  0  0  0
 29 27  2  0  0  0  0
 30 31  2  0  0  0  0
 30 20  1  0  0  0  0
 32 34  1  0  0  0  0
 32 23  1  0  0  0  0
 33 32  2  0  0  0  0
M  END
>  <MODEL>
4

>  <REMARK>
 VINA RESULT:     -10.8      2.355      4.746
  Name = 
  6 active torsions:
  status: ('A' for Active; 'I' for Inactive)
    1  A    between atoms: C_1  and  C_9
    2  A    between atoms: C_3  and  C_25
    3  A    between atoms: C_7  and  C_11
    4  A    between atoms: C_8  and  C_9
    5  A    between atoms: C_8  and  C_18
    6  A    between atoms: C_18  and  C_30
                            x       y       z     vdW  Elec       q    Type
                         _______ _______ _______ _____ _____    ______ ____

>  <TORSDO>
F 6

$$$$
=
 OpenBabel10262423263D

 34 38  0  0  0  0  0  0  0  0999 V2000
  187.5370  177.5510  145.3610 C   0  0  0  0  0  0  0  0  0  0  0  0
  190.8960  177.6470  143.4590 C   0  0  0  0  0  3  0  0  0  0  0  0
  190.3200  177.7530  145.7820 C   0  0  0  0  0  3  0  0  0  0  0  0
  187.4040  177.7040  147.9680 C   0  0  0  0  0  2  0  0  0  0  0  0
  188.5200  177.8480  148.8430 O   0  0  0  0  0  0  0  0  0  0  0  0
  189.4300  177.7580  146.8420 C   0  0  0  0  0  0  0  0  0  0  0  0
  188.0840  177.6490  146.6450 C   0  0  0  0  0  0  0  0  0  0  0  0
  189.7130  177.8780  148.1230 C   0  0  0  0  0  3  0  0  0  0  0  0
  190.8390  177.5220  142.1400 C   0  0  0  0  0  3  0  0  0  0  0  0
  189.6800  177.3000  141.2690 C   0  0  0  0  0  0  0  0  0  0  0  0
  188.4210  177.2090  141.6910 C   0  0  0  0  0  3  0  0  0  0  0  0
  189.8340  177.6140  144.4720 C   0  0  0  0  0  0  0  0  0  0  0  0
  187.8630  177.3060  143.0420 C   0  0  0  0  0  3  0  0  0  0  0  0
  188.4270  177.4860  144.2450 C   0  0  0  0  0  0  0  0  0  0  0  0
  189.9360  177.1700  139.8200 C   0  0  0  0  0  0  0  0  0  0  0  0
  189.6020  178.0930  139.0310 O   0  0  0  0  0  0  0  0  0  0  0  0
  190.5630  176.0030  139.2920 N   0  0  0  0  0  1  0  0  0  0  0  0
  186.0360  177.5420  145.1880 C   0  0  0  0  0  2  0  0  0  0  0  0
  185.4470  178.9540  145.2220 C   0  0  0  0  0  2  0  0  0  0  0  0
  183.9440  179.0040  144.9280 C   0  0  0  0  0  2  0  0  0  0  0  0
  184.4520  178.7020  141.2000 C   0  0  0  0  0  3  0  0  0  0  0  0
  182.2910  178.6880  143.0020 C   0  0  0  0  0  0  0  0  0  0  0  0
  181.6220  178.5400  138.8290 C   0  0  0  0  0  0  0  0  0  0  0  0
  182.9260  178.5950  139.3360 C   0  0  0  0  0  3  0  0  0  0  0  0
  183.1470  178.6390  140.7140 C   0  0  0  0  0  0  0  0  0  0  0  0
  181.1430  178.6280  143.9670 C   0  0  0  0  0  1  0  0  0  0  0  0
  180.7510  178.5650  141.0960 C   0  0  0  0  0  3  0  0  0  0  0  0
  182.0540  178.6270  141.6130 C   0  0  0  0  0  0  0  0  0  0  0  0
  180.5380  178.5230  139.7160 C   0  0  0  0  0  3  0  0  0  0  0  0
  183.6160  178.8170  143.4750 C   0  0  0  0  0  0  0  0  0  0  0  0
  184.6820  178.7920  142.5720 C   0  0  0  0  0  3  0  0  0  0  0  0
  181.3980  178.4990  137.3740 C   0  0  0  0  0  0  0  0  0  0  0  0
  181.2510  179.6800  136.6560 O   0  0  0  0  0  0  0  0  0  0  0  0
  181.3360  177.3970  136.7690 O   0  0  0  0  0  1  0  0  0  0  0  0
  1  7  2  0  0  0  0
  2 12  1  0  0  0  0
  3  6  1  0  0  0  0
  4  5  1  0  0  0  0
  6  8  2  0  0  0  0
  7  6  1  0  0  0  0
  7  4  1  0  0  0  0
  8  5  1  0  0  0  0
  9  2  2  0  0  0  0
 10 11  2  0  0  0  0
 10  9  1  0  0  0  0
 11 13  1  0  0  0  0
 12  3  2  0  0  0  0
 13 14  2  0  0  0  0
 14 12  1  0  0  0  0
 14  1  1  0  0  0  0
 15 10  1  0  0  0  0
 16 15  2  0  0  0  0
 17 15  1  0  0  0  0
 18 19  1  0  0  0  0
 18  1  1  0  0  0  0
 20 19  1  0  0  0  0
 21 31  1  0  0  0  0
 22 30  1  0  0  0  0
 22 26  1  0  0  0  0
 23 24  2  0  0  0  0
 23 29  1  0  0  0  0
 24 25  1  0  0  0  0
 25 21  2  0  0  0  0
 25 28  1  0  0  0  0
 27 28  1  0  0  0  0
 28 22  2  0  0  0  0
 29 27  2  0  0  0  0
 30 20  1  0  0  0  0
 31 30  2  0  0  0  0
 32 23  1  0  0  0  0
 33 32  2  0  0  0  0
 34 32  1  0  0  0  0
M  END
>  <MODEL>
5

>  <REMARK>
 VINA RESULT:     -10.4      3.629      7.922
  Name = 
  6 active torsions:
  status: ('A' for Active; 'I' for Inactive)
    1  A    between atoms: C_1  and  C_9
    2  A    between atoms: C_3  and  C_25
    3  A    between atoms: C_7  and  C_11
    4  A    between atoms: C_8  and  C_9
    5  A    between atoms: C_8  and  C_18
    6  A    between atoms: C_18  and  C_30
                            x       y       z     vdW  Elec       q    Type
                         _______ _______ _______ _____ _____    ______ ____

>  <TORSDO>
F 6

$$$$
=
 OpenBabel10262423263D

 34 38  0  0  0  0  0  0  0  0999 V2000
  188.6830  177.2330  144.3520 C   0  0  0  0  0  0  0  0  0  0  0  0
  185.3470  178.3940  145.9130 C   0  0  0  0  0  3  0  0  0  0  0  0
  187.5000  177.8780  146.8310 C   0  0  0  0  0  3  0  0  0  0  0  0
  190.8180  176.7830  145.7940 C   0  0  0  0  0  2  0  0  0  0  0  0
  190.8970  176.9110  147.2110 O   0  0  0  0  0  0  0  0  0  0  0  0
  188.8240  177.4850  146.7470 C   0  0  0  0  0  0  0  0  0  0  0  0
  189.4050  177.1820  145.5490 C   0  0  0  0  0  0  0  0  0  0  0  0
  189.6780  177.3310  147.7390 C   0  0  0  0  0  3  0  0  0  0  0  0
  184.3460  178.6280  145.0750 C   0  0  0  0  0  3  0  0  0  0  0  0
  184.3140  178.5600  143.6110 C   0  0  0  0  0  0  0  0  0  0  0  0
  185.3440  178.2060  142.8450 C   0  0  0  0  0  3  0  0  0  0  0  0
  186.7350  177.9880  145.6580 C   0  0  0  0  0  0  0  0  0  0  0  0
  186.7040  177.8010  143.2110 C   0  0  0  0  0  3  0  0  0  0  0  0
  187.3290  177.6880  144.3910 C   0  0  0  0  0  0  0  0  0  0  0  0
  183.0430  178.9090  142.9440 C   0  0  0  0  0  0  0  0  0  0  0  0
  182.1140  179.4580  143.5940 O   0  0  0  0  0  0  0  0  0  0  0  0
  182.8460  178.6310  141.5590 N   0  0  0  0  0  1  0  0  0  0  0  0
  189.3390  176.7860  143.0670 C   0  0  0  0  0  2  0  0  0  0  0  0
  190.2250  177.8780  142.4640 C   0  0  0  0  0  2  0  0  0  0  0  0
  190.8390  177.5020  141.1120 C   0  0  0  0  0  2  0  0  0  0  0  0
  187.6540  178.1550  139.1930 C   0  0  0  0  0  3  0  0  0  0  0  0
  190.0210  176.6750  138.8340 C   0  0  0  0  0  0  0  0  0  0  0  0
  186.8770  176.4360  136.0150 C   0  0  0  0  0  0  0  0  0  0  0  0
  186.7570  177.2560  137.1440 C   0  0  0  0  0  3  0  0  0  0  0  0
  187.7960  177.3390  138.0720 C   0  0  0  0  0  0  0  0  0  0  0  0
  191.3040  175.9280  138.6190 C   0  0  0  0  0  1  0  0  0  0  0  0
  189.1000  175.7800  136.7440 C   0  0  0  0  0  3  0  0  0  0  0  0
  188.9850  176.5950  137.8800 C   0  0  0  0  0  0  0  0  0  0  0  0
  188.0540  175.7010  135.8210 C   0  0  0  0  0  3  0  0  0  0  0  0
  189.8350  177.4560  139.9970 C   0  0  0  0  0  0  0  0  0  0  0  0
  188.6680  178.2110  140.1480 C   0  0  0  0  0  3  0  0  0  0  0  0
  185.7740  176.3500  135.0450 C   0  0  0  0  0  0  0  0  0  0  0  0
  185.1330  177.5050  134.6110 O   0  0  0  0  0  1  0  0  0  0  0  0
  185.3990  175.2320  134.6010 O   0  0  0  0  0  0  0  0  0  0  0  0
  1 14  1  0  0  0  0
  1  7  2  0  0  0  0
  4  5  1  0  0  0  0
  5  8  1  0  0  0  0
  6  3  1  0  0  0  0
  6  8  2  0  0  0  0
  7  4  1  0  0  0  0
  7  6  1  0  0  0  0
  9  2  2  0  0  0  0
 10  9  1  0  0  0  0
 11 13  1  0  0  0  0
 11 10  2  0  0  0  0
 12  2  1  0  0  0  0
 12  3  2  0  0  0  0
 13 14  2  0  0  0  0
 14 12  1  0  0  0  0
 15 16  2  0  0  0  0
 15 10  1  0  0  0  0
 17 15  1  0  0  0  0
 18  1  1  0  0  0  0
 19 18  1  0  0  0  0
 20 19  1  0  0  0  0
 21 31  1  0  0  0  0
 22 30  1  0  0  0  0
 23 24  2  0  0  0  0
 24 25  1  0  0  0  0
 25 21  2  0  0  0  0
 26 22  1  0  0  0  0
 27 28  1  0  0  0  0
 28 25  1  0  0  0  0
 28 22  2  0  0  0  0
 29 23  1  0  0  0  0
 29 27  2  0  0  0  0
 30 31  2  0  0  0  0
 30 20  1  0  0  0  0
 32 23  1  0  0  0  0
 33 32  1  0  0  0  0
 34 32  2  0  0  0  0
M  END
>  <MODEL>
6

>  <REMARK>
 VINA RESULT:     -10.4      3.342      5.805
  Name = 
  6 active torsions:
  status: ('A' for Active; 'I' for Inactive)
    1  A    between atoms: C_1  and  C_9
    2  A    between atoms: C_3  and  C_25
    3  A    between atoms: C_7  and  C_11
    4  A    between atoms: C_8  and  C_9
    5  A    between atoms: C_8  and  C_18
    6  A    between atoms: C_18  and  C_30
                            x       y       z     vdW  Elec       q    Type
                         _______ _______ _______ _____ _____    ______ ____

>  <TORSDO>
F 6

$$$$
=
 OpenBabel10262423263D

 34 38  0  0  0  0  0  0  0  0999 V2000
  186.9210  177.6500  143.9370 C   0  0  0  0  0  0  0  0  0  0  0  0
  188.2990  177.7580  147.5430 C   0  0  0  0  0  3  0  0  0  0  0  0
  186.1820  178.3270  146.5740 C   0  0  0  0  0  3  0  0  0  0  0  0
  184.4830  178.3920  143.3510 C   0  0  0  0  0  2  0  0  0  0  0  0
  183.5270  178.8910  144.2830 O   0  0  0  0  0  0  0  0  0  0  0  0
  185.2930  178.4580  145.5220 C   0  0  0  0  0  0  0  0  0  0  0  0
  185.6410  178.1220  144.2460 C   0  0  0  0  0  0  0  0  0  0  0  0
  184.0580  178.9150  145.5710 C   0  0  0  0  0  3  0  0  0  0  0  0
  189.5380  177.3190  147.7210 C   0  0  0  0  0  3  0  0  0  0  0  0
  190.4760  176.7400  146.7540 C   0  0  0  0  0  0  0  0  0  0  0  0
  190.2240  176.5780  145.4570 C   0  0  0  0  0  3  0  0  0  0  0  0
  187.4690  177.8180  146.3330 C   0  0  0  0  0  0  0  0  0  0  0  0
  189.0330  176.9130  144.6720 C   0  0  0  0  0  3  0  0  0  0  0  0
  187.8490  177.4470  145.0040 C   0  0  0  0  0  0  0  0  0  0  0  0
  191.7940  176.3100  147.2630 C   0  0  0  0  0  0  0  0  0  0  0  0
  192.4160  175.3700  146.7010 O   0  0  0  0  0  0  0  0  0  0  0  0
  192.3820  176.9490  148.3950 N   0  0  0  0  0  1  0  0  0  0  0  0
  187.2930  177.3930  142.4950 C   0  0  0  0  0  2  0  0  0  0  0  0
  187.3300  178.6840  141.6740 C   0  0  0  0  0  2  0  0  0  0  0  0
  188.6950  178.9800  141.0470 C   0  0  0  0  0  2  0  0  0  0  0  0
  188.2470  177.4950  137.6050 C   0  0  0  0  0  3  0  0  0  0  0  0
  190.0690  177.2640  139.7380 C   0  0  0  0  0  0  0  0  0  0  0  0
  190.4240  174.7980  136.3200 C   0  0  0  0  0  0  0  0  0  0  0  0
  189.3960  175.7450  136.4080 C   0  0  0  0  0  3  0  0  0  0  0  0
  189.2820  176.5630  137.5340 C   0  0  0  0  0  0  0  0  0  0  0  0
  191.0690  177.1800  140.8530 C   0  0  0  0  0  1  0  0  0  0  0  0
  191.2350  175.4960  138.5010 C   0  0  0  0  0  3  0  0  0  0  0  0
  190.2050  176.4430  138.5990 C   0  0  0  0  0  0  0  0  0  0  0  0
  191.3430  174.6800  137.3720 C   0  0  0  0  0  3  0  0  0  0  0  0
  188.9770  178.1580  139.8230 C   0  0  0  0  0  0  0  0  0  0  0  0
  188.0970  178.2850  138.7440 C   0  0  0  0  0  3  0  0  0  0  0  0
  190.5340  173.9370  135.1320 C   0  0  0  0  0  0  0  0  0  0  0  0
  189.4000  173.3400  134.5940 O   0  0  0  0  0  1  0  0  0  0  0  0
  191.6540  173.7310  134.5940 O   0  0  0  0  0  0  0  0  0  0  0  0
  1  7  2  0  0  0  0
  1 14  1  0  0  0  0
  2  9  2  0  0  0  0
  4  7  1  0  0  0  0
  4  5  1  0  0  0  0
  5  8  1  0  0  0  0
  6  8  2  0  0  0  0
  6  3  1  0  0  0  0
  7  6  1  0  0  0  0
 10 15  1  0  0  0  0
 10  9  1  0  0  0  0
 11 10  2  0  0  0  0
 12  3  2  0  0  0  0
 12  2  1  0  0  0  0
 13 14  2  0  0  0  0
 13 11  1  0  0  0  0
 14 12  1  0  0  0  0
 15 17  1  0  0  0  0
 16 15  2  0  0  0  0
 18  1  1  0  0  0  0
 19 18  1  0  0  0  0
 20 19  1  0  0  0  0
 21 31  1  0  0  0  0
 22 30  1  0  0  0  0
 22 26  1  0  0  0  0
 23 24  2  0  0  0  0
 23 29  1  0  0  0  0
 24 25  1  0  0  0  0
 25 21  2  0  0  0  0
 25 28  1  0  0  0  0
 27 28  1  0  0  0  0
 28 22  2  0  0  0  0
 29 27  2  0  0  0  0
 30 20  1  0  0  0  0
 31 30  2  0  0  0  0
 32 23  1  0  0  0  0
 33 32  1  0  0  0  0
 34 32  2  0  0  0  0
M  END
>  <MODEL>
7

>  <REMARK>
 VINA RESULT:     -10.2      1.541      2.252
  Name = 
  6 active torsions:
  status: ('A' for Active; 'I' for Inactive)
    1  A    between atoms: C_1  and  C_9
    2  A    between atoms: C_3  and  C_25
    3  A    between atoms: C_7  and  C_11
    4  A    between atoms: C_8  and  C_9
    5  A    between atoms: C_8  and  C_18
    6  A    between atoms: C_18  and  C_30
                            x       y       z     vdW  Elec       q    Type
                         _______ _______ _______ _____ _____    ______ ____

>  <TORSDO>
F 6

$$$$
=
 OpenBabel10262423263D

 34 38  0  0  0  0  0  0  0  0999 V2000
  186.7980  177.7410  143.9990 C   0  0  0  0  0  0  0  0  0  0  0  0
  188.0850  177.9620  147.6320 C   0  0  0  0  0  3  0  0  0  0  0  0
  185.9840  178.4740  146.5990 C   0  0  0  0  0  3  0  0  0  0  0  0
  184.3650  178.4300  143.3340 C   0  0  0  0  0  2  0  0  0  0  0  0
  183.3780  178.9380  144.2300 O   0  0  0  0  0  0  0  0  0  0  0  0
  185.1190  178.5640  145.5220 C   0  0  0  0  0  0  0  0  0  0  0  0
  185.5030  178.2010  144.2640 C   0  0  0  0  0  0  0  0  0  0  0  0
  183.8760  179.0030  145.5290 C   0  0  0  0  0  3  0  0  0  0  0  0
  189.3240  177.5470  147.8530 C   0  0  0  0  0  3  0  0  0  0  0  0
  190.2940  176.9580  146.9230 C   0  0  0  0  0  0  0  0  0  0  0  0
  190.0780  176.7590  145.6260 C   0  0  0  0  0  3  0  0  0  0  0  0
  187.2830  177.9790  146.4020 C   0  0  0  0  0  0  0  0  0  0  0  0
  188.9010  177.0560  144.8030 C   0  0  0  0  0  3  0  0  0  0  0  0
  187.7020  177.5800  145.0930 C   0  0  0  0  0  0  0  0  0  0  0  0
  191.6070  176.5610  147.4750 C   0  0  0  0  0  0  0  0  0  0  0  0
  192.0910  177.1740  148.4630 O   0  0  0  0  0  0  0  0  0  0  0  0
  192.3430  175.4840  146.9000 N   0  0  0  0  0  1  0  0  0  0  0  0
  187.2090  177.4530  142.5730 C   0  0  0  0  0  2  0  0  0  0  0  0
  187.7970  178.6880  141.8860 C   0  0  0  0  0  2  0  0  0  0  0  0
  188.0120  178.5150  140.3800 C   0  0  0  0  0  2  0  0  0  0  0  0
  184.3420  178.8860  139.5750 C   0  0  0  0  0  3  0  0  0  0  0  0
  186.6470  177.8760  138.3120 C   0  0  0  0  0  0  0  0  0  0  0  0
  182.8480  177.5030  136.4900 C   0  0  0  0  0  0  0  0  0  0  0  0
  182.9790  178.1340  137.7330 C   0  0  0  0  0  3  0  0  0  0  0  0
  184.2340  178.2610  138.3330 C   0  0  0  0  0  0  0  0  0  0  0  0
  187.8830  177.3860  137.6190 C   0  0  0  0  0  1  0  0  0  0  0  0
  185.2480  177.1290  136.4410 C   0  0  0  0  0  3  0  0  0  0  0  0
  185.3870  177.7550  137.6880 C   0  0  0  0  0  0  0  0  0  0  0  0
  183.9890  177.0040  135.8480 C   0  0  0  0  0  3  0  0  0  0  0  0
  186.7310  178.4540  139.6000 C   0  0  0  0  0  0  0  0  0  0  0  0
  185.5840  178.9790  140.2020 C   0  0  0  0  0  3  0  0  0  0  0  0
  181.5210  177.3680  135.8680 C   0  0  0  0  0  0  0  0  0  0  0  0
  180.9150  178.4650  135.2670 O   0  0  0  0  0  0  0  0  0  0  0  0
  180.9220  176.2590  135.8760 O   0  0  0  0  0  1  0  0  0  0  0  0
  1  7  2  0  0  0  0
  1 14  1  0  0  0  0
  2  9  2  0  0  0  0
  4  5  1  0  0  0  0
  4  7  1  0  0  0  0
  5  8  1  0  0  0  0
  6  8  2  0  0  0  0
  6  3  1  0  0  0  0
  7  6  1  0  0  0  0
 10 15  1  0  0  0  0
 10  9  1  0  0  0  0
 11 10  2  0  0  0  0
 12  3  2  0  0  0  0
 12  2  1  0  0  0  0
 13 14  2  0  0  0  0
 13 11  1  0  0  0  0
 14 12  1  0  0  0  0
 15 16  2  0  0  0  0
 17 15  1  0  0  0  0
 18  1  1  0  0  0  0
 19 18  1  0  0  0  0
 20 19  1  0  0  0  0
 21 31  1  0  0  0  0
 22 30  1  0  0  0  0
 23 24  2  0  0  0  0
 24 25  1  0  0  0  0
 25 21  2  0  0  0  0
 26 22  1  0  0  0  0
 27 28  1  0  0  0  0
 28 22  2  0  0  0  0
 28 25  1  0  0  0  0
 29 27  2  0  0  0  0
 29 23  1  0  0  0  0
 30 31  2  0  0  0  0
 30 20  1  0  0  0  0
 32 34  1  0  0  0  0
 32 23  1  0  0  0  0
 33 32  2  0  0  0  0
M  END
>  <MODEL>
8

>  <REMARK>
 VINA RESULT:      -9.9      3.821      5.545
  Name = 
  6 active torsions:
  status: ('A' for Active; 'I' for Inactive)
    1  A    between atoms: C_1  and  C_9
    2  A    between atoms: C_3  and  C_25
    3  A    between atoms: C_7  and  C_11
    4  A    between atoms: C_8  and  C_9
    5  A    between atoms: C_8  and  C_18
    6  A    between atoms: C_18  and  C_30
                            x       y       z     vdW  Elec       q    Type
                         _______ _______ _______ _____ _____    ______ ____

>  <TORSDO>
F 6

$$$$
=
 OpenBabel10262423263D

 34 38  0  0  0  0  0  0  0  0999 V2000
  181.2390  179.1440  141.4350 C   0  0  0  0  0  0  0  0  0  0  0  0
  179.0810  181.7640  139.5940 C   0  0  0  0  0  3  0  0  0  0  0  0
  179.0020  180.8260  141.7980 C   0  0  0  0  0  3  0  0  0  0  0  0
  180.7550  178.4190  143.9000 C   0  0  0  0  0  2  0  0  0  0  0  0
  179.6860  178.9070  144.7080 O   0  0  0  0  0  0  0  0  0  0  0  0
  179.4520  179.9980  142.8120 C   0  0  0  0  0  0  0  0  0  0  0  0
  180.5390  179.1900  142.6460 C   0  0  0  0  0  0  0  0  0  0  0  0
  178.9310  179.8490  144.0120 C   0  0  0  0  0  3  0  0  0  0  0  0
  179.4480  182.0790  138.3590 C   0  0  0  0  0  3  0  0  0  0  0  0
  180.5990  181.6160  137.5770 C   0  0  0  0  0  0  0  0  0  0  0  0
  181.4980  180.7310  138.0020 C   0  0  0  0  0  3  0  0  0  0  0  0
  179.6890  180.8540  140.5730 C   0  0  0  0  0  0  0  0  0  0  0  0
  181.5910  180.0070  139.2730 C   0  0  0  0  0  3  0  0  0  0  0  0
  180.8400  180.0250  140.3830 C   0  0  0  0  0  0  0  0  0  0  0  0
  180.7650  182.1750  136.2200 C   0  0  0  0  0  0  0  0  0  0  0  0
  180.8230  181.4100  135.2210 O   0  0  0  0  0  0  0  0  0  0  0  0
  180.8630  183.5840  136.0190 N   0  0  0  0  0  1  0  0  0  0  0  0
  182.3690  178.1560  141.2640 C   0  0  0  0  0  2  0  0  0  0  0  0
  183.7130  178.7410  141.7050 C   0  0  0  0  0  2  0  0  0  0  0  0
  183.9440  178.6890  143.2180 C   0  0  0  0  0  2  0  0  0  0  0  0
  187.5980  177.8280  142.8200 C   0  0  0  0  0  3  0  0  0  0  0  0
  185.8000  178.2950  144.9340 C   0  0  0  0  0  0  0  0  0  0  0  0
  189.7780  177.0860  145.7110 C   0  0  0  0  0  0  0  0  0  0  0  0
  189.3340  177.2620  144.3940 C   0  0  0  0  0  3  0  0  0  0  0  0
  188.0230  177.6650  144.1370 C   0  0  0  0  0  0  0  0  0  0  0  0
  184.8550  178.5950  146.0600 C   0  0  0  0  0  1  0  0  0  0  0  0
  187.5810  177.7300  146.5230 C   0  0  0  0  0  3  0  0  0  0  0  0
  187.1270  177.9030  145.2070 C   0  0  0  0  0  0  0  0  0  0  0  0
  188.8950  177.3240  146.7720 C   0  0  0  0  0  3  0  0  0  0  0  0
  185.3670  178.3920  143.5920 C   0  0  0  0  0  0  0  0  0  0  0  0
  186.2770  178.1870  142.5520 C   0  0  0  0  0  3  0  0  0  0  0  0
  191.1610  176.6540  145.9710 C   0  0  0  0  0  0  0  0  0  0  0  0
  191.7480  176.8990  147.2070 O   0  0  0  0  0  1  0  0  0  0  0  0
  191.8240  176.0630  145.0780 O   0  0  0  0  0  0  0  0  0  0  0  0
  1  7  2  0  0  0  0
  2 12  1  0  0  0  0
  3  6  1  0  0  0  0
  4  5  1  0  0  0  0
  6  8  2  0  0  0  0
  7  6  1  0  0  0  0
  7  4  1  0  0  0  0
  8  5  1  0  0  0  0
  9  2  2  0  0  0  0
 10 11  2  0  0  0  0
 10  9  1  0  0  0  0
 11 13  1  0  0  0  0
 12  3  2  0  0  0  0
 13 14  2  0  0  0  0
 14 12  1  0  0  0  0
 14  1  1  0  0  0  0
 15 10  1  0  0  0  0
 16 15  2  0  0  0  0
 17 15  1  0  0  0  0
 18  1  1  0  0  0  0
 18 19  1  0  0  0  0
 19 20  1  0  0  0  0
 20 30  1  0  0  0  0
 21 25  1  0  0  0  0
 22 28  1  0  0  0  0
 22 26  1  0  0  0  0
 23 32  1  0  0  0  0
 23 29  1  0  0  0  0
 24 23  2  0  0  0  0
 25 24  1  0  0  0  0
 25 28  2  0  0  0  0
 27 29  2  0  0  0  0
 28 27  1  0  0  0  0
 30 22  2  0  0  0  0
 31 21  2  0  0  0  0
 31 30  1  0  0  0  0
 32 33  1  0  0  0  0
 34 32  2  0  0  0  0
M  END
>  <MODEL>
9

>  <REMARK>
 VINA RESULT:      -9.9      5.472      9.786
  Name = 
  6 active torsions:
  status: ('A' for Active; 'I' for Inactive)
    1  A    between atoms: C_1  and  C_9
    2  A    between atoms: C_3  and  C_25
    3  A    between atoms: C_7  and  C_11
    4  A    between atoms: C_8  and  C_9
    5  A    between atoms: C_8  and  C_18
    6  A    between atoms: C_18  and  C_30
                            x       y       z     vdW  Elec       q    Type
                         _______ _______ _______ _____ _____    ______ ____

>  <TORSDO>
F 6

$$$$
