=
 OpenBabel10262423173D

 34 38  0  0  1  0  0  0  0  0999 V2000
  183.9560  178.8430  139.0160 C   0  0  1  0  0  0  0  0  0  0  0  0
  185.7140  176.0510  136.8870 C   0  0  0  0  0  2  0  0  0  0  0  0
  183.5430  177.0920  136.7140 O   0  0  0  0  0  0  0  0  0  0  0  0
  184.2550  180.1730  139.3300 O   0  0  0  0  0  1  0  0  0  0  0  0
  181.4310  179.2310  139.0220 C   0  0  0  0  0  2  0  0  0  0  0  0
  180.0070  178.0960  137.3070 C   0  0  0  0  0  3  0  0  0  0  0  0
  180.1160  178.9140  138.3620 C   0  0  0  0  0  3  0  0  0  0  0  0
  182.4340  177.4400  137.5130 C   0  0  1  0  0  3  0  0  0  0  0  0
  182.6520  178.8190  138.1830 C   0  0  2  0  0  3  0  0  0  0  0  0
  181.2030  177.5020  136.6150 C   0  0  0  0  0  2  0  0  0  0  0  0
  186.8150  176.8510  136.2020 C   0  0  0  0  0  2  0  0  0  0  0  0
  187.8230  177.3270  137.2480 C   0  0  2  0  0  3  0  0  0  0  0  0
  187.4190  178.5480  137.8060 O   0  0  0  0  0  0  0  0  0  0  0  0
  184.6340  176.8980  137.5760 C   0  0  2  0  0  3  0  0  0  0  0  0
  186.4620  178.2440  138.7820 C   0  0  0  0  0  2  0  0  0  0  0  0
  185.0780  178.2620  138.1360 C   0  0  2  0  0  3  0  0  0  0  0  0
  189.1640  177.4870  136.6170 C   0  0  0  0  0  0  0  0  0  0  0  0
  189.2870  177.5510  135.2340 O   0  0  0  0  0  0  0  0  0  0  0  0
  190.1910  177.5490  137.3400 O   0  0  0  0  0  1  0  0  0  0  0  0
  183.7700  178.0220  140.3090 C   0  0  0  0  0  2  0  0  0  0  0  0
  183.1470  178.8190  141.4490 C   0  0  0  0  0  2  0  0  0  0  0  0
  184.7820  178.8290  144.9070 C   0  0  0  0  0  2  0  0  0  0  0  0
  185.5040  178.4790  142.1600 C   0  0  0  0  0  3  0  0  0  0  0  0
  188.0670  176.8940  145.1170 C   0  0  1  0  0  3  0  0  0  0  0  0
  186.6240  177.2440  145.4860 C   0  0  0  0  0  2  0  0  0  0  0  0
  185.9920  178.1170  144.4980 N   0  0  0  0  0  0  0  0  0  0  0  0
  187.6790  177.5050  142.6800 C   0  0  0  0  0  2  0  0  0  0  0  0
  186.3460  178.0370  143.0990 C   0  0  0  0  0  0  0  0  0  0  0  0
  188.1880  176.4470  143.6540 C   0  0  0  0  0  2  0  0  0  0  0  0
  184.1840  179.1120  142.5170 C   0  0  2  0  0  3  0  0  0  0  0  0
  183.6830  178.6200  143.8720 C   0  0  0  0  0  2  0  0  0  0  0  0
  189.0860  177.9460  145.5810 C   0  0  0  0  0  3  0  0  0  0  0  0
  189.2130  177.9520  147.0930 C   0  0  0  0  0  1  0  0  0  0  0  0
  190.4570  177.7990  144.9430 C   0  0  0  0  0  1  0  0  0  0  0  0
  1  4  1  1  0  0  0
  1 20  1  0  0  0  0
  3  8  1  0  0  0  0
  3 14  1  0  0  0  0
  6  7  2  0  0  0  0
  7  5  1  0  0  0  0
  8 10  1  6  0  0  0
  8  9  1  0  0  0  0
  9  1  1  0  0  0  0
  9  5  1  1  0  0  0
 10  6  1  0  0  0  0
 11  2  1  0  0  0  0
 11 12  1  0  0  0  0
 12 17  1  6  0  0  0
 12 13  1  0  0  0  0
 13 15  1  0  0  0  0
 14  2  1  6  0  0  0
 14 16  1  0  0  0  0
 16 15  1  1  0  0  0
 16  1  1  0  0  0  0
 17 19  1  0  0  0  0
 18 17  2  0  0  0  0
 20 21  1  0  0  0  0
 23 30  1  0  0  0  0
 23 28  2  0  0  0  0
 24 25  1  0  0  0  0
 24 32  1  6  0  0  0
 26 22  1  0  0  0  0
 26 25  1  0  0  0  0
 27 28  1  0  0  0  0
 27 29  1  0  0  0  0
 28 26  1  0  0  0  0
 29 24  1  0  0  0  0
 30 21  1  6  0  0  0
 30 31  1  0  0  0  0
 31 22  1  0  0  0  0
 32 33  1  0  0  0  0
 34 32  1  0  0  0  0
M  END
>  <MODEL>
1

>  <REMARK>
 VINA RESULT:      -9.0      0.000      0.000
  Name = 
  5 active torsions:
  status: ('A' for Active; 'I' for Inactive)
    1  A    between atoms: C_1  and  C_8
    2  A    between atoms: C_3  and  C_25
    3  A    between atoms: C_7  and  C_11
    4  A    between atoms: C_8  and  C_18
    5  A    between atoms: C_18  and  C_30
                            x       y       z     vdW  Elec       q    Type
                         _______ _______ _______ _____ _____    ______ ____

>  <TORSDO>
F 5

$$$$
=
 OpenBabel10262423173D

 34 38  0  0  1  0  0  0  0  0999 V2000
  187.9140  177.2780  143.7760 C   0  0  1  0  0  0  0  0  0  0  0  0
  189.6030  178.3710  147.1490 C   0  0  0  0  0  2  0  0  0  0  0  0
  187.2900  178.1650  146.4900 O   0  0  0  0  0  0  0  0  0  0  0  0
  187.9460  176.1210  142.9920 O   0  0  0  0  0  1  0  0  0  0  0  0
  185.4940  177.8270  143.1690 C   0  0  0  0  0  2  0  0  0  0  0  0
  183.9590  178.7320  144.9250 C   0  0  0  0  0  3  0  0  0  0  0  0
  184.1670  178.3400  143.6610 C   0  0  0  0  0  3  0  0  0  0  0  0
  186.4200  178.5230  145.4380 C   0  0  1  0  0  3  0  0  0  0  0  0
  186.4720  177.4720  144.3020 C   0  0  2  0  0  3  0  0  0  0  0  0
  185.0030  178.5950  145.9990 C   0  0  0  0  0  2  0  0  0  0  0  0
  190.2090  177.0530  147.6160 C   0  0  0  0  0  2  0  0  0  0  0  0
  191.3280  176.6410  146.6600 C   0  0  2  0  0  3  0  0  0  0  0  0
  190.8140  175.9090  145.5810 O   0  0  0  0  0  0  0  0  0  0  0  0
  188.6000  178.2460  145.9930 C   0  0  2  0  0  3  0  0  0  0  0  0
  190.3020  176.8430  144.6720 C   0  0  0  0  0  2  0  0  0  0  0  0
  188.8300  177.0920  144.9990 C   0  0  2  0  0  3  0  0  0  0  0  0
  192.3330  175.8160  147.3890 C   0  0  0  0  0  0  0  0  0  0  0  0
  192.8670  176.2600  148.5930 O   0  0  0  0  0  1  0  0  0  0  0  0
  192.7100  174.7190  146.9040 O   0  0  0  0  0  0  0  0  0  0  0  0
  188.3360  178.5020  142.9350 C   0  0  0  0  0  2  0  0  0  0  0  0
  189.5200  178.2260  142.0160 C   0  0  0  0  0  2  0  0  0  0  0  0
  188.0530  177.6590  138.5290 C   0  0  0  0  0  2  0  0  0  0  0  0
  190.2270  176.7450  140.1490 C   0  0  0  0  0  3  0  0  0  0  0  0
  190.5340  176.3070  135.9610 C   0  0  1  0  0  3  0  0  0  0  0  0
  189.5170  177.2940  136.5390 C   0  0  0  0  0  2  0  0  0  0  0  0
  189.2590  177.0610  137.9590 N   0  0  0  0  0  0  0  0  0  0  0  0
  191.4250  175.7440  138.2750 C   0  0  0  0  0  2  0  0  0  0  0  0
  190.2920  176.5480  138.8290 C   0  0  0  0  0  0  0  0  0  0  0  0
  191.7750  176.1810  136.8560 C   0  0  0  0  0  2  0  0  0  0  0  0
  189.0660  177.4650  140.7840 C   0  0  2  0  0  3  0  0  0  0  0  0
  188.4040  178.4240  139.7990 C   0  0  0  0  0  2  0  0  0  0  0  0
  189.9040  174.9840  135.5010 C   0  0  0  0  0  3  0  0  0  0  0  0
  188.7040  175.2340  134.6070 C   0  0  0  0  0  1  0  0  0  0  0  0
  190.8800  174.0440  134.8130 C   0  0  0  0  0  1  0  0  0  0  0  0
  1  4  1  6  0  0  0
  1  9  1  0  0  0  0
  1 16  1  0  0  0  0
  2 11  1  0  0  0  0
  5  7  1  0  0  0  0
  6 10  1  0  0  0  0
  7  6  2  0  0  0  0
  8 10  1  1  0  0  0
  8  3  1  0  0  0  0
  9  5  1  6  0  0  0
  9  8  1  0  0  0  0
 12 17  1  1  0  0  0
 12 11  1  0  0  0  0
 13 12  1  0  0  0  0
 14  3  1  0  0  0  0
 14  2  1  1  0  0  0
 15 13  1  0  0  0  0
 16 15  1  6  0  0  0
 16 14  1  0  0  0  0
 17 18  1  0  0  0  0
 19 17  2  0  0  0  0
 20  1  1  0  0  0  0
 21 20  1  0  0  0  0
 22 31  1  0  0  0  0
 23 30  1  0  0  0  0
 24 32  1  1  0  0  0
 24 25  1  0  0  0  0
 24 29  1  0  0  0  0
 25 26  1  0  0  0  0
 26 22  1  0  0  0  0
 26 28  1  0  0  0  0
 27 28  1  0  0  0  0
 28 23  2  0  0  0  0
 29 27  1  0  0  0  0
 30 21  1  1  0  0  0
 31 30  1  0  0  0  0
 33 32  1  0  0  0  0
 34 32  1  0  0  0  0
M  END
>  <MODEL>
2

>  <REMARK>
 VINA RESULT:      -8.7      4.314      8.814
  Name = 
  5 active torsions:
  status: ('A' for Active; 'I' for Inactive)
    1  A    between atoms: C_1  and  C_8
    2  A    between atoms: C_3  and  C_25
    3  A    between atoms: C_7  and  C_11
    4  A    between atoms: C_8  and  C_18
    5  A    between atoms: C_18  and  C_30
                            x       y       z     vdW  Elec       q    Type
                         _______ _______ _______ _____ _____    ______ ____

>  <TORSDO>
F 5

$$$$
=
 OpenBabel10262423173D

 34 38  0  0  1  0  0  0  0  0999 V2000
  189.2360  177.3270  138.0190 C   0  0  1  0  0  0  0  0  0  0  0  0
  190.8320  173.8870  136.9990 C   0  0  0  0  0  2  0  0  0  0  0  0
  188.7070  174.9060  136.4720 O   0  0  0  0  0  0  0  0  0  0  0  0
  189.6000  178.6670  137.8500 O   0  0  0  0  0  1  0  0  0  0  0  0
  186.7310  177.8130  137.8880 C   0  0  0  0  0  2  0  0  0  0  0  0
  185.2300  176.2210  136.6770 C   0  0  0  0  0  3  0  0  0  0  0  0
  185.3920  177.3500  137.3790 C   0  0  0  0  0  3  0  0  0  0  0  0
  187.6280  175.5630  137.0990 C   0  0  1  0  0  3  0  0  0  0  0  0
  187.9190  177.0770  137.2460 C   0  0  2  0  0  3  0  0  0  0  0  0
  186.3860  175.3660  136.2350 C   0  0  0  0  0  2  0  0  0  0  0  0
  191.9570  174.3460  136.0780 C   0  0  0  0  0  2  0  0  0  0  0  0
  193.0020  175.1070  136.8930 C   0  0  2  0  0  3  0  0  0  0  0  0
  192.6620  176.4640  136.9900 O   0  0  0  0  0  0  0  0  0  0  0  0
  189.8020  174.9720  137.3480 C   0  0  2  0  0  3  0  0  0  0  0  0
  191.7080  176.5650  138.0110 C   0  0  0  0  0  2  0  0  0  0  0  0
  190.3160  176.4230  137.3980 C   0  0  2  0  0  3  0  0  0  0  0  0
  194.3380  174.9730  136.2470 C   0  0  0  0  0  0  0  0  0  0  0  0
  194.6420  173.8490  135.4880 O   0  0  0  0  0  0  0  0  0  0  0  0
  195.2000  175.8760  136.4010 O   0  0  0  0  0  1  0  0  0  0  0  0
  189.0330  177.0180  139.5180 C   0  0  0  0  0  2  0  0  0  0  0  0
  189.8820  177.8880  140.4360 C   0  0  0  0  0  2  0  0  0  0  0  0
  186.9750  178.0220  142.9190 C   0  0  0  0  0  2  0  0  0  0  0  0
  189.8330  178.1750  142.9050 C   0  0  0  0  0  3  0  0  0  0  0  0
  187.9070  177.1080  146.5080 C   0  0  1  0  0  3  0  0  0  0  0  0
  187.1450  176.9880  145.1870 C   0  0  0  0  0  2  0  0  0  0  0  0
  187.7830  177.7350  144.1040 N   0  0  0  0  0  0  0  0  0  0  0  0
  190.0320  177.8240  145.3110 C   0  0  0  0  0  2  0  0  0  0  0  0
  189.2170  177.9020  144.0590 C   0  0  0  0  0  0  0  0  0  0  0  0
  189.4110  176.8650  146.3210 C   0  0  0  0  0  2  0  0  0  0  0  0
  189.0630  178.3590  141.6230 C   0  0  2  0  0  3  0  0  0  0  0  0
  187.7340  177.6100  141.6630 C   0  0  0  0  0  2  0  0  0  0  0  0
  187.5270  178.3580  147.3160 C   0  0  0  0  0  3  0  0  0  0  0  0
  186.0550  178.6880  147.1500 C   0  0  0  0  0  1  0  0  0  0  0  0
  187.8780  178.2670  148.7920 C   0  0  0  0  0  1  0  0  0  0  0  0
  1  4  1  6  0  0  0
  1 20  1  0  0  0  0
  3  8  1  0  0  0  0
  3 14  1  0  0  0  0
  6  7  2  0  0  0  0
  7  5  1  0  0  0  0
  8 10  1  6  0  0  0
  8  9  1  0  0  0  0
  9  5  1  1  0  0  0
  9  1  1  0  0  0  0
 10  6  1  0  0  0  0
 11 12  1  0  0  0  0
 11  2  1  0  0  0  0
 12 17  1  6  0  0  0
 12 13  1  0  0  0  0
 13 15  1  0  0  0  0
 14  2  1  6  0  0  0
 14 16  1  0  0  0  0
 16 15  1  1  0  0  0
 16  1  1  0  0  0  0
 17 19  1  0  0  0  0
 18 17  2  0  0  0  0
 20 21  1  0  0  0  0
 22 26  1  0  0  0  0
 23 28  2  0  0  0  0
 24 32  1  6  0  0  0
 25 24  1  0  0  0  0
 26 25  1  0  0  0  0
 27 29  1  0  0  0  0
 28 26  1  0  0  0  0
 28 27  1  0  0  0  0
 29 24  1  0  0  0  0
 30 21  1  6  0  0  0
 30 31  1  0  0  0  0
 30 23  1  0  0  0  0
 31 22  1  0  0  0  0
 32 34  1  0  0  0  0
 33 32  1  0  0  0  0
M  END
>  <MODEL>
3

>  <REMARK>
 VINA RESULT:      -8.5      2.903      4.958
  Name = 
  5 active torsions:
  status: ('A' for Active; 'I' for Inactive)
    1  A    between atoms: C_1  and  C_8
    2  A    between atoms: C_3  and  C_25
    3  A    between atoms: C_7  and  C_11
    4  A    between atoms: C_8  and  C_18
    5  A    between atoms: C_18  and  C_30
                            x       y       z     vdW  Elec       q    Type
                         _______ _______ _______ _____ _____    ______ ____

>  <TORSDO>
F 5

$$$$
=
 OpenBabel10262423173D

 34 38  0  0  1  0  0  0  0  0999 V2000
  187.6490  177.3740  144.2490 C   0  0  1  0  0  0  0  0  0  0  0  0
  191.1250  178.5880  142.8830 C   0  0  0  0  0  2  0  0  0  0  0  0
  190.3850  177.9570  145.0930 O   0  0  0  0  0  0  0  0  0  0  0  0
  186.8050  176.2950  143.9670 O   0  0  0  0  0  1  0  0  0  0  0  0
  186.9970  177.4570  146.7180 C   0  0  0  0  0  2  0  0  0  0  0  0
  188.7510  177.9290  148.4380 C   0  0  0  0  0  3  0  0  0  0  0  0
  187.4750  177.6610  148.1310 C   0  0  0  0  0  3  0  0  0  0  0  0
  189.3280  178.1920  145.9970 C   0  0  1  0  0  3  0  0  0  0  0  0
  188.1400  177.2420  145.7110 C   0  0  2  0  0  3  0  0  0  0  0  0
  189.8480  177.9430  147.4100 C   0  0  0  0  0  2  0  0  0  0  0  0
  191.5390  177.3950  142.0310 C   0  0  0  0  0  2  0  0  0  0  0  0
  190.5980  177.2750  140.8330 C   0  0  2  0  0  3  0  0  0  0  0  0
  189.4660  176.5170  141.1660 O   0  0  0  0  0  0  0  0  0  0  0  0
  189.9330  178.3300  143.8170 C   0  0  2  0  0  3  0  0  0  0  0  0
  188.5920  177.3790  141.8400 C   0  0  0  0  0  2  0  0  0  0  0  0
  188.8870  177.3060  143.3380 C   0  0  2  0  0  3  0  0  0  0  0  0
  191.3130  176.6290  139.6950 C   0  0  0  0  0  0  0  0  0  0  0  0
  192.6120  177.0050  139.3770 O   0  0  0  0  0  1  0  0  0  0  0  0
  190.7310  175.7490  139.0110 O   0  0  0  0  0  0  0  0  0  0  0  0
  186.8870  178.7040  144.0690 C   0  0  0  0  0  2  0  0  0  0  0  0
  185.4990  178.6980  144.6970 C   0  0  0  0  0  2  0  0  0  0  0  0
  182.1690  178.5700  142.8190 C   0  0  0  0  0  2  0  0  0  0  0  0
  184.9750  178.4080  142.2850 C   0  0  0  0  0  3  0  0  0  0  0  0
  182.3970  179.4750  139.1170 C   0  0  1  0  0  3  0  0  0  0  0  0
  181.9030  179.6000  140.5590 C   0  0  0  0  0  2  0  0  0  0  0  0
  182.7350  178.8520  141.5010 N   0  0  0  0  0  0  0  0  0  0  0  0
  184.7100  178.7540  139.8850 C   0  0  0  0  0  2  0  0  0  0  0  0
  184.1510  178.6810  141.2700 C   0  0  0  0  0  0  0  0  0  0  0  0
  183.9090  179.7140  139.0110 C   0  0  0  0  0  2  0  0  0  0  0  0
  184.4650  178.2280  143.6910 C   0  0  2  0  0  3  0  0  0  0  0  0
  183.1550  178.9810  143.9050 C   0  0  0  0  0  2  0  0  0  0  0  0
  181.8650  178.2260  138.3980 C   0  0  0  0  0  3  0  0  0  0  0  0
  180.4840  177.8520  138.9040 C   0  0  0  0  0  1  0  0  0  0  0  0
  181.8510  178.3450  136.8830 C   0  0  0  0  0  1  0  0  0  0  0  0
  1  4  1  6  0  0  0
  1  9  1  0  0  0  0
  3  8  1  0  0  0  0
  5  7  1  0  0  0  0
  7  6  2  0  0  0  0
  8 10  1  1  0  0  0
  9  8  1  0  0  0  0
  9  5  1  1  0  0  0
 10  6  1  0  0  0  0
 11  2  1  0  0  0  0
 12 17  1  6  0  0  0
 12 13  1  0  0  0  0
 12 11  1  0  0  0  0
 13 15  1  0  0  0  0
 14  2  1  6  0  0  0
 14  3  1  0  0  0  0
 16 15  1  6  0  0  0
 16 14  1  0  0  0  0
 16  1  1  0  0  0  0
 18 17  1  0  0  0  0
 19 17  2  0  0  0  0
 20  1  1  0  0  0  0
 20 21  1  0  0  0  0
 22 31  1  0  0  0  0
 23 30  1  0  0  0  0
 24 32  1  1  0  0  0
 24 25  1  0  0  0  0
 25 26  1  0  0  0  0
 26 22  1  0  0  0  0
 27 28  1  0  0  0  0
 28 26  1  0  0  0  0
 28 23  2  0  0  0  0
 29 24  1  0  0  0  0
 29 27  1  0  0  0  0
 30 31  1  0  0  0  0
 30 21  1  1  0  0  0
 32 33  1  0  0  0  0
 34 32  1  0  0  0  0
M  END
>  <MODEL>
4

>  <REMARK>
 VINA RESULT:      -8.4      2.857      7.783
  Name = 
  5 active torsions:
  status: ('A' for Active; 'I' for Inactive)
    1  A    between atoms: C_1  and  C_8
    2  A    between atoms: C_3  and  C_25
    3  A    between atoms: C_7  and  C_11
    4  A    between atoms: C_8  and  C_18
    5  A    between atoms: C_18  and  C_30
                            x       y       z     vdW  Elec       q    Type
                         _______ _______ _______ _____ _____    ______ ____

>  <TORSDO>
F 5

$$$$
=
 OpenBabel10262423173D

 34 38  0  0  1  0  0  0  0  0999 V2000
  188.7100  176.9270  143.5620 C   0  0  1  0  0  0  0  0  0  0  0  0
  191.7690  178.2190  141.4670 C   0  0  0  0  0  2  0  0  0  0  0  0
  191.5970  177.3510  143.7120 O   0  0  0  0  0  0  0  0  0  0  0  0
  187.7680  175.9060  143.3980 O   0  0  0  0  0  1  0  0  0  0  0  0
  188.7260  176.7350  146.1090 C   0  0  0  0  0  2  0  0  0  0  0  0
  190.8880  176.9670  147.3470 C   0  0  0  0  0  3  0  0  0  0  0  0
  189.5640  176.7630  147.3600 C   0  0  0  0  0  3  0  0  0  0  0  0
  190.8240  177.5010  144.8830 C   0  0  1  0  0  3  0  0  0  0  0  0
  189.5560  176.6150  144.8200 C   0  0  2  0  0  3  0  0  0  0  0  0
  191.6790  177.0780  146.0730 C   0  0  0  0  0  2  0  0  0  0  0  0
  191.8870  177.1250  140.4120 C   0  0  0  0  0  2  0  0  0  0  0  0
  190.6630  177.1650  139.4990 C   0  0  2  0  0  3  0  0  0  0  0  0
  189.6190  176.3980  140.0360 O   0  0  0  0  0  0  0  0  0  0  0  0
  190.8490  177.8790  142.6480 C   0  0  2  0  0  3  0  0  0  0  0  0
  188.9950  177.1940  141.0040 C   0  0  0  0  0  2  0  0  0  0  0  0
  189.6640  176.9400  142.3540 C   0  0  2  0  0  3  0  0  0  0  0  0
  191.0240  176.6420  138.1500 C   0  0  0  0  0  0  0  0  0  0  0  0
  192.3370  176.2890  137.8620 O   0  0  0  0  0  1  0  0  0  0  0  0
  190.1380  176.5330  137.2650 O   0  0  0  0  0  0  0  0  0  0  0  0
  187.9950  178.2850  143.7320 C   0  0  0  0  0  2  0  0  0  0  0  0
  186.5820  178.1610  144.2890 C   0  0  0  0  0  2  0  0  0  0  0  0
  184.5090  178.9930  141.1830 C   0  0  0  0  0  2  0  0  0  0  0  0
  184.2280  178.9140  144.0300 C   0  0  0  0  0  3  0  0  0  0  0  0
  180.7330  178.7060  141.6700 C   0  0  1  0  0  3  0  0  0  0  0  0
  182.0880  178.3980  141.0300 C   0  0  0  0  0  2  0  0  0  0  0  0
  183.2090  178.8730  141.8410 N   0  0  0  0  0  0  0  0  0  0  0  0
  181.7910  179.0110  143.9610 C   0  0  0  0  0  2  0  0  0  0  0  0
  183.1210  178.9150  143.2820 C   0  0  0  0  0  0  0  0  0  0  0  0
  180.7010  178.3140  143.1530 C   0  0  0  0  0  2  0  0  0  0  0  0
  185.6000  178.9120  143.4090 C   0  0  2  0  0  3  0  0  0  0  0  0
  185.5770  178.2920  142.0150 C   0  0  0  0  0  2  0  0  0  0  0  0
  180.2110  180.1130  141.3400 C   0  0  0  0  0  3  0  0  0  0  0  0
  180.0260  180.2880  139.8440 C   0  0  0  0  0  1  0  0  0  0  0  0
  178.9310  180.4820  142.0710 C   0  0  0  0  0  1  0  0  0  0  0  0
  1  4  1  6  0  0  0
  1 20  1  0  0  0  0
  1  9  1  0  0  0  0
  3  8  1  0  0  0  0
  5  7  1  0  0  0  0
  6  7  2  0  0  0  0
  8 10  1  1  0  0  0
  9  8  1  0  0  0  0
  9  5  1  1  0  0  0
 10  6  1  0  0  0  0
 11  2  1  0  0  0  0
 12 17  1  6  0  0  0
 12 13  1  0  0  0  0
 12 11  1  0  0  0  0
 13 15  1  0  0  0  0
 14  2  1  6  0  0  0
 14  3  1  0  0  0  0
 16 15  1  6  0  0  0
 16 14  1  0  0  0  0
 16  1  1  0  0  0  0
 18 17  1  0  0  0  0
 19 17  2  0  0  0  0
 20 21  1  0  0  0  0
 22 26  1  0  0  0  0
 22 31  1  0  0  0  0
 24 32  1  1  0  0  0
 24 29  1  0  0  0  0
 25 24  1  0  0  0  0
 25 26  1  0  0  0  0
 26 28  1  0  0  0  0
 28 27  1  0  0  0  0
 28 23  2  0  0  0  0
 29 27  1  0  0  0  0
 30 23  1  0  0  0  0
 30 21  1  1  0  0  0
 31 30  1  0  0  0  0
 32 34  1  0  0  0  0
 33 32  1  0  0  0  0
M  END
>  <MODEL>
5

>  <REMARK>
 VINA RESULT:      -8.3      3.027      7.892
  Name = 
  5 active torsions:
  status: ('A' for Active; 'I' for Inactive)
    1  A    between atoms: C_1  and  C_8
    2  A    between atoms: C_3  and  C_25
    3  A    between atoms: C_7  and  C_11
    4  A    between atoms: C_8  and  C_18
    5  A    between atoms: C_18  and  C_30
                            x       y       z     vdW  Elec       q    Type
                         _______ _______ _______ _____ _____    ______ ____

>  <TORSDO>
F 5

$$$$
=
 OpenBabel10262423173D

 34 38  0  0  1  0  0  0  0  0999 V2000
  189.0950  177.1930  137.3770 C   0  0  1  0  0  0  0  0  0  0  0  0
  191.0350  173.8200  136.8520 C   0  0  0  0  0  2  0  0  0  0  0  0
  189.2210  174.8490  135.6370 O   0  0  0  0  0  0  0  0  0  0  0  0
  189.4620  178.5420  137.4110 O   0  0  0  0  0  1  0  0  0  0  0  0
  186.7960  177.6690  136.3700 C   0  0  0  0  0  2  0  0  0  0  0  0
  185.8740  176.1300  134.6260 C   0  0  0  0  0  3  0  0  0  0  0  0
  185.7440  177.2220  135.3900 C   0  0  0  0  0  3  0  0  0  0  0  0
  187.9730  175.4670  135.8590 C   0  0  1  0  0  3  0  0  0  0  0  0
  188.1530  176.9730  136.1690 C   0  0  2  0  0  3  0  0  0  0  0  0
  187.1320  175.3060  134.5960 C   0  0  0  0  0  2  0  0  0  0  0  0
  192.4050  174.3310  136.4230 C   0  0  0  0  0  2  0  0  0  0  0  0
  193.0660  175.0570  137.5940 C   0  0  2  0  0  3  0  0  0  0  0  0
  192.6810  176.4050  137.6220 O   0  0  0  0  0  0  0  0  0  0  0  0
  189.9220  174.8780  136.8530 C   0  0  2  0  0  3  0  0  0  0  0  0
  191.4210  176.4480  138.2310 C   0  0  0  0  0  2  0  0  0  0  0  0
  190.3480  176.3280  137.1500 C   0  0  2  0  0  3  0  0  0  0  0  0
  194.5490  174.9640  137.4710 C   0  0  0  0  0  0  0  0  0  0  0  0
  195.3450  174.8900  138.6080 O   0  0  0  0  0  1  0  0  0  0  0  0
  195.0820  174.9680  136.3320 O   0  0  0  0  0  0  0  0  0  0  0  0
  188.3720  176.8070  138.6850 C   0  0  0  0  0  2  0  0  0  0  0  0
  188.4740  177.8710  139.7710 C   0  0  0  0  0  2  0  0  0  0  0  0
  190.8380  177.4720  142.7520 C   0  0  0  0  0  2  0  0  0  0  0  0
  188.0430  177.3230  142.1570 C   0  0  0  0  0  3  0  0  0  0  0  0
  189.1990  177.9980  146.1610 C   0  0  1  0  0  3  0  0  0  0  0  0
  190.2040  178.2590  145.0370 C   0  0  0  0  0  2  0  0  0  0  0  0
  189.8070  177.6310  143.7770 N   0  0  0  0  0  0  0  0  0  0  0  0
  187.3660  177.4150  144.4990 C   0  0  0  0  0  2  0  0  0  0  0  0
  188.4130  177.4700  143.4320 C   0  0  0  0  0  0  0  0  0  0  0  0
  187.7570  178.2610  145.7070 C   0  0  0  0  0  2  0  0  0  0  0  0
  189.0530  177.2760  141.0410 C   0  0  2  0  0  3  0  0  0  0  0  0
  190.3330  178.0160  141.4210 C   0  0  0  0  0  2  0  0  0  0  0  0
  189.4380  176.6700  146.8940 C   0  0  0  0  0  3  0  0  0  0  0  0
  190.8830  176.5460  147.3410 C   0  0  0  0  0  1  0  0  0  0  0  0
  188.5060  176.4390  148.0710 C   0  0  0  0  0  1  0  0  0  0  0  0
  1  4  1  1  0  0  0
  1 20  1  0  0  0  0
  3  8  1  0  0  0  0
  3 14  1  0  0  0  0
  6  7  2  0  0  0  0
  7  5  1  0  0  0  0
  8 10  1  6  0  0  0
  8  9  1  0  0  0  0
  9  5  1  1  0  0  0
  9  1  1  0  0  0  0
 10  6  1  0  0  0  0
 11  2  1  0  0  0  0
 11 12  1  0  0  0  0
 12 17  1  6  0  0  0
 12 13  1  0  0  0  0
 13 15  1  0  0  0  0
 14  2  1  6  0  0  0
 14 16  1  0  0  0  0
 16  1  1  0  0  0  0
 16 15  1  1  0  0  0
 17 18  1  0  0  0  0
 19 17  2  0  0  0  0
 20 21  1  0  0  0  0
 22 26  1  0  0  0  0
 23 28  2  0  0  0  0
 24 32  1  6  0  0  0
 25 24  1  0  0  0  0
 26 25  1  0  0  0  0
 27 29  1  0  0  0  0
 28 26  1  0  0  0  0
 28 27  1  0  0  0  0
 29 24  1  0  0  0  0
 30 21  1  6  0  0  0
 30 31  1  0  0  0  0
 30 23  1  0  0  0  0
 31 22  1  0  0  0  0
 32 33  1  0  0  0  0
 32 34  1  0  0  0  0
M  END
>  <MODEL>
6

>  <REMARK>
 VINA RESULT:      -8.3      3.513      5.321
  Name = 
  5 active torsions:
  status: ('A' for Active; 'I' for Inactive)
    1  A    between atoms: C_1  and  C_8
    2  A    between atoms: C_3  and  C_25
    3  A    between atoms: C_7  and  C_11
    4  A    between atoms: C_8  and  C_18
    5  A    between atoms: C_18  and  C_30
                            x       y       z     vdW  Elec       q    Type
                         _______ _______ _______ _____ _____    ______ ____

>  <TORSDO>
F 5

$$$$
=
 OpenBabel10262423173D

 34 38  0  0  1  0  0  0  0  0999 V2000
  190.2910  175.9660  136.1880 C   0  0  1  0  0  0  0  0  0  0  0  0
  193.2060  173.5380  137.2020 C   0  0  0  0  0  2  0  0  0  0  0  0
  190.9950  173.1340  136.3210 O   0  0  0  0  0  0  0  0  0  0  0  0
  190.1590  177.0110  135.2670 O   0  0  0  0  0  1  0  0  0  0  0  0
  187.8570  175.2270  135.9570 C   0  0  0  0  0  2  0  0  0  0  0  0
  187.3060  172.7870  135.9540 C   0  0  0  0  0  3  0  0  0  0  0  0
  186.9050  174.0630  135.8830 C   0  0  0  0  0  3  0  0  0  0  0  0
  189.6520  173.5130  136.5290 C   0  0  1  0  0  3  0  0  0  0  0  0
  189.3300  174.8260  135.7750 C   0  0  2  0  0  3  0  0  0  0  0  0
  188.7560  172.3940  136.0060 C   0  0  0  0  0  2  0  0  0  0  0  0
  194.2330  173.8410  136.1170 C   0  0  0  0  0  2  0  0  0  0  0  0
  194.7500  175.2680  136.2920 C   0  0  2  0  0  3  0  0  0  0  0  0
  193.9210  176.1810  135.6230 O   0  0  0  0  0  0  0  0  0  0  0  0
  191.8020  174.1020  136.9370 C   0  0  2  0  0  3  0  0  0  0  0  0
  192.8240  176.4130  136.4630 C   0  0  0  0  0  2  0  0  0  0  0  0
  191.7240  175.4090  136.1240 C   0  0  2  0  0  3  0  0  0  0  0  0
  196.1370  175.3690  135.7560 C   0  0  0  0  0  0  0  0  0  0  0  0
  196.8060  176.5880  135.7620 O   0  0  0  0  0  1  0  0  0  0  0  0
  196.6990  174.3490  135.2820 O   0  0  0  0  0  0  0  0  0  0  0  0
  189.9400  176.4620  137.6070 C   0  0  0  0  0  2  0  0  0  0  0  0
  189.4410  177.9010  137.6400 C   0  0  0  0  0  2  0  0  0  0  0  0
  187.5620  178.5540  140.9080 C   0  0  0  0  0  2  0  0  0  0  0  0
  190.0960  177.5670  140.0150 C   0  0  0  0  0  3  0  0  0  0  0  0
  188.7850  176.4950  143.8820 C   0  0  1  0  0  3  0  0  0  0  0  0
  187.7680  177.0130  142.8630 C   0  0  0  0  0  2  0  0  0  0  0  0
  188.4040  177.6900  141.7340 N   0  0  0  0  0  0  0  0  0  0  0  0
  190.6650  176.5870  142.1750 C   0  0  0  0  0  2  0  0  0  0  0  0
  189.7080  177.2850  141.2620 C   0  0  0  0  0  0  0  0  0  0  0  0
  189.9320  175.7340  143.2040 C   0  0  0  0  0  2  0  0  0  0  0  0
  189.2180  178.3490  139.0730 C   0  0  2  0  0  3  0  0  0  0  0  0
  187.7430  178.1990  139.4370 C   0  0  0  0  0  2  0  0  0  0  0  0
  189.2030  177.5520  144.9150 C   0  0  0  0  0  3  0  0  0  0  0  0
  188.0540  177.8860  145.8490 C   0  0  0  0  0  1  0  0  0  0  0  0
  190.4360  177.1740  145.7200 C   0  0  0  0  0  1  0  0  0  0  0  0
  1  4  1  6  0  0  0
  1 20  1  0  0  0  0
  3  8  1  0  0  0  0
  3 14  1  0  0  0  0
  6 10  1  0  0  0  0
  7  6  2  0  0  0  0
  7  5  1  0  0  0  0
  8 10  1  6  0  0  0
  9  5  1  1  0  0  0
  9  1  1  0  0  0  0
  9  8  1  0  0  0  0
 11 12  1  0  0  0  0
 11  2  1  0  0  0  0
 12 17  1  6  0  0  0
 13 12  1  0  0  0  0
 13 15  1  0  0  0  0
 14  2  1  6  0  0  0
 16  1  1  0  0  0  0
 16 15  1  1  0  0  0
 16 14  1  0  0  0  0
 17 18  1  0  0  0  0
 19 17  2  0  0  0  0
 20 21  1  0  0  0  0
 22 26  1  0  0  0  0
 23 28  2  0  0  0  0
 24 32  1  6  0  0  0
 25 24  1  0  0  0  0
 26 25  1  0  0  0  0
 27 29  1  0  0  0  0
 28 26  1  0  0  0  0
 28 27  1  0  0  0  0
 29 24  1  0  0  0  0
 30 21  1  6  0  0  0
 30 31  1  0  0  0  0
 30 23  1  0  0  0  0
 31 22  1  0  0  0  0
 32 34  1  0  0  0  0
 32 33  1  0  0  0  0
M  END
>  <MODEL>
7

>  <REMARK>
 VINA RESULT:      -8.3      4.089      6.607
  Name = 
  5 active torsions:
  status: ('A' for Active; 'I' for Inactive)
    1  A    between atoms: C_1  and  C_8
    2  A    between atoms: C_3  and  C_25
    3  A    between atoms: C_7  and  C_11
    4  A    between atoms: C_8  and  C_18
    5  A    between atoms: C_18  and  C_30
                            x       y       z     vdW  Elec       q    Type
                         _______ _______ _______ _____ _____    ______ ____

>  <TORSDO>
F 5

$$$$
=
 OpenBabel10262423173D

 34 38  0  0  1  0  0  0  0  0999 V2000
  187.8920  177.1950  143.5780 C   0  0  1  0  0  0  0  0  0  0  0  0
  189.4810  178.4210  146.9530 C   0  0  0  0  0  2  0  0  0  0  0  0
  187.1890  178.2030  146.2290 O   0  0  0  0  0  0  0  0  0  0  0  0
  187.9390  176.0050  142.8450 O   0  0  0  0  0  1  0  0  0  0  0  0
  185.4980  177.7350  142.8690 C   0  0  0  0  0  2  0  0  0  0  0  0
  183.9150  178.7250  144.5340 C   0  0  0  0  0  3  0  0  0  0  0  0
  184.1590  178.2770  143.2950 C   0  0  0  0  0  3  0  0  0  0  0  0
  186.3560  178.5210  145.1350 C   0  0  1  0  0  3  0  0  0  0  0  0
  186.4350  177.4220  144.0480 C   0  0  2  0  0  3  0  0  0  0  0  0
  184.9220  178.6270  145.6460 C   0  0  0  0  0  2  0  0  0  0  0  0
  190.0600  177.1200  147.4960 C   0  0  0  0  0  2  0  0  0  0  0  0
  191.2060  176.6600  146.5960 C   0  0  2  0  0  3  0  0  0  0  0  0
  190.7210  175.8840  145.5330 O   0  0  0  0  0  0  0  0  0  0  0  0
  188.5150  178.2530  145.7710 C   0  0  2  0  0  3  0  0  0  0  0  0
  190.2460  176.7820  144.5680 C   0  0  0  0  0  2  0  0  0  0  0  0
  188.7670  177.0550  144.8360 C   0  0  2  0  0  3  0  0  0  0  0  0
  192.1800  175.8600  147.3910 C   0  0  0  0  0  0  0  0  0  0  0  0
  192.8000  176.4130  148.5050 O   0  0  0  0  0  1  0  0  0  0  0  0
  192.4530  174.6820  147.0440 O   0  0  0  0  0  0  0  0  0  0  0  0
  188.3510  178.3780  142.6990 C   0  0  0  0  0  2  0  0  0  0  0  0
  189.8210  178.3030  142.3020 C   0  0  0  0  0  2  0  0  0  0  0  0
  190.5400  176.5540  138.9770 C   0  0  0  0  0  2  0  0  0  0  0  0
  188.6270  178.3470  140.1220 C   0  0  0  0  0  3  0  0  0  0  0  0
  187.4940  176.1290  136.7140 C   0  0  1  0  0  3  0  0  0  0  0  0
  188.6980  175.6710  137.5400 C   0  0  0  0  0  2  0  0  0  0  0  0
  189.1930  176.7180  138.4330 N   0  0  0  0  0  0  0  0  0  0  0  0
  187.0010  178.0260  138.3320 C   0  0  0  0  0  2  0  0  0  0  0  0
  188.2950  177.6930  139.0060 C   0  0  0  0  0  0  0  0  0  0  0  0
  186.4380  176.8220  137.5840 C   0  0  0  0  0  2  0  0  0  0  0  0
  189.9540  178.1300  140.8000 C   0  0  2  0  0  3  0  0  0  0  0  0
  190.5150  176.7450  140.4890 C   0  0  0  0  0  2  0  0  0  0  0  0
  187.8870  176.8660  135.4250 C   0  0  0  0  0  3  0  0  0  0  0  0
  186.8230  177.8730  135.0270 C   0  0  0  0  0  1  0  0  0  0  0  0
  189.2460  177.5430  135.4910 C   0  0  0  0  0  1  0  0  0  0  0  0
  1  4  1  6  0  0  0
  1  9  1  0  0  0  0
  1 16  1  0  0  0  0
  2 11  1  0  0  0  0
  5  7  1  0  0  0  0
  6 10  1  0  0  0  0
  7  6  2  0  0  0  0
  8 10  1  1  0  0  0
  8  3  1  0  0  0  0
  9  5  1  6  0  0  0
  9  8  1  0  0  0  0
 12 17  1  1  0  0  0
 12 11  1  0  0  0  0
 13 12  1  0  0  0  0
 14  3  1  0  0  0  0
 14  2  1  1  0  0  0
 15 13  1  0  0  0  0
 16 15  1  6  0  0  0
 16 14  1  0  0  0  0
 17 18  1  0  0  0  0
 19 17  2  0  0  0  0
 20  1  1  0  0  0  0
 21 20  1  0  0  0  0
 22 31  1  0  0  0  0
 23 30  1  0  0  0  0
 24 32  1  6  0  0  0
 24 25  1  0  0  0  0
 24 29  1  0  0  0  0
 25 26  1  0  0  0  0
 26 22  1  0  0  0  0
 26 28  1  0  0  0  0
 27 28  1  0  0  0  0
 28 23  2  0  0  0  0
 29 27  1  0  0  0  0
 30 21  1  1  0  0  0
 31 30  1  0  0  0  0
 32 34  1  0  0  0  0
 33 32  1  0  0  0  0
M  END
>  <MODEL>
8

>  <REMARK>
 VINA RESULT:      -8.1      3.983      8.548
  Name = 
  5 active torsions:
  status: ('A' for Active; 'I' for Inactive)
    1  A    between atoms: C_1  and  C_8
    2  A    between atoms: C_3  and  C_25
    3  A    between atoms: C_7  and  C_11
    4  A    between atoms: C_8  and  C_18
    5  A    between atoms: C_18  and  C_30
                            x       y       z     vdW  Elec       q    Type
                         _______ _______ _______ _____ _____    ______ ____

>  <TORSDO>
F 5

$$$$
=
 OpenBabel10262423173D

 34 38  0  0  1  0  0  0  0  0999 V2000
  187.6040  177.3200  143.9320 C   0  0  1  0  0  0  0  0  0  0  0  0
  189.6970  178.2910  147.1090 C   0  0  0  0  0  2  0  0  0  0  0  0
  187.3190  178.1450  146.7200 O   0  0  0  0  0  0  0  0  0  0  0  0
  187.5200  176.1840  143.1210 O   0  0  0  0  0  1  0  0  0  0  0  0
  185.1420  177.9300  143.6250 C   0  0  0  0  0  2  0  0  0  0  0  0
  183.8410  178.8150  145.5710 C   0  0  0  0  0  3  0  0  0  0  0  0
  183.8920  178.4530  144.2820 C   0  0  0  0  0  3  0  0  0  0  0  0
  186.3400  178.5470  145.7870 C   0  0  1  0  0  3  0  0  0  0  0  0
  186.2370  177.5270  144.6270 C   0  0  2  0  0  3  0  0  0  0  0  0
  185.0000  178.6290  146.5110 C   0  0  0  0  0  2  0  0  0  0  0  0
  190.3250  176.9500  147.4700 C   0  0  0  0  0  2  0  0  0  0  0  0
  191.3160  176.5440  146.3800 C   0  0  2  0  0  3  0  0  0  0  0  0
  190.6640  175.8500  145.3500 O   0  0  0  0  0  0  0  0  0  0  0  0
  188.5630  178.2160  146.0760 C   0  0  2  0  0  3  0  0  0  0  0  0
  190.0700  176.8170  144.5300 C   0  0  0  0  0  2  0  0  0  0  0  0
  188.6520  177.0840  145.0340 C   0  0  2  0  0  3  0  0  0  0  0  0
  192.3820  175.6810  146.9650 C   0  0  0  0  0  0  0  0  0  0  0  0
  192.9450  175.9980  148.1960 O   0  0  0  0  0  1  0  0  0  0  0  0
  192.7820  174.6690  146.3360 O   0  0  0  0  0  0  0  0  0  0  0  0
  187.9510  178.5580  143.0770 C   0  0  0  0  0  2  0  0  0  0  0  0
  188.5730  178.2090  141.7310 C   0  0  0  0  0  2  0  0  0  0  0  0
  186.8390  178.1950  138.3210 C   0  0  0  0  0  2  0  0  0  0  0  0
  186.2550  178.8000  141.0560 C   0  0  0  0  0  3  0  0  0  0  0  0
  183.0350  177.9120  138.4740 C   0  0  1  0  0  3  0  0  0  0  0  0
  184.4530  177.5020  138.0720 C   0  0  0  0  0  2  0  0  0  0  0  0
  185.4770  178.1960  138.8510 N   0  0  0  0  0  0  0  0  0  0  0  0
  183.8400  178.7990  140.7160 C   0  0  0  0  0  2  0  0  0  0  0  0
  185.2340  178.5830  140.2210 C   0  0  0  0  0  0  0  0  0  0  0  0
  182.8470  177.8910  139.9970 C   0  0  0  0  0  2  0  0  0  0  0  0
  187.6860  178.6920  140.5980 C   0  0  2  0  0  3  0  0  0  0  0  0
  187.8160  177.7510  139.4030 C   0  0  0  0  0  2  0  0  0  0  0  0
  182.5420  179.1780  137.7580 C   0  0  0  0  0  3  0  0  0  0  0  0
  181.7590  178.8270  136.5060 C   0  0  0  0  0  1  0  0  0  0  0  0
  181.7240  180.1070  138.6400 C   0  0  0  0  0  1  0  0  0  0  0  0
  1  4  1  6  0  0  0
  1  9  1  0  0  0  0
  1 16  1  0  0  0  0
  2 11  1  0  0  0  0
  5  7  1  0  0  0  0
  6 10  1  0  0  0  0
  7  6  2  0  0  0  0
  8 10  1  1  0  0  0
  8  3  1  0  0  0  0
  9  5  1  6  0  0  0
  9  8  1  0  0  0  0
 12 17  1  1  0  0  0
 12 11  1  0  0  0  0
 13 12  1  0  0  0  0
 14  3  1  0  0  0  0
 14  2  1  1  0  0  0
 15 13  1  0  0  0  0
 16 15  1  6  0  0  0
 16 14  1  0  0  0  0
 17 18  1  0  0  0  0
 19 17  2  0  0  0  0
 20  1  1  0  0  0  0
 21 20  1  0  0  0  0
 22 26  1  0  0  0  0
 22 31  1  0  0  0  0
 24 32  1  1  0  0  0
 24 29  1  0  0  0  0
 25 24  1  0  0  0  0
 25 26  1  0  0  0  0
 26 28  1  0  0  0  0
 28 27  1  0  0  0  0
 28 23  2  0  0  0  0
 29 27  1  0  0  0  0
 30 23  1  0  0  0  0
 30 21  1  1  0  0  0
 31 30  1  0  0  0  0
 32 34  1  0  0  0  0
 33 32  1  0  0  0  0
M  END
>  <MODEL>
9

>  <REMARK>
 VINA RESULT:      -8.0      3.755      8.483
  Name = 
  5 active torsions:
  status: ('A' for Active; 'I' for Inactive)
    1  A    between atoms: C_1  and  C_8
    2  A    between atoms: C_3  and  C_25
    3  A    between atoms: C_7  and  C_11
    4  A    between atoms: C_8  and  C_18
    5  A    between atoms: C_18  and  C_30
                            x       y       z     vdW  Elec       q    Type
                         _______ _______ _______ _____ _____    ______ ____

>  <TORSDO>
F 5

$$$$
