=
 OpenBabel10262420213D

 55 62  0  0  1  0  0  0  0  0999 V2000
  190.7730  176.8910  140.1220 C   0  0  0  0  0  2  0  0  0  0  0  0
  187.4570  176.9400  139.0440 C   0  0  0  0  0  2  0  0  0  0  0  0
  186.5570  178.2310  137.2170 C   0  0  0  0  0  2  0  0  0  0  0  0
  186.9770  175.6320  134.7890 C   0  0  0  0  0  3  0  0  0  0  0  0
  186.9820  174.2360  134.5940 C   0  0  0  0  0  3  0  0  0  0  0  0
  189.3290  175.5660  135.3890 C   0  0  0  0  0  0  0  0  0  0  0  0
  189.3290  174.1770  135.1650 C   0  0  0  0  0  3  0  0  0  0  0  0
  186.9560  178.5270  135.7650 C   0  0  0  0  0  2  0  0  0  0  0  0
  188.1680  173.5290  134.7590 C   0  0  0  0  0  3  0  0  0  0  0  0
  191.5260  177.6110  142.3720 C   0  0  0  0  0  2  0  0  0  0  0  0
  188.1460  176.3240  135.1690 C   0  0  0  0  0  0  0  0  0  0  0  0
  188.6620  178.2560  142.3640 C   0  0  1  0  0  3  0  0  0  0  0  0
  190.3500  175.6640  139.3200 C   0  0  0  0  0  2  0  0  0  0  0  0
  189.1140  176.8150  142.0910 C   0  0  0  0  0  2  0  0  0  0  0  0
  190.6240  176.7280  137.0800 O   0  0  0  0  0  0  0  0  0  0  0  0
  186.1860  178.8000  139.8790 O   0  0  0  0  0  0  0  0  0  0  0  0
  190.6280  176.2230  135.7550 C   0  0  0  0  0  2  0  0  0  0  0  0
  187.4860  178.3350  139.6390 C   0  0  2  0  0  3  0  0  0  0  0  0
  187.7720  178.1170  138.1400 C   0  0  1  0  0  3  0  0  0  0  0  0
  190.8970  178.2810  143.5730 C   0  0  0  0  0  2  0  0  0  0  0  0
  185.7770  178.3980  141.1620 C   0  0  1  0  0  3  0  0  0  0  0  0
  190.5700  176.6760  141.6090 C   0  0  1  0  0  3  0  0  0  0  0  0
  188.2220  177.8180  135.2420 C   0  0  0  0  0  2  0  0  0  0  0  0
  190.9350  175.6570  137.9050 C   0  0  1  0  0  3  0  0  0  0  0  0
  186.5650  179.1500  142.2660 C   0  0  0  0  0  2  0  0  0  0  0  0
  187.3810  178.2840  142.9940 O   0  0  0  0  0  0  0  0  0  0  0  0
  189.6650  179.1010  143.1800 C   0  0  0  0  0  2  0  0  0  0  0  0
  192.6180  174.0510  137.0010 C   0  0  0  0  0  2  0  0  0  0  0  0
  195.0010  174.5580  137.1490 C   0  0  2  0  0  3  0  0  0  0  0  0
  193.4060  176.0990  138.2830 C   0  0  0  0  0  3  0  0  0  0  0  0
  194.7130  175.7990  138.0410 C   0  0  0  0  0  3  0  0  0  0  0  0
  193.9720  173.4570  137.3580 C   0  0  0  0  0  2  0  0  0  0  0  0
  192.4340  175.2730  137.8210 N   0  0  0  0  0  0  0  0  0  0  0  0
  196.4270  173.9910  137.3290 C   0  0  0  0  0  0  0  0  0  0  0  0
  196.5750  172.7560  137.2670 O   0  0  0  0  0  0  0  0  0  0  0  0
  197.4170  174.7920  137.7920 O   0  0  0  0  0  1  0  0  0  0  0  0
  184.3880  178.4760  141.3420 O   0  0  0  0  0  0  0  0  0  0  0  0
  183.8920  177.8200  140.2020 C   0  0  0  0  0  2  0  0  0  0  0  0
  183.2830  179.9080  138.9760 C   0  0  0  0  0  1  0  0  0  0  0  0
  182.7050  178.5450  139.5040 C   0  0  2  0  0  0  0  0  0  0  0  0
  181.0300  180.2320  140.2080 O   0  0  0  0  0  1  0  0  0  0  0  0
  181.6680  179.0250  140.5660 C   0  0  2  0  0  0  0  0  0  0  0  0
  181.2430  178.9900  141.8620 O   0  0  0  0  0  0  0  0  0  0  0  0
  180.7180  177.9150  141.1270 C   0  0  2  0  0  3  0  0  0  0  0  0
  180.5300  177.0210  139.7790 C   0  0  0  0  0  2  0  0  0  0  0  0
  179.8690  175.8060  139.8330 O   0  0  0  0  0  0  0  0  0  0  0  0
  179.8140  175.4380  138.5400 O   0  0  0  0  0  1  0  0  0  0  0  0
  182.4170  177.9200  138.1320 C   0  0  0  0  0  2  0  0  0  0  0  0
  183.0090  174.7860  135.2060 C   0  0  0  0  0  2  0  0  0  0  0  0
  183.3120  177.0460  137.2110 C   0  0  2  0  0  3  0  0  0  0  0  0
  184.0300  174.6360  137.9170 C   0  0  0  0  0  2  0  0  0  0  0  0
  184.0510  174.9730  136.4090 C   0  0  2  0  0  3  0  0  0  0  0  0
  182.8330  177.2670  135.7000 C   0  0  0  0  0  2  0  0  0  0  0  0
  183.0390  175.6260  137.4070 C   0  0  2  0  0  3  0  0  0  0  0  0
  182.8770  176.1280  134.6070 C   0  0  0  0  0  2  0  0  0  0  0  0
  4 11  1  0  0  0  0
  5  9  1  0  0  0  0
  5  4  2  0  0  0  0
  6 17  1  0  0  0  0
  7  6  1  0  0  0  0
  8  3  1  0  0  0  0
  9  7  2  0  0  0  0
 10 20  1  0  0  0  0
 11 23  1  0  0  0  0
 11  6  2  0  0  0  0
 12 14  1  1  0  0  0
 12 26  1  0  0  0  0
 12 27  1  0  0  0  0
 13  1  1  0  0  0  0
 15 24  1  0  0  0  0
 16 21  1  0  0  0  0
 17 15  1  0  0  0  0
 18  2  1  1  0  0  0
 18 16  1  0  0  0  0
 19  3  1  6  0  0  0
 19  2  1  0  0  0  0
 19 18  1  0  0  0  0
 21 37  1  1  0  0  0
 21 25  1  0  0  0  0
 22  1  1  6  0  0  0
 22 14  1  0  0  0  0
 22 10  1  0  0  0  0
 23  8  1  0  0  0  0
 24 33  1  1  0  0  0
 24 13  1  0  0  0  0
 25 26  1  0  0  0  0
 27 20  1  0  0  0  0
 28 32  1  0  0  0  0
 28 33  1  0  0  0  0
 29 34  1  1  0  0  0
 29 32  1  0  0  0  0
 29 31  1  0  0  0  0
 31 30  2  0  0  0  0
 33 30  1  0  0  0  0
 34 36  1  0  0  0  0
 35 34  2  0  0  0  0
 38 37  1  0  0  0  0
 40 39  1  6  0  0  0
 40 38  1  0  0  0  0
 40 42  1  0  0  0  0
 42 41  1  6  0  0  0
 42 44  1  0  0  0  0
 42 43  1  0  0  0  0
 44 45  1  1  0  0  0
 44 43  1  0  0  0  0
 45 46  1  0  0  0  0
 47 46  1  0  0  0  0
 48 40  1  0  0  0  0
 50 54  1  0  0  0  0
 50 48  1  1  0  0  0
 52 49  1  6  0  0  0
 52 54  1  0  0  0  0
 52 51  1  0  0  0  0
 53 50  1  0  0  0  0
 54 51  1  1  0  0  0
 55 49  1  0  0  0  0
 55 53  1  0  0  0  0
M  END
>  <MODEL>
1

>  <REMARK>
 VINA RESULT:      -5.5      0.000      0.000
  Name = 
  10 active torsions:
  status: ('A' for Active; 'I' for Inactive)
    1  A    between atoms: O_1  and  C_53
    2  A    between atoms: C_6  and  C_20
    3  A    between atoms: O_8  and  C_22
    4  A    between atoms: O_8  and  C_43
    5  A    between atoms: C_10  and  C_32
    6  A    between atoms: C_12  and  C_42
    7  A    between atoms: C_20  and  C_22
    8  A    between atoms: C_20  and  C_42
    9  A    between atoms: C_46  and  C_53
   10  A    between atoms: C_49  and  N_52
                            x       y       z     vdW  Elec       q    Type
                         _______ _______ _______ _____ _____    ______ ____

>  <TORSDO>
F 10

$$$$
=
 OpenBabel10262420213D

 55 62  0  0  1  0  0  0  0  0999 V2000
  190.8160  176.8630  139.8180 C   0  0  0  0  0  2  0  0  0  0  0  0
  187.4340  176.9060  138.9710 C   0  0  0  0  0  2  0  0  0  0  0  0
  186.4120  178.1740  137.1930 C   0  0  0  0  0  2  0  0  0  0  0  0
  186.6590  175.5400  134.7780 C   0  0  0  0  0  3  0  0  0  0  0  0
  186.6480  174.1420  134.6030 C   0  0  0  0  0  3  0  0  0  0  0  0
  189.0460  175.4770  135.2150 C   0  0  0  0  0  0  0  0  0  0  0  0
  189.0280  174.0840  135.0120 C   0  0  0  0  0  3  0  0  0  0  0  0
  186.7100  178.4490  135.7120 C   0  0  0  0  0  2  0  0  0  0  0  0
  187.8410  173.4340  134.6950 C   0  0  0  0  0  3  0  0  0  0  0  0
  191.7240  177.6120  142.0010 C   0  0  0  0  0  2  0  0  0  0  0  0
  187.8520  176.2350  135.0670 C   0  0  0  0  0  0  0  0  0  0  0  0
  188.8680  178.2650  142.1810 C   0  0  1  0  0  3  0  0  0  0  0  0
  190.3370  175.6270  139.0650 C   0  0  0  0  0  2  0  0  0  0  0  0
  189.2960  176.8190  141.8980 C   0  0  0  0  0  2  0  0  0  0  0  0
  190.4570  176.6590  136.7960 O   0  0  0  0  0  0  0  0  0  0  0  0
  186.2270  178.7810  139.8660 O   0  0  0  0  0  0  0  0  0  0  0  0
  190.3690  176.1350  135.4820 C   0  0  0  0  0  2  0  0  0  0  0  0
  187.5060  178.3090  139.5440 C   0  0  2  0  0  3  0  0  0  0  0  0
  187.6880  178.0690  138.0310 C   0  0  1  0  0  3  0  0  0  0  0  0
  191.1800  178.3010  143.2330 C   0  0  0  0  0  2  0  0  0  0  0  0
  185.9070  178.3970  141.1790 C   0  0  1  0  0  3  0  0  0  0  0  0
  190.7160  176.6690  141.3190 C   0  0  1  0  0  3  0  0  0  0  0  0
  187.9360  177.7290  135.1130 C   0  0  0  0  0  2  0  0  0  0  0  0
  190.8220  175.5980  137.6130 C   0  0  1  0  0  3  0  0  0  0  0  0
  186.7700  179.1630  142.2160 C   0  0  0  0  0  2  0  0  0  0  0  0
  187.6330  178.3050  142.8980 O   0  0  0  0  0  0  0  0  0  0  0  0
  189.9250  179.1180  142.9140 C   0  0  0  0  0  2  0  0  0  0  0  0
  193.1570  176.4190  137.2880 C   0  0  0  0  0  2  0  0  0  0  0  0
  195.0390  174.8800  137.4950 C   0  0  2  0  0  3  0  0  0  0  0  0
  192.7380  173.9320  137.6000 C   0  0  0  0  0  3  0  0  0  0  0  0
  194.0740  173.6650  137.5950 C   0  0  0  0  0  3  0  0  0  0  0  0
  194.4620  175.9940  136.6340 C   0  0  0  0  0  2  0  0  0  0  0  0
  192.3110  175.2090  137.4320 N   0  0  0  0  0  0  0  0  0  0  0  0
  196.4510  174.5020  136.9940 C   0  0  0  0  0  0  0  0  0  0  0  0
  197.4290  175.0570  137.5310 O   0  0  0  0  0  1  0  0  0  0  0  0
  196.5910  173.7950  135.8470 O   0  0  0  0  0  0  0  0  0  0  0  0
  184.5330  178.4820  141.4540 O   0  0  0  0  0  0  0  0  0  0  0  0
  183.9630  177.7490  140.3980 C   0  0  0  0  0  2  0  0  0  0  0  0
  181.8700  178.4960  141.5380 C   0  0  0  0  0  1  0  0  0  0  0  0
  182.4540  178.0400  140.1520 C   0  0  2  0  0  0  0  0  0  0  0  0
  180.2850  176.8440  140.0490 O   0  0  0  0  0  1  0  0  0  0  0  0
  181.6810  176.7090  139.8980 C   0  0  2  0  0  0  0  0  0  0  0  0
  181.7140  175.3460  139.8600 O   0  0  0  0  0  0  0  0  0  0  0  0
  182.1360  175.8980  138.6390 C   0  0  2  0  0  3  0  0  0  0  0  0
  182.4890  177.1340  137.6400 C   0  0  0  0  0  2  0  0  0  0  0  0
  183.0560  176.8900  136.4000 O   0  0  0  0  0  0  0  0  0  0  0  0
  183.0220  175.5480  136.3160 O   0  0  0  0  0  1  0  0  0  0  0  0
  182.2710  179.3800  139.4240 C   0  0  0  0  0  2  0  0  0  0  0  0
  180.1170  182.7430  137.7570 C   0  0  0  0  0  2  0  0  0  0  0  0
  180.9980  180.0440  138.8320 C   0  0  2  0  0  3  0  0  0  0  0  0
  179.4400  181.5350  140.3060 C   0  0  0  0  0  2  0  0  0  0  0  0
  179.3880  181.7440  138.7760 C   0  0  2  0  0  3  0  0  0  0  0  0
  181.3500  180.5640  137.3600 C   0  0  0  0  0  2  0  0  0  0  0  0
  180.6850  181.2910  139.5220 C   0  0  2  0  0  3  0  0  0  0  0  0
  180.7190  181.8690  136.7320 C   0  0  0  0  0  2  0  0  0  0  0  0
  4 11  1  0  0  0  0
  5  9  1  0  0  0  0
  5  4  2  0  0  0  0
  6 17  1  0  0  0  0
  7  6  1  0  0  0  0
  8  3  1  0  0  0  0
  9  7  2  0  0  0  0
 10 20  1  0  0  0  0
 11 23  1  0  0  0  0
 11  6  2  0  0  0  0
 12 14  1  1  0  0  0
 12 26  1  0  0  0  0
 12 27  1  0  0  0  0
 13  1  1  0  0  0  0
 15 24  1  0  0  0  0
 16 21  1  0  0  0  0
 17 15  1  0  0  0  0
 18  2  1  1  0  0  0
 18 16  1  0  0  0  0
 19  3  1  6  0  0  0
 19  2  1  0  0  0  0
 19 18  1  0  0  0  0
 21 37  1  1  0  0  0
 21 25  1  0  0  0  0
 22  1  1  6  0  0  0
 22 14  1  0  0  0  0
 22 10  1  0  0  0  0
 23  8  1  0  0  0  0
 24 33  1  1  0  0  0
 24 13  1  0  0  0  0
 25 26  1  0  0  0  0
 27 20  1  0  0  0  0
 28 33  1  0  0  0  0
 29 34  1  6  0  0  0
 29 31  1  0  0  0  0
 31 30  2  0  0  0  0
 32 28  1  0  0  0  0
 32 29  1  0  0  0  0
 33 30  1  0  0  0  0
 34 35  1  0  0  0  0
 36 34  2  0  0  0  0
 38 37  1  0  0  0  0
 40 38  1  0  0  0  0
 40 39  1  1  0  0  0
 42 41  1  6  0  0  0
 42 40  1  0  0  0  0
 43 42  1  0  0  0  0
 44 45  1  1  0  0  0
 44 43  1  0  0  0  0
 44 42  1  0  0  0  0
 46 45  1  0  0  0  0
 47 46  1  0  0  0  0
 48 40  1  0  0  0  0
 50 48  1  1  0  0  0
 50 54  1  0  0  0  0
 52 49  1  1  0  0  0
 52 54  1  0  0  0  0
 52 51  1  0  0  0  0
 53 50  1  0  0  0  0
 54 51  1  1  0  0  0
 55 53  1  0  0  0  0
 55 49  1  0  0  0  0
M  END
>  <MODEL>
2

>  <REMARK>
 VINA RESULT:      -5.4      1.571      2.988
  Name = 
  10 active torsions:
  status: ('A' for Active; 'I' for Inactive)
    1  A    between atoms: O_1  and  C_53
    2  A    between atoms: C_6  and  C_20
    3  A    between atoms: O_8  and  C_22
    4  A    between atoms: O_8  and  C_43
    5  A    between atoms: C_10  and  C_32
    6  A    between atoms: C_12  and  C_42
    7  A    between atoms: C_20  and  C_22
    8  A    between atoms: C_20  and  C_42
    9  A    between atoms: C_46  and  C_53
   10  A    between atoms: C_49  and  N_52
                            x       y       z     vdW  Elec       q    Type
                         _______ _______ _______ _____ _____    ______ ____

>  <TORSDO>
F 10

$$$$
=
 OpenBabel10262420213D

 55 62  0  0  1  0  0  0  0  0999 V2000
  185.8580  178.3160  142.0730 C   0  0  0  0  0  2  0  0  0  0  0  0
  185.4940  177.6200  138.6760 C   0  0  0  0  0  2  0  0  0  0  0  0
  186.4380  178.8700  136.8420 C   0  0  0  0  0  2  0  0  0  0  0  0
  189.3960  176.8640  136.6130 C   0  0  0  0  0  3  0  0  0  0  0  0
  189.9160  175.5650  136.7870 C   0  0  0  0  0  3  0  0  0  0  0  0
  189.8070  177.3520  138.9560 C   0  0  0  0  0  0  0  0  0  0  0  0
  190.3490  176.0620  139.1110 C   0  0  0  0  0  3  0  0  0  0  0  0
  187.8070  179.4710  136.4970 C   0  0  0  0  0  2  0  0  0  0  0  0
  190.4120  175.1900  138.0300 C   0  0  0  0  0  3  0  0  0  0  0  0
  183.9840  178.8780  143.5970 C   0  0  0  0  0  2  0  0  0  0  0  0
  189.3480  177.7840  137.6810 C   0  0  0  0  0  0  0  0  0  0  0  0
  182.7040  178.7170  140.9600 C   0  0  1  0  0  3  0  0  0  0  0  0
  186.7040  177.1500  141.5720 C   0  0  0  0  0  2  0  0  0  0  0  0
  183.4800  177.5080  141.5000 C   0  0  0  0  0  2  0  0  0  0  0  0
  188.5330  178.5630  140.6280 O   0  0  0  0  0  0  0  0  0  0  0  0
  183.7940  178.9250  137.5890 O   0  0  0  0  0  0  0  0  0  0  0  0
  189.8320  178.2760  140.1390 C   0  0  0  0  0  2  0  0  0  0  0  0
  184.6330  178.8690  138.7090 C   0  0  2  0  0  3  0  0  0  0  0  0
  186.1270  178.9570  138.3380 C   0  0  1  0  0  3  0  0  0  0  0  0
  182.5070  179.1710  143.4520 C   0  0  0  0  0  2  0  0  0  0  0  0
  182.5970  178.2440  137.8690 C   0  0  1  0  0  3  0  0  0  0  0  0
  184.5140  177.8400  142.5910 C   0  0  1  0  0  3  0  0  0  0  0  0
  188.9440  179.2150  137.5070 C   0  0  0  0  0  2  0  0  0  0  0  0
  188.1900  177.5070  141.4610 C   0  0  1  0  0  3  0  0  0  0  0  0
  181.7440  179.0140  138.9120 C   0  0  0  0  0  2  0  0  0  0  0  0
  181.6350  178.3050  140.1080 O   0  0  0  0  0  0  0  0  0  0  0  0
  182.1680  179.6740  142.0470 C   0  0  0  0  0  2  0  0  0  0  0  0
  188.4510  176.5120  143.7350 C   0  0  0  0  0  2  0  0  0  0  0  0
  190.3540  177.1280  145.1330 C   0  0  2  0  0  3  0  0  0  0  0  0
  190.0440  178.3440  142.9810 C   0  0  0  0  0  3  0  0  0  0  0  0
  190.7750  178.2350  144.1250 C   0  0  0  0  0  3  0  0  0  0  0  0
  188.8470  176.9160  145.1460 C   0  0  0  0  0  2  0  0  0  0  0  0
  188.9490  177.5600  142.8110 N   0  0  0  0  0  0  0  0  0  0  0  0
  190.8650  177.3800  146.5700 C   0  0  0  0  0  0  0  0  0  0  0  0
  192.0500  177.0930  146.8270 O   0  0  0  0  0  0  0  0  0  0  0  0
  189.9820  177.6560  147.5590 O   0  0  0  0  0  1  0  0  0  0  0  0
  181.8710  177.9160  136.7150 O   0  0  0  0  0  0  0  0  0  0  0  0
  181.0830  176.8330  137.1440 C   0  0  0  0  0  2  0  0  0  0  0  0
  181.9620  175.7010  135.0990 C   0  0  0  0  0  1  0  0  0  0  0  0
  181.5310  175.4500  136.5890 C   0  0  2  0  0  0  0  0  0  0  0  0
  180.6160  173.2860  135.7940 O   0  0  0  0  0  1  0  0  0  0  0  0
  180.2960  174.5130  136.4140 C   0  0  2  0  0  0  0  0  0  0  0  0
  178.9400  174.3980  136.3200 O   0  0  0  0  0  0  0  0  0  0  0  0
  179.3570  174.3990  137.6620 C   0  0  2  0  0  3  0  0  0  0  0  0
  180.4740  174.4830  138.8440 C   0  0  0  0  0  2  0  0  0  0  0  0
  180.1400  174.9970  140.0850 O   0  0  0  0  0  0  0  0  0  0  0  0
  179.7620  173.9020  140.7690 O   0  0  0  0  0  1  0  0  0  0  0  0
  182.9210  175.0740  137.1240 C   0  0  0  0  0  2  0  0  0  0  0  0
  187.0290  173.7250  136.9560 C   0  0  0  0  0  2  0  0  0  0  0  0
  184.0980  174.3260  136.4420 C   0  0  2  0  0  3  0  0  0  0  0  0
  185.9050  175.6160  135.0660 C   0  0  0  0  0  2  0  0  0  0  0  0
  186.2910  174.2290  135.6260 C   0  0  2  0  0  3  0  0  0  0  0  0
  184.6010  173.1800  137.4390 C   0  0  0  0  0  2  0  0  0  0  0  0
  185.2790  175.1780  136.3460 C   0  0  2  0  0  3  0  0  0  0  0  0
  186.1110  172.7310  137.5470 C   0  0  0  0  0  2  0  0  0  0  0  0
  1 22  1  0  0  0  0
  4  5  2  0  0  0  0
  4 11  1  0  0  0  0
  5  9  1  0  0  0  0
  6  7  1  0  0  0  0
  6 17  1  0  0  0  0
  8  3  1  0  0  0  0
  8 23  1  0  0  0  0
  9  7  2  0  0  0  0
 11  6  2  0  0  0  0
 12 14  1  1  0  0  0
 12 27  1  0  0  0  0
 13  1  1  0  0  0  0
 15 24  1  0  0  0  0
 16 21  1  0  0  0  0
 16 18  1  0  0  0  0
 17 15  1  0  0  0  0
 18  2  1  6  0  0  0
 19  3  1  6  0  0  0
 19  2  1  0  0  0  0
 19 18  1  0  0  0  0
 20 10  1  0  0  0  0
 21 37  1  6  0  0  0
 21 25  1  0  0  0  0
 22 14  1  6  0  0  0
 22 10  1  0  0  0  0
 23 11  1  0  0  0  0
 24 13  1  1  0  0  0
 24 33  1  0  0  0  0
 25 26  1  0  0  0  0
 26 12  1  0  0  0  0
 27 20  1  0  0  0  0
 28 32  1  0  0  0  0
 29 32  1  0  0  0  0
 29 34  1  1  0  0  0
 30 31  2  0  0  0  0
 31 29  1  0  0  0  0
 33 30  1  0  0  0  0
 33 28  1  0  0  0  0
 34 35  2  0  0  0  0
 34 36  1  0  0  0  0
 37 38  1  0  0  0  0
 40 39  1  6  0  0  0
 40 48  1  0  0  0  0
 40 38  1  0  0  0  0
 42 41  1  6  0  0  0
 42 40  1  0  0  0  0
 42 44  1  0  0  0  0
 43 42  1  0  0  0  0
 43 44  1  0  0  0  0
 44 45  1  1  0  0  0
 45 46  1  0  0  0  0
 46 47  1  0  0  0  0
 49 55  1  0  0  0  0
 50 48  1  1  0  0  0
 50 53  1  0  0  0  0
 52 51  1  6  0  0  0
 52 54  1  0  0  0  0
 52 49  1  0  0  0  0
 53 55  1  0  0  0  0
 54 51  1  6  0  0  0
 54 50  1  0  0  0  0
M  END
>  <MODEL>
3

>  <REMARK>
 VINA RESULT:      -4.9      3.032      5.850
  Name = 
  10 active torsions:
  status: ('A' for Active; 'I' for Inactive)
    1  A    between atoms: O_1  and  C_53
    2  A    between atoms: C_6  and  C_20
    3  A    between atoms: O_8  and  C_22
    4  A    between atoms: O_8  and  C_43
    5  A    between atoms: C_10  and  C_32
    6  A    between atoms: C_12  and  C_42
    7  A    between atoms: C_20  and  C_22
    8  A    between atoms: C_20  and  C_42
    9  A    between atoms: C_46  and  C_53
   10  A    between atoms: C_49  and  N_52
                            x       y       z     vdW  Elec       q    Type
                         _______ _______ _______ _____ _____    ______ ____

>  <TORSDO>
F 10

$$$$
=
 OpenBabel10262420213D

 55 62  0  0  1  0  0  0  0  0999 V2000
  186.7500  178.0230  142.8340 C   0  0  0  0  0  2  0  0  0  0  0  0
  185.9690  177.6860  139.4520 C   0  0  0  0  0  2  0  0  0  0  0  0
  186.8470  179.0060  137.6350 C   0  0  0  0  0  2  0  0  0  0  0  0
  189.5380  176.7550  136.9130 C   0  0  0  0  0  3  0  0  0  0  0  0
  189.9330  175.4020  136.9200 C   0  0  0  0  0  3  0  0  0  0  0  0
  190.2350  176.9800  139.2280 C   0  0  0  0  0  0  0  0  0  0  0  0
  190.6510  175.6350  139.2150 C   0  0  0  0  0  3  0  0  0  0  0  0
  188.2290  179.5020  137.1900 C   0  0  0  0  0  2  0  0  0  0  0  0
  190.5110  174.8660  138.0650 C   0  0  0  0  0  3  0  0  0  0  0  0
  185.1110  178.6170  144.5980 C   0  0  0  0  0  2  0  0  0  0  0  0
  189.6970  177.5720  138.0520 C   0  0  0  0  0  0  0  0  0  0  0  0
  183.5580  178.8270  142.1160 C   0  0  1  0  0  3  0  0  0  0  0  0
  187.4130  176.8330  142.1470 C   0  0  0  0  0  2  0  0  0  0  0  0
  184.2530  177.5040  142.4630 C   0  0  0  0  0  2  0  0  0  0  0  0
  189.2740  178.1460  141.1260 O   0  0  0  0  0  0  0  0  0  0  0  0
  184.3140  179.2430  138.6720 O   0  0  0  0  0  0  0  0  0  0  0  0
  190.4790  177.7830  140.4740 C   0  0  0  0  0  2  0  0  0  0  0  0
  185.2520  179.0030  139.6840 C   0  0  2  0  0  3  0  0  0  0  0  0
  186.7020  178.9810  139.1580 C   0  0  1  0  0  3  0  0  0  0  0  0
  183.6660  179.0620  144.6430 C   0  0  0  0  0  2  0  0  0  0  0  0
  183.0870  178.6580  139.0270 C   0  0  1  0  0  3  0  0  0  0  0  0
  185.4230  177.6320  143.4570 C   0  0  1  0  0  3  0  0  0  0  0  0
  189.4310  179.0450  138.0430 C   0  0  0  0  0  2  0  0  0  0  0  0
  188.9080  177.0550  141.9020 C   0  0  1  0  0  3  0  0  0  0  0  0
  182.4300  179.4040  140.2180 C   0  0  0  0  0  2  0  0  0  0  0  0
  182.3700  178.6000  141.3560 O   0  0  0  0  0  0  0  0  0  0  0  0
  183.2400  179.7250  143.3300 C   0  0  0  0  0  2  0  0  0  0  0  0
  189.0680  177.3270  144.3780 C   0  0  0  0  0  2  0  0  0  0  0  0
  190.9670  176.3940  145.5950 C   0  0  2  0  0  3  0  0  0  0  0  0
  191.0060  176.2830  143.1070 C   0  0  0  0  0  3  0  0  0  0  0  0
  191.6810  176.0310  144.2630 C   0  0  0  0  0  3  0  0  0  0  0  0
  190.0980  177.6350  145.4520 C   0  0  0  0  0  2  0  0  0  0  0  0
  189.8030  176.9090  143.1590 N   0  0  0  0  0  0  0  0  0  0  0  0
  191.9370  176.5610  146.7860 C   0  0  0  0  0  0  0  0  0  0  0  0
  192.7970  175.6780  146.9670 O   0  0  0  0  0  0  0  0  0  0  0  0
  191.6840  177.4960  147.7340 O   0  0  0  0  0  1  0  0  0  0  0  0
  182.2160  178.5100  137.9370 O   0  0  0  0  0  0  0  0  0  0  0  0
  181.8010  177.1710  138.0540 C   0  0  0  0  0  2  0  0  0  0  0  0
  181.0770  177.6760  135.7180 C   0  0  0  0  0  1  0  0  0  0  0  0
  181.4030  176.4990  136.7080 C   0  0  2  0  0  0  0  0  0  0  0  0
  179.3110  175.7280  135.6230 O   0  0  0  0  0  1  0  0  0  0  0  0
  180.0170  175.7980  136.8430 C   0  0  2  0  0  0  0  0  0  0  0  0
  178.9810  175.4370  137.6550 O   0  0  0  0  0  0  0  0  0  0  0  0
  180.0100  174.4810  137.6890 C   0  0  2  0  0  3  0  0  0  0  0  0
  181.4680  173.8890  137.2710 C   0  0  0  0  0  2  0  0  0  0  0  0
  181.5630  172.7740  136.4560 O   0  0  0  0  0  0  0  0  0  0  0  0
  182.7030  172.1960  136.8740 O   0  0  0  0  0  1  0  0  0  0  0  0
  182.6470  175.9770  135.9730 C   0  0  0  0  0  2  0  0  0  0  0  0
  186.8460  175.5760  135.0050 C   0  0  0  0  0  2  0  0  0  0  0  0
  184.1570  176.1500  136.2920 C   0  0  2  0  0  3  0  0  0  0  0  0
  185.5840  174.1590  137.1980 C   0  0  0  0  0  2  0  0  0  0  0  0
  186.3350  175.3150  136.5010 C   0  0  2  0  0  3  0  0  0  0  0  0
  184.8020  177.0700  135.1520 C   0  0  0  0  0  2  0  0  0  0  0  0
  184.8810  174.8960  136.1100 C   0  0  2  0  0  3  0  0  0  0  0  0
  186.2830  176.8900  134.6350 C   0  0  0  0  0  2  0  0  0  0  0  0
  1 22  1  0  0  0  0
  4  5  2  0  0  0  0
  4 11  1  0  0  0  0
  5  9  1  0  0  0  0
  6 17  1  0  0  0  0
  7  6  1  0  0  0  0
  8  3  1  0  0  0  0
  8 23  1  0  0  0  0
  9  7  2  0  0  0  0
 10 20  1  0  0  0  0
 11  6  2  0  0  0  0
 12 14  1  1  0  0  0
 12 27  1  0  0  0  0
 13  1  1  0  0  0  0
 15 24  1  0  0  0  0
 16 21  1  0  0  0  0
 16 18  1  0  0  0  0
 17 15  1  0  0  0  0
 18  2  1  6  0  0  0
 19  3  1  6  0  0  0
 19  2  1  0  0  0  0
 19 18  1  0  0  0  0
 21 37  1  6  0  0  0
 21 25  1  0  0  0  0
 22 14  1  6  0  0  0
 22 10  1  0  0  0  0
 23 11  1  0  0  0  0
 24 13  1  1  0  0  0
 24 33  1  0  0  0  0
 25 26  1  0  0  0  0
 26 12  1  0  0  0  0
 27 20  1  0  0  0  0
 28 32  1  0  0  0  0
 29 34  1  1  0  0  0
 30 33  1  0  0  0  0
 30 31  2  0  0  0  0
 31 29  1  0  0  0  0
 32 29  1  0  0  0  0
 33 28  1  0  0  0  0
 34 35  2  0  0  0  0
 34 36  1  0  0  0  0
 37 38  1  0  0  0  0
 40 39  1  6  0  0  0
 40 42  1  0  0  0  0
 40 38  1  0  0  0  0
 42 41  1  6  0  0  0
 42 43  1  0  0  0  0
 42 44  1  0  0  0  0
 43 44  1  0  0  0  0
 44 45  1  1  0  0  0
 46 47  1  0  0  0  0
 46 45  1  0  0  0  0
 48 40  1  0  0  0  0
 50 48  1  6  0  0  0
 52 49  1  6  0  0  0
 52 51  1  0  0  0  0
 53 50  1  0  0  0  0
 54 50  1  0  0  0  0
 54 52  1  0  0  0  0
 54 51  1  1  0  0  0
 55 49  1  0  0  0  0
 55 53  1  0  0  0  0
M  END
>  <MODEL>
4

>  <REMARK>
 VINA RESULT:      -4.4      2.924      5.373
  Name = 
  10 active torsions:
  status: ('A' for Active; 'I' for Inactive)
    1  A    between atoms: O_1  and  C_53
    2  A    between atoms: C_6  and  C_20
    3  A    between atoms: O_8  and  C_22
    4  A    between atoms: O_8  and  C_43
    5  A    between atoms: C_10  and  C_32
    6  A    between atoms: C_12  and  C_42
    7  A    between atoms: C_20  and  C_22
    8  A    between atoms: C_20  and  C_42
    9  A    between atoms: C_46  and  C_53
   10  A    between atoms: C_49  and  N_52
                            x       y       z     vdW  Elec       q    Type
                         _______ _______ _______ _____ _____    ______ ____

>  <TORSDO>
F 10

$$$$
=
 OpenBabel10262420213D

 55 62  0  0  1  0  0  0  0  0999 V2000
  188.5440  177.0750  138.3930 C   0  0  0  0  0  2  0  0  0  0  0  0
  187.0110  178.6160  141.1190 C   0  0  0  0  0  2  0  0  0  0  0  0
  186.5060  177.6020  143.2480 C   0  0  0  0  0  2  0  0  0  0  0  0
  189.5700  178.6280  144.7940 C   0  0  0  0  0  3  0  0  0  0  0  0
  190.5560  179.6340  144.8250 C   0  0  0  0  0  3  0  0  0  0  0  0
  190.7550  177.5100  142.9930 C   0  0  0  0  0  0  0  0  0  0  0  0
  191.7470  178.5060  143.0530 C   0  0  0  0  0  3  0  0  0  0  0  0
  187.2460  176.7160  144.2600 C   0  0  0  0  0  2  0  0  0  0  0  0
  191.6490  179.5450  143.9710 C   0  0  0  0  0  3  0  0  0  0  0  0
  187.4760  176.7610  136.1770 C   0  0  0  0  0  2  0  0  0  0  0  0
  189.6570  177.5420  143.8970 C   0  0  0  0  0  0  0  0  0  0  0  0
  185.3300  177.9040  137.8210 C   0  0  1  0  0  3  0  0  0  0  0  0
  189.4500  178.0170  139.1790 C   0  0  0  0  0  2  0  0  0  0  0  0
  186.6530  178.6670  137.6680 C   0  0  0  0  0  2  0  0  0  0  0  0
  189.9980  176.3820  140.9830 O   0  0  0  0  0  0  0  0  0  0  0  0
  184.6570  178.1690  141.2970 O   0  0  0  0  0  0  0  0  0  0  0  0
  190.9510  176.3730  142.0330 C   0  0  0  0  0  2  0  0  0  0  0  0
  185.8560  177.7090  140.7370 C   0  0  2  0  0  3  0  0  0  0  0  0
  186.8790  177.2670  141.8020 C   0  0  1  0  0  3  0  0  0  0  0  0
  186.0970  176.9650  135.5890 C   0  0  0  0  0  2  0  0  0  0  0  0
  184.0580  179.0910  140.4220 C   0  0  1  0  0  3  0  0  0  0  0  0
  187.8540  177.7970  137.2520 C   0  0  1  0  0  3  0  0  0  0  0  0
  188.7160  176.3790  143.9310 C   0  0  0  0  0  2  0  0  0  0  0  0
  190.4800  177.2680  140.0300 C   0  0  1  0  0  3  0  0  0  0  0  0
  183.5330  178.3930  139.1400 C   0  0  0  0  0  2  0  0  0  0  0  0
  184.2360  178.8040  138.0080 O   0  0  0  0  0  0  0  0  0  0  0  0
  185.0130  176.9270  136.6690 C   0  0  0  0  0  2  0  0  0  0  0  0
  191.1970  175.7750  138.1630 C   0  0  0  0  0  2  0  0  0  0  0  0
  193.5160  175.7890  137.4020 C   0  0  2  0  0  3  0  0  0  0  0  0
  192.9410  177.1310  139.4190 C   0  0  0  0  0  3  0  0  0  0  0  0
  193.9310  176.7040  138.5870 C   0  0  0  0  0  3  0  0  0  0  0  0
  192.3570  174.8740  137.7710 C   0  0  0  0  0  2  0  0  0  0  0  0
  191.6740  176.6790  139.2380 N   0  0  0  0  0  0  0  0  0  0  0  0
  194.6850  174.9560  136.8300 C   0  0  0  0  0  0  0  0  0  0  0  0
  194.6690  173.7240  137.0130 O   0  0  0  0  0  1  0  0  0  0  0  0
  195.7990  175.5820  136.3800 O   0  0  0  0  0  0  0  0  0  0  0  0
  183.0790  179.8800  141.0460 O   0  0  0  0  0  0  0  0  0  0  0  0
  182.0020  178.9860  141.1790 C   0  0  0  0  0  2  0  0  0  0  0  0
  180.9960  180.5790  139.5390 C   0  0  0  0  0  1  0  0  0  0  0  0
  180.6410  179.5340  140.6580 C   0  0  2  0  0  0  0  0  0  0  0  0
  178.9760  181.2850  141.2140 O   0  0  0  0  0  1  0  0  0  0  0  0
  179.9730  180.4360  141.7410 C   0  0  2  0  0  0  0  0  0  0  0  0
  180.0660  181.0290  142.9660 O   0  0  0  0  0  0  0  0  0  0  0  0
  179.5890  179.7120  143.0750 C   0  0  2  0  0  3  0  0  0  0  0  0
  179.1520  178.2630  142.4750 C   0  0  0  0  0  2  0  0  0  0  0  0
  179.6550  177.0980  143.0270 O   0  0  0  0  0  0  0  0  0  0  0  0
  179.6820  177.3780  144.3420 O   0  0  0  0  0  1  0  0  0  0  0  0
  179.9570  178.5070  139.7440 C   0  0  0  0  0  2  0  0  0  0  0  0
  179.4920  174.8980  137.4010 C   0  0  0  0  0  2  0  0  0  0  0  0
  180.4940  177.1880  139.1250 C   0  0  2  0  0  3  0  0  0  0  0  0
  180.0260  174.8780  140.2520 C   0  0  0  0  0  2  0  0  0  0  0  0
  180.3650  174.8800  138.7440 C   0  0  2  0  0  3  0  0  0  0  0  0
  180.3350  177.2850  137.5360 C   0  0  0  0  0  2  0  0  0  0  0  0
  179.6200  176.0630  139.4440 C   0  0  2  0  0  3  0  0  0  0  0  0
  180.0170  176.0370  136.6230 C   0  0  0  0  0  2  0  0  0  0  0  0
  1 13  1  0  0  0  0
  3  8  1  0  0  0  0
  4  5  1  0  0  0  0
  6  7  2  0  0  0  0
  6 11  1  0  0  0  0
  7  9  1  0  0  0  0
  9  5  2  0  0  0  0
 11 23  1  0  0  0  0
 11  4  2  0  0  0  0
 12 27  1  6  0  0  0
 12 26  1  0  0  0  0
 14 12  1  0  0  0  0
 15 17  1  0  0  0  0
 17  6  1  0  0  0  0
 18  2  1  1  0  0  0
 18 16  1  0  0  0  0
 18 19  1  0  0  0  0
 19  2  1  6  0  0  0
 19  3  1  0  0  0  0
 20 10  1  0  0  0  0
 20 27  1  0  0  0  0
 21 37  1  1  0  0  0
 21 16  1  0  0  0  0
 22 10  1  6  0  0  0
 22 14  1  0  0  0  0
 22  1  1  0  0  0  0
 23  8  1  0  0  0  0
 24 13  1  6  0  0  0
 24 15  1  0  0  0  0
 25 21  1  0  0  0  0
 26 25  1  0  0  0  0
 28 33  1  0  0  0  0
 29 34  1  1  0  0  0
 29 32  1  0  0  0  0
 29 31  1  0  0  0  0
 31 30  2  0  0  0  0
 32 28  1  0  0  0  0
 33 30  1  0  0  0  0
 33 24  1  0  0  0  0
 34 35  1  0  0  0  0
 36 34  2  0  0  0  0
 37 38  1  0  0  0  0
 40 39  1  6  0  0  0
 40 38  1  0  0  0  0
 40 42  1  0  0  0  0
 42 41  1  6  0  0  0
 42 43  1  0  0  0  0
 42 44  1  0  0  0  0
 43 44  1  0  0  0  0
 44 45  1  1  0  0  0
 45 46  1  0  0  0  0
 46 47  1  0  0  0  0
 48 40  1  0  0  0  0
 50 54  1  0  0  0  0
 50 48  1  1  0  0  0
 52 49  1  6  0  0  0
 52 54  1  0  0  0  0
 52 51  1  0  0  0  0
 53 50  1  0  0  0  0
 54 51  1  1  0  0  0
 55 49  1  0  0  0  0
 55 53  1  0  0  0  0
M  END
>  <MODEL>
5

>  <REMARK>
 VINA RESULT:      -4.3      2.085      5.306
  Name = 
  10 active torsions:
  status: ('A' for Active; 'I' for Inactive)
    1  A    between atoms: O_1  and  C_53
    2  A    between atoms: C_6  and  C_20
    3  A    between atoms: O_8  and  C_22
    4  A    between atoms: O_8  and  C_43
    5  A    between atoms: C_10  and  C_32
    6  A    between atoms: C_12  and  C_42
    7  A    between atoms: C_20  and  C_22
    8  A    between atoms: C_20  and  C_42
    9  A    between atoms: C_46  and  C_53
   10  A    between atoms: C_49  and  N_52
                            x       y       z     vdW  Elec       q    Type
                         _______ _______ _______ _____ _____    ______ ____

>  <TORSDO>
F 10

$$$$
=
 OpenBabel10262420213D

 55 62  0  0  1  0  0  0  0  0999 V2000
  184.9400  179.1560  138.5900 C   0  0  0  0  0  2  0  0  0  0  0  0
  185.2740  177.6240  141.7030 C   0  0  0  0  0  2  0  0  0  0  0  0
  185.1010  178.6920  143.8590 C   0  0  0  0  0  2  0  0  0  0  0  0
  181.6080  178.0030  144.2460 C   0  0  0  0  0  3  0  0  0  0  0  0
  180.5810  177.0860  143.9450 C   0  0  0  0  0  3  0  0  0  0  0  0
  181.2360  179.1290  142.1270 C   0  0  0  0  0  0  0  0  0  0  0  0
  180.1950  178.2240  141.8500 C   0  0  0  0  0  3  0  0  0  0  0  0
  184.1430  179.6840  144.5320 C   0  0  0  0  0  2  0  0  0  0  0  0
  179.8670  177.2260  142.7600 C   0  0  0  0  0  3  0  0  0  0  0  0
  186.7380  179.2720  136.8850 C   0  0  0  0  0  2  0  0  0  0  0  0
  181.9420  179.0480  143.3590 C   0  0  0  0  0  0  0  0  0  0  0  0
  188.0580  178.0320  139.1950 C   0  0  1  0  0  3  0  0  0  0  0  0
  183.7320  178.3320  139.0220 C   0  0  0  0  0  2  0  0  0  0  0  0
  186.8050  177.3770  138.5990 C   0  0  0  0  0  2  0  0  0  0  0  0
  182.7490  180.0920  140.4930 O   0  0  0  0  0  0  0  0  0  0  0  0
  187.4510  177.8790  142.6890 O   0  0  0  0  0  0  0  0  0  0  0  0
  181.4970  180.2320  141.1420 C   0  0  0  0  0  2  0  0  0  0  0  0
  186.5710  178.4100  141.7370 C   0  0  2  0  0  3  0  0  0  0  0  0
  185.2880  178.9870  142.3690 C   0  0  1  0  0  3  0  0  0  0  0  0
  188.2090  178.9250  136.8210 C   0  0  0  0  0  2  0  0  0  0  0  0
  188.2250  176.8690  142.0950 C   0  0  1  0  0  3  0  0  0  0  0  0
  185.9130  178.3250  137.7740 C   0  0  1  0  0  3  0  0  0  0  0  0
  182.9200  180.1280  143.7030 C   0  0  0  0  0  2  0  0  0  0  0  0
  182.5470  179.2050  139.4460 C   0  0  1  0  0  3  0  0  0  0  0  0
  189.2280  177.4590  141.0680 C   0  0  0  0  0  2  0  0  0  0  0  0
  188.9270  177.0540  139.7680 O   0  0  0  0  0  0  0  0  0  0  0  0
  188.8480  178.9240  138.2130 C   0  0  0  0  0  2  0  0  0  0  0  0
  181.9140  181.3300  138.2980 C   0  0  0  0  0  2  0  0  0  0  0  0
  180.8350  181.2680  136.1100 C   0  0  2  0  0  3  0  0  0  0  0  0
  181.2160  179.1050  137.2860 C   0  0  0  0  0  3  0  0  0  0  0  0
  180.6840  179.7230  136.1940 C   0  0  0  0  0  3  0  0  0  0  0  0
  180.7740  181.9200  137.4840 C   0  0  0  0  0  2  0  0  0  0  0  0
  181.7650  179.8540  138.2750 N   0  0  0  0  0  0  0  0  0  0  0  0
  179.8120  181.9350  135.1630 C   0  0  0  0  0  0  0  0  0  0  0  0
  178.9790  181.2030  134.5960 O   0  0  0  0  0  0  0  0  0  0  0  0
  179.9920  183.2200  134.7750 O   0  0  0  0  0  1  0  0  0  0  0  0
  188.8450  176.0310  143.0340 O   0  0  0  0  0  0  0  0  0  0  0  0
  188.7650  176.7850  144.2180 C   0  0  0  0  0  2  0  0  0  0  0  0
  190.3200  178.6820  144.6880 C   0  0  0  0  0  1  0  0  0  0  0  0
  190.1420  177.1300  144.8580 C   0  0  2  0  0  0  0  0  0  0  0  0
  192.1200  177.5880  143.4350 O   0  0  0  0  0  1  0  0  0  0  0  0
  191.3020  176.5730  143.9760 C   0  0  2  0  0  0  0  0  0  0  0  0
  191.7810  175.5490  143.2130 O   0  0  0  0  0  0  0  0  0  0  0  0
  192.0720  175.3490  144.5730 C   0  0  2  0  0  3  0  0  0  0  0  0
  192.0300  175.7510  146.1500 C   0  0  0  0  0  2  0  0  0  0  0  0
  193.0680  175.3900  146.9910 O   0  0  0  0  0  0  0  0  0  0  0  0
  192.7690  176.0410  148.1300 O   0  0  0  0  0  1  0  0  0  0  0  0
  190.0460  177.1200  146.3910 C   0  0  0  0  0  2  0  0  0  0  0  0
  186.6000  179.1510  148.0440 C   0  0  0  0  0  2  0  0  0  0  0  0
  188.8090  177.1960  147.3270 C   0  0  2  0  0  3  0  0  0  0  0  0
  188.9260  178.4350  149.6230 C   0  0  0  0  0  2  0  0  0  0  0  0
  187.5310  178.2470  148.9840 C   0  0  2  0  0  3  0  0  0  0  0  0
  187.5130  177.4330  146.4180 C   0  0  0  0  0  2  0  0  0  0  0  0
  188.8340  178.4100  148.1350 C   0  0  2  0  0  3  0  0  0  0  0  0
  186.2730  178.2880  146.8920 C   0  0  0  0  0  2  0  0  0  0  0  0
  1 13  1  0  0  0  0
  3  8  1  0  0  0  0
  5  4  1  0  0  0  0
  6 11  1  0  0  0  0
  7  6  2  0  0  0  0
  7  9  1  0  0  0  0
  9  5  2  0  0  0  0
 11 23  1  0  0  0  0
 11  4  2  0  0  0  0
 12 27  1  6  0  0  0
 12 26  1  0  0  0  0
 13 24  1  0  0  0  0
 14 12  1  0  0  0  0
 15 17  1  0  0  0  0
 17  6  1  0  0  0  0
 18  2  1  6  0  0  0
 18 19  1  0  0  0  0
 18 16  1  0  0  0  0
 19  2  1  6  0  0  0
 19  3  1  0  0  0  0
 20 10  1  0  0  0  0
 20 27  1  0  0  0  0
 21 16  1  0  0  0  0
 21 37  1  1  0  0  0
 22 10  1  1  0  0  0
 22  1  1  0  0  0  0
 22 14  1  0  0  0  0
 23  8  1  0  0  0  0
 24 33  1  6  0  0  0
 24 15  1  0  0  0  0
 25 21  1  0  0  0  0
 26 25  1  0  0  0  0
 29 34  1  6  0  0  0
 29 31  1  0  0  0  0
 29 32  1  0  0  0  0
 30 33  1  0  0  0  0
 31 30  2  0  0  0  0
 32 28  1  0  0  0  0
 33 28  1  0  0  0  0
 35 34  2  0  0  0  0
 36 34  1  0  0  0  0
 37 38  1  0  0  0  0
 38 40  1  0  0  0  0
 40 39  1  6  0  0  0
 40 48  1  0  0  0  0
 42 41  1  6  0  0  0
 42 44  1  0  0  0  0
 42 40  1  0  0  0  0
 43 42  1  0  0  0  0
 43 44  1  0  0  0  0
 44 45  1  1  0  0  0
 45 46  1  0  0  0  0
 46 47  1  0  0  0  0
 50 48  1  6  0  0  0
 50 54  1  0  0  0  0
 52 49  1  6  0  0  0
 52 51  1  0  0  0  0
 53 55  1  0  0  0  0
 53 50  1  0  0  0  0
 54 52  1  0  0  0  0
 54 51  1  1  0  0  0
 55 49  1  0  0  0  0
M  END
>  <MODEL>
6

>  <REMARK>
 VINA RESULT:      -4.2      4.168     11.028
  Name = 
  10 active torsions:
  status: ('A' for Active; 'I' for Inactive)
    1  A    between atoms: O_1  and  C_53
    2  A    between atoms: C_6  and  C_20
    3  A    between atoms: O_8  and  C_22
    4  A    between atoms: O_8  and  C_43
    5  A    between atoms: C_10  and  C_32
    6  A    between atoms: C_12  and  C_42
    7  A    between atoms: C_20  and  C_22
    8  A    between atoms: C_20  and  C_42
    9  A    between atoms: C_46  and  C_53
   10  A    between atoms: C_49  and  N_52
                            x       y       z     vdW  Elec       q    Type
                         _______ _______ _______ _____ _____    ______ ____

>  <TORSDO>
F 10

$$$$
=
 OpenBabel10262420213D

 55 62  0  0  1  0  0  0  0  0999 V2000
  188.4580  177.0550  138.4300 C   0  0  0  0  0  2  0  0  0  0  0  0
  186.9610  178.6040  141.1710 C   0  0  0  0  0  2  0  0  0  0  0  0
  186.4850  177.5970  143.3100 C   0  0  0  0  0  2  0  0  0  0  0  0
  189.5700  178.6300  144.8110 C   0  0  0  0  0  3  0  0  0  0  0  0
  190.5550  179.6370  144.8250 C   0  0  0  0  0  3  0  0  0  0  0  0
  190.7310  177.5070  142.9980 C   0  0  0  0  0  0  0  0  0  0  0  0
  191.7230  178.5040  143.0400 C   0  0  0  0  0  3  0  0  0  0  0  0
  187.2410  176.7150  144.3150 C   0  0  0  0  0  2  0  0  0  0  0  0
  191.6370  179.5460  143.9560 C   0  0  0  0  0  3  0  0  0  0  0  0
  187.3600  176.7330  136.2290 C   0  0  0  0  0  2  0  0  0  0  0  0
  189.6460  177.5420  143.9160 C   0  0  0  0  0  0  0  0  0  0  0  0
  185.2360  177.8800  137.8990 C   0  0  1  0  0  3  0  0  0  0  0  0
  189.3740  178.0000  139.2000 C   0  0  0  0  0  2  0  0  0  0  0  0
  186.5560  178.6430  137.7250 C   0  0  0  0  0  2  0  0  0  0  0  0
  189.9480  176.3720  141.0020 O   0  0  0  0  0  0  0  0  0  0  0  0
  184.6100  178.1560  141.3820 O   0  0  0  0  0  0  0  0  0  0  0  0
  190.9140  176.3660  142.0390 C   0  0  0  0  0  2  0  0  0  0  0  0
  185.8010  177.6960  140.8080 C   0  0  2  0  0  3  0  0  0  0  0  0
  186.8390  177.2580  141.8610 C   0  0  1  0  0  3  0  0  0  0  0  0
  185.9730  176.9340  135.6600 C   0  0  0  0  0  2  0  0  0  0  0  0
  183.9980  179.0750  140.5130 C   0  0  1  0  0  3  0  0  0  0  0  0
  187.7510  177.7720  137.2950 C   0  0  1  0  0  3  0  0  0  0  0  0
  188.7050  176.3780  143.9670 C   0  0  0  0  0  2  0  0  0  0  0  0
  190.4160  177.2550  140.0400 C   0  0  1  0  0  3  0  0  0  0  0  0
  183.4560  178.3720  139.2410 C   0  0  0  0  0  2  0  0  0  0  0  0
  184.1440  178.7800  138.0980 O   0  0  0  0  0  0  0  0  0  0  0  0
  184.9030  176.8990  136.7550 C   0  0  0  0  0  2  0  0  0  0  0  0
  191.1100  175.7290  138.1900 C   0  0  0  0  0  2  0  0  0  0  0  0
  193.4100  175.7570  137.3750 C   0  0  2  0  0  3  0  0  0  0  0  0
  192.8630  177.1370  139.3750 C   0  0  0  0  0  3  0  0  0  0  0  0
  193.8410  176.7040  138.5300 C   0  0  0  0  0  3  0  0  0  0  0  0
  192.2730  174.8350  137.7910 C   0  0  0  0  0  2  0  0  0  0  0  0
  191.5990  176.6640  139.2330 N   0  0  0  0  0  0  0  0  0  0  0  0
  194.5780  174.9270  136.7940 C   0  0  0  0  0  0  0  0  0  0  0  0
  195.7310  175.1880  137.1870 O   0  0  0  0  0  1  0  0  0  0  0  0
  194.3690  174.1340  135.7160 O   0  0  0  0  0  0  0  0  0  0  0  0
  183.0280  179.8650  141.1470 O   0  0  0  0  0  0  0  0  0  0  0  0
  182.1180  180.1290  140.1080 C   0  0  0  0  0  2  0  0  0  0  0  0
  179.8820  181.2370  140.1880 C   0  0  0  0  0  1  0  0  0  0  0  0
  180.6270  179.8840  140.4780 C   0  0  2  0  0  0  0  0  0  0  0  0
  179.6110  180.7300  142.5760 O   0  0  0  0  0  1  0  0  0  0  0  0
  180.4680  179.7540  142.0240 C   0  0  2  0  0  0  0  0  0  0  0  0
  180.9870  179.3030  143.2030 O   0  0  0  0  0  0  0  0  0  0  0  0
  180.2450  178.2990  142.5570 C   0  0  2  0  0  3  0  0  0  0  0  0
  179.3430  177.7060  141.3390 C   0  0  0  0  0  2  0  0  0  0  0  0
  178.9460  176.3800  141.3450 O   0  0  0  0  0  0  0  0  0  0  0  0
  179.8070  175.8060  140.4860 O   0  0  0  0  0  1  0  0  0  0  0  0
  179.9280  179.0510  139.3940 C   0  0  0  0  0  2  0  0  0  0  0  0
  180.1020  178.7430  135.0800 C   0  0  0  0  0  2  0  0  0  0  0  0
  179.4600  179.4390  137.9650 C   0  0  2  0  0  3  0  0  0  0  0  0
  180.7970  181.1600  136.5250 C   0  0  0  0  0  2  0  0  0  0  0  0
  179.8780  180.1680  135.7780 C   0  0  2  0  0  3  0  0  0  0  0  0
  178.9310  178.1150  137.2390 C   0  0  0  0  0  2  0  0  0  0  0  0
  180.5920  179.8100  137.1220 C   0  0  2  0  0  3  0  0  0  0  0  0
  179.0890  177.8590  135.6890 C   0  0  0  0  0  2  0  0  0  0  0  0
  1 13  1  0  0  0  0
  3  8  1  0  0  0  0
  4  5  1  0  0  0  0
  6  7  2  0  0  0  0
  6 11  1  0  0  0  0
  7  9  1  0  0  0  0
  9  5  2  0  0  0  0
 11 23  1  0  0  0  0
 11  4  2  0  0  0  0
 12 27  1  6  0  0  0
 12 26  1  0  0  0  0
 14 12  1  0  0  0  0
 15 17  1  0  0  0  0
 17  6  1  0  0  0  0
 18  2  1  1  0  0  0
 18 16  1  0  0  0  0
 18 19  1  0  0  0  0
 19  2  1  6  0  0  0
 19  3  1  0  0  0  0
 20 10  1  0  0  0  0
 20 27  1  0  0  0  0
 21 37  1  1  0  0  0
 21 16  1  0  0  0  0
 22 10  1  6  0  0  0
 22 14  1  0  0  0  0
 22  1  1  0  0  0  0
 23  8  1  0  0  0  0
 24 13  1  6  0  0  0
 24 15  1  0  0  0  0
 25 21  1  0  0  0  0
 26 25  1  0  0  0  0
 28 33  1  0  0  0  0
 29 34  1  1  0  0  0
 29 32  1  0  0  0  0
 29 31  1  0  0  0  0
 31 30  2  0  0  0  0
 32 28  1  0  0  0  0
 33 30  1  0  0  0  0
 33 24  1  0  0  0  0
 34 35  1  0  0  0  0
 36 34  2  0  0  0  0
 38 40  1  0  0  0  0
 38 37  1  0  0  0  0
 40 39  1  6  0  0  0
 40 42  1  0  0  0  0
 42 44  1  0  0  0  0
 42 41  1  1  0  0  0
 42 43  1  0  0  0  0
 44 45  1  6  0  0  0
 44 43  1  0  0  0  0
 45 46  1  0  0  0  0
 47 46  1  0  0  0  0
 48 40  1  0  0  0  0
 49 55  1  0  0  0  0
 50 48  1  1  0  0  0
 52 49  1  6  0  0  0
 52 51  1  0  0  0  0
 52 54  1  0  0  0  0
 53 50  1  0  0  0  0
 54 51  1  1  0  0  0
 54 50  1  0  0  0  0
 55 53  1  0  0  0  0
M  END
>  <MODEL>
7

>  <REMARK>
 VINA RESULT:      -3.6      2.010      5.419
  Name = 
  10 active torsions:
  status: ('A' for Active; 'I' for Inactive)
    1  A    between atoms: O_1  and  C_53
    2  A    between atoms: C_6  and  C_20
    3  A    between atoms: O_8  and  C_22
    4  A    between atoms: O_8  and  C_43
    5  A    between atoms: C_10  and  C_32
    6  A    between atoms: C_12  and  C_42
    7  A    between atoms: C_20  and  C_22
    8  A    between atoms: C_20  and  C_42
    9  A    between atoms: C_46  and  C_53
   10  A    between atoms: C_49  and  N_52
                            x       y       z     vdW  Elec       q    Type
                         _______ _______ _______ _____ _____    ______ ____

>  <TORSDO>
F 10

$$$$
=
 OpenBabel10262420213D

 55 62  0  0  1  0  0  0  0  0999 V2000
  183.8260  177.7430  138.5220 C   0  0  0  0  0  2  0  0  0  0  0  0
  187.0420  176.3990  138.5820 C   0  0  0  0  0  2  0  0  0  0  0  0
  189.1000  177.6050  138.9350 C   0  0  0  0  0  2  0  0  0  0  0  0
  189.1490  177.0670  142.4760 C   0  0  0  0  0  3  0  0  0  0  0  0
  188.7940  176.1690  143.5030 C   0  0  0  0  0  3  0  0  0  0  0  0
  186.9400  178.0700  142.5750 C   0  0  0  0  0  0  0  0  0  0  0  0
  186.6060  177.1870  143.6190 C   0  0  0  0  0  3  0  0  0  0  0  0
  189.6070  178.6720  139.9170 C   0  0  0  0  0  2  0  0  0  0  0  0
  187.5330  176.2600  144.0820 C   0  0  0  0  0  3  0  0  0  0  0  0
  182.3210  177.6890  136.5520 C   0  0  0  0  0  2  0  0  0  0  0  0
  188.2440  178.0410  142.0070 C   0  0  0  0  0  0  0  0  0  0  0  0
  184.8280  176.5500  135.5350 C   0  0  1  0  0  3  0  0  0  0  0  0
  184.1740  176.9920  139.8020 C   0  0  0  0  0  2  0  0  0  0  0  0
  184.1400  175.9040  136.7450 C   0  0  0  0  0  2  0  0  0  0  0  0
  185.4250  178.8740  140.8600 O   0  0  0  0  0  0  0  0  0  0  0  0
  188.2400  176.6380  136.5120 O   0  0  0  0  0  0  0  0  0  0  0  0
  185.9260  179.0990  142.1670 C   0  0  0  0  0  2  0  0  0  0  0  0
  187.1690  177.1390  137.2640 C   0  0  2  0  0  3  0  0  0  0  0  0
  187.6240  177.8000  138.5800 C   0  0  1  0  0  3  0  0  0  0  0  0
  182.4360  177.2860  135.0980 C   0  0  0  0  0  2  0  0  0  0  0  0
  187.7920  175.5650  135.7220 C   0  0  1  0  0  3  0  0  0  0  0  0
  183.1700  176.8290  137.5050 C   0  0  1  0  0  3  0  0  0  0  0  0
  188.6270  179.1060  141.0260 C   0  0  0  0  0  2  0  0  0  0  0  0
  184.4160  177.9310  140.9880 C   0  0  1  0  0  3  0  0  0  0  0  0
  186.8470  176.0530  134.5940 C   0  0  0  0  0  2  0  0  0  0  0  0
  185.5470  175.5790  134.7730 O   0  0  0  0  0  0  0  0  0  0  0  0
  183.8860  177.3490  134.6090 C   0  0  0  0  0  2  0  0  0  0  0  0
  181.9670  178.3320  140.7180 C   0  0  0  0  0  2  0  0  0  0  0  0
  180.6380  179.1260  142.6050 C   0  0  2  0  0  3  0  0  0  0  0  0
  183.1080  178.9790  142.8950 C   0  0  0  0  0  3  0  0  0  0  0  0
  181.9210  179.3450  143.4560 C   0  0  0  0  0  3  0  0  0  0  0  0
  180.8990  179.3370  141.1210 C   0  0  0  0  0  2  0  0  0  0  0  0
  183.1320  178.5330  141.6140 N   0  0  0  0  0  0  0  0  0  0  0  0
  179.4450  179.9950  143.0610 C   0  0  0  0  0  0  0  0  0  0  0  0
  179.0120  180.8550  142.2690 O   0  0  0  0  0  0  0  0  0  0  0  0
  179.0650  179.9880  144.3620 O   0  0  0  0  0  1  0  0  0  0  0  0
  188.8400  174.7660  135.2400 O   0  0  0  0  0  0  0  0  0  0  0  0
  189.9820  175.4810  135.6440 C   0  0  0  0  0  2  0  0  0  0  0  0
  190.2210  173.6790  137.3550 C   0  0  0  0  0  1  0  0  0  0  0  0
  191.0380  174.6320  136.4100 C   0  0  2  0  0  0  0  0  0  0  0  0
  192.3930  174.7790  138.4810 O   0  0  0  0  0  1  0  0  0  0  0  0
  191.8060  175.5220  137.4350 C   0  0  2  0  0  0  0  0  0  0  0  0
  191.9740  176.7560  137.9930 O   0  0  0  0  0  0  0  0  0  0  0  0
  192.7220  176.6270  136.8110 C   0  0  2  0  0  3  0  0  0  0  0  0
  193.2430  175.8270  135.4920 C   0  0  0  0  0  2  0  0  0  0  0  0
  194.4920  176.0970  134.9580 O   0  0  0  0  0  0  0  0  0  0  0  0
  195.2940  176.0500  136.0370 O   0  0  0  0  0  1  0  0  0  0  0  0
  191.6190  173.5400  135.5010 C   0  0  0  0  0  2  0  0  0  0  0  0
  194.3150  170.2720  136.3840 C   0  0  0  0  0  2  0  0  0  0  0  0
  193.0200  172.8690  135.4940 C   0  0  2  0  0  3  0  0  0  0  0  0
  194.5370  172.8870  137.6200 C   0  0  0  0  0  2  0  0  0  0  0  0
  194.8000  171.7880  136.5660 C   0  0  2  0  0  3  0  0  0  0  0  0
  192.9110  171.5020  134.6690 C   0  0  0  0  0  2  0  0  0  0  0  0
  193.3800  172.3880  136.8240 C   0  0  2  0  0  3  0  0  0  0  0  0
  193.7530  170.2130  135.0210 C   0  0  0  0  0  2  0  0  0  0  0  0
  1 13  1  0  0  0  0
  3  8  1  0  0  0  0
  4  5  1  0  0  0  0
  5  9  2  0  0  0  0
  6  7  2  0  0  0  0
  7  9  1  0  0  0  0
  8 23  1  0  0  0  0
 11  4  2  0  0  0  0
 11  6  1  0  0  0  0
 12 27  1  6  0  0  0
 12 14  1  0  0  0  0
 14 22  1  0  0  0  0
 15 24  1  0  0  0  0
 15 17  1  0  0  0  0
 16 18  1  0  0  0  0
 17  6  1  0  0  0  0
 18 19  1  0  0  0  0
 18  2  1  1  0  0  0
 19  2  1  1  0  0  0
 19  3  1  0  0  0  0
 20 10  1  0  0  0  0
 21 37  1  6  0  0  0
 21 16  1  0  0  0  0
 22 10  1  6  0  0  0
 22  1  1  0  0  0  0
 23 11  1  0  0  0  0
 24 13  1  6  0  0  0
 24 33  1  0  0  0  0
 25 26  1  0  0  0  0
 25 21  1  0  0  0  0
 26 12  1  0  0  0  0
 27 20  1  0  0  0  0
 28 32  1  0  0  0  0
 28 33  1  0  0  0  0
 29 34  1  1  0  0  0
 29 31  1  0  0  0  0
 30 31  2  0  0  0  0
 32 29  1  0  0  0  0
 33 30  1  0  0  0  0
 34 36  1  0  0  0  0
 35 34  2  0  0  0  0
 37 38  1  0  0  0  0
 38 40  1  0  0  0  0
 40 39  1  1  0  0  0
 40 42  1  0  0  0  0
 42 43  1  0  0  0  0
 42 41  1  1  0  0  0
 44 45  1  6  0  0  0
 44 42  1  0  0  0  0
 44 43  1  0  0  0  0
 46 45  1  0  0  0  0
 46 47  1  0  0  0  0
 48 40  1  0  0  0  0
 50 48  1  1  0  0  0
 50 54  1  0  0  0  0
 52 49  1  1  0  0  0
 52 54  1  0  0  0  0
 52 51  1  0  0  0  0
 53 55  1  0  0  0  0
 53 50  1  0  0  0  0
 54 51  1  1  0  0  0
 55 49  1  0  0  0  0
M  END
>  <MODEL>
8

>  <REMARK>
 VINA RESULT:      -3.3      2.585     10.781
  Name = 
  10 active torsions:
  status: ('A' for Active; 'I' for Inactive)
    1  A    between atoms: O_1  and  C_53
    2  A    between atoms: C_6  and  C_20
    3  A    between atoms: O_8  and  C_22
    4  A    between atoms: O_8  and  C_43
    5  A    between atoms: C_10  and  C_32
    6  A    between atoms: C_12  and  C_42
    7  A    between atoms: C_20  and  C_22
    8  A    between atoms: C_20  and  C_42
    9  A    between atoms: C_46  and  C_53
   10  A    between atoms: C_49  and  N_52
                            x       y       z     vdW  Elec       q    Type
                         _______ _______ _______ _____ _____    ______ ____

>  <TORSDO>
F 10

$$$$
=
 OpenBabel10262420213D

 55 62  0  0  1  0  0  0  0  0999 V2000
  186.6710  178.0410  142.5440 C   0  0  0  0  0  2  0  0  0  0  0  0
  186.1980  177.6760  139.1090 C   0  0  0  0  0  2  0  0  0  0  0  0
  187.2250  178.9890  137.3670 C   0  0  0  0  0  2  0  0  0  0  0  0
  189.9850  176.7530  136.9050 C   0  0  0  0  0  3  0  0  0  0  0  0
  190.3860  175.4030  136.9570 C   0  0  0  0  0  3  0  0  0  0  0  0
  190.4710  176.9980  139.2720 C   0  0  0  0  0  0  0  0  0  0  0  0
  190.8950  175.6560  139.3050 C   0  0  0  0  0  3  0  0  0  0  0  0
  188.6390  179.4930  137.0440 C   0  0  0  0  0  2  0  0  0  0  0  0
  190.8630  174.8790  138.1530 C   0  0  0  0  0  3  0  0  0  0  0  0
  184.8780  178.6350  144.1500 C   0  0  0  0  0  2  0  0  0  0  0  0
  190.0370  177.5780  138.0480 C   0  0  0  0  0  0  0  0  0  0  0  0
  183.5520  178.8180  141.5380 C   0  0  1  0  0  3  0  0  0  0  0  0
  187.4000  176.8520  141.9270 C   0  0  0  0  0  2  0  0  0  0  0  0
  184.2210  177.5020  141.9560 C   0  0  0  0  0  2  0  0  0  0  0  0
  189.3370  178.1700  141.0670 O   0  0  0  0  0  0  0  0  0  0  0  0
  184.6090  179.2170  138.1730 O   0  0  0  0  0  0  0  0  0  0  0  0
  190.5970  177.8110  140.5280 C   0  0  0  0  0  2  0  0  0  0  0  0
  185.4550  178.9900  139.2660 C   0  0  2  0  0  3  0  0  0  0  0  0
  186.9450  178.9740  138.8710 C   0  0  1  0  0  3  0  0  0  0  0  0
  183.4320  179.0710  144.0630 C   0  0  0  0  0  2  0  0  0  0  0  0
  183.3590  178.6250  138.4210 C   0  0  1  0  0  3  0  0  0  0  0  0
  185.2970  177.6450  143.0490 C   0  0  1  0  0  3  0  0  0  0  0  0
  189.7620  179.0500  138.0050 C   0  0  0  0  0  2  0  0  0  0  0  0
  188.9100  177.0820  141.8150 C   0  0  1  0  0  3  0  0  0  0  0  0
  182.5940  179.3750  139.5430 C   0  0  0  0  0  2  0  0  0  0  0  0
  182.4370  178.5780  140.6770 O   0  0  0  0  0  0  0  0  0  0  0  0
  183.1200  179.7220  142.7130 C   0  0  0  0  0  2  0  0  0  0  0  0
  190.7140  175.8800  143.0550 C   0  0  0  0  0  2  0  0  0  0  0  0
  191.5050  176.7330  145.2000 C   0  0  2  0  0  3  0  0  0  0  0  0
  189.5460  177.8560  144.1480 C   0  0  0  0  0  3  0  0  0  0  0  0
  190.3700  177.7950  145.2320 C   0  0  0  0  0  3  0  0  0  0  0  0
  191.0770  175.4670  144.4720 C   0  0  0  0  0  2  0  0  0  0  0  0
  189.6900  176.9500  143.1480 N   0  0  0  0  0  0  0  0  0  0  0  0
  192.0520  176.3780  146.6010 C   0  0  0  0  0  0  0  0  0  0  0  0
  191.9400  177.2280  147.5040 O   0  0  0  0  0  1  0  0  0  0  0  0
  192.8470  175.2920  146.7570 O   0  0  0  0  0  0  0  0  0  0  0  0
  182.5900  178.4640  137.2590 O   0  0  0  0  0  0  0  0  0  0  0  0
  182.5400  177.0660  137.1140 C   0  0  0  0  0  2  0  0  0  0  0  0
  181.2220  176.9260  134.9970 C   0  0  0  0  0  1  0  0  0  0  0  0
  181.2080  176.5260  136.5170 C   0  0  2  0  0  0  0  0  0  0  0  0
  178.9780  177.5280  136.0980 O   0  0  0  0  0  1  0  0  0  0  0  0
  180.0000  177.3530  137.0560 C   0  0  2  0  0  0  0  0  0  0  0  0
  179.5380  178.2640  137.9600 O   0  0  0  0  0  0  0  0  0  0  0  0
  179.5050  176.9630  138.4890 C   0  0  2  0  0  3  0  0  0  0  0  0
  179.7550  175.3560  138.4290 C   0  0  0  0  0  2  0  0  0  0  0  0
  180.3060  174.6930  139.5120 O   0  0  0  0  0  0  0  0  0  0  0  0
  181.0340  175.6540  140.1100 O   0  0  0  0  0  1  0  0  0  0  0  0
  181.2820  175.0060  136.3100 C   0  0  0  0  0  2  0  0  0  0  0  0
  183.5770  171.3730  136.8210 C   0  0  0  0  0  2  0  0  0  0  0  0
  182.4930  174.0860  135.9970 C   0  0  2  0  0  3  0  0  0  0  0  0
  184.5650  173.9910  137.5840 C   0  0  0  0  0  2  0  0  0  0  0  0
  184.3230  172.7810  136.6540 C   0  0  2  0  0  3  0  0  0  0  0  0
  181.9290  172.7010  135.4260 C   0  0  0  0  0  2  0  0  0  0  0  0
  183.1590  173.6550  137.2220 C   0  0  2  0  0  3  0  0  0  0  0  0
  182.6270  171.3110  135.6940 C   0  0  0  0  0  2  0  0  0  0  0  0
  1 22  1  0  0  0  0
  4  5  2  0  0  0  0
  4 11  1  0  0  0  0
  5  9  1  0  0  0  0
  6  7  1  0  0  0  0
  6 17  1  0  0  0  0
  8  3  1  0  0  0  0
  8 23  1  0  0  0  0
  9  7  2  0  0  0  0
 11  6  2  0  0  0  0
 12 14  1  1  0  0  0
 12 27  1  0  0  0  0
 13  1  1  0  0  0  0
 15 24  1  0  0  0  0
 16 21  1  0  0  0  0
 16 18  1  0  0  0  0
 17 15  1  0  0  0  0
 18  2  1  6  0  0  0
 19  3  1  6  0  0  0
 19  2  1  0  0  0  0
 19 18  1  0  0  0  0
 20 10  1  0  0  0  0
 21 37  1  6  0  0  0
 21 25  1  0  0  0  0
 22 14  1  6  0  0  0
 22 10  1  0  0  0  0
 23 11  1  0  0  0  0
 24 13  1  1  0  0  0
 24 33  1  0  0  0  0
 25 26  1  0  0  0  0
 26 12  1  0  0  0  0
 27 20  1  0  0  0  0
 28 33  1  0  0  0  0
 28 32  1  0  0  0  0
 29 31  1  0  0  0  0
 29 34  1  1  0  0  0
 30 31  2  0  0  0  0
 32 29  1  0  0  0  0
 33 30  1  0  0  0  0
 34 36  2  0  0  0  0
 34 35  1  0  0  0  0
 38 37  1  0  0  0  0
 40 39  1  6  0  0  0
 40 42  1  0  0  0  0
 40 38  1  0  0  0  0
 42 41  1  6  0  0  0
 42 43  1  0  0  0  0
 42 44  1  0  0  0  0
 43 44  1  0  0  0  0
 44 45  1  1  0  0  0
 45 46  1  0  0  0  0
 46 47  1  0  0  0  0
 48 40  1  0  0  0  0
 50 48  1  1  0  0  0
 50 54  1  0  0  0  0
 52 49  1  1  0  0  0
 52 54  1  0  0  0  0
 52 51  1  0  0  0  0
 53 55  1  0  0  0  0
 53 50  1  0  0  0  0
 54 51  1  6  0  0  0
 55 49  1  0  0  0  0
M  END
>  <MODEL>
9

>  <REMARK>
 VINA RESULT:      -3.2      2.980      5.244
  Name = 
  10 active torsions:
  status: ('A' for Active; 'I' for Inactive)
    1  A    between atoms: O_1  and  C_53
    2  A    between atoms: C_6  and  C_20
    3  A    between atoms: O_8  and  C_22
    4  A    between atoms: O_8  and  C_43
    5  A    between atoms: C_10  and  C_32
    6  A    between atoms: C_12  and  C_42
    7  A    between atoms: C_20  and  C_22
    8  A    between atoms: C_20  and  C_42
    9  A    between atoms: C_46  and  C_53
   10  A    between atoms: C_49  and  N_52
                            x       y       z     vdW  Elec       q    Type
                         _______ _______ _______ _____ _____    ______ ____

>  <TORSDO>
F 10

$$$$
