=
 OpenBabel10262422283D

 43 48  0  0  1  0  0  0  0  0999 V2000
  185.5540  178.3450  142.7670 N   0  0  0  0  0  2  0  0  0  0  0  0
  191.2170  176.6420  147.2410 C   0  0  0  0  0  0  0  0  0  0  0  0
  187.6680  177.7170  143.8390 C   0  0  0  0  0  0  0  0  0  0  0  0
  188.8380  177.4250  141.3590 C   0  0  0  0  0  0  0  0  0  0  0  0
  189.1480  177.2520  146.1430 C   0  0  0  0  0  0  0  0  0  0  0  0
  191.8360  176.4880  145.9970 C   0  0  0  0  0  3  0  0  0  0  0  0
  191.9200  176.4210  148.3780 F   0  0  0  0  0  0  0  0  0  0  0  0
  189.7670  177.0990  144.8820 C   0  0  0  0  0  0  0  0  0  0  0  0
  189.8740  177.0240  147.3150 C   0  0  0  0  0  3  0  0  0  0  0  0
  191.1150  176.7150  144.8210 C   0  0  0  0  0  3  0  0  0  0  0  0
  189.5710  177.1970  142.4830 N   0  0  0  0  0  0  0  0  0  0  0  0
  189.0180  177.3330  143.7180 C   0  0  0  0  0  0  0  0  0  0  0  0
  187.1020  177.8560  145.0690 N   0  0  0  0  0  0  0  0  0  0  0  0
  186.9310  177.9510  142.6710 C   0  0  0  0  0  0  0  0  0  0  0  0
  187.5360  177.7990  141.4620 N   0  0  0  0  0  0  0  0  0  0  0  0
  187.8070  177.6350  146.2100 C   0  0  0  0  0  3  0  0  0  0  0  0
  182.3720  178.7150  140.8610 C   0  0  0  0  0  3  0  0  0  0  0  0
  182.8300  179.1830  139.6240 C   0  0  0  0  0  0  0  0  0  0  0  0
  185.1060  179.1110  140.4470 C   0  0  0  0  0  3  0  0  0  0  0  0
  183.2820  178.4420  141.8860 C   0  0  0  0  0  3  0  0  0  0  0  0
  184.6540  178.6360  141.6880 C   0  0  0  0  0  0  0  0  0  0  0  0
  184.1980  179.3850  139.4200 C   0  0  0  0  0  3  0  0  0  0  0  0
  181.8580  179.4890  138.5370 C   0  0  0  0  0  2  0  0  0  0  0  0
  181.7610  180.9890  138.3300 C   0  0  0  0  0  1  0  0  0  0  0  0
  189.4550  177.2840  140.0090 C   0  0  2  0  0  3  0  0  0  0  0  0
  190.9650  177.1860  140.1200 C   0  0  0  0  0  1  0  0  0  0  0  0
  188.9920  178.6910  138.9530 S   0  0  0  0  0  0  0  0  0  0  0  0
  187.9080  177.6660  137.9150 C   0  0  1  0  0  3  0  0  0  0  0  0
  187.0580  178.4850  137.1970 F   0  0  0  0  0  0  0  0  0  0  0  0
  188.7470  176.8330  136.9450 C   0  0  0  0  0  2  0  0  0  0  0  0
  188.4770  175.3880  137.0130 N   0  0  0  0  0  0  0  0  0  0  0  0
  186.0970  174.8570  137.0400 C   0  0  0  0  0  2  0  0  0  0  0  0
  187.3340  175.0280  136.1750 C   0  0  0  0  0  3  0  0  0  0  0  0
  186.8450  173.6400  136.5470 C   0  0  0  0  0  2  0  0  0  0  0  0
  189.8790  174.4850  136.5030 S   0  0  0  0  0  0  0  0  0  0  0  0
  190.0540  173.2640  137.3640 O   0  0  0  0  0  0  0  0  0  0  0  0
  189.7160  174.0590  135.0690 O   0  0  0  0  0  0  0  0  0  0  0  0
  191.3300  175.5110  136.6460 C   0  0  1  0  0  3  0  0  0  0  0  0
  193.4170  176.2020  135.4280 C   0  0  0  0  0  3  0  0  0  0  0  0
  193.4570  175.9010  137.8340 C   0  0  0  0  0  2  0  0  0  0  0  0
  194.0420  176.2730  136.5570 N   0  0  0  0  0  0  0  0  0  0  0  0
  192.2900  174.9310  137.6720 C   0  0  0  0  0  2  0  0  0  0  0  0
  192.0350  175.6100  135.2980 C   0  0  0  0  0  2  0  0  0  0  0  0
  2  9  1  0  0  0  0
  2  7  1  0  0  0  0
  3 13  1  0  0  0  0
  4 15  1  0  0  0  0
  4 11  2  0  0  0  0
  5 16  1  0  0  0  0
  5  9  2  0  0  0  0
  6  2  2  0  0  0  0
  8  5  1  0  0  0  0
 10  8  2  0  0  0  0
 10  6  1  0  0  0  0
 11 12  1  0  0  0  0
 12  3  2  0  0  0  0
 12  8  1  0  0  0  0
 13 16  2  0  0  0  0
 14  1  1  0  0  0  0
 14  3  1  0  0  0  0
 15 14  2  0  0  0  0
 17 20  1  0  0  0  0
 18 17  2  0  0  0  0
 19 21  1  0  0  0  0
 21 20  2  0  0  0  0
 21  1  1  0  0  0  0
 22 18  1  0  0  0  0
 22 19  2  0  0  0  0
 23 18  1  0  0  0  0
 24 23  1  0  0  0  0
 25 26  1  1  0  0  0
 25  4  1  0  0  0  0
 27 25  1  0  0  0  0
 28 29  1  6  0  0  0
 28 27  1  0  0  0  0
 30 31  1  0  0  0  0
 30 28  1  0  0  0  0
 33 34  1  0  0  0  0
 33 31  1  0  0  0  0
 33 32  1  0  0  0  0
 34 32  1  0  0  0  0
 35 31  1  0  0  0  0
 35 36  2  0  0  0  0
 37 35  2  0  0  0  0
 38 35  1  6  0  0  0
 38 42  1  0  0  0  0
 39 41  2  0  0  0  0
 41 40  1  0  0  0  0
 42 40  1  0  0  0  0
 43 39  1  0  0  0  0
 43 38  1  0  0  0  0
M  END
>  <MODEL>
1

>  <REMARK>
 VINA RESULT:      -9.2      0.000      0.000
  Name = 
  10 active torsions:
  status: ('A' for Active; 'I' for Inactive)
    1  A    between atoms: N_1  and  C_35
    2  A    between atoms: C_2  and  S_6
    3  A    between atoms: C_2  and  C_13
    4  A    between atoms: C_3  and  N_4
    5  A    between atoms: C_3  and  C_12
    6  A    between atoms: N_4  and  S_14
    7  A    between atoms: N_4  and  C_15
    8  A    between atoms: S_6  and  C_12
    9  A    between atoms: C_11  and  S_14
   10  A    between atoms: C_19  and  C_25
                            x       y       z     vdW  Elec       q    Type
                         _______ _______ _______ _____ _____    ______ ____

>  <TORSDO>
F 10

$$$$
=
 OpenBabel10262422283D

 43 48  0  0  1  0  0  0  0  0999 V2000
  189.5360  177.4400  140.7810 N   0  0  0  0  0  2  0  0  0  0  0  0
  187.8570  177.8100  147.9940 C   0  0  0  0  0  0  0  0  0  0  0  0
  188.5550  177.7160  143.0120 C   0  0  0  0  0  0  0  0  0  0  0  0
  186.1930  178.5600  141.8680 C   0  0  0  0  0  0  0  0  0  0  0  0
  188.7890  177.5560  145.7750 C   0  0  0  0  0  0  0  0  0  0  0  0
  186.6470  178.2390  147.4420 C   0  0  0  0  0  3  0  0  0  0  0  0
  187.9920  177.7230  149.3400 F   0  0  0  0  0  0  0  0  0  0  0  0
  187.5690  177.9900  145.2090 C   0  0  0  0  0  0  0  0  0  0  0  0
  188.9270  177.4670  147.1620 C   0  0  0  0  0  3  0  0  0  0  0  0
  186.5020  178.3300  146.0540 C   0  0  0  0  0  3  0  0  0  0  0  0
  186.2980  178.4840  143.2230 N   0  0  0  0  0  0  0  0  0  0  0  0
  187.4520  178.0710  143.8120 C   0  0  0  0  0  0  0  0  0  0  0  0
  189.7160  177.3020  143.5890 N   0  0  0  0  0  0  0  0  0  0  0  0
  188.4270  177.7980  141.6200 C   0  0  0  0  0  0  0  0  0  0  0  0
  187.2490  178.2180  141.0850 N   0  0  0  0  0  0  0  0  0  0  0  0
  189.8530  177.2150  144.9390 C   0  0  0  0  0  3  0  0  0  0  0  0
  190.2390  176.3380  137.2910 C   0  0  0  0  0  3  0  0  0  0  0  0
  189.7150  177.3980  136.5430 C   0  0  0  0  0  0  0  0  0  0  0  0
  189.0540  178.5080  138.5910 C   0  0  0  0  0  3  0  0  0  0  0  0
  190.1740  176.3670  138.6870 C   0  0  0  0  0  3  0  0  0  0  0  0
  189.5830  177.4510  139.3470 C   0  0  0  0  0  0  0  0  0  0  0  0
  189.1180  178.4810  137.1950 C   0  0  0  0  0  3  0  0  0  0  0  0
  189.7690  177.3600  135.0550 C   0  0  0  0  0  2  0  0  0  0  0  0
  190.6970  176.2520  134.5940 C   0  0  0  0  0  1  0  0  0  0  0  0
  184.9210  179.0050  141.2290 C   0  0  2  0  0  3  0  0  0  0  0  0
  183.7340  178.2930  141.8530 C   0  0  0  0  0  1  0  0  0  0  0  0
  184.9720  178.6900  139.4380 S   0  0  0  0  0  0  0  0  0  0  0  0
  183.3300  179.4240  139.1760 C   0  0  1  0  0  3  0  0  0  0  0  0
  183.4770  180.7470  138.8060 F   0  0  0  0  0  0  0  0  0  0  0  0
  182.5880  178.6690  138.0720 C   0  0  0  0  0  2  0  0  0  0  0  0
  182.4360  177.2290  138.3330 N   0  0  0  0  0  0  0  0  0  0  0  0
  180.7110  177.0740  140.0480 C   0  0  0  0  0  2  0  0  0  0  0  0
  181.0370  176.8850  138.5770 C   0  0  0  0  0  3  0  0  0  0  0  0
  180.9600  175.6860  139.5050 C   0  0  0  0  0  2  0  0  0  0  0  0
  183.0370  176.3030  136.9820 S   0  0  0  0  0  0  0  0  0  0  0  0
  181.9480  175.4250  136.4280 O   0  0  0  0  0  0  0  0  0  0  0  0
  183.5200  177.2330  135.9020 O   0  0  0  0  0  0  0  0  0  0  0  0
  184.3940  175.2800  137.5210 C   0  0  1  0  0  3  0  0  0  0  0  0
  186.7990  174.7340  137.0390 C   0  0  0  0  0  3  0  0  0  0  0  0
  185.2720  172.9840  137.7350 C   0  0  0  0  0  2  0  0  0  0  0  0
  186.5800  173.5070  137.3780 N   0  0  0  0  0  0  0  0  0  0  0  0
  184.1380  173.8260  137.1580 C   0  0  0  0  0  2  0  0  0  0  0  0
  185.6900  175.7410  136.8630 C   0  0  0  0  0  2  0  0  0  0  0  0
  1 14  1  0  0  0  0
  2  7  1  0  0  0  0
  3 13  2  0  0  0  0
  3 12  1  0  0  0  0
  4 11  2  0  0  0  0
  5  9  1  0  0  0  0
  6  2  1  0  0  0  0
  8  5  1  0  0  0  0
  8 10  1  0  0  0  0
  9  2  2  0  0  0  0
 10  6  2  0  0  0  0
 11 12  1  0  0  0  0
 12  8  2  0  0  0  0
 13 16  1  0  0  0  0
 14  3  1  0  0  0  0
 15 14  2  0  0  0  0
 15  4  1  0  0  0  0
 16  5  2  0  0  0  0
 17 20  1  0  0  0  0
 18 22  1  0  0  0  0
 18 17  2  0  0  0  0
 19 21  1  0  0  0  0
 20 21  2  0  0  0  0
 21  1  1  0  0  0  0
 22 19  2  0  0  0  0
 23 18  1  0  0  0  0
 24 23  1  0  0  0  0
 25 26  1  1  0  0  0
 25  4  1  0  0  0  0
 27 25  1  0  0  0  0
 28 29  1  6  0  0  0
 28 27  1  0  0  0  0
 30 31  1  0  0  0  0
 30 28  1  0  0  0  0
 31 33  1  0  0  0  0
 33 34  1  0  0  0  0
 33 32  1  0  0  0  0
 34 32  1  0  0  0  0
 35 31  1  0  0  0  0
 36 35  2  0  0  0  0
 37 35  2  0  0  0  0
 38 35  1  6  0  0  0
 39 41  2  0  0  0  0
 41 40  1  0  0  0  0
 42 38  1  0  0  0  0
 42 40  1  0  0  0  0
 43 39  1  0  0  0  0
 43 38  1  0  0  0  0
M  END
>  <MODEL>
2

>  <REMARK>
 VINA RESULT:      -9.1      2.815      5.958
  Name = 
  10 active torsions:
  status: ('A' for Active; 'I' for Inactive)
    1  A    between atoms: N_1  and  C_35
    2  A    between atoms: C_2  and  S_6
    3  A    between atoms: C_2  and  C_13
    4  A    between atoms: C_3  and  N_4
    5  A    between atoms: C_3  and  C_12
    6  A    between atoms: N_4  and  S_14
    7  A    between atoms: N_4  and  C_15
    8  A    between atoms: S_6  and  C_12
    9  A    between atoms: C_11  and  S_14
   10  A    between atoms: C_19  and  C_25
                            x       y       z     vdW  Elec       q    Type
                         _______ _______ _______ _____ _____    ______ ____

>  <TORSDO>
F 10

$$$$
=
 OpenBabel10262422283D

 43 48  0  0  1  0  0  0  0  0999 V2000
  185.6310  178.2780  142.8370 N   0  0  0  0  0  2  0  0  0  0  0  0
  191.3150  176.5860  147.2890 C   0  0  0  0  0  0  0  0  0  0  0  0
  187.7520  177.6570  143.9000 C   0  0  0  0  0  0  0  0  0  0  0  0
  188.9180  177.3890  141.4170 C   0  0  0  0  0  0  0  0  0  0  0  0
  189.2390  177.1890  146.1990 C   0  0  0  0  0  0  0  0  0  0  0  0
  191.9320  176.4450  146.0430 C   0  0  0  0  0  3  0  0  0  0  0  0
  192.0220  176.3640  148.4230 F   0  0  0  0  0  0  0  0  0  0  0  0
  189.8570  177.0480  144.9360 C   0  0  0  0  0  0  0  0  0  0  0  0
  189.9700  176.9590  147.3680 C   0  0  0  0  0  3  0  0  0  0  0  0
  191.2070  176.6730  144.8700 C   0  0  0  0  0  3  0  0  0  0  0  0
  189.6550  177.1590  142.5380 N   0  0  0  0  0  0  0  0  0  0  0  0
  189.1040  177.2840  143.7750 C   0  0  0  0  0  0  0  0  0  0  0  0
  187.1870  177.7860  145.1330 N   0  0  0  0  0  0  0  0  0  0  0  0
  187.0100  177.8930  142.7360 C   0  0  0  0  0  0  0  0  0  0  0  0
  187.6130  177.7530  141.5250 N   0  0  0  0  0  0  0  0  0  0  0  0
  187.8960  177.5620  146.2710 C   0  0  0  0  0  3  0  0  0  0  0  0
  184.4080  179.3090  139.4710 C   0  0  0  0  0  3  0  0  0  0  0  0
  183.0230  179.1620  139.6100 C   0  0  0  0  0  0  0  0  0  0  0  0
  183.3380  178.4190  141.8920 C   0  0  0  0  0  3  0  0  0  0  0  0
  185.2540  179.0150  140.5440 C   0  0  0  0  0  3  0  0  0  0  0  0
  184.7270  178.5700  141.7620 C   0  0  0  0  0  0  0  0  0  0  0  0
  182.4900  178.7120  140.8210 C   0  0  0  0  0  3  0  0  0  0  0  0
  182.1230  179.4590  138.4610 C   0  0  0  0  0  2  0  0  0  0  0  0
  182.2290  178.3650  137.4160 C   0  0  0  0  0  1  0  0  0  0  0  0
  189.5330  177.2600  140.0640 C   0  0  2  0  0  3  0  0  0  0  0  0
  191.0470  177.2240  140.1680 C   0  0  0  0  0  1  0  0  0  0  0  0
  189.0080  178.6380  138.9990 S   0  0  0  0  0  0  0  0  0  0  0  0
  188.0220  177.5490  137.9300 C   0  0  1  0  0  3  0  0  0  0  0  0
  188.1370  177.9710  136.6200 F   0  0  0  0  0  0  0  0  0  0  0  0
  188.5230  176.1080  138.0440 C   0  0  0  0  0  2  0  0  0  0  0  0
  189.1060  175.5800  136.8000 N   0  0  0  0  0  0  0  0  0  0  0  0
  191.4490  176.2440  136.6900 C   0  0  0  0  0  2  0  0  0  0  0  0
  190.4780  175.1230  137.0160 C   0  0  0  0  0  3  0  0  0  0  0  0
  191.2300  175.1260  135.6980 C   0  0  0  0  0  2  0  0  0  0  0  0
  188.1420  174.2600  136.1920 S   0  0  0  0  0  0  0  0  0  0  0  0
  187.9820  174.3750  134.7010 O   0  0  0  0  0  0  0  0  0  0  0  0
  188.8090  172.9510  136.5170 O   0  0  0  0  0  0  0  0  0  0  0  0
  186.5310  174.3000  136.9570 C   0  0  1  0  0  3  0  0  0  0  0  0
  184.6370  172.8270  137.7030 C   0  0  0  0  0  3  0  0  0  0  0  0
  184.1770  175.0060  136.7420 C   0  0  0  0  0  2  0  0  0  0  0  0
  183.7990  173.7570  137.3820 N   0  0  0  0  0  0  0  0  0  0  0  0
  185.5070  174.8950  136.0040 C   0  0  0  0  0  2  0  0  0  0  0  0
  186.1000  172.8890  137.3400 C   0  0  0  0  0  2  0  0  0  0  0  0
  2  9  1  0  0  0  0
  2  7  1  0  0  0  0
  3 13  1  0  0  0  0
  4 15  1  0  0  0  0
  4 11  2  0  0  0  0
  5 16  1  0  0  0  0
  5  9  2  0  0  0  0
  6  2  2  0  0  0  0
  8  5  1  0  0  0  0
 10  8  2  0  0  0  0
 10  6  1  0  0  0  0
 11 12  1  0  0  0  0
 12  3  2  0  0  0  0
 12  8  1  0  0  0  0
 13 16  2  0  0  0  0
 14  1  1  0  0  0  0
 14  3  1  0  0  0  0
 15 14  2  0  0  0  0
 17 18  2  0  0  0  0
 17 20  1  0  0  0  0
 18 22  1  0  0  0  0
 20 21  2  0  0  0  0
 21 19  1  0  0  0  0
 21  1  1  0  0  0  0
 22 19  2  0  0  0  0
 23 18  1  0  0  0  0
 24 23  1  0  0  0  0
 25 26  1  1  0  0  0
 25  4  1  0  0  0  0
 27 25  1  0  0  0  0
 28 29  1  6  0  0  0
 28 30  1  0  0  0  0
 28 27  1  0  0  0  0
 31 33  1  0  0  0  0
 31 30  1  0  0  0  0
 32 33  1  0  0  0  0
 34 32  1  0  0  0  0
 34 33  1  0  0  0  0
 35 37  2  0  0  0  0
 35 31  1  0  0  0  0
 36 35  2  0  0  0  0
 38 35  1  6  0  0  0
 38 43  1  0  0  0  0
 40 41  1  0  0  0  0
 41 39  2  0  0  0  0
 42 40  1  0  0  0  0
 42 38  1  0  0  0  0
 43 39  1  0  0  0  0
M  END
>  <MODEL>
3

>  <REMARK>
 VINA RESULT:      -9.0      1.178      3.521
  Name = 
  10 active torsions:
  status: ('A' for Active; 'I' for Inactive)
    1  A    between atoms: N_1  and  C_35
    2  A    between atoms: C_2  and  S_6
    3  A    between atoms: C_2  and  C_13
    4  A    between atoms: C_3  and  N_4
    5  A    between atoms: C_3  and  C_12
    6  A    between atoms: N_4  and  S_14
    7  A    between atoms: N_4  and  C_15
    8  A    between atoms: S_6  and  C_12
    9  A    between atoms: C_11  and  S_14
   10  A    between atoms: C_19  and  C_25
                            x       y       z     vdW  Elec       q    Type
                         _______ _______ _______ _____ _____    ______ ____

>  <TORSDO>
F 10

$$$$
=
 OpenBabel10262422283D

 43 48  0  0  1  0  0  0  0  0999 V2000
  184.6140  178.2770  143.9770 N   0  0  0  0  0  2  0  0  0  0  0  0
  191.1960  176.8110  147.0640 C   0  0  0  0  0  0  0  0  0  0  0  0
  186.9580  177.8390  144.5520 C   0  0  0  0  0  0  0  0  0  0  0  0
  187.6700  178.1820  141.9100 C   0  0  0  0  0  0  0  0  0  0  0  0
  188.8940  177.2420  146.4530 C   0  0  0  0  0  0  0  0  0  0  0  0
  191.5850  176.9800  145.7320 C   0  0  0  0  0  3  0  0  0  0  0  0
  192.1230  176.5200  148.0080 F   0  0  0  0  0  0  0  0  0  0  0  0
  189.2800  177.4150  145.1050 C   0  0  0  0  0  0  0  0  0  0  0  0
  189.8510  176.9420  147.4250 C   0  0  0  0  0  3  0  0  0  0  0  0
  190.6320  177.2810  144.7550 C   0  0  0  0  0  3  0  0  0  0  0  0
  188.6250  177.8900  142.8350 N   0  0  0  0  0  0  0  0  0  0  0  0
  188.3010  177.7160  144.1440 C   0  0  0  0  0  0  0  0  0  0  0  0
  186.6200  177.6670  145.8590 N   0  0  0  0  0  0  0  0  0  0  0  0
  185.9900  178.1430  143.5870 C   0  0  0  0  0  0  0  0  0  0  0  0
  186.3720  178.3060  142.2920 N   0  0  0  0  0  0  0  0  0  0  0  0
  187.5500  177.3750  146.8070 C   0  0  0  0  0  3  0  0  0  0  0  0
  181.2140  179.3990  142.9420 C   0  0  0  0  0  3  0  0  0  0  0  0
  181.2670  179.2340  141.5530 C   0  0  0  0  0  0  0  0  0  0  0  0
  183.5450  178.4360  141.7410 C   0  0  0  0  0  3  0  0  0  0  0  0
  182.3250  179.0770  143.7270 C   0  0  0  0  0  3  0  0  0  0  0  0
  183.4970  178.5930  143.1340 C   0  0  0  0  0  0  0  0  0  0  0  0
  182.4350  178.7560  140.9530 C   0  0  0  0  0  3  0  0  0  0  0  0
  180.0890  179.5920  140.7150 C   0  0  0  0  0  2  0  0  0  0  0  0
  179.5950  178.3730  139.9580 C   0  0  0  0  0  1  0  0  0  0  0  0
  188.0350  178.3810  140.4780 C   0  0  2  0  0  3  0  0  0  0  0  0
  186.8020  178.3000  139.5970 C   0  0  0  0  0  1  0  0  0  0  0  0
  189.2590  177.1380  139.9620 S   0  0  0  0  0  0  0  0  0  0  0  0
  189.0040  177.4950  138.1980 C   0  0  1  0  0  3  0  0  0  0  0  0
  189.6510  178.6720  137.8740 F   0  0  0  0  0  0  0  0  0  0  0  0
  189.5660  176.3570  137.3460 C   0  0  0  0  0  2  0  0  0  0  0  0
  188.5500  175.6480  136.5520 N   0  0  0  0  0  0  0  0  0  0  0  0
  187.3670  177.2510  135.1480 C   0  0  0  0  0  2  0  0  0  0  0  0
  188.4610  176.1990  135.2010 C   0  0  0  0  0  3  0  0  0  0  0  0
  187.1070  175.8660  134.6020 C   0  0  0  0  0  2  0  0  0  0  0  0
  188.9290  173.9480  136.4630 S   0  0  0  0  0  0  0  0  0  0  0  0
  189.4290  173.5960  135.0890 O   0  0  0  0  0  0  0  0  0  0  0  0
  189.9900  173.6100  137.4760 O   0  0  0  0  0  0  0  0  0  0  0  0
  187.4640  172.9940  136.8130 C   0  0  1  0  0  3  0  0  0  0  0  0
  185.6110  171.7010  135.7130 C   0  0  0  0  0  3  0  0  0  0  0  0
  185.1590  173.0250  137.6950 C   0  0  0  0  0  2  0  0  0  0  0  0
  184.8000  172.0920  136.6400 N   0  0  0  0  0  0  0  0  0  0  0  0
  186.3480  173.9000  137.3070 C   0  0  0  0  0  2  0  0  0  0  0  0
  187.0010  172.2670  135.5560 C   0  0  0  0  0  2  0  0  0  0  0  0
  2  9  1  0  0  0  0
  2  7  1  0  0  0  0
  3 13  1  0  0  0  0
  4 15  1  0  0  0  0
  4 11  2  0  0  0  0
  5 16  1  0  0  0  0
  5  9  2  0  0  0  0
  6  2  2  0  0  0  0
  8  5  1  0  0  0  0
 10  8  2  0  0  0  0
 10  6  1  0  0  0  0
 11 12  1  0  0  0  0
 12  3  2  0  0  0  0
 12  8  1  0  0  0  0
 13 16  2  0  0  0  0
 14  1  1  0  0  0  0
 14  3  1  0  0  0  0
 15 14  2  0  0  0  0
 17 20  1  0  0  0  0
 18 17  2  0  0  0  0
 19 21  1  0  0  0  0
 21 20  2  0  0  0  0
 21  1  1  0  0  0  0
 22 18  1  0  0  0  0
 22 19  2  0  0  0  0
 23 18  1  0  0  0  0
 24 23  1  0  0  0  0
 25 26  1  6  0  0  0
 25  4  1  0  0  0  0
 27 25  1  0  0  0  0
 28 29  1  6  0  0  0
 28 27  1  0  0  0  0
 30 28  1  0  0  0  0
 31 30  1  0  0  0  0
 32 33  1  0  0  0  0
 33 31  1  0  0  0  0
 34 32  1  0  0  0  0
 34 33  1  0  0  0  0
 35 31  1  0  0  0  0
 35 37  2  0  0  0  0
 36 35  2  0  0  0  0
 38 35  1  6  0  0  0
 38 42  1  0  0  0  0
 39 41  2  0  0  0  0
 41 40  1  0  0  0  0
 42 40  1  0  0  0  0
 43 39  1  0  0  0  0
 43 38  1  0  0  0  0
M  END
>  <MODEL>
4

>  <REMARK>
 VINA RESULT:      -8.9      1.952      3.395
  Name = 
  10 active torsions:
  status: ('A' for Active; 'I' for Inactive)
    1  A    between atoms: N_1  and  C_35
    2  A    between atoms: C_2  and  S_6
    3  A    between atoms: C_2  and  C_13
    4  A    between atoms: C_3  and  N_4
    5  A    between atoms: C_3  and  C_12
    6  A    between atoms: N_4  and  S_14
    7  A    between atoms: N_4  and  C_15
    8  A    between atoms: S_6  and  C_12
    9  A    between atoms: C_11  and  S_14
   10  A    between atoms: C_19  and  C_25
                            x       y       z     vdW  Elec       q    Type
                         _______ _______ _______ _____ _____    ______ ____

>  <TORSDO>
F 10

$$$$
=
 OpenBabel10262422283D

 43 48  0  0  1  0  0  0  0  0999 V2000
  190.3470  176.1430  137.2220 N   0  0  0  0  0  2  0  0  0  0  0  0
  183.9700  179.2700  139.3550 C   0  0  0  0  0  0  0  0  0  0  0  0
  188.4410  177.1850  138.3610 C   0  0  0  0  0  0  0  0  0  0  0  0
  189.8340  177.1330  140.7390 C   0  0  0  0  0  0  0  0  0  0  0  0
  185.8710  178.2360  138.2710 C   0  0  0  0  0  0  0  0  0  0  0  0
  184.6540  179.2580  140.5740 C   0  0  0  0  0  3  0  0  0  0  0  0
  182.7160  179.7790  139.2880 F   0  0  0  0  0  0  0  0  0  0  0  0
  186.5680  178.2200  139.5000 C   0  0  0  0  0  0  0  0  0  0  0  0
  184.5780  178.7610  138.2030 C   0  0  0  0  0  3  0  0  0  0  0  0
  185.9480  178.7340  140.6480 C   0  0  0  0  0  3  0  0  0  0  0  0
  188.5760  177.6510  140.7050 N   0  0  0  0  0  0  0  0  0  0  0  0
  187.8670  177.6880  139.5450 C   0  0  0  0  0  0  0  0  0  0  0  0
  187.7420  177.2160  137.1930 N   0  0  0  0  0  0  0  0  0  0  0  0
  189.7380  176.6600  138.4150 C   0  0  0  0  0  0  0  0  0  0  0  0
  190.4000  176.6470  139.6030 N   0  0  0  0  0  0  0  0  0  0  0  0
  186.4840  177.7260  137.1250 C   0  0  0  0  0  3  0  0  0  0  0  0
  193.0740  173.6070  137.0740 C   0  0  0  0  0  3  0  0  0  0  0  0
  194.1980  174.4060  136.8370 C   0  0  0  0  0  0  0  0  0  0  0  0
  192.7910  176.3760  136.8440 C   0  0  0  0  0  3  0  0  0  0  0  0
  191.8120  174.1950  137.2000 C   0  0  0  0  0  3  0  0  0  0  0  0
  191.6600  175.5820  137.0870 C   0  0  0  0  0  0  0  0  0  0  0  0
  194.0540  175.7920  136.7170 C   0  0  0  0  0  3  0  0  0  0  0  0
  195.5410  173.7790  136.6860 C   0  0  0  0  0  2  0  0  0  0  0  0
  195.7380  172.7050  137.7380 C   0  0  0  0  0  1  0  0  0  0  0  0
  190.6080  177.1040  142.0130 C   0  0  2  0  0  3  0  0  0  0  0  0
  190.2380  175.8830  142.8350 C   0  0  0  0  0  1  0  0  0  0  0  0
  190.3030  178.6210  142.9700 S   0  0  0  0  0  0  0  0  0  0  0  0
  191.3490  178.0650  144.3480 C   0  0  1  0  0  3  0  0  0  0  0  0
  192.5460  178.7560  144.3180 F   0  0  0  0  0  0  0  0  0  0  0  0
  190.6460  178.3280  145.6800 C   0  0  0  0  0  2  0  0  0  0  0  0
  190.3000  177.1070  146.4230 N   0  0  0  0  0  0  0  0  0  0  0  0
  192.2850  175.7210  146.7140 C   0  0  0  0  0  2  0  0  0  0  0  0
  191.3640  176.7430  147.3580 C   0  0  0  0  0  3  0  0  0  0  0  0
  191.2470  175.2720  147.7170 C   0  0  0  0  0  2  0  0  0  0  0  0
  188.8090  177.3320  147.2990 S   0  0  0  0  0  0  0  0  0  0  0  0
  188.2970  176.0110  147.8050 O   0  0  0  0  0  0  0  0  0  0  0  0
  189.0380  178.2530  148.4660 O   0  0  0  0  0  0  0  0  0  0  0  0
  187.5890  178.0540  146.2170 C   0  0  1  0  0  3  0  0  0  0  0  0
  185.1500  178.6390  146.0650 C   0  0  0  0  0  3  0  0  0  0  0  0
  186.3300  177.8280  144.1070 C   0  0  0  0  0  2  0  0  0  0  0  0
  185.1720  178.3640  144.8020 N   0  0  0  0  0  0  0  0  0  0  0  0
  187.2930  177.1190  145.0550 C   0  0  0  0  0  2  0  0  0  0  0  0
  186.3010  178.3220  146.9870 C   0  0  0  0  0  2  0  0  0  0  0  0
  1 14  1  0  0  0  0
  2  6  1  0  0  0  0
  3 14  1  0  0  0  0
  3 12  1  0  0  0  0
  4 25  1  0  0  0  0
  5  8  1  0  0  0  0
  6 10  2  0  0  0  0
  7  2  1  0  0  0  0
  8 12  2  0  0  0  0
  8 10  1  0  0  0  0
  9  5  1  0  0  0  0
  9  2  2  0  0  0  0
 11  4  2  0  0  0  0
 12 11  1  0  0  0  0
 13  3  2  0  0  0  0
 14 15  2  0  0  0  0
 15  4  1  0  0  0  0
 16 13  1  0  0  0  0
 16  5  2  0  0  0  0
 17 20  1  0  0  0  0
 18 17  2  0  0  0  0
 19 21  1  0  0  0  0
 21 20  2  0  0  0  0
 21  1  1  0  0  0  0
 22 18  1  0  0  0  0
 22 19  2  0  0  0  0
 23 18  1  0  0  0  0
 23 24  1  0  0  0  0
 25 26  1  1  0  0  0
 25 27  1  0  0  0  0
 27 28  1  0  0  0  0
 28 29  1  1  0  0  0
 28 30  1  0  0  0  0
 30 31  1  0  0  0  0
 31 35  1  0  0  0  0
 31 33  1  0  0  0  0
 32 33  1  0  0  0  0
 32 34  1  0  0  0  0
 33 34  1  0  0  0  0
 35 36  2  0  0  0  0
 35 37  2  0  0  0  0
 38 43  1  0  0  0  0
 38 35  1  1  0  0  0
 39 43  1  0  0  0  0
 40 41  1  0  0  0  0
 40 42  1  0  0  0  0
 41 39  2  0  0  0  0
 42 38  1  0  0  0  0
M  END
>  <MODEL>
5

>  <REMARK>
 VINA RESULT:      -8.2      3.548      9.854
  Name = 
  10 active torsions:
  status: ('A' for Active; 'I' for Inactive)
    1  A    between atoms: N_1  and  C_35
    2  A    between atoms: C_2  and  S_6
    3  A    between atoms: C_2  and  C_13
    4  A    between atoms: C_3  and  N_4
    5  A    between atoms: C_3  and  C_12
    6  A    between atoms: N_4  and  S_14
    7  A    between atoms: N_4  and  C_15
    8  A    between atoms: S_6  and  C_12
    9  A    between atoms: C_11  and  S_14
   10  A    between atoms: C_19  and  C_25
                            x       y       z     vdW  Elec       q    Type
                         _______ _______ _______ _____ _____    ______ ____

>  <TORSDO>
F 10

$$$$
=
 OpenBabel10262422283D

 43 48  0  0  1  0  0  0  0  0999 V2000
  189.6900  177.1730  140.7990 N   0  0  0  0  0  2  0  0  0  0  0  0
  187.9600  177.6250  147.9960 C   0  0  0  0  0  0  0  0  0  0  0  0
  188.7040  177.5030  143.0210 C   0  0  0  0  0  0  0  0  0  0  0  0
  186.4110  178.4940  141.8550 C   0  0  0  0  0  0  0  0  0  0  0  0
  188.8980  177.3210  145.7860 C   0  0  0  0  0  0  0  0  0  0  0  0
  186.7850  178.1290  147.4320 C   0  0  0  0  0  3  0  0  0  0  0  0
  188.0760  177.5260  149.3430 F   0  0  0  0  0  0  0  0  0  0  0  0
  187.7130  177.8300  145.2090 C   0  0  0  0  0  0  0  0  0  0  0  0
  189.0160  177.2200  147.1740 C   0  0  0  0  0  3  0  0  0  0  0  0
  186.6610  178.2330  146.0440 C   0  0  0  0  0  3  0  0  0  0  0  0
  186.4960  178.4070  143.2110 N   0  0  0  0  0  0  0  0  0  0  0  0
  187.6160  177.9220  143.8110 C   0  0  0  0  0  0  0  0  0  0  0  0
  189.8320  177.0160  143.6090 N   0  0  0  0  0  0  0  0  0  0  0  0
  188.5970  177.5970  141.6280 C   0  0  0  0  0  0  0  0  0  0  0  0
  187.4520  178.0900  141.0820 N   0  0  0  0  0  0  0  0  0  0  0  0
  189.9490  176.9180  144.9600 C   0  0  0  0  0  3  0  0  0  0  0  0
  190.5490  176.1440  137.3220 C   0  0  0  0  0  3  0  0  0  0  0  0
  189.9230  177.1400  136.5640 C   0  0  0  0  0  0  0  0  0  0  0  0
  189.1230  178.1770  138.6000 C   0  0  0  0  0  3  0  0  0  0  0  0
  190.4650  176.1700  138.7170 C   0  0  0  0  0  3  0  0  0  0  0  0
  189.7530  177.1850  139.3660 C   0  0  0  0  0  0  0  0  0  0  0  0
  189.2060  178.1540  137.2050 C   0  0  0  0  0  3  0  0  0  0  0  0
  189.9990  177.1030  135.0760 C   0  0  0  0  0  2  0  0  0  0  0  0
  190.3340  175.7020  134.6040 C   0  0  0  0  0  1  0  0  0  0  0  0
  185.1750  179.0170  141.2050 C   0  0  2  0  0  3  0  0  0  0  0  0
  183.9420  178.5810  141.9760 C   0  0  0  0  0  1  0  0  0  0  0  0
  185.0760  178.4390  139.4830 S   0  0  0  0  0  0  0  0  0  0  0  0
  183.5010  179.2980  139.1950 C   0  0  1  0  0  3  0  0  0  0  0  0
  183.7570  180.5850  138.7620 F   0  0  0  0  0  0  0  0  0  0  0  0
  182.6870  178.5600  138.1320 C   0  0  0  0  0  2  0  0  0  0  0  0
  181.3630  178.1160  138.5950 N   0  0  0  0  0  0  0  0  0  0  0  0
  181.5940  175.7740  139.2320 C   0  0  0  0  0  2  0  0  0  0  0  0
  181.4840  177.2040  139.7320 C   0  0  0  0  0  3  0  0  0  0  0  0
  180.2800  176.2820  139.7770 C   0  0  0  0  0  2  0  0  0  0  0  0
  180.3890  179.4890  139.0520 S   0  0  0  0  0  0  0  0  0  0  0  0
  178.9310  179.1180  139.0480 O   0  0  0  0  0  0  0  0  0  0  0  0
  180.7770  179.9510  140.4310 O   0  0  0  0  0  0  0  0  0  0  0  0
  180.6570  180.8180  137.8940 C   0  0  1  0  0  3  0  0  0  0  0  0
  179.8390  183.1060  137.2560 C   0  0  0  0  0  3  0  0  0  0  0  0
  180.5330  181.5400  135.5390 C   0  0  0  0  0  2  0  0  0  0  0  0
  180.0770  182.8360  136.0150 N   0  0  0  0  0  0  0  0  0  0  0  0
  180.1830  180.4150  136.5070 C   0  0  0  0  0  2  0  0  0  0  0  0
  179.8990  182.0620  138.3430 C   0  0  0  0  0  2  0  0  0  0  0  0
  1 14  1  0  0  0  0
  2  7  1  0  0  0  0
  3 13  2  0  0  0  0
  3 12  1  0  0  0  0
  4 11  2  0  0  0  0
  5  9  1  0  0  0  0
  6  2  1  0  0  0  0
  8  5  1  0  0  0  0
  8 10  1  0  0  0  0
  9  2  2  0  0  0  0
 10  6  2  0  0  0  0
 11 12  1  0  0  0  0
 12  8  2  0  0  0  0
 13 16  1  0  0  0  0
 14  3  1  0  0  0  0
 15 14  2  0  0  0  0
 15  4  1  0  0  0  0
 16  5  2  0  0  0  0
 17 20  1  0  0  0  0
 18 22  1  0  0  0  0
 18 17  2  0  0  0  0
 19 21  1  0  0  0  0
 20 21  2  0  0  0  0
 21  1  1  0  0  0  0
 22 19  2  0  0  0  0
 23 18  1  0  0  0  0
 24 23  1  0  0  0  0
 25  4  1  0  0  0  0
 25 26  1  1  0  0  0
 27 25  1  0  0  0  0
 28 29  1  6  0  0  0
 28 27  1  0  0  0  0
 30 31  1  0  0  0  0
 30 28  1  0  0  0  0
 31 35  1  0  0  0  0
 31 33  1  0  0  0  0
 32 33  1  0  0  0  0
 32 34  1  0  0  0  0
 33 34  1  0  0  0  0
 35 37  2  0  0  0  0
 36 35  2  0  0  0  0
 38 43  1  0  0  0  0
 38 35  1  1  0  0  0
 39 43  1  0  0  0  0
 40 41  1  0  0  0  0
 40 42  1  0  0  0  0
 41 39  2  0  0  0  0
 42 38  1  0  0  0  0
M  END
>  <MODEL>
6

>  <REMARK>
 VINA RESULT:      -8.1      3.896      7.857
  Name = 
  10 active torsions:
  status: ('A' for Active; 'I' for Inactive)
    1  A    between atoms: N_1  and  C_35
    2  A    between atoms: C_2  and  S_6
    3  A    between atoms: C_2  and  C_13
    4  A    between atoms: C_3  and  N_4
    5  A    between atoms: C_3  and  C_12
    6  A    between atoms: N_4  and  S_14
    7  A    between atoms: N_4  and  C_15
    8  A    between atoms: S_6  and  C_12
    9  A    between atoms: C_11  and  S_14
   10  A    between atoms: C_19  and  C_25
                            x       y       z     vdW  Elec       q    Type
                         _______ _______ _______ _____ _____    ______ ____

>  <TORSDO>
F 10

$$$$
=
 OpenBabel10262422283D

 43 48  0  0  1  0  0  0  0  0999 V2000
  189.6710  177.0540  140.8800 N   0  0  0  0  0  2  0  0  0  0  0  0
  187.9020  177.8240  148.0400 C   0  0  0  0  0  0  0  0  0  0  0  0
  188.6720  177.4780  143.0790 C   0  0  0  0  0  0  0  0  0  0  0  0
  186.3760  178.3960  141.8580 C   0  0  0  0  0  0  0  0  0  0  0  0
  188.8540  177.4250  145.8510 C   0  0  0  0  0  0  0  0  0  0  0  0
  186.7260  178.2930  147.4480 C   0  0  0  0  0  3  0  0  0  0  0  0
  188.0120  177.7880  149.3900 F   0  0  0  0  0  0  0  0  0  0  0  0
  187.6670  177.8980  145.2450 C   0  0  0  0  0  0  0  0  0  0  0  0
  188.9650  177.3890  147.2430 C   0  0  0  0  0  3  0  0  0  0  0  0
  186.6080  178.3310  146.0560 C   0  0  0  0  0  3  0  0  0  0  0  0
  186.4560  178.3730  143.2170 N   0  0  0  0  0  0  0  0  0  0  0  0
  187.5770  177.9250  143.8440 C   0  0  0  0  0  0  0  0  0  0  0  0
  189.8000  177.0280  143.6940 N   0  0  0  0  0  0  0  0  0  0  0  0
  188.5700  177.5060  141.6830 C   0  0  0  0  0  0  0  0  0  0  0  0
  187.4250  177.9650  141.1100 N   0  0  0  0  0  0  0  0  0  0  0  0
  189.9110  176.9930  145.0490 C   0  0  0  0  0  3  0  0  0  0  0  0
  191.0830  176.6530  137.4550 C   0  0  0  0  0  3  0  0  0  0  0  0
  189.9590  176.8780  136.6510 C   0  0  0  0  0  0  0  0  0  0  0  0
  188.6170  177.2190  138.6370 C   0  0  0  0  0  3  0  0  0  0  0  0
  190.9720  176.7160  138.8470 C   0  0  0  0  0  3  0  0  0  0  0  0
  189.7410  177.0000  139.4480 C   0  0  0  0  0  0  0  0  0  0  0  0
  188.7250  177.1570  137.2450 C   0  0  0  0  0  3  0  0  0  0  0  0
  190.0740  176.7950  135.1690 C   0  0  0  0  0  2  0  0  0  0  0  0
  188.8930  176.0350  134.5950 C   0  0  0  0  0  1  0  0  0  0  0  0
  185.1400  178.8790  141.1790 C   0  0  2  0  0  3  0  0  0  0  0  0
  183.9270  178.1110  141.6720 C   0  0  0  0  0  1  0  0  0  0  0  0
  185.3040  178.7060  139.3760 S   0  0  0  0  0  0  0  0  0  0  0  0
  183.5050  178.7520  139.1220 C   0  0  1  0  0  3  0  0  0  0  0  0
  183.0590  180.0530  139.2630 F   0  0  0  0  0  0  0  0  0  0  0  0
  183.1590  178.2480  137.7200 C   0  0  0  0  0  2  0  0  0  0  0  0
  181.7280  177.9700  137.5230 N   0  0  0  0  0  0  0  0  0  0  0  0
  180.8580  179.9010  136.3150 C   0  0  0  0  0  2  0  0  0  0  0  0
  181.2770  178.4450  136.2160 C   0  0  0  0  0  3  0  0  0  0  0  0
  179.8070  178.8160  136.2860 C   0  0  0  0  0  2  0  0  0  0  0  0
  181.4180  176.2580  137.6590 S   0  0  0  0  0  0  0  0  0  0  0  0
  180.9740  175.7020  136.3340 O   0  0  0  0  0  0  0  0  0  0  0  0
  182.6710  175.5490  138.0970 O   0  0  0  0  0  0  0  0  0  0  0  0
  180.1370  175.9810  138.8680 C   0  0  1  0  0  3  0  0  0  0  0  0
  179.4380  176.5690  141.2080 C   0  0  0  0  0  3  0  0  0  0  0  0
  179.0290  174.3410  140.3410 C   0  0  0  0  0  2  0  0  0  0  0  0
  178.9320  175.3880  141.3450 N   0  0  0  0  0  0  0  0  0  0  0  0
  180.2080  174.5580  139.3960 C   0  0  0  0  0  2  0  0  0  0  0  0
  180.2940  176.9570  140.0290 C   0  0  0  0  0  2  0  0  0  0  0  0
  1 14  1  0  0  0  0
  2  7  1  0  0  0  0
  3 13  2  0  0  0  0
  3 12  1  0  0  0  0
  4 11  2  0  0  0  0
  5  9  1  0  0  0  0
  6  2  1  0  0  0  0
  8  5  1  0  0  0  0
  8 10  1  0  0  0  0
  9  2  2  0  0  0  0
 10  6  2  0  0  0  0
 11 12  1  0  0  0  0
 12  8  2  0  0  0  0
 13 16  1  0  0  0  0
 14  3  1  0  0  0  0
 15 14  2  0  0  0  0
 15  4  1  0  0  0  0
 16  5  2  0  0  0  0
 17 20  1  0  0  0  0
 18 22  1  0  0  0  0
 18 17  2  0  0  0  0
 19 21  1  0  0  0  0
 20 21  2  0  0  0  0
 21  1  1  0  0  0  0
 22 19  2  0  0  0  0
 23 18  1  0  0  0  0
 24 23  1  0  0  0  0
 25 26  1  1  0  0  0
 25  4  1  0  0  0  0
 27 25  1  0  0  0  0
 28 29  1  6  0  0  0
 28 27  1  0  0  0  0
 30 28  1  0  0  0  0
 31 35  1  0  0  0  0
 31 30  1  0  0  0  0
 33 34  1  0  0  0  0
 33 32  1  0  0  0  0
 33 31  1  0  0  0  0
 34 32  1  0  0  0  0
 35 37  2  0  0  0  0
 36 35  2  0  0  0  0
 38 35  1  6  0  0  0
 38 42  1  0  0  0  0
 38 43  1  0  0  0  0
 39 41  2  0  0  0  0
 40 41  1  0  0  0  0
 42 40  1  0  0  0  0
 43 39  1  0  0  0  0
M  END
>  <MODEL>
7

>  <REMARK>
 VINA RESULT:      -8.0      3.456      7.486
  Name = 
  10 active torsions:
  status: ('A' for Active; 'I' for Inactive)
    1  A    between atoms: N_1  and  C_35
    2  A    between atoms: C_2  and  S_6
    3  A    between atoms: C_2  and  C_13
    4  A    between atoms: C_3  and  N_4
    5  A    between atoms: C_3  and  C_12
    6  A    between atoms: N_4  and  S_14
    7  A    between atoms: N_4  and  C_15
    8  A    between atoms: S_6  and  C_12
    9  A    between atoms: C_11  and  S_14
   10  A    between atoms: C_19  and  C_25
                            x       y       z     vdW  Elec       q    Type
                         _______ _______ _______ _____ _____    ______ ____

>  <TORSDO>
F 10

$$$$
=
 OpenBabel10262422283D

 43 48  0  0  1  0  0  0  0  0999 V2000
  186.8250  177.3440  137.0690 N   0  0  0  0  0  2  0  0  0  0  0  0
  193.9000  175.4500  135.9090 C   0  0  0  0  0  0  0  0  0  0  0  0
  189.2100  176.7770  137.1580 C   0  0  0  0  0  0  0  0  0  0  0  0
  189.2000  177.1650  139.8880 C   0  0  0  0  0  0  0  0  0  0  0  0
  191.5490  176.0210  135.8640 C   0  0  0  0  0  0  0  0  0  0  0  0
  193.9240  175.6380  137.2930 C   0  0  0  0  0  3  0  0  0  0  0  0
  195.0290  175.0800  135.2570 F   0  0  0  0  0  0  0  0  0  0  0  0
  191.5650  176.2130  137.2640 C   0  0  0  0  0  0  0  0  0  0  0  0
  192.7140  175.6400  135.1940 C   0  0  0  0  0  3  0  0  0  0  0  0
  192.7610  176.0190  137.9700 C   0  0  0  0  0  3  0  0  0  0  0  0
  190.3500  176.7930  139.2620 N   0  0  0  0  0  0  0  0  0  0  0  0
  190.3820  176.5960  137.9170 C   0  0  0  0  0  0  0  0  0  0  0  0
  189.2280  176.5830  135.8110 N   0  0  0  0  0  0  0  0  0  0  0  0
  188.0350  177.1560  137.8190 C   0  0  0  0  0  0  0  0  0  0  0  0
  188.0610  177.3400  139.1670 N   0  0  0  0  0  0  0  0  0  0  0  0
  190.3610  176.2120  135.1560 C   0  0  0  0  0  3  0  0  0  0  0  0
  183.1210  177.4830  137.4580 C   0  0  0  0  0  3  0  0  0  0  0  0
  182.9760  178.3960  138.5080 C   0  0  0  0  0  0  0  0  0  0  0  0
  185.3830  178.6270  138.6320 C   0  0  0  0  0  3  0  0  0  0  0  0
  184.3960  177.1480  136.9940 C   0  0  0  0  0  3  0  0  0  0  0  0
  185.5360  177.7170  137.5750 C   0  0  0  0  0  0  0  0  0  0  0  0
  184.1090  178.9650  139.0970 C   0  0  0  0  0  3  0  0  0  0  0  0
  181.6180  178.7410  139.0140 C   0  0  0  0  0  2  0  0  0  0  0  0
  181.5630  178.5750  140.5210 C   0  0  0  0  0  1  0  0  0  0  0  0
  189.1710  177.3690  141.3640 C   0  0  2  0  0  3  0  0  0  0  0  0
  188.3650  178.6070  141.7150 C   0  0  0  0  0  1  0  0  0  0  0  0
  190.8630  177.5160  142.0130 S   0  0  0  0  0  0  0  0  0  0  0  0
  190.4830  176.5000  143.4720 C   0  0  1  0  0  3  0  0  0  0  0  0
  191.5030  175.5890  143.6690 F   0  0  0  0  0  0  0  0  0  0  0  0
  190.3530  177.3890  144.7100 C   0  0  0  0  0  2  0  0  0  0  0  0
  190.3530  176.6450  145.9800 N   0  0  0  0  0  0  0  0  0  0  0  0
  192.4400  175.4850  146.4680 C   0  0  0  0  0  2  0  0  0  0  0  0
  191.6430  176.7630  146.6570 C   0  0  0  0  0  3  0  0  0  0  0  0
  191.7280  175.7410  147.7750 C   0  0  0  0  0  2  0  0  0  0  0  0
  189.0890  177.2350  147.0280 S   0  0  0  0  0  0  0  0  0  0  0  0
  188.4850  176.0990  147.8060 O   0  0  0  0  0  0  0  0  0  0  0  0
  189.6570  178.2450  147.9880 O   0  0  0  0  0  0  0  0  0  0  0  0
  187.8190  178.0130  146.0470 C   0  0  1  0  0  3  0  0  0  0  0  0
  185.5150  179.0040  146.1850 C   0  0  0  0  0  3  0  0  0  0  0  0
  186.1760  177.7340  144.2270 C   0  0  0  0  0  2  0  0  0  0  0  0
  185.2620  178.5610  144.9980 N   0  0  0  0  0  0  0  0  0  0  0  0
  187.1740  176.9980  145.1160 C   0  0  0  0  0  2  0  0  0  0  0  0
  186.7510  178.6110  146.9550 C   0  0  0  0  0  2  0  0  0  0  0  0
  1 21  1  0  0  0  0
  1 14  1  0  0  0  0
  2  6  1  0  0  0  0
  3 14  1  0  0  0  0
  3 12  1  0  0  0  0
  4 25  1  0  0  0  0
  5  8  1  0  0  0  0
  6 10  2  0  0  0  0
  7  2  1  0  0  0  0
  8 12  2  0  0  0  0
  8 10  1  0  0  0  0
  9  5  1  0  0  0  0
  9  2  2  0  0  0  0
 11  4  2  0  0  0  0
 12 11  1  0  0  0  0
 13  3  2  0  0  0  0
 14 15  2  0  0  0  0
 15  4  1  0  0  0  0
 16 13  1  0  0  0  0
 16  5  2  0  0  0  0
 17 18  1  0  0  0  0
 18 23  1  0  0  0  0
 18 22  2  0  0  0  0
 19 22  1  0  0  0  0
 20 17  2  0  0  0  0
 20 21  1  0  0  0  0
 21 19  2  0  0  0  0
 23 24  1  0  0  0  0
 25 26  1  6  0  0  0
 25 27  1  0  0  0  0
 27 28  1  0  0  0  0
 28 29  1  1  0  0  0
 28 30  1  0  0  0  0
 30 31  1  0  0  0  0
 31 33  1  0  0  0  0
 31 35  1  0  0  0  0
 32 33  1  0  0  0  0
 32 34  1  0  0  0  0
 33 34  1  0  0  0  0
 35 36  2  0  0  0  0
 35 37  2  0  0  0  0
 38 43  1  0  0  0  0
 38 35  1  1  0  0  0
 39 43  1  0  0  0  0
 40 41  1  0  0  0  0
 40 42  1  0  0  0  0
 41 39  2  0  0  0  0
 42 38  1  0  0  0  0
M  END
>  <MODEL>
8

>  <REMARK>
 VINA RESULT:      -7.9      3.629      8.589
  Name = 
  10 active torsions:
  status: ('A' for Active; 'I' for Inactive)
    1  A    between atoms: N_1  and  C_35
    2  A    between atoms: C_2  and  S_6
    3  A    between atoms: C_2  and  C_13
    4  A    between atoms: C_3  and  N_4
    5  A    between atoms: C_3  and  C_12
    6  A    between atoms: N_4  and  S_14
    7  A    between atoms: N_4  and  C_15
    8  A    between atoms: S_6  and  C_12
    9  A    between atoms: C_11  and  S_14
   10  A    between atoms: C_19  and  C_25
                            x       y       z     vdW  Elec       q    Type
                         _______ _______ _______ _____ _____    ______ ____

>  <TORSDO>
F 10

$$$$
=
 OpenBabel10262422283D

 43 48  0  0  1  0  0  0  0  0999 V2000
  189.9600  177.0730  140.8780 N   0  0  0  0  0  2  0  0  0  0  0  0
  187.9800  177.7550  147.9930 C   0  0  0  0  0  0  0  0  0  0  0  0
  188.8970  177.4730  143.0530 C   0  0  0  0  0  0  0  0  0  0  0  0
  186.6430  178.4180  141.7760 C   0  0  0  0  0  0  0  0  0  0  0  0
  188.9950  177.3810  145.8270 C   0  0  0  0  0  0  0  0  0  0  0  0
  186.8250  178.2380  147.3720 C   0  0  0  0  0  3  0  0  0  0  0  0
  188.0500  177.7010  149.3450 F   0  0  0  0  0  0  0  0  0  0  0  0
  187.8300  177.8680  145.1930 C   0  0  0  0  0  0  0  0  0  0  0  0
  189.0650  177.3260  147.2210 C   0  0  0  0  0  3  0  0  0  0  0  0
  186.7490  178.2960  145.9780 C   0  0  0  0  0  3  0  0  0  0  0  0
  186.6820  178.3760  143.1360 N   0  0  0  0  0  0  0  0  0  0  0  0
  187.7810  177.9150  143.7900 C   0  0  0  0  0  0  0  0  0  0  0  0
  190.0040  177.0090  143.6950 N   0  0  0  0  0  0  0  0  0  0  0  0
  188.8370  177.5200  141.6540 C   0  0  0  0  0  0  0  0  0  0  0  0
  187.7120  177.9920  141.0530 N   0  0  0  0  0  0  0  0  0  0  0  0
  190.0740  176.9540  145.0520 C   0  0  0  0  0  3  0  0  0  0  0  0
  191.2170  176.1860  137.4840 C   0  0  0  0  0  3  0  0  0  0  0  0
  190.3570  176.9180  136.6580 C   0  0  0  0  0  0  0  0  0  0  0  0
  189.2100  177.7660  138.6140 C   0  0  0  0  0  3  0  0  0  0  0  0
  191.0740  176.2490  138.8730 C   0  0  0  0  0  3  0  0  0  0  0  0
  190.0720  177.0380  139.4490 C   0  0  0  0  0  0  0  0  0  0  0  0
  189.3510  177.7050  137.2250 C   0  0  0  0  0  3  0  0  0  0  0  0
  190.4990  176.8390  135.1770 C   0  0  0  0  0  2  0  0  0  0  0  0
  190.8340  175.4200  134.7590 C   0  0  0  0  0  1  0  0  0  0  0  0
  185.4300  178.9160  141.0670 C   0  0  2  0  0  3  0  0  0  0  0  0
  184.1830  178.2330  141.5990 C   0  0  0  0  0  1  0  0  0  0  0  0
  185.5860  178.6320  139.2770 S   0  0  0  0  0  0  0  0  0  0  0  0
  183.8180  178.9370  138.9880 C   0  0  1  0  0  3  0  0  0  0  0  0
  183.5870  180.3000  138.9760 F   0  0  0  0  0  0  0  0  0  0  0  0
  183.3950  178.3410  137.6450 C   0  0  0  0  0  2  0  0  0  0  0  0
  182.3160  177.3460  137.7470 N   0  0  0  0  0  0  0  0  0  0  0  0
  183.4040  175.1800  138.0050 C   0  0  0  0  0  2  0  0  0  0  0  0
  182.6570  176.2990  138.7090 C   0  0  0  0  0  3  0  0  0  0  0  0
  181.9400  175.0130  138.3400 C   0  0  0  0  0  2  0  0  0  0  0  0
  180.8260  178.1150  138.2290 S   0  0  0  0  0  0  0  0  0  0  0  0
  180.7860  179.5330  137.7270 O   0  0  0  0  0  0  0  0  0  0  0  0
  179.6570  177.3570  137.6630 O   0  0  0  0  0  0  0  0  0  0  0  0
  180.7100  178.1230  140.0080 C   0  0  1  0  0  3  0  0  0  0  0  0
  179.2340  177.4230  141.9170 C   0  0  0  0  0  3  0  0  0  0  0  0
  180.4780  179.5010  142.0410 C   0  0  0  0  0  2  0  0  0  0  0  0
  179.6070  178.4690  142.5780 N   0  0  0  0  0  0  0  0  0  0  0  0
  180.4590  179.5340  140.5160 C   0  0  0  0  0  2  0  0  0  0  0  0
  179.5720  177.2160  140.4620 C   0  0  0  0  0  2  0  0  0  0  0  0
  1 14  1  0  0  0  0
  2  7  1  0  0  0  0
  3 13  2  0  0  0  0
  3 12  1  0  0  0  0
  4 11  2  0  0  0  0
  5  9  1  0  0  0  0
  6  2  1  0  0  0  0
  8  5  1  0  0  0  0
  8 10  1  0  0  0  0
  9  2  2  0  0  0  0
 10  6  2  0  0  0  0
 11 12  1  0  0  0  0
 12  8  2  0  0  0  0
 13 16  1  0  0  0  0
 14  3  1  0  0  0  0
 15 14  2  0  0  0  0
 15  4  1  0  0  0  0
 16  5  2  0  0  0  0
 17 20  1  0  0  0  0
 18 22  1  0  0  0  0
 18 17  2  0  0  0  0
 19 21  1  0  0  0  0
 20 21  2  0  0  0  0
 21  1  1  0  0  0  0
 22 19  2  0  0  0  0
 23 18  1  0  0  0  0
 24 23  1  0  0  0  0
 25 26  1  1  0  0  0
 25  4  1  0  0  0  0
 27 25  1  0  0  0  0
 28 29  1  6  0  0  0
 28 27  1  0  0  0  0
 30 31  1  0  0  0  0
 30 28  1  0  0  0  0
 31 35  1  0  0  0  0
 31 33  1  0  0  0  0
 32 34  1  0  0  0  0
 32 33  1  0  0  0  0
 34 33  1  0  0  0  0
 36 35  2  0  0  0  0
 37 35  2  0  0  0  0
 38 35  1  6  0  0  0
 38 43  1  0  0  0  0
 38 42  1  0  0  0  0
 39 41  2  0  0  0  0
 40 41  1  0  0  0  0
 42 40  1  0  0  0  0
 43 39  1  0  0  0  0
M  END
>  <MODEL>
9

>  <REMARK>
 VINA RESULT:      -7.9      3.529      7.609
  Name = 
  10 active torsions:
  status: ('A' for Active; 'I' for Inactive)
    1  A    between atoms: N_1  and  C_35
    2  A    between atoms: C_2  and  S_6
    3  A    between atoms: C_2  and  C_13
    4  A    between atoms: C_3  and  N_4
    5  A    between atoms: C_3  and  C_12
    6  A    between atoms: N_4  and  S_14
    7  A    between atoms: N_4  and  C_15
    8  A    between atoms: S_6  and  C_12
    9  A    between atoms: C_11  and  S_14
   10  A    between atoms: C_19  and  C_25
                            x       y       z     vdW  Elec       q    Type
                         _______ _______ _______ _____ _____    ______ ____

>  <TORSDO>
F 10

$$$$
