=
 OpenBabel10262423223D

 34 39  0  0  1  0  0  0  0  0999 V2000
  184.7110  178.6870  138.6140 C   0  0  0  0  0  2  0  0  0  0  0  0
  183.5020  178.3190  140.7790 C   0  0  0  0  0  0  0  0  0  0  0  0
  184.4360  178.9820  140.0700 C   0  0  0  0  0  3  0  0  0  0  0  0
  183.1190  176.7890  138.9500 C   0  0  0  0  0  0  0  0  0  0  0  0
  182.4810  175.7980  138.1960 N   0  0  0  0  0  0  0  0  0  0  0  0
  182.7560  177.2020  140.1590 C   0  0  0  0  0  3  0  0  0  0  0  0
  184.2340  176.8550  136.9420 N   0  0  0  0  0  0  0  0  0  0  0  0
  184.1700  177.3800  138.2410 N   0  0  0  0  0  0  0  0  0  0  0  0
  183.1930  175.7980  136.9150 C   0  0  0  0  0  3  0  0  0  0  0  0
  185.4710  176.2050  136.8220 N   0  0  0  0  0  2  0  0  0  0  0  0
  187.5060  177.4360  136.9460 C   0  0  2  0  0  3  0  0  0  0  0  0
  190.8150  176.3110  138.3030 C   0  0  0  0  0  0  0  0  0  0  0  0
  190.5970  176.1090  139.5270 O   0  0  0  0  0  0  0  0  0  0  0  0
  188.3630  176.7440  137.9810 C   0  0  0  0  0  2  0  0  0  0  0  0
  192.2130  176.1910  137.7960 C   0  0  0  0  0  1  0  0  0  0  0  0
  189.7330  176.6460  137.4200 N   0  0  0  0  0  0  0  0  0  0  0  0
  190.0010  176.8190  135.9630 C   0  0  0  0  0  2  0  0  0  0  0  0
  186.3600  177.1040  136.1040 C   0  0  1  0  0  3  0  0  0  0  0  0
  188.7110  177.0980  135.1480 C   0  0  0  0  0  2  0  0  0  0  0  0
  187.6320  176.4410  135.8560 N   0  0  1  0  0  0  0  0  0  0  0  0
  183.2100  178.6500  142.1460 N   0  0  0  0  0  2  0  0  0  0  0  0
  184.5000  178.8140  145.6780 C   0  0  0  0  0  3  0  0  0  0  0  0
  185.3620  178.0520  143.1240 C   0  0  0  0  0  3  0  0  0  0  0  0
  187.9560  177.6840  146.4230 C   0  0  0  0  0  0  0  0  0  0  0  0
  186.6540  178.1880  146.5930 C   0  0  0  0  0  3  0  0  0  0  0  0
  185.7910  178.3100  145.5020 C   0  0  0  0  0  0  0  0  0  0  0  0
  187.5160  177.4250  144.0380 C   0  0  0  0  0  3  0  0  0  0  0  0
  186.2250  177.9270  144.2150 C   0  0  0  0  0  0  0  0  0  0  0  0
  188.3750  177.3060  145.1350 C   0  0  0  0  0  3  0  0  0  0  0  0
  184.0670  178.5550  143.2970 C   0  0  0  0  0  0  0  0  0  0  0  0
  183.6430  178.9330  144.5810 C   0  0  0  0  0  3  0  0  0  0  0  0
  188.8430  177.5550  147.5500 N   0  0  0  0  0  0  0  0  0  0  0  0
  188.4830  178.0840  148.8570 C   0  0  0  0  0  1  0  0  0  0  0  0
  190.1300  176.8880  147.4250 C   0  0  0  0  0  1  0  0  0  0  0  0
  1  3  1  0  0  0  0
  2 21  1  0  0  0  0
  3  2  2  0  0  0  0
  4  6  2  0  0  0  0
  5  4  1  0  0  0  0
  6  2  1  0  0  0  0
  7  8  1  0  0  0  0
  8  1  1  0  0  0  0
  8  4  1  0  0  0  0
  9  7  1  0  0  0  0
  9  5  2  0  0  0  0
 10  7  1  0  0  0  0
 11 14  1  1  0  0  0
 12 13  2  0  0  0  0
 15 12  1  0  0  0  0
 16 14  1  0  0  0  0
 16 12  1  0  0  0  0
 17 16  1  0  0  0  0
 18 10  1  1  0  0  0
 18 11  1  0  0  0  0
 19 17  1  0  0  0  0
 20 19  1  6  0  0  0
 20 18  1  0  0  0  0
 20 11  1  0  0  0  0
 21 30  1  0  0  0  0
 23 30  2  0  0  0  0
 23 28  1  0  0  0  0
 24 25  1  0  0  0  0
 24 32  1  0  0  0  0
 26 22  1  0  0  0  0
 26 25  2  0  0  0  0
 27 28  2  0  0  0  0
 27 29  1  0  0  0  0
 28 26  1  0  0  0  0
 29 24  2  0  0  0  0
 30 31  1  0  0  0  0
 31 22  2  0  0  0  0
 32 33  1  0  0  0  0
 34 32  1  0  0  0  0
M  END
>  <MODEL>
1

>  <REMARK>
 VINA RESULT:      -9.9      0.000      0.000
  Name = 
  5 active torsions:
  status: ('A' for Active; 'I' for Inactive)
    1  A    between atoms: N_5  and  N_19
    2  A    between atoms: N_5  and  C_32
    3  A    between atoms: C_7  and  N_11
    4  A    between atoms: C_8  and  N_18
    5  A    between atoms: N_18  and  C_30
                            x       y       z     vdW  Elec       q    Type
                         _______ _______ _______ _____ _____    ______ ____

>  <TORSDO>
F 5

$$$$
=
 OpenBabel10262423223D

 34 39  0  0  1  0  0  0  0  0999 V2000
  184.5150  179.0170  141.5670 C   0  0  0  0  0  2  0  0  0  0  0  0
  184.0530  179.0460  144.0310 C   0  0  0  0  0  0  0  0  0  0  0  0
  184.9390  179.0470  143.0160 C   0  0  0  0  0  3  0  0  0  0  0  0
  182.2180  178.7000  142.4980 C   0  0  0  0  0  0  0  0  0  0  0  0
  180.8940  178.6340  142.0490 N   0  0  0  0  0  0  0  0  0  0  0  0
  182.6050  178.9320  143.7480 C   0  0  0  0  0  3  0  0  0  0  0  0
  182.4440  178.4880  140.2210 N   0  0  0  0  0  0  0  0  0  0  0  0
  183.1270  178.5720  141.4440 N   0  0  0  0  0  0  0  0  0  0  0  0
  181.0090  178.4700  140.5970 C   0  0  0  0  0  3  0  0  0  0  0  0
  182.7340  177.2290  139.6750 N   0  0  0  0  0  2  0  0  0  0  0  0
  183.9290  178.1660  137.8410 C   0  0  2  0  0  3  0  0  0  0  0  0
  187.6300  178.1570  137.2420 C   0  0  0  0  0  0  0  0  0  0  0  0
  188.1010  178.8380  138.1910 O   0  0  0  0  0  0  0  0  0  0  0  0
  185.3600  178.3280  138.3000 C   0  0  0  0  0  2  0  0  0  0  0  0
  188.5570  177.6890  136.1700 C   0  0  0  0  0  1  0  0  0  0  0  0
  186.2300  177.8400  137.2020 N   0  0  0  0  0  0  0  0  0  0  0  0
  185.7040  176.9780  136.1040 C   0  0  0  0  0  2  0  0  0  0  0  0
  182.7590  177.3850  138.2290 C   0  0  1  0  0  3  0  0  0  0  0  0
  184.1910  176.6710  136.2600 C   0  0  0  0  0  2  0  0  0  0  0  0
  183.9160  176.6930  137.6810 N   0  0  1  0  0  0  0  0  0  0  0  0
  184.4680  179.1330  145.4030 N   0  0  0  0  0  2  0  0  0  0  0  0
  187.1550  178.3490  147.9190 C   0  0  0  0  0  3  0  0  0  0  0  0
  186.7050  178.1930  145.1590 C   0  0  0  0  0  3  0  0  0  0  0  0
  190.3650  176.8780  146.7780 C   0  0  0  0  0  0  0  0  0  0  0  0
  189.3620  177.3970  147.6140 C   0  0  0  0  0  3  0  0  0  0  0  0
  188.1460  177.8330  147.0820 C   0  0  0  0  0  0  0  0  0  0  0  0
  188.9110  177.2390  144.8540 C   0  0  0  0  0  3  0  0  0  0  0  0
  187.9190  177.7540  145.6910 C   0  0  0  0  0  0  0  0  0  0  0  0
  190.1250  176.8050  145.3940 C   0  0  0  0  0  3  0  0  0  0  0  0
  185.7080  178.7090  145.9950 C   0  0  0  0  0  0  0  0  0  0  0  0
  185.9420  178.7830  147.3780 C   0  0  0  0  0  3  0  0  0  0  0  0
  191.6160  176.4260  147.3290 N   0  0  0  0  0  0  0  0  0  0  0  0
  192.3860  175.3720  146.6840 C   0  0  0  0  0  1  0  0  0  0  0  0
  192.1590  177.0070  148.5470 C   0  0  0  0  0  1  0  0  0  0  0  0
  1  3  1  0  0  0  0
  2 21  1  0  0  0  0
  3  2  2  0  0  0  0
  4  6  2  0  0  0  0
  5  4  1  0  0  0  0
  6  2  1  0  0  0  0
  7  9  1  0  0  0  0
  7  8  1  0  0  0  0
  8  1  1  0  0  0  0
  8  4  1  0  0  0  0
  9  5  2  0  0  0  0
 10  7  1  0  0  0  0
 11 18  1  0  0  0  0
 11 14  1  1  0  0  0
 12 13  2  0  0  0  0
 15 12  1  0  0  0  0
 16 12  1  0  0  0  0
 16 14  1  0  0  0  0
 17 19  1  0  0  0  0
 17 16  1  0  0  0  0
 18 10  1  1  0  0  0
 20 19  1  6  0  0  0
 20 11  1  0  0  0  0
 20 18  1  0  0  0  0
 21 30  1  0  0  0  0
 23 28  2  0  0  0  0
 23 30  1  0  0  0  0
 24 32  1  0  0  0  0
 24 25  2  0  0  0  0
 26 25  1  0  0  0  0
 26 22  2  0  0  0  0
 27 29  2  0  0  0  0
 27 28  1  0  0  0  0
 28 26  1  0  0  0  0
 29 24  1  0  0  0  0
 30 31  2  0  0  0  0
 31 22  1  0  0  0  0
 32 34  1  0  0  0  0
 33 32  1  0  0  0  0
M  END
>  <MODEL>
2

>  <REMARK>
 VINA RESULT:      -9.4      1.850      3.648
  Name = 
  5 active torsions:
  status: ('A' for Active; 'I' for Inactive)
    1  A    between atoms: N_5  and  N_19
    2  A    between atoms: N_5  and  C_32
    3  A    between atoms: C_7  and  N_11
    4  A    between atoms: C_8  and  N_18
    5  A    between atoms: N_18  and  C_30
                            x       y       z     vdW  Elec       q    Type
                         _______ _______ _______ _____ _____    ______ ____

>  <TORSDO>
F 5

$$$$
=
 OpenBabel10262423223D

 34 39  0  0  1  0  0  0  0  0999 V2000
  190.6470  176.6930  141.8180 C   0  0  0  0  0  2  0  0  0  0  0  0
  188.5840  177.4860  143.0010 C   0  0  0  0  0  0  0  0  0  0  0  0
  189.7200  176.7630  143.0090 C   0  0  0  0  0  3  0  0  0  0  0  0
  188.8480  177.9750  140.6500 C   0  0  0  0  0  0  0  0  0  0  0  0
  188.6270  178.6050  139.4200 N   0  0  0  0  0  0  0  0  0  0  0  0
  188.1600  178.1850  141.7670 C   0  0  0  0  0  3  0  0  0  0  0  0
  190.5810  177.2140  139.3480 N   0  0  0  0  0  0  0  0  0  0  0  0
  189.9600  177.1290  140.6030 N   0  0  0  0  0  0  0  0  0  0  0  0
  189.7050  178.1140  138.5580 C   0  0  0  0  0  3  0  0  0  0  0  0
  190.4900  175.9440  138.7590 N   0  0  0  0  0  2  0  0  0  0  0  0
  192.4510  176.1850  137.4290 C   0  0  2  0  0  3  0  0  0  0  0  0
  195.7260  174.3960  137.7860 C   0  0  0  0  0  0  0  0  0  0  0  0
  196.1640  174.7700  138.9060 O   0  0  0  0  0  0  0  0  0  0  0  0
  193.5960  175.6410  138.2510 C   0  0  0  0  0  2  0  0  0  0  0  0
  196.5950  173.5370  136.9290 C   0  0  0  0  0  1  0  0  0  0  0  0
  194.4150  174.7910  137.3520 N   0  0  0  0  0  0  0  0  0  0  0  0
  193.8890  174.2860  136.0510 C   0  0  0  0  0  2  0  0  0  0  0  0
  190.9960  176.0650  137.4000 C   0  0  1  0  0  3  0  0  0  0  0  0
  192.4330  174.7450  135.7780 C   0  0  0  0  0  2  0  0  0  0  0  0
  191.8050  174.9000  137.0730 N   0  0  1  0  0  0  0  0  0  0  0  0
  187.7420  177.5910  144.1600 N   0  0  0  0  0  2  0  0  0  0  0  0
  184.3990  178.7140  145.4740 C   0  0  0  0  0  3  0  0  0  0  0  0
  185.6070  177.9930  143.0520 C   0  0  0  0  0  3  0  0  0  0  0  0
  181.5520  179.1320  143.1300 C   0  0  0  0  0  0  0  0  0  0  0  0
  182.3090  179.1110  144.3140 C   0  0  0  0  0  3  0  0  0  0  0  0
  183.6540  178.7350  144.2930 C   0  0  0  0  0  0  0  0  0  0  0  0
  183.5180  178.3910  141.8920 C   0  0  0  0  0  3  0  0  0  0  0  0
  184.2630  178.3710  143.0720 C   0  0  0  0  0  0  0  0  0  0  0  0
  182.1720  178.7680  141.9210 C   0  0  0  0  0  3  0  0  0  0  0  0
  186.3580  177.9730  144.2340 C   0  0  0  0  0  0  0  0  0  0  0  0
  185.7440  178.3370  145.4430 C   0  0  0  0  0  3  0  0  0  0  0  0
  180.1670  179.5240  143.1530 N   0  0  0  0  0  0  0  0  0  0  0  0
  179.6020  180.3620  142.1050 C   0  0  0  0  0  1  0  0  0  0  0  0
  179.2790  179.0940  144.2230 C   0  0  0  0  0  1  0  0  0  0  0  0
  1  3  1  0  0  0  0
  2  3  2  0  0  0  0
  2 21  1  0  0  0  0
  4  6  2  0  0  0  0
  5  4  1  0  0  0  0
  6  2  1  0  0  0  0
  7  8  1  0  0  0  0
  8  4  1  0  0  0  0
  8  1  1  0  0  0  0
  9  7  1  0  0  0  0
  9  5  2  0  0  0  0
 10  7  1  0  0  0  0
 11 14  1  1  0  0  0
 12 13  2  0  0  0  0
 15 12  1  0  0  0  0
 16 12  1  0  0  0  0
 16 14  1  0  0  0  0
 17 16  1  0  0  0  0
 18 11  1  0  0  0  0
 18 10  1  1  0  0  0
 19 17  1  0  0  0  0
 20 19  1  6  0  0  0
 20 18  1  0  0  0  0
 20 11  1  0  0  0  0
 21 30  1  0  0  0  0
 23 28  2  0  0  0  0
 23 30  1  0  0  0  0
 24 32  1  0  0  0  0
 24 25  2  0  0  0  0
 26 25  1  0  0  0  0
 26 22  2  0  0  0  0
 27 29  2  0  0  0  0
 27 28  1  0  0  0  0
 28 26  1  0  0  0  0
 29 24  1  0  0  0  0
 30 31  2  0  0  0  0
 31 22  1  0  0  0  0
 32 34  1  0  0  0  0
 33 32  1  0  0  0  0
M  END
>  <MODEL>
3

>  <REMARK>
 VINA RESULT:      -9.2      3.256      5.994
  Name = 
  5 active torsions:
  status: ('A' for Active; 'I' for Inactive)
    1  A    between atoms: N_5  and  N_19
    2  A    between atoms: N_5  and  C_32
    3  A    between atoms: C_7  and  N_11
    4  A    between atoms: C_8  and  N_18
    5  A    between atoms: N_18  and  C_30
                            x       y       z     vdW  Elec       q    Type
                         _______ _______ _______ _____ _____    ______ ____

>  <TORSDO>
F 5

$$$$
=
 OpenBabel10262423223D

 34 39  0  0  1  0  0  0  0  0999 V2000
  182.6540  178.5200  141.0980 C   0  0  0  0  0  2  0  0  0  0  0  0
  182.6180  178.8640  143.5810 C   0  0  0  0  0  0  0  0  0  0  0  0
  183.3190  178.7280  142.4390 C   0  0  0  0  0  3  0  0  0  0  0  0
  180.5520  178.3490  142.4400 C   0  0  0  0  0  0  0  0  0  0  0  0
  179.1720  178.2410  142.2350 N   0  0  0  0  0  0  0  0  0  0  0  0
  181.1440  178.7320  143.5660 C   0  0  0  0  0  3  0  0  0  0  0  0
  180.3900  177.8490  140.2030 N   0  0  0  0  0  0  0  0  0  0  0  0
  181.2700  178.0790  141.2710 N   0  0  0  0  0  0  0  0  0  0  0  0
  179.0400  177.8940  140.8170 C   0  0  0  0  0  3  0  0  0  0  0  0
  180.5950  176.5280  139.7790 N   0  0  0  0  0  2  0  0  0  0  0  0
  181.8960  176.0590  137.8400 C   0  0  2  0  0  3  0  0  0  0  0  0
  184.0610  173.0720  137.1700 C   0  0  0  0  0  0  0  0  0  0  0  0
  184.9690  173.1450  138.0410 O   0  0  0  0  0  0  0  0  0  0  0  0
  182.9250  175.0320  138.2530 C   0  0  0  0  0  2  0  0  0  0  0  0
  184.1520  172.0070  136.1300 C   0  0  0  0  0  1  0  0  0  0  0  0
  182.9640  173.9990  137.1890 N   0  0  0  0  0  0  0  0  0  0  0  0
  181.8660  173.8560  136.1900 C   0  0  0  0  0  2  0  0  0  0  0  0
  180.6060  176.5410  138.3250 C   0  0  1  0  0  3  0  0  0  0  0  0
  180.7260  174.8870  136.4040 C   0  0  0  0  0  2  0  0  0  0  0  0
  180.7040  175.1790  137.8230 N   0  0  1  0  0  0  0  0  0  0  0  0
  183.2610  179.1200  144.8400 N   0  0  0  0  0  2  0  0  0  0  0  0
  186.2660  178.4180  146.9940 C   0  0  0  0  0  3  0  0  0  0  0  0
  185.4890  178.2860  144.3060 C   0  0  0  0  0  3  0  0  0  0  0  0
  189.3730  177.1130  145.4400 C   0  0  0  0  0  0  0  0  0  0  0  0
  188.4580  177.5720  146.4030 C   0  0  0  0  0  3  0  0  0  0  0  0
  187.1690  177.9600  146.0320 C   0  0  0  0  0  0  0  0  0  0  0  0
  187.6800  177.4390  143.7150 C   0  0  0  0  0  3  0  0  0  0  0  0
  186.7770  177.8950  144.6770 C   0  0  0  0  0  0  0  0  0  0  0  0
  188.9690  177.0520  144.0950 C   0  0  0  0  0  3  0  0  0  0  0  0
  184.5800  178.7430  145.2690 C   0  0  0  0  0  0  0  0  0  0  0  0
  184.9780  178.8050  146.6140 C   0  0  0  0  0  3  0  0  0  0  0  0
  190.7000  176.7090  145.8250 N   0  0  0  0  0  0  0  0  0  0  0  0
  191.1020  176.6770  147.2240 C   0  0  0  0  0  1  0  0  0  0  0  0
  191.6870  176.3130  144.8330 C   0  0  0  0  0  1  0  0  0  0  0  0
  1  8  1  0  0  0  0
  1  3  1  0  0  0  0
  2 21  1  0  0  0  0
  3  2  2  0  0  0  0
  4  6  2  0  0  0  0
  5  4  1  0  0  0  0
  6  2  1  0  0  0  0
  7  9  1  0  0  0  0
  7  8  1  0  0  0  0
  8  4  1  0  0  0  0
  9  5  2  0  0  0  0
 10  7  1  0  0  0  0
 11 14  1  1  0  0  0
 11 18  1  0  0  0  0
 12 16  1  0  0  0  0
 12 13  2  0  0  0  0
 15 12  1  0  0  0  0
 16 14  1  0  0  0  0
 17 19  1  0  0  0  0
 17 16  1  0  0  0  0
 18 10  1  1  0  0  0
 20 19  1  6  0  0  0
 20 11  1  0  0  0  0
 20 18  1  0  0  0  0
 21 30  1  0  0  0  0
 23 28  2  0  0  0  0
 23 30  1  0  0  0  0
 24 32  1  0  0  0  0
 24 25  2  0  0  0  0
 26 25  1  0  0  0  0
 26 22  2  0  0  0  0
 27 29  2  0  0  0  0
 27 28  1  0  0  0  0
 28 26  1  0  0  0  0
 29 24  1  0  0  0  0
 30 31  2  0  0  0  0
 31 22  1  0  0  0  0
 32 33  1  0  0  0  0
 34 32  1  0  0  0  0
M  END
>  <MODEL>
4

>  <REMARK>
 VINA RESULT:      -9.2      3.747      4.902
  Name = 
  5 active torsions:
  status: ('A' for Active; 'I' for Inactive)
    1  A    between atoms: N_5  and  N_19
    2  A    between atoms: N_5  and  C_32
    3  A    between atoms: C_7  and  N_11
    4  A    between atoms: C_8  and  N_18
    5  A    between atoms: N_18  and  C_30
                            x       y       z     vdW  Elec       q    Type
                         _______ _______ _______ _____ _____    ______ ____

>  <TORSDO>
F 5

$$$$
=
 OpenBabel10262423223D

 34 39  0  0  1  0  0  0  0  0999 V2000
  189.1980  176.2810  142.5560 C   0  0  0  0  0  2  0  0  0  0  0  0
  188.1080  177.5550  144.4200 C   0  0  0  0  0  0  0  0  0  0  0  0
  188.0130  176.6700  143.4090 C   0  0  0  0  0  3  0  0  0  0  0  0
  190.3890  178.0780  143.8200 C   0  0  0  0  0  0  0  0  0  0  0  0
  191.6800  178.6020  143.9500 N   0  0  0  0  0  0  0  0  0  0  0  0
  189.3890  178.2480  144.6780 C   0  0  0  0  0  3  0  0  0  0  0  0
  191.5180  177.1420  142.0520 N   0  0  0  0  0  0  0  0  0  0  0  0
  190.2750  177.2610  142.6910 N   0  0  0  0  0  0  0  0  0  0  0  0
  192.4180  178.0410  142.8150 C   0  0  0  0  0  3  0  0  0  0  0  0
  191.3780  177.7020  140.7730 N   0  0  0  0  0  2  0  0  0  0  0  0
  189.8040  176.6710  139.3140 C   0  0  2  0  0  3  0  0  0  0  0  0
  187.4830  178.3180  136.8740 C   0  0  0  0  0  0  0  0  0  0  0  0
  186.7090  179.0030  137.5950 O   0  0  0  0  0  0  0  0  0  0  0  0
  188.8150  177.7440  138.9230 C   0  0  0  0  0  2  0  0  0  0  0  0
  187.2160  178.2440  135.4080 C   0  0  0  0  0  1  0  0  0  0  0  0
  188.5970  177.6270  137.4600 N   0  0  0  0  0  0  0  0  0  0  0  0
  189.5390  176.8740  136.5820 C   0  0  0  0  0  2  0  0  0  0  0  0
  191.1630  176.6040  139.8450 C   0  0  1  0  0  3  0  0  0  0  0  0
  190.7260  176.2590  137.3690 C   0  0  0  0  0  2  0  0  0  0  0  0
  190.9560  177.1290  138.5030 N   0  0  1  0  0  0  0  0  0  0  0  0
  186.9870  177.8710  145.2600 N   0  0  0  0  0  2  0  0  0  0  0  0
  183.3840  178.9490  145.3940 C   0  0  0  0  0  3  0  0  0  0  0  0
  185.2870  178.0920  143.5260 C   0  0  0  0  0  3  0  0  0  0  0  0
  181.3840  179.0590  142.2700 C   0  0  0  0  0  0  0  0  0  0  0  0
  181.7420  179.1630  143.6250 C   0  0  0  0  0  3  0  0  0  0  0  0
  183.0350  178.8450  144.0460 C   0  0  0  0  0  0  0  0  0  0  0  0
  183.6470  178.3070  141.7570 C   0  0  0  0  0  3  0  0  0  0  0  0
  183.9950  178.4130  143.1050 C   0  0  0  0  0  0  0  0  0  0  0  0
  182.3500  178.6270  141.3440 C   0  0  0  0  0  3  0  0  0  0  0  0
  185.6400  178.1970  144.8770 C   0  0  0  0  0  0  0  0  0  0  0  0
  184.6800  178.6280  145.8070 C   0  0  0  0  0  3  0  0  0  0  0  0
  180.0510  179.3910  141.8380 N   0  0  0  0  0  0  0  0  0  0  0  0
  179.3730  178.6080  140.8150 C   0  0  0  0  0  1  0  0  0  0  0  0
  179.3310  180.5180  142.4100 C   0  0  0  0  0  1  0  0  0  0  0  0
  1  8  1  0  0  0  0
  1  3  1  0  0  0  0
  2  6  1  0  0  0  0
  2 21  1  0  0  0  0
  3  2  2  0  0  0  0
  4  5  1  0  0  0  0
  4  6  2  0  0  0  0
  7  8  1  0  0  0  0
  7  9  1  0  0  0  0
  8  4  1  0  0  0  0
  9  5  2  0  0  0  0
 10  7  1  0  0  0  0
 11 14  1  1  0  0  0
 11 18  1  0  0  0  0
 12 16  1  0  0  0  0
 12 13  2  0  0  0  0
 15 12  1  0  0  0  0
 16 14  1  0  0  0  0
 17 19  1  0  0  0  0
 17 16  1  0  0  0  0
 18 10  1  1  0  0  0
 20 19  1  6  0  0  0
 20 11  1  0  0  0  0
 20 18  1  0  0  0  0
 22 31  1  0  0  0  0
 23 30  1  0  0  0  0
 24 25  2  0  0  0  0
 25 26  1  0  0  0  0
 26 22  2  0  0  0  0
 27 28  1  0  0  0  0
 28 23  2  0  0  0  0
 28 26  1  0  0  0  0
 29 27  2  0  0  0  0
 29 24  1  0  0  0  0
 30 21  1  0  0  0  0
 30 31  2  0  0  0  0
 32 24  1  0  0  0  0
 32 34  1  0  0  0  0
 33 32  1  0  0  0  0
M  END
>  <MODEL>
5

>  <REMARK>
 VINA RESULT:      -8.9      2.687      6.612
  Name = 
  5 active torsions:
  status: ('A' for Active; 'I' for Inactive)
    1  A    between atoms: N_5  and  N_19
    2  A    between atoms: N_5  and  C_32
    3  A    between atoms: C_7  and  N_11
    4  A    between atoms: C_8  and  N_18
    5  A    between atoms: N_18  and  C_30
                            x       y       z     vdW  Elec       q    Type
                         _______ _______ _______ _____ _____    ______ ____

>  <TORSDO>
F 5

$$$$
=
 OpenBabel10262423223D

 34 39  0  0  1  0  0  0  0  0999 V2000
  182.5500  178.5520  140.9740 C   0  0  0  0  0  2  0  0  0  0  0  0
  183.1620  178.8800  143.3820 C   0  0  0  0  0  0  0  0  0  0  0  0
  183.5420  178.6840  142.1050 C   0  0  0  0  0  3  0  0  0  0  0  0
  180.8390  178.5740  142.7960 C   0  0  0  0  0  0  0  0  0  0  0  0
  179.4470  178.6020  142.9400 N   0  0  0  0  0  0  0  0  0  0  0  0
  181.7250  178.8900  143.7340 C   0  0  0  0  0  3  0  0  0  0  0  0
  180.0810  178.1080  140.6770 N   0  0  0  0  0  0  0  0  0  0  0  0
  181.2160  178.2450  141.4900 N   0  0  0  0  0  0  0  0  0  0  0  0
  178.9360  178.2790  141.6050 C   0  0  0  0  0  3  0  0  0  0  0  0
  180.0490  176.7760  140.2380 N   0  0  0  0  0  2  0  0  0  0  0  0
  181.1650  176.4500  138.1600 C   0  0  2  0  0  3  0  0  0  0  0  0
  183.5060  173.6830  137.1980 C   0  0  0  0  0  0  0  0  0  0  0  0
  184.4930  173.8310  137.9670 O   0  0  0  0  0  0  0  0  0  0  0  0
  182.3220  175.5190  138.4370 C   0  0  0  0  0  2  0  0  0  0  0  0
  183.5780  172.6410  136.1330 C   0  0  0  0  0  1  0  0  0  0  0  0
  182.3380  174.5040  137.3550 N   0  0  0  0  0  0  0  0  0  0  0  0
  181.1540  174.2710  136.4780 C   0  0  0  0  0  2  0  0  0  0  0  0
  179.8970  176.8060  138.7920 C   0  0  1  0  0  3  0  0  0  0  0  0
  179.9560  175.1900  136.8360 C   0  0  0  0  0  2  0  0  0  0  0  0
  180.0630  175.4630  138.2540 N   0  0  1  0  0  0  0  0  0  0  0  0
  184.1180  179.0630  144.4390 N   0  0  0  0  0  2  0  0  0  0  0  0
  187.4700  177.5790  143.5880 C   0  0  0  0  0  3  0  0  0  0  0  0
  186.0260  178.4460  145.8260 C   0  0  0  0  0  3  0  0  0  0  0  0
  189.9250  176.9210  146.2920 C   0  0  0  0  0  0  0  0  0  0  0  0
  189.3390  177.0000  145.0170 C   0  0  0  0  0  3  0  0  0  0  0  0
  188.0470  177.5060  144.8570 C   0  0  0  0  0  0  0  0  0  0  0  0
  187.8950  177.8690  147.2550 C   0  0  0  0  0  3  0  0  0  0  0  0
  187.3190  177.9430  145.9850 C   0  0  0  0  0  0  0  0  0  0  0  0
  189.1890  177.3610  147.4060 C   0  0  0  0  0  3  0  0  0  0  0  0
  185.4450  178.5230  144.5540 C   0  0  0  0  0  0  0  0  0  0  0  0
  186.1770  178.0870  143.4380 C   0  0  0  0  0  3  0  0  0  0  0  0
  191.2590  176.4030  146.4530 N   0  0  0  0  0  0  0  0  0  0  0  0
  191.8690  176.2890  147.7700 C   0  0  0  0  0  1  0  0  0  0  0  0
  192.0440  175.9700  145.3080 C   0  0  0  0  0  1  0  0  0  0  0  0
  1  8  1  0  0  0  0
  1  3  1  0  0  0  0
  2  6  1  0  0  0  0
  2 21  1  0  0  0  0
  3  2  2  0  0  0  0
  4  5  1  0  0  0  0
  4  6  2  0  0  0  0
  7  8  1  0  0  0  0
  7  9  1  0  0  0  0
  8  4  1  0  0  0  0
  9  5  2  0  0  0  0
 10  7  1  0  0  0  0
 11 20  1  0  0  0  0
 11 14  1  1  0  0  0
 11 18  1  0  0  0  0
 12 16  1  0  0  0  0
 12 13  2  0  0  0  0
 15 12  1  0  0  0  0
 16 14  1  0  0  0  0
 17 19  1  0  0  0  0
 17 16  1  0  0  0  0
 18 10  1  1  0  0  0
 20 19  1  6  0  0  0
 20 18  1  0  0  0  0
 21 30  1  0  0  0  0
 22 26  1  0  0  0  0
 23 28  1  0  0  0  0
 24 32  1  0  0  0  0
 24 29  1  0  0  0  0
 25 24  2  0  0  0  0
 26 25  1  0  0  0  0
 26 28  2  0  0  0  0
 27 29  2  0  0  0  0
 28 27  1  0  0  0  0
 30 23  2  0  0  0  0
 31 22  2  0  0  0  0
 31 30  1  0  0  0  0
 32 33  1  0  0  0  0
 34 32  1  0  0  0  0
M  END
>  <MODEL>
6

>  <REMARK>
 VINA RESULT:      -8.8      3.845      5.360
  Name = 
  5 active torsions:
  status: ('A' for Active; 'I' for Inactive)
    1  A    between atoms: N_5  and  N_19
    2  A    between atoms: N_5  and  C_32
    3  A    between atoms: C_7  and  N_11
    4  A    between atoms: C_8  and  N_18
    5  A    between atoms: N_18  and  C_30
                            x       y       z     vdW  Elec       q    Type
                         _______ _______ _______ _____ _____    ______ ____

>  <TORSDO>
F 5

$$$$
=
 OpenBabel10262423223D

 34 39  0  0  1  0  0  0  0  0999 V2000
  190.6060  176.4240  137.0360 C   0  0  0  0  0  2  0  0  0  0  0  0
  190.8240  177.1370  139.4300 C   0  0  0  0  0  0  0  0  0  0  0  0
  191.2430  176.3700  138.4050 C   0  0  0  0  0  3  0  0  0  0  0  0
  188.9460  177.9340  138.1360 C   0  0  0  0  0  0  0  0  0  0  0  0
  187.8550  178.7380  137.7890 N   0  0  0  0  0  0  0  0  0  0  0  0
  189.6470  178.0170  139.2620 C   0  0  0  0  0  3  0  0  0  0  0  0
  188.4780  177.2840  135.9830 N   0  0  0  0  0  0  0  0  0  0  0  0
  189.2880  177.0540  137.1050 N   0  0  0  0  0  0  0  0  0  0  0  0
  187.5150  178.3230  136.4250 C   0  0  0  0  0  3  0  0  0  0  0  0
  187.7360  176.1140  135.7650 N   0  0  0  0  0  2  0  0  0  0  0  0
  185.5050  175.3430  135.4570 C   0  0  2  0  0  3  0  0  0  0  0  0
  184.0590  172.0070  136.3730 C   0  0  0  0  0  0  0  0  0  0  0  0
  184.6850  171.1870  135.6480 O   0  0  0  0  0  0  0  0  0  0  0  0
  185.5590  173.8340  135.5270 C   0  0  0  0  0  2  0  0  0  0  0  0
  182.9370  171.5030  137.2160 C   0  0  0  0  0  1  0  0  0  0  0  0
  184.4290  173.3940  136.3820 N   0  0  0  0  0  0  0  0  0  0  0  0
  183.7190  174.3370  137.2940 C   0  0  0  0  0  2  0  0  0  0  0  0
  186.3310  176.4680  135.8840 C   0  0  1  0  0  3  0  0  0  0  0  0
  184.2970  175.7750  137.2340 C   0  0  0  0  0  2  0  0  0  0  0  0
  185.6990  175.6360  136.8960 N   0  0  1  0  0  0  0  0  0  0  0  0
  191.4770  177.1170  140.7090 N   0  0  0  0  0  2  0  0  0  0  0  0
  191.1000  178.1120  144.3190 C   0  0  0  0  0  3  0  0  0  0  0  0
  189.5520  177.1190  142.2060 C   0  0  0  0  0  3  0  0  0  0  0  0
  187.7790  177.8550  145.9560 C   0  0  0  0  0  0  0  0  0  0  0  0
  189.1480  178.1050  145.7540 C   0  0  0  0  0  3  0  0  0  0  0  0
  189.7400  177.8640  144.5120 C   0  0  0  0  0  0  0  0  0  0  0  0
  187.6000  177.1140  143.6400 C   0  0  0  0  0  3  0  0  0  0  0  0
  188.9600  177.3630  143.4470 C   0  0  0  0  0  0  0  0  0  0  0  0
  187.0150  177.3580  144.8860 C   0  0  0  0  0  3  0  0  0  0  0  0
  190.9160  177.3690  142.0080 C   0  0  0  0  0  0  0  0  0  0  0  0
  191.6840  177.8670  143.0730 C   0  0  0  0  0  3  0  0  0  0  0  0
  187.1710  178.1090  147.2360 N   0  0  0  0  0  0  0  0  0  0  0  0
  185.8050  178.6030  147.3360 C   0  0  0  0  0  1  0  0  0  0  0  0
  187.8950  177.8770  148.4760 C   0  0  0  0  0  1  0  0  0  0  0  0
  1  8  1  0  0  0  0
  1  3  1  0  0  0  0
  2 21  1  0  0  0  0
  3  2  2  0  0  0  0
  4  6  2  0  0  0  0
  5  4  1  0  0  0  0
  6  2  1  0  0  0  0
  7  9  1  0  0  0  0
  7  8  1  0  0  0  0
  8  4  1  0  0  0  0
  9  5  2  0  0  0  0
 10  7  1  0  0  0  0
 11 14  1  1  0  0  0
 11 18  1  0  0  0  0
 11 20  1  0  0  0  0
 12 16  1  0  0  0  0
 12 15  1  0  0  0  0
 13 12  2  0  0  0  0
 14 16  1  0  0  0  0
 16 17  1  0  0  0  0
 18 10  1  1  0  0  0
 18 20  1  0  0  0  0
 19 17  1  0  0  0  0
 20 19  1  6  0  0  0
 21 30  1  0  0  0  0
 22 26  1  0  0  0  0
 23 28  1  0  0  0  0
 24 32  1  0  0  0  0
 25 24  1  0  0  0  0
 26 25  2  0  0  0  0
 27 29  1  0  0  0  0
 28 27  2  0  0  0  0
 28 26  1  0  0  0  0
 29 24  2  0  0  0  0
 30 23  2  0  0  0  0
 30 31  1  0  0  0  0
 31 22  2  0  0  0  0
 32 33  1  0  0  0  0
 32 34  1  0  0  0  0
M  END
>  <MODEL>
7

>  <REMARK>
 VINA RESULT:      -8.6      2.818      5.606
  Name = 
  5 active torsions:
  status: ('A' for Active; 'I' for Inactive)
    1  A    between atoms: N_5  and  N_19
    2  A    between atoms: N_5  and  C_32
    3  A    between atoms: C_7  and  N_11
    4  A    between atoms: C_8  and  N_18
    5  A    between atoms: N_18  and  C_30
                            x       y       z     vdW  Elec       q    Type
                         _______ _______ _______ _____ _____    ______ ____

>  <TORSDO>
F 5

$$$$
=
 OpenBabel10262423223D

 34 39  0  0  1  0  0  0  0  0999 V2000
  186.8590  177.6180  143.3450 C   0  0  0  0  0  2  0  0  0  0  0  0
  186.5940  178.4530  140.9960 C   0  0  0  0  0  0  0  0  0  0  0  0
  187.3550  177.8650  141.9400 C   0  0  0  0  0  3  0  0  0  0  0  0
  184.8670  178.9370  142.6140 C   0  0  0  0  0  0  0  0  0  0  0  0
  183.6090  179.3100  143.1010 N   0  0  0  0  0  0  0  0  0  0  0  0
  185.2470  178.9580  141.3410 C   0  0  0  0  0  3  0  0  0  0  0  0
  184.9840  178.4000  144.8450 N   0  0  0  0  0  0  0  0  0  0  0  0
  185.6890  178.4460  143.6330 N   0  0  0  0  0  0  0  0  0  0  0  0
  183.6650  179.0040  144.5330 C   0  0  0  0  0  3  0  0  0  0  0  0
  185.6300  179.2760  145.7290 N   0  0  0  0  0  2  0  0  0  0  0  0
  186.8640  177.5510  146.8100 C   0  0  2  0  0  3  0  0  0  0  0  0
  190.5450  176.8650  146.6150 C   0  0  0  0  0  0  0  0  0  0  0  0
  190.7410  176.5630  145.4080 O   0  0  0  0  0  0  0  0  0  0  0  0
  188.1600  177.4090  146.0470 C   0  0  0  0  0  2  0  0  0  0  0  0
  191.6820  176.7530  147.5740 C   0  0  0  0  0  1  0  0  0  0  0  0
  189.2500  177.3100  147.0490 N   0  0  0  0  0  0  0  0  0  0  0  0
  189.0540  177.7250  148.4680 C   0  0  0  0  0  2  0  0  0  0  0  0
  185.8220  178.5600  146.9800 C   0  0  1  0  0  3  0  0  0  0  0  0
  187.6210  178.2520  148.7430 C   0  0  0  0  0  2  0  0  0  0  0  0
  187.1540  178.8300  147.5000 N   0  0  1  0  0  0  0  0  0  0  0  0
  187.0570  178.6280  139.6480 N   0  0  0  0  0  2  0  0  0  0  0  0
  189.1980  176.8780  137.0950 C   0  0  0  0  0  3  0  0  0  0  0  0
  189.4030  177.9610  139.6700 C   0  0  0  0  0  3  0  0  0  0  0  0
  192.7700  176.2060  137.8460 C   0  0  0  0  0  0  0  0  0  0  0  0
  191.5380  176.2540  137.1700 C   0  0  0  0  0  3  0  0  0  0  0  0
  190.4190  176.8360  137.7710 C   0  0  0  0  0  0  0  0  0  0  0  0
  191.7420  177.3380  139.7460 C   0  0  0  0  0  3  0  0  0  0  0  0
  190.5220  177.3810  139.0690 C   0  0  0  0  0  0  0  0  0  0  0  0
  192.8570  176.7540  139.1380 C   0  0  0  0  0  3  0  0  0  0  0  0
  188.1770  178.0070  138.9940 C   0  0  0  0  0  0  0  0  0  0  0  0
  188.0840  177.4620  137.7030 C   0  0  0  0  0  3  0  0  0  0  0  0
  193.9220  175.6090  137.2240 N   0  0  0  0  0  0  0  0  0  0  0  0
  194.6790  174.5580  137.8890 C   0  0  0  0  0  1  0  0  0  0  0  0
  194.3720  176.0290  135.9050 C   0  0  0  0  0  1  0  0  0  0  0  0
  1  8  1  0  0  0  0
  2  6  1  0  0  0  0
  2  3  2  0  0  0  0
  3  1  1  0  0  0  0
  4  5  1  0  0  0  0
  4  8  1  0  0  0  0
  5  9  2  0  0  0  0
  6  4  2  0  0  0  0
  7 10  1  0  0  0  0
  8  7  1  0  0  0  0
  9  7  1  0  0  0  0
 11 14  1  6  0  0  0
 11 18  1  0  0  0  0
 11 20  1  0  0  0  0
 12 16  1  0  0  0  0
 12 15  1  0  0  0  0
 13 12  2  0  0  0  0
 14 16  1  0  0  0  0
 16 17  1  0  0  0  0
 17 19  1  0  0  0  0
 18 10  1  6  0  0  0
 18 20  1  0  0  0  0
 20 19  1  1  0  0  0
 21  2  1  0  0  0  0
 22 31  2  0  0  0  0
 22 26  1  0  0  0  0
 24 29  1  0  0  0  0
 25 26  1  0  0  0  0
 25 24  2  0  0  0  0
 26 28  2  0  0  0  0
 28 23  1  0  0  0  0
 28 27  1  0  0  0  0
 29 27  2  0  0  0  0
 30 21  1  0  0  0  0
 30 23  2  0  0  0  0
 31 30  1  0  0  0  0
 32 24  1  0  0  0  0
 32 33  1  0  0  0  0
 34 32  1  0  0  0  0
M  END
>  <MODEL>
8

>  <REMARK>
 VINA RESULT:      -8.6      2.675      8.727
  Name = 
  5 active torsions:
  status: ('A' for Active; 'I' for Inactive)
    1  A    between atoms: N_5  and  N_19
    2  A    between atoms: N_5  and  C_32
    3  A    between atoms: C_7  and  N_11
    4  A    between atoms: C_8  and  N_18
    5  A    between atoms: N_18  and  C_30
                            x       y       z     vdW  Elec       q    Type
                         _______ _______ _______ _____ _____    ______ ____

>  <TORSDO>
F 5

$$$$
=
 OpenBabel10262423223D

 34 39  0  0  1  0  0  0  0  0999 V2000
  188.7430  178.1420  140.7530 C   0  0  0  0  0  2  0  0  0  0  0  0
  188.2990  177.4540  138.3840 C   0  0  0  0  0  0  0  0  0  0  0  0
  187.8340  177.8720  139.5770 C   0  0  0  0  0  3  0  0  0  0  0  0
  190.5270  177.1950  139.2800 C   0  0  0  0  0  0  0  0  0  0  0  0
  191.9150  177.0150  139.2820 N   0  0  0  0  0  0  0  0  0  0  0  0
  189.7390  177.1630  138.2110 C   0  0  0  0  0  3  0  0  0  0  0  0
  191.1100  177.6200  141.4620 N   0  0  0  0  0  0  0  0  0  0  0  0
  190.0450  177.5060  140.5560 N   0  0  0  0  0  0  0  0  0  0  0  0
  192.3120  177.2520  140.6730 C   0  0  0  0  0  3  0  0  0  0  0  0
  190.9380  176.6150  142.4260 N   0  0  0  0  0  2  0  0  0  0  0  0
  190.8180  177.8240  144.4740 C   0  0  2  0  0  3  0  0  0  0  0  0
  188.0640  177.8020  147.0180 C   0  0  0  0  0  0  0  0  0  0  0  0
  187.0740  178.2890  146.4080 O   0  0  0  0  0  0  0  0  0  0  0  0
  189.3600  177.8550  144.8680 C   0  0  0  0  0  2  0  0  0  0  0  0
  187.9310  177.5020  148.4730 C   0  0  0  0  0  1  0  0  0  0  0  0
  189.2900  177.5430  146.3160 N   0  0  0  0  0  0  0  0  0  0  0  0
  190.4290  176.9070  147.0400 C   0  0  0  0  0  2  0  0  0  0  0  0
  191.6800  177.0240  143.6080 C   0  0  1  0  0  3  0  0  0  0  0  0
  191.6420  176.6260  146.1140 C   0  0  0  0  0  2  0  0  0  0  0  0
  191.1000  176.4040  144.7900 N   0  0  1  0  0  0  0  0  0  0  0  0
  187.4290  177.2580  137.2570 N   0  0  0  0  0  2  0  0  0  0  0  0
  183.8070  176.2570  137.0450 C   0  0  0  0  0  3  0  0  0  0  0  0
  186.3470  175.0770  137.1140 C   0  0  0  0  0  3  0  0  0  0  0  0
  182.9060  172.6640  136.8290 C   0  0  0  0  0  0  0  0  0  0  0  0
  182.7910  174.0630  136.8890 C   0  0  0  0  0  3  0  0  0  0  0  0
  183.9290  174.8670  136.9830 C   0  0  0  0  0  0  0  0  0  0  0  0
  185.3310  172.8840  136.9580 C   0  0  0  0  0  3  0  0  0  0  0  0
  185.2090  174.2730  137.0180 C   0  0  0  0  0  0  0  0  0  0  0  0
  184.1870  172.0850  136.8640 C   0  0  0  0  0  3  0  0  0  0  0  0
  186.2290  176.4710  137.1740 C   0  0  0  0  0  0  0  0  0  0  0  0
  184.9520  177.0540  137.1380 C   0  0  0  0  0  3  0  0  0  0  0  0
  181.7320  171.8370  136.7290 N   0  0  0  0  0  0  0  0  0  0  0  0
  180.5790  172.0570  137.5900 C   0  0  0  0  0  1  0  0  0  0  0  0
  181.6510  170.7540  135.7600 C   0  0  0  0  0  1  0  0  0  0  0  0
  2  3  2  0  0  0  0
  3  1  1  0  0  0  0
  4  5  1  0  0  0  0
  4  8  1  0  0  0  0
  5  9  2  0  0  0  0
  6  2  1  0  0  0  0
  6  4  2  0  0  0  0
  7 10  1  0  0  0  0
  8  1  1  0  0  0  0
  8  7  1  0  0  0  0
  9  7  1  0  0  0  0
 11 20  1  0  0  0  0
 11 14  1  6  0  0  0
 12 15  1  0  0  0  0
 13 12  2  0  0  0  0
 14 16  1  0  0  0  0
 16 12  1  0  0  0  0
 16 17  1  0  0  0  0
 18 10  1  6  0  0  0
 18 11  1  0  0  0  0
 18 20  1  0  0  0  0
 19 17  1  0  0  0  0
 20 19  1  1  0  0  0
 21  2  1  0  0  0  0
 22 31  1  0  0  0  0
 23 30  1  0  0  0  0
 24 29  1  0  0  0  0
 24 25  2  0  0  0  0
 25 26  1  0  0  0  0
 26 28  1  0  0  0  0
 26 22  2  0  0  0  0
 27 28  1  0  0  0  0
 28 23  2  0  0  0  0
 29 27  2  0  0  0  0
 30 21  1  0  0  0  0
 31 30  2  0  0  0  0
 32 24  1  0  0  0  0
 32 33  1  0  0  0  0
 34 32  1  0  0  0  0
M  END
>  <MODEL>
9

>  <REMARK>
 VINA RESULT:      -8.5      3.248      9.400
  Name = 
  5 active torsions:
  status: ('A' for Active; 'I' for Inactive)
    1  A    between atoms: N_5  and  N_19
    2  A    between atoms: N_5  and  C_32
    3  A    between atoms: C_7  and  N_11
    4  A    between atoms: C_8  and  N_18
    5  A    between atoms: N_18  and  C_30
                            x       y       z     vdW  Elec       q    Type
                         _______ _______ _______ _____ _____    ______ ____

>  <TORSDO>
F 5

$$$$
