=
 OpenBabel10262419533D

 25 28  0  0  1  0  0  0  0  0999 V2000
  189.3700  177.6400  146.2320 C   0  0  0  0  0  0  0  0  0  0  0  0
  188.1180  177.7820  145.6220 C   0  0  0  0  0  0  0  0  0  0  0  0
  188.3520  177.8320  148.3660 C   0  0  0  0  0  3  0  0  0  0  0  0
  187.1290  177.9800  147.7910 N   0  0  0  0  0  0  0  0  0  0  0  0
  185.7420  178.1080  145.8280 C   0  0  0  0  0  0  0  0  0  0  0  0
  184.2850  178.3420  146.7790 Cl  0  0  0  0  0  0  0  0  0  0  0  0
  187.9770  177.7540  144.2690 N   0  0  0  0  0  0  0  0  0  0  0  0
  189.4560  177.6640  147.5920 N   0  0  0  0  0  0  0  0  0  0  0  0
  185.6510  178.0780  144.4720 N   0  0  0  0  0  0  0  0  0  0  0  0
  186.7530  177.8950  143.6960 C   0  0  0  0  0  0  0  0  0  0  0  0
  186.9910  177.9580  146.4400 C   0  0  0  0  0  0  0  0  0  0  0  0
  190.6100  177.4470  145.4090 C   0  0  1  0  0  3  0  0  0  0  0  0
  191.4960  176.7720  142.7980 C   0  0  0  0  0  1  0  0  0  0  0  0
  190.8050  178.6300  144.4550 C   0  0  2  0  0  3  0  0  0  0  0  0
  191.2640  178.2580  143.0380 C   0  0  1  0  0  3  0  0  0  0  0  0
  192.2640  178.7560  144.0630 C   0  0  0  0  0  2  0  0  0  0  0  0
  191.7210  177.3220  146.2470 O   0  0  0  0  0  0  0  0  0  0  0  0
  191.9620  175.9480  146.3200 C   0  0  0  0  0  1  0  0  0  0  0  0
  186.6250  177.8930  142.2140 C   0  0  0  0  0  2  0  0  0  0  0  0
  187.9460  178.3340  141.5810 C   0  0  0  0  0  2  0  0  0  0  0  0
  188.1130  177.8450  140.2090 N   0  0  0  0  0  0  0  0  0  0  0  0
  187.2820  178.5500  139.4010 O   0  0  0  0  0  1  0  0  0  0  0  0
  189.4810  178.0910  139.7670 C   0  0  0  0  0  3  0  0  0  0  0  0
  189.5990  177.7790  138.2870 C   0  0  0  0  0  2  0  0  0  0  0  0
  190.1080  176.7870  139.3090 C   0  0  0  0  0  2  0  0  0  0  0  0
  1  8  1  0  0  0  0
  2  1  2  0  0  0  0
  2 11  1  0  0  0  0
  4  3  1  0  0  0  0
  5 11  1  0  0  0  0
  5  6  1  0  0  0  0
  7  2  1  0  0  0  0
  8  3  2  0  0  0  0
  9  5  2  0  0  0  0
 10  7  2  0  0  0  0
 10  9  1  0  0  0  0
 11  4  2  0  0  0  0
 12  1  1  0  0  0  0
 12 17  1  1  0  0  0
 14 12  1  1  0  0  0
 15 13  1  1  0  0  0
 15 16  1  0  0  0  0
 15 14  1  0  0  0  0
 16 14  1  0  0  0  0
 17 18  1  0  0  0  0
 19 10  1  0  0  0  0
 20 19  1  0  0  0  0
 21 20  1  0  0  0  0
 22 21  1  0  0  0  0
 23 21  1  0  0  0  0
 24 25  1  0  0  0  0
 24 23  1  0  0  0  0
 25 23  1  0  0  0  0
M  END
>  <MODEL>
1

>  <REMARK>
 VINA RESULT:      -7.5      0.000      0.000
  Name = 
  7 active torsions:
  status: ('A' for Active; 'I' for Inactive)
    1  A    between atoms: C_1  and  C_5
    2  A    between atoms: C_2  and  N_21
    3  A    between atoms: C_5  and  C_10
    4  A    between atoms: C_5  and  O_17
    5  A    between atoms: C_6  and  C_15
    6  A    between atoms: C_6  and  C_23
    7  A    between atoms: C_15  and  N_21
                            x       y       z     vdW  Elec       q    Type
                         _______ _______ _______ _____ _____    ______ ____

>  <TORSDO>
F 7

$$$$
=
 OpenBabel10262419533D

 25 28  0  0  1  0  0  0  0  0999 V2000
  189.3870  177.5790  146.2260 C   0  0  0  0  0  0  0  0  0  0  0  0
  188.1140  177.7540  145.6720 C   0  0  0  0  0  0  0  0  0  0  0  0
  188.4640  177.7540  148.4040 C   0  0  0  0  0  3  0  0  0  0  0  0
  187.2210  177.9330  147.8850 N   0  0  0  0  0  0  0  0  0  0  0  0
  185.7540  178.1200  145.9850 C   0  0  0  0  0  0  0  0  0  0  0  0
  184.3440  178.3640  147.0010 Cl  0  0  0  0  0  0  0  0  0  0  0  0
  187.9150  177.7520  144.3270 N   0  0  0  0  0  0  0  0  0  0  0  0
  189.5310  177.5780  147.5810 N   0  0  0  0  0  0  0  0  0  0  0  0
  185.6060  178.1140  144.6330 N   0  0  0  0  0  0  0  0  0  0  0  0
  186.6700  177.9250  143.8080 C   0  0  0  0  0  0  0  0  0  0  0  0
  187.0250  177.9370  146.5400 C   0  0  0  0  0  0  0  0  0  0  0  0
  190.5870  177.3780  145.3470 C   0  0  1  0  0  3  0  0  0  0  0  0
  190.9410  176.6580  142.6250 C   0  0  0  0  0  1  0  0  0  0  0  0
  190.7350  178.5500  144.3720 C   0  0  2  0  0  3  0  0  0  0  0  0
  190.9050  178.1560  142.8980 C   0  0  1  0  0  3  0  0  0  0  0  0
  192.1110  178.5350  143.7350 C   0  0  0  0  0  2  0  0  0  0  0  0
  191.7360  177.2640  146.1340 O   0  0  0  0  0  0  0  0  0  0  0  0
  191.9910  175.8920  146.1980 C   0  0  0  0  0  1  0  0  0  0  0  0
  186.4800  177.9510  142.3340 C   0  0  0  0  0  2  0  0  0  0  0  0
  185.6570  179.1790  141.9400 C   0  0  0  0  0  2  0  0  0  0  0  0
  185.5160  179.3310  140.4890 N   0  0  0  0  0  0  0  0  0  0  0  0
  186.5320  178.6620  139.8890 O   0  0  0  0  0  1  0  0  0  0  0  0
  184.2640  178.7230  140.0540 C   0  0  0  0  0  3  0  0  0  0  0  0
  184.3120  178.4760  138.5580 C   0  0  0  0  0  2  0  0  0  0  0  0
  183.5480  179.6630  139.1010 C   0  0  0  0  0  2  0  0  0  0  0  0
  1  8  1  0  0  0  0
  2  1  2  0  0  0  0
  2 11  1  0  0  0  0
  4  3  1  0  0  0  0
  5 11  1  0  0  0  0
  5  6  1  0  0  0  0
  7  2  1  0  0  0  0
  8  3  2  0  0  0  0
  9  5  2  0  0  0  0
 10  7  2  0  0  0  0
 10  9  1  0  0  0  0
 11  4  2  0  0  0  0
 12 17  1  1  0  0  0
 12  1  1  0  0  0  0
 14 12  1  1  0  0  0
 15 13  1  1  0  0  0
 15 16  1  0  0  0  0
 15 14  1  0  0  0  0
 16 14  1  0  0  0  0
 17 18  1  0  0  0  0
 19 10  1  0  0  0  0
 20 19  1  0  0  0  0
 21 20  1  0  0  0  0
 22 21  1  0  0  0  0
 23 21  1  0  0  0  0
 24 25  1  0  0  0  0
 24 23  1  0  0  0  0
 25 23  1  0  0  0  0
M  END
>  <MODEL>
2

>  <REMARK>
 VINA RESULT:      -7.5      1.622      2.231
  Name = 
  7 active torsions:
  status: ('A' for Active; 'I' for Inactive)
    1  A    between atoms: C_1  and  C_5
    2  A    between atoms: C_2  and  N_21
    3  A    between atoms: C_5  and  C_10
    4  A    between atoms: C_5  and  O_17
    5  A    between atoms: C_6  and  C_15
    6  A    between atoms: C_6  and  C_23
    7  A    between atoms: C_15  and  N_21
                            x       y       z     vdW  Elec       q    Type
                         _______ _______ _______ _____ _____    ______ ____

>  <TORSDO>
F 7

$$$$
=
 OpenBabel10262419533D

 25 28  0  0  1  0  0  0  0  0999 V2000
  190.3290  177.7110  141.8300 C   0  0  0  0  0  0  0  0  0  0  0  0
  189.1270  177.9990  141.1720 C   0  0  0  0  0  0  0  0  0  0  0  0
  191.3120  177.0870  139.7640 C   0  0  0  0  0  3  0  0  0  0  0  0
  190.1520  177.3530  139.1080 N   0  0  0  0  0  0  0  0  0  0  0  0
  187.8570  178.0830  139.1280 C   0  0  0  0  0  0  0  0  0  0  0  0
  187.6900  177.8570  137.3950 Cl  0  0  0  0  0  0  0  0  0  0  0  0
  188.0370  178.4550  141.8450 N   0  0  0  0  0  0  0  0  0  0  0  0
  191.3950  177.2670  141.1080 N   0  0  0  0  0  0  0  0  0  0  0  0
  186.7930  178.5340  139.8440 N   0  0  0  0  0  0  0  0  0  0  0  0
  186.8790  178.7270  141.1870 C   0  0  0  0  0  0  0  0  0  0  0  0
  189.0620  177.8040  139.7830 C   0  0  0  0  0  0  0  0  0  0  0  0
  190.4580  177.9020  143.3130 C   0  0  1  0  0  3  0  0  0  0  0  0
  189.2040  177.8370  145.8580 C   0  0  0  0  0  1  0  0  0  0  0  0
  190.4870  176.5460  144.0240 C   0  0  2  0  0  3  0  0  0  0  0  0
  189.7890  176.5100  145.3910 C   0  0  1  0  0  3  0  0  0  0  0  0
  191.2970  176.6390  145.3030 C   0  0  0  0  0  2  0  0  0  0  0  0
  191.6250  178.6170  143.5990 O   0  0  0  0  0  0  0  0  0  0  0  0
  191.1840  179.8890  143.9690 C   0  0  0  0  0  1  0  0  0  0  0  0
  185.6900  179.1950  141.9470 C   0  0  0  0  0  2  0  0  0  0  0  0
  185.3370  178.1780  143.0330 C   0  0  0  0  0  2  0  0  0  0  0  0
  184.8890  178.8070  144.2800 N   0  0  0  0  0  0  0  0  0  0  0  0
  183.5570  178.5910  144.4130 O   0  0  0  0  0  1  0  0  0  0  0  0
  185.5580  178.1760  145.4120 C   0  0  0  0  0  3  0  0  0  0  0  0
  184.7160  178.3500  146.6610 C   0  0  0  0  0  2  0  0  0  0  0  0
  185.9240  179.2320  146.4380 C   0  0  0  0  0  2  0  0  0  0  0  0
  1 12  1  0  0  0  0
  2  1  1  0  0  0  0
  2  7  1  0  0  0  0
  3  8  1  0  0  0  0
  4  3  2  0  0  0  0
  4 11  1  0  0  0  0
  5 11  1  0  0  0  0
  5  9  2  0  0  0  0
  6  5  1  0  0  0  0
  8  1  2  0  0  0  0
  9 10  1  0  0  0  0
 10  7  2  0  0  0  0
 10 19  1  0  0  0  0
 11  2  2  0  0  0  0
 12 17  1  6  0  0  0
 14 12  1  6  0  0  0
 14 16  1  0  0  0  0
 14 15  1  0  0  0  0
 15 13  1  6  0  0  0
 16 15  1  0  0  0  0
 17 18  1  0  0  0  0
 19 20  1  0  0  0  0
 20 21  1  0  0  0  0
 21 22  1  0  0  0  0
 21 23  1  0  0  0  0
 23 25  1  0  0  0  0
 23 24  1  0  0  0  0
 25 24  1  0  0  0  0
M  END
>  <MODEL>
3

>  <REMARK>
 VINA RESULT:      -7.4      3.090      5.855
  Name = 
  7 active torsions:
  status: ('A' for Active; 'I' for Inactive)
    1  A    between atoms: C_1  and  C_5
    2  A    between atoms: C_2  and  N_21
    3  A    between atoms: C_5  and  C_10
    4  A    between atoms: C_5  and  O_17
    5  A    between atoms: C_6  and  C_15
    6  A    between atoms: C_6  and  C_23
    7  A    between atoms: C_15  and  N_21
                            x       y       z     vdW  Elec       q    Type
                         _______ _______ _______ _____ _____    ______ ____

>  <TORSDO>
F 7

$$$$
=
 OpenBabel10262419533D

 25 28  0  0  1  0  0  0  0  0999 V2000
  187.9070  177.5220  144.8210 C   0  0  0  0  0  0  0  0  0  0  0  0
  186.8210  177.9540  144.0490 C   0  0  0  0  0  0  0  0  0  0  0  0
  186.5850  177.7030  146.7820 C   0  0  0  0  0  3  0  0  0  0  0  0
  185.5230  178.1310  146.0510 N   0  0  0  0  0  0  0  0  0  0  0  0
  184.5350  178.7010  143.9300 C   0  0  0  0  0  0  0  0  0  0  0  0
  182.9980  179.1150  144.6710 Cl  0  0  0  0  0  0  0  0  0  0  0  0
  186.9110  178.0790  142.6980 N   0  0  0  0  0  0  0  0  0  0  0  0
  187.7610  177.4030  146.1700 N   0  0  0  0  0  0  0  0  0  0  0  0
  184.6750  178.8150  142.5830 N   0  0  0  0  0  0  0  0  0  0  0  0
  185.8460  178.5010  141.9670 C   0  0  0  0  0  0  0  0  0  0  0  0
  185.6160  178.2620  144.7020 C   0  0  0  0  0  0  0  0  0  0  0  0
  189.2180  177.1780  144.1780 C   0  0  1  0  0  3  0  0  0  0  0  0
  191.4300  178.9330  143.8920 C   0  0  0  0  0  1  0  0  0  0  0  0
  190.3110  177.0340  145.2400 C   0  0  2  0  0  3  0  0  0  0  0  0
  191.4960  178.0000  145.0940 C   0  0  1  0  0  3  0  0  0  0  0  0
  191.6070  176.5700  144.6040 C   0  0  0  0  0  2  0  0  0  0  0  0
  189.0930  175.9870  143.4570 O   0  0  0  0  0  0  0  0  0  0  0  0
  189.6250  176.2730  142.1970 C   0  0  0  0  0  1  0  0  0  0  0  0
  185.9760  178.6610  140.4940 C   0  0  0  0  0  2  0  0  0  0  0  0
  187.4050  178.3280  140.0620 C   0  0  0  0  0  2  0  0  0  0  0  0
  187.6820  178.6980  138.6710 N   0  0  0  0  0  0  0  0  0  0  0  0
  188.9590  179.1500  138.5960 O   0  0  0  0  0  1  0  0  0  0  0  0
  187.5750  177.5180  137.8220 C   0  0  0  0  0  3  0  0  0  0  0  0
  188.0090  177.8670  136.4110 C   0  0  0  0  0  2  0  0  0  0  0  0
  186.5370  177.7620  136.7420 C   0  0  0  0  0  2  0  0  0  0  0  0
  1  8  1  0  0  0  0
  2 11  1  0  0  0  0
  2  1  2  0  0  0  0
  4  3  1  0  0  0  0
  5  6  1  0  0  0  0
  5 11  1  0  0  0  0
  7  2  1  0  0  0  0
  8  3  2  0  0  0  0
  9  5  2  0  0  0  0
 10  9  1  0  0  0  0
 10  7  2  0  0  0  0
 11  4  2  0  0  0  0
 12 17  1  1  0  0  0
 12  1  1  0  0  0  0
 14 12  1  6  0  0  0
 15 13  1  6  0  0  0
 15 14  1  0  0  0  0
 16 15  1  0  0  0  0
 16 14  1  0  0  0  0
 18 17  1  0  0  0  0
 19 10  1  0  0  0  0
 20 19  1  0  0  0  0
 21 20  1  0  0  0  0
 22 21  1  0  0  0  0
 23 21  1  0  0  0  0
 24 25  1  0  0  0  0
 24 23  1  0  0  0  0
 25 23  1  0  0  0  0
M  END
>  <MODEL>
4

>  <REMARK>
 VINA RESULT:      -7.2      1.949      2.562
  Name = 
  7 active torsions:
  status: ('A' for Active; 'I' for Inactive)
    1  A    between atoms: C_1  and  C_5
    2  A    between atoms: C_2  and  N_21
    3  A    between atoms: C_5  and  C_10
    4  A    between atoms: C_5  and  O_17
    5  A    between atoms: C_6  and  C_15
    6  A    between atoms: C_6  and  C_23
    7  A    between atoms: C_15  and  N_21
                            x       y       z     vdW  Elec       q    Type
                         _______ _______ _______ _____ _____    ______ ____

>  <TORSDO>
F 7

$$$$
=
 OpenBabel10262419533D

 25 28  0  0  1  0  0  0  0  0999 V2000
  188.4700  177.8580  140.6310 C   0  0  0  0  0  0  0  0  0  0  0  0
  187.2160  178.2440  141.1190 C   0  0  0  0  0  0  0  0  0  0  0  0
  187.7270  178.2460  138.4120 C   0  0  0  0  0  3  0  0  0  0  0  0
  186.5010  178.6170  138.8660 N   0  0  0  0  0  0  0  0  0  0  0  0
  184.9710  179.0020  140.6850 C   0  0  0  0  0  0  0  0  0  0  0  0
  183.6790  179.4810  139.5980 Cl  0  0  0  0  0  0  0  0  0  0  0  0
  186.9420  178.2580  142.4510 N   0  0  0  0  0  0  0  0  0  0  0  0
  188.6960  177.8720  139.2880 N   0  0  0  0  0  0  0  0  0  0  0  0
  184.7440  178.9960  142.0250 N   0  0  0  0  0  0  0  0  0  0  0  0
  185.7170  178.6360  142.9040 C   0  0  0  0  0  0  0  0  0  0  0  0
  186.2270  178.6240  140.1960 C   0  0  0  0  0  0  0  0  0  0  0  0
  189.5650  177.4440  141.5690 C   0  0  1  0  0  3  0  0  0  0  0  0
  190.4150  177.8880  144.2410 C   0  0  0  0  0  1  0  0  0  0  0  0
  189.0330  176.4450  142.6010 C   0  0  2  0  0  3  0  0  0  0  0  0
  189.4780  176.7020  144.0480 C   0  0  1  0  0  3  0  0  0  0  0  0
  190.1760  175.6530  143.2050 C   0  0  0  0  0  2  0  0  0  0  0  0
  190.6160  176.8710  140.8470 O   0  0  0  0  0  0  0  0  0  0  0  0
  191.6780  177.7660  140.9900 C   0  0  0  0  0  1  0  0  0  0  0  0
  185.4290  178.6130  144.3620 C   0  0  0  0  0  2  0  0  0  0  0  0
  186.5150  177.8200  145.0920 C   0  0  0  0  0  2  0  0  0  0  0  0
  187.0140  178.5030  146.2890 N   0  0  0  0  0  0  0  0  0  0  0  0
  185.9740  179.1400  146.8830 O   0  0  0  0  0  1  0  0  0  0  0  0
  187.5310  177.5180  147.2320 C   0  0  0  0  0  3  0  0  0  0  0  0
  187.9200  178.2100  148.5250 C   0  0  0  0  0  2  0  0  0  0  0  0
  188.9890  177.8170  147.5290 C   0  0  0  0  0  2  0  0  0  0  0  0
  1  2  1  0  0  0  0
  1 12  1  0  0  0  0
  2  7  1  0  0  0  0
  3  4  2  0  0  0  0
  3  8  1  0  0  0  0
  4 11  1  0  0  0  0
  5  9  2  0  0  0  0
  6  5  1  0  0  0  0
  7 10  2  0  0  0  0
  8  1  2  0  0  0  0
  9 10  1  0  0  0  0
 10 19  1  0  0  0  0
 11  5  1  0  0  0  0
 11  2  2  0  0  0  0
 12 17  1  6  0  0  0
 14 12  1  6  0  0  0
 14 16  1  0  0  0  0
 14 15  1  0  0  0  0
 15 13  1  6  0  0  0
 16 15  1  0  0  0  0
 17 18  1  0  0  0  0
 19 20  1  0  0  0  0
 20 21  1  0  0  0  0
 21 22  1  0  0  0  0
 21 23  1  0  0  0  0
 23 25  1  0  0  0  0
 23 24  1  0  0  0  0
 25 24  1  0  0  0  0
M  END
>  <MODEL>
5

>  <REMARK>
 VINA RESULT:      -7.1      2.632      6.032
  Name = 
  7 active torsions:
  status: ('A' for Active; 'I' for Inactive)
    1  A    between atoms: C_1  and  C_5
    2  A    between atoms: C_2  and  N_21
    3  A    between atoms: C_5  and  C_10
    4  A    between atoms: C_5  and  O_17
    5  A    between atoms: C_6  and  C_15
    6  A    between atoms: C_6  and  C_23
    7  A    between atoms: C_15  and  N_21
                            x       y       z     vdW  Elec       q    Type
                         _______ _______ _______ _____ _____    ______ ____

>  <TORSDO>
F 7

$$$$
=
 OpenBabel10262419533D

 25 28  0  0  1  0  0  0  0  0999 V2000
  183.9320  178.6710  142.7090 C   0  0  0  0  0  0  0  0  0  0  0  0
  185.0910  178.3410  143.4210 C   0  0  0  0  0  0  0  0  0  0  0  0
  182.8760  179.3250  144.7290 C   0  0  0  0  0  3  0  0  0  0  0  0
  183.9890  179.0030  145.4390 N   0  0  0  0  0  0  0  0  0  0  0  0
  186.2490  178.1780  145.5260 C   0  0  0  0  0  0  0  0  0  0  0  0
  186.3300  178.3590  147.2700 Cl  0  0  0  0  0  0  0  0  0  0  0  0
  186.1990  177.8590  142.7970 N   0  0  0  0  0  0  0  0  0  0  0  0
  182.8530  179.1600  143.3810 N   0  0  0  0  0  0  0  0  0  0  0  0
  187.3310  177.6960  144.8580 N   0  0  0  0  0  0  0  0  0  0  0  0
  187.3140  177.5440  143.5070 C   0  0  0  0  0  0  0  0  0  0  0  0
  185.0930  178.5160  144.8150 C   0  0  0  0  0  0  0  0  0  0  0  0
  183.8720  178.5050  141.2190 C   0  0  1  0  0  3  0  0  0  0  0  0
  182.6980  176.3180  139.8430 C   0  0  0  0  0  1  0  0  0  0  0  0
  182.4460  178.7380  140.7130 C   0  0  2  0  0  3  0  0  0  0  0  0
  181.8060  177.5440  139.9890 C   0  0  1  0  0  3  0  0  0  0  0  0
  182.4090  178.6890  139.1980 C   0  0  0  0  0  2  0  0  0  0  0  0
  184.7480  179.4060  140.6070 O   0  0  0  0  0  0  0  0  0  0  0  0
  185.5120  178.6280  139.7340 C   0  0  0  0  0  1  0  0  0  0  0  0
  188.5040  176.9880  142.8080 C   0  0  0  0  0  2  0  0  0  0  0  0
  189.7790  177.5930  143.3980 C   0  0  0  0  0  2  0  0  0  0  0  0
  190.5090  176.6590  144.2610 N   0  0  0  0  0  0  0  0  0  0  0  0
  191.6100  176.2330  143.5940 O   0  0  0  0  0  1  0  0  0  0  0  0
  190.9550  177.3530  145.4630 C   0  0  0  0  0  3  0  0  0  0  0  0
  191.6810  176.3780  146.3710 C   0  0  0  0  0  2  0  0  0  0  0  0
  190.2520  176.7700  146.6750 C   0  0  0  0  0  2  0  0  0  0  0  0
  1  8  2  0  0  0  0
  1  2  1  0  0  0  0
  2 11  2  0  0  0  0
  3  4  2  0  0  0  0
  5  6  1  0  0  0  0
  7  2  1  0  0  0  0
  7 10  2  0  0  0  0
  8  3  1  0  0  0  0
  9  5  2  0  0  0  0
 10  9  1  0  0  0  0
 11  4  1  0  0  0  0
 11  5  1  0  0  0  0
 12 17  1  6  0  0  0
 12  1  1  0  0  0  0
 14 12  1  6  0  0  0
 15 13  1  6  0  0  0
 15 14  1  0  0  0  0
 16 15  1  0  0  0  0
 16 14  1  0  0  0  0
 18 17  1  0  0  0  0
 19 20  1  0  0  0  0
 19 10  1  0  0  0  0
 20 21  1  0  0  0  0
 21 23  1  0  0  0  0
 22 21  1  0  0  0  0
 23 24  1  0  0  0  0
 23 25  1  0  0  0  0
 24 25  1  0  0  0  0
M  END
>  <MODEL>
6

>  <REMARK>
 VINA RESULT:      -7.0      2.809      6.550
  Name = 
  7 active torsions:
  status: ('A' for Active; 'I' for Inactive)
    1  A    between atoms: C_1  and  C_5
    2  A    between atoms: C_2  and  N_21
    3  A    between atoms: C_5  and  C_10
    4  A    between atoms: C_5  and  O_17
    5  A    between atoms: C_6  and  C_15
    6  A    between atoms: C_6  and  C_23
    7  A    between atoms: C_15  and  N_21
                            x       y       z     vdW  Elec       q    Type
                         _______ _______ _______ _____ _____    ______ ____

>  <TORSDO>
F 7

$$$$
=
 OpenBabel10262419533D

 25 28  0  0  1  0  0  0  0  0999 V2000
  190.1820  177.8050  142.1880 C   0  0  0  0  0  0  0  0  0  0  0  0
  189.1350  178.0140  141.2810 C   0  0  0  0  0  0  0  0  0  0  0  0
  191.6100  177.1860  140.3980 C   0  0  0  0  0  3  0  0  0  0  0  0
  190.6040  177.3760  139.5040 N   0  0  0  0  0  0  0  0  0  0  0  0
  188.3270  177.9860  139.0130 C   0  0  0  0  0  0  0  0  0  0  0  0
  188.5440  177.7130  137.2930 Cl  0  0  0  0  0  0  0  0  0  0  0  0
  187.9070  178.4290  141.6930 N   0  0  0  0  0  0  0  0  0  0  0  0
  191.3960  177.4000  141.7230 N   0  0  0  0  0  0  0  0  0  0  0  0
  187.1160  178.3970  139.4730 N   0  0  0  0  0  0  0  0  0  0  0  0
  186.9050  178.6250  140.7960 C   0  0  0  0  0  0  0  0  0  0  0  0
  189.3760  177.7850  139.9170 C   0  0  0  0  0  0  0  0  0  0  0  0
  189.9830  178.0350  143.6570 C   0  0  1  0  0  3  0  0  0  0  0  0
  187.5060  178.2130  145.0310 C   0  0  0  0  0  1  0  0  0  0  0  0
  189.5170  176.7460  144.3410 C   0  0  2  0  0  3  0  0  0  0  0  0
  188.1670  176.8420  145.0650 C   0  0  1  0  0  3  0  0  0  0  0  0
  189.4630  176.9370  145.8440 C   0  0  0  0  0  2  0  0  0  0  0  0
  191.1770  178.4760  144.2330 O   0  0  0  0  0  0  0  0  0  0  0  0
  191.1200  179.8690  144.1540 C   0  0  0  0  0  1  0  0  0  0  0  0
  185.5600  179.0480  141.2710 C   0  0  0  0  0  2  0  0  0  0  0  0
  184.4980  178.6360  140.2510 C   0  0  0  0  0  2  0  0  0  0  0  0
  183.6760  179.7610  139.7950 N   0  0  0  0  0  0  0  0  0  0  0  0
  184.4250  180.5260  138.9620 O   0  0  0  0  0  1  0  0  0  0  0  0
  182.5380  179.2570  139.0360 C   0  0  0  0  0  3  0  0  0  0  0  0
  181.8400  180.4120  138.3420 C   0  0  0  0  0  2  0  0  0  0  0  0
  181.2540  179.8290  139.6080 C   0  0  0  0  0  2  0  0  0  0  0  0
  1 12  1  0  0  0  0
  2  7  1  0  0  0  0
  2  1  2  0  0  0  0
  3  8  2  0  0  0  0
  4 11  2  0  0  0  0
  4  3  1  0  0  0  0
  5  9  2  0  0  0  0
  5 11  1  0  0  0  0
  6  5  1  0  0  0  0
  8  1  1  0  0  0  0
  9 10  1  0  0  0  0
 10 19  1  0  0  0  0
 10  7  2  0  0  0  0
 11  2  1  0  0  0  0
 12 17  1  1  0  0  0
 14 12  1  6  0  0  0
 14 15  1  0  0  0  0
 14 16  1  0  0  0  0
 15 13  1  6  0  0  0
 15 16  1  0  0  0  0
 18 17  1  0  0  0  0
 20 19  1  0  0  0  0
 21 20  1  0  0  0  0
 22 21  1  0  0  0  0
 23 25  1  0  0  0  0
 23 21  1  0  0  0  0
 24 23  1  0  0  0  0
 24 25  1  0  0  0  0
M  END
>  <MODEL>
7

>  <REMARK>
 VINA RESULT:      -7.0      3.574      5.764
  Name = 
  7 active torsions:
  status: ('A' for Active; 'I' for Inactive)
    1  A    between atoms: C_1  and  C_5
    2  A    between atoms: C_2  and  N_21
    3  A    between atoms: C_5  and  C_10
    4  A    between atoms: C_5  and  O_17
    5  A    between atoms: C_6  and  C_15
    6  A    between atoms: C_6  and  C_23
    7  A    between atoms: C_15  and  N_21
                            x       y       z     vdW  Elec       q    Type
                         _______ _______ _______ _____ _____    ______ ____

>  <TORSDO>
F 7

$$$$
=
 OpenBabel10262419533D

 25 28  0  0  1  0  0  0  0  0999 V2000
  189.8810  176.7170  137.9450 C   0  0  0  0  0  0  0  0  0  0  0  0
  189.5960  176.9770  139.2910 C   0  0  0  0  0  0  0  0  0  0  0  0
  188.0450  178.0710  137.2940 C   0  0  0  0  0  3  0  0  0  0  0  0
  187.7470  178.3280  138.5950 N   0  0  0  0  0  0  0  0  0  0  0  0
  188.2100  178.0500  140.9420 C   0  0  0  0  0  0  0  0  0  0  0  0
  186.8510  179.0590  141.4080 Cl  0  0  0  0  0  0  0  0  0  0  0  0
  190.3500  176.4530  140.2940 N   0  0  0  0  0  0  0  0  0  0  0  0
  189.1000  177.2760  136.9780 N   0  0  0  0  0  0  0  0  0  0  0  0
  188.9910  177.5010  141.9090 N   0  0  0  0  0  0  0  0  0  0  0  0
  190.0560  176.7160  141.5940 C   0  0  0  0  0  0  0  0  0  0  0  0
  188.4990  177.7990  139.5960 C   0  0  0  0  0  0  0  0  0  0  0  0
  191.0410  175.8470  137.5590 C   0  0  1  0  0  3  0  0  0  0  0  0
  193.1250  175.9450  135.6340 C   0  0  0  0  0  1  0  0  0  0  0  0
  192.3550  176.4660  138.0450 C   0  0  2  0  0  3  0  0  0  0  0  0
  193.4720  176.5360  136.9940 C   0  0  1  0  0  3  0  0  0  0  0  0
  193.4620  175.4300  138.0310 C   0  0  0  0  0  2  0  0  0  0  0  0
  190.8810  174.5730  138.1090 O   0  0  0  0  0  0  0  0  0  0  0  0
  190.2320  173.8340  137.1170 C   0  0  0  0  0  1  0  0  0  0  0  0
  190.8750  176.1070  142.6760 C   0  0  0  0  0  2  0  0  0  0  0  0
  191.3140  177.1900  143.6630 C   0  0  0  0  0  2  0  0  0  0  0  0
  190.8030  176.9680  145.0190 N   0  0  0  0  0  0  0  0  0  0  0  0
  191.8270  177.1280  145.8940 O   0  0  0  0  0  1  0  0  0  0  0  0
  189.7900  177.9700  145.3300 C   0  0  0  0  0  3  0  0  0  0  0  0
  189.2060  177.6930  146.7020 C   0  0  0  0  0  2  0  0  0  0  0  0
  188.4350  177.3000  145.4610 C   0  0  0  0  0  2  0  0  0  0  0  0
  1  2  1  0  0  0  0
  2 11  2  0  0  0  0
  2  7  1  0  0  0  0
  3  4  2  0  0  0  0
  4 11  1  0  0  0  0
  5  6  1  0  0  0  0
  5  9  2  0  0  0  0
  7 10  2  0  0  0  0
  8  3  1  0  0  0  0
  8  1  2  0  0  0  0
 10  9  1  0  0  0  0
 10 19  1  0  0  0  0
 11  5  1  0  0  0  0
 12  1  1  0  0  0  0
 12 17  1  1  0  0  0
 14 12  1  6  0  0  0
 15 13  1  6  0  0  0
 15 16  1  0  0  0  0
 15 14  1  0  0  0  0
 16 14  1  0  0  0  0
 18 17  1  0  0  0  0
 19 20  1  0  0  0  0
 20 21  1  0  0  0  0
 21 23  1  0  0  0  0
 21 22  1  0  0  0  0
 23 25  1  0  0  0  0
 23 24  1  0  0  0  0
 25 24  1  0  0  0  0
M  END
>  <MODEL>
8

>  <REMARK>
 VINA RESULT:      -6.9      2.785      7.241
  Name = 
  7 active torsions:
  status: ('A' for Active; 'I' for Inactive)
    1  A    between atoms: C_1  and  C_5
    2  A    between atoms: C_2  and  N_21
    3  A    between atoms: C_5  and  C_10
    4  A    between atoms: C_5  and  O_17
    5  A    between atoms: C_6  and  C_15
    6  A    between atoms: C_6  and  C_23
    7  A    between atoms: C_15  and  N_21
                            x       y       z     vdW  Elec       q    Type
                         _______ _______ _______ _____ _____    ______ ____

>  <TORSDO>
F 7

$$$$
=
 OpenBabel10262419533D

 25 28  0  0  1  0  0  0  0  0999 V2000
  184.0300  178.6580  142.7690 C   0  0  0  0  0  0  0  0  0  0  0  0
  185.1930  178.2480  143.4320 C   0  0  0  0  0  0  0  0  0  0  0  0
  183.0990  179.3610  144.8350 C   0  0  0  0  0  3  0  0  0  0  0  0
  184.2170  178.9610  145.4970 N   0  0  0  0  0  0  0  0  0  0  0  0
  186.4210  177.9920  145.4880 C   0  0  0  0  0  0  0  0  0  0  0  0
  186.5820  178.1520  147.2290 Cl  0  0  0  0  0  0  0  0  0  0  0  0
  186.2420  177.7020  142.7610 N   0  0  0  0  0  0  0  0  0  0  0  0
  183.0120  179.2090  143.4870 N   0  0  0  0  0  0  0  0  0  0  0  0
  187.4420  177.4480  144.7740 N   0  0  0  0  0  0  0  0  0  0  0  0
  187.3620  177.3090  143.4240 C   0  0  0  0  0  0  0  0  0  0  0  0
  185.2620  178.4110  144.8260 C   0  0  0  0  0  0  0  0  0  0  0  0
  183.9010  178.5100  141.2820 C   0  0  1  0  0  3  0  0  0  0  0  0
  182.8690  176.3440  139.7650 C   0  0  0  0  0  1  0  0  0  0  0  0
  182.4350  178.6450  140.8580 C   0  0  2  0  0  3  0  0  0  0  0  0
  181.8760  177.4610  140.0560 C   0  0  1  0  0  3  0  0  0  0  0  0
  182.3290  178.7230  139.3470 C   0  0  0  0  0  2  0  0  0  0  0  0
  184.6750  179.4820  140.6410 O   0  0  0  0  0  0  0  0  0  0  0  0
  185.5350  178.7630  139.8080 C   0  0  0  0  0  1  0  0  0  0  0  0
  188.4850  176.6850  142.6740 C   0  0  0  0  0  2  0  0  0  0  0  0
  189.7750  177.4650  142.9320 C   0  0  0  0  0  2  0  0  0  0  0  0
  190.5430  177.7200  141.7090 N   0  0  0  0  0  0  0  0  0  0  0  0
  191.8230  177.3220  141.9180 O   0  0  0  0  0  1  0  0  0  0  0  0
  189.9990  176.9210  140.6170 C   0  0  0  0  0  3  0  0  0  0  0  0
  190.9910  176.8890  139.4700 C   0  0  0  0  0  2  0  0  0  0  0  0
  189.7880  177.8030  139.4000 C   0  0  0  0  0  2  0  0  0  0  0  0
  1  2  2  0  0  0  0
  1  8  1  0  0  0  0
  2 11  1  0  0  0  0
  3  4  1  0  0  0  0
  5  6  1  0  0  0  0
  7 10  2  0  0  0  0
  7  2  1  0  0  0  0
  8  3  2  0  0  0  0
  9  5  2  0  0  0  0
 10  9  1  0  0  0  0
 11  5  1  0  0  0  0
 11  4  2  0  0  0  0
 12 17  1  6  0  0  0
 12  1  1  0  0  0  0
 14 12  1  6  0  0  0
 15 13  1  6  0  0  0
 15 14  1  0  0  0  0
 16 15  1  0  0  0  0
 16 14  1  0  0  0  0
 18 17  1  0  0  0  0
 19 20  1  0  0  0  0
 19 10  1  0  0  0  0
 21 22  1  0  0  0  0
 21 20  1  0  0  0  0
 23 21  1  0  0  0  0
 24 23  1  0  0  0  0
 25 24  1  0  0  0  0
 25 23  1  0  0  0  0
M  END
>  <MODEL>
9

>  <REMARK>
 VINA RESULT:      -6.7      2.863      5.919
  Name = 
  7 active torsions:
  status: ('A' for Active; 'I' for Inactive)
    1  A    between atoms: C_1  and  C_5
    2  A    between atoms: C_2  and  N_21
    3  A    between atoms: C_5  and  C_10
    4  A    between atoms: C_5  and  O_17
    5  A    between atoms: C_6  and  C_15
    6  A    between atoms: C_6  and  C_23
    7  A    between atoms: C_15  and  N_21
                            x       y       z     vdW  Elec       q    Type
                         _______ _______ _______ _____ _____    ______ ____

>  <TORSDO>
F 7

$$$$
