=
 OpenBabel10262423263D

 34 39  0  0  1  0  0  0  0  0999 V2000
  188.7590  178.0830  141.7480 C   0  0  0  0  0  0  0  0  0  0  0  0
  190.3990  176.2290  139.5380 C   0  0  0  0  0  2  0  0  0  0  0  0
  191.5060  177.5410  141.2870 N   0  0  0  0  0  2  0  0  0  0  0  0
  187.6770  177.6500  144.2430 N   0  0  0  0  0  0  0  0  0  0  0  0
  187.4440  178.3310  142.0000 N   0  0  0  0  0  0  0  0  0  0  0  0
  188.9990  177.4090  144.0570 C   0  0  0  0  0  0  0  0  0  0  0  0
  191.1650  176.7530  144.9200 C   0  0  0  0  0  3  0  0  0  0  0  0
  189.7980  176.9780  145.1190 C   0  0  0  0  0  3  0  0  0  0  0  0
  186.8940  178.1040  143.2260 C   0  0  0  0  0  0  0  0  0  0  0  0
  190.9390  177.3700  142.5870 C   0  0  0  0  0  0  0  0  0  0  0  0
  189.5730  177.6150  142.7880 C   0  0  0  0  0  0  0  0  0  0  0  0
  191.7360  176.9510  143.6570 C   0  0  0  0  0  3  0  0  0  0  0  0
  189.7140  176.2080  138.1630 C   0  0  0  0  0  2  0  0  0  0  0  0
  189.8590  177.5260  137.3970 C   0  0  2  0  0  3  0  0  0  0  0  0
  188.8890  178.6190  137.8830 C   0  0  0  0  0  2  0  0  0  0  0  0
  190.6550  177.6340  140.1040 C   0  0  2  0  0  3  0  0  0  0  0  0
  188.3150  178.3830  139.2840 C   0  0  0  0  0  2  0  0  0  0  0  0
  189.3630  178.4410  140.4050 C   0  0  1  0  0  3  0  0  0  0  0  0
  183.6290  178.9280  144.9950 C   0  0  0  0  0  3  0  0  0  0  0  0
  184.5510  178.3160  142.3770 C   0  0  0  0  0  3  0  0  0  0  0  0
  181.0370  178.9140  142.6650 C   0  0  0  0  0  0  0  0  0  0  0  0
  181.4660  179.0690  143.9060 O   0  0  0  0  0  0  0  0  0  0  0  0
  182.7630  178.8680  143.9070 C   0  0  0  0  0  0  0  0  0  0  0  0
  182.1060  178.5970  141.8250 C   0  0  0  0  0  0  0  0  0  0  0  0
  183.2080  178.5730  142.6470 C   0  0  0  0  0  0  0  0  0  0  0  0
  182.0800  178.3390  140.3570 C   0  0  0  0  0  1  0  0  0  0  0  0
  185.4610  178.3670  143.4540 C   0  0  0  0  0  0  0  0  0  0  0  0
  184.9910  178.6740  144.7560 C   0  0  0  0  0  3  0  0  0  0  0  0
  179.6270  179.0650  142.2810 C   0  0  0  0  0  0  0  0  0  0  0  0
  178.9310  178.0610  141.9760 O   0  0  0  0  0  0  0  0  0  0  0  0
  179.0520  180.3280  142.2560 O   0  0  0  0  0  1  0  0  0  0  0  0
  189.6550  177.2900  135.9780 N   0  0  0  0  0  2  0  0  0  0  0  0
  188.3050  177.7240  135.6630 C   0  0  0  0  0  2  0  0  0  0  0  0
  187.4680  176.5250  135.2710 C   0  0  0  0  0  1  0  0  0  0  0  0
  1  5  2  0  0  0  0
  1 11  1  0  0  0  0
  3 10  1  0  0  0  0
  5  9  1  0  0  0  0
  6  4  1  0  0  0  0
  6  8  1  0  0  0  0
  7  8  2  0  0  0  0
  9 27  1  0  0  0  0
  9  4  2  0  0  0  0
 10 11  1  0  0  0  0
 10 12  2  0  0  0  0
 11  6  2  0  0  0  0
 12  7  1  0  0  0  0
 13  2  1  0  0  0  0
 14 32  1  6  0  0  0
 14 15  1  0  0  0  0
 14 13  1  0  0  0  0
 15 17  1  0  0  0  0
 16  2  1  1  0  0  0
 16 18  1  0  0  0  0
 16  3  1  0  0  0  0
 18 17  1  6  0  0  0
 18  1  1  0  0  0  0
 20 25  2  0  0  0  0
 20 27  1  0  0  0  0
 21 22  1  0  0  0  0
 22 23  1  0  0  0  0
 23 19  2  0  0  0  0
 24 25  1  0  0  0  0
 24 21  2  0  0  0  0
 25 23  1  0  0  0  0
 26 24  1  0  0  0  0
 27 28  2  0  0  0  0
 28 19  1  0  0  0  0
 29 21  1  0  0  0  0
 30 29  2  0  0  0  0
 31 29  1  0  0  0  0
 33 32  1  0  0  0  0
 34 33  1  0  0  0  0
M  END
>  <MODEL>
1

>  <REMARK>
 VINA RESULT:      -9.9      0.000      0.000
  Name = 
  4 active torsions:
  status: ('A' for Active; 'I' for Inactive)
    1  A    between atoms: N_3  and  C_13
    2  A    between atoms: N_3  and  C_25
    3  A    between atoms: C_7  and  C_11
    4  A    between atoms: C_18  and  C_30
                            x       y       z     vdW  Elec       q    Type
                         _______ _______ _______ _____ _____    ______ ____

>  <TORSDO>
F 4

$$$$
=
 OpenBabel10262423263D

 34 39  0  0  1  0  0  0  0  0999 V2000
  187.6080  177.4220  144.0840 C   0  0  0  0  0  0  0  0  0  0  0  0
  185.4770  179.6110  145.3770 C   0  0  0  0  0  2  0  0  0  0  0  0
  186.2990  177.6460  146.5900 N   0  0  0  0  0  2  0  0  0  0  0  0
  190.3510  177.1860  143.9870 N   0  0  0  0  0  0  0  0  0  0  0  0
  188.2660  177.3140  142.8960 N   0  0  0  0  0  0  0  0  0  0  0  0
  189.7460  177.2640  145.2000 C   0  0  0  0  0  0  0  0  0  0  0  0
  189.8660  177.2580  147.6180 C   0  0  0  0  0  3  0  0  0  0  0  0
  190.5020  177.1980  146.3730 C   0  0  0  0  0  3  0  0  0  0  0  0
  189.6240  177.2140  142.8360 C   0  0  0  0  0  0  0  0  0  0  0  0
  187.7150  177.4740  146.5230 C   0  0  0  0  0  0  0  0  0  0  0  0
  188.3470  177.3940  145.2740 C   0  0  0  0  0  0  0  0  0  0  0  0
  188.4740  177.3930  147.6940 C   0  0  0  0  0  3  0  0  0  0  0  0
  184.5110  180.1830  144.3280 C   0  0  0  0  0  2  0  0  0  0  0  0
  183.4470  179.1790  143.8760 C   0  0  2  0  0  3  0  0  0  0  0  0
  183.9750  178.1540  142.8560 C   0  0  0  0  0  2  0  0  0  0  0  0
  185.5390  178.0760  145.4190 C   0  0  2  0  0  3  0  0  0  0  0  0
  185.5010  178.0100  142.8300 C   0  0  0  0  0  2  0  0  0  0  0  0
  186.0930  177.4280  144.1230 C   0  0  1  0  0  3  0  0  0  0  0  0
  192.3480  177.3330  140.1830 C   0  0  0  0  0  3  0  0  0  0  0  0
  189.5770  176.7300  140.3820 C   0  0  0  0  0  3  0  0  0  0  0  0
  190.9830  176.4230  137.1080 C   0  0  0  0  0  0  0  0  0  0  0  0
  192.0170  176.8040  137.8400 O   0  0  0  0  0  0  0  0  0  0  0  0
  191.6000  176.9460  139.0760 C   0  0  0  0  0  0  0  0  0  0  0  0
  189.8450  176.3150  137.9090 C   0  0  0  0  0  0  0  0  0  0  0  0
  190.2650  176.6560  139.1720 C   0  0  0  0  0  0  0  0  0  0  0  0
  188.4670  175.9170  137.5030 C   0  0  0  0  0  1  0  0  0  0  0  0
  190.3010  177.1200  141.5290 C   0  0  0  0  0  0  0  0  0  0  0  0
  191.6830  177.4170  141.4200 C   0  0  0  0  0  3  0  0  0  0  0  0
  191.0760  176.1660  135.6650 C   0  0  0  0  0  0  0  0  0  0  0  0
  191.8930  175.3220  135.2120 O   0  0  0  0  0  1  0  0  0  0  0  0
  190.2510  176.8580  134.7880 O   0  0  0  0  0  0  0  0  0  0  0  0
  182.3150  179.8910  143.3090 N   0  0  0  0  0  2  0  0  0  0  0  0
  181.3580  178.8900  142.8690 C   0  0  0  0  0  2  0  0  0  0  0  0
  180.4330  178.5390  144.0150 C   0  0  0  0  0  1  0  0  0  0  0  0
  1 18  1  0  0  0  0
  1 11  1  0  0  0  0
  4  6  1  0  0  0  0
  5  1  2  0  0  0  0
  6 11  2  0  0  0  0
  6  8  1  0  0  0  0
  7 12  1  0  0  0  0
  8  7  2  0  0  0  0
  9  5  1  0  0  0  0
  9  4  2  0  0  0  0
 10  3  1  0  0  0  0
 10 12  2  0  0  0  0
 11 10  1  0  0  0  0
 13  2  1  0  0  0  0
 14 32  1  6  0  0  0
 14 13  1  0  0  0  0
 15 14  1  0  0  0  0
 16  2  1  6  0  0  0
 16  3  1  0  0  0  0
 17 15  1  0  0  0  0
 18 17  1  6  0  0  0
 18 16  1  0  0  0  0
 19 28  1  0  0  0  0
 20 27  1  0  0  0  0
 21 22  1  0  0  0  0
 21 24  2  0  0  0  0
 22 23  1  0  0  0  0
 23 25  1  0  0  0  0
 23 19  2  0  0  0  0
 24 25  1  0  0  0  0
 25 20  2  0  0  0  0
 26 24  1  0  0  0  0
 27  9  1  0  0  0  0
 28 27  2  0  0  0  0
 29 21  1  0  0  0  0
 30 29  1  0  0  0  0
 31 29  2  0  0  0  0
 33 32  1  0  0  0  0
 33 34  1  0  0  0  0
M  END
>  <MODEL>
2

>  <REMARK>
 VINA RESULT:      -9.5      4.392      8.224
  Name = 
  4 active torsions:
  status: ('A' for Active; 'I' for Inactive)
    1  A    between atoms: N_3  and  C_13
    2  A    between atoms: N_3  and  C_25
    3  A    between atoms: C_7  and  C_11
    4  A    between atoms: C_18  and  C_30
                            x       y       z     vdW  Elec       q    Type
                         _______ _______ _______ _____ _____    ______ ____

>  <TORSDO>
F 4

$$$$
=
 OpenBabel10262423263D

 34 39  0  0  1  0  0  0  0  0999 V2000
  188.3220  177.5770  138.7620 C   0  0  0  0  0  0  0  0  0  0  0  0
  185.9010  176.2990  136.8870 C   0  0  0  0  0  2  0  0  0  0  0  0
  187.8580  177.4530  135.9660 N   0  0  0  0  0  2  0  0  0  0  0  0
  190.6940  176.6380  139.8000 N   0  0  0  0  0  0  0  0  0  0  0  0
  188.5740  177.6210  140.1000 N   0  0  0  0  0  0  0  0  0  0  0  0
  190.5080  176.5920  138.4560 C   0  0  0  0  0  0  0  0  0  0  0  0
  191.3190  176.0810  136.2330 C   0  0  0  0  0  3  0  0  0  0  0  0
  191.5130  176.1030  137.6180 C   0  0  0  0  0  3  0  0  0  0  0  0
  189.7370  177.1430  140.6260 C   0  0  0  0  0  0  0  0  0  0  0  0
  189.1010  177.0160  136.5170 C   0  0  0  0  0  0  0  0  0  0  0  0
  189.3010  177.0580  137.9040 C   0  0  0  0  0  0  0  0  0  0  0  0
  190.1160  176.5380  135.6810 C   0  0  0  0  0  3  0  0  0  0  0  0
  184.5210  176.4060  137.5540 C   0  0  0  0  0  2  0  0  0  0  0  0
  183.9680  177.8330  137.5700 C   0  0  2  0  0  3  0  0  0  0  0  0
  184.5880  178.7120  138.6720 C   0  0  0  0  0  2  0  0  0  0  0  0
  186.6800  177.6220  136.8130 C   0  0  2  0  0  3  0  0  0  0  0  0
  185.9210  178.1950  139.2230 C   0  0  0  0  0  2  0  0  0  0  0  0
  187.0650  178.2080  138.1980 C   0  0  1  0  0  3  0  0  0  0  0  0
  191.5200  177.1560  143.9860 C   0  0  0  0  0  3  0  0  0  0  0  0
  188.8720  177.3160  142.9670 C   0  0  0  0  0  3  0  0  0  0  0  0
  189.1560  177.4560  146.5290 C   0  0  0  0  0  0  0  0  0  0  0  0
  190.4130  177.3400  146.1360 O   0  0  0  0  0  0  0  0  0  0  0  0
  190.4170  177.2800  144.8250 C   0  0  0  0  0  0  0  0  0  0  0  0
  188.3080  177.4720  145.4200 C   0  0  0  0  0  0  0  0  0  0  0  0
  189.1420  177.3570  144.3330 C   0  0  0  0  0  0  0  0  0  0  0  0
  186.8220  177.5870  145.3970 C   0  0  0  0  0  1  0  0  0  0  0  0
  189.9640  177.1910  142.0830 C   0  0  0  0  0  0  0  0  0  0  0  0
  191.2810  177.1120  142.6010 C   0  0  0  0  0  3  0  0  0  0  0  0
  188.7640  177.5510  147.9420 C   0  0  0  0  0  0  0  0  0  0  0  0
  187.9410  176.7370  148.4380 O   0  0  0  0  0  0  0  0  0  0  0  0
  189.3070  178.5480  148.7410 O   0  0  0  0  0  1  0  0  0  0  0  0
  182.5250  177.7950  137.7330 N   0  0  0  0  0  2  0  0  0  0  0  0
  182.2060  176.5640  138.4350 C   0  0  0  0  0  2  0  0  0  0  0  0
  181.5380  176.8940  139.7530 C   0  0  0  0  0  1  0  0  0  0  0  0
  1  5  2  0  0  0  0
  2 13  1  0  0  0  0
  3 10  1  0  0  0  0
  3 16  1  0  0  0  0
  4  9  2  0  0  0  0
  5  9  1  0  0  0  0
  6  4  1  0  0  0  0
  7  8  1  0  0  0  0
  8  6  2  0  0  0  0
  9 27  1  0  0  0  0
 10 11  2  0  0  0  0
 11  6  1  0  0  0  0
 11  1  1  0  0  0  0
 12  7  2  0  0  0  0
 12 10  1  0  0  0  0
 13 14  1  0  0  0  0
 14 32  1  1  0  0  0
 14 15  1  0  0  0  0
 15 17  1  0  0  0  0
 16  2  1  1  0  0  0
 16 18  1  0  0  0  0
 18  1  1  0  0  0  0
 18 17  1  1  0  0  0
 19 23  1  0  0  0  0
 20 25  1  0  0  0  0
 21 29  1  0  0  0  0
 22 21  1  0  0  0  0
 23 22  1  0  0  0  0
 24 21  2  0  0  0  0
 25 23  2  0  0  0  0
 25 24  1  0  0  0  0
 26 24  1  0  0  0  0
 27 28  1  0  0  0  0
 27 20  2  0  0  0  0
 28 19  2  0  0  0  0
 29 30  2  0  0  0  0
 29 31  1  0  0  0  0
 32 33  1  0  0  0  0
 33 34  1  0  0  0  0
M  END
>  <MODEL>
3

>  <REMARK>
 VINA RESULT:      -9.0      3.777      6.931
  Name = 
  4 active torsions:
  status: ('A' for Active; 'I' for Inactive)
    1  A    between atoms: N_3  and  C_13
    2  A    between atoms: N_3  and  C_25
    3  A    between atoms: C_7  and  C_11
    4  A    between atoms: C_18  and  C_30
                            x       y       z     vdW  Elec       q    Type
                         _______ _______ _______ _____ _____    ______ ____

>  <TORSDO>
F 4

$$$$
=
 OpenBabel10262423263D

 34 39  0  0  1  0  0  0  0  0999 V2000
  181.9090  179.0540  140.6980 C   0  0  0  0  0  0  0  0  0  0  0  0
  179.9460  181.4480  139.5060 C   0  0  0  0  0  2  0  0  0  0  0  0
  179.1010  179.4590  140.6630 N   0  0  0  0  0  2  0  0  0  0  0  0
  183.1960  178.5900  143.0890 N   0  0  0  0  0  0  0  0  0  0  0  0
  183.2560  178.8570  140.7480 N   0  0  0  0  0  0  0  0  0  0  0  0
  181.8490  178.7540  143.0960 C   0  0  0  0  0  0  0  0  0  0  0  0
  179.7390  178.8090  144.2830 C   0  0  0  0  0  3  0  0  0  0  0  0
  181.1300  178.6600  144.2900 C   0  0  0  0  0  3  0  0  0  0  0  0
  183.9060  178.6450  141.9270 C   0  0  0  0  0  0  0  0  0  0  0  0
  179.7790  179.1690  141.8860 C   0  0  0  0  0  0  0  0  0  0  0  0
  181.1710  179.0000  141.8880 C   0  0  0  0  0  0  0  0  0  0  0  0
  179.0630  179.0610  143.0830 C   0  0  0  0  0  3  0  0  0  0  0  0
  180.4920  182.0660  138.2090 C   0  0  0  0  0  2  0  0  0  0  0  0
  180.3610  181.1410  136.9970 C   0  0  2  0  0  3  0  0  0  0  0  0
  181.4420  180.0450  136.9510 C   0  0  0  0  0  2  0  0  0  0  0  0
  179.8390  179.9150  139.4870 C   0  0  2  0  0  3  0  0  0  0  0  0
  182.1330  179.7760  138.2920 C   0  0  0  0  0  2  0  0  0  0  0  0
  181.2030  179.1860  139.3640 C   0  0  1  0  0  3  0  0  0  0  0  0
  187.5190  178.4780  140.7520 C   0  0  0  0  0  3  0  0  0  0  0  0
  186.0220  178.0790  143.1350 C   0  0  0  0  0  3  0  0  0  0  0  0
  189.5480  177.5610  143.4330 C   0  0  0  0  0  0  0  0  0  0  0  0
  189.4040  177.8930  142.1620 O   0  0  0  0  0  0  0  0  0  0  0  0
  188.1270  178.1060  141.9470 C   0  0  0  0  0  0  0  0  0  0  0  0
  188.3060  177.5610  144.0710 C   0  0  0  0  0  0  0  0  0  0  0  0
  187.4050  177.9150  143.0940 C   0  0  0  0  0  0  0  0  0  0  0  0
  188.0010  177.2480  145.4960 C   0  0  0  0  0  1  0  0  0  0  0  0
  185.3680  178.4560  141.9420 C   0  0  0  0  0  0  0  0  0  0  0  0
  186.1240  178.6530  140.7590 C   0  0  0  0  0  3  0  0  0  0  0  0
  190.8500  177.2490  144.0370 C   0  0  0  0  0  0  0  0  0  0  0  0
  191.4120  178.0630  144.8160 O   0  0  0  0  0  1  0  0  0  0  0  0
  191.4710  176.0410  143.7480 O   0  0  0  0  0  0  0  0  0  0  0  0
  180.4110  181.9260  135.7760 N   0  0  0  0  0  2  0  0  0  0  0  0
  180.0050  183.2770  136.1200 C   0  0  0  0  0  2  0  0  0  0  0  0
  180.7980  184.2680  135.2930 C   0  0  0  0  0  1  0  0  0  0  0  0
  1  5  2  0  0  0  0
  1 11  1  0  0  0  0
  3 10  1  0  0  0  0
  4  6  1  0  0  0  0
  5  9  1  0  0  0  0
  6  8  1  0  0  0  0
  7  8  2  0  0  0  0
  9 27  1  0  0  0  0
  9  4  2  0  0  0  0
 10 11  1  0  0  0  0
 10 12  2  0  0  0  0
 11  6  2  0  0  0  0
 12  7  1  0  0  0  0
 13  2  1  0  0  0  0
 14 32  1  6  0  0  0
 14 13  1  0  0  0  0
 15 14  1  0  0  0  0
 15 17  1  0  0  0  0
 16  2  1  1  0  0  0
 16  3  1  0  0  0  0
 18 17  1  6  0  0  0
 18 16  1  0  0  0  0
 18  1  1  0  0  0  0
 19 28  2  0  0  0  0
 19 23  1  0  0  0  0
 21 29  1  0  0  0  0
 21 24  2  0  0  0  0
 22 21  1  0  0  0  0
 23 22  1  0  0  0  0
 23 25  2  0  0  0  0
 24 26  1  0  0  0  0
 25 20  1  0  0  0  0
 25 24  1  0  0  0  0
 27 20  2  0  0  0  0
 28 27  1  0  0  0  0
 29 30  1  0  0  0  0
 31 29  2  0  0  0  0
 32 33  1  0  0  0  0
 34 33  1  0  0  0  0
M  END
>  <MODEL>
4

>  <REMARK>
 VINA RESULT:      -8.8      4.581      8.883
  Name = 
  4 active torsions:
  status: ('A' for Active; 'I' for Inactive)
    1  A    between atoms: N_3  and  C_13
    2  A    between atoms: N_3  and  C_25
    3  A    between atoms: C_7  and  C_11
    4  A    between atoms: C_18  and  C_30
                            x       y       z     vdW  Elec       q    Type
                         _______ _______ _______ _____ _____    ______ ____

>  <TORSDO>
F 4

$$$$
=
 OpenBabel10262423263D

 34 39  0  0  1  0  0  0  0  0999 V2000
  187.9040  178.1630  143.2280 C   0  0  0  0  0  0  0  0  0  0  0  0
  190.3110  176.1470  142.1580 C   0  0  0  0  0  2  0  0  0  0  0  0
  190.5840  177.7010  144.0340 N   0  0  0  0  0  2  0  0  0  0  0  0
  185.8660  177.9680  145.0720 N   0  0  0  0  0  0  0  0  0  0  0  0
  186.6060  178.3770  142.8720 N   0  0  0  0  0  0  0  0  0  0  0  0
  187.1420  177.7690  145.4880 C   0  0  0  0  0  0  0  0  0  0  0  0
  188.7370  177.3180  147.2550 C   0  0  0  0  0  3  0  0  0  0  0  0
  187.4150  177.5000  146.8320 C   0  0  0  0  0  3  0  0  0  0  0  0
  185.5890  178.2660  143.7720 C   0  0  0  0  0  0  0  0  0  0  0  0
  189.5200  177.6530  144.9860 C   0  0  0  0  0  0  0  0  0  0  0  0
  188.1990  177.8550  144.5640 C   0  0  0  0  0  0  0  0  0  0  0  0
  189.7890  177.3960  146.3340 C   0  0  0  0  0  3  0  0  0  0  0  0
  190.2710  175.9370  140.6360 C   0  0  0  0  0  2  0  0  0  0  0  0
  190.7340  177.1640  139.8460 C   0  0  2  0  0  3  0  0  0  0  0  0
  189.6560  178.2590  139.7410 C   0  0  0  0  0  2  0  0  0  0  0  0
  190.3130  177.6180  142.6010 C   0  0  2  0  0  3  0  0  0  0  0  0
  188.5420  178.1580  140.7890 C   0  0  0  0  0  2  0  0  0  0  0  0
  189.0200  178.3930  142.2300 C   0  0  1  0  0  3  0  0  0  0  0  0
  181.8610  179.0080  143.9130 C   0  0  0  0  0  3  0  0  0  0  0  0
  183.8500  178.3930  141.9780 C   0  0  0  0  0  3  0  0  0  0  0  0
  180.5520  178.8830  140.6850 C   0  0  0  0  0  0  0  0  0  0  0  0
  180.3910  179.0680  141.9840 O   0  0  0  0  0  0  0  0  0  0  0  0
  181.5600  178.9070  142.5580 C   0  0  0  0  0  0  0  0  0  0  0  0
  181.8880  178.5900  140.4060 C   0  0  0  0  0  0  0  0  0  0  0  0
  182.5190  178.6110  141.6270 C   0  0  0  0  0  0  0  0  0  0  0  0
  182.5140  178.3130  139.0810 C   0  0  0  0  0  1  0  0  0  0  0  0
  184.1950  178.4870  143.3430 C   0  0  0  0  0  0  0  0  0  0  0  0
  183.1960  178.7940  144.3000 C   0  0  0  0  0  3  0  0  0  0  0  0
  179.4500  178.9850  139.7190 C   0  0  0  0  0  0  0  0  0  0  0  0
  178.9310  177.9510  139.2230 O   0  0  0  0  0  0  0  0  0  0  0  0
  178.9720  180.2350  139.3490 O   0  0  0  0  0  1  0  0  0  0  0  0
  191.1460  176.7580  138.5130 N   0  0  0  0  0  2  0  0  0  0  0  0
  190.0640  177.1020  137.6080 C   0  0  0  0  0  2  0  0  0  0  0  0
  189.3140  175.8450  137.2190 C   0  0  0  0  0  1  0  0  0  0  0  0
  1 11  1  0  0  0  0
  3 10  1  0  0  0  0
  4  6  1  0  0  0  0
  5  1  2  0  0  0  0
  5  9  1  0  0  0  0
  6  8  1  0  0  0  0
  8  7  2  0  0  0  0
  9  4  2  0  0  0  0
 10 12  2  0  0  0  0
 11 10  1  0  0  0  0
 11  6  2  0  0  0  0
 12  7  1  0  0  0  0
 13  2  1  0  0  0  0
 14 32  1  6  0  0  0
 14 13  1  0  0  0  0
 15 14  1  0  0  0  0
 15 17  1  0  0  0  0
 16  2  1  1  0  0  0
 16  3  1  0  0  0  0
 18 17  1  6  0  0  0
 18 16  1  0  0  0  0
 18  1  1  0  0  0  0
 19 28  1  0  0  0  0
 20 27  1  0  0  0  0
 21 22  1  0  0  0  0
 22 23  1  0  0  0  0
 23 19  2  0  0  0  0
 24 21  2  0  0  0  0
 24 25  1  0  0  0  0
 25 20  2  0  0  0  0
 25 23  1  0  0  0  0
 26 24  1  0  0  0  0
 27  9  1  0  0  0  0
 27 28  2  0  0  0  0
 29 21  1  0  0  0  0
 30 29  2  0  0  0  0
 31 29  1  0  0  0  0
 33 32  1  0  0  0  0
 34 33  1  0  0  0  0
M  END
>  <MODEL>
5

>  <REMARK>
 VINA RESULT:      -8.7      1.610      2.301
  Name = 
  4 active torsions:
  status: ('A' for Active; 'I' for Inactive)
    1  A    between atoms: N_3  and  C_13
    2  A    between atoms: N_3  and  C_25
    3  A    between atoms: C_7  and  C_11
    4  A    between atoms: C_18  and  C_30
                            x       y       z     vdW  Elec       q    Type
                         _______ _______ _______ _____ _____    ______ ____

>  <TORSDO>
F 4

$$$$
=
 OpenBabel10262423263D

 34 39  0  0  1  0  0  0  0  0999 V2000
  190.3630  176.0080  138.1330 C   0  0  0  0  0  0  0  0  0  0  0  0
  192.2790  176.3810  135.4510 C   0  0  0  0  0  2  0  0  0  0  0  0
  189.9060  175.7780  135.3430 N   0  0  0  0  0  2  0  0  0  0  0  0
  188.7750  177.6720  139.6490 N   0  0  0  0  0  0  0  0  0  0  0  0
  190.5580  176.1410  139.4750 N   0  0  0  0  0  0  0  0  0  0  0  0
  188.5190  177.5590  138.3210 C   0  0  0  0  0  0  0  0  0  0  0  0
  187.1830  178.1120  136.3780 C   0  0  0  0  0  3  0  0  0  0  0  0
  187.4520  178.2530  137.7440 C   0  0  0  0  0  3  0  0  0  0  0  0
  189.7900  176.9750  140.2310 C   0  0  0  0  0  0  0  0  0  0  0  0
  189.0620  176.5980  136.1530 C   0  0  0  0  0  0  0  0  0  0  0  0
  189.3210  176.7220  137.5250 C   0  0  0  0  0  0  0  0  0  0  0  0
  187.9850  177.2850  135.5830 C   0  0  0  0  0  3  0  0  0  0  0  0
  193.7270  175.9290  135.6940 C   0  0  0  0  0  2  0  0  0  0  0  0
  193.8780  174.4080  135.7820 C   0  0  2  0  0  3  0  0  0  0  0  0
  193.4510  173.8340  137.1450 C   0  0  0  0  0  2  0  0  0  0  0  0
  191.2130  175.3400  135.8250 C   0  0  2  0  0  3  0  0  0  0  0  0
  192.5450  174.7560  137.9680 C   0  0  0  0  0  2  0  0  0  0  0  0
  191.1650  174.9980  137.3380 C   0  0  1  0  0  3  0  0  0  0  0  0
  191.6420  177.2600  143.5420 C   0  0  0  0  0  3  0  0  0  0  0  0
  188.9670  177.2060  142.5820 C   0  0  0  0  0  3  0  0  0  0  0  0
  189.3190  177.5340  146.1250 C   0  0  0  0  0  0  0  0  0  0  0  0
  190.5720  177.4780  145.7070 O   0  0  0  0  0  0  0  0  0  0  0  0
  190.5510  177.3550  144.4010 C   0  0  0  0  0  0  0  0  0  0  0  0
  188.4480  177.4440  145.0390 C   0  0  0  0  0  0  0  0  0  0  0  0
  189.2640  177.3290  143.9380 C   0  0  0  0  0  0  0  0  0  0  0  0
  186.9570  177.4650  145.0480 C   0  0  0  0  0  1  0  0  0  0  0  0
  190.0460  177.1060  141.6780 C   0  0  0  0  0  0  0  0  0  0  0  0
  191.3760  177.1350  142.1660 C   0  0  0  0  0  3  0  0  0  0  0  0
  188.9530  177.6730  147.5420 C   0  0  0  0  0  0  0  0  0  0  0  0
  189.4120  178.6170  148.2370 O   0  0  0  0  0  1  0  0  0  0  0  0
  188.0900  176.7540  148.1220 O   0  0  0  0  0  0  0  0  0  0  0  0
  195.2560  174.0380  135.5080 N   0  0  0  0  0  2  0  0  0  0  0  0
  196.0690  175.2210  135.7310 C   0  0  0  0  0  2  0  0  0  0  0  0
  197.2190  174.8760  136.6530 C   0  0  0  0  0  1  0  0  0  0  0  0
  1  5  2  0  0  0  0
  2 13  1  0  0  0  0
  3 16  1  0  0  0  0
  3 10  1  0  0  0  0
  4  9  2  0  0  0  0
  5  9  1  0  0  0  0
  6  4  1  0  0  0  0
  7  8  2  0  0  0  0
  8  6  1  0  0  0  0
  9 27  1  0  0  0  0
 10 11  1  0  0  0  0
 11  1  1  0  0  0  0
 11  6  2  0  0  0  0
 12 10  2  0  0  0  0
 12  7  1  0  0  0  0
 13 14  1  0  0  0  0
 14 32  1  1  0  0  0
 14 15  1  0  0  0  0
 15 17  1  0  0  0  0
 16  2  1  1  0  0  0
 16 18  1  0  0  0  0
 18 17  1  1  0  0  0
 18  1  1  0  0  0  0
 19 23  1  0  0  0  0
 20 25  1  0  0  0  0
 21 29  1  0  0  0  0
 22 21  1  0  0  0  0
 23 22  1  0  0  0  0
 24 26  1  0  0  0  0
 24 21  2  0  0  0  0
 25 23  2  0  0  0  0
 25 24  1  0  0  0  0
 27 28  1  0  0  0  0
 27 20  2  0  0  0  0
 28 19  2  0  0  0  0
 29 31  2  0  0  0  0
 29 30  1  0  0  0  0
 32 33  1  0  0  0  0
 33 34  1  0  0  0  0
M  END
>  <MODEL>
6

>  <REMARK>
 VINA RESULT:      -8.7      4.322      7.275
  Name = 
  4 active torsions:
  status: ('A' for Active; 'I' for Inactive)
    1  A    between atoms: N_3  and  C_13
    2  A    between atoms: N_3  and  C_25
    3  A    between atoms: C_7  and  C_11
    4  A    between atoms: C_18  and  C_30
                            x       y       z     vdW  Elec       q    Type
                         _______ _______ _______ _____ _____    ______ ____

>  <TORSDO>
F 4

$$$$
=
 OpenBabel10262423263D

 34 39  0  0  1  0  0  0  0  0999 V2000
  188.7320  177.1780  138.3780 C   0  0  0  0  0  0  0  0  0  0  0  0
  187.7990  175.2240  135.8640 C   0  0  0  0  0  2  0  0  0  0  0  0
  189.7060  176.7590  135.7470 N   0  0  0  0  0  2  0  0  0  0  0  0
  190.4360  176.9200  140.5280 N   0  0  0  0  0  0  0  0  0  0  0  0
  188.2940  177.3710  139.6540 N   0  0  0  0  0  0  0  0  0  0  0  0
  190.9330  176.7410  139.2780 C   0  0  0  0  0  0  0  0  0  0  0  0
  192.7940  176.2990  137.7930 C   0  0  0  0  0  3  0  0  0  0  0  0
  192.2880  176.4600  139.0880 C   0  0  0  0  0  3  0  0  0  0  0  0
  189.1240  177.2290  140.7260 C   0  0  0  0  0  0  0  0  0  0  0  0
  190.5860  176.6780  136.8700 C   0  0  0  0  0  0  0  0  0  0  0  0
  190.0800  176.8600  138.1650 C   0  0  0  0  0  0  0  0  0  0  0  0
  191.9460  176.4100  136.6850 C   0  0  0  0  0  3  0  0  0  0  0  0
  186.2760  175.0330  135.8010 C   0  0  0  0  0  2  0  0  0  0  0  0
  185.5310  176.2790  135.3130 C   0  0  2  0  0  3  0  0  0  0  0  0
  185.3690  177.3540  136.4040 C   0  0  0  0  0  2  0  0  0  0  0  0
  188.2580  176.6900  135.9230 C   0  0  2  0  0  3  0  0  0  0  0  0
  186.3400  177.2170  137.5820 C   0  0  0  0  0  2  0  0  0  0  0  0
  187.8120  177.4430  137.2040 C   0  0  1  0  0  3  0  0  0  0  0  0
  186.7410  177.9910  143.5910 C   0  0  0  0  0  3  0  0  0  0  0  0
  189.4570  177.2460  143.2050 C   0  0  0  0  0  3  0  0  0  0  0  0
  188.4490  177.6620  146.6100 C   0  0  0  0  0  0  0  0  0  0  0  0
  187.3420  177.9300  145.9400 O   0  0  0  0  0  0  0  0  0  0  0  0
  187.6100  177.8040  144.6610 C   0  0  0  0  0  0  0  0  0  0  0  0
  189.4810  177.3470  145.7250 C   0  0  0  0  0  0  0  0  0  0  0  0
  188.9180  177.4450  144.4740 C   0  0  0  0  0  0  0  0  0  0  0  0
  190.8910  176.9820  146.0430 C   0  0  0  0  0  1  0  0  0  0  0  0
  188.6070  177.4270  142.0930 C   0  0  0  0  0  0  0  0  0  0  0  0
  187.2540  177.7980  142.2960 C   0  0  0  0  0  3  0  0  0  0  0  0
  188.5270  177.7030  148.0770 C   0  0  0  0  0  0  0  0  0  0  0  0
  187.7180  177.0460  148.7840 O   0  0  0  0  0  1  0  0  0  0  0  0
  189.5030  178.4740  148.6930 O   0  0  0  0  0  0  0  0  0  0  0  0
  184.2250  175.8990  134.8060 N   0  0  0  0  0  2  0  0  0  0  0  0
  183.8570  174.6560  135.4620 C   0  0  0  0  0  2  0  0  0  0  0  0
  182.5030  174.8160  136.1220 C   0  0  0  0  0  1  0  0  0  0  0  0
  1  5  2  0  0  0  0
  3 16  1  0  0  0  0
  3 10  1  0  0  0  0
  4  9  2  0  0  0  0
  5  9  1  0  0  0  0
  6  4  1  0  0  0  0
  7  8  2  0  0  0  0
  8  6  1  0  0  0  0
  9 27  1  0  0  0  0
 10 11  1  0  0  0  0
 11  1  1  0  0  0  0
 11  6  2  0  0  0  0
 12 10  2  0  0  0  0
 12  7  1  0  0  0  0
 13  2  1  0  0  0  0
 14 32  1  1  0  0  0
 14 13  1  0  0  0  0
 14 15  1  0  0  0  0
 15 17  1  0  0  0  0
 16  2  1  1  0  0  0
 16 18  1  0  0  0  0
 18 17  1  1  0  0  0
 18  1  1  0  0  0  0
 19 23  1  0  0  0  0
 20 25  1  0  0  0  0
 21 29  1  0  0  0  0
 22 21  1  0  0  0  0
 23 22  1  0  0  0  0
 24 26  1  0  0  0  0
 24 21  2  0  0  0  0
 25 23  2  0  0  0  0
 25 24  1  0  0  0  0
 27 28  1  0  0  0  0
 27 20  2  0  0  0  0
 28 19  2  0  0  0  0
 29 31  2  0  0  0  0
 29 30  1  0  0  0  0
 32 33  1  0  0  0  0
 33 34  1  0  0  0  0
M  END
>  <MODEL>
7

>  <REMARK>
 VINA RESULT:      -8.5      3.699      6.293
  Name = 
  4 active torsions:
  status: ('A' for Active; 'I' for Inactive)
    1  A    between atoms: N_3  and  C_13
    2  A    between atoms: N_3  and  C_25
    3  A    between atoms: C_7  and  C_11
    4  A    between atoms: C_18  and  C_30
                            x       y       z     vdW  Elec       q    Type
                         _______ _______ _______ _____ _____    ______ ____

>  <TORSDO>
F 4

$$$$
=
 OpenBabel10262423263D

 34 39  0  0  1  0  0  0  0  0999 V2000
  188.7300  177.1840  138.3450 C   0  0  0  0  0  0  0  0  0  0  0  0
  187.5210  175.3230  135.8790 C   0  0  0  0  0  2  0  0  0  0  0  0
  189.4550  176.8070  135.6280 N   0  0  0  0  0  2  0  0  0  0  0  0
  190.6080  176.8230  140.3280 N   0  0  0  0  0  0  0  0  0  0  0  0
  188.4120  177.3560  139.6590 N   0  0  0  0  0  0  0  0  0  0  0  0
  190.9870  176.6630  139.0340 C   0  0  0  0  0  0  0  0  0  0  0  0
  192.6970  176.2090  137.3800 C   0  0  0  0  0  3  0  0  0  0  0  0
  192.3120  176.3500  138.7180 C   0  0  0  0  0  3  0  0  0  0  0  0
  189.3290  177.1630  140.6490 C   0  0  0  0  0  0  0  0  0  0  0  0
  190.4270  176.6720  136.6660 C   0  0  0  0  0  0  0  0  0  0  0  0
  190.0440  176.8340  138.0050 C   0  0  0  0  0  0  0  0  0  0  0  0
  191.7570  176.3710  136.3550 C   0  0  0  0  0  3  0  0  0  0  0  0
  185.9930  175.1750  135.9470 C   0  0  0  0  0  2  0  0  0  0  0  0
  185.2460  176.4530  135.5570 C   0  0  2  0  0  3  0  0  0  0  0  0
  185.2120  177.5030  136.6830 C   0  0  0  0  0  2  0  0  0  0  0  0
  188.0270  176.7730  135.9310 C   0  0  2  0  0  3  0  0  0  0  0  0
  186.2790  177.3100  137.7660 C   0  0  0  0  0  2  0  0  0  0  0  0
  187.7180  177.5050  137.2640 C   0  0  1  0  0  3  0  0  0  0  0  0
  189.5230  177.2300  144.4470 C   0  0  0  0  0  3  0  0  0  0  0  0
  187.6410  177.7810  142.3890 C   0  0  0  0  0  3  0  0  0  0  0  0
  186.4580  178.2880  145.7250 C   0  0  0  0  0  0  0  0  0  0  0  0
  187.7020  177.8830  145.9110 O   0  0  0  0  0  0  0  0  0  0  0  0
  188.2320  177.6670  144.7300 C   0  0  0  0  0  0  0  0  0  0  0  0
  186.1690  178.3360  144.3600 C   0  0  0  0  0  0  0  0  0  0  0  0
  187.3270  177.9310  143.7380 C   0  0  0  0  0  0  0  0  0  0  0  0
  184.8930  178.7350  143.7000 C   0  0  0  0  0  1  0  0  0  0  0  0
  188.9410  177.3390  142.0610 C   0  0  0  0  0  0  0  0  0  0  0  0
  189.8720  177.0680  143.0940 C   0  0  0  0  0  3  0  0  0  0  0  0
  185.5520  178.6260  146.8310 C   0  0  0  0  0  0  0  0  0  0  0  0
  184.5380  177.9200  147.0730 O   0  0  0  0  0  0  0  0  0  0  0  0
  185.8170  179.7360  147.6220 O   0  0  0  0  0  1  0  0  0  0  0  0
  183.8880  176.1230  135.1600 N   0  0  0  0  0  2  0  0  0  0  0  0
  183.5720  174.8340  135.7510 C   0  0  0  0  0  2  0  0  0  0  0  0
  182.1390  174.8420  136.2400 C   0  0  0  0  0  1  0  0  0  0  0  0
  1  5  2  0  0  0  0
  2 13  1  0  0  0  0
  3 16  1  0  0  0  0
  3 10  1  0  0  0  0
  4  9  2  0  0  0  0
  5  9  1  0  0  0  0
  6  4  1  0  0  0  0
  7  8  2  0  0  0  0
  8  6  1  0  0  0  0
  9 27  1  0  0  0  0
 10 11  1  0  0  0  0
 11  1  1  0  0  0  0
 11  6  2  0  0  0  0
 12 10  2  0  0  0  0
 12  7  1  0  0  0  0
 14 32  1  1  0  0  0
 14 13  1  0  0  0  0
 14 15  1  0  0  0  0
 15 17  1  0  0  0  0
 16  2  1  1  0  0  0
 16 18  1  0  0  0  0
 18 17  1  1  0  0  0
 18  1  1  0  0  0  0
 19 23  1  0  0  0  0
 20 25  1  0  0  0  0
 21 22  1  0  0  0  0
 21 29  1  0  0  0  0
 23 22  1  0  0  0  0
 24 21  2  0  0  0  0
 25 24  1  0  0  0  0
 25 23  2  0  0  0  0
 26 24  1  0  0  0  0
 27 20  2  0  0  0  0
 27 28  1  0  0  0  0
 28 19  2  0  0  0  0
 29 30  2  0  0  0  0
 29 31  1  0  0  0  0
 32 33  1  0  0  0  0
 33 34  1  0  0  0  0
M  END
>  <MODEL>
8

>  <REMARK>
 VINA RESULT:      -8.4      2.894      5.504
  Name = 
  4 active torsions:
  status: ('A' for Active; 'I' for Inactive)
    1  A    between atoms: N_3  and  C_13
    2  A    between atoms: N_3  and  C_25
    3  A    between atoms: C_7  and  C_11
    4  A    between atoms: C_18  and  C_30
                            x       y       z     vdW  Elec       q    Type
                         _______ _______ _______ _____ _____    ______ ____

>  <TORSDO>
F 4

$$$$
=
 OpenBabel10262423263D

 34 39  0  0  1  0  0  0  0  0999 V2000
  182.3310  178.0590  141.1540 C   0  0  0  0  0  0  0  0  0  0  0  0
  181.9310  179.0600  138.0170 C   0  0  0  0  0  2  0  0  0  0  0  0
  180.0880  178.2830  139.4320 N   0  0  0  0  0  2  0  0  0  0  0  0
  182.2950  179.2880  143.6190 N   0  0  0  0  0  0  0  0  0  0  0  0
  183.3930  177.9710  142.0030 N   0  0  0  0  0  0  0  0  0  0  0  0
  181.1990  179.3880  142.8250 C   0  0  0  0  0  0  0  0  0  0  0  0
  178.9330  180.1560  142.4480 C   0  0  0  0  0  3  0  0  0  0  0  0
  180.0660  180.0780  143.2660 C   0  0  0  0  0  3  0  0  0  0  0  0
  183.3930  178.5900  143.2170 C   0  0  0  0  0  0  0  0  0  0  0  0
  180.0680  178.8730  140.7330 C   0  0  0  0  0  0  0  0  0  0  0  0
  181.1970  178.7760  141.5590 C   0  0  0  0  0  0  0  0  0  0  0  0
  178.9320  179.5530  141.1840 C   0  0  0  0  0  3  0  0  0  0  0  0
  183.1300  178.6990  137.1260 C   0  0  0  0  0  2  0  0  0  0  0  0
  183.2130  177.2050  136.8020 C   0  0  2  0  0  3  0  0  0  0  0  0
  183.7950  176.3670  137.9550 C   0  0  0  0  0  2  0  0  0  0  0  0
  181.3460  177.8820  138.8110 C   0  0  2  0  0  3  0  0  0  0  0  0
  183.7440  177.0490  139.3270 C   0  0  0  0  0  2  0  0  0  0  0  0
  182.3200  177.2770  139.8560 C   0  0  1  0  0  3  0  0  0  0  0  0
  185.6300  178.9160  146.2760 C   0  0  0  0  0  3  0  0  0  0  0  0
  185.7530  177.8740  143.6350 C   0  0  0  0  0  3  0  0  0  0  0  0
  188.7350  177.5000  145.5720 C   0  0  0  0  0  0  0  0  0  0  0  0
  187.9170  178.1180  146.4060 O   0  0  0  0  0  0  0  0  0  0  0  0
  186.7780  178.3050  145.7810 C   0  0  0  0  0  0  0  0  0  0  0  0
  188.0960  177.2760  144.3520 C   0  0  0  0  0  0  0  0  0  0  0  0
  186.8360  177.8030  144.5090 C   0  0  0  0  0  0  0  0  0  0  0  0
  188.6420  176.6140  143.1330 C   0  0  0  0  0  1  0  0  0  0  0  0
  184.5710  178.4870  144.1000 C   0  0  0  0  0  0  0  0  0  0  0  0
  184.5190  179.0040  145.4180 C   0  0  0  0  0  3  0  0  0  0  0  0
  190.1100  177.1260  145.9310 C   0  0  0  0  0  0  0  0  0  0  0  0
  190.3640  176.5940  147.0440 O   0  0  0  0  0  1  0  0  0  0  0  0
  191.1430  177.3580  145.0320 O   0  0  0  0  0  0  0  0  0  0  0  0
  184.0130  177.0090  135.6060 N   0  0  0  0  0  2  0  0  0  0  0  0
  185.2780  176.4320  136.0280 C   0  0  0  0  0  2  0  0  0  0  0  0
  186.4120  177.3450  135.6110 C   0  0  0  0  0  1  0  0  0  0  0  0
  1 11  1  0  0  0  0
  1  5  2  0  0  0  0
  3 10  1  0  0  0  0
  5  9  1  0  0  0  0
  6  8  1  0  0  0  0
  6  4  1  0  0  0  0
  7  8  2  0  0  0  0
  9  4  2  0  0  0  0
  9 27  1  0  0  0  0
 10 12  2  0  0  0  0
 10 11  1  0  0  0  0
 11  6  2  0  0  0  0
 12  7  1  0  0  0  0
 13  2  1  0  0  0  0
 14 32  1  6  0  0  0
 14 13  1  0  0  0  0
 14 15  1  0  0  0  0
 15 17  1  0  0  0  0
 16  2  1  1  0  0  0
 16  3  1  0  0  0  0
 16 18  1  0  0  0  0
 18 17  1  6  0  0  0
 18  1  1  0  0  0  0
 20 27  2  0  0  0  0
 20 25  1  0  0  0  0
 21 29  1  0  0  0  0
 21 22  1  0  0  0  0
 23 19  1  0  0  0  0
 23 22  1  0  0  0  0
 24 25  1  0  0  0  0
 24 21  2  0  0  0  0
 25 23  2  0  0  0  0
 26 24  1  0  0  0  0
 27 28  1  0  0  0  0
 28 19  2  0  0  0  0
 29 30  1  0  0  0  0
 31 29  2  0  0  0  0
 32 33  1  0  0  0  0
 34 33  1  0  0  0  0
M  END
>  <MODEL>
9

>  <REMARK>
 VINA RESULT:      -8.3      3.967      7.822
  Name = 
  4 active torsions:
  status: ('A' for Active; 'I' for Inactive)
    1  A    between atoms: N_3  and  C_13
    2  A    between atoms: N_3  and  C_25
    3  A    between atoms: C_7  and  C_11
    4  A    between atoms: C_18  and  C_30
                            x       y       z     vdW  Elec       q    Type
                         _______ _______ _______ _____ _____    ______ ____

>  <TORSDO>
F 4

$$$$
