=
 OpenBabel10262421213D

 32 33  0  0  1  0  0  0  0  0999 V2000
  185.5830  178.7440  145.2420 C   0  0  0  0  0  0  0  0  0  0  0  0
  185.4930  179.6040  146.1560 O   0  0  0  0  0  0  0  0  0  0  0  0
  186.6750  177.8910  142.7550 C   0  0  0  0  0  3  0  0  0  0  0  0
  186.7180  177.8780  145.1740 N   0  0  0  0  0  2  0  0  0  0  0  0
  185.5880  178.6670  142.6520 C   0  0  0  0  0  0  0  0  0  0  0  0
  184.3400  178.6470  143.9530 S   0  0  0  0  0  0  0  0  0  0  0  0
  186.9270  177.0580  143.9820 C   0  0  2  0  0  3  0  0  0  0  0  0
  185.4220  179.5610  141.5470 N   0  0  0  0  0  2  0  0  0  0  0  0
  184.3090  180.3060  139.2660 O   0  0  0  0  0  0  0  0  0  0  0  0
  185.8840  178.4330  139.2050 O   0  0  0  0  0  0  0  0  0  0  0  0
  184.7920  179.0880  140.0010 S   0  0  0  0  0  0  0  0  0  0  0  0
  183.4420  177.9370  140.1970 C   0  0  0  0  0  2  0  0  0  0  0  0
  182.2100  178.4290  139.5070 C   0  0  0  0  0  0  0  0  0  0  0  0
  182.0420  178.1960  138.3220 O   0  0  0  0  0  0  0  0  0  0  0  0
  181.1700  179.1950  140.2640 C   0  0  0  0  0  2  0  0  0  0  0  0
  181.2300  178.8940  141.6900 N   0  0  0  0  0  2  0  0  0  0  0  0
  180.1450  178.3530  142.4500 C   0  0  0  0  0  0  0  0  0  0  0  0
  179.6290  179.0620  143.8350 S   0  0  0  0  0  0  0  0  0  0  0  0
  179.4660  177.1990  141.9700 N   0  0  0  0  0  1  0  0  0  0  0  0
  188.3560  176.5480  143.9750 C   0  0  0  0  0  2  0  0  0  0  0  0
  189.2410  177.3900  144.9030 C   0  0  0  0  0  2  0  0  0  0  0  0
  190.6570  176.9960  144.8700 N   0  0  0  0  0  0  0  0  0  0  0  0
  192.5510  175.9130  147.8720 C   0  0  0  0  0  1  0  0  0  0  0  0
  191.4510  175.8060  146.8380 C   0  0  1  0  0  3  0  0  0  0  0  0
  190.2860  176.6740  147.2560 C   0  0  0  0  0  2  0  0  0  0  0  0
  191.2500  177.1660  146.1930 C   0  0  2  0  0  3  0  0  0  0  0  0
  191.3710  177.8570  143.9330 C   0  0  0  0  0  2  0  0  0  0  0  0
  191.7790  177.0630  142.7030 C   0  0  0  0  0  2  0  0  0  0  0  0
  190.8400  177.3580  141.5480 C   0  0  0  0  0  2  0  0  0  0  0  0
  191.5840  177.3160  140.2260 C   0  0  0  0  0  2  0  0  0  0  0  0
  189.1830  177.2720  139.6400 C   0  0  0  0  0  1  0  0  0  0  0  0
  190.5870  177.3800  139.0880 C   0  0  0  0  0  2  0  0  0  0  0  0
  1  2  2  0  0  0  0
  3  7  1  0  0  0  0
  4  1  1  0  0  0  0
  5  3  2  0  0  0  0
  5  6  1  0  0  0  0
  6  1  1  0  0  0  0
  7 20  1  6  0  0  0
  7  4  1  0  0  0  0
  8  5  1  0  0  0  0
  9 11  2  0  0  0  0
 10 11  2  0  0  0  0
 11 12  1  0  0  0  0
 11  8  1  0  0  0  0
 13 12  1  0  0  0  0
 13 15  1  0  0  0  0
 14 13  2  0  0  0  0
 15 16  1  0  0  0  0
 16 17  1  0  0  0  0
 17 18  2  0  0  0  0
 19 17  1  0  0  0  0
 20 21  1  0  0  0  0
 22 21  1  0  0  0  0
 24 25  1  0  0  0  0
 24 23  1  1  0  0  0
 26 22  1  6  0  0  0
 26 24  1  0  0  0  0
 26 25  1  0  0  0  0
 27 22  1  0  0  0  0
 28 27  1  0  0  0  0
 29 28  1  0  0  0  0
 30 29  1  0  0  0  0
 32 31  1  0  0  0  0
 32 30  1  0  0  0  0
M  END
>  <MODEL>
1

>  <REMARK>
 VINA RESULT:      -6.7      0.000      0.000
  Name = 
  16 active torsions:
  status: ('A' for Active; 'I' for Inactive)
    1  A    between atoms: C_1  and  N_30
    2  A    between atoms: C_2  and  C_14
    3  A    between atoms: C_2  and  S_27
    4  A    between atoms: C_5  and  C_14
    5  A    between atoms: C_5  and  N_30
    6  A    between atoms: C_6  and  N_9
    7  A    between atoms: C_6  and  C_17
    8  A    between atoms: C_7  and  C_26
    9  A    between atoms: C_7  and  C_31
   10  A    between atoms: N_9  and  C_31
   11  A    between atoms: N_9  and  C_32
   12  A    between atoms: N_16  and  C_20
   13  A    between atoms: N_16  and  S_27
   14  A    between atoms: C_17  and  C_29
   15  A    between atoms: C_18  and  C_25
   16  A    between atoms: C_18  and  C_29
                            x       y       z     vdW  Elec       q    Type
                         _______ _______ _______ _____ _____    ______ ____

>  <TORSDO>
F 16

$$$$
=
 OpenBabel10262421213D

 32 33  0  0  1  0  0  0  0  0999 V2000
  185.5210  178.6380  145.1540 C   0  0  0  0  0  0  0  0  0  0  0  0
  185.3980  179.4580  146.1010 O   0  0  0  0  0  0  0  0  0  0  0  0
  186.6100  177.9450  142.6160 C   0  0  0  0  0  3  0  0  0  0  0  0
  186.7060  177.8490  145.0310 N   0  0  0  0  0  2  0  0  0  0  0  0
  185.4750  178.6540  142.5630 C   0  0  0  0  0  0  0  0  0  0  0  0
  184.2590  178.5090  143.8870 S   0  0  0  0  0  0  0  0  0  0  0  0
  186.9400  177.0860  143.8060 C   0  0  2  0  0  3  0  0  0  0  0  0
  185.2280  179.5740  141.4960 N   0  0  0  0  0  2  0  0  0  0  0  0
  184.2560  180.3020  139.1450 O   0  0  0  0  0  0  0  0  0  0  0  0
  185.9520  178.5370  139.1770 O   0  0  0  0  0  0  0  0  0  0  0  0
  184.7580  179.1000  139.8940 S   0  0  0  0  0  0  0  0  0  0  0  0
  183.4760  177.8610  139.9550 C   0  0  0  0  0  2  0  0  0  0  0  0
  182.4820  178.0580  138.8560 C   0  0  0  0  0  0  0  0  0  0  0  0
  182.8350  177.9620  137.6920 O   0  0  0  0  0  0  0  0  0  0  0  0
  181.0500  178.3580  139.1710 C   0  0  0  0  0  2  0  0  0  0  0  0
  180.5650  179.4870  138.3840 N   0  0  0  0  0  2  0  0  0  0  0  0
  180.5090  180.8380  138.8540 C   0  0  0  0  0  0  0  0  0  0  0  0
  179.4510  181.2990  140.0180 S   0  0  0  0  0  0  0  0  0  0  0  0
  181.4240  181.7940  138.3330 N   0  0  0  0  0  1  0  0  0  0  0  0
  188.3980  176.6690  143.7530 C   0  0  0  0  0  2  0  0  0  0  0  0
  189.2850  177.8360  143.3040 C   0  0  0  0  0  2  0  0  0  0  0  0
  190.5520  177.4040  142.6960 N   0  0  0  0  0  0  0  0  0  0  0  0
  191.2320  176.3210  139.2130 C   0  0  0  0  0  1  0  0  0  0  0  0
  191.0060  177.3420  140.3070 C   0  0  1  0  0  3  0  0  0  0  0  0
  189.5190  177.5510  140.4950 C   0  0  0  0  0  2  0  0  0  0  0  0
  190.2860  176.6690  141.4630 C   0  0  2  0  0  3  0  0  0  0  0  0
  191.2460  176.5130  143.6210 C   0  0  0  0  0  2  0  0  0  0  0  0
  191.5660  177.2480  144.9120 C   0  0  0  0  0  2  0  0  0  0  0  0
  191.7810  176.2590  146.0440 C   0  0  0  0  0  2  0  0  0  0  0  0
  191.0550  176.7100  147.2970 C   0  0  0  0  0  2  0  0  0  0  0  0
  188.9420  177.6710  148.1470 C   0  0  0  0  0  1  0  0  0  0  0  0
  189.7670  177.4060  146.9070 C   0  0  0  0  0  2  0  0  0  0  0  0
  1  2  2  0  0  0  0
  3  7  1  0  0  0  0
  4  1  1  0  0  0  0
  5  3  2  0  0  0  0
  5  6  1  0  0  0  0
  6  1  1  0  0  0  0
  7 20  1  6  0  0  0
  7  4  1  0  0  0  0
  8  5  1  0  0  0  0
  9 11  2  0  0  0  0
 10 11  2  0  0  0  0
 11 12  1  0  0  0  0
 11  8  1  0  0  0  0
 13 15  1  0  0  0  0
 13 12  1  0  0  0  0
 14 13  2  0  0  0  0
 16 17  1  0  0  0  0
 16 15  1  0  0  0  0
 17 18  2  0  0  0  0
 19 17  1  0  0  0  0
 21 20  1  0  0  0  0
 22 21  1  0  0  0  0
 22 27  1  0  0  0  0
 24 23  1  6  0  0  0
 24 25  1  0  0  0  0
 24 26  1  0  0  0  0
 25 26  1  0  0  0  0
 26 22  1  1  0  0  0
 27 28  1  0  0  0  0
 28 29  1  0  0  0  0
 29 30  1  0  0  0  0
 32 30  1  0  0  0  0
 32 31  1  0  0  0  0
M  END
>  <MODEL>
2

>  <REMARK>
 VINA RESULT:      -6.7      1.639      3.982
  Name = 
  16 active torsions:
  status: ('A' for Active; 'I' for Inactive)
    1  A    between atoms: C_1  and  N_30
    2  A    between atoms: C_2  and  C_14
    3  A    between atoms: C_2  and  S_27
    4  A    between atoms: C_5  and  C_14
    5  A    between atoms: C_5  and  N_30
    6  A    between atoms: C_6  and  N_9
    7  A    between atoms: C_6  and  C_17
    8  A    between atoms: C_7  and  C_26
    9  A    between atoms: C_7  and  C_31
   10  A    between atoms: N_9  and  C_31
   11  A    between atoms: N_9  and  C_32
   12  A    between atoms: N_16  and  C_20
   13  A    between atoms: N_16  and  S_27
   14  A    between atoms: C_17  and  C_29
   15  A    between atoms: C_18  and  C_25
   16  A    between atoms: C_18  and  C_29
                            x       y       z     vdW  Elec       q    Type
                         _______ _______ _______ _____ _____    ______ ____

>  <TORSDO>
F 16

$$$$
=
 OpenBabel10262421213D

 32 33  0  0  1  0  0  0  0  0999 V2000
  187.6180  178.3160  137.5200 C   0  0  0  0  0  0  0  0  0  0  0  0
  187.1470  179.1770  136.7320 O   0  0  0  0  0  0  0  0  0  0  0  0
  189.7040  177.4240  139.2410 C   0  0  0  0  0  3  0  0  0  0  0  0
  187.5730  178.5280  138.9330 N   0  0  0  0  0  2  0  0  0  0  0  0
  189.8730  177.1140  137.9490 C   0  0  0  0  0  0  0  0  0  0  0  0
  188.4380  176.8520  136.8900 S   0  0  0  0  0  0  0  0  0  0  0  0
  188.3320  177.6460  139.8180 C   0  0  2  0  0  3  0  0  0  0  0  0
  191.1810  177.0400  137.3730 N   0  0  0  0  0  2  0  0  0  0  0  0
  193.3040  176.0960  138.6380 O   0  0  0  0  0  0  0  0  0  0  0  0
  191.5020  174.5250  138.1100 O   0  0  0  0  0  0  0  0  0  0  0  0
  192.2740  175.7140  137.6130 S   0  0  0  0  0  0  0  0  0  0  0  0
  193.0870  175.2830  136.0840 C   0  0  0  0  0  2  0  0  0  0  0  0
  194.5320  175.6620  136.1170 C   0  0  0  0  0  0  0  0  0  0  0  0
  194.8570  176.8340  136.0080 O   0  0  0  0  0  0  0  0  0  0  0  0
  195.5880  174.6170  136.2970 C   0  0  0  0  0  2  0  0  0  0  0  0
  196.3960  174.8870  137.4820 N   0  0  0  0  0  2  0  0  0  0  0  0
  196.1760  174.2920  138.7650 C   0  0  0  0  0  0  0  0  0  0  0  0
  196.7140  174.9980  140.1430 S   0  0  0  0  0  0  0  0  0  0  0  0
  195.4330  173.0830  138.8520 N   0  0  0  0  0  1  0  0  0  0  0  0
  188.4460  178.2950  141.1850 C   0  0  0  0  0  2  0  0  0  0  0  0
  189.5730  177.6530  142.0030 C   0  0  0  0  0  2  0  0  0  0  0  0
  189.2770  177.5740  143.4400 N   0  0  0  0  0  0  0  0  0  0  0  0
  191.4130  176.5130  146.2830 C   0  0  0  0  0  1  0  0  0  0  0  0
  190.8680  177.5060  145.2800 C   0  0  1  0  0  3  0  0  0  0  0  0
  191.6440  177.3850  143.9870 C   0  0  0  0  0  2  0  0  0  0  0  0
  190.2740  176.7430  144.1080 C   0  0  2  0  0  3  0  0  0  0  0  0
  187.9670  176.9580  143.6250 C   0  0  0  0  0  2  0  0  0  0  0  0
  187.1110  177.8170  144.5410 C   0  0  0  0  0  2  0  0  0  0  0  0
  186.9520  177.1500  145.8950 C   0  0  0  0  0  2  0  0  0  0  0  0
  187.0770  178.1670  147.0130 C   0  0  0  0  0  2  0  0  0  0  0  0
  189.0580  178.3740  148.4770 C   0  0  0  0  0  1  0  0  0  0  0  0
  187.8280  177.5470  148.1730 C   0  0  0  0  0  2  0  0  0  0  0  0
  1  4  1  0  0  0  0
  2  1  2  0  0  0  0
  3  7  1  0  0  0  0
  4  7  1  0  0  0  0
  5  3  2  0  0  0  0
  6  1  1  0  0  0  0
  6  5  1  0  0  0  0
  7 20  1  1  0  0  0
  8 11  1  0  0  0  0
  8  5  1  0  0  0  0
 11 10  2  0  0  0  0
 11  9  2  0  0  0  0
 12 13  1  0  0  0  0
 12 11  1  0  0  0  0
 13 15  1  0  0  0  0
 14 13  2  0  0  0  0
 15 16  1  0  0  0  0
 16 17  1  0  0  0  0
 17 19  1  0  0  0  0
 17 18  2  0  0  0  0
 20 21  1  0  0  0  0
 21 22  1  0  0  0  0
 22 27  1  0  0  0  0
 24 23  1  1  0  0  0
 25 26  1  0  0  0  0
 25 24  1  0  0  0  0
 26 22  1  6  0  0  0
 26 24  1  0  0  0  0
 27 28  1  0  0  0  0
 28 29  1  0  0  0  0
 29 30  1  0  0  0  0
 30 32  1  0  0  0  0
 32 31  1  0  0  0  0
M  END
>  <MODEL>
3

>  <REMARK>
 VINA RESULT:      -6.7      5.225      9.432
  Name = 
  16 active torsions:
  status: ('A' for Active; 'I' for Inactive)
    1  A    between atoms: C_1  and  N_30
    2  A    between atoms: C_2  and  C_14
    3  A    between atoms: C_2  and  S_27
    4  A    between atoms: C_5  and  C_14
    5  A    between atoms: C_5  and  N_30
    6  A    between atoms: C_6  and  N_9
    7  A    between atoms: C_6  and  C_17
    8  A    between atoms: C_7  and  C_26
    9  A    between atoms: C_7  and  C_31
   10  A    between atoms: N_9  and  C_31
   11  A    between atoms: N_9  and  C_32
   12  A    between atoms: N_16  and  C_20
   13  A    between atoms: N_16  and  S_27
   14  A    between atoms: C_17  and  C_29
   15  A    between atoms: C_18  and  C_25
   16  A    between atoms: C_18  and  C_29
                            x       y       z     vdW  Elec       q    Type
                         _______ _______ _______ _____ _____    ______ ____

>  <TORSDO>
F 16

$$$$
=
 OpenBabel10262421213D

 32 33  0  0  1  0  0  0  0  0999 V2000
  189.2700  178.3860  137.9520 C   0  0  0  0  0  0  0  0  0  0  0  0
  188.9650  179.5400  137.5510 O   0  0  0  0  0  0  0  0  0  0  0  0
  191.1890  176.5690  139.0120 C   0  0  0  0  0  3  0  0  0  0  0  0
  189.3500  178.1050  139.3510 N   0  0  0  0  0  2  0  0  0  0  0  0
  191.2140  176.6950  137.6790 C   0  0  0  0  0  0  0  0  0  0  0  0
  189.7020  177.0970  136.7830 S   0  0  0  0  0  0  0  0  0  0  0  0
  189.9360  176.8430  139.7990 C   0  0  2  0  0  3  0  0  0  0  0  0
  192.4380  176.5690  136.9490 N   0  0  0  0  0  2  0  0  0  0  0  0
  194.4980  175.4800  138.2020 O   0  0  0  0  0  0  0  0  0  0  0  0
  192.7260  173.9860  137.4140 O   0  0  0  0  0  0  0  0  0  0  0  0
  193.5200  175.2200  137.0910 S   0  0  0  0  0  0  0  0  0  0  0  0
  194.4070  174.9600  135.5650 C   0  0  0  0  0  2  0  0  0  0  0  0
  195.6700  174.1960  135.8000 C   0  0  0  0  0  0  0  0  0  0  0  0
  195.6190  173.0430  136.1950 O   0  0  0  0  0  0  0  0  0  0  0  0
  197.0020  174.8290  135.5380 C   0  0  0  0  0  2  0  0  0  0  0  0
  197.5120  175.4890  136.7350 N   0  0  0  0  0  2  0  0  0  0  0  0
  198.2530  174.8330  137.7690 C   0  0  0  0  0  0  0  0  0  0  0  0
  199.0710  173.4410  137.4880 S   0  0  0  0  0  0  0  0  0  0  0  0
  198.3190  175.4250  139.0600 N   0  0  0  0  0  1  0  0  0  0  0  0
  190.2670  176.9470  141.2760 C   0  0  0  0  0  2  0  0  0  0  0  0
  189.2710  177.8640  141.9970 C   0  0  0  0  0  2  0  0  0  0  0  0
  189.2320  177.6510  143.4510 N   0  0  0  0  0  0  0  0  0  0  0  0
  191.6530  176.4310  145.9850 C   0  0  0  0  0  1  0  0  0  0  0  0
  190.6890  177.4330  145.3870 C   0  0  1  0  0  3  0  0  0  0  0  0
  191.4120  178.2630  144.3500 C   0  0  0  0  0  2  0  0  0  0  0  0
  190.5120  177.1220  143.9100 C   0  0  2  0  0  3  0  0  0  0  0  0
  188.1930  176.6750  143.7630 C   0  0  0  0  0  2  0  0  0  0  0  0
  186.9300  177.3850  144.2190 C   0  0  0  0  0  2  0  0  0  0  0  0
  186.9450  177.5750  145.7250 C   0  0  0  0  0  2  0  0  0  0  0  0
  185.6250  178.1470  146.2080 C   0  0  0  0  0  2  0  0  0  0  0  0
  183.6420  178.9540  144.9730 C   0  0  0  0  0  1  0  0  0  0  0  0
  185.1220  179.1630  145.2040 C   0  0  0  0  0  2  0  0  0  0  0  0
  1  4  1  0  0  0  0
  2  1  2  0  0  0  0
  3  7  1  0  0  0  0
  4  7  1  0  0  0  0
  5  3  2  0  0  0  0
  6  5  1  0  0  0  0
  6  1  1  0  0  0  0
  7 20  1  1  0  0  0
  8 11  1  0  0  0  0
  8  5  1  0  0  0  0
 11 10  2  0  0  0  0
 11  9  2  0  0  0  0
 12 13  1  0  0  0  0
 12 11  1  0  0  0  0
 13 14  2  0  0  0  0
 15 13  1  0  0  0  0
 15 16  1  0  0  0  0
 16 17  1  0  0  0  0
 17 19  1  0  0  0  0
 18 17  2  0  0  0  0
 20 21  1  0  0  0  0
 21 22  1  0  0  0  0
 22 27  1  0  0  0  0
 24 23  1  1  0  0  0
 25 24  1  0  0  0  0
 26 22  1  6  0  0  0
 26 25  1  0  0  0  0
 26 24  1  0  0  0  0
 27 28  1  0  0  0  0
 28 29  1  0  0  0  0
 29 30  1  0  0  0  0
 31 32  1  0  0  0  0
 32 30  1  0  0  0  0
M  END
>  <MODEL>
4

>  <REMARK>
 VINA RESULT:      -6.6      6.127     10.390
  Name = 
  16 active torsions:
  status: ('A' for Active; 'I' for Inactive)
    1  A    between atoms: C_1  and  N_30
    2  A    between atoms: C_2  and  C_14
    3  A    between atoms: C_2  and  S_27
    4  A    between atoms: C_5  and  C_14
    5  A    between atoms: C_5  and  N_30
    6  A    between atoms: C_6  and  N_9
    7  A    between atoms: C_6  and  C_17
    8  A    between atoms: C_7  and  C_26
    9  A    between atoms: C_7  and  C_31
   10  A    between atoms: N_9  and  C_31
   11  A    between atoms: N_9  and  C_32
   12  A    between atoms: N_16  and  C_20
   13  A    between atoms: N_16  and  S_27
   14  A    between atoms: C_17  and  C_29
   15  A    between atoms: C_18  and  C_25
   16  A    between atoms: C_18  and  C_29
                            x       y       z     vdW  Elec       q    Type
                         _______ _______ _______ _____ _____    ______ ____

>  <TORSDO>
F 16

$$$$
=
 OpenBabel10262421213D

 32 33  0  0  1  0  0  0  0  0999 V2000
  190.0630  175.9580  137.8350 C   0  0  0  0  0  0  0  0  0  0  0  0
  189.9400  174.8560  137.2400 O   0  0  0  0  0  0  0  0  0  0  0  0
  189.0850  177.8820  139.6930 C   0  0  0  0  0  3  0  0  0  0  0  0
  190.5220  176.0020  139.1870 N   0  0  0  0  0  2  0  0  0  0  0  0
  188.5870  177.9960  138.4550 C   0  0  0  0  0  0  0  0  0  0  0  0
  189.5750  177.4870  137.0350 S   0  0  0  0  0  0  0  0  0  0  0  0
  190.4290  177.2530  139.9390 C   0  0  2  0  0  3  0  0  0  0  0  0
  187.2530  178.4670  138.2370 N   0  0  0  0  0  2  0  0  0  0  0  0
  186.0920  178.0290  135.9000 O   0  0  0  0  0  0  0  0  0  0  0  0
  186.3470  176.1250  137.4180 O   0  0  0  0  0  0  0  0  0  0  0  0
  186.0510  177.5960  137.3380 S   0  0  0  0  0  0  0  0  0  0  0  0
  184.4240  177.9000  138.0040 C   0  0  0  0  0  2  0  0  0  0  0  0
  184.4670  178.9390  139.0780 C   0  0  0  0  0  0  0  0  0  0  0  0
  184.6110  180.1140  138.7830 O   0  0  0  0  0  0  0  0  0  0  0  0
  184.3190  178.5520  140.5160 C   0  0  0  0  0  2  0  0  0  0  0  0
  183.2880  177.5320  140.6820 N   0  0  0  0  0  2  0  0  0  0  0  0
  181.8910  177.7510  140.4610 C   0  0  0  0  0  0  0  0  0  0  0  0
  181.1380  179.1040  140.9970 S   0  0  0  0  0  0  0  0  0  0  0  0
  181.1460  176.7930  139.7190 N   0  0  0  0  0  1  0  0  0  0  0  0
  190.5970  176.9560  141.4180 C   0  0  0  0  0  2  0  0  0  0  0  0
  189.7570  177.9170  142.2670 C   0  0  0  0  0  2  0  0  0  0  0  0
  189.5320  177.4350  143.6380 N   0  0  0  0  0  0  0  0  0  0  0  0
  191.7980  176.3200  146.3570 C   0  0  0  0  0  1  0  0  0  0  0  0
  190.8850  177.3030  145.6560 C   0  0  1  0  0  3  0  0  0  0  0  0
  191.6750  178.0620  144.6130 C   0  0  0  0  0  2  0  0  0  0  0  0
  190.7770  176.9130  144.1920 C   0  0  2  0  0  3  0  0  0  0  0  0
  188.5520  176.3540  143.6100 C   0  0  0  0  0  2  0  0  0  0  0  0
  187.1620  176.9040  143.8830 C   0  0  0  0  0  2  0  0  0  0  0  0
  187.1830  177.8160  145.0970 C   0  0  0  0  0  2  0  0  0  0  0  0
  185.7720  178.1230  145.5620 C   0  0  0  0  0  2  0  0  0  0  0  0
  183.5680  178.9540  144.8140 C   0  0  0  0  0  1  0  0  0  0  0  0
  185.0410  178.8840  144.4760 C   0  0  0  0  0  2  0  0  0  0  0  0
  1  4  1  0  0  0  0
  2  1  2  0  0  0  0
  3  7  1  0  0  0  0
  4  7  1  0  0  0  0
  5  3  2  0  0  0  0
  6  1  1  0  0  0  0
  6  5  1  0  0  0  0
  7 20  1  1  0  0  0
  8  5  1  0  0  0  0
  9 11  2  0  0  0  0
 11 10  2  0  0  0  0
 11 12  1  0  0  0  0
 11  8  1  0  0  0  0
 12 13  1  0  0  0  0
 13 15  1  0  0  0  0
 14 13  2  0  0  0  0
 15 16  1  0  0  0  0
 17 16  1  0  0  0  0
 17 18  2  0  0  0  0
 19 17  1  0  0  0  0
 20 21  1  0  0  0  0
 21 22  1  0  0  0  0
 24 23  1  1  0  0  0
 25 24  1  0  0  0  0
 26 22  1  6  0  0  0
 26 25  1  0  0  0  0
 26 24  1  0  0  0  0
 27 22  1  0  0  0  0
 27 28  1  0  0  0  0
 28 29  1  0  0  0  0
 29 30  1  0  0  0  0
 32 31  1  0  0  0  0
 32 30  1  0  0  0  0
M  END
>  <MODEL>
5

>  <REMARK>
 VINA RESULT:      -6.5      2.549      5.048
  Name = 
  16 active torsions:
  status: ('A' for Active; 'I' for Inactive)
    1  A    between atoms: C_1  and  N_30
    2  A    between atoms: C_2  and  C_14
    3  A    between atoms: C_2  and  S_27
    4  A    between atoms: C_5  and  C_14
    5  A    between atoms: C_5  and  N_30
    6  A    between atoms: C_6  and  N_9
    7  A    between atoms: C_6  and  C_17
    8  A    between atoms: C_7  and  C_26
    9  A    between atoms: C_7  and  C_31
   10  A    between atoms: N_9  and  C_31
   11  A    between atoms: N_9  and  C_32
   12  A    between atoms: N_16  and  C_20
   13  A    between atoms: N_16  and  S_27
   14  A    between atoms: C_17  and  C_29
   15  A    between atoms: C_18  and  C_25
   16  A    between atoms: C_18  and  C_29
                            x       y       z     vdW  Elec       q    Type
                         _______ _______ _______ _____ _____    ______ ____

>  <TORSDO>
F 16

$$$$
=
 OpenBabel10262421213D

 32 33  0  0  1  0  0  0  0  0999 V2000
  189.1390  178.6100  138.1720 C   0  0  0  0  0  0  0  0  0  0  0  0
  189.0320  179.6340  137.4480 O   0  0  0  0  0  0  0  0  0  0  0  0
  190.3690  177.2390  140.3430 C   0  0  0  0  0  3  0  0  0  0  0  0
  188.5530  178.5810  139.4750 N   0  0  0  0  0  2  0  0  0  0  0  0
  191.0210  177.1390  139.1770 C   0  0  0  0  0  0  0  0  0  0  0  0
  190.1050  177.2010  137.6250 S   0  0  0  0  0  0  0  0  0  0  0  0
  188.8870  177.4910  140.3910 C   0  0  2  0  0  3  0  0  0  0  0  0
  192.4470  177.0380  139.1350 N   0  0  0  0  0  2  0  0  0  0  0  0
  193.6800  176.7300  136.8140 O   0  0  0  0  0  0  0  0  0  0  0  0
  194.5710  175.5180  138.7460 O   0  0  0  0  0  0  0  0  0  0  0  0
  193.3150  175.9820  138.0650 S   0  0  0  0  0  0  0  0  0  0  0  0
  192.3220  174.5610  137.6400 C   0  0  0  0  0  2  0  0  0  0  0  0
  192.7060  174.0160  136.3030 C   0  0  0  0  0  0  0  0  0  0  0  0
  192.0870  174.3530  135.3070 O   0  0  0  0  0  0  0  0  0  0  0  0
  193.8580  173.0680  136.1700 C   0  0  0  0  0  2  0  0  0  0  0  0
  195.0430  173.7510  135.6630 N   0  0  0  0  0  2  0  0  0  0  0  0
  196.3120  173.7720  136.3270 C   0  0  0  0  0  0  0  0  0  0  0  0
  196.6790  172.7000  137.5110 S   0  0  0  0  0  0  0  0  0  0  0  0
  197.2940  174.7150  135.9190 N   0  0  0  0  0  1  0  0  0  0  0  0
  188.4750  177.8820  141.7980 C   0  0  0  0  0  2  0  0  0  0  0  0
  189.6840  177.8830  142.7410 C   0  0  0  0  0  2  0  0  0  0  0  0
  189.3160  177.7480  144.1580 N   0  0  0  0  0  0  0  0  0  0  0  0
  191.7780  176.3510  146.5580 C   0  0  0  0  0  1  0  0  0  0  0  0
  191.3160  177.2930  145.4680 C   0  0  1  0  0  3  0  0  0  0  0  0
  191.4740  176.6170  144.1230 C   0  0  0  0  0  2  0  0  0  0  0  0
  190.1060  176.6870  144.7770 C   0  0  2  0  0  3  0  0  0  0  0  0
  187.9060  177.3850  144.2530 C   0  0  0  0  0  2  0  0  0  0  0  0
  187.4200  177.5490  145.6840 C   0  0  0  0  0  2  0  0  0  0  0  0
  186.1540  178.3870  145.7190 C   0  0  0  0  0  2  0  0  0  0  0  0
  185.4200  178.3070  144.3940 C   0  0  0  0  0  2  0  0  0  0  0  0
  183.0090  178.8520  144.3620 C   0  0  0  0  0  1  0  0  0  0  0  0
  184.4070  179.4300  144.3130 C   0  0  0  0  0  2  0  0  0  0  0  0
  1  4  1  0  0  0  0
  2  1  2  0  0  0  0
  3  7  1  0  0  0  0
  4  7  1  0  0  0  0
  5  3  2  0  0  0  0
  6  1  1  0  0  0  0
  6  5  1  0  0  0  0
  7 20  1  1  0  0  0
  8  5  1  0  0  0  0
  9 11  2  0  0  0  0
 11 10  2  0  0  0  0
 11  8  1  0  0  0  0
 12 11  1  0  0  0  0
 13 12  1  0  0  0  0
 14 13  2  0  0  0  0
 15 13  1  0  0  0  0
 16 15  1  0  0  0  0
 16 17  1  0  0  0  0
 17 18  2  0  0  0  0
 19 17  1  0  0  0  0
 20 21  1  0  0  0  0
 21 22  1  0  0  0  0
 22 27  1  0  0  0  0
 24 23  1  1  0  0  0
 25 26  1  0  0  0  0
 25 24  1  0  0  0  0
 26 22  1  6  0  0  0
 26 24  1  0  0  0  0
 27 28  1  0  0  0  0
 28 29  1  0  0  0  0
 30 29  1  0  0  0  0
 32 31  1  0  0  0  0
 32 30  1  0  0  0  0
M  END
>  <MODEL>
6

>  <REMARK>
 VINA RESULT:      -6.4      5.607      9.470
  Name = 
  16 active torsions:
  status: ('A' for Active; 'I' for Inactive)
    1  A    between atoms: C_1  and  N_30
    2  A    between atoms: C_2  and  C_14
    3  A    between atoms: C_2  and  S_27
    4  A    between atoms: C_5  and  C_14
    5  A    between atoms: C_5  and  N_30
    6  A    between atoms: C_6  and  N_9
    7  A    between atoms: C_6  and  C_17
    8  A    between atoms: C_7  and  C_26
    9  A    between atoms: C_7  and  C_31
   10  A    between atoms: N_9  and  C_31
   11  A    between atoms: N_9  and  C_32
   12  A    between atoms: N_16  and  C_20
   13  A    between atoms: N_16  and  S_27
   14  A    between atoms: C_17  and  C_29
   15  A    between atoms: C_18  and  C_25
   16  A    between atoms: C_18  and  C_29
                            x       y       z     vdW  Elec       q    Type
                         _______ _______ _______ _____ _____    ______ ____

>  <TORSDO>
F 16

$$$$
=
 OpenBabel10262421213D

 32 33  0  0  1  0  0  0  0  0999 V2000
  185.2980  178.6370  145.1110 C   0  0  0  0  0  0  0  0  0  0  0  0
  185.1280  179.4450  146.0600 O   0  0  0  0  0  0  0  0  0  0  0  0
  186.4890  177.9880  142.6070 C   0  0  0  0  0  3  0  0  0  0  0  0
  186.4990  177.8680  145.0230 N   0  0  0  0  0  2  0  0  0  0  0  0
  185.3450  178.6800  142.5200 C   0  0  0  0  0  0  0  0  0  0  0  0
  184.0850  178.5020  143.7970 S   0  0  0  0  0  0  0  0  0  0  0  0
  186.7890  177.1220  143.8000 C   0  0  2  0  0  3  0  0  0  0  0  0
  185.1230  179.6070  141.4530 N   0  0  0  0  0  2  0  0  0  0  0  0
  184.1730  180.3470  139.0970 O   0  0  0  0  0  0  0  0  0  0  0  0
  185.9020  178.6140  139.1340 O   0  0  0  0  0  0  0  0  0  0  0  0
  184.6870  179.1450  139.8390 S   0  0  0  0  0  0  0  0  0  0  0  0
  183.4280  177.8800  139.8650 C   0  0  0  0  0  2  0  0  0  0  0  0
  182.6780  177.8390  138.5720 C   0  0  0  0  0  0  0  0  0  0  0  0
  181.8470  178.6970  138.3240 O   0  0  0  0  0  0  0  0  0  0  0  0
  182.9490  176.7610  137.5700 C   0  0  0  0  0  2  0  0  0  0  0  0
  184.2320  176.1150  137.8280 N   0  0  0  0  0  2  0  0  0  0  0  0
  185.2170  175.8420  136.8250 C   0  0  0  0  0  0  0  0  0  0  0  0
  185.8820  174.3530  136.6590 S   0  0  0  0  0  0  0  0  0  0  0  0
  185.5940  176.8730  135.9230 N   0  0  0  0  0  1  0  0  0  0  0  0
  188.2540  176.7270  143.7950 C   0  0  0  0  0  2  0  0  0  0  0  0
  189.1390  177.9120  143.3870 C   0  0  0  0  0  2  0  0  0  0  0  0
  190.4320  177.5040  142.8210 N   0  0  0  0  0  0  0  0  0  0  0  0
  191.2300  176.3900  139.3720 C   0  0  0  0  0  1  0  0  0  0  0  0
  190.9450  177.4200  140.4440 C   0  0  1  0  0  3  0  0  0  0  0  0
  189.4490  177.5830  140.5930 C   0  0  0  0  0  2  0  0  0  0  0  0
  190.2200  176.7420  141.5940 C   0  0  2  0  0  3  0  0  0  0  0  0
  191.1250  176.6480  143.7790 C   0  0  0  0  0  2  0  0  0  0  0  0
  191.3230  177.3880  145.0910 C   0  0  0  0  0  2  0  0  0  0  0  0
  191.6900  176.4140  146.1960 C   0  0  0  0  0  2  0  0  0  0  0  0
  190.7130  176.5190  147.3510 C   0  0  0  0  0  2  0  0  0  0  0  0
  189.0970  178.1320  148.3000 C   0  0  0  0  0  1  0  0  0  0  0  0
  189.6530  177.5490  147.0190 C   0  0  0  0  0  2  0  0  0  0  0  0
  1  2  2  0  0  0  0
  3  7  1  0  0  0  0
  4  1  1  0  0  0  0
  5  3  2  0  0  0  0
  5  6  1  0  0  0  0
  6  1  1  0  0  0  0
  7 20  1  1  0  0  0
  7  4  1  0  0  0  0
  8  5  1  0  0  0  0
  9 11  2  0  0  0  0
 10 11  2  0  0  0  0
 11 12  1  0  0  0  0
 11  8  1  0  0  0  0
 13 12  1  0  0  0  0
 14 13  2  0  0  0  0
 15 16  1  0  0  0  0
 15 13  1  0  0  0  0
 17 16  1  0  0  0  0
 18 17  2  0  0  0  0
 19 17  1  0  0  0  0
 21 20  1  0  0  0  0
 22 21  1  0  0  0  0
 22 27  1  0  0  0  0
 24 23  1  6  0  0  0
 24 25  1  0  0  0  0
 24 26  1  0  0  0  0
 25 26  1  0  0  0  0
 26 22  1  1  0  0  0
 27 28  1  0  0  0  0
 28 29  1  0  0  0  0
 29 30  1  0  0  0  0
 32 30  1  0  0  0  0
 32 31  1  0  0  0  0
M  END
>  <MODEL>
7

>  <REMARK>
 VINA RESULT:      -6.4      2.166      4.735
  Name = 
  16 active torsions:
  status: ('A' for Active; 'I' for Inactive)
    1  A    between atoms: C_1  and  N_30
    2  A    between atoms: C_2  and  C_14
    3  A    between atoms: C_2  and  S_27
    4  A    between atoms: C_5  and  C_14
    5  A    between atoms: C_5  and  N_30
    6  A    between atoms: C_6  and  N_9
    7  A    between atoms: C_6  and  C_17
    8  A    between atoms: C_7  and  C_26
    9  A    between atoms: C_7  and  C_31
   10  A    between atoms: N_9  and  C_31
   11  A    between atoms: N_9  and  C_32
   12  A    between atoms: N_16  and  C_20
   13  A    between atoms: N_16  and  S_27
   14  A    between atoms: C_17  and  C_29
   15  A    between atoms: C_18  and  C_25
   16  A    between atoms: C_18  and  C_29
                            x       y       z     vdW  Elec       q    Type
                         _______ _______ _______ _____ _____    ______ ____

>  <TORSDO>
F 16

$$$$
=
 OpenBabel10262421213D

 32 33  0  0  1  0  0  0  0  0999 V2000
  189.0490  178.6630  138.1930 C   0  0  0  0  0  0  0  0  0  0  0  0
  188.9880  179.7620  137.5830 O   0  0  0  0  0  0  0  0  0  0  0  0
  190.3610  176.9320  140.0340 C   0  0  0  0  0  3  0  0  0  0  0  0
  188.6460  178.5710  139.5600 N   0  0  0  0  0  2  0  0  0  0  0  0
  190.8310  176.8750  138.7810 C   0  0  0  0  0  0  0  0  0  0  0  0
  189.7320  177.2110  137.3910 S   0  0  0  0  0  0  0  0  0  0  0  0
  188.9480  177.3590  140.3200 C   0  0  2  0  0  3  0  0  0  0  0  0
  192.2110  176.6030  138.5210 N   0  0  0  0  0  2  0  0  0  0  0  0
  191.8270  174.1540  137.5950 O   0  0  0  0  0  0  0  0  0  0  0  0
  192.8130  175.8040  136.0780 O   0  0  0  0  0  0  0  0  0  0  0  0
  192.7730  175.3180  137.4990 S   0  0  0  0  0  0  0  0  0  0  0  0
  194.4090  174.7970  137.9840 C   0  0  0  0  0  2  0  0  0  0  0  0
  195.2960  174.6280  136.7920 C   0  0  0  0  0  0  0  0  0  0  0  0
  196.0820  175.5090  136.4880 O   0  0  0  0  0  0  0  0  0  0  0  0
  195.2390  173.3750  135.9750 C   0  0  0  0  0  2  0  0  0  0  0  0
  196.4930  172.6330  136.0640 N   0  0  0  0  0  2  0  0  0  0  0  0
  196.7280  171.5460  136.9650 C   0  0  0  0  0  0  0  0  0  0  0  0
  198.0870  170.6340  136.8730 S   0  0  0  0  0  0  0  0  0  0  0  0
  195.7840  171.2790  137.9940 N   0  0  0  0  0  1  0  0  0  0  0  0
  188.7860  177.6490  141.8010 C   0  0  0  0  0  2  0  0  0  0  0  0
  187.3880  178.2030  142.1000 C   0  0  0  0  0  2  0  0  0  0  0  0
  186.7190  177.5210  143.2170 N   0  0  0  0  0  0  0  0  0  0  0  0
  183.7850  178.8120  145.0870 C   0  0  0  0  0  1  0  0  0  0  0  0
  184.4940  178.2600  143.8700 C   0  0  1  0  0  3  0  0  0  0  0  0
  185.1630  179.3940  143.1250 C   0  0  0  0  0  2  0  0  0  0  0  0
  185.9870  178.4920  144.0260 C   0  0  2  0  0  3  0  0  0  0  0  0
  187.7260  176.8870  144.0620 C   0  0  0  0  0  2  0  0  0  0  0  0
  187.8590  177.6430  145.3730 C   0  0  0  0  0  2  0  0  0  0  0  0
  189.1330  177.2350  146.0910 C   0  0  0  0  0  2  0  0  0  0  0  0
  190.3460  177.4750  145.2120 C   0  0  0  0  0  2  0  0  0  0  0  0
  191.2490  176.3750  147.2330 C   0  0  0  0  0  1  0  0  0  0  0  0
  191.5410  176.7520  145.7970 C   0  0  0  0  0  2  0  0  0  0  0  0
  1  4  1  0  0  0  0
  2  1  2  0  0  0  0
  3  7  1  0  0  0  0
  4  7  1  0  0  0  0
  5  3  2  0  0  0  0
  6  1  1  0  0  0  0
  6  5  1  0  0  0  0
  7 20  1  1  0  0  0
  8  5  1  0  0  0  0
 10 11  2  0  0  0  0
 11  9  2  0  0  0  0
 11 12  1  0  0  0  0
 11  8  1  0  0  0  0
 13 12  1  0  0  0  0
 14 13  2  0  0  0  0
 15 16  1  0  0  0  0
 15 13  1  0  0  0  0
 16 17  1  0  0  0  0
 17 19  1  0  0  0  0
 18 17  2  0  0  0  0
 20 21  1  0  0  0  0
 21 22  1  0  0  0  0
 22 27  1  0  0  0  0
 24 26  1  0  0  0  0
 24 23  1  1  0  0  0
 25 24  1  0  0  0  0
 25 26  1  0  0  0  0
 26 22  1  6  0  0  0
 27 28  1  0  0  0  0
 28 29  1  0  0  0  0
 30 32  1  0  0  0  0
 30 29  1  0  0  0  0
 32 31  1  0  0  0  0
M  END
>  <MODEL>
8

>  <REMARK>
 VINA RESULT:      -6.4      5.935     10.224
  Name = 
  16 active torsions:
  status: ('A' for Active; 'I' for Inactive)
    1  A    between atoms: C_1  and  N_30
    2  A    between atoms: C_2  and  C_14
    3  A    between atoms: C_2  and  S_27
    4  A    between atoms: C_5  and  C_14
    5  A    between atoms: C_5  and  N_30
    6  A    between atoms: C_6  and  N_9
    7  A    between atoms: C_6  and  C_17
    8  A    between atoms: C_7  and  C_26
    9  A    between atoms: C_7  and  C_31
   10  A    between atoms: N_9  and  C_31
   11  A    between atoms: N_9  and  C_32
   12  A    between atoms: N_16  and  C_20
   13  A    between atoms: N_16  and  S_27
   14  A    between atoms: C_17  and  C_29
   15  A    between atoms: C_18  and  C_25
   16  A    between atoms: C_18  and  C_29
                            x       y       z     vdW  Elec       q    Type
                         _______ _______ _______ _____ _____    ______ ____

>  <TORSDO>
F 16

$$$$
=
 OpenBabel10262421213D

 32 33  0  0  1  0  0  0  0  0999 V2000
  189.3790  177.5920  137.4450 C   0  0  0  0  0  0  0  0  0  0  0  0
  189.8010  176.9210  136.4680 O   0  0  0  0  0  0  0  0  0  0  0  0
  187.6330  177.8740  139.6770 C   0  0  0  0  0  3  0  0  0  0  0  0
  189.7970  177.2750  138.7750 N   0  0  0  0  0  2  0  0  0  0  0  0
  187.1070  178.2500  138.5040 C   0  0  0  0  0  0  0  0  0  0  0  0
  188.1740  178.8990  137.2040 S   0  0  0  0  0  0  0  0  0  0  0  0
  189.1190  177.8980  139.9110 C   0  0  2  0  0  3  0  0  0  0  0  0
  185.7090  178.0940  138.2390 N   0  0  0  0  0  2  0  0  0  0  0  0
  184.6520  178.4160  140.6430 O   0  0  0  0  0  0  0  0  0  0  0  0
  184.5230  180.2980  139.0810 O   0  0  0  0  0  0  0  0  0  0  0  0
  184.4530  178.8020  139.2040 S   0  0  0  0  0  0  0  0  0  0  0  0
  182.8490  178.2460  138.6560 C   0  0  0  0  0  2  0  0  0  0  0  0
  182.2720  177.2450  139.6040 C   0  0  0  0  0  0  0  0  0  0  0  0
  182.8160  176.1620  139.7510 O   0  0  0  0  0  0  0  0  0  0  0  0
  181.0380  177.5630  140.3890 C   0  0  0  0  0  2  0  0  0  0  0  0
  181.2650  178.6870  141.2900 N   0  0  0  0  0  2  0  0  0  0  0  0
  180.4800  179.8840  141.3070 C   0  0  0  0  0  0  0  0  0  0  0  0
  179.9550  180.5860  139.9210 S   0  0  0  0  0  0  0  0  0  0  0  0
  180.1070  180.4540  142.5550 N   0  0  0  0  0  1  0  0  0  0  0  0
  189.4560  177.1270  141.1730 C   0  0  0  0  0  2  0  0  0  0  0  0
  189.7100  178.0810  142.3460 C   0  0  0  0  0  2  0  0  0  0  0  0
  189.3120  177.5230  143.6460 N   0  0  0  0  0  0  0  0  0  0  0  0
  191.4610  176.4070  146.4580 C   0  0  0  0  0  1  0  0  0  0  0  0
  190.7520  177.4370  145.6050 C   0  0  1  0  0  3  0  0  0  0  0  0
  191.6130  177.7710  144.4070 C   0  0  0  0  0  2  0  0  0  0  0  0
  190.4390  176.8210  144.2520 C   0  0  2  0  0  3  0  0  0  0  0  0
  188.2300  176.5650  143.4440 C   0  0  0  0  0  2  0  0  0  0  0  0
  186.9120  177.1590  143.9130 C   0  0  0  0  0  2  0  0  0  0  0  0
  187.0770  177.7950  145.2820 C   0  0  0  0  0  2  0  0  0  0  0  0
  185.7350  178.2320  145.8370 C   0  0  0  0  0  2  0  0  0  0  0  0
  183.5650  179.0180  144.9520 C   0  0  0  0  0  1  0  0  0  0  0  0
  185.0670  179.1690  144.8530 C   0  0  0  0  0  2  0  0  0  0  0  0
  1  4  1  0  0  0  0
  2  1  2  0  0  0  0
  3  7  1  0  0  0  0
  4  7  1  0  0  0  0
  5  3  2  0  0  0  0
  6  1  1  0  0  0  0
  6  5  1  0  0  0  0
  7 20  1  1  0  0  0
  8  5  1  0  0  0  0
  8 11  1  0  0  0  0
 10 11  2  0  0  0  0
 11  9  2  0  0  0  0
 12 11  1  0  0  0  0
 12 13  1  0  0  0  0
 13 14  2  0  0  0  0
 13 15  1  0  0  0  0
 15 16  1  0  0  0  0
 16 17  1  0  0  0  0
 17 19  1  0  0  0  0
 18 17  2  0  0  0  0
 20 21  1  0  0  0  0
 21 22  1  0  0  0  0
 24 23  1  1  0  0  0
 25 24  1  0  0  0  0
 26 22  1  6  0  0  0
 26 25  1  0  0  0  0
 26 24  1  0  0  0  0
 27 22  1  0  0  0  0
 27 28  1  0  0  0  0
 28 29  1  0  0  0  0
 29 30  1  0  0  0  0
 32 31  1  0  0  0  0
 32 30  1  0  0  0  0
M  END
>  <MODEL>
9

>  <REMARK>
 VINA RESULT:      -6.3      2.266      4.798
  Name = 
  16 active torsions:
  status: ('A' for Active; 'I' for Inactive)
    1  A    between atoms: C_1  and  N_30
    2  A    between atoms: C_2  and  C_14
    3  A    between atoms: C_2  and  S_27
    4  A    between atoms: C_5  and  C_14
    5  A    between atoms: C_5  and  N_30
    6  A    between atoms: C_6  and  N_9
    7  A    between atoms: C_6  and  C_17
    8  A    between atoms: C_7  and  C_26
    9  A    between atoms: C_7  and  C_31
   10  A    between atoms: N_9  and  C_31
   11  A    between atoms: N_9  and  C_32
   12  A    between atoms: N_16  and  C_20
   13  A    between atoms: N_16  and  S_27
   14  A    between atoms: C_17  and  C_29
   15  A    between atoms: C_18  and  C_25
   16  A    between atoms: C_18  and  C_29
                            x       y       z     vdW  Elec       q    Type
                         _______ _______ _______ _____ _____    ______ ____

>  <TORSDO>
F 16

$$$$
