=
 OpenBabel10262420563D

 28 32  0  0  0  0  0  0  0  0999 V2000
  186.3910  178.3130  142.4000 C   0  0  0  0  0  0  0  0  0  0  0  0
  190.3270  176.8110  145.2420 C   0  0  0  0  0  3  0  0  0  0  0  0
  184.7280  178.5160  146.9790 O   0  0  0  0  0  1  0  0  0  0  0  0
  189.6850  177.3720  147.5450 C   0  0  0  0  0  0  0  0  0  0  0  0
  188.0560  177.6530  145.6140 C   0  0  0  0  0  0  0  0  0  0  0  0
  191.8940  176.4260  147.1660 C   0  0  0  0  0  0  0  0  0  0  0  0
  189.3980  177.2670  146.0950 C   0  0  0  0  0  0  0  0  0  0  0  0
  187.2490  177.6450  148.0110 C   0  0  0  0  0  2  0  0  0  0  0  0
  190.8570  176.9820  148.0440 C   0  0  0  0  0  3  0  0  0  0  0  0
  185.5450  178.4330  144.6980 C   0  0  0  0  0  0  0  0  0  0  0  0
  187.8150  177.7960  144.2820 N   0  0  0  0  0  0  0  0  0  0  0  0
  188.6710  178.0050  148.4470 C   0  0  0  0  0  2  0  0  0  0  0  0
  184.0930  179.0000  142.8450 C   0  0  0  0  0  3  0  0  0  0  0  0
  185.7630  178.2840  146.0760 C   0  0  0  0  0  0  0  0  0  0  0  0
  184.2990  178.8440  144.2140 C   0  0  0  0  0  3  0  0  0  0  0  0
  192.9640  175.9920  147.6670 O   0  0  0  0  0  0  0  0  0  0  0  0
  191.7110  176.4040  145.6740 C   0  0  0  0  0  2  0  0  0  0  0  0
  187.0270  177.9000  146.5420 C   0  0  0  0  0  0  0  0  0  0  0  0
  185.1290  178.7390  141.9490 C   0  0  0  0  0  3  0  0  0  0  0  0
  186.6010  178.1670  143.7930 C   0  0  0  0  0  0  0  0  0  0  0  0
  187.4570  178.0330  141.3980 C   0  0  0  0  0  0  0  0  0  0  0  0
  187.3190  178.4910  140.1450 C   0  0  0  0  0  3  0  0  0  0  0  0
  189.5810  177.5500  139.5030 C   0  0  0  0  0  0  0  0  0  0  0  0
  188.6240  177.1350  141.7660 C   0  0  0  0  0  2  0  0  0  0  0  0
  188.1620  178.6330  137.9420 O   0  0  0  0  0  0  0  0  0  0  0  0
  188.3400  178.2360  139.1240 C   0  0  0  0  0  0  0  0  0  0  0  0
  190.6180  177.4170  138.5870 O   0  0  0  0  0  1  0  0  0  0  0  0
  189.7250  177.0690  140.7360 C   0  0  0  0  0  3  0  0  0  0  0  0
  1 20  1  0  0  0  0
  2 17  1  0  0  0  0
  2  7  2  0  0  0  0
  4  9  2  0  0  0  0
  4 12  1  0  0  0  0
  5  7  1  0  0  0  0
  5 18  1  0  0  0  0
  6 16  2  0  0  0  0
  6  9  1  0  0  0  0
  7  4  1  0  0  0  0
  8 12  1  0  0  0  0
 10 14  1  0  0  0  0
 11  5  2  0  0  0  0
 13 15  2  0  0  0  0
 14 18  2  0  0  0  0
 14  3  1  0  0  0  0
 15 10  1  0  0  0  0
 17  6  1  0  0  0  0
 18  8  1  0  0  0  0
 19  1  2  0  0  0  0
 19 13  1  0  0  0  0
 20 11  1  0  0  0  0
 20 10  2  0  0  0  0
 21 24  1  0  0  0  0
 21  1  1  0  0  0  0
 22 21  2  0  0  0  0
 23 28  2  0  0  0  0
 25 26  2  0  0  0  0
 26 23  1  0  0  0  0
 26 22  1  0  0  0  0
 27 23  1  0  0  0  0
 28 24  1  0  0  0  0
M  END
>  <MODEL>
1

>  <REMARK>
 VINA RESULT:     -12.2      0.000      0.000
  Name = 
  1 active torsions:
  status: ('A' for Active; 'I' for Inactive)
    1  A    between atoms: C_1  and  C_2
                            x       y       z     vdW  Elec       q    Type
                         _______ _______ _______ _____ _____    ______ ____

>  <TORSDO>
F 1

$$$$
=
 OpenBabel10262420563D

 28 32  0  0  0  0  0  0  0  0999 V2000
  186.7310  178.0660  145.7450 C   0  0  0  0  0  0  0  0  0  0  0  0
  188.4350  177.4970  140.9910 C   0  0  0  0  0  3  0  0  0  0  0  0
  191.4190  176.8310  146.2740 O   0  0  0  0  0  1  0  0  0  0  0  0
  190.8770  177.3650  141.2130 C   0  0  0  0  0  0  0  0  0  0  0  0
  189.3660  177.4280  143.2560 C   0  0  0  0  0  0  0  0  0  0  0  0
  189.9220  177.3190  138.9760 C   0  0  0  0  0  0  0  0  0  0  0  0
  189.5120  177.4410  141.7870 C   0  0  0  0  0  0  0  0  0  0  0  0
  191.7810  176.6980  143.4410 C   0  0  0  0  0  2  0  0  0  0  0  0
  191.0670  177.3130  139.8950 C   0  0  0  0  0  3  0  0  0  0  0  0
  189.0910  177.4580  146.0270 C   0  0  0  0  0  0  0  0  0  0  0  0
  188.1690  177.7250  143.8330 N   0  0  0  0  0  0  0  0  0  0  0  0
  192.0590  177.4340  142.1290 C   0  0  0  0  0  2  0  0  0  0  0  0
  187.6980  177.8300  147.9730 C   0  0  0  0  0  3  0  0  0  0  0  0
  190.3330  177.1390  145.4590 C   0  0  0  0  0  0  0  0  0  0  0  0
  188.9320  177.5020  147.4160 C   0  0  0  0  0  3  0  0  0  0  0  0
  190.1190  177.1920  137.7390 O   0  0  0  0  0  0  0  0  0  0  0  0
  188.5220  177.5140  139.4870 C   0  0  0  0  0  2  0  0  0  0  0  0
  190.4780  177.1300  144.0660 C   0  0  0  0  0  0  0  0  0  0  0  0
  186.6110  178.1100  147.1450 C   0  0  0  0  0  3  0  0  0  0  0  0
  187.9900  177.7430  145.1820 C   0  0  0  0  0  0  0  0  0  0  0  0
  185.5340  178.3580  144.9090 C   0  0  0  0  0  0  0  0  0  0  0  0
  185.6200  178.2510  143.5750 C   0  0  0  0  0  3  0  0  0  0  0  0
  183.1710  178.8440  143.3220 C   0  0  0  0  0  0  0  0  0  0  0  0
  184.2690  178.8870  145.5590 C   0  0  0  0  0  2  0  0  0  0  0  0
  184.5910  178.4750  141.4600 O   0  0  0  0  0  0  0  0  0  0  0  0
  184.4690  178.5330  142.7120 C   0  0  0  0  0  0  0  0  0  0  0  0
  182.0370  178.9810  142.5300 O   0  0  0  0  0  1  0  0  0  0  0  0
  183.0720  178.9760  144.6440 C   0  0  0  0  0  3  0  0  0  0  0  0
  1 19  1  0  0  0  0
  2  7  2  0  0  0  0
  4  7  1  0  0  0  0
  4 12  1  0  0  0  0
  5 11  2  0  0  0  0
  5 18  1  0  0  0  0
  6 17  1  0  0  0  0
  6  9  1  0  0  0  0
  7  5  1  0  0  0  0
  8 18  1  0  0  0  0
  9  4  2  0  0  0  0
 10 15  2  0  0  0  0
 11 20  1  0  0  0  0
 12  8  1  0  0  0  0
 14 10  1  0  0  0  0
 14  3  1  0  0  0  0
 15 13  1  0  0  0  0
 16  6  2  0  0  0  0
 17  2  1  0  0  0  0
 18 14  2  0  0  0  0
 19 13  2  0  0  0  0
 20  1  2  0  0  0  0
 20 10  1  0  0  0  0
 21 24  1  0  0  0  0
 21  1  1  0  0  0  0
 22 21  2  0  0  0  0
 23 28  2  0  0  0  0
 25 26  2  0  0  0  0
 26 23  1  0  0  0  0
 26 22  1  0  0  0  0
 27 23  1  0  0  0  0
 28 24  1  0  0  0  0
M  END
>  <MODEL>
2

>  <REMARK>
 VINA RESULT:     -12.2      1.806      6.084
  Name = 
  1 active torsions:
  status: ('A' for Active; 'I' for Inactive)
    1  A    between atoms: C_1  and  C_2
                            x       y       z     vdW  Elec       q    Type
                         _______ _______ _______ _____ _____    ______ ____

>  <TORSDO>
F 1

$$$$
=
 OpenBabel10262420563D

 28 32  0  0  0  0  0  0  0  0999 V2000
  190.4560  177.0720  144.3980 C   0  0  0  0  0  0  0  0  0  0  0  0
  185.7680  178.5650  143.1250 C   0  0  0  0  0  3  0  0  0  0  0  0
  188.2030  177.7700  148.6660 O   0  0  0  0  0  1  0  0  0  0  0  0
  184.4840  178.4440  145.2150 C   0  0  0  0  0  0  0  0  0  0  0  0
  186.9940  178.0420  145.1820 C   0  0  0  0  0  0  0  0  0  0  0  0
  183.3090  179.0730  143.1800 C   0  0  0  0  0  0  0  0  0  0  0  0
  185.7490  178.3510  144.4490 C   0  0  0  0  0  0  0  0  0  0  0  0
  185.7770  178.5130  147.3490 C   0  0  0  0  0  2  0  0  0  0  0  0
  183.3410  178.7780  144.6180 C   0  0  0  0  0  3  0  0  0  0  0  0
  189.3320  177.4060  146.5520 C   0  0  0  0  0  0  0  0  0  0  0  0
  188.1300  177.7190  144.5050 N   0  0  0  0  0  0  0  0  0  0  0  0
  184.4800  178.0730  146.6660 C   0  0  0  0  0  2  0  0  0  0  0  0
  191.6530  176.7160  146.4940 C   0  0  0  0  0  3  0  0  0  0  0  0
  188.1780  177.7440  147.2740 C   0  0  0  0  0  0  0  0  0  0  0  0
  190.5130  177.0610  147.2180 C   0  0  0  0  0  3  0  0  0  0  0  0
  182.2360  179.4620  142.6500 O   0  0  0  0  0  0  0  0  0  0  0  0
  184.5310  178.8820  142.3250 C   0  0  0  0  0  2  0  0  0  0  0  0
  186.9970  178.0570  146.5890 C   0  0  0  0  0  0  0  0  0  0  0  0
  191.6220  176.7200  145.1000 C   0  0  0  0  0  3  0  0  0  0  0  0
  189.2960  177.4110  145.1370 C   0  0  0  0  0  0  0  0  0  0  0  0
  190.4840  177.0740  142.9100 C   0  0  0  0  0  0  0  0  0  0  0  0
  191.6450  177.2900  142.2740 C   0  0  0  0  0  3  0  0  0  0  0  0
  190.5230  176.9850  140.0240 C   0  0  0  0  0  0  0  0  0  0  0  0
  189.1890  176.9540  142.1280 C   0  0  0  0  0  2  0  0  0  0  0  0
  192.8130  177.5630  140.2370 O   0  0  0  0  0  0  0  0  0  0  0  0
  191.7210  177.3070  140.8090 C   0  0  0  0  0  0  0  0  0  0  0  0
  190.6020  176.8620  138.6420 O   0  0  0  0  0  1  0  0  0  0  0  0
  189.3580  176.7890  140.6370 C   0  0  0  0  0  3  0  0  0  0  0  0
  1 19  2  0  0  0  0
  1 20  1  0  0  0  0
  2  7  2  0  0  0  0
  4 12  1  0  0  0  0
  5 18  1  0  0  0  0
  6  9  1  0  0  0  0
  7  5  1  0  0  0  0
  7  4  1  0  0  0  0
  9  4  2  0  0  0  0
 10 15  1  0  0  0  0
 10 14  1  0  0  0  0
 11 20  1  0  0  0  0
 11  5  2  0  0  0  0
 12  8  1  0  0  0  0
 13 15  2  0  0  0  0
 14  3  1  0  0  0  0
 16  6  2  0  0  0  0
 17  2  1  0  0  0  0
 17  6  1  0  0  0  0
 18 14  2  0  0  0  0
 18  8  1  0  0  0  0
 19 13  1  0  0  0  0
 20 10  2  0  0  0  0
 21  1  1  0  0  0  0
 22 21  2  0  0  0  0
 23 28  2  0  0  0  0
 23 26  1  0  0  0  0
 24 21  1  0  0  0  0
 25 26  2  0  0  0  0
 26 22  1  0  0  0  0
 27 23  1  0  0  0  0
 28 24  1  0  0  0  0
M  END
>  <MODEL>
3

>  <REMARK>
 VINA RESULT:     -12.0      1.756      5.455
  Name = 
  1 active torsions:
  status: ('A' for Active; 'I' for Inactive)
    1  A    between atoms: C_1  and  C_2
                            x       y       z     vdW  Elec       q    Type
                         _______ _______ _______ _____ _____    ______ ____

>  <TORSDO>
F 1

$$$$
=
 OpenBabel10262420563D

 28 32  0  0  0  0  0  0  0  0999 V2000
  185.3220  178.4550  144.5050 C   0  0  0  0  0  0  0  0  0  0  0  0
  188.8850  177.4820  141.0140 C   0  0  0  0  0  3  0  0  0  0  0  0
  189.3160  177.4210  147.1040 O   0  0  0  0  0  1  0  0  0  0  0  0
  190.9960  177.4470  142.2690 C   0  0  0  0  0  0  0  0  0  0  0  0
  188.7580  177.6600  143.4550 C   0  0  0  0  0  0  0  0  0  0  0  0
  191.0890  177.1560  139.8550 C   0  0  0  0  0  0  0  0  0  0  0  0
  189.5180  177.5360  142.1950 C   0  0  0  0  0  0  0  0  0  0  0  0
  190.8520  177.0260  144.7240 C   0  0  0  0  0  2  0  0  0  0  0  0
  191.7300  177.2740  141.1710 C   0  0  0  0  0  3  0  0  0  0  0  0
  187.3260  177.9500  145.8250 C   0  0  0  0  0  0  0  0  0  0  0  0
  187.4340  177.9760  143.4330 N   0  0  0  0  0  0  0  0  0  0  0  0
  191.6750  177.6400  143.5900 C   0  0  0  0  0  2  0  0  0  0  0  0
  185.2400  178.4660  146.9430 C   0  0  0  0  0  3  0  0  0  0  0  0
  188.6870  177.6150  145.8760 C   0  0  0  0  0  0  0  0  0  0  0  0
  186.5900  178.1230  147.0020 C   0  0  0  0  0  3  0  0  0  0  0  0
  191.7930  176.9150  138.8410 O   0  0  0  0  0  0  0  0  0  0  0  0
  189.6070  177.3560  139.6980 C   0  0  0  0  0  2  0  0  0  0  0  0
  189.4140  177.4770  144.6870 C   0  0  0  0  0  0  0  0  0  0  0  0
  184.6160  178.6310  145.7070 C   0  0  0  0  0  3  0  0  0  0  0  0
  186.6960  178.1180  144.5680 C   0  0  0  0  0  0  0  0  0  0  0  0
  184.6010  178.6290  143.2140 C   0  0  0  0  0  0  0  0  0  0  0  0
  185.2990  178.8920  142.1000 C   0  0  0  0  0  3  0  0  0  0  0  0
  183.1820  178.8710  140.7100 C   0  0  0  0  0  0  0  0  0  0  0  0
  183.0830  178.6260  143.1890 C   0  0  0  0  0  2  0  0  0  0  0  0
  185.3060  179.3730  139.7860 O   0  0  0  0  0  0  0  0  0  0  0  0
  184.6320  179.0760  140.8070 C   0  0  0  0  0  0  0  0  0  0  0  0
  182.5480  178.9060  139.4740 O   0  0  0  0  0  1  0  0  0  0  0  0
  182.4690  178.6310  141.8100 C   0  0  0  0  0  3  0  0  0  0  0  0
  1 20  2  0  0  0  0
  1 19  1  0  0  0  0
  2  7  2  0  0  0  0
  4 12  1  0  0  0  0
  5 18  1  0  0  0  0
  6  9  1  0  0  0  0
  7  4  1  0  0  0  0
  7  5  1  0  0  0  0
  9  4  2  0  0  0  0
 10 14  1  0  0  0  0
 10 15  2  0  0  0  0
 11  5  2  0  0  0  0
 11 20  1  0  0  0  0
 12  8  1  0  0  0  0
 13 15  1  0  0  0  0
 14  3  1  0  0  0  0
 16  6  2  0  0  0  0
 17  6  1  0  0  0  0
 17  2  1  0  0  0  0
 18  8  1  0  0  0  0
 18 14  2  0  0  0  0
 19 13  2  0  0  0  0
 20 10  1  0  0  0  0
 21  1  1  0  0  0  0
 22 21  2  0  0  0  0
 23 26  1  0  0  0  0
 23 28  2  0  0  0  0
 24 21  1  0  0  0  0
 25 26  2  0  0  0  0
 26 22  1  0  0  0  0
 27 23  1  0  0  0  0
 28 24  1  0  0  0  0
M  END
>  <MODEL>
4

>  <REMARK>
 VINA RESULT:     -12.0      1.940      5.010
  Name = 
  1 active torsions:
  status: ('A' for Active; 'I' for Inactive)
    1  A    between atoms: C_1  and  C_2
                            x       y       z     vdW  Elec       q    Type
                         _______ _______ _______ _____ _____    ______ ____

>  <TORSDO>
F 1

$$$$
=
 OpenBabel10262420563D

 28 32  0  0  0  0  0  0  0  0999 V2000
  188.9210  177.5120  144.7990 C   0  0  0  0  0  0  0  0  0  0  0  0
  185.4520  178.6550  141.2650 C   0  0  0  0  0  3  0  0  0  0  0  0
  184.8990  178.5720  147.3440 O   0  0  0  0  0  1  0  0  0  0  0  0
  183.3180  178.7070  142.4780 C   0  0  0  0  0  0  0  0  0  0  0  0
  185.5260  178.4120  143.7020 C   0  0  0  0  0  0  0  0  0  0  0  0
  183.2810  179.0610  140.0710 C   0  0  0  0  0  0  0  0  0  0  0  0
  184.7940  178.5860  142.4310 C   0  0  0  0  0  0  0  0  0  0  0  0
  183.4210  179.0620  144.9460 C   0  0  0  0  0  2  0  0  0  0  0  0
  182.6100  178.9240  141.3700 C   0  0  0  0  0  3  0  0  0  0  0  0
  186.9020  178.0290  146.0920 C   0  0  0  0  0  0  0  0  0  0  0  0
  186.8420  178.0670  143.6990 N   0  0  0  0  0  0  0  0  0  0  0  0
  182.6080  178.4950  143.7800 C   0  0  0  0  0  2  0  0  0  0  0  0
  188.9530  177.4380  147.2380 C   0  0  0  0  0  3  0  0  0  0  0  0
  185.5480  178.3940  146.1250 C   0  0  0  0  0  0  0  0  0  0  0  0
  187.6100  177.8100  147.2780 C   0  0  0  0  0  3  0  0  0  0  0  0
  182.6030  179.3430  139.0490 O   0  0  0  0  0  0  0  0  0  0  0  0
  184.7600  178.8300  139.9390 C   0  0  0  0  0  2  0  0  0  0  0  0
  184.8490  178.5790  144.9250 C   0  0  0  0  0  0  0  0  0  0  0  0
  189.5980  177.2900  146.0110 C   0  0  0  0  0  3  0  0  0  0  0  0
  187.5540  177.8790  144.8440 C   0  0  0  0  0  0  0  0  0  0  0  0
  189.6650  177.3550  143.5190 C   0  0  0  0  0  0  0  0  0  0  0  0
  188.9870  177.3440  142.3610 C   0  0  0  0  0  3  0  0  0  0  0  0
  191.1430  177.1390  141.0470 C   0  0  0  0  0  0  0  0  0  0  0  0
  191.1590  177.0900  143.5390 C   0  0  0  0  0  2  0  0  0  0  0  0
  189.0120  177.1280  140.0080 O   0  0  0  0  0  0  0  0  0  0  0  0
  189.6760  177.1870  141.0760 C   0  0  0  0  0  0  0  0  0  0  0  0
  191.8210  177.1270  139.8350 O   0  0  0  0  0  1  0  0  0  0  0  0
  191.8300  177.1270  142.1880 C   0  0  0  0  0  3  0  0  0  0  0  0
  1 20  2  0  0  0  0
  1 19  1  0  0  0  0
  2  7  2  0  0  0  0
  4 12  1  0  0  0  0
  5 18  1  0  0  0  0
  6  9  1  0  0  0  0
  7  4  1  0  0  0  0
  7  5  1  0  0  0  0
  9  4  2  0  0  0  0
 10 14  1  0  0  0  0
 10 15  2  0  0  0  0
 11  5  2  0  0  0  0
 11 20  1  0  0  0  0
 12  8  1  0  0  0  0
 13 15  1  0  0  0  0
 14  3  1  0  0  0  0
 16  6  2  0  0  0  0
 17  6  1  0  0  0  0
 17  2  1  0  0  0  0
 18  8  1  0  0  0  0
 18 14  2  0  0  0  0
 19 13  2  0  0  0  0
 20 10  1  0  0  0  0
 21 24  1  0  0  0  0
 21  1  1  0  0  0  0
 22 21  2  0  0  0  0
 23 26  1  0  0  0  0
 23 28  2  0  0  0  0
 25 26  2  0  0  0  0
 26 22  1  0  0  0  0
 27 23  1  0  0  0  0
 28 24  1  0  0  0  0
M  END
>  <MODEL>
5

>  <REMARK>
 VINA RESULT:     -11.8      2.099      5.859
  Name = 
  1 active torsions:
  status: ('A' for Active; 'I' for Inactive)
    1  A    between atoms: C_1  and  C_2
                            x       y       z     vdW  Elec       q    Type
                         _______ _______ _______ _____ _____    ______ ____

>  <TORSDO>
F 1

$$$$
=
 OpenBabel10262420563D

 28 32  0  0  0  0  0  0  0  0999 V2000
  183.6960  178.4460  141.9820 C   0  0  0  0  0  0  0  0  0  0  0  0
  188.4530  176.7690  142.6020 C   0  0  0  0  0  3  0  0  0  0  0  0
  184.4450  178.6730  146.7950 O   0  0  0  0  0  1  0  0  0  0  0  0
  189.0180  177.3350  144.9240 C   0  0  0  0  0  0  0  0  0  0  0  0
  186.6740  177.6950  144.0090 C   0  0  0  0  0  0  0  0  0  0  0  0
  190.7360  176.3080  143.5410 C   0  0  0  0  0  0  0  0  0  0  0  0
  188.0650  177.2540  143.7910 C   0  0  0  0  0  0  0  0  0  0  0  0
  187.1170  177.6980  146.5000 C   0  0  0  0  0  2  0  0  0  0  0  0
  190.2700  176.8960  144.8030 C   0  0  0  0  0  3  0  0  0  0  0  0
  184.0630  178.5780  144.4030 C   0  0  0  0  0  0  0  0  0  0  0  0
  185.8280  177.8580  142.9550 N   0  0  0  0  0  0  0  0  0  0  0  0
  188.5860  177.9990  146.1950 C   0  0  0  0  0  2  0  0  0  0  0  0
  181.9210  179.2160  143.4690 C   0  0  0  0  0  3  0  0  0  0  0  0
  184.9100  178.4090  145.5090 C   0  0  0  0  0  0  0  0  0  0  0  0
  182.7540  179.0410  144.5730 C   0  0  0  0  0  3  0  0  0  0  0  0
  191.8970  175.8290  143.4710 O   0  0  0  0  0  0  0  0  0  0  0  0
  189.8580  176.3050  142.3200 C   0  0  0  0  0  2  0  0  0  0  0  0
  186.2260  177.9730  145.3140 C   0  0  0  0  0  0  0  0  0  0  0  0
  182.3900  178.9230  142.1880 C   0  0  0  0  0  3  0  0  0  0  0  0
  184.5430  178.2790  143.1050 C   0  0  0  0  0  0  0  0  0  0  0  0
  184.1370  178.1330  140.5950 C   0  0  0  0  0  0  0  0  0  0  0  0
  185.3320  178.5710  140.1700 C   0  0  0  0  0  3  0  0  0  0  0  0
  185.0050  177.4340  137.9310 C   0  0  0  0  0  0  0  0  0  0  0  0
  183.1910  177.4300  139.6400 C   0  0  0  0  0  2  0  0  0  0  0  0
  186.9090  178.7590  138.4200 O   0  0  0  0  0  0  0  0  0  0  0  0
  185.8070  178.2920  138.8110 C   0  0  0  0  0  0  0  0  0  0  0  0
  185.4960  177.0450  136.6900 O   0  0  0  0  0  1  0  0  0  0  0  0
  183.8070  177.0080  138.3280 C   0  0  0  0  0  3  0  0  0  0  0  0
  1 19  2  0  0  0  0
  1 20  1  0  0  0  0
  2  7  2  0  0  0  0
  4 12  1  0  0  0  0
  5 18  1  0  0  0  0
  6  9  1  0  0  0  0
  7  5  1  0  0  0  0
  7  4  1  0  0  0  0
  9  4  2  0  0  0  0
 10 15  1  0  0  0  0
 10 14  1  0  0  0  0
 11 20  1  0  0  0  0
 11  5  2  0  0  0  0
 12  8  1  0  0  0  0
 13 15  2  0  0  0  0
 14  3  1  0  0  0  0
 16  6  2  0  0  0  0
 17  2  1  0  0  0  0
 17  6  1  0  0  0  0
 18 14  2  0  0  0  0
 18  8  1  0  0  0  0
 19 13  1  0  0  0  0
 20 10  2  0  0  0  0
 21  1  1  0  0  0  0
 22 21  2  0  0  0  0
 23 28  2  0  0  0  0
 23 26  1  0  0  0  0
 24 21  1  0  0  0  0
 25 26  2  0  0  0  0
 26 22  1  0  0  0  0
 27 23  1  0  0  0  0
 28 24  1  0  0  0  0
M  END
>  <MODEL>
6

>  <REMARK>
 VINA RESULT:     -11.7      2.033      3.200
  Name = 
  1 active torsions:
  status: ('A' for Active; 'I' for Inactive)
    1  A    between atoms: C_1  and  C_2
                            x       y       z     vdW  Elec       q    Type
                         _______ _______ _______ _____ _____    ______ ____

>  <TORSDO>
F 1

$$$$
=
 OpenBabel10262420563D

 28 32  0  0  0  0  0  0  0  0999 V2000
  185.2990  178.4440  144.4570 C   0  0  0  0  0  0  0  0  0  0  0  0
  188.9650  177.4550  141.0780 C   0  0  0  0  0  3  0  0  0  0  0  0
  189.2220  177.4490  147.1770 O   0  0  0  0  0  1  0  0  0  0  0  0
  191.0390  177.4400  142.3920 C   0  0  0  0  0  0  0  0  0  0  0  0
  188.7670  177.6540  143.5120 C   0  0  0  0  0  0  0  0  0  0  0  0
  191.2010  177.1280  139.9850 C   0  0  0  0  0  0  0  0  0  0  0  0
  189.5630  177.5220  142.2760 C   0  0  0  0  0  0  0  0  0  0  0  0
  190.8270  177.0400  144.8460 C   0  0  0  0  0  2  0  0  0  0  0  0
  191.8050  177.2600  141.3170 C   0  0  0  0  0  3  0  0  0  0  0  0
  187.2670  177.9590  145.8380 C   0  0  0  0  0  0  0  0  0  0  0  0
  187.4430  177.9640  143.4500 N   0  0  0  0  0  0  0  0  0  0  0  0
  191.6790  177.6480  143.7300 C   0  0  0  0  0  2  0  0  0  0  0  0
  185.1480  178.4750  146.8920 C   0  0  0  0  0  3  0  0  0  0  0  0
  188.6270  177.6300  145.9310 C   0  0  0  0  0  0  0  0  0  0  0  0
  186.4970  178.1390  146.9920 C   0  0  0  0  0  3  0  0  0  0  0  0
  191.9350  176.8820  138.9930 O   0  0  0  0  0  0  0  0  0  0  0  0
  189.7240  177.3210  139.7840 C   0  0  0  0  0  2  0  0  0  0  0  0
  189.3880  177.4840  144.7640 C   0  0  0  0  0  0  0  0  0  0  0  0
  184.5580  178.6270  145.6370 C   0  0  0  0  0  3  0  0  0  0  0  0
  186.6730  178.1130  144.5620 C   0  0  0  0  0  0  0  0  0  0  0  0
  184.6140  178.6030  143.1440 C   0  0  0  0  0  0  0  0  0  0  0  0
  183.2740  178.5910  143.0950 C   0  0  0  0  0  3  0  0  0  0  0  0
  183.3150  179.0050  140.5970 C   0  0  0  0  0  0  0  0  0  0  0  0
  185.4310  178.6580  141.8660 C   0  0  0  0  0  2  0  0  0  0  0  0
  181.2990  178.6720  141.8000 O   0  0  0  0  0  0  0  0  0  0  0  0
  182.5560  178.7390  141.8250 C   0  0  0  0  0  0  0  0  0  0  0  0
  182.6510  179.2820  139.4080 O   0  0  0  0  0  1  0  0  0  0  0  0
  184.6460  178.9990  140.6230 C   0  0  0  0  0  3  0  0  0  0  0  0
  1 20  2  0  0  0  0
  1 19  1  0  0  0  0
  2  7  2  0  0  0  0
  4 12  1  0  0  0  0
  5 18  1  0  0  0  0
  6  9  1  0  0  0  0
  7  4  1  0  0  0  0
  7  5  1  0  0  0  0
  9  4  2  0  0  0  0
 10 14  1  0  0  0  0
 10 15  2  0  0  0  0
 11  5  2  0  0  0  0
 11 20  1  0  0  0  0
 12  8  1  0  0  0  0
 13 15  1  0  0  0  0
 14  3  1  0  0  0  0
 16  6  2  0  0  0  0
 17  6  1  0  0  0  0
 17  2  1  0  0  0  0
 18  8  1  0  0  0  0
 18 14  2  0  0  0  0
 19 13  2  0  0  0  0
 20 10  1  0  0  0  0
 21  1  1  0  0  0  0
 22 21  2  0  0  0  0
 23 28  2  0  0  0  0
 23 26  1  0  0  0  0
 24 21  1  0  0  0  0
 25 26  2  0  0  0  0
 26 22  1  0  0  0  0
 27 23  1  0  0  0  0
 28 24  1  0  0  0  0
M  END
>  <MODEL>
7

>  <REMARK>
 VINA RESULT:     -11.5      2.177      5.086
  Name = 
  1 active torsions:
  status: ('A' for Active; 'I' for Inactive)
    1  A    between atoms: C_1  and  C_2
                            x       y       z     vdW  Elec       q    Type
                         _______ _______ _______ _____ _____    ______ ____

>  <TORSDO>
F 1

$$$$
=
 OpenBabel10262420563D

 28 32  0  0  0  0  0  0  0  0999 V2000
  189.9490  177.4360  142.5640 C   0  0  0  0  0  0  0  0  0  0  0  0
  185.0100  178.6370  142.5400 C   0  0  0  0  0  3  0  0  0  0  0  0
  188.8120  177.9960  147.2730 O   0  0  0  0  0  1  0  0  0  0  0  0
  184.3070  178.4380  144.8840 C   0  0  0  0  0  0  0  0  0  0  0  0
  186.7460  178.1920  144.2110 C   0  0  0  0  0  0  0  0  0  0  0  0
  182.6200  178.9930  143.2220 C   0  0  0  0  0  0  0  0  0  0  0  0
  185.3410  178.4230  143.8220 C   0  0  0  0  0  0  0  0  0  0  0  0
  186.0910  178.5870  146.6230 C   0  0  0  0  0  2  0  0  0  0  0  0
  183.0320  178.7010  144.6000 C   0  0  0  0  0  3  0  0  0  0  0  0
  189.3890  177.7020  144.9370 C   0  0  0  0  0  0  0  0  0  0  0  0
  187.6920  177.9400  143.2650 N   0  0  0  0  0  0  0  0  0  0  0  0
  184.6930  178.0680  146.2840 C   0  0  0  0  0  2  0  0  0  0  0  0
  191.6570  177.1560  144.2830 C   0  0  0  0  0  3  0  0  0  0  0  0
  188.4370  177.9680  145.9320 C   0  0  0  0  0  0  0  0  0  0  0  0
  190.7180  177.4310  145.2770 C   0  0  0  0  0  3  0  0  0  0  0  0
  181.4270  179.3150  142.9860 O   0  0  0  0  0  0  0  0  0  0  0  0
  183.5950  178.8770  142.0830 C   0  0  0  0  0  2  0  0  0  0  0  0
  187.1050  178.2070  145.5720 C   0  0  0  0  0  0  0  0  0  0  0  0
  191.2730  177.1580  142.9430 C   0  0  0  0  0  3  0  0  0  0  0  0
  188.9950  177.7040  143.5770 C   0  0  0  0  0  0  0  0  0  0  0  0
  189.5990  177.4400  141.1170 C   0  0  0  0  0  0  0  0  0  0  0  0
  188.4830  178.0640  140.7110 C   0  0  0  0  0  3  0  0  0  0  0  0
  188.9950  177.5080  138.2940 C   0  0  0  0  0  0  0  0  0  0  0  0
  190.4370  176.6430  140.1330 C   0  0  0  0  0  2  0  0  0  0  0  0
  187.0160  178.6380  138.9490 O   0  0  0  0  0  0  0  0  0  0  0  0
  188.0960  178.0900  139.2970 C   0  0  0  0  0  0  0  0  0  0  0  0
  188.7160  177.6400  136.9390 O   0  0  0  0  0  1  0  0  0  0  0  0
  190.0960  176.8660  138.6800 C   0  0  0  0  0  3  0  0  0  0  0  0
  1 19  2  0  0  0  0
  1 20  1  0  0  0  0
  2  7  2  0  0  0  0
  4 12  1  0  0  0  0
  5 18  1  0  0  0  0
  6  9  1  0  0  0  0
  7  5  1  0  0  0  0
  7  4  1  0  0  0  0
  9  4  2  0  0  0  0
 10 15  1  0  0  0  0
 10 14  1  0  0  0  0
 11 20  1  0  0  0  0
 11  5  2  0  0  0  0
 12  8  1  0  0  0  0
 13 15  2  0  0  0  0
 14  3  1  0  0  0  0
 16  6  2  0  0  0  0
 17  2  1  0  0  0  0
 17  6  1  0  0  0  0
 18 14  2  0  0  0  0
 18  8  1  0  0  0  0
 19 13  1  0  0  0  0
 20 10  2  0  0  0  0
 21  1  1  0  0  0  0
 22 21  2  0  0  0  0
 23 28  2  0  0  0  0
 23 26  1  0  0  0  0
 24 21  1  0  0  0  0
 25 26  2  0  0  0  0
 26 22  1  0  0  0  0
 27 23  1  0  0  0  0
 28 24  1  0  0  0  0
M  END
>  <MODEL>
8

>  <REMARK>
 VINA RESULT:     -11.4      1.835      5.346
  Name = 
  1 active torsions:
  status: ('A' for Active; 'I' for Inactive)
    1  A    between atoms: C_1  and  C_2
                            x       y       z     vdW  Elec       q    Type
                         _______ _______ _______ _____ _____    ______ ____

>  <TORSDO>
F 1

$$$$
=
 OpenBabel10262420563D

 28 32  0  0  0  0  0  0  0  0999 V2000
  186.5510  178.0700  145.3370 C   0  0  0  0  0  0  0  0  0  0  0  0
  188.7070  178.0730  140.7340 C   0  0  0  0  0  3  0  0  0  0  0  0
  182.9570  179.3820  142.3140 O   0  0  0  0  0  1  0  0  0  0  0  0
  186.8260  178.2420  139.1640 C   0  0  0  0  0  0  0  0  0  0  0  0
  186.4700  178.4180  141.6740 C   0  0  0  0  0  0  0  0  0  0  0  0
  189.0700  178.0150  138.2500 C   0  0  0  0  0  0  0  0  0  0  0  0
  187.3900  178.2290  140.5350 C   0  0  0  0  0  0  0  0  0  0  0  0
  184.6880  179.1760  140.0470 C   0  0  0  0  0  2  0  0  0  0  0  0
  187.6150  178.1360  138.0950 C   0  0  0  0  0  3  0  0  0  0  0  0
  184.7300  178.7180  143.8270 C   0  0  0  0  0  0  0  0  0  0  0  0
  186.8930  178.1860  142.9470 N   0  0  0  0  0  0  0  0  0  0  0  0
  185.3400  178.2890  138.9850 C   0  0  0  0  0  2  0  0  0  0  0  0
  184.3310  178.5760  146.2120 C   0  0  0  0  0  3  0  0  0  0  0  0
  184.2710  178.9730  142.5260 C   0  0  0  0  0  0  0  0  0  0  0  0
  183.8700  178.8410  144.9230 C   0  0  0  0  0  3  0  0  0  0  0  0
  189.8030  177.9940  137.2280 O   0  0  0  0  0  0  0  0  0  0  0  0
  189.6920  177.8760  139.6120 C   0  0  0  0  0  2  0  0  0  0  0  0
  185.1410  178.8150  141.4400 C   0  0  0  0  0  0  0  0  0  0  0  0
  185.6570  178.1930  146.4140 C   0  0  0  0  0  3  0  0  0  0  0  0
  186.0770  178.3290  144.0270 C   0  0  0  0  0  0  0  0  0  0  0  0
  187.9600  177.6740  145.6120 C   0  0  0  0  0  0  0  0  0  0  0  0
  188.8110  177.5140  144.5880 C   0  0  0  0  0  3  0  0  0  0  0  0
  190.7080  176.9940  146.1840 C   0  0  0  0  0  0  0  0  0  0  0  0
  188.3890  177.3400  147.0290 C   0  0  0  0  0  2  0  0  0  0  0  0
  190.9700  176.9250  143.8290 O   0  0  0  0  0  0  0  0  0  0  0  0
  190.2060  177.1200  144.8100 C   0  0  0  0  0  0  0  0  0  0  0  0
  192.0560  176.7550  146.4200 O   0  0  0  0  0  1  0  0  0  0  0  0
  189.8720  177.1290  147.2120 C   0  0  0  0  0  3  0  0  0  0  0  0
  1 21  1  0  0  0  0
  1 19  1  0  0  0  0
  3 14  1  0  0  0  0
  4  7  1  0  0  0  0
  5 11  2  0  0  0  0
  6 17  1  0  0  0  0
  7  2  2  0  0  0  0
  7  5  1  0  0  0  0
  8 18  1  0  0  0  0
  9  6  1  0  0  0  0
  9  4  2  0  0  0  0
 10 20  1  0  0  0  0
 10 15  2  0  0  0  0
 11 20  1  0  0  0  0
 12  4  1  0  0  0  0
 12  8  1  0  0  0  0
 13 19  2  0  0  0  0
 14 10  1  0  0  0  0
 15 13  1  0  0  0  0
 16  6  2  0  0  0  0
 17  2  1  0  0  0  0
 18  5  1  0  0  0  0
 18 14  2  0  0  0  0
 20  1  2  0  0  0  0
 21 24  1  0  0  0  0
 22 26  1  0  0  0  0
 22 21  2  0  0  0  0
 23 27  1  0  0  0  0
 23 28  2  0  0  0  0
 24 28  1  0  0  0  0
 25 26  2  0  0  0  0
 26 23  1  0  0  0  0
M  END
>  <MODEL>
9

>  <REMARK>
 VINA RESULT:     -11.3      1.697      6.322
  Name = 
  1 active torsions:
  status: ('A' for Active; 'I' for Inactive)
    1  A    between atoms: C_1  and  C_2
                            x       y       z     vdW  Elec       q    Type
                         _______ _______ _______ _____ _____    ______ ____

>  <TORSDO>
F 1

$$$$
