=
 OpenBabel10262419113D

 34 38  0  0  1  0  0  0  0  0999 V2000
  187.4120  177.9670  147.0980 C   0  0  0  0  0  0  0  0  0  0  0  0
  189.8390  177.7010  147.0310 C   0  0  0  0  0  0  0  0  0  0  0  0
  188.5290  177.4630  144.9930 C   0  0  0  0  0  0  0  0  0  0  0  0
  189.6830  176.7420  142.8980 N   0  0  0  0  0  0  0  0  0  0  0  0
  188.7280  178.2720  149.1100 C   0  0  0  0  0  3  0  0  0  0  0  0
  189.8990  177.9770  148.4000 C   0  0  0  0  0  3  0  0  0  0  0  0
  191.0160  177.0740  144.9800 C   0  0  0  0  0  3  0  0  0  0  0  0
  188.5960  177.7280  146.3700 C   0  0  0  0  0  0  0  0  0  0  0  0
  191.7310  177.5620  142.1130 O   0  0  0  0  0  0  0  0  0  0  0  0
  187.4870  178.2580  148.4630 C   0  0  0  0  0  3  0  0  0  0  0  0
  187.2810  177.3270  144.3680 C   0  0  0  0  0  0  0  0  0  0  0  0
  186.1740  177.8870  146.4560 C   0  0  0  0  0  3  0  0  0  0  0  0
  191.0430  177.2490  146.3070 C   0  0  0  0  0  3  0  0  0  0  0  0
  188.4380  176.0570  142.5370 C   0  0  0  0  0  2  0  0  0  0  0  0
  187.2060  176.8810  142.9390 C   0  0  2  0  0  3  0  0  0  0  0  0
  190.7140  176.8430  141.9030 C   0  0  0  0  0  0  0  0  0  0  0  0
  189.8020  177.4660  144.1740 C   0  0  2  0  0  3  0  0  0  0  0  0
  186.1070  177.5500  145.0980 C   0  0  0  0  0  3  0  0  0  0  0  0
  185.7790  178.8240  142.1320 C   0  0  0  0  0  0  0  0  0  0  0  0
  185.9090  180.0260  142.4850 O   0  0  0  0  0  0  0  0  0  0  0  0
  186.9360  177.9810  142.0100 N   0  0  0  0  0  0  0  0  0  0  0  0
  184.1510  178.2060  141.7170 S   0  0  0  0  0  1  0  0  0  0  0  0
  188.7030  179.4900  141.2020 C   0  0  0  0  0  1  0  0  0  0  0  0
  187.2600  178.2510  139.5900 C   0  0  0  0  0  1  0  0  0  0  0  0
  187.9220  178.2120  140.9570 C   0  0  0  0  0  3  0  0  0  0  0  0
  190.5790  176.1560  140.6950 O   0  0  0  0  0  0  0  0  0  0  0  0
  190.9280  176.7480  139.4500 C   0  0  0  0  0  2  0  0  0  0  0  0
  189.5950  178.0670  137.0850 C   0  0  0  0  0  1  0  0  0  0  0  0
  190.3040  175.9620  138.3070 C   0  0  1  0  0  3  0  0  0  0  0  0
  190.3540  176.7550  136.9780 C   0  0  1  0  0  3  0  0  0  0  0  0
  190.5100  174.7980  135.8240 C   0  0  0  0  0  2  0  0  0  0  0  0
  190.4110  174.0130  137.1330 C   0  0  0  0  0  2  0  0  0  0  0  0
  191.0160  174.7530  138.1650 O   0  0  0  0  0  0  0  0  0  0  0  0
  189.7780  175.9940  135.9400 O   0  0  0  0  0  0  0  0  0  0  0  0
  1 10  2  0  0  0  0
  2  6  1  0  0  0  0
  3  8  1  0  0  0  0
  4 17  1  0  0  0  0
  6  5  2  0  0  0  0
  7 13  2  0  0  0  0
  8  2  2  0  0  0  0
  8  1  1  0  0  0  0
 10  5  1  0  0  0  0
 11  3  2  0  0  0  0
 11 18  1  0  0  0  0
 12  1  1  0  0  0  0
 13  2  1  0  0  0  0
 14  4  1  0  0  0  0
 14 15  1  0  0  0  0
 15 21  1  6  0  0  0
 15 11  1  0  0  0  0
 16  9  2  0  0  0  0
 16  4  1  0  0  0  0
 17  7  1  1  0  0  0
 17  3  1  0  0  0  0
 18 12  2  0  0  0  0
 19 20  2  0  0  0  0
 21 19  1  0  0  0  0
 22 19  1  0  0  0  0
 24 25  1  0  0  0  0
 25 23  1  0  0  0  0
 25 21  1  0  0  0  0
 26 16  1  0  0  0  0
 27 26  1  0  0  0  0
 29 27  1  1  0  0  0
 30 28  1  1  0  0  0
 30 29  1  0  0  0  0
 31 34  1  0  0  0  0
 31 32  1  0  0  0  0
 32 33  1  0  0  0  0
 33 29  1  0  0  0  0
 34 30  1  0  0  0  0
M  END
>  <MODEL>
1

>  <REMARK>
 VINA RESULT:      -8.5      0.000      0.000
  Name = 
  5 active torsions:
  status: ('A' for Active; 'I' for Inactive)
    1  A    between atoms: C_3  and  C_13
    2  A    between atoms: C_3  and  O_17
    3  A    between atoms: O_17  and  C_29
    4  A    between atoms: N_23  and  C_27
    5  A    between atoms: N_23  and  C_28
                            x       y       z     vdW  Elec       q    Type
                         _______ _______ _______ _____ _____    ______ ____

>  <TORSDO>
F 5

$$$$
=
 OpenBabel10262419113D

 34 38  0  0  1  0  0  0  0  0999 V2000
  185.7810  178.3950  143.1140 C   0  0  0  0  0  0  0  0  0  0  0  0
  183.4430  178.7050  143.7510 C   0  0  0  0  0  0  0  0  0  0  0  0
  184.0840  178.7440  141.4020 C   0  0  0  0  0  0  0  0  0  0  0  0
  182.3520  179.3100  139.6910 N   0  0  0  0  0  0  0  0  0  0  0  0
  185.1270  178.2880  145.4450 C   0  0  0  0  0  3  0  0  0  0  0  0
  183.7960  178.5460  145.0940 C   0  0  0  0  0  3  0  0  0  0  0  0
  181.7040  179.1820  142.0970 C   0  0  0  0  0  3  0  0  0  0  0  0
  184.4320  178.5970  142.7530 C   0  0  0  0  0  0  0  0  0  0  0  0
  180.1680  178.4690  139.6260 O   0  0  0  0  0  0  0  0  0  0  0  0
  186.1180  178.2210  144.4600 C   0  0  0  0  0  3  0  0  0  0  0  0
  185.0870  178.8010  140.4240 C   0  0  0  0  0  0  0  0  0  0  0  0
  186.7710  178.3950  142.1280 C   0  0  0  0  0  3  0  0  0  0  0  0
  182.0760  179.1190  143.3820 C   0  0  0  0  0  3  0  0  0  0  0  0
  183.4300  179.9350  138.9180 C   0  0  0  0  0  2  0  0  0  0  0  0
  184.7300  179.1230  139.0040 C   0  0  2  0  0  3  0  0  0  0  0  0
  181.0720  179.1460  139.0620 C   0  0  0  0  0  0  0  0  0  0  0  0
  182.6240  178.6980  141.0030 C   0  0  2  0  0  3  0  0  0  0  0  0
  186.4270  178.6160  140.7880 C   0  0  0  0  0  3  0  0  0  0  0  0
  185.9140  177.3990  137.5590 C   0  0  0  0  0  0  0  0  0  0  0  0
  186.3560  176.2880  137.9560 O   0  0  0  0  0  0  0  0  0  0  0  0
  184.7160  177.9440  138.1360 N   0  0  0  0  0  0  0  0  0  0  0  0
  186.7530  178.2480  136.2260 S   0  0  0  0  0  1  0  0  0  0  0  0
  183.3060  175.9920  138.6400 C   0  0  0  0  0  1  0  0  0  0  0  0
  183.1730  177.1100  136.4160 C   0  0  0  0  0  1  0  0  0  0  0  0
  183.4190  177.3130  137.9010 C   0  0  0  0  0  3  0  0  0  0  0  0
  180.8360  179.7260  137.8140 O   0  0  0  0  0  0  0  0  0  0  0  0
  180.0120  180.8740  137.6610 C   0  0  0  0  0  2  0  0  0  0  0  0
  180.4550  181.1060  134.6850 C   0  0  0  0  0  1  0  0  0  0  0  0
  180.8070  182.0060  137.0290 C   0  0  1  0  0  3  0  0  0  0  0  0
  180.3130  182.3150  135.5940 C   0  0  1  0  0  3  0  0  0  0  0  0
  180.8960  184.4990  135.8720 C   0  0  0  0  0  2  0  0  0  0  0  0
  181.4300  184.1840  137.2700 C   0  0  0  0  0  2  0  0  0  0  0  0
  180.6610  183.1520  137.8380 O   0  0  0  0  0  0  0  0  0  0  0  0
  181.0630  183.3740  135.0430 O   0  0  0  0  0  0  0  0  0  0  0  0
  1 10  2  0  0  0  0
  2  6  1  0  0  0  0
  3  8  1  0  0  0  0
  4 17  1  0  0  0  0
  6  5  2  0  0  0  0
  7 13  2  0  0  0  0
  8  1  1  0  0  0  0
  8  2  2  0  0  0  0
 10  5  1  0  0  0  0
 11 18  1  0  0  0  0
 11  3  2  0  0  0  0
 12  1  1  0  0  0  0
 13  2  1  0  0  0  0
 14 15  1  0  0  0  0
 14  4  1  0  0  0  0
 15 21  1  6  0  0  0
 15 11  1  0  0  0  0
 16  9  2  0  0  0  0
 16  4  1  0  0  0  0
 17  3  1  0  0  0  0
 17  7  1  1  0  0  0
 18 12  2  0  0  0  0
 19 20  2  0  0  0  0
 19 21  1  0  0  0  0
 22 19  1  0  0  0  0
 24 25  1  0  0  0  0
 25 21  1  0  0  0  0
 25 23  1  0  0  0  0
 26 16  1  0  0  0  0
 27 26  1  0  0  0  0
 29 27  1  1  0  0  0
 29 33  1  0  0  0  0
 30 28  1  6  0  0  0
 30 29  1  0  0  0  0
 31 32  1  0  0  0  0
 32 33  1  0  0  0  0
 34 30  1  0  0  0  0
 34 31  1  0  0  0  0
M  END
>  <MODEL>
2

>  <REMARK>
 VINA RESULT:      -8.2      5.391      8.507
  Name = 
  5 active torsions:
  status: ('A' for Active; 'I' for Inactive)
    1  A    between atoms: C_3  and  C_13
    2  A    between atoms: C_3  and  O_17
    3  A    between atoms: O_17  and  C_29
    4  A    between atoms: N_23  and  C_27
    5  A    between atoms: N_23  and  C_28
                            x       y       z     vdW  Elec       q    Type
                         _______ _______ _______ _____ _____    ______ ____

>  <TORSDO>
F 5

$$$$
=
 OpenBabel10262419113D

 34 38  0  0  1  0  0  0  0  0999 V2000
  185.7850  178.3870  143.1090 C   0  0  0  0  0  0  0  0  0  0  0  0
  183.4380  178.6280  143.7410 C   0  0  0  0  0  0  0  0  0  0  0  0
  184.0820  178.6880  141.3940 C   0  0  0  0  0  0  0  0  0  0  0  0
  182.3380  179.2060  139.6810 N   0  0  0  0  0  0  0  0  0  0  0  0
  185.1300  178.2590  145.4390 C   0  0  0  0  0  3  0  0  0  0  0  0
  183.7930  178.4790  145.0850 C   0  0  0  0  0  3  0  0  0  0  0  0
  181.6890  179.0560  142.0850 C   0  0  0  0  0  3  0  0  0  0  0  0
  184.4310  178.5500  142.7460 C   0  0  0  0  0  0  0  0  0  0  0  0
  180.1790  178.3020  139.6100 O   0  0  0  0  0  0  0  0  0  0  0  0
  186.1240  178.2220  144.4550 C   0  0  0  0  0  3  0  0  0  0  0  0
  185.0850  178.7750  140.4180 C   0  0  0  0  0  0  0  0  0  0  0  0
  186.7760  178.4170  142.1250 C   0  0  0  0  0  3  0  0  0  0  0  0
  182.0600  179.0030  143.3700 C   0  0  0  0  0  3  0  0  0  0  0  0
  183.3980  179.8630  138.9100 C   0  0  0  0  0  2  0  0  0  0  0  0
  184.7220  179.0890  138.9980 C   0  0  2  0  0  3  0  0  0  0  0  0
  181.0640  179.0060  139.0480 C   0  0  0  0  0  0  0  0  0  0  0  0
  182.6250  178.6010  140.9920 C   0  0  2  0  0  3  0  0  0  0  0  0
  186.4290  178.6280  140.7850 C   0  0  0  0  0  3  0  0  0  0  0  0
  185.9590  177.3940  137.5620 C   0  0  0  0  0  0  0  0  0  0  0  0
  186.4230  176.2940  137.9630 O   0  0  0  0  0  0  0  0  0  0  0  0
  184.7430  177.9100  138.1290 N   0  0  0  0  0  0  0  0  0  0  0  0
  186.7900  178.2650  136.2380 S   0  0  0  0  0  1  0  0  0  0  0  0
  183.3650  175.9370  138.6380 C   0  0  0  0  0  1  0  0  0  0  0  0
  183.2480  177.0190  136.3960 C   0  0  0  0  0  1  0  0  0  0  0  0
  183.4630  177.2490  137.8820 C   0  0  0  0  0  3  0  0  0  0  0  0
  180.8140  179.5810  137.8000 O   0  0  0  0  0  0  0  0  0  0  0  0
  179.5350  180.0910  137.4500 C   0  0  0  0  0  2  0  0  0  0  0  0
  178.9910  182.3010  139.4340 C   0  0  0  0  0  1  0  0  0  0  0  0
  179.6430  181.5670  137.0960 C   0  0  1  0  0  3  0  0  0  0  0  0
  180.0270  182.4210  138.3290 C   0  0  1  0  0  3  0  0  0  0  0  0
  181.1150  183.8850  136.9650 C   0  0  0  0  0  2  0  0  0  0  0  0
  180.6930  183.0680  135.7430 C   0  0  0  0  0  2  0  0  0  0  0  0
  180.6260  181.7080  136.0950 O   0  0  0  0  0  0  0  0  0  0  0  0
  180.1280  183.7790  137.9620 O   0  0  0  0  0  0  0  0  0  0  0  0
  1 10  2  0  0  0  0
  2  6  1  0  0  0  0
  3  8  1  0  0  0  0
  4 17  1  0  0  0  0
  6  5  2  0  0  0  0
  7 13  2  0  0  0  0
  8  1  1  0  0  0  0
  8  2  2  0  0  0  0
 10  5  1  0  0  0  0
 11 18  1  0  0  0  0
 11  3  2  0  0  0  0
 12  1  1  0  0  0  0
 13  2  1  0  0  0  0
 14 15  1  0  0  0  0
 14  4  1  0  0  0  0
 15 21  1  6  0  0  0
 15 11  1  0  0  0  0
 16  9  2  0  0  0  0
 16  4  1  0  0  0  0
 17  3  1  0  0  0  0
 17  7  1  1  0  0  0
 18 12  2  0  0  0  0
 19 20  2  0  0  0  0
 19 21  1  0  0  0  0
 22 19  1  0  0  0  0
 24 25  1  0  0  0  0
 25 21  1  0  0  0  0
 25 23  1  0  0  0  0
 26 16  1  0  0  0  0
 27 26  1  0  0  0  0
 29 27  1  1  0  0  0
 29 30  1  0  0  0  0
 30 28  1  1  0  0  0
 31 34  1  0  0  0  0
 32 33  1  0  0  0  0
 32 31  1  0  0  0  0
 33 29  1  0  0  0  0
 34 30  1  0  0  0  0
M  END
>  <MODEL>
3

>  <REMARK>
 VINA RESULT:      -7.8      5.288      8.600
  Name = 
  5 active torsions:
  status: ('A' for Active; 'I' for Inactive)
    1  A    between atoms: C_3  and  C_13
    2  A    between atoms: C_3  and  O_17
    3  A    between atoms: O_17  and  C_29
    4  A    between atoms: N_23  and  C_27
    5  A    between atoms: N_23  and  C_28
                            x       y       z     vdW  Elec       q    Type
                         _______ _______ _______ _____ _____    ______ ____

>  <TORSDO>
F 5

$$$$
=
 OpenBabel10262419113D

 34 38  0  0  1  0  0  0  0  0999 V2000
  187.3650  177.8770  142.5600 C   0  0  0  0  0  0  0  0  0  0  0  0
  185.3110  178.1910  143.8420 C   0  0  0  0  0  0  0  0  0  0  0  0
  185.2750  178.3820  141.4150 C   0  0  0  0  0  0  0  0  0  0  0  0
  183.1610  179.1040  140.2960 N   0  0  0  0  0  0  0  0  0  0  0  0
  187.3810  177.6200  144.9690 C   0  0  0  0  0  3  0  0  0  0  0  0
  186.0160  177.9310  145.0210 C   0  0  0  0  0  3  0  0  0  0  0  0
  183.2020  178.8200  142.7740 C   0  0  0  0  0  3  0  0  0  0  0  0
  185.9790  178.1330  142.6040 C   0  0  0  0  0  0  0  0  0  0  0  0
  181.0130  178.3170  140.7920 O   0  0  0  0  0  0  0  0  0  0  0  0
  188.0560  177.6020  143.7440 C   0  0  0  0  0  3  0  0  0  0  0  0
  185.9690  178.4870  140.2020 C   0  0  0  0  0  0  0  0  0  0  0  0
  188.0420  177.9260  141.3380 C   0  0  0  0  0  3  0  0  0  0  0  0
  183.9120  178.6590  143.8970 C   0  0  0  0  0  3  0  0  0  0  0  0
  184.0060  179.7600  139.2920 C   0  0  0  0  0  2  0  0  0  0  0  0
  185.2450  178.9160  138.9610 C   0  0  2  0  0  3  0  0  0  0  0  0
  181.7510  179.0130  140.0410 C   0  0  0  0  0  0  0  0  0  0  0  0
  183.7610  178.3960  141.4390 C   0  0  2  0  0  3  0  0  0  0  0  0
  187.3490  178.2480  140.1640 C   0  0  0  0  0  3  0  0  0  0  0  0
  185.9630  177.1190  137.3120 C   0  0  0  0  0  0  0  0  0  0  0  0
  186.2760  175.9360  137.6080 O   0  0  0  0  0  0  0  0  0  0  0  0
  184.9430  177.8020  138.0600 N   0  0  0  0  0  0  0  0  0  0  0  0
  186.7500  177.9090  135.9120 S   0  0  0  0  0  1  0  0  0  0  0  0
  183.3470  176.0030  138.5760 C   0  0  0  0  0  1  0  0  0  0  0  0
  183.0570  177.4070  136.5370 C   0  0  0  0  0  1  0  0  0  0  0  0
  183.5460  177.3820  137.9750 C   0  0  0  0  0  3  0  0  0  0  0  0
  181.2010  179.6850  138.9470 O   0  0  0  0  0  0  0  0  0  0  0  0
  180.4810  180.9000  139.0950 C   0  0  0  0  0  2  0  0  0  0  0  0
  179.0000  183.5050  138.7260 C   0  0  0  0  0  1  0  0  0  0  0  0
  180.0650  181.4300  137.7310 C   0  0  1  0  0  3  0  0  0  0  0  0
  180.0050  182.9770  137.7160 C   0  0  1  0  0  3  0  0  0  0  0  0
  180.5840  182.9700  135.5130 C   0  0  0  0  0  2  0  0  0  0  0  0
  180.5940  181.4410  135.5160 C   0  0  0  0  0  2  0  0  0  0  0  0
  181.0050  180.9820  136.7800 O   0  0  0  0  0  0  0  0  0  0  0  0
  179.6270  183.4320  136.4360 O   0  0  0  0  0  0  0  0  0  0  0  0
  1  8  1  0  0  0  0
  1 10  2  0  0  0  0
  2 13  1  0  0  0  0
  2  6  1  0  0  0  0
  3 17  1  0  0  0  0
  3  8  1  0  0  0  0
  4 17  1  0  0  0  0
  5  6  2  0  0  0  0
  7 13  2  0  0  0  0
  8  2  2  0  0  0  0
 10  5  1  0  0  0  0
 11  3  2  0  0  0  0
 12  1  1  0  0  0  0
 14  4  1  0  0  0  0
 15 21  1  1  0  0  0
 15 14  1  0  0  0  0
 15 11  1  0  0  0  0
 16  4  1  0  0  0  0
 16  9  2  0  0  0  0
 17  7  1  1  0  0  0
 18 11  1  0  0  0  0
 18 12  2  0  0  0  0
 19 20  2  0  0  0  0
 19 21  1  0  0  0  0
 22 19  1  0  0  0  0
 24 25  1  0  0  0  0
 25 21  1  0  0  0  0
 25 23  1  0  0  0  0
 26 27  1  0  0  0  0
 26 16  1  0  0  0  0
 29 27  1  1  0  0  0
 30 29  1  0  0  0  0
 30 28  1  1  0  0  0
 31 32  1  0  0  0  0
 31 34  1  0  0  0  0
 32 33  1  0  0  0  0
 33 29  1  0  0  0  0
 34 30  1  0  0  0  0
M  END
>  <MODEL>
4

>  <REMARK>
 VINA RESULT:      -7.7      4.995      8.134
  Name = 
  5 active torsions:
  status: ('A' for Active; 'I' for Inactive)
    1  A    between atoms: C_3  and  C_13
    2  A    between atoms: C_3  and  O_17
    3  A    between atoms: O_17  and  C_29
    4  A    between atoms: N_23  and  C_27
    5  A    between atoms: N_23  and  C_28
                            x       y       z     vdW  Elec       q    Type
                         _______ _______ _______ _____ _____    ______ ____

>  <TORSDO>
F 5

$$$$
=
 OpenBabel10262419113D

 34 38  0  0  1  0  0  0  0  0999 V2000
  190.2070  177.5240  145.5140 C   0  0  0  0  0  0  0  0  0  0  0  0
  187.8280  177.3380  146.0300 C   0  0  0  0  0  0  0  0  0  0  0  0
  188.5440  177.9880  143.7960 C   0  0  0  0  0  0  0  0  0  0  0  0
  186.8110  178.6560  142.1240 N   0  0  0  0  0  0  0  0  0  0  0  0
  189.4890  176.8110  147.7160 C   0  0  0  0  0  3  0  0  0  0  0  0
  188.1490  176.9410  147.3310 C   0  0  0  0  0  3  0  0  0  0  0  0
  186.1000  177.9060  144.3940 C   0  0  0  0  0  3  0  0  0  0  0  0
  188.8580  177.6000  145.1070 C   0  0  0  0  0  0  0  0  0  0  0  0
  184.7940  177.5380  141.7240 O   0  0  0  0  0  0  0  0  0  0  0  0
  190.5160  177.1100  146.8130 C   0  0  0  0  0  3  0  0  0  0  0  0
  189.5620  178.4070  142.9280 C   0  0  0  0  0  0  0  0  0  0  0  0
  191.2220  177.8890  144.6240 C   0  0  0  0  0  3  0  0  0  0  0  0
  186.4260  177.6170  145.6600 C   0  0  0  0  0  3  0  0  0  0  0  0
  187.8040  179.5890  141.5800 C   0  0  0  0  0  2  0  0  0  0  0  0
  189.2130  178.9780  141.5870 C   0  0  2  0  0  3  0  0  0  0  0  0
  185.5980  178.4480  141.3830 C   0  0  0  0  0  0  0  0  0  0  0  0
  187.1260  177.8170  143.2920 C   0  0  2  0  0  3  0  0  0  0  0  0
  190.8990  178.3460  143.3400 C   0  0  0  0  0  3  0  0  0  0  0  0
  190.4590  177.0370  140.5180 C   0  0  0  0  0  0  0  0  0  0  0  0
  190.1620  175.8190  140.6400 O   0  0  0  0  0  0  0  0  0  0  0  0
  189.4210  178.0310  140.4890 N   0  0  0  0  0  0  0  0  0  0  0  0
  192.1740  177.5030  140.3090 S   0  0  0  0  0  1  0  0  0  0  0  0
  188.1720  176.7380  138.8100 C   0  0  0  0  0  1  0  0  0  0  0  0
  189.0560  179.0040  138.2640 C   0  0  0  0  0  1  0  0  0  0  0  0
  188.4960  178.1140  139.3610 C   0  0  0  0  0  3  0  0  0  0  0  0
  185.3220  179.2480  140.2720 O   0  0  0  0  0  0  0  0  0  0  0  0
  184.9180  178.6930  139.0280 C   0  0  0  0  0  2  0  0  0  0  0  0
  182.5400  176.8340  139.0190 C   0  0  0  0  0  1  0  0  0  0  0  0
  183.5080  179.1530  138.6850 C   0  0  1  0  0  3  0  0  0  0  0  0
  182.4390  178.2980  139.4100 C   0  0  1  0  0  3  0  0  0  0  0  0
  181.0530  180.1040  139.4780 C   0  0  0  0  0  2  0  0  0  0  0  0
  182.0890  180.9340  138.7180 C   0  0  0  0  0  2  0  0  0  0  0  0
  183.3800  180.5030  139.0730 O   0  0  0  0  0  0  0  0  0  0  0  0
  181.1490  178.7580  139.0790 O   0  0  0  0  0  0  0  0  0  0  0  0
  1 10  2  0  0  0  0
  2  6  1  0  0  0  0
  3  8  1  0  0  0  0
  4 17  1  0  0  0  0
  6  5  2  0  0  0  0
  7 13  2  0  0  0  0
  8  1  1  0  0  0  0
  8  2  2  0  0  0  0
 10  5  1  0  0  0  0
 11 18  1  0  0  0  0
 11  3  2  0  0  0  0
 12  1  1  0  0  0  0
 13  2  1  0  0  0  0
 14 15  1  0  0  0  0
 14  4  1  0  0  0  0
 15 21  1  6  0  0  0
 15 11  1  0  0  0  0
 16  9  2  0  0  0  0
 16  4  1  0  0  0  0
 17  3  1  0  0  0  0
 17  7  1  1  0  0  0
 18 12  2  0  0  0  0
 19 20  2  0  0  0  0
 21 19  1  0  0  0  0
 22 19  1  0  0  0  0
 23 25  1  0  0  0  0
 24 25  1  0  0  0  0
 25 21  1  0  0  0  0
 26 16  1  0  0  0  0
 27 26  1  0  0  0  0
 29 27  1  1  0  0  0
 29 33  1  0  0  0  0
 29 30  1  0  0  0  0
 30 28  1  6  0  0  0
 32 33  1  0  0  0  0
 32 31  1  0  0  0  0
 34 30  1  0  0  0  0
 34 31  1  0  0  0  0
M  END
>  <MODEL>
5

>  <REMARK>
 VINA RESULT:      -7.6      2.949      5.776
  Name = 
  5 active torsions:
  status: ('A' for Active; 'I' for Inactive)
    1  A    between atoms: C_3  and  C_13
    2  A    between atoms: C_3  and  O_17
    3  A    between atoms: O_17  and  C_29
    4  A    between atoms: N_23  and  C_27
    5  A    between atoms: N_23  and  C_28
                            x       y       z     vdW  Elec       q    Type
                         _______ _______ _______ _____ _____    ______ ____

>  <TORSDO>
F 5

$$$$
=
 OpenBabel10262419113D

 34 38  0  0  1  0  0  0  0  0999 V2000
  182.7260  178.8070  143.7960 C   0  0  0  0  0  0  0  0  0  0  0  0
  185.0910  178.7140  143.1970 C   0  0  0  0  0  0  0  0  0  0  0  0
  183.3860  178.4850  141.4740 C   0  0  0  0  0  0  0  0  0  0  0  0
  184.0980  177.9500  139.1390 N   0  0  0  0  0  0  0  0  0  0  0  0
  184.4270  179.1030  145.4960 C   0  0  0  0  0  3  0  0  0  0  0  0
  185.4310  178.9250  144.5360 C   0  0  0  0  0  3  0  0  0  0  0  0
  185.8290  178.2720  140.9070 C   0  0  0  0  0  3  0  0  0  0  0  0
  183.7350  178.6860  142.8180 C   0  0  0  0  0  0  0  0  0  0  0  0
  185.8760  178.9490  137.9890 O   0  0  0  0  0  0  0  0  0  0  0  0
  183.0780  179.0350  145.1300 C   0  0  0  0  0  3  0  0  0  0  0  0
  182.0430  178.2940  141.1220 C   0  0  0  0  0  0  0  0  0  0  0  0
  181.3840  178.6720  143.4290 C   0  0  0  0  0  3  0  0  0  0  0  0
  186.1340  178.3830  142.2060 C   0  0  0  0  0  3  0  0  0  0  0  0
  182.8450  177.2000  139.0100 C   0  0  0  0  0  2  0  0  0  0  0  0
  181.6850  177.9150  139.7160 C   0  0  2  0  0  3  0  0  0  0  0  0
  184.8820  178.1720  137.9560 C   0  0  0  0  0  0  0  0  0  0  0  0
  184.4490  178.6170  140.4040 C   0  0  2  0  0  3  0  0  0  0  0  0
  181.0440  178.3990  142.0980 C   0  0  0  0  0  3  0  0  0  0  0  0
  180.3950  178.8480  137.7340 C   0  0  0  0  0  0  0  0  0  0  0  0
  179.1640  179.1140  137.7200 O   0  0  0  0  0  0  0  0  0  0  0  0
  181.1580  179.0380  138.9370 N   0  0  0  0  0  0  0  0  0  0  0  0
  181.1890  178.3030  136.2260 S   0  0  0  0  0  1  0  0  0  0  0  0
  180.1240  181.0730  139.8530 C   0  0  0  0  0  1  0  0  0  0  0  0
  182.1760  181.2180  138.4450 C   0  0  0  0  0  1  0  0  0  0  0  0
  181.4140  180.3790  139.4570 C   0  0  0  0  0  3  0  0  0  0  0  0
  184.5270  177.5380  136.7630 O   0  0  0  0  0  0  0  0  0  0  0  0
  185.4910  176.8990  135.9370 C   0  0  0  0  0  2  0  0  0  0  0  0
  187.8310  175.2140  136.8300 C   0  0  0  0  0  1  0  0  0  0  0  0
  185.4060  175.3900  136.1100 C   0  0  1  0  0  3  0  0  0  0  0  0
  186.3930  174.8850  137.1920 C   0  0  1  0  0  3  0  0  0  0  0  0
  184.9550  173.1950  137.7050 C   0  0  0  0  0  2  0  0  0  0  0  0
  184.0030  173.6640  136.6020 C   0  0  0  0  0  2  0  0  0  0  0  0
  184.0860  175.0630  136.4830 O   0  0  0  0  0  0  0  0  0  0  0  0
  186.2800  173.4870  137.3330 O   0  0  0  0  0  0  0  0  0  0  0  0
  1 10  2  0  0  0  0
  2  6  1  0  0  0  0
  3  8  1  0  0  0  0
  4 17  1  0  0  0  0
  6  5  2  0  0  0  0
  7 13  2  0  0  0  0
  8  2  2  0  0  0  0
  8  1  1  0  0  0  0
 10  5  1  0  0  0  0
 11  3  2  0  0  0  0
 11 18  1  0  0  0  0
 12  1  1  0  0  0  0
 13  2  1  0  0  0  0
 14  4  1  0  0  0  0
 14 15  1  0  0  0  0
 15 21  1  6  0  0  0
 15 11  1  0  0  0  0
 16  9  2  0  0  0  0
 16  4  1  0  0  0  0
 17  7  1  1  0  0  0
 17  3  1  0  0  0  0
 18 12  2  0  0  0  0
 19 21  1  0  0  0  0
 20 19  2  0  0  0  0
 21 25  1  0  0  0  0
 22 19  1  0  0  0  0
 24 25  1  0  0  0  0
 25 23  1  0  0  0  0
 26 16  1  0  0  0  0
 27 26  1  0  0  0  0
 29 27  1  1  0  0  0
 29 33  1  0  0  0  0
 29 30  1  0  0  0  0
 30 28  1  6  0  0  0
 30 34  1  0  0  0  0
 32 31  1  0  0  0  0
 33 32  1  0  0  0  0
 34 31  1  0  0  0  0
M  END
>  <MODEL>
6

>  <REMARK>
 VINA RESULT:      -7.5      4.623      6.402
  Name = 
  5 active torsions:
  status: ('A' for Active; 'I' for Inactive)
    1  A    between atoms: C_3  and  C_13
    2  A    between atoms: C_3  and  O_17
    3  A    between atoms: O_17  and  C_29
    4  A    between atoms: N_23  and  C_27
    5  A    between atoms: N_23  and  C_28
                            x       y       z     vdW  Elec       q    Type
                         _______ _______ _______ _____ _____    ______ ____

>  <TORSDO>
F 5

$$$$
=
 OpenBabel10262419113D

 34 38  0  0  1  0  0  0  0  0999 V2000
  190.0650  177.5390  145.5380 C   0  0  0  0  0  0  0  0  0  0  0  0
  187.6670  177.4290  145.9880 C   0  0  0  0  0  0  0  0  0  0  0  0
  188.4650  178.0400  143.7700 C   0  0  0  0  0  0  0  0  0  0  0  0
  186.8020  178.7470  142.0450 N   0  0  0  0  0  0  0  0  0  0  0  0
  189.2640  176.8650  147.7230 C   0  0  0  0  0  3  0  0  0  0  0  0
  187.9400  177.0330  147.3000 C   0  0  0  0  0  3  0  0  0  0  0  0
  186.0040  178.0370  144.2990 C   0  0  0  0  0  3  0  0  0  0  0  0
  188.7310  177.6530  145.0930 C   0  0  0  0  0  0  0  0  0  0  0  0
  184.7640  177.6870  141.5950 O   0  0  0  0  0  0  0  0  0  0  0  0
  190.3240  177.1260  146.8480 C   0  0  0  0  0  3  0  0  0  0  0  0
  189.5200  178.4210  142.9290 C   0  0  0  0  0  0  0  0  0  0  0  0
  191.1150  177.8660  144.6750 C   0  0  0  0  0  3  0  0  0  0  0  0
  186.2860  177.7480  145.5760 C   0  0  0  0  0  3  0  0  0  0  0  0
  187.8380  179.6450  141.5240 C   0  0  0  0  0  2  0  0  0  0  0  0
  189.2270  178.9920  141.5740 C   0  0  2  0  0  3  0  0  0  0  0  0
  185.6050  178.5700  141.2710 C   0  0  0  0  0  0  0  0  0  0  0  0
  187.0580  177.9080  143.2270 C   0  0  2  0  0  3  0  0  0  0  0  0
  190.8420  178.3220  143.3800 C   0  0  0  0  0  3  0  0  0  0  0  0
  190.4760  177.0380  140.5330 C   0  0  0  0  0  0  0  0  0  0  0  0
  190.1800  175.8220  140.6710 O   0  0  0  0  0  0  0  0  0  0  0  0
  189.4360  178.0300  140.4900 N   0  0  0  0  0  0  0  0  0  0  0  0
  192.1910  177.5030  140.3190 S   0  0  0  0  0  1  0  0  0  0  0  0
  188.2190  176.7160  138.8040 C   0  0  0  0  0  1  0  0  0  0  0  0
  189.0550  179.0030  138.2670 C   0  0  0  0  0  1  0  0  0  0  0  0
  188.5130  178.0980  139.3600 C   0  0  0  0  0  3  0  0  0  0  0  0
  185.3840  179.3700  140.1470 O   0  0  0  0  0  0  0  0  0  0  0  0
  184.1380  179.3780  139.4640 C   0  0  0  0  0  2  0  0  0  0  0  0
  181.5110  178.2560  138.4890 C   0  0  0  0  0  1  0  0  0  0  0  0
  184.0450  178.1750  138.5370 C   0  0  1  0  0  3  0  0  0  0  0  0
  182.7770  178.2380  137.6490 C   0  0  1  0  0  3  0  0  0  0  0  0
  183.8870  177.1270  136.0000 C   0  0  0  0  0  2  0  0  0  0  0  0
  185.1220  177.0210  136.8950 C   0  0  0  0  0  2  0  0  0  0  0  0
  185.1950  178.1570  137.7220 O   0  0  0  0  0  0  0  0  0  0  0  0
  182.7280  177.1150  136.7980 O   0  0  0  0  0  0  0  0  0  0  0  0
  1 10  2  0  0  0  0
  2  6  1  0  0  0  0
  3  8  1  0  0  0  0
  4 17  1  0  0  0  0
  6  5  2  0  0  0  0
  7 13  2  0  0  0  0
  8  1  1  0  0  0  0
  8  2  2  0  0  0  0
 10  5  1  0  0  0  0
 11 18  1  0  0  0  0
 11  3  2  0  0  0  0
 12  1  1  0  0  0  0
 13  2  1  0  0  0  0
 14 15  1  0  0  0  0
 14  4  1  0  0  0  0
 15 21  1  6  0  0  0
 15 11  1  0  0  0  0
 16  9  2  0  0  0  0
 16  4  1  0  0  0  0
 17  3  1  0  0  0  0
 17  7  1  1  0  0  0
 18 12  2  0  0  0  0
 19 20  2  0  0  0  0
 21 19  1  0  0  0  0
 22 19  1  0  0  0  0
 23 25  1  0  0  0  0
 24 25  1  0  0  0  0
 25 21  1  0  0  0  0
 26 16  1  0  0  0  0
 27 26  1  0  0  0  0
 29 27  1  1  0  0  0
 30 28  1  1  0  0  0
 30 29  1  0  0  0  0
 31 34  1  0  0  0  0
 31 32  1  0  0  0  0
 32 33  1  0  0  0  0
 33 29  1  0  0  0  0
 34 30  1  0  0  0  0
M  END
>  <MODEL>
7

>  <REMARK>
 VINA RESULT:      -7.4      3.023      5.111
  Name = 
  5 active torsions:
  status: ('A' for Active; 'I' for Inactive)
    1  A    between atoms: C_3  and  C_13
    2  A    between atoms: C_3  and  O_17
    3  A    between atoms: O_17  and  C_29
    4  A    between atoms: N_23  and  C_27
    5  A    between atoms: N_23  and  C_28
                            x       y       z     vdW  Elec       q    Type
                         _______ _______ _______ _____ _____    ______ ____

>  <TORSDO>
F 5

$$$$
=
 OpenBabel10262419113D

 34 38  0  0  1  0  0  0  0  0999 V2000
  186.9110  178.0010  145.8760 C   0  0  0  0  0  0  0  0  0  0  0  0
  185.1430  178.4590  144.2550 C   0  0  0  0  0  0  0  0  0  0  0  0
  187.4570  178.2720  143.5180 C   0  0  0  0  0  0  0  0  0  0  0  0
  188.0020  178.7620  141.1290 N   0  0  0  0  0  0  0  0  0  0  0  0
  184.5990  178.1190  146.5930 C   0  0  0  0  0  3  0  0  0  0  0  0
  184.1970  178.4010  145.2820 C   0  0  0  0  0  3  0  0  0  0  0  0
  185.6290  178.8650  141.8910 C   0  0  0  0  0  3  0  0  0  0  0  0
  186.5020  178.2270  144.5450 C   0  0  0  0  0  0  0  0  0  0  0  0
  186.7960  178.0090  139.2690 O   0  0  0  0  0  0  0  0  0  0  0  0
  185.9530  177.9280  146.8920 C   0  0  0  0  0  3  0  0  0  0  0  0
  188.8220  178.2050  143.8290 C   0  0  0  0  0  0  0  0  0  0  0  0
  188.2710  177.8770  146.1730 C   0  0  0  0  0  3  0  0  0  0  0  0
  184.7500  178.8960  142.9010 C   0  0  0  0  0  3  0  0  0  0  0  0
  189.2900  179.2750  141.6070 C   0  0  0  0  0  2  0  0  0  0  0  0
  189.8450  178.4210  142.7560 C   0  0  2  0  0  3  0  0  0  0  0  0
  187.8200  178.5980  139.7140 C   0  0  0  0  0  0  0  0  0  0  0  0
  186.9960  178.2530  142.0760 C   0  0  2  0  0  3  0  0  0  0  0  0
  189.2250  177.9970  145.1540 C   0  0  0  0  0  3  0  0  0  0  0  0
  190.5340  175.9990  143.1120 C   0  0  0  0  0  0  0  0  0  0  0  0
  189.8310  174.9900  142.8420 O   0  0  0  0  0  0  0  0  0  0  0  0
  190.4530  177.1730  142.2860 N   0  0  0  0  0  0  0  0  0  0  0  0
  191.6810  175.9260  144.4840 S   0  0  0  0  0  1  0  0  0  0  0  0
  190.3620  176.0040  140.1240 C   0  0  0  0  0  1  0  0  0  0  0  0
  192.4700  177.0950  140.8870 C   0  0  0  0  0  1  0  0  0  0  0  0
  190.9530  177.1590  140.9130 C   0  0  0  0  0  3  0  0  0  0  0  0
  188.7900  179.0800  138.8320 O   0  0  0  0  0  0  0  0  0  0  0  0
  188.6320  178.9960  137.4220 C   0  0  0  0  0  2  0  0  0  0  0  0
  186.6650  177.4830  135.7040 C   0  0  0  0  0  1  0  0  0  0  0  0
  188.8690  177.5680  136.9550 C   0  0  1  0  0  3  0  0  0  0  0  0
  188.1680  177.2890  135.6020 C   0  0  1  0  0  3  0  0  0  0  0  0
  189.8100  175.8030  135.0680 C   0  0  0  0  0  2  0  0  0  0  0  0
  190.4740  176.0420  136.4250 C   0  0  0  0  0  2  0  0  0  0  0  0
  190.2590  177.3750  136.8180 O   0  0  0  0  0  0  0  0  0  0  0  0
  188.4170  175.9630  135.1950 O   0  0  0  0  0  0  0  0  0  0  0  0
  1 12  1  0  0  0  0
  1 10  2  0  0  0  0
  2  8  2  0  0  0  0
  2  6  1  0  0  0  0
  3 11  2  0  0  0  0
  3  8  1  0  0  0  0
  4 14  1  0  0  0  0
  4 17  1  0  0  0  0
  5 10  1  0  0  0  0
  6  5  2  0  0  0  0
  7 13  2  0  0  0  0
  8  1  1  0  0  0  0
  9 16  2  0  0  0  0
 11 18  1  0  0  0  0
 13  2  1  0  0  0  0
 14 15  1  0  0  0  0
 15 21  1  6  0  0  0
 15 11  1  0  0  0  0
 16  4  1  0  0  0  0
 17  7  1  1  0  0  0
 17  3  1  0  0  0  0
 18 12  2  0  0  0  0
 19 22  1  0  0  0  0
 20 19  2  0  0  0  0
 21 19  1  0  0  0  0
 23 25  1  0  0  0  0
 24 25  1  0  0  0  0
 25 21  1  0  0  0  0
 26 16  1  0  0  0  0
 27 26  1  0  0  0  0
 29 27  1  6  0  0  0
 30 28  1  1  0  0  0
 30 29  1  0  0  0  0
 31 34  1  0  0  0  0
 31 32  1  0  0  0  0
 32 33  1  0  0  0  0
 33 29  1  0  0  0  0
 34 30  1  0  0  0  0
M  END
>  <MODEL>
8

>  <REMARK>
 VINA RESULT:      -7.3      2.313      4.219
  Name = 
  5 active torsions:
  status: ('A' for Active; 'I' for Inactive)
    1  A    between atoms: C_3  and  C_13
    2  A    between atoms: C_3  and  O_17
    3  A    between atoms: O_17  and  C_29
    4  A    between atoms: N_23  and  C_27
    5  A    between atoms: N_23  and  C_28
                            x       y       z     vdW  Elec       q    Type
                         _______ _______ _______ _____ _____    ______ ____

>  <TORSDO>
F 5

$$$$
=
 OpenBabel10262419113D

 34 38  0  0  1  0  0  0  0  0999 V2000
  189.2420  177.8310  146.9350 C   0  0  0  0  0  0  0  0  0  0  0  0
  186.8170  178.0070  146.7120 C   0  0  0  0  0  0  0  0  0  0  0  0
  188.2320  178.0780  144.7320 C   0  0  0  0  0  0  0  0  0  0  0  0
  187.1780  178.5400  142.5140 N   0  0  0  0  0  0  0  0  0  0  0  0
  187.8240  177.6920  148.8950 C   0  0  0  0  0  3  0  0  0  0  0  0
  186.6870  177.8720  148.0970 C   0  0  0  0  0  3  0  0  0  0  0  0
  185.7400  178.3790  144.5470 C   0  0  0  0  0  3  0  0  0  0  0  0
  188.0950  177.9540  146.1230 C   0  0  0  0  0  0  0  0  0  0  0  0
  185.2020  177.5730  141.7120 O   0  0  0  0  0  0  0  0  0  0  0  0
  189.0980  177.6800  148.3170 C   0  0  0  0  0  3  0  0  0  0  0  0
  189.5090  178.1910  144.1630 C   0  0  0  0  0  0  0  0  0  0  0  0
  190.5120  177.8870  146.3540 C   0  0  0  0  0  3  0  0  0  0  0  0
  185.6430  178.3410  145.8810 C   0  0  0  0  0  3  0  0  0  0  0  0
  188.4220  179.2250  142.1500 C   0  0  0  0  0  2  0  0  0  0  0  0
  189.6520  178.4890  142.7010 C   0  0  2  0  0  3  0  0  0  0  0  0
  186.2070  178.3010  141.4820 C   0  0  0  0  0  0  0  0  0  0  0  0
  187.0070  177.9470  143.8510 C   0  0  2  0  0  3  0  0  0  0  0  0
  190.6450  178.0840  144.9740 C   0  0  0  0  0  3  0  0  0  0  0  0
  190.1810  176.0110  142.4990 C   0  0  0  0  0  0  0  0  0  0  0  0
  189.3420  175.0980  142.2760 O   0  0  0  0  0  0  0  0  0  0  0  0
  190.0040  177.3090  141.9080 N   0  0  0  0  0  0  0  0  0  0  0  0
  191.6230  175.6500  143.4960 S   0  0  0  0  0  1  0  0  0  0  0  0
  189.0970  176.7010  139.7040 C   0  0  0  0  0  1  0  0  0  0  0  0
  191.5350  177.1280  139.9970 C   0  0  0  0  0  1  0  0  0  0  0  0
  190.1390  177.4990  140.4660 C   0  0  0  0  0  3  0  0  0  0  0  0
  186.3910  178.8640  140.2170 O   0  0  0  0  0  0  0  0  0  0  0  0
  185.4820  178.6280  139.1510 C   0  0  0  0  0  2  0  0  0  0  0  0
  184.2200  176.4780  137.4480 C   0  0  0  0  0  1  0  0  0  0  0  0
  186.2040  177.9630  137.9890 C   0  0  1  0  0  3  0  0  0  0  0  0
  185.2100  177.4910  136.8980 C   0  0  1  0  0  3  0  0  0  0  0  0
  186.8010  177.8460  135.3070 C   0  0  0  0  0  2  0  0  0  0  0  0
  187.7980  178.2640  136.3900 C   0  0  0  0  0  2  0  0  0  0  0  0
  187.1050  178.8970  137.4380 O   0  0  0  0  0  0  0  0  0  0  0  0
  185.9130  176.8900  135.8340 O   0  0  0  0  0  0  0  0  0  0  0  0
  1 10  2  0  0  0  0
  2  6  1  0  0  0  0
  3  8  1  0  0  0  0
  4 17  1  0  0  0  0
  6  5  2  0  0  0  0
  7 13  2  0  0  0  0
  8  2  2  0  0  0  0
  8  1  1  0  0  0  0
 10  5  1  0  0  0  0
 11  3  2  0  0  0  0
 11 18  1  0  0  0  0
 12  1  1  0  0  0  0
 13  2  1  0  0  0  0
 14  4  1  0  0  0  0
 14 15  1  0  0  0  0
 15 21  1  6  0  0  0
 15 11  1  0  0  0  0
 16  9  2  0  0  0  0
 16  4  1  0  0  0  0
 17  7  1  1  0  0  0
 17  3  1  0  0  0  0
 18 12  2  0  0  0  0
 19 22  1  0  0  0  0
 20 19  2  0  0  0  0
 21 19  1  0  0  0  0
 23 25  1  0  0  0  0
 24 25  1  0  0  0  0
 25 21  1  0  0  0  0
 26 16  1  0  0  0  0
 27 26  1  0  0  0  0
 29 27  1  1  0  0  0
 30 28  1  1  0  0  0
 30 29  1  0  0  0  0
 31 34  1  0  0  0  0
 31 32  1  0  0  0  0
 32 33  1  0  0  0  0
 33 29  1  0  0  0  0
 34 30  1  0  0  0  0
M  END
>  <MODEL>
9

>  <REMARK>
 VINA RESULT:      -6.8      2.445      4.358
  Name = 
  5 active torsions:
  status: ('A' for Active; 'I' for Inactive)
    1  A    between atoms: C_3  and  C_13
    2  A    between atoms: C_3  and  O_17
    3  A    between atoms: O_17  and  C_29
    4  A    between atoms: N_23  and  C_27
    5  A    between atoms: N_23  and  C_28
                            x       y       z     vdW  Elec       q    Type
                         _______ _______ _______ _____ _____    ______ ____

>  <TORSDO>
F 5

$$$$
