=
 OpenBabel10262420283D

 55 60  0  0  1  0  0  0  0  0999 V2000
  184.8400  178.5350  145.3060 C   0  0  0  0  0  3  0  0  0  0  0  0
  183.8720  178.5300  142.6800 C   0  0  0  0  0  0  0  0  0  0  0  0
  185.1660  178.0680  142.9530 C   0  0  0  0  0  3  0  0  0  0  0  0
  183.5470  178.9910  145.0370 C   0  0  0  0  0  3  0  0  0  0  0  0
  185.6520  178.0710  144.2640 C   0  0  0  0  0  0  0  0  0  0  0  0
  183.0620  178.9840  143.7250 C   0  0  0  0  0  3  0  0  0  0  0  0
  183.3480  178.5260  141.2820 C   0  0  0  0  0  2  0  0  0  0  0  0
  181.8330  178.3580  141.2550 C   0  0  0  0  0  2  0  0  0  0  0  0
  181.2180  179.1020  140.0780 C   0  0  0  0  0  2  0  0  0  0  0  0
  179.7330  178.7870  139.9470 C   0  0  0  0  0  2  0  0  0  0  0  0
  179.3400  178.6300  138.4890 C   0  0  0  0  0  2  0  0  0  0  0  0
  180.5000  178.0500  137.7070 C   0  0  0  0  0  2  0  0  0  0  0  0
  180.4130  176.6500  137.7000 O   0  0  0  0  0  0  0  0  0  0  0  0
  181.7080  176.1190  137.5120 C   0  0  1  0  0  3  0  0  0  0  0  0
  182.4130  175.6690  138.7950 C   0  0  0  0  0  1  0  0  0  0  0  0
  179.7660  174.2680  135.5630 O   0  0  0  0  0  1  0  0  0  0  0  0
  181.8870  175.2370  136.2540 C   0  0  1  0  0  0  0  0  0  0  0  0
  183.3730  170.9070  136.5130 C   0  0  0  0  0  3  0  0  0  0  0  0
  180.7530  173.4440  137.4400 F   0  0  0  0  0  0  0  0  0  0  0  0
  180.9860  173.9890  136.1880 C   0  0  1  0  0  0  0  0  0  0  0  0
  182.2010  170.6290  135.9530 C   0  0  0  0  0  3  0  0  0  0  0  0
  181.3540  171.6540  135.5140 O   0  0  0  0  0  0  0  0  0  0  0  0
  183.2610  173.2590  135.6740 C   0  0  2  0  0  3  0  0  0  0  0  0
  181.7840  173.0130  135.3440 C   0  0  2  0  0  3  0  0  0  0  0  0
  181.6480  176.0240  135.1340 F   0  0  0  0  0  0  0  0  0  0  0  0
  183.7560  172.3270  136.7790 C   0  0  0  0  0  2  0  0  0  0  0  0
  183.3230  174.6860  136.2080 C   0  0  1  0  0  3  0  0  0  0  0  0
  184.2690  175.5410  135.4150 C   0  0  0  0  0  3  0  0  0  0  0  0
  184.7880  176.7620  135.9650 S   0  0  0  0  0  0  0  0  0  0  0  0
  187.0190  177.5420  144.5450 C   0  0  0  0  0  2  0  0  0  0  0  0
  187.5220  176.6850  143.3900 C   0  0  0  0  0  2  0  0  0  0  0  0
  188.6120  177.4060  142.6090 C   0  0  0  0  0  2  0  0  0  0  0  0
  189.9380  176.6520  142.7110 C   0  0  1  0  0  3  0  0  0  0  0  0
  189.1610  178.5310  140.5300 C   0  0  0  0  0  2  0  0  0  0  0  0
  189.2860  178.2230  138.2780 C   0  0  2  0  0  3  0  0  0  0  0  0
  189.9630  177.2880  140.2740 C   0  0  1  0  0  0  0  0  0  0  0  0
  190.4540  176.2970  141.3210 C   0  0  1  0  0  3  0  0  0  0  0  0
  189.9310  176.9630  138.8320 C   0  0  0  0  0  2  0  0  0  0  0  0
  188.5750  178.9000  139.3000 O   0  0  0  0  0  0  0  0  0  0  0  0
  191.3750  177.4010  140.8060 C   0  0  0  0  0  2  0  0  0  0  0  0
  188.3830  177.8910  137.1380 C   0  0  0  0  0  0  0  0  0  0  0  0
  187.7150  178.9140  136.4730 O   0  0  0  0  0  0  0  0  0  0  0  0
  188.2470  176.6940  136.7520 O   0  0  0  0  0  1  0  0  0  0  0  0
  191.0060  177.4030  143.5240 C   0  0  1  0  0  3  0  0  0  0  0  0
  191.4860  179.7320  143.9790 O   0  0  0  0  0  1  0  0  0  0  0  0
  190.5190  178.7300  144.1190 C   0  0  0  0  0  2  0  0  0  0  0  0
  191.6600  176.5090  144.5700 C   0  0  0  0  0  2  0  0  0  0  0  0
  191.8360  177.2290  145.7820 O   0  0  0  0  0  0  0  0  0  0  0  0
  192.2500  176.5810  147.9420 O   0  0  0  0  0  0  0  0  0  0  0  0
  191.4110  176.7340  147.0170 C   0  0  0  0  0  0  0  0  0  0  0  0
  189.9730  176.4240  147.2880 C   0  0  0  0  0  2  0  0  0  0  0  0
  188.0430  177.5530  148.3390 C   0  0  2  0  0  3  0  0  0  0  0  0
  186.9240  178.5020  147.9760 C   0  0  0  0  0  1  0  0  0  0  0  0
  189.2840  178.3470  148.6940 C   0  0  0  0  0  2  0  0  0  0  0  0
  189.1620  177.7060  147.3280 C   0  0  1  0  0  3  0  0  0  0  0  0
  2  3  2  0  0  0  0
  2  6  1  0  0  0  0
  3  5  1  0  0  0  0
  4  1  1  0  0  0  0
  5 30  1  0  0  0  0
  5  1  2  0  0  0  0
  6  4  2  0  0  0  0
  7  2  1  0  0  0  0
  8  7  1  0  0  0  0
  9  8  1  0  0  0  0
 10  9  1  0  0  0  0
 11 10  1  0  0  0  0
 12 11  1  0  0  0  0
 13 12  1  0  0  0  0
 14 13  1  0  0  0  0
 14 15  1  1  0  0  0
 17 25  1  6  0  0  0
 17 14  1  0  0  0  0
 18 26  1  0  0  0  0
 20 16  1  6  0  0  0
 20 17  1  0  0  0  0
 20 19  1  0  0  0  0
 21 18  2  0  0  0  0
 22 21  1  0  0  0  0
 23 27  1  0  0  0  0
 23 26  1  1  0  0  0
 24 22  1  1  0  0  0
 24 23  1  0  0  0  0
 24 20  1  0  0  0  0
 27 28  1  6  0  0  0
 27 17  1  0  0  0  0
 28 29  2  0  0  0  0
 31 30  1  0  0  0  0
 32 31  1  0  0  0  0
 33 32  1  6  0  0  0
 33 44  1  0  0  0  0
 35 41  1  6  0  0  0
 35 38  1  0  0  0  0
 35 39  1  0  0  0  0
 36 38  1  6  0  0  0
 36 34  1  0  0  0  0
 36 40  1  0  0  0  0
 36 37  1  0  0  0  0
 37 33  1  1  0  0  0
 39 34  1  0  0  0  0
 40 37  1  0  0  0  0
 42 41  2  0  0  0  0
 43 41  1  0  0  0  0
 44 46  1  1  0  0  0
 44 47  1  0  0  0  0
 45 46  1  0  0  0  0
 47 48  1  0  0  0  0
 48 50  1  0  0  0  0
 50 51  1  0  0  0  0
 50 49  2  0  0  0  0
 52 53  1  6  0  0  0
 52 54  1  0  0  0  0
 55 51  1  1  0  0  0
 55 52  1  0  0  0  0
 55 54  1  0  0  0  0
M  END
>  <MODEL>
1

>  <REMARK>
 VINA RESULT:      -8.0      0.000      0.000
  Name = 
  23 active torsions:
  status: ('A' for Active; 'I' for Inactive)
    1  A    between atoms: C_1  and  C_53
    2  A    between atoms: C_2  and  C_28
    3  A    between atoms: C_2  and  C_44
    4  A    between atoms: C_6  and  C_20
    5  A    between atoms: O_7  and  C_20
    6  A    between atoms: O_7  and  C_22
    7  A    between atoms: C_8  and  C_22
    8  A    between atoms: C_8  and  C_35
    9  A    between atoms: C_10  and  C_32
   10  A    between atoms: C_16  and  C_17
   11  A    between atoms: C_16  and  O_26
   12  A    between atoms: C_17  and  C_23
   13  A    between atoms: C_17  and  C_33
   14  A    between atoms: C_19  and  C_40
   15  A    between atoms: C_19  and  C_45
   16  A    between atoms: O_26  and  C_45
   17  A    between atoms: C_27  and  C_54
   18  A    between atoms: C_28  and  C_49
   19  A    between atoms: C_33  and  C_36
   20  A    between atoms: C_33  and  C_49
   21  A    between atoms: C_35  and  C_43
   22  A    between atoms: C_43  and  C_51
   23  A    between atoms: C_51  and  C_54
                            x       y       z     vdW  Elec       q    Type
                         _______ _______ _______ _____ _____    ______ ____

>  <TORSDO>
F 23

$$$$
=
 OpenBabel10262420283D

 55 60  0  0  1  0  0  0  0  0999 V2000
  184.6450  178.7200  145.2900 C   0  0  0  0  0  3  0  0  0  0  0  0
  183.5860  178.6200  142.7020 C   0  0  0  0  0  0  0  0  0  0  0  0
  184.9420  178.3430  142.9180 C   0  0  0  0  0  3  0  0  0  0  0  0
  183.2900  178.9910  145.0780 C   0  0  0  0  0  3  0  0  0  0  0  0
  185.4730  178.3930  144.2110 C   0  0  0  0  0  0  0  0  0  0  0  0
  182.7600  178.9360  143.7850 C   0  0  0  0  0  3  0  0  0  0  0  0
  183.0150  178.5640  141.3230 C   0  0  0  0  0  2  0  0  0  0  0  0
  181.4930  178.4790  141.3550 C   0  0  0  0  0  2  0  0  0  0  0  0
  180.8590  179.7460  140.7970 C   0  0  0  0  0  2  0  0  0  0  0  0
  179.4380  179.4830  140.3160 C   0  0  0  0  0  2  0  0  0  0  0  0
  179.3210  179.7160  138.8210 C   0  0  0  0  0  2  0  0  0  0  0  0
  180.2670  180.8220  138.4010 C   0  0  0  0  0  2  0  0  0  0  0  0
  181.2780  180.2950  137.5850 O   0  0  0  0  0  0  0  0  0  0  0  0
  180.6760  179.6160  136.5030 C   0  0  1  0  0  3  0  0  0  0  0  0
  180.3850  180.4850  135.2760 C   0  0  0  0  0  1  0  0  0  0  0  0
  179.8130  177.0330  134.6120 O   0  0  0  0  0  1  0  0  0  0  0  0
  181.1940  178.1800  136.2510 C   0  0  1  0  0  0  0  0  0  0  0  0
  180.1500  174.6950  139.0430 C   0  0  0  0  0  3  0  0  0  0  0  0
  178.9440  177.3710  136.6870 F   0  0  0  0  0  0  0  0  0  0  0  0
  180.1070  177.1230  135.9760 C   0  0  1  0  0  0  0  0  0  0  0  0
  179.6060  174.1770  137.9470 C   0  0  0  0  0  3  0  0  0  0  0  0
  179.7630  174.8010  136.7040 O   0  0  0  0  0  0  0  0  0  0  0  0
  181.6060  176.1870  137.6630 C   0  0  2  0  0  3  0  0  0  0  0  0
  180.7350  175.8280  136.4540 C   0  0  2  0  0  3  0  0  0  0  0  0
  182.0690  178.2160  135.1730 F   0  0  0  0  0  0  0  0  0  0  0  0
  180.8460  176.0160  138.9780 C   0  0  0  0  0  2  0  0  0  0  0  0
  181.9290  177.6680  137.5020 C   0  0  1  0  0  3  0  0  0  0  0  0
  183.4090  177.9200  137.4740 C   0  0  0  0  0  3  0  0  0  0  0  0
  184.3340  176.8920  137.8610 S   0  0  0  0  0  0  0  0  0  0  0  0
  186.9110  178.0600  144.4310 C   0  0  0  0  0  2  0  0  0  0  0  0
  187.4070  177.0640  143.3910 C   0  0  0  0  0  2  0  0  0  0  0  0
  188.5280  177.6610  142.5520 C   0  0  0  0  0  2  0  0  0  0  0  0
  189.8000  176.8220  142.6730 C   0  0  1  0  0  3  0  0  0  0  0  0
  188.8320  178.5070  140.4110 C   0  0  0  0  0  2  0  0  0  0  0  0
  188.9210  178.0760  138.1780 C   0  0  2  0  0  3  0  0  0  0  0  0
  189.7160  177.3120  140.2040 C   0  0  1  0  0  0  0  0  0  0  0  0
  190.3050  176.4220  141.2900 C   0  0  1  0  0  3  0  0  0  0  0  0
  189.6700  176.8990  138.7840 C   0  0  0  0  0  2  0  0  0  0  0  0
  188.1900  178.7600  139.1800 O   0  0  0  0  0  0  0  0  0  0  0  0
  191.1290  177.5560  140.6860 C   0  0  0  0  0  2  0  0  0  0  0  0
  188.0160  177.6120  137.0870 C   0  0  0  0  0  0  0  0  0  0  0  0
  187.4130  178.5490  136.2530 O   0  0  0  0  0  0  0  0  0  0  0  0
  187.8190  176.3780  136.8930 O   0  0  0  0  0  1  0  0  0  0  0  0
  190.9080  177.5070  143.4910 C   0  0  1  0  0  3  0  0  0  0  0  0
  191.1590  179.8840  143.8690 O   0  0  0  0  0  1  0  0  0  0  0  0
  190.4400  178.7490  144.2580 C   0  0  0  0  0  2  0  0  0  0  0  0
  191.6460  176.5210  144.3870 C   0  0  0  0  0  2  0  0  0  0  0  0
  191.7320  177.0360  145.7090 O   0  0  0  0  0  0  0  0  0  0  0  0
  192.6220  175.5360  147.1960 O   0  0  0  0  0  0  0  0  0  0  0  0
  191.6300  176.2230  146.8390 C   0  0  0  0  0  0  0  0  0  0  0  0
  190.3860  176.1800  147.6670 C   0  0  0  0  0  2  0  0  0  0  0  0
  188.3740  177.4460  148.3420 C   0  0  2  0  0  3  0  0  0  0  0  0
  187.1910  178.1500  147.7190 C   0  0  0  0  0  1  0  0  0  0  0  0
  189.5530  178.3980  148.4020 C   0  0  0  0  0  2  0  0  0  0  0  0
  189.4840  177.3480  147.3140 C   0  0  1  0  0  3  0  0  0  0  0  0
  2  3  2  0  0  0  0
  2  6  1  0  0  0  0
  3  5  1  0  0  0  0
  4  1  1  0  0  0  0
  5 30  1  0  0  0  0
  5  1  2  0  0  0  0
  6  4  2  0  0  0  0
  7  8  1  0  0  0  0
  7  2  1  0  0  0  0
  9  8  1  0  0  0  0
 10  9  1  0  0  0  0
 11 10  1  0  0  0  0
 12 11  1  0  0  0  0
 13 12  1  0  0  0  0
 14 15  1  6  0  0  0
 14 13  1  0  0  0  0
 17 25  1  6  0  0  0
 17 14  1  0  0  0  0
 17 27  1  0  0  0  0
 20 16  1  6  0  0  0
 20 17  1  0  0  0  0
 20 24  1  0  0  0  0
 20 19  1  0  0  0  0
 21 18  2  0  0  0  0
 22 21  1  0  0  0  0
 23 26  1  1  0  0  0
 24 22  1  1  0  0  0
 24 23  1  0  0  0  0
 26 18  1  0  0  0  0
 27 28  1  6  0  0  0
 27 23  1  0  0  0  0
 28 29  2  0  0  0  0
 31 30  1  0  0  0  0
 32 31  1  0  0  0  0
 33 32  1  6  0  0  0
 33 44  1  0  0  0  0
 35 41  1  6  0  0  0
 35 38  1  0  0  0  0
 35 39  1  0  0  0  0
 36 38  1  6  0  0  0
 36 34  1  0  0  0  0
 36 40  1  0  0  0  0
 36 37  1  0  0  0  0
 37 33  1  1  0  0  0
 39 34  1  0  0  0  0
 40 37  1  0  0  0  0
 42 41  2  0  0  0  0
 43 41  1  0  0  0  0
 44 46  1  1  0  0  0
 44 47  1  0  0  0  0
 45 46  1  0  0  0  0
 47 48  1  0  0  0  0
 48 50  1  0  0  0  0
 50 49  2  0  0  0  0
 50 51  1  0  0  0  0
 52 53  1  6  0  0  0
 52 54  1  0  0  0  0
 55 51  1  1  0  0  0
 55 52  1  0  0  0  0
 55 54  1  0  0  0  0
M  END
>  <MODEL>
2

>  <REMARK>
 VINA RESULT:      -7.6      1.809      2.281
  Name = 
  23 active torsions:
  status: ('A' for Active; 'I' for Inactive)
    1  A    between atoms: C_1  and  C_53
    2  A    between atoms: C_2  and  C_28
    3  A    between atoms: C_2  and  C_44
    4  A    between atoms: C_6  and  C_20
    5  A    between atoms: O_7  and  C_20
    6  A    between atoms: O_7  and  C_22
    7  A    between atoms: C_8  and  C_22
    8  A    between atoms: C_8  and  C_35
    9  A    between atoms: C_10  and  C_32
   10  A    between atoms: C_16  and  C_17
   11  A    between atoms: C_16  and  O_26
   12  A    between atoms: C_17  and  C_23
   13  A    between atoms: C_17  and  C_33
   14  A    between atoms: C_19  and  C_40
   15  A    between atoms: C_19  and  C_45
   16  A    between atoms: O_26  and  C_45
   17  A    between atoms: C_27  and  C_54
   18  A    between atoms: C_28  and  C_49
   19  A    between atoms: C_33  and  C_36
   20  A    between atoms: C_33  and  C_49
   21  A    between atoms: C_35  and  C_43
   22  A    between atoms: C_43  and  C_51
   23  A    between atoms: C_51  and  C_54
                            x       y       z     vdW  Elec       q    Type
                         _______ _______ _______ _____ _____    ______ ____

>  <TORSDO>
F 23

$$$$
=
 OpenBabel10262420283D

 55 60  0  0  1  0  0  0  0  0999 V2000
  184.9420  178.8020  144.4620 C   0  0  0  0  0  3  0  0  0  0  0  0
  182.8280  178.5840  142.6410 C   0  0  0  0  0  0  0  0  0  0  0  0
  184.1330  178.2630  142.2450 C   0  0  0  0  0  3  0  0  0  0  0  0
  183.6400  179.1170  144.8610 C   0  0  0  0  0  3  0  0  0  0  0  0
  185.1910  178.3730  143.1530 C   0  0  0  0  0  0  0  0  0  0  0  0
  182.5830  179.0030  143.9520 C   0  0  0  0  0  3  0  0  0  0  0  0
  181.6960  178.4660  141.6750 C   0  0  0  0  0  2  0  0  0  0  0  0
  180.9570  179.7910  141.5170 C   0  0  0  0  0  2  0  0  0  0  0  0
  180.6490  180.0780  140.0540 C   0  0  0  0  0  2  0  0  0  0  0  0
  179.5980  179.1160  139.5170 C   0  0  0  0  0  2  0  0  0  0  0  0
  180.0990  178.4070  138.2720 C   0  0  0  0  0  2  0  0  0  0  0  0
  180.7140  177.0770  138.6550 C   0  0  0  0  0  2  0  0  0  0  0  0
  180.8720  176.2810  137.5110 O   0  0  0  0  0  0  0  0  0  0  0  0
  182.2170  175.8560  137.4400 C   0  0  1  0  0  3  0  0  0  0  0  0
  182.8180  175.3900  138.7700 C   0  0  0  0  0  1  0  0  0  0  0  0
  180.6040  174.3720  134.9520 O   0  0  0  0  0  1  0  0  0  0  0  0
  182.5940  175.0570  136.1700 C   0  0  1  0  0  0  0  0  0  0  0  0
  183.6070  170.5870  136.3200 C   0  0  0  0  0  3  0  0  0  0  0  0
  181.0750  173.3090  136.9070 F   0  0  0  0  0  0  0  0  0  0  0  0
  181.6260  173.9190  135.7920 C   0  0  1  0  0  0  0  0  0  0  0  0
  182.5680  170.4780  135.4990 C   0  0  0  0  0  3  0  0  0  0  0  0
  181.9320  171.6160  134.9900 O   0  0  0  0  0  0  0  0  0  0  0  0
  183.8870  172.9950  135.7080 C   0  0  2  0  0  3  0  0  0  0  0  0
  182.5040  172.9320  135.0480 C   0  0  2  0  0  3  0  0  0  0  0  0
  182.6790  175.9470  135.1060 F   0  0  0  0  0  0  0  0  0  0  0  0
  184.0410  171.9350  136.7980 C   0  0  0  0  0  2  0  0  0  0  0  0
  183.9510  174.3630  136.3790 C   0  0  1  0  0  3  0  0  0  0  0  0
  185.1200  175.1710  135.8930 C   0  0  0  0  0  3  0  0  0  0  0  0
  185.8040  174.8140  134.6820 S   0  0  0  0  0  0  0  0  0  0  0  0
  186.5700  177.9930  142.7280 C   0  0  0  0  0  2  0  0  0  0  0  0
  186.9450  178.6720  141.4170 C   0  0  0  0  0  2  0  0  0  0  0  0
  188.4560  178.7380  141.2480 C   0  0  0  0  0  2  0  0  0  0  0  0
  188.9440  177.6310  140.3140 C   0  0  1  0  0  3  0  0  0  0  0  0
  188.4740  175.8950  137.9350 C   0  0  0  0  0  2  0  0  0  0  0  0
  189.3200  176.1060  135.8330 C   0  0  2  0  0  3  0  0  0  0  0  0
  189.1370  177.2380  137.8330 C   0  0  1  0  0  0  0  0  0  0  0  0
  189.3730  178.2190  138.9730 C   0  0  1  0  0  3  0  0  0  0  0  0
  189.8400  177.3500  136.5370 C   0  0  0  0  0  2  0  0  0  0  0  0
  188.8400  175.1700  136.7810 O   0  0  0  0  0  0  0  0  0  0  0  0
  188.1620  178.3740  138.0570 C   0  0  0  0  0  2  0  0  0  0  0  0
  190.3890  175.5010  134.9860 C   0  0  0  0  0  0  0  0  0  0  0  0
  190.2800  174.1690  134.5950 O   0  0  0  0  0  1  0  0  0  0  0  0
  191.3700  176.1940  134.5940 O   0  0  0  0  0  0  0  0  0  0  0  0
  190.0610  176.7660  140.9220 C   0  0  1  0  0  3  0  0  0  0  0  0
  192.1730  176.8860  139.7470 O   0  0  0  0  0  1  0  0  0  0  0  0
  191.4560  177.3960  140.8350 C   0  0  0  0  0  2  0  0  0  0  0  0
  189.7220  176.3100  142.3360 C   0  0  0  0  0  2  0  0  0  0  0  0
  190.2610  177.2220  143.2820 O   0  0  0  0  0  0  0  0  0  0  0  0
  191.6810  175.8400  144.4340 O   0  0  0  0  0  0  0  0  0  0  0  0
  190.8710  176.8020  144.4670 C   0  0  0  0  0  0  0  0  0  0  0  0
  190.6240  177.4960  145.7680 C   0  0  0  0  0  2  0  0  0  0  0  0
  188.8370  178.0020  147.3960 C   0  0  2  0  0  3  0  0  0  0  0  0
  187.9770  177.3000  148.4220 C   0  0  0  0  0  1  0  0  0  0  0  0
  188.1890  177.8860  146.0300 C   0  0  0  0  0  2  0  0  0  0  0  0
  189.3440  176.9800  146.3990 C   0  0  1  0  0  3  0  0  0  0  0  0
  1  4  1  0  0  0  0
  2  6  1  0  0  0  0
  3  2  2  0  0  0  0
  3  5  1  0  0  0  0
  5  1  2  0  0  0  0
  6  4  2  0  0  0  0
  7  2  1  0  0  0  0
  8  7  1  0  0  0  0
  9  8  1  0  0  0  0
 10  9  1  0  0  0  0
 11 12  1  0  0  0  0
 11 10  1  0  0  0  0
 13 12  1  0  0  0  0
 14 13  1  0  0  0  0
 14 15  1  1  0  0  0
 17 25  1  6  0  0  0
 17 27  1  0  0  0  0
 17 14  1  0  0  0  0
 18 26  1  0  0  0  0
 20 16  1  6  0  0  0
 20 17  1  0  0  0  0
 20 19  1  0  0  0  0
 21 18  2  0  0  0  0
 22 21  1  0  0  0  0
 23 27  1  0  0  0  0
 23 26  1  1  0  0  0
 24 22  1  1  0  0  0
 24 23  1  0  0  0  0
 24 20  1  0  0  0  0
 27 28  1  6  0  0  0
 29 28  2  0  0  0  0
 30  5  1  0  0  0  0
 31 30  1  0  0  0  0
 32 31  1  0  0  0  0
 33 44  1  0  0  0  0
 33 32  1  1  0  0  0
 35 41  1  1  0  0  0
 35 38  1  0  0  0  0
 35 39  1  0  0  0  0
 36 38  1  6  0  0  0
 36 34  1  0  0  0  0
 36 40  1  0  0  0  0
 36 37  1  0  0  0  0
 37 33  1  1  0  0  0
 39 34  1  0  0  0  0
 40 37  1  0  0  0  0
 42 41  1  0  0  0  0
 43 41  2  0  0  0  0
 44 46  1  1  0  0  0
 44 47  1  0  0  0  0
 45 46  1  0  0  0  0
 47 48  1  0  0  0  0
 48 50  1  0  0  0  0
 49 50  2  0  0  0  0
 50 51  1  0  0  0  0
 52 53  1  1  0  0  0
 54 55  1  0  0  0  0
 54 52  1  0  0  0  0
 55 51  1  6  0  0  0
 55 52  1  0  0  0  0
M  END
>  <MODEL>
3

>  <REMARK>
 VINA RESULT:      -7.6      1.565      2.356
  Name = 
  23 active torsions:
  status: ('A' for Active; 'I' for Inactive)
    1  A    between atoms: C_1  and  C_53
    2  A    between atoms: C_2  and  C_28
    3  A    between atoms: C_2  and  C_44
    4  A    between atoms: C_6  and  C_20
    5  A    between atoms: O_7  and  C_20
    6  A    between atoms: O_7  and  C_22
    7  A    between atoms: C_8  and  C_22
    8  A    between atoms: C_8  and  C_35
    9  A    between atoms: C_10  and  C_32
   10  A    between atoms: C_16  and  C_17
   11  A    between atoms: C_16  and  O_26
   12  A    between atoms: C_17  and  C_23
   13  A    between atoms: C_17  and  C_33
   14  A    between atoms: C_19  and  C_40
   15  A    between atoms: C_19  and  C_45
   16  A    between atoms: O_26  and  C_45
   17  A    between atoms: C_27  and  C_54
   18  A    between atoms: C_28  and  C_49
   19  A    between atoms: C_33  and  C_36
   20  A    between atoms: C_33  and  C_49
   21  A    between atoms: C_35  and  C_43
   22  A    between atoms: C_43  and  C_51
   23  A    between atoms: C_51  and  C_54
                            x       y       z     vdW  Elec       q    Type
                         _______ _______ _______ _____ _____    ______ ____

>  <TORSDO>
F 23

$$$$
=
 OpenBabel10262420283D

 55 60  0  0  1  0  0  0  0  0999 V2000
  185.4520  178.4560  145.5510 C   0  0  0  0  0  3  0  0  0  0  0  0
  183.8880  178.6230  143.2360 C   0  0  0  0  0  0  0  0  0  0  0  0
  185.1800  178.0860  143.1740 C   0  0  0  0  0  3  0  0  0  0  0  0
  184.1610  178.9860  145.6170 C   0  0  0  0  0  3  0  0  0  0  0  0
  185.9640  178.0030  144.3300 C   0  0  0  0  0  0  0  0  0  0  0  0
  183.3770  179.0650  144.4600 C   0  0  0  0  0  3  0  0  0  0  0  0
  183.0470  178.7110  142.0060 C   0  0  0  0  0  2  0  0  0  0  0  0
  181.5640  178.5810  142.3340 C   0  0  0  0  0  2  0  0  0  0  0  0
  180.7410  179.6220  141.5860 C   0  0  0  0  0  2  0  0  0  0  0  0
  179.2680  179.2360  141.5540 C   0  0  0  0  0  2  0  0  0  0  0  0
  178.9310  178.4960  140.2730 C   0  0  0  0  0  2  0  0  0  0  0  0
  179.6380  179.1490  139.1040 C   0  0  0  0  0  2  0  0  0  0  0  0
  180.8690  178.5160  138.8810 O   0  0  0  0  0  0  0  0  0  0  0  0
  180.8280  177.8840  137.6180 C   0  0  1  0  0  3  0  0  0  0  0  0
  181.1590  178.7930  136.4310 C   0  0  0  0  0  1  0  0  0  0  0  0
  182.6170  175.9280  139.6110 O   0  0  0  0  0  1  0  0  0  0  0  0
  181.3760  176.4380  137.5830 C   0  0  1  0  0  0  0  0  0  0  0  0
  185.2440  175.3560  135.3700 C   0  0  0  0  0  3  0  0  0  0  0  0
  183.5740  177.3360  138.1010 F   0  0  0  0  0  0  0  0  0  0  0  0
  182.7490  176.2330  138.2520 C   0  0  1  0  0  0  0  0  0  0  0  0
  185.6470  174.9690  136.5750 C   0  0  0  0  0  3  0  0  0  0  0  0
  184.7620  174.9550  137.6590 O   0  0  0  0  0  0  0  0  0  0  0  0
  182.8500  175.1520  136.0630 C   0  0  2  0  0  3  0  0  0  0  0  0
  183.3360  175.0460  137.5140 C   0  0  2  0  0  3  0  0  0  0  0  0
  180.4480  175.6060  138.1980 F   0  0  0  0  0  0  0  0  0  0  0  0
  183.8590  175.8870  135.1820 C   0  0  0  0  0  2  0  0  0  0  0  0
  181.5830  175.9980  136.1230 C   0  0  1  0  0  3  0  0  0  0  0  0
  180.4010  175.2800  135.5390 C   0  0  0  0  0  3  0  0  0  0  0  0
  180.4220  173.8550  135.3660 S   0  0  0  0  0  0  0  0  0  0  0  0
  187.3250  177.3960  144.2560 C   0  0  0  0  0  2  0  0  0  0  0  0
  187.5560  176.7340  142.9040 C   0  0  0  0  0  2  0  0  0  0  0  0
  188.6870  177.4150  142.1460 C   0  0  0  0  0  2  0  0  0  0  0  0
  189.9500  176.5550  142.1740 C   0  0  1  0  0  3  0  0  0  0  0  0
  189.0460  178.5500  140.1510 C   0  0  0  0  0  2  0  0  0  0  0  0
  189.1770  178.4330  137.8820 C   0  0  2  0  0  3  0  0  0  0  0  0
  189.9220  177.3850  139.7960 C   0  0  1  0  0  0  0  0  0  0  0  0
  190.4800  176.3460  140.7590 C   0  0  1  0  0  3  0  0  0  0  0  0
  189.9020  177.1740  138.3320 C   0  0  0  0  0  2  0  0  0  0  0  0
  188.4320  178.9800  138.9550 O   0  0  0  0  0  0  0  0  0  0  0  0
  191.3270  177.5430  140.3350 C   0  0  0  0  0  2  0  0  0  0  0  0
  188.2900  178.1370  136.7190 C   0  0  0  0  0  0  0  0  0  0  0  0
  188.5000  176.9800  135.9760 O   0  0  0  0  0  0  0  0  0  0  0  0
  187.3320  178.9080  136.4270 O   0  0  0  0  0  1  0  0  0  0  0  0
  191.0460  177.1100  143.1000 C   0  0  1  0  0  3  0  0  0  0  0  0
  191.7650  179.3210  143.7720 O   0  0  0  0  0  1  0  0  0  0  0  0
  190.6800  178.4370  143.7740 C   0  0  0  0  0  2  0  0  0  0  0  0
  191.5270  176.0680  144.1010 C   0  0  0  0  0  2  0  0  0  0  0  0
  192.0530  176.7100  145.2550 O   0  0  0  0  0  0  0  0  0  0  0  0
  192.4810  175.0630  146.7920 O   0  0  0  0  0  0  0  0  0  0  0  0
  191.9330  176.1670  146.5360 C   0  0  0  0  0  0  0  0  0  0  0  0
  191.2090  176.8850  147.6300 C   0  0  0  0  0  2  0  0  0  0  0  0
  189.0470  177.9280  148.2160 C   0  0  2  0  0  3  0  0  0  0  0  0
  187.6020  177.5420  148.4370 C   0  0  0  0  0  1  0  0  0  0  0  0
  189.2850  178.1700  146.7380 C   0  0  0  0  0  2  0  0  0  0  0  0
  189.7140  176.8630  147.3680 C   0  0  1  0  0  3  0  0  0  0  0  0
  1  4  1  0  0  0  0
  2  6  1  0  0  0  0
  3  2  2  0  0  0  0
  3  5  1  0  0  0  0
  5  1  2  0  0  0  0
  6  4  2  0  0  0  0
  7  8  1  0  0  0  0
  7  2  1  0  0  0  0
  9  8  1  0  0  0  0
 10  9  1  0  0  0  0
 11 10  1  0  0  0  0
 12 11  1  0  0  0  0
 13 12  1  0  0  0  0
 14 15  1  6  0  0  0
 14 13  1  0  0  0  0
 17 14  1  0  0  0  0
 17 25  1  1  0  0  0
 17 20  1  0  0  0  0
 18 21  2  0  0  0  0
 20 19  1  6  0  0  0
 20 16  1  0  0  0  0
 21 22  1  0  0  0  0
 23 26  1  6  0  0  0
 23 27  1  0  0  0  0
 23 24  1  0  0  0  0
 24 22  1  6  0  0  0
 24 20  1  0  0  0  0
 26 18  1  0  0  0  0
 27 28  1  1  0  0  0
 27 17  1  0  0  0  0
 29 28  2  0  0  0  0
 30  5  1  0  0  0  0
 31 30  1  0  0  0  0
 32 31  1  0  0  0  0
 33 32  1  6  0  0  0
 33 44  1  0  0  0  0
 35 41  1  6  0  0  0
 35 38  1  0  0  0  0
 35 39  1  0  0  0  0
 36 38  1  6  0  0  0
 36 34  1  0  0  0  0
 36 40  1  0  0  0  0
 36 37  1  0  0  0  0
 37 33  1  1  0  0  0
 39 34  1  0  0  0  0
 40 37  1  0  0  0  0
 42 41  2  0  0  0  0
 43 41  1  0  0  0  0
 44 46  1  1  0  0  0
 44 47  1  0  0  0  0
 45 46  1  0  0  0  0
 47 48  1  0  0  0  0
 48 50  1  0  0  0  0
 50 49  2  0  0  0  0
 50 51  1  0  0  0  0
 52 53  1  6  0  0  0
 54 55  1  0  0  0  0
 54 52  1  0  0  0  0
 55 51  1  1  0  0  0
 55 52  1  0  0  0  0
M  END
>  <MODEL>
4

>  <REMARK>
 VINA RESULT:      -7.4      1.843      2.377
  Name = 
  23 active torsions:
  status: ('A' for Active; 'I' for Inactive)
    1  A    between atoms: C_1  and  C_53
    2  A    between atoms: C_2  and  C_28
    3  A    between atoms: C_2  and  C_44
    4  A    between atoms: C_6  and  C_20
    5  A    between atoms: O_7  and  C_20
    6  A    between atoms: O_7  and  C_22
    7  A    between atoms: C_8  and  C_22
    8  A    between atoms: C_8  and  C_35
    9  A    between atoms: C_10  and  C_32
   10  A    between atoms: C_16  and  C_17
   11  A    between atoms: C_16  and  O_26
   12  A    between atoms: C_17  and  C_23
   13  A    between atoms: C_17  and  C_33
   14  A    between atoms: C_19  and  C_40
   15  A    between atoms: C_19  and  C_45
   16  A    between atoms: O_26  and  C_45
   17  A    between atoms: C_27  and  C_54
   18  A    between atoms: C_28  and  C_49
   19  A    between atoms: C_33  and  C_36
   20  A    between atoms: C_33  and  C_49
   21  A    between atoms: C_35  and  C_43
   22  A    between atoms: C_43  and  C_51
   23  A    between atoms: C_51  and  C_54
                            x       y       z     vdW  Elec       q    Type
                         _______ _______ _______ _____ _____    ______ ____

>  <TORSDO>
F 23

$$$$
=
 OpenBabel10262420283D

 55 60  0  0  1  0  0  0  0  0999 V2000
  190.0670  176.7670  136.1930 C   0  0  0  0  0  3  0  0  0  0  0  0
  188.8850  174.2310  136.2670 C   0  0  0  0  0  0  0  0  0  0  0  0
  189.5480  174.7310  137.3950 C   0  0  0  0  0  3  0  0  0  0  0  0
  189.4020  176.2730  135.0680 C   0  0  0  0  0  3  0  0  0  0  0  0
  190.1400  175.9980  137.3600 C   0  0  0  0  0  0  0  0  0  0  0  0
  188.8070  175.0080  135.1070 C   0  0  0  0  0  3  0  0  0  0  0  0
  188.2490  172.8810  136.3010 C   0  0  0  0  0  2  0  0  0  0  0  0
  186.8570  172.9050  135.6800 C   0  0  0  0  0  2  0  0  0  0  0  0
  185.8220  172.3100  136.6250 C   0  0  0  0  0  2  0  0  0  0  0  0
  185.3950  173.3240  137.6780 C   0  0  0  0  0  2  0  0  0  0  0  0
  184.7670  174.5450  137.0310 C   0  0  0  0  0  2  0  0  0  0  0  0
  183.3090  174.2690  136.7270 C   0  0  0  0  0  2  0  0  0  0  0  0
  182.6920  175.4410  136.2670 O   0  0  0  0  0  0  0  0  0  0  0  0
  181.7560  175.8660  137.2350 C   0  0  1  0  0  3  0  0  0  0  0  0
  181.3200  174.7870  138.2300 C   0  0  0  0  0  1  0  0  0  0  0  0
  184.2580  177.5850  138.5700 O   0  0  0  0  0  1  0  0  0  0  0  0
  181.9740  177.2950  137.7860 C   0  0  1  0  0  0  0  0  0  0  0  0
  180.7410  178.4780  142.0410 C   0  0  0  0  0  3  0  0  0  0  0  0
  182.8570  176.2980  139.8190 F   0  0  0  0  0  0  0  0  0  0  0  0
  182.9350  177.4030  138.9860 C   0  0  1  0  0  0  0  0  0  0  0  0
  182.0350  178.7420  142.1810 C   0  0  0  0  0  3  0  0  0  0  0  0
  182.9040  178.6790  141.0860 O   0  0  0  0  0  0  0  0  0  0  0  0
  180.9290  178.6780  139.5560 C   0  0  2  0  0  3  0  0  0  0  0  0
  182.4530  178.6370  139.7230 C   0  0  2  0  0  3  0  0  0  0  0  0
  182.4560  178.0900  136.7520 F   0  0  0  0  0  0  0  0  0  0  0  0
  180.2150  178.0020  140.7250 C   0  0  0  0  0  2  0  0  0  0  0  0
  180.6400  177.8620  138.3010 C   0  0  1  0  0  3  0  0  0  0  0  0
  179.8900  178.6610  137.2740 C   0  0  0  0  0  3  0  0  0  0  0  0
  178.9390  178.0270  136.4050 S   0  0  0  0  0  0  0  0  0  0  0  0
  190.8110  176.5320  138.5810 C   0  0  0  0  0  2  0  0  0  0  0  0
  189.8730  176.4970  139.7800 C   0  0  0  0  0  2  0  0  0  0  0  0
  189.7010  177.8850  140.3820 C   0  0  0  0  0  2  0  0  0  0  0  0
  189.1680  177.7920  141.8110 C   0  0  1  0  0  3  0  0  0  0  0  0
  190.7250  175.9300  143.5430 C   0  0  0  0  0  2  0  0  0  0  0  0
  191.9340  176.4050  145.4130 C   0  0  2  0  0  3  0  0  0  0  0  0
  190.8470  177.4230  143.6520 C   0  0  1  0  0  0  0  0  0  0  0  0
  190.1390  178.4540  142.7830 C   0  0  1  0  0  3  0  0  0  0  0  0
  191.4840  177.7780  144.9390 C   0  0  0  0  0  2  0  0  0  0  0  0
  191.1840  175.3920  144.7640 O   0  0  0  0  0  0  0  0  0  0  0  0
  191.5700  178.0250  142.4670 C   0  0  0  0  0  2  0  0  0  0  0  0
  191.8000  176.2940  146.8950 C   0  0  0  0  0  0  0  0  0  0  0  0
  191.9910  175.0600  147.5090 O   0  0  0  0  0  0  0  0  0  0  0  0
  191.5490  177.3150  147.5970 O   0  0  0  0  0  1  0  0  0  0  0  0
  187.7480  178.3620  141.9730 C   0  0  1  0  0  3  0  0  0  0  0  0
  185.9130  179.4260  140.8070 O   0  0  0  0  0  1  0  0  0  0  0  0
  187.0020  178.5620  140.6480 C   0  0  0  0  0  2  0  0  0  0  0  0
  186.9280  177.5700  142.9820 C   0  0  0  0  0  2  0  0  0  0  0  0
  185.8580  178.3680  143.4710 O   0  0  0  0  0  0  0  0  0  0  0  0
  184.4240  178.9910  145.1470 O   0  0  0  0  0  0  0  0  0  0  0  0
  185.4210  178.3080  144.7960 C   0  0  0  0  0  0  0  0  0  0  0  0
  186.0770  177.4170  145.8010 C   0  0  0  0  0  2  0  0  0  0  0  0
  187.8220  177.2780  147.5450 C   0  0  2  0  0  3  0  0  0  0  0  0
  188.2690  178.0090  148.7900 C   0  0  0  0  0  1  0  0  0  0  0  0
  188.4470  177.9280  146.3260 C   0  0  0  0  0  2  0  0  0  0  0  0
  187.0070  178.2260  146.6860 C   0  0  1  0  0  3  0  0  0  0  0  0
  1  5  1  0  0  0  0
  2  7  1  0  0  0  0
  2  3  1  0  0  0  0
  4  6  1  0  0  0  0
  4  1  2  0  0  0  0
  5  3  2  0  0  0  0
  5 30  1  0  0  0  0
  6  2  2  0  0  0  0
  8  7  1  0  0  0  0
  8  9  1  0  0  0  0
  9 10  1  0  0  0  0
 11 10  1  0  0  0  0
 12 11  1  0  0  0  0
 13 12  1  0  0  0  0
 13 14  1  0  0  0  0
 14 17  1  0  0  0  0
 14 15  1  1  0  0  0
 17 25  1  6  0  0  0
 17 27  1  0  0  0  0
 17 20  1  0  0  0  0
 18 21  2  0  0  0  0
 20 16  1  6  0  0  0
 20 24  1  0  0  0  0
 20 19  1  0  0  0  0
 22 21  1  0  0  0  0
 23 24  1  0  0  0  0
 23 26  1  1  0  0  0
 24 22  1  1  0  0  0
 26 18  1  0  0  0  0
 27 28  1  6  0  0  0
 27 23  1  0  0  0  0
 29 28  2  0  0  0  0
 30 31  1  0  0  0  0
 31 32  1  0  0  0  0
 33 32  1  6  0  0  0
 33 44  1  0  0  0  0
 34 36  1  0  0  0  0
 34 39  1  0  0  0  0
 35 41  1  1  0  0  0
 36 40  1  6  0  0  0
 36 38  1  0  0  0  0
 37 33  1  6  0  0  0
 37 36  1  0  0  0  0
 38 35  1  0  0  0  0
 39 35  1  0  0  0  0
 40 37  1  0  0  0  0
 41 42  2  0  0  0  0
 41 43  1  0  0  0  0
 44 46  1  6  0  0  0
 44 47  1  0  0  0  0
 46 45  1  0  0  0  0
 47 48  1  0  0  0  0
 48 50  1  0  0  0  0
 50 49  2  0  0  0  0
 50 51  1  0  0  0  0
 52 53  1  1  0  0  0
 54 55  1  0  0  0  0
 54 52  1  0  0  0  0
 55 51  1  6  0  0  0
 55 52  1  0  0  0  0
M  END
>  <MODEL>
5

>  <REMARK>
 VINA RESULT:      -7.3      2.488      6.854
  Name = 
  23 active torsions:
  status: ('A' for Active; 'I' for Inactive)
    1  A    between atoms: C_1  and  C_53
    2  A    between atoms: C_2  and  C_28
    3  A    between atoms: C_2  and  C_44
    4  A    between atoms: C_6  and  C_20
    5  A    between atoms: O_7  and  C_20
    6  A    between atoms: O_7  and  C_22
    7  A    between atoms: C_8  and  C_22
    8  A    between atoms: C_8  and  C_35
    9  A    between atoms: C_10  and  C_32
   10  A    between atoms: C_16  and  C_17
   11  A    between atoms: C_16  and  O_26
   12  A    between atoms: C_17  and  C_23
   13  A    between atoms: C_17  and  C_33
   14  A    between atoms: C_19  and  C_40
   15  A    between atoms: C_19  and  C_45
   16  A    between atoms: O_26  and  C_45
   17  A    between atoms: C_27  and  C_54
   18  A    between atoms: C_28  and  C_49
   19  A    between atoms: C_33  and  C_36
   20  A    between atoms: C_33  and  C_49
   21  A    between atoms: C_35  and  C_43
   22  A    between atoms: C_43  and  C_51
   23  A    between atoms: C_51  and  C_54
                            x       y       z     vdW  Elec       q    Type
                         _______ _______ _______ _____ _____    ______ ____

>  <TORSDO>
F 23

$$$$
=
 OpenBabel10262420283D

 55 60  0  0  1  0  0  0  0  0999 V2000
  190.8000  174.7560  137.6280 C   0  0  0  0  0  3  0  0  0  0  0  0
  189.2900  176.4840  136.0250 C   0  0  0  0  0  0  0  0  0  0  0  0
  189.5110  176.7890  137.3740 C   0  0  0  0  0  3  0  0  0  0  0  0
  190.5860  174.4520  136.2810 C   0  0  0  0  0  3  0  0  0  0  0  0
  190.2640  175.9260  138.1770 C   0  0  0  0  0  0  0  0  0  0  0  0
  189.8360  175.3190  135.4790 C   0  0  0  0  0  3  0  0  0  0  0  0
  188.4900  177.4040  135.1640 C   0  0  0  0  0  2  0  0  0  0  0  0
  187.4460  178.1610  135.9780 C   0  0  0  0  0  2  0  0  0  0  0  0
  186.0920  177.4680  135.9160 C   0  0  0  0  0  2  0  0  0  0  0  0
  185.7900  176.7360  137.2170 C   0  0  0  0  0  2  0  0  0  0  0  0
  184.3260  176.8780  137.5910 C   0  0  0  0  0  2  0  0  0  0  0  0
  184.1540  178.0400  138.5470 C   0  0  0  0  0  2  0  0  0  0  0  0
  183.1490  177.7420  139.4790 O   0  0  0  0  0  0  0  0  0  0  0  0
  182.1000  177.0720  138.8110 C   0  0  1  0  0  3  0  0  0  0  0  0
  181.9010  175.6110  139.2240 C   0  0  0  0  0  1  0  0  0  0  0  0
  180.0440  177.6340  136.2710 O   0  0  0  0  0  1  0  0  0  0  0  0
  180.8310  177.9190  138.5540 C   0  0  1  0  0  0  0  0  0  0  0  0
  181.0520  182.3860  137.5420 C   0  0  0  0  0  3  0  0  0  0  0  0
  181.9380  178.8510  136.6010 F   0  0  0  0  0  0  0  0  0  0  0  0
  180.7060  178.5100  137.1370 C   0  0  1  0  0  0  0  0  0  0  0  0
  180.4450  182.0080  136.4220 C   0  0  0  0  0  3  0  0  0  0  0  0
  179.9970  180.6920  136.2560 O   0  0  0  0  0  0  0  0  0  0  0  0
  180.2590  180.3240  138.7130 C   0  0  2  0  0  3  0  0  0  0  0  0
  179.8710  179.7600  137.3410 C   0  0  2  0  0  3  0  0  0  0  0  0
  179.7200  177.1250  138.8100 F   0  0  0  0  0  0  0  0  0  0  0  0
  181.3620  181.3760  138.5990 C   0  0  0  0  0  2  0  0  0  0  0  0
  180.8250  179.1400  139.4900 C   0  0  1  0  0  3  0  0  0  0  0  0
  180.0850  178.9080  140.7760 C   0  0  0  0  0  3  0  0  0  0  0  0
  180.7930  178.8180  142.0210 S   0  0  0  0  0  0  0  0  0  0  0  0
  190.5210  176.2820  139.6030 C   0  0  0  0  0  2  0  0  0  0  0  0
  190.8210  177.7680  139.7510 C   0  0  0  0  0  2  0  0  0  0  0  0
  189.7300  178.4700  140.5470 C   0  0  0  0  0  2  0  0  0  0  0  0
  189.3820  177.6750  141.8050 C   0  0  1  0  0  3  0  0  0  0  0  0
  191.2920  176.1960  143.5530 C   0  0  0  0  0  2  0  0  0  0  0  0
  191.9180  176.6660  145.6900 C   0  0  2  0  0  3  0  0  0  0  0  0
  190.7790  177.5640  143.8980 C   0  0  1  0  0  0  0  0  0  0  0  0
  189.8480  178.4210  143.0500 C   0  0  1  0  0  3  0  0  0  0  0  0
  191.0230  177.8420  145.3300 C   0  0  0  0  0  2  0  0  0  0  0  0
  191.7470  175.6150  144.7560 O   0  0  0  0  0  0  0  0  0  0  0  0
  191.3590  178.6340  142.9980 C   0  0  0  0  0  2  0  0  0  0  0  0
  191.6270  176.1940  147.0760 C   0  0  0  0  0  0  0  0  0  0  0  0
  192.6400  175.6040  147.8240 O   0  0  0  0  0  1  0  0  0  0  0  0
  190.4800  176.3560  147.5840 O   0  0  0  0  0  0  0  0  0  0  0  0
  187.8910  177.3090  141.9030 C   0  0  1  0  0  3  0  0  0  0  0  0
  188.1950  175.3290  143.2620 O   0  0  0  0  0  1  0  0  0  0  0  0
  187.5170  176.5510  143.1820 C   0  0  0  0  0  2  0  0  0  0  0  0
  186.9920  178.5160  141.6650 C   0  0  0  0  0  2  0  0  0  0  0  0
  186.4610  178.9770  142.9010 O   0  0  0  0  0  0  0  0  0  0  0  0
  184.3350  179.2980  142.1050 O   0  0  0  0  0  0  0  0  0  0  0  0
  185.0930  179.1750  143.1020 C   0  0  0  0  0  0  0  0  0  0  0  0
  184.4950  179.1980  144.4720 C   0  0  0  0  0  2  0  0  0  0  0  0
  186.2090  178.8080  146.2090 C   0  0  2  0  0  3  0  0  0  0  0  0
  187.2380  177.7730  146.6030 C   0  0  0  0  0  1  0  0  0  0  0  0
  184.8650  178.4360  146.8030 C   0  0  0  0  0  2  0  0  0  0  0  0
  185.1530  178.1460  145.3460 C   0  0  1  0  0  3  0  0  0  0  0  0
  1  5  1  0  0  0  0
  2  3  1  0  0  0  0
  3  5  2  0  0  0  0
  4  1  2  0  0  0  0
  5 30  1  0  0  0  0
  6  2  2  0  0  0  0
  6  4  1  0  0  0  0
  7  8  1  0  0  0  0
  7  2  1  0  0  0  0
  9  8  1  0  0  0  0
  9 10  1  0  0  0  0
 10 11  1  0  0  0  0
 11 12  1  0  0  0  0
 12 13  1  0  0  0  0
 14 15  1  1  0  0  0
 14 13  1  0  0  0  0
 17 25  1  1  0  0  0
 17 14  1  0  0  0  0
 17 27  1  0  0  0  0
 18 26  1  0  0  0  0
 19 20  1  0  0  0  0
 20 16  1  6  0  0  0
 20 24  1  0  0  0  0
 20 17  1  0  0  0  0
 21 18  2  0  0  0  0
 22 21  1  0  0  0  0
 23 26  1  6  0  0  0
 23 27  1  0  0  0  0
 24 22  1  6  0  0  0
 24 23  1  0  0  0  0
 27 28  1  1  0  0  0
 28 29  2  0  0  0  0
 30 31  1  0  0  0  0
 31 32  1  0  0  0  0
 33 32  1  6  0  0  0
 33 44  1  0  0  0  0
 34 36  1  0  0  0  0
 34 39  1  0  0  0  0
 35 41  1  1  0  0  0
 36 40  1  6  0  0  0
 36 38  1  0  0  0  0
 37 33  1  6  0  0  0
 37 36  1  0  0  0  0
 38 35  1  0  0  0  0
 39 35  1  0  0  0  0
 40 37  1  0  0  0  0
 41 43  2  0  0  0  0
 41 42  1  0  0  0  0
 44 47  1  1  0  0  0
 44 46  1  0  0  0  0
 46 45  1  0  0  0  0
 47 48  1  0  0  0  0
 48 50  1  0  0  0  0
 49 50  2  0  0  0  0
 50 51  1  0  0  0  0
 52 53  1  1  0  0  0
 52 54  1  0  0  0  0
 55 51  1  6  0  0  0
 55 52  1  0  0  0  0
 55 54  1  0  0  0  0
M  END
>  <MODEL>
6

>  <REMARK>
 VINA RESULT:      -7.1      2.945      7.059
  Name = 
  23 active torsions:
  status: ('A' for Active; 'I' for Inactive)
    1  A    between atoms: C_1  and  C_53
    2  A    between atoms: C_2  and  C_28
    3  A    between atoms: C_2  and  C_44
    4  A    between atoms: C_6  and  C_20
    5  A    between atoms: O_7  and  C_20
    6  A    between atoms: O_7  and  C_22
    7  A    between atoms: C_8  and  C_22
    8  A    between atoms: C_8  and  C_35
    9  A    between atoms: C_10  and  C_32
   10  A    between atoms: C_16  and  C_17
   11  A    between atoms: C_16  and  O_26
   12  A    between atoms: C_17  and  C_23
   13  A    between atoms: C_17  and  C_33
   14  A    between atoms: C_19  and  C_40
   15  A    between atoms: C_19  and  C_45
   16  A    between atoms: O_26  and  C_45
   17  A    between atoms: C_27  and  C_54
   18  A    between atoms: C_28  and  C_49
   19  A    between atoms: C_33  and  C_36
   20  A    between atoms: C_33  and  C_49
   21  A    between atoms: C_35  and  C_43
   22  A    between atoms: C_43  and  C_51
   23  A    between atoms: C_51  and  C_54
                            x       y       z     vdW  Elec       q    Type
                         _______ _______ _______ _____ _____    ______ ____

>  <TORSDO>
F 23

$$$$
=
 OpenBabel10262420283D

 55 60  0  0  1  0  0  0  0  0999 V2000
  186.4530  177.5130  135.6450 C   0  0  0  0  0  3  0  0  0  0  0  0
  188.3870  175.6490  136.4320 C   0  0  0  0  0  0  0  0  0  0  0  0
  187.1210  175.6430  137.0310 C   0  0  0  0  0  3  0  0  0  0  0  0
  187.7140  177.5170  135.0430 C   0  0  0  0  0  3  0  0  0  0  0  0
  186.1530  176.5750  136.6400 C   0  0  0  0  0  0  0  0  0  0  0  0
  188.6790  176.5820  135.4330 C   0  0  0  0  0  3  0  0  0  0  0  0
  189.4210  174.6540  136.8450 C   0  0  0  0  0  2  0  0  0  0  0  0
  190.5310  175.3100  137.6600 C   0  0  0  0  0  2  0  0  0  0  0  0
  189.9960  176.4770  138.4790 C   0  0  0  0  0  2  0  0  0  0  0  0
  191.0510  176.9980  139.4450 C   0  0  0  0  0  2  0  0  0  0  0  0
  190.6450  176.7370  140.8840 C   0  0  0  0  0  2  0  0  0  0  0  0
  191.1500  177.8580  141.7680 C   0  0  0  0  0  2  0  0  0  0  0  0
  192.0550  177.3470  142.7100 O   0  0  0  0  0  0  0  0  0  0  0  0
  191.6820  177.8110  143.9910 C   0  0  1  0  0  3  0  0  0  0  0  0
  191.4470  179.3210  144.0880 C   0  0  0  0  0  1  0  0  0  0  0  0
  188.5400  176.7900  143.6970 O   0  0  0  0  0  1  0  0  0  0  0  0
  190.7180  176.8890  144.7750 C   0  0  1  0  0  0  0  0  0  0  0  0
  188.4270  178.3450  148.4700 C   0  0  0  0  0  3  0  0  0  0  0  0
  189.1040  178.7060  144.7860 F   0  0  0  0  0  0  0  0  0  0  0  0
  189.2410  177.3270  144.7820 C   0  0  1  0  0  0  0  0  0  0  0  0
  187.3590  178.0410  147.7420 C   0  0  0  0  0  3  0  0  0  0  0  0
  187.4910  177.3970  146.5060 O   0  0  0  0  0  0  0  0  0  0  0  0
  189.8490  176.8180  147.0930 C   0  0  2  0  0  3  0  0  0  0  0  0
  188.7010  176.7540  146.0780 C   0  0  2  0  0  3  0  0  0  0  0  0
  190.8050  175.6110  144.2360 F   0  0  0  0  0  0  0  0  0  0  0  0
  189.7970  178.0990  147.9250 C   0  0  0  0  0  2  0  0  0  0  0  0
  191.1240  176.8580  146.2590 C   0  0  1  0  0  3  0  0  0  0  0  0
  192.0550  175.7310  146.6030 C   0  0  0  0  0  3  0  0  0  0  0  0
  192.6260  175.6280  147.9160 S   0  0  0  0  0  0  0  0  0  0  0  0
  184.7970  176.5340  137.2600 C   0  0  0  0  0  2  0  0  0  0  0  0
  183.8260  177.4410  136.5120 C   0  0  0  0  0  2  0  0  0  0  0  0
  183.0410  178.3170  137.4780 C   0  0  0  0  0  2  0  0  0  0  0  0
  182.2060  177.4600  138.4290 C   0  0  1  0  0  3  0  0  0  0  0  0
  184.3430  178.2490  140.3540 C   0  0  0  0  0  2  0  0  0  0  0  0
  184.1210  179.0730  142.4640 C   0  0  2  0  0  3  0  0  0  0  0  0
  182.8990  178.5970  140.5670 C   0  0  1  0  0  0  0  0  0  0  0  0
  181.7450  178.2900  139.6230 C   0  0  1  0  0  3  0  0  0  0  0  0
  182.6830  178.9840  141.9790 C   0  0  0  0  0  2  0  0  0  0  0  0
  184.9730  178.3240  141.6150 O   0  0  0  0  0  0  0  0  0  0  0  0
  182.4190  179.6590  139.6020 C   0  0  0  0  0  2  0  0  0  0  0  0
  184.2280  178.5960  143.8730 C   0  0  0  0  0  0  0  0  0  0  0  0
  183.1050  178.6310  144.6940 O   0  0  0  0  0  1  0  0  0  0  0  0
  185.3170  178.1290  144.3150 O   0  0  0  0  0  0  0  0  0  0  0  0
  181.0170  176.7670  137.7430 C   0  0  1  0  0  3  0  0  0  0  0  0
  180.0150  174.6290  137.2100 O   0  0  0  0  0  1  0  0  0  0  0  0
  180.8610  175.2870  138.1110 C   0  0  0  0  0  2  0  0  0  0  0  0
  179.7210  177.5460  137.9240 C   0  0  0  0  0  2  0  0  0  0  0  0
  179.6740  178.6310  137.0070 O   0  0  0  0  0  0  0  0  0  0  0  0
  178.9490  180.1330  138.5800 O   0  0  0  0  0  0  0  0  0  0  0  0
  179.2910  179.9190  137.3880 C   0  0  0  0  0  0  0  0  0  0  0  0
  179.3210  181.0640  136.4270 C   0  0  0  0  0  2  0  0  0  0  0  0
  179.9740  183.4440  136.5500 C   0  0  2  0  0  3  0  0  0  0  0  0
  181.1830  184.3220  136.3210 C   0  0  0  0  0  1  0  0  0  0  0  0
  180.0160  182.8860  137.9600 C   0  0  0  0  0  2  0  0  0  0  0  0
  180.4400  182.0220  136.7920 C   0  0  1  0  0  3  0  0  0  0  0  0
  1  5  1  0  0  0  0
  2  7  1  0  0  0  0
  2  3  1  0  0  0  0
  4  6  1  0  0  0  0
  4  1  2  0  0  0  0
  5  3  2  0  0  0  0
  5 30  1  0  0  0  0
  6  2  2  0  0  0  0
  7  8  1  0  0  0  0
  8  9  1  0  0  0  0
  9 10  1  0  0  0  0
 10 11  1  0  0  0  0
 11 12  1  0  0  0  0
 12 13  1  0  0  0  0
 13 14  1  0  0  0  0
 14 15  1  6  0  0  0
 14 17  1  0  0  0  0
 17 25  1  6  0  0  0
 17 20  1  0  0  0  0
 17 27  1  0  0  0  0
 20 16  1  6  0  0  0
 20 19  1  0  0  0  0
 20 24  1  0  0  0  0
 21 18  2  0  0  0  0
 22 21  1  0  0  0  0
 23 26  1  6  0  0  0
 24 22  1  1  0  0  0
 24 23  1  0  0  0  0
 26 18  1  0  0  0  0
 27 28  1  6  0  0  0
 27 23  1  0  0  0  0
 28 29  2  0  0  0  0
 31 30  1  0  0  0  0
 31 32  1  0  0  0  0
 33 32  1  6  0  0  0
 34 36  1  0  0  0  0
 34 39  1  0  0  0  0
 35 41  1  1  0  0  0
 36 40  1  6  0  0  0
 36 38  1  0  0  0  0
 37 33  1  6  0  0  0
 37 36  1  0  0  0  0
 38 35  1  0  0  0  0
 39 35  1  0  0  0  0
 40 37  1  0  0  0  0
 41 43  2  0  0  0  0
 41 42  1  0  0  0  0
 44 47  1  1  0  0  0
 44 46  1  0  0  0  0
 44 33  1  0  0  0  0
 45 46  1  0  0  0  0
 48 50  1  0  0  0  0
 48 47  1  0  0  0  0
 50 49  2  0  0  0  0
 51 50  1  0  0  0  0
 52 53  1  1  0  0  0
 52 55  1  0  0  0  0
 52 54  1  0  0  0  0
 55 51  1  6  0  0  0
 55 54  1  0  0  0  0
M  END
>  <MODEL>
7

>  <REMARK>
 VINA RESULT:      -6.7      4.048     11.676
  Name = 
  23 active torsions:
  status: ('A' for Active; 'I' for Inactive)
    1  A    between atoms: C_1  and  C_53
    2  A    between atoms: C_2  and  C_28
    3  A    between atoms: C_2  and  C_44
    4  A    between atoms: C_6  and  C_20
    5  A    between atoms: O_7  and  C_20
    6  A    between atoms: O_7  and  C_22
    7  A    between atoms: C_8  and  C_22
    8  A    between atoms: C_8  and  C_35
    9  A    between atoms: C_10  and  C_32
   10  A    between atoms: C_16  and  C_17
   11  A    between atoms: C_16  and  O_26
   12  A    between atoms: C_17  and  C_23
   13  A    between atoms: C_17  and  C_33
   14  A    between atoms: C_19  and  C_40
   15  A    between atoms: C_19  and  C_45
   16  A    between atoms: O_26  and  C_45
   17  A    between atoms: C_27  and  C_54
   18  A    between atoms: C_28  and  C_49
   19  A    between atoms: C_33  and  C_36
   20  A    between atoms: C_33  and  C_49
   21  A    between atoms: C_35  and  C_43
   22  A    between atoms: C_43  and  C_51
   23  A    between atoms: C_51  and  C_54
                            x       y       z     vdW  Elec       q    Type
                         _______ _______ _______ _____ _____    ______ ____

>  <TORSDO>
F 23

$$$$
=
 OpenBabel10262420283D

 55 60  0  0  1  0  0  0  0  0999 V2000
  185.8020  178.7430  144.5760 C   0  0  0  0  0  3  0  0  0  0  0  0
  183.0900  178.5530  143.9120 C   0  0  0  0  0  0  0  0  0  0  0  0
  184.0680  178.1280  143.0040 C   0  0  0  0  0  3  0  0  0  0  0  0
  184.8280  179.1630  145.4870 C   0  0  0  0  0  3  0  0  0  0  0  0
  185.4230  178.2240  143.3330 C   0  0  0  0  0  0  0  0  0  0  0  0
  183.4730  179.0620  145.1570 C   0  0  0  0  0  3  0  0  0  0  0  0
  181.6410  178.4500  143.5660 C   0  0  0  0  0  2  0  0  0  0  0  0
  181.0460  179.8170  143.2480 C   0  0  0  0  0  2  0  0  0  0  0  0
  180.1580  179.7570  142.0130 C   0  0  0  0  0  2  0  0  0  0  0  0
  179.3170  178.4870  142.0040 C   0  0  0  0  0  2  0  0  0  0  0  0
  178.9680  178.0780  140.5850 C   0  0  0  0  0  2  0  0  0  0  0  0
  179.4240  176.6550  140.3380 C   0  0  0  0  0  2  0  0  0  0  0  0
  179.3310  176.3580  138.9700 O   0  0  0  0  0  0  0  0  0  0  0  0
  180.1510  175.2420  138.6940 C   0  0  1  0  0  3  0  0  0  0  0  0
  179.6610  173.9180  139.2880 C   0  0  0  0  0  1  0  0  0  0  0  0
  181.6910  173.0100  136.7860 O   0  0  0  0  0  1  0  0  0  0  0  0
  180.7600  175.2020  137.2720 C   0  0  1  0  0  0  0  0  0  0  0  0
  184.9680  176.7930  136.3840 C   0  0  0  0  0  3  0  0  0  0  0  0
  182.8100  174.3410  138.2530 F   0  0  0  0  0  0  0  0  0  0  0  0
  182.0190  174.3290  137.1160 C   0  0  1  0  0  0  0  0  0  0  0  0
  185.1950  175.5430  135.9970 C   0  0  0  0  0  3  0  0  0  0  0  0
  184.1530  174.6110  135.9300 O   0  0  0  0  0  0  0  0  0  0  0  0
  182.5070  176.4830  136.0710 C   0  0  2  0  0  3  0  0  0  0  0  0
  182.7650  174.9760  135.9650 C   0  0  2  0  0  3  0  0  0  0  0  0
  179.7840  174.7460  136.3940 F   0  0  0  0  0  0  0  0  0  0  0  0
  183.6080  177.1910  136.8600 C   0  0  0  0  0  2  0  0  0  0  0  0
  181.2100  176.6160  136.8630 C   0  0  1  0  0  3  0  0  0  0  0  0
  180.1660  177.3830  136.1040 C   0  0  0  0  0  3  0  0  0  0  0  0
  179.6360  178.6100  136.6270 S   0  0  0  0  0  0  0  0  0  0  0  0
  186.4530  177.7340  142.3700 C   0  0  0  0  0  2  0  0  0  0  0  0
  186.6060  178.6950  141.1980 C   0  0  0  0  0  2  0  0  0  0  0  0
  188.0640  179.0810  140.9930 C   0  0  0  0  0  2  0  0  0  0  0  0
  188.8190  177.9720  140.2600 C   0  0  1  0  0  3  0  0  0  0  0  0
  188.2330  176.0410  138.0650 C   0  0  0  0  0  2  0  0  0  0  0  0
  189.0010  176.0500  135.9230 C   0  0  2  0  0  3  0  0  0  0  0  0
  188.9110  177.3580  137.8200 C   0  0  1  0  0  0  0  0  0  0  0  0
  189.2060  178.4310  138.8580 C   0  0  1  0  0  3  0  0  0  0  0  0
  189.5660  177.3410  136.4940 C   0  0  0  0  0  2  0  0  0  0  0  0
  188.5440  175.2100  136.9680 O   0  0  0  0  0  0  0  0  0  0  0  0
  187.9620  178.5260  137.9770 C   0  0  0  0  0  2  0  0  0  0  0  0
  190.0270  175.3520  135.0950 C   0  0  0  0  0  0  0  0  0  0  0  0
  189.8930  173.9900  134.8440 O   0  0  0  0  0  1  0  0  0  0  0  0
  190.9950  175.9920  134.5940 O   0  0  0  0  0  0  0  0  0  0  0  0
  190.0450  177.4550  141.0320 C   0  0  1  0  0  3  0  0  0  0  0  0
  192.3090  177.7190  140.2170 O   0  0  0  0  0  1  0  0  0  0  0  0
  191.1660  176.9160  140.1340 C   0  0  0  0  0  2  0  0  0  0  0  0
  190.5560  178.4750  142.0410 C   0  0  0  0  0  2  0  0  0  0  0  0
  191.0000  177.8140  143.2180 O   0  0  0  0  0  0  0  0  0  0  0  0
  190.4100  175.7550  144.0370 O   0  0  0  0  0  0  0  0  0  0  0  0
  190.1660  176.9880  143.9750 C   0  0  0  0  0  0  0  0  0  0  0  0
  189.0150  177.5360  144.7560 C   0  0  0  0  0  2  0  0  0  0  0  0
  188.7610  178.2380  147.1110 C   0  0  2  0  0  3  0  0  0  0  0  0
  189.3980  177.9990  148.4610 C   0  0  0  0  0  1  0  0  0  0  0  0
  187.7290  177.1590  146.8430 C   0  0  0  0  0  2  0  0  0  0  0  0
  189.0960  177.0740  146.1990 C   0  0  1  0  0  3  0  0  0  0  0  0
  1  4  1  0  0  0  0
  2  6  1  0  0  0  0
  3  5  1  0  0  0  0
  3  2  2  0  0  0  0
  5  1  2  0  0  0  0
  6  4  2  0  0  0  0
  7  2  1  0  0  0  0
  8  7  1  0  0  0  0
  9  8  1  0  0  0  0
 10  9  1  0  0  0  0
 11 10  1  0  0  0  0
 12 11  1  0  0  0  0
 13 12  1  0  0  0  0
 14 13  1  0  0  0  0
 14 15  1  6  0  0  0
 17 25  1  6  0  0  0
 17 14  1  0  0  0  0
 18 26  1  0  0  0  0
 20 16  1  6  0  0  0
 20 17  1  0  0  0  0
 20 19  1  0  0  0  0
 21 18  2  0  0  0  0
 22 21  1  0  0  0  0
 23 26  1  1  0  0  0
 23 27  1  0  0  0  0
 24 22  1  1  0  0  0
 24 23  1  0  0  0  0
 24 20  1  0  0  0  0
 27 28  1  6  0  0  0
 27 17  1  0  0  0  0
 28 29  2  0  0  0  0
 30  5  1  0  0  0  0
 31 30  1  0  0  0  0
 32 31  1  0  0  0  0
 33 32  1  1  0  0  0
 33 44  1  0  0  0  0
 35 41  1  1  0  0  0
 35 38  1  0  0  0  0
 35 39  1  0  0  0  0
 36 38  1  6  0  0  0
 36 40  1  0  0  0  0
 36 34  1  0  0  0  0
 36 37  1  0  0  0  0
 37 33  1  1  0  0  0
 39 34  1  0  0  0  0
 40 37  1  0  0  0  0
 42 41  1  0  0  0  0
 43 41  2  0  0  0  0
 44 46  1  6  0  0  0
 44 47  1  0  0  0  0
 46 45  1  0  0  0  0
 47 48  1  0  0  0  0
 48 50  1  0  0  0  0
 50 49  2  0  0  0  0
 50 51  1  0  0  0  0
 52 53  1  1  0  0  0
 54 52  1  0  0  0  0
 55 51  1  6  0  0  0
 55 54  1  0  0  0  0
 55 52  1  0  0  0  0
M  END
>  <MODEL>
8

>  <REMARK>
 VINA RESULT:      -6.6      2.089      3.234
  Name = 
  23 active torsions:
  status: ('A' for Active; 'I' for Inactive)
    1  A    between atoms: C_1  and  C_53
    2  A    between atoms: C_2  and  C_28
    3  A    between atoms: C_2  and  C_44
    4  A    between atoms: C_6  and  C_20
    5  A    between atoms: O_7  and  C_20
    6  A    between atoms: O_7  and  C_22
    7  A    between atoms: C_8  and  C_22
    8  A    between atoms: C_8  and  C_35
    9  A    between atoms: C_10  and  C_32
   10  A    between atoms: C_16  and  C_17
   11  A    between atoms: C_16  and  O_26
   12  A    between atoms: C_17  and  C_23
   13  A    between atoms: C_17  and  C_33
   14  A    between atoms: C_19  and  C_40
   15  A    between atoms: C_19  and  C_45
   16  A    between atoms: O_26  and  C_45
   17  A    between atoms: C_27  and  C_54
   18  A    between atoms: C_28  and  C_49
   19  A    between atoms: C_33  and  C_36
   20  A    between atoms: C_33  and  C_49
   21  A    between atoms: C_35  and  C_43
   22  A    between atoms: C_43  and  C_51
   23  A    between atoms: C_51  and  C_54
                            x       y       z     vdW  Elec       q    Type
                         _______ _______ _______ _____ _____    ______ ____

>  <TORSDO>
F 23

$$$$
=
 OpenBabel10262420283D

 55 60  0  0  1  0  0  0  0  0999 V2000
  186.3050  177.8760  144.9650 C   0  0  0  0  0  3  0  0  0  0  0  0
  183.8280  179.0310  144.3600 C   0  0  0  0  0  0  0  0  0  0  0  0
  184.6960  178.6470  143.3290 C   0  0  0  0  0  3  0  0  0  0  0  0
  185.4390  178.2530  145.9950 C   0  0  0  0  0  3  0  0  0  0  0  0
  185.9340  178.0710  143.6300 C   0  0  0  0  0  0  0  0  0  0  0  0
  184.1990  178.8260  145.6920 C   0  0  0  0  0  3  0  0  0  0  0  0
  182.5040  179.6440  144.0430 C   0  0  0  0  0  2  0  0  0  0  0  0
  181.5560  178.6270  143.4160 C   0  0  0  0  0  2  0  0  0  0  0  0
  181.5730  178.7220  141.8970 C   0  0  0  0  0  2  0  0  0  0  0  0
  180.1970  179.0850  141.3550 C   0  0  0  0  0  2  0  0  0  0  0  0
  179.1990  177.9730  141.6220 C   0  0  0  0  0  2  0  0  0  0  0  0
  179.6730  176.6930  140.9650 C   0  0  0  0  0  2  0  0  0  0  0  0
  179.8180  176.8960  139.5850 O   0  0  0  0  0  0  0  0  0  0  0  0
  180.6440  175.8760  139.0640 C   0  0  1  0  0  3  0  0  0  0  0  0
  180.0180  174.4780  139.0580 C   0  0  0  0  0  1  0  0  0  0  0  0
  182.7180  174.3620  136.9650 O   0  0  0  0  0  1  0  0  0  0  0  0
  181.5010  176.2770  137.8400 C   0  0  1  0  0  0  0  0  0  0  0  0
  185.6200  178.2380  138.2940 C   0  0  0  0  0  3  0  0  0  0  0  0
  183.4150  175.2580  138.9370 F   0  0  0  0  0  0  0  0  0  0  0  0
  182.8480  175.5420  137.7050 C   0  0  1  0  0  0  0  0  0  0  0  0
  186.0380  177.1650  137.6300 C   0  0  0  0  0  3  0  0  0  0  0  0
  185.1230  176.2480  137.1000 O   0  0  0  0  0  0  0  0  0  0  0  0
  183.3000  177.9260  137.4170 C   0  0  2  0  0  3  0  0  0  0  0  0
  183.7220  176.5270  136.9530 C   0  0  2  0  0  3  0  0  0  0  0  0
  180.7500  176.0530  136.6920 F   0  0  0  0  0  0  0  0  0  0  0  0
  184.1640  178.4210  138.5760 C   0  0  0  0  0  2  0  0  0  0  0  0
  181.8750  177.7660  137.9360 C   0  0  1  0  0  3  0  0  0  0  0  0
  180.9140  178.6740  137.2240 C   0  0  0  0  0  3  0  0  0  0  0  0
  181.0970  178.9900  135.8360 S   0  0  0  0  0  0  0  0  0  0  0  0
  186.8330  177.6330  142.5220 C   0  0  0  0  0  2  0  0  0  0  0  0
  187.3950  178.8310  141.7680 C   0  0  0  0  0  2  0  0  0  0  0  0
  188.6360  178.4460  140.9740 C   0  0  0  0  0  2  0  0  0  0  0  0
  189.8530  178.3370  141.8930 C   0  0  1  0  0  3  0  0  0  0  0  0
  191.6920  177.3150  144.0060 C   0  0  0  0  0  2  0  0  0  0  0  0
  191.3380  177.1740  146.2500 C   0  0  2  0  0  3  0  0  0  0  0  0
  190.4390  178.0780  144.3280 C   0  0  1  0  0  0  0  0  0  0  0  0
  189.4670  178.6850  143.3270 C   0  0  1  0  0  3  0  0  0  0  0  0
  190.0850  177.8750  145.7500 C   0  0  0  0  0  2  0  0  0  0  0  0
  192.0400  176.5910  145.1660 O   0  0  0  0  0  0  0  0  0  0  0  0
  190.5550  179.5430  143.9680 C   0  0  0  0  0  2  0  0  0  0  0  0
  190.9880  176.1420  147.2690 C   0  0  0  0  0  0  0  0  0  0  0  0
  189.6730  176.0370  147.7130 O   0  0  0  0  0  1  0  0  0  0  0  0
  191.8660  175.3440  147.7060 O   0  0  0  0  0  0  0  0  0  0  0  0
  190.5500  176.9680  141.8230 C   0  0  1  0  0  3  0  0  0  0  0  0
  190.1830  174.8340  142.9060 O   0  0  0  0  0  1  0  0  0  0  0  0
  189.6100  175.7770  142.0460 C   0  0  0  0  0  2  0  0  0  0  0  0
  191.3830  176.8160  140.5570 C   0  0  0  0  0  2  0  0  0  0  0  0
  190.6840  176.0210  139.6090 O   0  0  0  0  0  0  0  0  0  0  0  0
  189.5060  177.1920  138.0290 O   0  0  0  0  0  0  0  0  0  0  0  0
  190.4760  176.4350  138.2910 C   0  0  0  0  0  0  0  0  0  0  0  0
  191.4040  176.0410  137.1870 C   0  0  0  0  0  2  0  0  0  0  0  0
  193.2410  174.5300  136.5190 C   0  0  2  0  0  3  0  0  0  0  0  0
  193.6210  173.0690  136.6000 C   0  0  0  0  0  1  0  0  0  0  0  0
  193.6700  175.2340  137.7920 C   0  0  0  0  0  2  0  0  0  0  0  0
  192.2230  174.8320  137.6010 C   0  0  1  0  0  3  0  0  0  0  0  0
  1  4  1  0  0  0  0
  2  6  1  0  0  0  0
  3  5  1  0  0  0  0
  3  2  2  0  0  0  0
  5  1  2  0  0  0  0
  6  4  2  0  0  0  0
  7  2  1  0  0  0  0
  8  7  1  0  0  0  0
  9  8  1  0  0  0  0
 10 11  1  0  0  0  0
 10  9  1  0  0  0  0
 12 11  1  0  0  0  0
 13 12  1  0  0  0  0
 14 15  1  6  0  0  0
 14 13  1  0  0  0  0
 17 25  1  6  0  0  0
 17 27  1  0  0  0  0
 17 14  1  0  0  0  0
 18 26  1  0  0  0  0
 20 16  1  6  0  0  0
 20 17  1  0  0  0  0
 20 19  1  0  0  0  0
 21 18  2  0  0  0  0
 22 21  1  0  0  0  0
 23 27  1  0  0  0  0
 23 26  1  1  0  0  0
 24 22  1  1  0  0  0
 24 23  1  0  0  0  0
 24 20  1  0  0  0  0
 27 28  1  6  0  0  0
 29 28  2  0  0  0  0
 30  5  1  0  0  0  0
 31 30  1  0  0  0  0
 32 31  1  0  0  0  0
 33 32  1  6  0  0  0
 34 36  1  0  0  0  0
 34 39  1  0  0  0  0
 35 41  1  1  0  0  0
 36 40  1  1  0  0  0
 36 38  1  0  0  0  0
 37 33  1  6  0  0  0
 37 40  1  0  0  0  0
 37 36  1  0  0  0  0
 38 35  1  0  0  0  0
 39 35  1  0  0  0  0
 41 43  2  0  0  0  0
 41 42  1  0  0  0  0
 44 47  1  6  0  0  0
 44 33  1  0  0  0  0
 44 46  1  0  0  0  0
 46 45  1  0  0  0  0
 48 47  1  0  0  0  0
 49 50  2  0  0  0  0
 50 48  1  0  0  0  0
 51 50  1  0  0  0  0
 52 53  1  1  0  0  0
 52 55  1  0  0  0  0
 52 54  1  0  0  0  0
 55 51  1  6  0  0  0
 55 54  1  0  0  0  0
M  END
>  <MODEL>
9

>  <REMARK>
 VINA RESULT:      -6.5      2.260      6.151
  Name = 
  23 active torsions:
  status: ('A' for Active; 'I' for Inactive)
    1  A    between atoms: C_1  and  C_53
    2  A    between atoms: C_2  and  C_28
    3  A    between atoms: C_2  and  C_44
    4  A    between atoms: C_6  and  C_20
    5  A    between atoms: O_7  and  C_20
    6  A    between atoms: O_7  and  C_22
    7  A    between atoms: C_8  and  C_22
    8  A    between atoms: C_8  and  C_35
    9  A    between atoms: C_10  and  C_32
   10  A    between atoms: C_16  and  C_17
   11  A    between atoms: C_16  and  O_26
   12  A    between atoms: C_17  and  C_23
   13  A    between atoms: C_17  and  C_33
   14  A    between atoms: C_19  and  C_40
   15  A    between atoms: C_19  and  C_45
   16  A    between atoms: O_26  and  C_45
   17  A    between atoms: C_27  and  C_54
   18  A    between atoms: C_28  and  C_49
   19  A    between atoms: C_33  and  C_36
   20  A    between atoms: C_33  and  C_49
   21  A    between atoms: C_35  and  C_43
   22  A    between atoms: C_43  and  C_51
   23  A    between atoms: C_51  and  C_54
                            x       y       z     vdW  Elec       q    Type
                         _______ _______ _______ _____ _____    ______ ____

>  <TORSDO>
F 23

$$$$
