=
 OpenBabel10262421363D

 32 35  0  0  1  0  0  0  0  0999 V2000
  181.4250  179.3720  142.8820 C   0  0  0  0  0  0  0  0  0  0  0  0
  186.2290  177.8420  143.4940 C   0  0  0  0  0  0  0  0  0  0  0  0
  187.2080  178.2220  148.3060 C   0  0  0  0  0  3  0  0  0  0  0  0
  188.4740  177.6780  148.0810 C   0  0  0  0  0  3  0  0  0  0  0  0
  183.9960  178.2970  142.6230 C   0  0  0  0  0  0  0  0  0  0  0  0
  184.3970  178.5390  145.0930 C   0  0  0  0  0  2  0  0  0  0  0  0
  182.2500  179.2610  144.0070 C   0  0  0  0  0  3  0  0  0  0  0  0
  186.3720  178.5190  147.2280 C   0  0  0  0  0  3  0  0  0  0  0  0
  185.8930  178.6360  144.7450 C   0  0  1  0  0  3  0  0  0  0  0  0
  186.7820  178.2570  145.9100 C   0  0  0  0  0  0  0  0  0  0  0  0
  188.6050  177.5200  144.2950 C   0  0  1  0  0  3  0  0  0  0  0  0
  181.8770  178.9260  141.6340 C   0  0  0  0  0  3  0  0  0  0  0  0
  183.5400  178.7390  143.8780 C   0  0  0  0  0  0  0  0  0  0  0  0
  183.1620  178.3890  141.5040 C   0  0  0  0  0  3  0  0  0  0  0  0
  188.9080  177.4390  146.7760 C   0  0  0  0  0  3  0  0  0  0  0  0
  188.0750  177.7290  145.6880 C   0  0  0  0  0  0  0  0  0  0  0  0
  185.3510  177.7410  142.4940 C   0  0  0  0  0  3  0  0  0  0  0  0
  187.5320  177.2780  143.3350 N   0  0  0  0  0  2  0  0  0  0  0  0
  180.0470  179.9160  143.0220 C   0  0  0  0  0  2  0  0  0  0  0  0
  179.4460  180.0780  141.7100 N   0  0  0  0  0  2  0  0  0  0  0  0
  179.1620  181.4410  141.5630 N   0  0  0  0  0  2  0  0  0  0  0  0
  179.2810  181.7430  140.1490 C   0  0  0  0  0  2  0  0  0  0  0  0
  180.4290  181.1390  139.6410 O   0  0  0  0  0  1  0  0  0  0  0  0
  189.5170  178.6580  143.8280 C   0  0  0  0  0  2  0  0  0  0  0  0
  190.9350  178.1980  143.4850 C   0  0  1  0  0  3  0  0  0  0  0  0
  191.7300  177.8280  144.7390 C   0  0  0  0  0  2  0  0  0  0  0  0
  191.7250  176.3570  145.0300 C   0  0  0  0  0  3  0  0  0  0  0  0
  192.0750  175.8920  146.2270 C   0  0  0  0  0  2  0  0  0  0  0  0
  190.9000  177.1030  142.5760 O   0  0  0  0  0  0  0  0  0  0  0  0
  192.1100  177.5460  140.6550 O   0  0  0  0  0  0  0  0  0  0  0  0
  189.7900  177.1340  140.3480 C   0  0  0  0  0  1  0  0  0  0  0  0
  191.0030  177.2770  141.1940 C   0  0  0  0  0  0  0  0  0  0  0  0
  1 19  1  0  0  0  0
  1  7  1  0  0  0  0
  2  9  1  0  0  0  0
  4  3  1  0  0  0  0
  5 13  1  0  0  0  0
  8  3  2  0  0  0  0
  9  6  1  1  0  0  0
  9 10  1  0  0  0  0
 10  8  1  0  0  0  0
 11 24  1  6  0  0  0
 11 16  1  0  0  0  0
 12  1  2  0  0  0  0
 13  7  2  0  0  0  0
 13  6  1  0  0  0  0
 14 12  1  0  0  0  0
 14  5  2  0  0  0  0
 15  4  2  0  0  0  0
 16 10  2  0  0  0  0
 16 15  1  0  0  0  0
 17  5  1  0  0  0  0
 17  2  2  0  0  0  0
 18  2  1  0  0  0  0
 18 11  1  0  0  0  0
 20 19  1  0  0  0  0
 21 20  1  0  0  0  0
 22 21  1  0  0  0  0
 23 22  1  0  0  0  0
 25 24  1  1  0  0  0
 25 26  1  0  0  0  0
 26 27  1  0  0  0  0
 27 28  2  0  0  0  0
 29 25  1  0  0  0  0
 30 32  2  0  0  0  0
 31 32  1  0  0  0  0
 32 29  1  0  0  0  0
M  END
>  <MODEL>
1

>  <REMARK>
 VINA RESULT:      -8.6      0.000      0.000
  Name = 
  10 active torsions:
  status: ('A' for Active; 'I' for Inactive)
    1  A    between atoms: N_1  and  N_10
    2  A    between atoms: N_1  and  C_17
    3  A    between atoms: C_2  and  C_24
    4  A    between atoms: C_6  and  C_7
    5  A    between atoms: C_7  and  C_32
    6  A    between atoms: N_10  and  C_24
    7  A    between atoms: C_16  and  C_27
    8  A    between atoms: O_22  and  C_30
    9  A    between atoms: O_22  and  C_32
   10  A    between atoms: C_27  and  C_32
                            x       y       z     vdW  Elec       q    Type
                         _______ _______ _______ _____ _____    ______ ____

>  <TORSDO>
F 10

$$$$
=
 OpenBabel10262421363D

 32 35  0  0  1  0  0  0  0  0999 V2000
  190.4450  176.7540  139.3070 C   0  0  0  0  0  0  0  0  0  0  0  0
  186.4390  178.7530  141.7080 C   0  0  0  0  0  0  0  0  0  0  0  0
  186.9680  177.6250  146.4730 C   0  0  0  0  0  3  0  0  0  0  0  0
  185.8170  178.3600  146.7630 C   0  0  0  0  0  3  0  0  0  0  0  0
  188.1640  178.1810  140.0790 C   0  0  0  0  0  0  0  0  0  0  0  0
  188.5210  177.5430  142.4840 C   0  0  0  0  0  2  0  0  0  0  0  0
  190.0490  176.7620  140.6490 C   0  0  0  0  0  3  0  0  0  0  0  0
  187.3540  177.4260  145.1460 C   0  0  0  0  0  3  0  0  0  0  0  0
  187.0000  177.7060  142.6540 C   0  0  1  0  0  3  0  0  0  0  0  0
  186.6070  177.9760  144.0910 C   0  0  0  0  0  0  0  0  0  0  0  0
  184.5360  179.2270  143.3010 C   0  0  1  0  0  3  0  0  0  0  0  0
  189.7130  177.4760  138.3570 C   0  0  0  0  0  3  0  0  0  0  0  0
  188.9010  177.4610  141.0350 C   0  0  0  0  0  0  0  0  0  0  0  0
  188.5730  178.1900  138.7420 C   0  0  0  0  0  3  0  0  0  0  0  0
  185.0470  178.8890  145.7260 C   0  0  0  0  0  3  0  0  0  0  0  0
  185.4290  178.6990  144.3920 C   0  0  0  0  0  0  0  0  0  0  0  0
  186.9630  178.9220  140.4910 C   0  0  0  0  0  3  0  0  0  0  0  0
  185.2790  179.5010  142.0750 N   0  0  0  0  0  2  0  0  0  0  0  0
  191.6720  176.0200  138.8990 C   0  0  0  0  0  2  0  0  0  0  0  0
  192.8190  176.9110  138.9510 N   0  0  0  0  0  2  0  0  0  0  0  0
  193.9000  176.2070  138.4070 N   0  0  0  0  0  2  0  0  0  0  0  0
  193.6530  176.0970  136.9810 C   0  0  0  0  0  2  0  0  0  0  0  0
  194.4680  176.9970  136.2980 O   0  0  0  0  0  1  0  0  0  0  0  0
  183.3320  178.3210  143.0270 C   0  0  0  0  0  2  0  0  0  0  0  0
  182.6470  178.6110  141.6890 C   0  0  1  0  0  3  0  0  0  0  0  0
  183.0870  177.6260  140.6030 C   0  0  0  0  0  2  0  0  0  0  0  0
  183.4860  178.2990  139.3230 C   0  0  0  0  0  3  0  0  0  0  0  0
  183.3060  179.6060  139.1490 C   0  0  0  0  0  2  0  0  0  0  0  0
  181.2320  178.5920  141.8370 O   0  0  0  0  0  0  0  0  0  0  0  0
  180.5010  180.5070  142.9100 O   0  0  0  0  0  0  0  0  0  0  0  0
  179.9710  178.4520  143.9790 C   0  0  0  0  0  1  0  0  0  0  0  0
  180.5830  179.2490  142.8840 C   0  0  0  0  0  0  0  0  0  0  0  0
  1  7  1  0  0  0  0
  2 18  1  0  0  0  0
  2  9  1  0  0  0  0
  3  4  1  0  0  0  0
  5 17  1  0  0  0  0
  5 13  1  0  0  0  0
  7 13  2  0  0  0  0
  8  3  2  0  0  0  0
  9  6  1  1  0  0  0
  9 10  1  0  0  0  0
 10 16  2  0  0  0  0
 10  8  1  0  0  0  0
 11 24  1  6  0  0  0
 11 16  1  0  0  0  0
 12 14  1  0  0  0  0
 12  1  2  0  0  0  0
 13  6  1  0  0  0  0
 14  5  2  0  0  0  0
 15  4  2  0  0  0  0
 16 15  1  0  0  0  0
 17  2  2  0  0  0  0
 18 11  1  0  0  0  0
 19 20  1  0  0  0  0
 19  1  1  0  0  0  0
 21 20  1  0  0  0  0
 22 21  1  0  0  0  0
 23 22  1  0  0  0  0
 25 26  1  6  0  0  0
 25 29  1  0  0  0  0
 25 24  1  0  0  0  0
 27 26  1  0  0  0  0
 28 27  2  0  0  0  0
 29 32  1  0  0  0  0
 32 30  2  0  0  0  0
 32 31  1  0  0  0  0
M  END
>  <MODEL>
2

>  <REMARK>
 VINA RESULT:      -8.0      3.022      8.822
  Name = 
  10 active torsions:
  status: ('A' for Active; 'I' for Inactive)
    1  A    between atoms: N_1  and  N_10
    2  A    between atoms: N_1  and  C_17
    3  A    between atoms: C_2  and  C_24
    4  A    between atoms: C_6  and  C_7
    5  A    between atoms: C_7  and  C_32
    6  A    between atoms: N_10  and  C_24
    7  A    between atoms: C_16  and  C_27
    8  A    between atoms: O_22  and  C_30
    9  A    between atoms: O_22  and  C_32
   10  A    between atoms: C_27  and  C_32
                            x       y       z     vdW  Elec       q    Type
                         _______ _______ _______ _____ _____    ______ ____

>  <TORSDO>
F 10

$$$$
=
 OpenBabel10262421363D

 32 35  0  0  1  0  0  0  0  0999 V2000
  189.4050  177.8060  137.1630 C   0  0  0  0  0  0  0  0  0  0  0  0
  189.2220  176.9830  142.1720 C   0  0  0  0  0  0  0  0  0  0  0  0
  184.8640  178.6920  143.7040 C   0  0  0  0  0  3  0  0  0  0  0  0
  185.1520  178.2410  144.9930 C   0  0  0  0  0  3  0  0  0  0  0  0
  189.8070  176.9680  139.8040 C   0  0  0  0  0  0  0  0  0  0  0  0
  187.5650  177.8800  140.4830 C   0  0  0  0  0  2  0  0  0  0  0  0
  188.4340  178.0740  138.1350 C   0  0  0  0  0  3  0  0  0  0  0  0
  185.8340  178.6140  142.7030 C   0  0  0  0  0  3  0  0  0  0  0  0
  188.1620  178.0350  141.8940 C   0  0  1  0  0  3  0  0  0  0  0  0
  187.0980  178.0630  142.9700 C   0  0  0  0  0  0  0  0  0  0  0  0
  188.7590  177.1220  144.6530 C   0  0  1  0  0  3  0  0  0  0  0  0
  190.5650  177.1010  137.5080 C   0  0  0  0  0  3  0  0  0  0  0  0
  188.6390  177.6710  139.4570 C   0  0  0  0  0  0  0  0  0  0  0  0
  190.7660  176.6820  138.8270 C   0  0  0  0  0  3  0  0  0  0  0  0
  186.4130  177.7170  145.2830 C   0  0  0  0  0  3  0  0  0  0  0  0
  187.3900  177.6290  144.2850 C   0  0  0  0  0  0  0  0  0  0  0  0
  190.0140  176.5380  141.1940 C   0  0  0  0  0  3  0  0  0  0  0  0
  189.4470  176.5330  143.5090 N   0  0  0  0  0  2  0  0  0  0  0  0
  189.1810  178.2250  135.7540 C   0  0  0  0  0  2  0  0  0  0  0  0
  189.0110  177.0530  134.9120 N   0  0  0  0  0  2  0  0  0  0  0  0
  187.6330  176.8460  134.7850 N   0  0  0  0  0  2  0  0  0  0  0  0
  187.3690  175.4950  135.2440 C   0  0  0  0  0  2  0  0  0  0  0  0
  186.6100  175.5410  136.4110 O   0  0  0  0  0  1  0  0  0  0  0  0
  189.6260  178.1880  145.3300 C   0  0  0  0  0  2  0  0  0  0  0  0
  190.1840  177.7450  146.6850 C   0  0  1  0  0  3  0  0  0  0  0  0
  189.3980  176.5670  147.2640 C   0  0  0  0  0  2  0  0  0  0  0  0
  188.3360  176.9870  148.2370 C   0  0  0  0  0  3  0  0  0  0  0  0
  188.2680  178.2410  148.6790 C   0  0  0  0  0  2  0  0  0  0  0  0
  191.5640  177.4180  146.5740 O   0  0  0  0  0  0  0  0  0  0  0  0
  192.0250  175.3400  145.6680 O   0  0  0  0  0  0  0  0  0  0  0  0
  192.5460  175.6050  147.9700 C   0  0  0  0  0  1  0  0  0  0  0  0
  192.0300  176.1040  146.6700 C   0  0  0  0  0  0  0  0  0  0  0  0
  1 12  2  0  0  0  0
  1  7  1  0  0  0  0
  2 18  1  0  0  0  0
  3  4  1  0  0  0  0
  4 15  2  0  0  0  0
  5 17  1  0  0  0  0
  7 13  2  0  0  0  0
  8 10  1  0  0  0  0
  8  3  2  0  0  0  0
  9  6  1  6  0  0  0
  9  2  1  0  0  0  0
  9 10  1  0  0  0  0
 10 16  2  0  0  0  0
 11 24  1  6  0  0  0
 12 14  1  0  0  0  0
 13  5  1  0  0  0  0
 13  6  1  0  0  0  0
 14  5  2  0  0  0  0
 16 11  1  0  0  0  0
 16 15  1  0  0  0  0
 17  2  2  0  0  0  0
 18 11  1  0  0  0  0
 19  1  1  0  0  0  0
 20 19  1  0  0  0  0
 21 20  1  0  0  0  0
 21 22  1  0  0  0  0
 22 23  1  0  0  0  0
 25 24  1  6  0  0  0
 25 26  1  0  0  0  0
 26 27  1  0  0  0  0
 27 28  2  0  0  0  0
 29 32  1  0  0  0  0
 29 25  1  0  0  0  0
 30 32  2  0  0  0  0
 32 31  1  0  0  0  0
M  END
>  <MODEL>
3

>  <REMARK>
 VINA RESULT:      -8.0      4.080      6.747
  Name = 
  10 active torsions:
  status: ('A' for Active; 'I' for Inactive)
    1  A    between atoms: N_1  and  N_10
    2  A    between atoms: N_1  and  C_17
    3  A    between atoms: C_2  and  C_24
    4  A    between atoms: C_6  and  C_7
    5  A    between atoms: C_7  and  C_32
    6  A    between atoms: N_10  and  C_24
    7  A    between atoms: C_16  and  C_27
    8  A    between atoms: O_22  and  C_30
    9  A    between atoms: O_22  and  C_32
   10  A    between atoms: C_27  and  C_32
                            x       y       z     vdW  Elec       q    Type
                         _______ _______ _______ _____ _____    ______ ____

>  <TORSDO>
F 10

$$$$
=
 OpenBabel10262421363D

 32 35  0  0  1  0  0  0  0  0999 V2000
  187.5730  177.4990  144.7520 C   0  0  0  0  0  0  0  0  0  0  0  0
  184.7880  178.9730  140.7670 C   0  0  0  0  0  0  0  0  0  0  0  0
  180.1480  179.3460  142.3750 C   0  0  0  0  0  3  0  0  0  0  0  0
  179.7610  179.8100  141.1170 C   0  0  0  0  0  3  0  0  0  0  0  0
  186.6130  178.4460  142.2980 C   0  0  0  0  0  0  0  0  0  0  0  0
  184.2770  178.5940  143.2160 C   0  0  0  0  0  2  0  0  0  0  0  0
  186.2080  177.7660  144.5930 C   0  0  0  0  0  3  0  0  0  0  0  0
  181.4550  178.9030  142.5850 C   0  0  0  0  0  3  0  0  0  0  0  0
  183.7980  178.4000  141.7660 C   0  0  1  0  0  3  0  0  0  0  0  0
  182.3990  178.9370  141.5450 C   0  0  0  0  0  0  0  0  0  0  0  0
  182.9340  179.3530  139.0930 C   0  0  1  0  0  3  0  0  0  0  0  0
  188.4580  177.7250  143.6910 C   0  0  0  0  0  3  0  0  0  0  0  0
  185.7240  178.2250  143.3650 C   0  0  0  0  0  0  0  0  0  0  0  0
  187.9790  178.1980  142.4650 C   0  0  0  0  0  3  0  0  0  0  0  0
  180.6790  179.8240  140.0650 C   0  0  0  0  0  3  0  0  0  0  0  0
  181.9930  179.3860  140.2670 C   0  0  0  0  0  0  0  0  0  0  0  0
  186.1010  178.9360  141.0110 C   0  0  0  0  0  3  0  0  0  0  0  0
  184.3280  179.4670  139.5080 N   0  0  0  0  0  2  0  0  0  0  0  0
  188.0890  177.0230  146.0630 C   0  0  0  0  0  2  0  0  0  0  0  0
  189.5410  177.0740  146.0680 N   0  0  0  0  0  2  0  0  0  0  0  0
  189.9530  176.6950  147.3510 N   0  0  0  0  0  2  0  0  0  0  0  0
  191.3600  176.3570  147.2560 C   0  0  0  0  0  2  0  0  0  0  0  0
  191.9290  177.0370  146.1810 O   0  0  0  0  0  1  0  0  0  0  0  0
  182.7230  178.1290  138.1970 C   0  0  0  0  0  2  0  0  0  0  0  0
  183.5370  176.9090  138.6350 C   0  0  1  0  0  3  0  0  0  0  0  0
  182.6630  175.8700  139.3420 C   0  0  0  0  0  2  0  0  0  0  0  0
  181.1970  176.0580  139.0860 C   0  0  0  0  0  3  0  0  0  0  0  0
  180.3170  176.0270  140.0840 C   0  0  0  0  0  2  0  0  0  0  0  0
  184.2040  176.3250  137.5220 O   0  0  0  0  0  0  0  0  0  0  0  0
  185.0330  177.2540  135.5720 O   0  0  0  0  0  0  0  0  0  0  0  0
  186.4210  177.4570  137.4890 C   0  0  0  0  0  1  0  0  0  0  0  0
  185.1850  177.0080  136.7990 C   0  0  0  0  0  0  0  0  0  0  0  0
  1 19  1  0  0  0  0
  2 17  2  0  0  0  0
  2  9  1  0  0  0  0
  3  8  1  0  0  0  0
  4  3  2  0  0  0  0
  5 14  2  0  0  0  0
  5 13  1  0  0  0  0
  6 13  1  0  0  0  0
  7  1  1  0  0  0  0
  9  6  1  1  0  0  0
 10  9  1  0  0  0  0
 10  8  2  0  0  0  0
 11 24  1  1  0  0  0
 11 18  1  0  0  0  0
 11 16  1  0  0  0  0
 12  1  2  0  0  0  0
 13  7  2  0  0  0  0
 14 12  1  0  0  0  0
 15 16  2  0  0  0  0
 15  4  1  0  0  0  0
 16 10  1  0  0  0  0
 17  5  1  0  0  0  0
 18  2  1  0  0  0  0
 19 20  1  0  0  0  0
 20 21  1  0  0  0  0
 22 21  1  0  0  0  0
 23 22  1  0  0  0  0
 25 24  1  6  0  0  0
 25 26  1  0  0  0  0
 27 26  1  0  0  0  0
 27 28  2  0  0  0  0
 29 25  1  0  0  0  0
 30 32  2  0  0  0  0
 32 31  1  0  0  0  0
 32 29  1  0  0  0  0
M  END
>  <MODEL>
4

>  <REMARK>
 VINA RESULT:      -7.7      3.161      8.619
  Name = 
  10 active torsions:
  status: ('A' for Active; 'I' for Inactive)
    1  A    between atoms: N_1  and  N_10
    2  A    between atoms: N_1  and  C_17
    3  A    between atoms: C_2  and  C_24
    4  A    between atoms: C_6  and  C_7
    5  A    between atoms: C_7  and  C_32
    6  A    between atoms: N_10  and  C_24
    7  A    between atoms: C_16  and  C_27
    8  A    between atoms: O_22  and  C_30
    9  A    between atoms: O_22  and  C_32
   10  A    between atoms: C_27  and  C_32
                            x       y       z     vdW  Elec       q    Type
                         _______ _______ _______ _____ _____    ______ ____

>  <TORSDO>
F 10

$$$$
=
 OpenBabel10262421363D

 32 35  0  0  1  0  0  0  0  0999 V2000
  189.1380  177.2810  145.9510 C   0  0  0  0  0  0  0  0  0  0  0  0
  185.9220  178.3050  142.1550 C   0  0  0  0  0  0  0  0  0  0  0  0
  181.5220  179.0730  144.2290 C   0  0  0  0  0  3  0  0  0  0  0  0
  180.9950  179.3760  142.9720 C   0  0  0  0  0  3  0  0  0  0  0  0
  187.9080  177.9210  143.5200 C   0  0  0  0  0  0  0  0  0  0  0  0
  185.7060  178.2830  144.6760 C   0  0  0  0  0  2  0  0  0  0  0  0
  187.7710  177.5770  145.9190 C   0  0  0  0  0  3  0  0  0  0  0  0
  182.8350  178.6120  144.3440 C   0  0  0  0  0  3  0  0  0  0  0  0
  185.0490  177.9120  143.3340 C   0  0  1  0  0  3  0  0  0  0  0  0
  183.6460  178.4680  143.2060 C   0  0  0  0  0  0  0  0  0  0  0  0
  183.8870  178.5250  140.6730 C   0  0  1  0  0  3  0  0  0  0  0  0
  189.8930  177.3260  144.7730 C   0  0  0  0  0  3  0  0  0  0  0  0
  187.1510  177.8820  144.7030 C   0  0  0  0  0  0  0  0  0  0  0  0
  189.2790  177.6460  143.5570 C   0  0  0  0  0  3  0  0  0  0  0  0
  181.7780  179.2110  141.8290 C   0  0  0  0  0  3  0  0  0  0  0  0
  183.0970  178.7540  141.9340 C   0  0  0  0  0  0  0  0  0  0  0  0
  187.2540  178.2510  142.2450 C   0  0  0  0  0  3  0  0  0  0  0  0
  185.3240  178.6400  140.9020 N   0  0  0  0  0  2  0  0  0  0  0  0
  189.8000  176.9690  147.2460 C   0  0  0  0  0  2  0  0  0  0  0  0
  191.2420  176.9420  147.0680 N   0  0  0  0  0  2  0  0  0  0  0  0
  191.6430  175.6110  147.2310 N   0  0  0  0  0  2  0  0  0  0  0  0
  192.8060  175.6280  148.0990 C   0  0  0  0  0  2  0  0  0  0  0  0
  192.8120  176.8050  148.8440 O   0  0  0  0  0  1  0  0  0  0  0  0
  183.5420  177.1990  139.9880 C   0  0  0  0  0  2  0  0  0  0  0  0
  183.1810  177.3570  138.5090 C   0  0  1  0  0  3  0  0  0  0  0  0
  181.8150  178.0200  138.3260 C   0  0  0  0  0  2  0  0  0  0  0  0
  181.9060  179.4330  137.8290 C   0  0  0  0  0  3  0  0  0  0  0  0
  181.1200  180.3860  138.3230 C   0  0  0  0  0  2  0  0  0  0  0  0
  184.1890  178.0910  137.8240 O   0  0  0  0  0  0  0  0  0  0  0  0
  185.3840  176.3470  136.8860 O   0  0  0  0  0  0  0  0  0  0  0  0
  186.6550  178.2520  137.5200 C   0  0  0  0  0  1  0  0  0  0  0  0
  185.3790  177.5020  137.3910 C   0  0  0  0  0  0  0  0  0  0  0  0
  1 19  1  0  0  0  0
  2 17  2  0  0  0  0
  2  9  1  0  0  0  0
  3  8  1  0  0  0  0
  4  3  2  0  0  0  0
  5 14  2  0  0  0  0
  5 13  1  0  0  0  0
  6 13  1  0  0  0  0
  7  1  1  0  0  0  0
  9  6  1  1  0  0  0
 10  9  1  0  0  0  0
 10  8  2  0  0  0  0
 11 24  1  1  0  0  0
 11 18  1  0  0  0  0
 11 16  1  0  0  0  0
 12  1  2  0  0  0  0
 13  7  2  0  0  0  0
 14 12  1  0  0  0  0
 15 16  2  0  0  0  0
 15  4  1  0  0  0  0
 16 10  1  0  0  0  0
 17  5  1  0  0  0  0
 18  2  1  0  0  0  0
 20 21  1  0  0  0  0
 20 19  1  0  0  0  0
 21 22  1  0  0  0  0
 22 23  1  0  0  0  0
 25 26  1  1  0  0  0
 25 24  1  0  0  0  0
 27 28  2  0  0  0  0
 27 26  1  0  0  0  0
 29 25  1  0  0  0  0
 30 32  2  0  0  0  0
 32 31  1  0  0  0  0
 32 29  1  0  0  0  0
M  END
>  <MODEL>
5

>  <REMARK>
 VINA RESULT:      -7.6      3.119      8.848
  Name = 
  10 active torsions:
  status: ('A' for Active; 'I' for Inactive)
    1  A    between atoms: N_1  and  N_10
    2  A    between atoms: N_1  and  C_17
    3  A    between atoms: C_2  and  C_24
    4  A    between atoms: C_6  and  C_7
    5  A    between atoms: C_7  and  C_32
    6  A    between atoms: N_10  and  C_24
    7  A    between atoms: C_16  and  C_27
    8  A    between atoms: O_22  and  C_30
    9  A    between atoms: O_22  and  C_32
   10  A    between atoms: C_27  and  C_32
                            x       y       z     vdW  Elec       q    Type
                         _______ _______ _______ _____ _____    ______ ____

>  <TORSDO>
F 10

$$$$
=
 OpenBabel10262421363D

 32 35  0  0  1  0  0  0  0  0999 V2000
  188.6010  177.5260  145.6050 C   0  0  0  0  0  0  0  0  0  0  0  0
  190.9520  177.2560  141.1100 C   0  0  0  0  0  0  0  0  0  0  0  0
  187.5330  178.1980  137.6930 C   0  0  0  0  0  3  0  0  0  0  0  0
  188.5140  178.1160  136.7040 C   0  0  0  0  0  3  0  0  0  0  0  0
  190.4300  177.4030  143.4890 C   0  0  0  0  0  0  0  0  0  0  0  0
  188.6080  177.8840  141.8250 C   0  0  0  0  0  2  0  0  0  0  0  0
  188.1560  177.6950  144.2890 C   0  0  0  0  0  3  0  0  0  0  0  0
  187.8470  177.8880  139.0170 C   0  0  0  0  0  3  0  0  0  0  0  0
  189.4700  177.1220  140.8030 C   0  0  1  0  0  3  0  0  0  0  0  0
  189.1530  177.5120  139.3750 C   0  0  0  0  0  0  0  0  0  0  0  0
  191.5250  176.9170  138.6720 C   0  0  1  0  0  3  0  0  0  0  0  0
  189.9610  177.3170  145.8630 C   0  0  0  0  0  3  0  0  0  0  0  0
  189.0650  177.6190  143.2290 C   0  0  0  0  0  0  0  0  0  0  0  0
  190.8750  177.2550  144.8060 C   0  0  0  0  0  3  0  0  0  0  0  0
  189.8100  177.7170  137.0380 C   0  0  0  0  0  3  0  0  0  0  0  0
  190.1360  177.4090  138.3630 C   0  0  0  0  0  0  0  0  0  0  0  0
  191.3830  177.3320  142.3720 C   0  0  0  0  0  3  0  0  0  0  0  0
  191.9090  177.2000  140.0510 N   0  0  0  0  0  2  0  0  0  0  0  0
  187.6360  177.6200  146.7330 C   0  0  0  0  0  2  0  0  0  0  0  0
  186.2760  177.5900  146.2210 N   0  0  0  0  0  2  0  0  0  0  0  0
  185.8090  178.9100  146.2450 N   0  0  0  0  0  2  0  0  0  0  0  0
  184.7750  179.0060  145.2320 C   0  0  0  0  0  2  0  0  0  0  0  0
  183.5230  179.0000  145.8440 O   0  0  0  0  0  1  0  0  0  0  0  0
  191.7180  175.4340  138.3390 C   0  0  0  0  0  2  0  0  0  0  0  0
  192.9600  175.1610  137.4870 C   0  0  1  0  0  3  0  0  0  0  0  0
  192.8180  175.7390  136.0760 C   0  0  0  0  0  2  0  0  0  0  0  0
  191.7130  175.1020  135.2870 C   0  0  0  0  0  3  0  0  0  0  0  0
  191.8660  173.8990  134.7390 C   0  0  0  0  0  2  0  0  0  0  0  0
  194.1250  175.6750  138.1210 O   0  0  0  0  0  0  0  0  0  0  0  0
  195.5850  175.2560  139.8660 O   0  0  0  0  0  0  0  0  0  0  0  0
  195.3050  173.4900  138.3020 C   0  0  0  0  0  1  0  0  0  0  0  0
  195.0210  174.8560  138.8120 C   0  0  0  0  0  0  0  0  0  0  0  0
  1 12  1  0  0  0  0
  1 19  1  0  0  0  0
  2 17  2  0  0  0  0
  3  8  1  0  0  0  0
  4 15  1  0  0  0  0
  4  3  2  0  0  0  0
  5 14  1  0  0  0  0
  6 13  1  0  0  0  0
  7  1  2  0  0  0  0
  8 10  2  0  0  0  0
  9  2  1  0  0  0  0
  9  6  1  1  0  0  0
 10  9  1  0  0  0  0
 11 24  1  1  0  0  0
 11 18  1  0  0  0  0
 13  5  2  0  0  0  0
 13  7  1  0  0  0  0
 14 12  2  0  0  0  0
 15 16  2  0  0  0  0
 16 11  1  0  0  0  0
 16 10  1  0  0  0  0
 17  5  1  0  0  0  0
 18  2  1  0  0  0  0
 20 21  1  0  0  0  0
 20 19  1  0  0  0  0
 22 23  1  0  0  0  0
 22 21  1  0  0  0  0
 25 26  1  6  0  0  0
 25 29  1  0  0  0  0
 25 24  1  0  0  0  0
 27 26  1  0  0  0  0
 28 27  2  0  0  0  0
 29 32  1  0  0  0  0
 31 32  1  0  0  0  0
 32 30  2  0  0  0  0
M  END
>  <MODEL>
6

>  <REMARK>
 VINA RESULT:      -7.6      3.744      7.734
  Name = 
  10 active torsions:
  status: ('A' for Active; 'I' for Inactive)
    1  A    between atoms: N_1  and  N_10
    2  A    between atoms: N_1  and  C_17
    3  A    between atoms: C_2  and  C_24
    4  A    between atoms: C_6  and  C_7
    5  A    between atoms: C_7  and  C_32
    6  A    between atoms: N_10  and  C_24
    7  A    between atoms: C_16  and  C_27
    8  A    between atoms: O_22  and  C_30
    9  A    between atoms: O_22  and  C_32
   10  A    between atoms: C_27  and  C_32
                            x       y       z     vdW  Elec       q    Type
                         _______ _______ _______ _____ _____    ______ ____

>  <TORSDO>
F 10

$$$$
=
 OpenBabel10262421363D

 32 35  0  0  1  0  0  0  0  0999 V2000
  187.4860  177.7340  145.2950 C   0  0  0  0  0  0  0  0  0  0  0  0
  190.3480  177.4050  141.1110 C   0  0  0  0  0  0  0  0  0  0  0  0
  187.3390  178.2300  137.3000 C   0  0  0  0  0  3  0  0  0  0  0  0
  188.4300  178.1420  136.4340 C   0  0  0  0  0  3  0  0  0  0  0  0
  189.5500  177.5930  143.4100 C   0  0  0  0  0  0  0  0  0  0  0  0
  187.9290  178.0150  141.5350 C   0  0  0  0  0  2  0  0  0  0  0  0
  187.1960  177.8700  143.9330 C   0  0  0  0  0  3  0  0  0  0  0  0
  187.5010  177.9510  138.6590 C   0  0  0  0  0  3  0  0  0  0  0  0
  188.9140  177.2440  140.6370 C   0  0  1  0  0  3  0  0  0  0  0  0
  188.7600  177.6010  139.1740 C   0  0  0  0  0  0  0  0  0  0  0  0
  191.2040  177.0250  138.7640 C   0  0  1  0  0  3  0  0  0  0  0  0
  188.8100  177.5490  145.7140 C   0  0  0  0  0  3  0  0  0  0  0  0
  188.2230  177.7850  142.9880 C   0  0  0  0  0  0  0  0  0  0  0  0
  189.8420  177.4790  144.7730 C   0  0  0  0  0  3  0  0  0  0  0  0
  189.6820  177.7680  136.9240 C   0  0  0  0  0  3  0  0  0  0  0  0
  189.8560  177.4910  138.2860 C   0  0  0  0  0  0  0  0  0  0  0  0
  190.6280  177.5130  142.4130 C   0  0  0  0  0  3  0  0  0  0  0  0
  191.4220  177.3420  140.1720 N   0  0  0  0  0  2  0  0  0  0  0  0
  186.3950  177.8360  146.3010 C   0  0  0  0  0  2  0  0  0  0  0  0
  185.5840  179.0100  146.0290 N   0  0  0  0  0  2  0  0  0  0  0  0
  184.2500  178.6300  146.2200 N   0  0  0  0  0  2  0  0  0  0  0  0
  183.5300  179.0120  145.0200 C   0  0  0  0  0  2  0  0  0  0  0  0
  184.3770  179.7340  144.1810 O   0  0  0  0  0  1  0  0  0  0  0  0
  191.4530  175.5400  138.4880 C   0  0  0  0  0  2  0  0  0  0  0  0
  190.7360  175.0260  137.2370 C   0  0  1  0  0  3  0  0  0  0  0  0
  191.7210  174.7080  136.1100 C   0  0  0  0  0  2  0  0  0  0  0  0
  192.9140  173.9250  136.5730 C   0  0  0  0  0  3  0  0  0  0  0  0
  194.0610  173.9610  135.8990 C   0  0  0  0  0  2  0  0  0  0  0  0
  189.9450  173.8850  137.5460 O   0  0  0  0  0  0  0  0  0  0  0  0
  188.7130  172.5080  136.1530 O   0  0  0  0  0  0  0  0  0  0  0  0
  187.6180  174.4830  136.8930 C   0  0  0  0  0  1  0  0  0  0  0  0
  188.7850  173.5660  136.8350 C   0  0  0  0  0  0  0  0  0  0  0  0
  1 12  1  0  0  0  0
  1 19  1  0  0  0  0
  2 17  2  0  0  0  0
  3  8  1  0  0  0  0
  4 15  1  0  0  0  0
  4  3  2  0  0  0  0
  5 14  1  0  0  0  0
  6 13  1  0  0  0  0
  7  1  2  0  0  0  0
  8 10  2  0  0  0  0
  9  2  1  0  0  0  0
  9  6  1  1  0  0  0
 10  9  1  0  0  0  0
 11 24  1  1  0  0  0
 11 18  1  0  0  0  0
 13  5  2  0  0  0  0
 13  7  1  0  0  0  0
 14 12  2  0  0  0  0
 15 16  2  0  0  0  0
 16 11  1  0  0  0  0
 16 10  1  0  0  0  0
 17  5  1  0  0  0  0
 18  2  1  0  0  0  0
 20 21  1  0  0  0  0
 20 19  1  0  0  0  0
 22 21  1  0  0  0  0
 23 22  1  0  0  0  0
 25 26  1  6  0  0  0
 25 29  1  0  0  0  0
 25 24  1  0  0  0  0
 26 27  1  0  0  0  0
 28 27  2  0  0  0  0
 30 32  2  0  0  0  0
 32 31  1  0  0  0  0
 32 29  1  0  0  0  0
M  END
>  <MODEL>
7

>  <REMARK>
 VINA RESULT:      -7.4      3.755      7.361
  Name = 
  10 active torsions:
  status: ('A' for Active; 'I' for Inactive)
    1  A    between atoms: N_1  and  N_10
    2  A    between atoms: N_1  and  C_17
    3  A    between atoms: C_2  and  C_24
    4  A    between atoms: C_6  and  C_7
    5  A    between atoms: C_7  and  C_32
    6  A    between atoms: N_10  and  C_24
    7  A    between atoms: C_16  and  C_27
    8  A    between atoms: O_22  and  C_30
    9  A    between atoms: O_22  and  C_32
   10  A    between atoms: C_27  and  C_32
                            x       y       z     vdW  Elec       q    Type
                         _______ _______ _______ _____ _____    ______ ____

>  <TORSDO>
F 10

$$$$
=
 OpenBabel10262421363D

 32 35  0  0  1  0  0  0  0  0999 V2000
  186.4530  178.3880  146.3570 C   0  0  0  0  0  0  0  0  0  0  0  0
  184.1330  178.6460  141.8450 C   0  0  0  0  0  0  0  0  0  0  0  0
  187.6240  177.9410  138.4440 C   0  0  0  0  0  3  0  0  0  0  0  0
  186.6490  177.9980  137.4470 C   0  0  0  0  0  3  0  0  0  0  0  0
  184.6400  178.4720  144.2260 C   0  0  0  0  0  0  0  0  0  0  0  0
  186.4980  178.1140  142.5700 C   0  0  0  0  0  2  0  0  0  0  0  0
  186.9170  178.2690  145.0420 C   0  0  0  0  0  3  0  0  0  0  0  0
  187.2830  178.2070  139.7710 C   0  0  0  0  0  3  0  0  0  0  0  0
  185.6090  178.8570  141.5560 C   0  0  1  0  0  3  0  0  0  0  0  0
  185.9580  178.5130  140.1240 C   0  0  0  0  0  0  0  0  0  0  0  0
  183.5680  179.0110  139.4090 C   0  0  1  0  0  3  0  0  0  0  0  0
  185.0820  178.5270  146.6060 C   0  0  0  0  0  3  0  0  0  0  0  0
  186.0160  178.3260  143.9750 C   0  0  0  0  0  0  0  0  0  0  0  0
  184.1760  178.5690  145.5410 C   0  0  0  0  0  3  0  0  0  0  0  0
  185.3330  178.3290  137.7760 C   0  0  0  0  0  3  0  0  0  0  0  0
  184.9800  178.5920  139.1040 C   0  0  0  0  0  0  0  0  0  0  0  0
  183.6950  178.5220  143.1010 C   0  0  0  0  0  3  0  0  0  0  0  0
  183.1840  178.6790  140.7780 N   0  0  0  0  0  2  0  0  0  0  0  0
  187.4110  178.3160  147.4920 C   0  0  0  0  0  2  0  0  0  0  0  0
  188.2370  177.1270  147.3650 N   0  0  0  0  0  2  0  0  0  0  0  0
  189.5490  177.5160  147.6580 N   0  0  0  0  0  2  0  0  0  0  0  0
  190.3640  177.1250  146.5230 C   0  0  0  0  0  2  0  0  0  0  0  0
  191.6910  176.9920  146.9280 O   0  0  0  0  0  1  0  0  0  0  0  0
  183.3070  180.4900  139.1060 C   0  0  0  0  0  2  0  0  0  0  0  0
  182.1690  180.7130  138.1060 C   0  0  1  0  0  3  0  0  0  0  0  0
  181.2850  179.4710  137.9680 C   0  0  0  0  0  2  0  0  0  0  0  0
  181.2150  178.9490  136.5630 C   0  0  0  0  0  3  0  0  0  0  0  0
  181.8460  177.8310  136.2150 C   0  0  0  0  0  2  0  0  0  0  0  0
  181.3890  181.8420  138.4790 O   0  0  0  0  0  0  0  0  0  0  0  0
  181.8230  183.9350  137.5930 O   0  0  0  0  0  0  0  0  0  0  0  0
  179.9940  182.7610  136.6330 C   0  0  0  0  0  1  0  0  0  0  0  0
  181.1200  182.8880  137.5940 C   0  0  0  0  0  0  0  0  0  0  0  0
  1 12  1  0  0  0  0
  1 19  1  0  0  0  0
  2 17  2  0  0  0  0
  3  8  1  0  0  0  0
  4 15  1  0  0  0  0
  4  3  2  0  0  0  0
  5 14  1  0  0  0  0
  6 13  1  0  0  0  0
  7  1  2  0  0  0  0
  8 10  2  0  0  0  0
  9  2  1  0  0  0  0
  9  6  1  1  0  0  0
 10  9  1  0  0  0  0
 11 24  1  1  0  0  0
 11 18  1  0  0  0  0
 13  5  2  0  0  0  0
 13  7  1  0  0  0  0
 14 12  2  0  0  0  0
 15 16  2  0  0  0  0
 16 11  1  0  0  0  0
 16 10  1  0  0  0  0
 17  5  1  0  0  0  0
 18  2  1  0  0  0  0
 20 19  1  0  0  0  0
 20 21  1  0  0  0  0
 22 23  1  0  0  0  0
 22 21  1  0  0  0  0
 25 26  1  1  0  0  0
 25 29  1  0  0  0  0
 25 24  1  0  0  0  0
 27 26  1  0  0  0  0
 28 27  2  0  0  0  0
 30 32  2  0  0  0  0
 31 32  1  0  0  0  0
 32 29  1  0  0  0  0
M  END
>  <MODEL>
8

>  <REMARK>
 VINA RESULT:      -7.3      3.046      9.231
  Name = 
  10 active torsions:
  status: ('A' for Active; 'I' for Inactive)
    1  A    between atoms: N_1  and  N_10
    2  A    between atoms: N_1  and  C_17
    3  A    between atoms: C_2  and  C_24
    4  A    between atoms: C_6  and  C_7
    5  A    between atoms: C_7  and  C_32
    6  A    between atoms: N_10  and  C_24
    7  A    between atoms: C_16  and  C_27
    8  A    between atoms: O_22  and  C_30
    9  A    between atoms: O_22  and  C_32
   10  A    between atoms: C_27  and  C_32
                            x       y       z     vdW  Elec       q    Type
                         _______ _______ _______ _____ _____    ______ ____

>  <TORSDO>
F 10

$$$$
=
 OpenBabel10262421363D

 32 35  0  0  1  0  0  0  0  0999 V2000
  187.8750  177.5090  145.2220 C   0  0  0  0  0  0  0  0  0  0  0  0
  184.4730  178.6300  141.6210 C   0  0  0  0  0  0  0  0  0  0  0  0
  180.2180  179.4920  143.9470 C   0  0  0  0  0  3  0  0  0  0  0  0
  179.6270  179.8150  142.7240 C   0  0  0  0  0  3  0  0  0  0  0  0
  186.5240  178.1910  142.8670 C   0  0  0  0  0  0  0  0  0  0  0  0
  184.4000  178.6000  144.1500 C   0  0  0  0  0  2  0  0  0  0  0  0
  186.5160  177.8370  145.2690 C   0  0  0  0  0  3  0  0  0  0  0  0
  181.5240  178.9990  143.9840 C   0  0  0  0  0  3  0  0  0  0  0  0
  183.6590  178.2520  142.8460 C   0  0  1  0  0  3  0  0  0  0  0  0
  182.2650  178.8420  142.8010 C   0  0  0  0  0  0  0  0  0  0  0  0
  182.3620  178.9070  140.2590 C   0  0  1  0  0  3  0  0  0  0  0  0
  188.5620  177.5420  144.0020 C   0  0  0  0  0  3  0  0  0  0  0  0
  185.8350  178.1640  144.0930 C   0  0  0  0  0  0  0  0  0  0  0  0
  187.8870  177.8830  142.8250 C   0  0  0  0  0  3  0  0  0  0  0  0
  180.3400  179.6370  141.5370 C   0  0  0  0  0  3  0  0  0  0  0  0
  181.6510  179.1490  141.5640 C   0  0  0  0  0  0  0  0  0  0  0  0
  185.8050  178.5440  141.6340 C   0  0  0  0  0  3  0  0  0  0  0  0
  183.8120  178.9870  140.4060 N   0  0  0  0  0  2  0  0  0  0  0  0
  188.6020  177.1730  146.4750 C   0  0  0  0  0  2  0  0  0  0  0  0
  190.0350  177.2450  146.2470 N   0  0  0  0  0  2  0  0  0  0  0  0
  190.6520  176.7440  147.4000 N   0  0  0  0  0  2  0  0  0  0  0  0
  191.8500  176.0510  146.9660 C   0  0  0  0  0  2  0  0  0  0  0  0
  192.7140  175.8950  148.0470 O   0  0  0  0  0  1  0  0  0  0  0  0
  181.9460  177.5940  139.5900 C   0  0  0  0  0  2  0  0  0  0  0  0
  180.5670  177.6600  138.9280 C   0  0  1  0  0  3  0  0  0  0  0  0
  180.6590  178.1300  137.4740 C   0  0  0  0  0  2  0  0  0  0  0  0
  180.1610  179.5310  137.2740 C   0  0  0  0  0  3  0  0  0  0  0  0
  180.9910  180.5700  137.3370 C   0  0  0  0  0  2  0  0  0  0  0  0
  179.9140  176.3990  139.0040 O   0  0  0  0  0  0  0  0  0  0  0  0
  178.9530  176.5820  141.1000 O   0  0  0  0  0  0  0  0  0  0  0  0
  179.6320  174.3980  140.4580 C   0  0  0  0  0  1  0  0  0  0  0  0
  179.4800  175.8550  140.2150 C   0  0  0  0  0  0  0  0  0  0  0  0
  1  7  1  0  0  0  0
  1 19  1  0  0  0  0
  2 17  2  0  0  0  0
  2  9  1  0  0  0  0
  3  8  1  0  0  0  0
  4  3  2  0  0  0  0
  5 13  1  0  0  0  0
  9  6  1  1  0  0  0
 10  9  1  0  0  0  0
 10  8  2  0  0  0  0
 11 24  1  1  0  0  0
 11 18  1  0  0  0  0
 11 16  1  0  0  0  0
 12  1  2  0  0  0  0
 13  6  1  0  0  0  0
 13  7  2  0  0  0  0
 14  5  2  0  0  0  0
 14 12  1  0  0  0  0
 15 16  2  0  0  0  0
 15  4  1  0  0  0  0
 16 10  1  0  0  0  0
 17  5  1  0  0  0  0
 18  2  1  0  0  0  0
 20 19  1  0  0  0  0
 20 21  1  0  0  0  0
 22 21  1  0  0  0  0
 22 23  1  0  0  0  0
 25 26  1  6  0  0  0
 25 29  1  0  0  0  0
 25 24  1  0  0  0  0
 27 28  2  0  0  0  0
 27 26  1  0  0  0  0
 29 32  1  0  0  0  0
 32 31  1  0  0  0  0
 32 30  2  0  0  0  0
M  END
>  <MODEL>
9

>  <REMARK>
 VINA RESULT:      -7.1      2.903      9.592
  Name = 
  10 active torsions:
  status: ('A' for Active; 'I' for Inactive)
    1  A    between atoms: N_1  and  N_10
    2  A    between atoms: N_1  and  C_17
    3  A    between atoms: C_2  and  C_24
    4  A    between atoms: C_6  and  C_7
    5  A    between atoms: C_7  and  C_32
    6  A    between atoms: N_10  and  C_24
    7  A    between atoms: C_16  and  C_27
    8  A    between atoms: O_22  and  C_30
    9  A    between atoms: O_22  and  C_32
   10  A    between atoms: C_27  and  C_32
                            x       y       z     vdW  Elec       q    Type
                         _______ _______ _______ _____ _____    ______ ____

>  <TORSDO>
F 10

$$$$
