=
 OpenBabel10262420423D

 55 55  0  0  1  0  0  0  0  0999 V2000
  186.0510  175.2410  136.7400 C   0  0  2  0  0  3  0  0  0  0  0  0
  184.2770  173.6900  136.2640 O   0  0  0  0  0  0  0  0  0  0  0  0
  185.2710  173.9790  136.9820 C   0  0  0  0  0  0  0  0  0  0  0  0
  185.6660  173.0960  138.0240 N   0  0  0  0  0  1  0  0  0  0  0  0
  185.2020  176.3100  136.0280 C   0  0  2  0  0  3  0  0  0  0  0  0
  185.9000  176.8610  134.7870 C   0  0  0  0  0  1  0  0  0  0  0  0
  185.3750  177.3280  138.1850 O   0  0  0  0  0  1  0  0  0  0  0  0
  184.7270  177.4440  136.9520 C   0  0  2  0  0  3  0  0  0  0  0  0
  182.5920  176.5570  136.2670 O   0  0  0  0  0  1  0  0  0  0  0  0
  183.2040  177.4640  137.1330 C   0  0  1  0  0  3  0  0  0  0  0  0
  182.8450  177.1030  138.5650 C   0  0  0  0  0  2  0  0  0  0  0  0
  181.7310  177.9970  139.1070 C   0  0  1  0  0  3  0  0  0  0  0  0
  179.6890  178.9420  138.2680 O   0  0  0  0  0  1  0  0  0  0  0  0
  180.3900  177.7410  138.4050 C   0  0  2  0  0  3  0  0  0  0  0  0
  179.5320  176.7120  139.1420 C   0  0  0  0  0  2  0  0  0  0  0  0
  178.9530  175.7850  138.2290 O   0  0  0  0  0  0  0  0  0  0  0  0
  179.6830  174.7390  137.6550 C   0  0  0  0  0  0  0  0  0  0  0  0
  180.3410  173.9400  138.3760 O   0  0  0  0  0  0  0  0  0  0  0  0
  179.6690  174.5620  136.1990 C   0  0  0  0  0  0  0  0  0  0  0  0
  179.9590  173.4440  135.6960 O   0  0  0  0  0  0  0  0  0  0  0  0
  179.3450  175.6560  135.3480 N   0  0  0  0  0  1  0  0  0  0  0  0
  181.6070  177.8240  140.6160 C   0  0  0  0  0  2  0  0  0  0  0  0
  182.1940  178.9260  141.2930 O   0  0  0  0  0  0  0  0  0  0  0  0
  184.4930  178.4380  141.8230 C   0  0  0  0  0  3  0  0  0  0  0  0
  183.9740  178.7590  144.5530 C   0  0  0  0  0  0  0  0  0  0  0  0
  182.9460  178.9220  143.6210 C   0  0  0  0  0  3  0  0  0  0  0  0
  185.5220  178.2750  142.7560 C   0  0  0  0  0  3  0  0  0  0  0  0
  183.2010  178.7640  142.2470 C   0  0  0  0  0  0  0  0  0  0  0  0
  183.7210  178.9140  145.8740 F   0  0  0  0  0  0  0  0  0  0  0  0
  185.2620  178.4370  144.1200 C   0  0  0  0  0  3  0  0  0  0  0  0
  187.2690  173.8340  135.1510 O   0  0  0  0  0  1  0  0  0  0  0  0
  187.3510  174.9740  135.9560 C   0  0  2  0  0  3  0  0  0  0  0  0
  188.6600  175.0230  136.7620 C   0  0  2  0  0  3  0  0  0  0  0  0
  188.4940  172.6190  137.0620 O   0  0  0  0  0  1  0  0  0  0  0  0
  189.3910  173.6860  136.9560 C   0  0  1  0  0  3  0  0  0  0  0  0
  190.7870  174.4990  135.0520 O   0  0  0  0  0  0  0  0  0  0  0  0
  190.3060  173.4350  135.7990 C   0  0  0  0  0  0  0  0  0  0  0  0
  190.6180  172.2560  135.4760 O   0  0  0  0  0  1  0  0  0  0  0  0
  188.4370  175.7120  138.1130 C   0  0  0  0  0  2  0  0  0  0  0  0
  189.6550  176.5120  138.5930 C   0  0  2  0  0  0  0  0  0  0  0  0
  188.9280  178.2270  140.2020 O   0  0  0  0  0  1  0  0  0  0  0  0
  189.3600  176.9020  140.0720 C   0  0  2  0  0  3  0  0  0  0  0  0
  190.5250  176.6140  141.0320 C   0  0  1  0  0  3  0  0  0  0  0  0
  191.4840  177.6290  140.9780 O   0  0  0  0  0  1  0  0  0  0  0  0
  188.5950  176.2240  142.7040 C   0  0  0  0  0  1  0  0  0  0  0  0
  190.0440  176.4380  142.4410 C   0  0  0  0  0  0  0  0  0  0  0  0
  190.8320  176.4520  143.3750 O   0  0  0  0  0  0  0  0  0  0  0  0
  189.7250  177.7580  137.6760 C   0  0  0  0  0  2  0  0  0  0  0  0
  189.8300  177.4350  136.3200 O   0  0  0  0  0  0  0  0  0  0  0  0
  188.9590  178.3170  135.6830 C   0  0  0  0  0  2  0  0  0  0  0  0
  188.1480  179.0630  136.7260 C   0  0  0  0  0  1  0  0  0  0  0  0
  190.7900  175.6610  138.4570 O   0  0  0  0  0  0  0  0  0  0  0  0
  191.8970  176.3570  137.9470 C   0  0  0  0  0  2  0  0  0  0  0  0
  193.0220  175.3820  137.6520 C   0  0  0  0  0  2  0  0  0  0  0  0
  193.6430  175.7210  136.4510 O   0  0  0  0  0  1  0  0  0  0  0  0
  1  3  1  6  0  0  0
  2  3  2  0  0  0  0
  3  4  1  0  0  0  0
  5  6  1  6  0  0  0
  5  1  1  0  0  0  0
  5  8  1  0  0  0  0
  8 10  1  0  0  0  0
  8  7  1  1  0  0  0
 10  9  1  6  0  0  0
 10 11  1  0  0  0  0
 12 11  1  6  0  0  0
 12 22  1  0  0  0  0
 14 13  1  1  0  0  0
 14 12  1  0  0  0  0
 14 15  1  0  0  0  0
 16 15  1  0  0  0  0
 17 16  1  0  0  0  0
 17 18  2  0  0  0  0
 19 17  1  0  0  0  0
 20 19  2  0  0  0  0
 21 19  1  0  0  0  0
 22 23  1  0  0  0  0
 23 28  1  0  0  0  0
 24 28  2  0  0  0  0
 24 27  1  0  0  0  0
 25 29  1  0  0  0  0
 26 25  2  0  0  0  0
 27 30  2  0  0  0  0
 28 26  1  0  0  0  0
 30 25  1  0  0  0  0
 32 31  1  1  0  0  0
 32  1  1  0  0  0  0
 32 33  1  0  0  0  0
 33 35  1  0  0  0  0
 33 39  1  1  0  0  0
 35 34  1  6  0  0  0
 36 37  2  0  0  0  0
 37 35  1  0  0  0  0
 38 37  1  0  0  0  0
 39 40  1  0  0  0  0
 40 48  1  6  0  0  0
 40 42  1  0  0  0  0
 42 41  1  6  0  0  0
 42 43  1  0  0  0  0
 43 44  1  1  0  0  0
 43 46  1  0  0  0  0
 46 45  1  0  0  0  0
 46 47  2  0  0  0  0
 49 48  1  0  0  0  0
 50 49  1  0  0  0  0
 50 51  1  0  0  0  0
 52 40  1  0  0  0  0
 53 52  1  0  0  0  0
 54 53  1  0  0  0  0
 55 54  1  0  0  0  0
M  END
>  <MODEL>
1

>  <REMARK>
 VINA RESULT:      -5.1      0.000      0.000
  Name = 
  29 active torsions:
  status: ('A' for Active; 'I' for Inactive)
    1  A    between atoms: C_1  and  C_30
    2  A    between atoms: O_2  and  C_28
    3  A    between atoms: O_2  and  C_44
    4  A    between atoms: C_6  and  C_8
    5  A    between atoms: C_6  and  O_20
    6  A    between atoms: C_6  and  C_38
    7  A    between atoms: C_6  and  C_46
    8  A    between atoms: C_7  and  C_8
    9  A    between atoms: C_7  and  C_23
   10  A    between atoms: C_7  and  C_43
   11  A    between atoms: C_10  and  C_32
   12  A    between atoms: C_11  and  C_29
   13  A    between atoms: C_11  and  C_38
   14  A    between atoms: C_12  and  O_14
   15  A    between atoms: O_14  and  C_46
   16  A    between atoms: C_16  and  C_17
   17  A    between atoms: C_16  and  C_26
   18  A    between atoms: C_17  and  C_23
   19  A    between atoms: C_17  and  C_37
   20  A    between atoms: O_20  and  C_30
   21  A    between atoms: C_26  and  C_45
   22  A    between atoms: C_28  and  C_33
   23  A    between atoms: C_32  and  O_39
   24  A    between atoms: C_33  and  C_49
   25  A    between atoms: C_33  and  C_52
   26  A    between atoms: C_34  and  O_39
   27  A    between atoms: C_34  and  C_52
   28  A    between atoms: C_35  and  C_43
   29  A    between atoms: C_45  and  C_49
                            x       y       z     vdW  Elec       q    Type
                         _______ _______ _______ _____ _____    ______ ____

>  <TORSDO>
F 29

$$$$
=
 OpenBabel10262420423D

 55 55  0  0  1  0  0  0  0  0999 V2000
  184.4140  178.6420  143.5460 C   0  0  2  0  0  3  0  0  0  0  0  0
  183.5760  178.5840  145.7980 O   0  0  0  0  0  0  0  0  0  0  0  0
  184.5560  178.7910  145.0350 C   0  0  0  0  0  0  0  0  0  0  0  0
  185.8130  179.1600  145.5890 N   0  0  0  0  0  1  0  0  0  0  0  0
  185.7610  178.8220  142.8220 C   0  0  2  0  0  3  0  0  0  0  0  0
  185.6290  179.7040  141.5820 C   0  0  0  0  0  1  0  0  0  0  0  0
  186.9520  176.9360  143.6800 O   0  0  0  0  0  1  0  0  0  0  0  0
  186.4730  177.5000  142.4940 C   0  0  2  0  0  3  0  0  0  0  0  0
  187.4710  178.8800  140.7860 O   0  0  0  0  0  1  0  0  0  0  0  0
  187.6060  177.6720  141.4740 C   0  0  1  0  0  3  0  0  0  0  0  0
  188.9510  177.6520  142.1800 C   0  0  0  0  0  2  0  0  0  0  0  0
  189.7710  176.4230  141.7900 C   0  0  1  0  0  3  0  0  0  0  0  0
  191.5040  178.0120  141.3060 O   0  0  0  0  0  1  0  0  0  0  0  0
  190.9710  176.7850  140.9050 C   0  0  2  0  0  3  0  0  0  0  0  0
  190.6100  176.8290  139.4200 C   0  0  0  0  0  2  0  0  0  0  0  0
  190.8980  175.5860  138.7890 O   0  0  0  0  0  0  0  0  0  0  0  0
  191.0470  175.4610  137.4030 C   0  0  0  0  0  0  0  0  0  0  0  0
  190.0640  175.6400  136.6320 O   0  0  0  0  0  0  0  0  0  0  0  0
  192.3620  175.1340  136.8430 C   0  0  0  0  0  0  0  0  0  0  0  0
  192.9530  175.9580  136.0950 O   0  0  0  0  0  0  0  0  0  0  0  0
  192.9700  173.8790  137.1290 N   0  0  0  0  0  1  0  0  0  0  0  0
  190.2120  175.6680  143.0390 C   0  0  0  0  0  2  0  0  0  0  0  0
  191.0760  176.4740  143.8280 O   0  0  0  0  0  0  0  0  0  0  0  0
  191.7940  176.3530  146.1250 C   0  0  0  0  0  3  0  0  0  0  0  0
  189.4300  177.5870  146.9700 C   0  0  0  0  0  0  0  0  0  0  0  0
  189.6460  177.3430  145.6120 C   0  0  0  0  0  3  0  0  0  0  0  0
  191.5790  176.5970  147.4850 C   0  0  0  0  0  3  0  0  0  0  0  0
  190.8320  176.7250  145.1800 C   0  0  0  0  0  0  0  0  0  0  0  0
  188.2860  178.1840  147.3790 F   0  0  0  0  0  0  0  0  0  0  0  0
  190.3980  177.2150  147.9070 C   0  0  0  0  0  3  0  0  0  0  0  0
  182.8460  180.4800  143.9310 O   0  0  0  0  0  1  0  0  0  0  0  0
  183.3570  179.6040  142.9700 C   0  0  2  0  0  3  0  0  0  0  0  0
  182.2490  178.9710  142.1110 C   0  0  2  0  0  3  0  0  0  0  0  0
  181.2300  178.2580  144.1980 O   0  0  0  0  0  1  0  0  0  0  0  0
  180.9730  178.5450  142.8530 C   0  0  1  0  0  3  0  0  0  0  0  0
  180.1060  180.6660  141.8620 O   0  0  0  0  0  0  0  0  0  0  0  0
  179.9530  179.6370  142.7780 C   0  0  0  0  0  0  0  0  0  0  0  0
  178.9680  179.6450  143.5650 O   0  0  0  0  0  1  0  0  0  0  0  0
  182.8040  177.8040  141.2870 C   0  0  0  0  0  2  0  0  0  0  0  0
  182.3770  177.8460  139.8140 C   0  0  2  0  0  0  0  0  0  0  0  0
  184.7300  177.7860  139.0950 O   0  0  0  0  0  1  0  0  0  0  0  0
  183.5020  177.1200  139.0180 C   0  0  2  0  0  3  0  0  0  0  0  0
  183.1340  176.8270  137.5540 C   0  0  1  0  0  3  0  0  0  0  0  0
  184.0190  177.4590  136.6770 O   0  0  0  0  0  1  0  0  0  0  0  0
  181.8390  174.7120  136.8310 C   0  0  0  0  0  1  0  0  0  0  0  0
  183.1050  175.3540  137.2800 C   0  0  0  0  0  0  0  0  0  0  0  0
  184.1140  174.6770  137.4040 O   0  0  0  0  0  0  0  0  0  0  0  0
  182.2950  179.3480  139.4460 C   0  0  0  0  0  2  0  0  0  0  0  0
  181.0950  179.6930  138.8190 O   0  0  0  0  0  0  0  0  0  0  0  0
  181.4800  180.5010  137.7500 C   0  0  0  0  0  2  0  0  0  0  0  0
  181.3240  181.9580  138.1390 C   0  0  0  0  0  1  0  0  0  0  0  0
  181.1180  177.1860  139.7280 O   0  0  0  0  0  0  0  0  0  0  0  0
  181.1840  175.8800  140.2410 C   0  0  0  0  0  2  0  0  0  0  0  0
  179.7810  175.3280  140.4130 C   0  0  0  0  0  2  0  0  0  0  0  0
  179.7440  173.9920  140.0130 O   0  0  0  0  0  1  0  0  0  0  0  0
  1  3  1  1  0  0  0
  3  4  1  0  0  0  0
  3  2  2  0  0  0  0
  5  6  1  6  0  0  0
  5  1  1  0  0  0  0
  8  5  1  0  0  0  0
  8  7  1  1  0  0  0
 10  9  1  1  0  0  0
 10 11  1  0  0  0  0
 10  8  1  0  0  0  0
 12 11  1  1  0  0  0
 12 22  1  0  0  0  0
 14 13  1  1  0  0  0
 14 12  1  0  0  0  0
 15 14  1  0  0  0  0
 16 15  1  0  0  0  0
 17 16  1  0  0  0  0
 18 17  2  0  0  0  0
 19 21  1  0  0  0  0
 19 17  1  0  0  0  0
 20 19  2  0  0  0  0
 22 23  1  0  0  0  0
 23 28  1  0  0  0  0
 24 27  1  0  0  0  0
 25 29  1  0  0  0  0
 25 30  1  0  0  0  0
 26 25  2  0  0  0  0
 27 30  2  0  0  0  0
 28 26  1  0  0  0  0
 28 24  2  0  0  0  0
 32  1  1  0  0  0  0
 32 31  1  1  0  0  0
 33 39  1  1  0  0  0
 33 35  1  0  0  0  0
 33 32  1  0  0  0  0
 35 34  1  1  0  0  0
 36 37  2  0  0  0  0
 37 35  1  0  0  0  0
 37 38  1  0  0  0  0
 40 48  1  6  0  0  0
 40 39  1  0  0  0  0
 42 41  1  6  0  0  0
 42 40  1  0  0  0  0
 43 44  1  6  0  0  0
 43 42  1  0  0  0  0
 45 46  1  0  0  0  0
 46 47  2  0  0  0  0
 46 43  1  0  0  0  0
 49 48  1  0  0  0  0
 50 51  1  0  0  0  0
 50 49  1  0  0  0  0
 52 40  1  0  0  0  0
 52 53  1  0  0  0  0
 53 54  1  0  0  0  0
 55 54  1  0  0  0  0
M  END
>  <MODEL>
2

>  <REMARK>
 VINA RESULT:      -4.8      3.001      9.746
  Name = 
  29 active torsions:
  status: ('A' for Active; 'I' for Inactive)
    1  A    between atoms: C_1  and  C_30
    2  A    between atoms: O_2  and  C_28
    3  A    between atoms: O_2  and  C_44
    4  A    between atoms: C_6  and  C_8
    5  A    between atoms: C_6  and  O_20
    6  A    between atoms: C_6  and  C_38
    7  A    between atoms: C_6  and  C_46
    8  A    between atoms: C_7  and  C_8
    9  A    between atoms: C_7  and  C_23
   10  A    between atoms: C_7  and  C_43
   11  A    between atoms: C_10  and  C_32
   12  A    between atoms: C_11  and  C_29
   13  A    between atoms: C_11  and  C_38
   14  A    between atoms: C_12  and  O_14
   15  A    between atoms: O_14  and  C_46
   16  A    between atoms: C_16  and  C_17
   17  A    between atoms: C_16  and  C_26
   18  A    between atoms: C_17  and  C_23
   19  A    between atoms: C_17  and  C_37
   20  A    between atoms: O_20  and  C_30
   21  A    between atoms: C_26  and  C_45
   22  A    between atoms: C_28  and  C_33
   23  A    between atoms: C_32  and  O_39
   24  A    between atoms: C_33  and  C_49
   25  A    between atoms: C_33  and  C_52
   26  A    between atoms: C_34  and  O_39
   27  A    between atoms: C_34  and  C_52
   28  A    between atoms: C_35  and  C_43
   29  A    between atoms: C_45  and  C_49
                            x       y       z     vdW  Elec       q    Type
                         _______ _______ _______ _____ _____    ______ ____

>  <TORSDO>
F 29

$$$$
=
 OpenBabel10262420423D

 55 55  0  0  1  0  0  0  0  0999 V2000
  184.8840  178.4040  143.6350 C   0  0  2  0  0  3  0  0  0  0  0  0
  184.0340  177.9020  145.8270 O   0  0  0  0  0  0  0  0  0  0  0  0
  184.8530  178.5590  145.1300 C   0  0  0  0  0  0  0  0  0  0  0  0
  185.7630  179.4470  145.7650 N   0  0  0  0  0  1  0  0  0  0  0  0
  186.3190  178.4790  143.0820 C   0  0  2  0  0  3  0  0  0  0  0  0
  186.3650  179.1250  141.6990 C   0  0  0  0  0  1  0  0  0  0  0  0
  187.3340  176.7770  144.4190 O   0  0  0  0  0  1  0  0  0  0  0  0
  187.0620  177.1330  143.0950 C   0  0  2  0  0  3  0  0  0  0  0  0
  188.0930  177.6350  140.9730 O   0  0  0  0  0  1  0  0  0  0  0  0
  188.3490  177.1570  142.2600 C   0  0  1  0  0  3  0  0  0  0  0  0
  189.3840  178.0500  142.9230 C   0  0  0  0  0  2  0  0  0  0  0  0
  190.7870  177.4520  142.8240 C   0  0  1  0  0  3  0  0  0  0  0  0
  189.4600  175.4660  143.0740 O   0  0  0  0  0  1  0  0  0  0  0  0
  190.7680  175.9180  142.8820 C   0  0  2  0  0  3  0  0  0  0  0  0
  191.6810  175.3640  143.9770 C   0  0  0  0  0  2  0  0  0  0  0  0
  191.8650  176.3180  145.0170 O   0  0  0  0  0  0  0  0  0  0  0  0
  191.9510  175.9530  146.3650 C   0  0  0  0  0  0  0  0  0  0  0  0
  192.6680  174.9790  146.7250 O   0  0  0  0  0  0  0  0  0  0  0  0
  191.2090  176.7220  147.3700 C   0  0  0  0  0  0  0  0  0  0  0  0
  191.8290  177.3320  148.2830 O   0  0  0  0  0  0  0  0  0  0  0  0
  189.7870  176.7700  147.3300 N   0  0  0  0  0  1  0  0  0  0  0  0
  191.4810  177.9480  141.5600 C   0  0  0  0  0  2  0  0  0  0  0  0
  190.7400  177.5790  140.4070 O   0  0  0  0  0  0  0  0  0  0  0  0
  192.6490  176.9560  139.0750 C   0  0  0  0  0  3  0  0  0  0  0  0
  191.0960  175.1300  137.6330 C   0  0  0  0  0  0  0  0  0  0  0  0
  190.5170  175.8910  138.6510 C   0  0  0  0  0  3  0  0  0  0  0  0
  193.2290  176.1950  138.0560 C   0  0  0  0  0  3  0  0  0  0  0  0
  191.2920  176.8090  139.3810 C   0  0  0  0  0  0  0  0  0  0  0  0
  190.3440  174.2470  136.9350 F   0  0  0  0  0  0  0  0  0  0  0  0
  192.4530  175.2810  137.3370 C   0  0  0  0  0  3  0  0  0  0  0  0
  183.5580  180.4540  143.7870 O   0  0  0  0  0  1  0  0  0  0  0  0
  183.9790  179.4330  142.9310 C   0  0  2  0  0  3  0  0  0  0  0  0
  182.8230  178.8670  142.0890 C   0  0  2  0  0  3  0  0  0  0  0  0
  181.6540  178.7020  144.2110 O   0  0  0  0  0  1  0  0  0  0  0  0
  181.6200  178.3130  142.8680 C   0  0  1  0  0  3  0  0  0  0  0  0
  179.5490  177.9360  141.5260 O   0  0  0  0  0  0  0  0  0  0  0  0
  180.3480  178.8040  142.2540 C   0  0  0  0  0  0  0  0  0  0  0  0
  180.0110  180.0140  142.3660 O   0  0  0  0  0  1  0  0  0  0  0  0
  183.3410  177.8230  141.0920 C   0  0  0  0  0  2  0  0  0  0  0  0
  183.0130  178.1650  139.6330 C   0  0  2  0  0  0  0  0  0  0  0  0
  184.8980  179.3770  138.6150 O   0  0  0  0  0  1  0  0  0  0  0  0
  184.3650  178.1070  138.8610 C   0  0  2  0  0  3  0  0  0  0  0  0
  184.3020  177.2830  137.5640 C   0  0  1  0  0  3  0  0  0  0  0  0
  183.3160  177.7740  136.7050 O   0  0  0  0  0  1  0  0  0  0  0  0
  186.8500  176.8600  137.6130 C   0  0  0  0  0  1  0  0  0  0  0  0
  185.6270  177.2600  136.8640 C   0  0  0  0  0  0  0  0  0  0  0  0
  185.7120  177.5500  135.6810 O   0  0  0  0  0  0  0  0  0  0  0  0
  182.4330  179.6010  139.6600 C   0  0  0  0  0  2  0  0  0  0  0  0
  181.1970  179.7050  139.0160 O   0  0  0  0  0  0  0  0  0  0  0  0
  181.4400  180.5410  137.9280 C   0  0  0  0  0  2  0  0  0  0  0  0
  181.8800  181.9030  138.4290 C   0  0  0  0  0  1  0  0  0  0  0  0
  182.0710  177.1970  139.1820 O   0  0  0  0  0  0  0  0  0  0  0  0
  182.1510  176.0120  139.9300 C   0  0  0  0  0  2  0  0  0  0  0  0
  181.0760  175.0440  139.4720 C   0  0  0  0  0  2  0  0  0  0  0  0
  180.0720  174.9580  140.4360 O   0  0  0  0  0  1  0  0  0  0  0  0
  1  3  1  1  0  0  0
  3  4  1  0  0  0  0
  3  2  2  0  0  0  0
  5  6  1  6  0  0  0
  5  8  1  0  0  0  0
  5  1  1  0  0  0  0
  8  7  1  1  0  0  0
 10  9  1  6  0  0  0
 10 11  1  0  0  0  0
 10  8  1  0  0  0  0
 12 22  1  6  0  0  0
 12 14  1  0  0  0  0
 12 11  1  0  0  0  0
 14 13  1  1  0  0  0
 14 15  1  0  0  0  0
 15 16  1  0  0  0  0
 16 17  1  0  0  0  0
 17 18  2  0  0  0  0
 17 19  1  0  0  0  0
 19 20  2  0  0  0  0
 21 19  1  0  0  0  0
 23 22  1  0  0  0  0
 24 28  1  0  0  0  0
 25 26  1  0  0  0  0
 26 28  2  0  0  0  0
 27 24  2  0  0  0  0
 28 23  1  0  0  0  0
 29 25  1  0  0  0  0
 30 25  2  0  0  0  0
 30 27  1  0  0  0  0
 32  1  1  0  0  0  0
 32 31  1  1  0  0  0
 33 39  1  1  0  0  0
 33 35  1  0  0  0  0
 33 32  1  0  0  0  0
 35 34  1  1  0  0  0
 36 37  2  0  0  0  0
 37 38  1  0  0  0  0
 37 35  1  0  0  0  0
 40 48  1  6  0  0  0
 40 39  1  0  0  0  0
 42 41  1  6  0  0  0
 42 40  1  0  0  0  0
 43 44  1  6  0  0  0
 43 42  1  0  0  0  0
 46 43  1  0  0  0  0
 46 45  1  0  0  0  0
 47 46  2  0  0  0  0
 49 48  1  0  0  0  0
 50 51  1  0  0  0  0
 50 49  1  0  0  0  0
 52 40  1  0  0  0  0
 52 53  1  0  0  0  0
 54 53  1  0  0  0  0
 54 55  1  0  0  0  0
M  END
>  <MODEL>
3

>  <REMARK>
 VINA RESULT:      -4.4      3.840     10.404
  Name = 
  29 active torsions:
  status: ('A' for Active; 'I' for Inactive)
    1  A    between atoms: C_1  and  C_30
    2  A    between atoms: O_2  and  C_28
    3  A    between atoms: O_2  and  C_44
    4  A    between atoms: C_6  and  C_8
    5  A    between atoms: C_6  and  O_20
    6  A    between atoms: C_6  and  C_38
    7  A    between atoms: C_6  and  C_46
    8  A    between atoms: C_7  and  C_8
    9  A    between atoms: C_7  and  C_23
   10  A    between atoms: C_7  and  C_43
   11  A    between atoms: C_10  and  C_32
   12  A    between atoms: C_11  and  C_29
   13  A    between atoms: C_11  and  C_38
   14  A    between atoms: C_12  and  O_14
   15  A    between atoms: O_14  and  C_46
   16  A    between atoms: C_16  and  C_17
   17  A    between atoms: C_16  and  C_26
   18  A    between atoms: C_17  and  C_23
   19  A    between atoms: C_17  and  C_37
   20  A    between atoms: O_20  and  C_30
   21  A    between atoms: C_26  and  C_45
   22  A    between atoms: C_28  and  C_33
   23  A    between atoms: C_32  and  O_39
   24  A    between atoms: C_33  and  C_49
   25  A    between atoms: C_33  and  C_52
   26  A    between atoms: C_34  and  O_39
   27  A    between atoms: C_34  and  C_52
   28  A    between atoms: C_35  and  C_43
   29  A    between atoms: C_45  and  C_49
                            x       y       z     vdW  Elec       q    Type
                         _______ _______ _______ _____ _____    ______ ____

>  <TORSDO>
F 29

$$$$
=
 OpenBabel10262420423D

 55 55  0  0  1  0  0  0  0  0999 V2000
  189.2010  177.7590  141.3880 C   0  0  2  0  0  3  0  0  0  0  0  0
  189.7540  176.9690  143.5900 O   0  0  0  0  0  0  0  0  0  0  0  0
  189.7010  177.9440  142.7930 C   0  0  0  0  0  0  0  0  0  0  0  0
  190.1270  179.2290  143.2260 N   0  0  0  0  0  1  0  0  0  0  0  0
  187.6630  177.7630  141.3230 C   0  0  2  0  0  3  0  0  0  0  0  0
  187.1370  178.7470  140.2800 C   0  0  0  0  0  1  0  0  0  0  0  0
  186.8820  176.7470  143.3410 O   0  0  0  0  0  1  0  0  0  0  0  0
  186.9830  177.9770  142.6850 C   0  0  2  0  0  3  0  0  0  0  0  0
  184.6120  177.6930  142.3470 O   0  0  0  0  0  1  0  0  0  0  0  0
  185.6080  178.6470  142.5640 C   0  0  1  0  0  3  0  0  0  0  0  0
  185.2890  179.4170  143.8340 C   0  0  0  0  0  2  0  0  0  0  0  0
  184.4130  178.5990  144.7820 C   0  0  1  0  0  3  0  0  0  0  0  0
  185.5030  179.6720  146.6330 O   0  0  0  0  0  1  0  0  0  0  0  0
  185.0560  178.4330  146.1660 C   0  0  2  0  0  3  0  0  0  0  0  0
  186.2060  177.4260  146.1600 C   0  0  0  0  0  2  0  0  0  0  0  0
  187.4640  178.0900  146.2060 O   0  0  0  0  0  0  0  0  0  0  0  0
  188.5380  177.6170  146.9680 C   0  0  0  0  0  0  0  0  0  0  0  0
  189.3740  176.8120  146.4730 O   0  0  0  0  0  0  0  0  0  0  0  0
  188.6990  178.0750  148.3520 C   0  0  0  0  0  0  0  0  0  0  0  0
  189.7500  178.6770  148.7000 O   0  0  0  0  0  0  0  0  0  0  0  0
  187.6780  177.8260  149.3120 N   0  0  0  0  0  1  0  0  0  0  0  0
  183.0270  179.2240  144.8860 C   0  0  0  0  0  2  0  0  0  0  0  0
  182.0790  178.4570  144.1590 O   0  0  0  0  0  0  0  0  0  0  0  0
  180.0970  179.7020  143.5880 C   0  0  0  0  0  3  0  0  0  0  0  0
  180.7090  179.5040  140.8660 C   0  0  0  0  0  0  0  0  0  0  0  0
  181.5520  178.9250  141.8170 C   0  0  0  0  0  3  0  0  0  0  0  0
  179.2520  180.2830  142.6360 C   0  0  0  0  0  3  0  0  0  0  0  0
  181.2510  179.0230  143.1870 C   0  0  0  0  0  0  0  0  0  0  0  0
  181.0050  179.4070  139.5480 F   0  0  0  0  0  0  0  0  0  0  0  0
  179.5590  180.1840  141.2760 C   0  0  0  0  0  3  0  0  0  0  0  0
  190.2280  175.5580  141.6820 O   0  0  0  0  0  1  0  0  0  0  0  0
  189.7660  176.4800  140.7390 C   0  0  2  0  0  3  0  0  0  0  0  0
  190.7620  176.6800  139.5850 C   0  0  2  0  0  3  0  0  0  0  0  0
  192.2970  177.4630  141.2970 O   0  0  0  0  0  1  0  0  0  0  0  0
  192.0490  177.4510  139.9210 C   0  0  1  0  0  3  0  0  0  0  0  0
  193.0800  175.5710  138.6390 O   0  0  0  0  0  0  0  0  0  0  0  0
  193.2140  176.8210  139.2250 C   0  0  0  0  0  0  0  0  0  0  0  0
  194.3310  177.4060  139.1950 O   0  0  0  0  0  1  0  0  0  0  0  0
  190.0650  177.3070  138.3710 C   0  0  0  0  0  2  0  0  0  0  0  0
  189.7380  176.2900  137.2690 C   0  0  2  0  0  0  0  0  0  0  0  0
  190.5160  177.1920  135.1160 O   0  0  0  0  0  1  0  0  0  0  0  0
  190.8810  176.4110  136.2180 C   0  0  2  0  0  3  0  0  0  0  0  0
  191.4470  175.0570  135.7610 C   0  0  1  0  0  3  0  0  0  0  0  0
  190.7150  174.5430  134.6880 O   0  0  0  0  0  1  0  0  0  0  0  0
  193.5820  176.4830  135.4730 C   0  0  0  0  0  1  0  0  0  0  0  0
  192.8950  175.1650  135.3880 C   0  0  0  0  0  0  0  0  0  0  0  0
  193.5220  174.1790  135.0320 O   0  0  0  0  0  0  0  0  0  0  0  0
  188.3740  176.7330  136.6840 C   0  0  0  0  0  2  0  0  0  0  0  0
  187.9660  177.9900  137.1370 O   0  0  0  0  0  0  0  0  0  0  0  0
  186.6510  178.1120  136.6900 C   0  0  0  0  0  2  0  0  0  0  0  0
  185.8330  176.9480  137.2130 C   0  0  0  0  0  1  0  0  0  0  0  0
  189.6840  175.0090  137.8890 O   0  0  0  0  0  0  0  0  0  0  0  0
  188.4520  174.3760  137.6580 C   0  0  0  0  0  2  0  0  0  0  0  0
  188.6840  173.0400  136.9770 C   0  0  0  0  0  2  0  0  0  0  0  0
  187.9890  172.9940  135.7690 O   0  0  0  0  0  1  0  0  0  0  0  0
  1  3  1  1  0  0  0
  3  4  1  0  0  0  0
  3  2  2  0  0  0  0
  5  6  1  6  0  0  0
  5  1  1  0  0  0  0
  5  8  1  0  0  0  0
  8  7  1  6  0  0  0
 10  9  1  1  0  0  0
 10  8  1  0  0  0  0
 10 11  1  0  0  0  0
 12 11  1  6  0  0  0
 12 22  1  0  0  0  0
 12 14  1  0  0  0  0
 14 13  1  6  0  0  0
 15 14  1  0  0  0  0
 15 16  1  0  0  0  0
 16 17  1  0  0  0  0
 17 19  1  0  0  0  0
 18 17  2  0  0  0  0
 19 20  2  0  0  0  0
 19 21  1  0  0  0  0
 23 22  1  0  0  0  0
 25 30  2  0  0  0  0
 25 26  1  0  0  0  0
 26 28  2  0  0  0  0
 27 24  2  0  0  0  0
 28 24  1  0  0  0  0
 28 23  1  0  0  0  0
 29 25  1  0  0  0  0
 30 27  1  0  0  0  0
 32  1  1  0  0  0  0
 32 31  1  1  0  0  0
 33 39  1  6  0  0  0
 33 35  1  0  0  0  0
 33 32  1  0  0  0  0
 35 34  1  1  0  0  0
 36 37  2  0  0  0  0
 37 35  1  0  0  0  0
 38 37  1  0  0  0  0
 40 48  1  6  0  0  0
 40 52  1  0  0  0  0
 40 39  1  0  0  0  0
 42 41  1  6  0  0  0
 42 40  1  0  0  0  0
 43 44  1  6  0  0  0
 43 42  1  0  0  0  0
 46 45  1  0  0  0  0
 46 43  1  0  0  0  0
 47 46  2  0  0  0  0
 48 49  1  0  0  0  0
 50 49  1  0  0  0  0
 50 51  1  0  0  0  0
 53 52  1  0  0  0  0
 54 53  1  0  0  0  0
 55 54  1  0  0  0  0
M  END
>  <MODEL>
4

>  <REMARK>
 VINA RESULT:      -4.3      3.854      7.524
  Name = 
  29 active torsions:
  status: ('A' for Active; 'I' for Inactive)
    1  A    between atoms: C_1  and  C_30
    2  A    between atoms: O_2  and  C_28
    3  A    between atoms: O_2  and  C_44
    4  A    between atoms: C_6  and  C_8
    5  A    between atoms: C_6  and  O_20
    6  A    between atoms: C_6  and  C_38
    7  A    between atoms: C_6  and  C_46
    8  A    between atoms: C_7  and  C_8
    9  A    between atoms: C_7  and  C_23
   10  A    between atoms: C_7  and  C_43
   11  A    between atoms: C_10  and  C_32
   12  A    between atoms: C_11  and  C_29
   13  A    between atoms: C_11  and  C_38
   14  A    between atoms: C_12  and  O_14
   15  A    between atoms: O_14  and  C_46
   16  A    between atoms: C_16  and  C_17
   17  A    between atoms: C_16  and  C_26
   18  A    between atoms: C_17  and  C_23
   19  A    between atoms: C_17  and  C_37
   20  A    between atoms: O_20  and  C_30
   21  A    between atoms: C_26  and  C_45
   22  A    between atoms: C_28  and  C_33
   23  A    between atoms: C_32  and  O_39
   24  A    between atoms: C_33  and  C_49
   25  A    between atoms: C_33  and  C_52
   26  A    between atoms: C_34  and  O_39
   27  A    between atoms: C_34  and  C_52
   28  A    between atoms: C_35  and  C_43
   29  A    between atoms: C_45  and  C_49
                            x       y       z     vdW  Elec       q    Type
                         _______ _______ _______ _____ _____    ______ ____

>  <TORSDO>
F 29

$$$$
=
 OpenBabel10262420423D

 55 55  0  0  1  0  0  0  0  0999 V2000
  190.5010  176.8670  138.8420 C   0  0  2  0  0  3  0  0  0  0  0  0
  190.4290  176.1670  141.1410 O   0  0  0  0  0  0  0  0  0  0  0  0
  191.0090  176.8530  140.2570 C   0  0  0  0  0  0  0  0  0  0  0  0
  192.1610  177.6120  140.6000 N   0  0  0  0  0  1  0  0  0  0  0  0
  188.9680  176.9890  138.7850 C   0  0  2  0  0  3  0  0  0  0  0  0
  188.3360  175.8720  137.9580 C   0  0  0  0  0  1  0  0  0  0  0  0
  189.0950  179.3550  139.1010 O   0  0  0  0  0  1  0  0  0  0  0  0
  188.4690  178.3710  138.3310 C   0  0  2  0  0  3  0  0  0  0  0  0
  186.3430  177.9460  137.2760 O   0  0  0  0  0  1  0  0  0  0  0  0
  186.9430  178.5060  138.4050 C   0  0  1  0  0  3  0  0  0  0  0  0
  186.4170  177.8030  139.6450 C   0  0  0  0  0  2  0  0  0  0  0  0
  186.5140  178.6960  140.8810 C   0  0  1  0  0  3  0  0  0  0  0  0
  185.0900  179.3920  142.6840 O   0  0  0  0  0  1  0  0  0  0  0  0
  185.1490  179.2620  141.2940 C   0  0  2  0  0  3  0  0  0  0  0  0
  183.9850  178.4040  140.7960 C   0  0  0  0  0  2  0  0  0  0  0  0
  182.9980  179.2070  140.1580 O   0  0  0  0  0  0  0  0  0  0  0  0
  181.7360  178.7130  139.8100 C   0  0  0  0  0  0  0  0  0  0  0  0
  180.9520  179.3950  139.0940 O   0  0  0  0  0  0  0  0  0  0  0  0
  181.3290  177.3810  140.2700 C   0  0  0  0  0  0  0  0  0  0  0  0
  182.0030  176.3670  139.9430 O   0  0  0  0  0  0  0  0  0  0  0  0
  180.1640  177.2260  141.0730 N   0  0  0  0  0  1  0  0  0  0  0  0
  187.1680  177.9350  142.0290 C   0  0  0  0  0  2  0  0  0  0  0  0
  188.5250  178.3260  142.1760 O   0  0  0  0  0  0  0  0  0  0  0  0
  190.5590  178.5610  143.4460 C   0  0  0  0  0  3  0  0  0  0  0  0
  189.4320  177.1550  145.5860 C   0  0  0  0  0  0  0  0  0  0  0  0
  188.6870  177.3780  144.4250 C   0  0  0  0  0  3  0  0  0  0  0  0
  191.3040  178.3390  144.6080 C   0  0  0  0  0  3  0  0  0  0  0  0
  189.2480  178.0850  143.3460 C   0  0  0  0  0  0  0  0  0  0  0  0
  188.8850  176.4750  146.6210 F   0  0  0  0  0  0  0  0  0  0  0  0
  190.7400  177.6380  145.6780 C   0  0  0  0  0  3  0  0  0  0  0  0
  191.5440  174.6540  138.8660 O   0  0  0  0  0  1  0  0  0  0  0  0
  190.9750  175.6340  138.0480 C   0  0  2  0  0  3  0  0  0  0  0  0
  191.8230  175.9100  136.7950 C   0  0  2  0  0  3  0  0  0  0  0  0
  191.9070  176.9380  134.5960 O   0  0  0  0  0  1  0  0  0  0  0  0
  191.0560  176.3510  135.5380 C   0  0  1  0  0  3  0  0  0  0  0  0
  189.0120  175.1780  134.7140 O   0  0  0  0  0  1  0  0  0  0  0  0
  190.3840  175.1700  134.9130 C   0  0  0  0  0  0  0  0  0  0  0  0
  191.0530  174.1500  134.5940 O   0  0  0  0  0  0  0  0  0  0  0  0
  192.7250  174.7120  136.4780 C   0  0  0  0  0  2  0  0  0  0  0  0
  194.2190  175.0180  136.6470 C   0  0  2  0  0  0  0  0  0  0  0  0
  194.1200  173.6590  134.5970 O   0  0  0  0  0  1  0  0  0  0  0  0
  194.9630  174.1200  135.6140 C   0  0  2  0  0  3  0  0  0  0  0  0
  195.7340  172.9530  136.2510 C   0  0  1  0  0  3  0  0  0  0  0  0
  195.2050  171.7230  135.8510 O   0  0  0  0  0  1  0  0  0  0  0  0
  197.7680  174.2610  135.3430 C   0  0  0  0  0  1  0  0  0  0  0  0
  197.1950  173.0140  135.9200 C   0  0  0  0  0  0  0  0  0  0  0  0
  197.9230  172.0570  136.1340 O   0  0  0  0  0  0  0  0  0  0  0  0
  194.5650  174.6200  138.1030 C   0  0  0  0  0  2  0  0  0  0  0  0
  195.7170  175.2500  138.5840 O   0  0  0  0  0  0  0  0  0  0  0  0
  195.9610  174.6380  139.8130 C   0  0  0  0  0  2  0  0  0  0  0  0
  197.3330  175.0470  140.3140 C   0  0  0  0  0  1  0  0  0  0  0  0
  194.3880  176.4110  136.3990 O   0  0  0  0  0  0  0  0  0  0  0  0
  195.0490  176.6420  135.1820 C   0  0  0  0  0  2  0  0  0  0  0  0
  195.7620  177.9810  135.2340 C   0  0  0  0  0  2  0  0  0  0  0  0
  197.1260  177.7850  135.4470 O   0  0  0  0  0  1  0  0  0  0  0  0
  1  3  1  1  0  0  0
  3  4  1  0  0  0  0
  3  2  2  0  0  0  0
  5  6  1  6  0  0  0
  5  1  1  0  0  0  0
  8 10  1  0  0  0  0
  8  5  1  0  0  0  0
  8  7  1  1  0  0  0
 10  9  1  6  0  0  0
 10 11  1  0  0  0  0
 12 11  1  6  0  0  0
 12 14  1  0  0  0  0
 12 22  1  0  0  0  0
 14 13  1  1  0  0  0
 15 14  1  0  0  0  0
 16 15  1  0  0  0  0
 17 16  1  0  0  0  0
 17 19  1  0  0  0  0
 18 17  2  0  0  0  0
 19 21  1  0  0  0  0
 20 19  2  0  0  0  0
 22 23  1  0  0  0  0
 23 28  1  0  0  0  0
 24 27  1  0  0  0  0
 25 30  1  0  0  0  0
 25 29  1  0  0  0  0
 26 25  2  0  0  0  0
 27 30  2  0  0  0  0
 28 24  2  0  0  0  0
 28 26  1  0  0  0  0
 32  1  1  0  0  0  0
 32 31  1  1  0  0  0
 33 39  1  6  0  0  0
 33 32  1  0  0  0  0
 35 34  1  6  0  0  0
 35 33  1  0  0  0  0
 36 37  1  0  0  0  0
 37 35  1  0  0  0  0
 38 37  2  0  0  0  0
 40 39  1  6  0  0  0
 40 48  1  0  0  0  0
 42 41  1  6  0  0  0
 42 43  1  0  0  0  0
 42 40  1  0  0  0  0
 43 44  1  6  0  0  0
 45 46  1  0  0  0  0
 46 47  2  0  0  0  0
 46 43  1  0  0  0  0
 48 49  1  0  0  0  0
 49 50  1  0  0  0  0
 50 51  1  0  0  0  0
 52 40  1  0  0  0  0
 53 54  1  0  0  0  0
 53 52  1  0  0  0  0
 54 55  1  0  0  0  0
M  END
>  <MODEL>
5

>  <REMARK>
 VINA RESULT:      -4.3      3.082      6.236
  Name = 
  29 active torsions:
  status: ('A' for Active; 'I' for Inactive)
    1  A    between atoms: C_1  and  C_30
    2  A    between atoms: O_2  and  C_28
    3  A    between atoms: O_2  and  C_44
    4  A    between atoms: C_6  and  C_8
    5  A    between atoms: C_6  and  O_20
    6  A    between atoms: C_6  and  C_38
    7  A    between atoms: C_6  and  C_46
    8  A    between atoms: C_7  and  C_8
    9  A    between atoms: C_7  and  C_23
   10  A    between atoms: C_7  and  C_43
   11  A    between atoms: C_10  and  C_32
   12  A    between atoms: C_11  and  C_29
   13  A    between atoms: C_11  and  C_38
   14  A    between atoms: C_12  and  O_14
   15  A    between atoms: O_14  and  C_46
   16  A    between atoms: C_16  and  C_17
   17  A    between atoms: C_16  and  C_26
   18  A    between atoms: C_17  and  C_23
   19  A    between atoms: C_17  and  C_37
   20  A    between atoms: O_20  and  C_30
   21  A    between atoms: C_26  and  C_45
   22  A    between atoms: C_28  and  C_33
   23  A    between atoms: C_32  and  O_39
   24  A    between atoms: C_33  and  C_49
   25  A    between atoms: C_33  and  C_52
   26  A    between atoms: C_34  and  O_39
   27  A    between atoms: C_34  and  C_52
   28  A    between atoms: C_35  and  C_43
   29  A    between atoms: C_45  and  C_49
                            x       y       z     vdW  Elec       q    Type
                         _______ _______ _______ _____ _____    ______ ____

>  <TORSDO>
F 29

$$$$
=
 OpenBabel10262420423D

 55 55  0  0  1  0  0  0  0  0999 V2000
  190.4590  177.3740  139.6670 C   0  0  2  0  0  3  0  0  0  0  0  0
  192.2630  177.2680  138.0820 O   0  0  0  0  0  0  0  0  0  0  0  0
  191.9140  177.3640  139.2890 C   0  0  0  0  0  0  0  0  0  0  0  0
  192.9060  177.4740  140.3020 N   0  0  0  0  0  1  0  0  0  0  0  0
  190.2650  177.3600  141.1950 C   0  0  2  0  0  3  0  0  0  0  0  0
  189.7740  176.0030  141.6950 C   0  0  0  0  0  1  0  0  0  0  0  0
  189.7280  178.7720  143.0480 O   0  0  0  0  0  1  0  0  0  0  0  0
  189.3820  178.5030  141.7210 C   0  0  2  0  0  3  0  0  0  0  0  0
  187.5580  177.0280  142.2840 O   0  0  0  0  0  1  0  0  0  0  0  0
  187.8830  178.2000  141.5980 C   0  0  1  0  0  3  0  0  0  0  0  0
  187.0700  179.3500  142.1680 C   0  0  0  0  0  2  0  0  0  0  0  0
  185.5970  178.9750  142.3220 C   0  0  1  0  0  3  0  0  0  0  0  0
  185.5400  179.3640  139.9530 O   0  0  0  0  0  1  0  0  0  0  0  0
  184.9470  178.6220  140.9770 C   0  0  2  0  0  3  0  0  0  0  0  0
  183.4340  178.8480  140.9820 C   0  0  0  0  0  2  0  0  0  0  0  0
  182.7340  177.6090  140.9480 O   0  0  0  0  0  0  0  0  0  0  0  0
  182.3860  176.9740  139.7520 C   0  0  0  0  0  0  0  0  0  0  0  0
  183.0250  175.9630  139.3490 O   0  0  0  0  0  0  0  0  0  0  0  0
  181.2570  177.4820  138.9650 C   0  0  0  0  0  0  0  0  0  0  0  0
  180.3650  178.1790  139.5190 O   0  0  0  0  0  0  0  0  0  0  0  0
  181.1550  177.1760  137.5790 N   0  0  0  0  0  1  0  0  0  0  0  0
  185.4470  177.8380  143.3250 C   0  0  0  0  0  2  0  0  0  0  0  0
  185.2250  178.3510  144.6300 O   0  0  0  0  0  0  0  0  0  0  0  0
  185.9810  178.9430  146.8400 C   0  0  0  0  0  3  0  0  0  0  0  0
  188.2660  177.3600  146.5260 C   0  0  0  0  0  0  0  0  0  0  0  0
  187.3300  177.4520  145.4920 C   0  0  0  0  0  3  0  0  0  0  0  0
  186.9170  178.8510  147.8750 C   0  0  0  0  0  3  0  0  0  0  0  0
  186.1790  178.2450  145.6450 C   0  0  0  0  0  0  0  0  0  0  0  0
  189.3720  176.5940  146.3730 F   0  0  0  0  0  0  0  0  0  0  0  0
  188.0580  178.0590  147.7180 C   0  0  0  0  0  3  0  0  0  0  0  0
  190.4970  175.1060  138.7530 O   0  0  0  0  0  1  0  0  0  0  0  0
  189.6860  176.2130  139.0130 C   0  0  2  0  0  3  0  0  0  0  0  0
  188.7920  176.5740  137.8150 C   0  0  2  0  0  3  0  0  0  0  0  0
  188.9630  178.8890  138.5300 O   0  0  0  0  0  1  0  0  0  0  0  0
  188.1660  177.9770  137.8300 C   0  0  1  0  0  3  0  0  0  0  0  0
  186.7680  178.9980  136.0300 O   0  0  0  0  0  1  0  0  0  0  0  0
  187.9850  178.4680  136.4280 C   0  0  0  0  0  0  0  0  0  0  0  0
  188.9260  178.3730  135.5940 O   0  0  0  0  0  0  0  0  0  0  0  0
  187.7100  175.5070  137.6060 C   0  0  0  0  0  2  0  0  0  0  0  0
  187.8260  174.7830  136.2590 C   0  0  2  0  0  0  0  0  0  0  0  0
  186.4630  176.0020  134.6110 O   0  0  0  0  0  1  0  0  0  0  0  0
  186.4510  174.9660  135.5510 C   0  0  2  0  0  3  0  0  0  0  0  0
  185.2720  175.1290  136.5240 C   0  0  1  0  0  3  0  0  0  0  0  0
  184.7240  176.4110  136.4390 O   0  0  0  0  0  1  0  0  0  0  0  0
  184.1460  173.4080  134.9600 C   0  0  0  0  0  1  0  0  0  0  0  0
  184.2100  174.1000  136.2760 C   0  0  0  0  0  0  0  0  0  0  0  0
  183.4060  173.8120  137.1500 O   0  0  0  0  0  0  0  0  0  0  0  0
  188.0980  173.2980  136.6050 C   0  0  0  0  0  2  0  0  0  0  0  0
  187.1740  172.4230  136.0280 O   0  0  0  0  0  0  0  0  0  0  0  0
  187.9240  171.2980  135.6890 C   0  0  0  0  0  2  0  0  0  0  0  0
  187.0000  170.2240  135.1460 C   0  0  0  0  0  1  0  0  0  0  0  0
  188.9030  175.3910  135.5520 O   0  0  0  0  0  0  0  0  0  0  0  0
  189.7480  174.4300  134.9730 C   0  0  0  0  0  2  0  0  0  0  0  0
  191.1070  174.4740  135.6470 C   0  0  0  0  0  2  0  0  0  0  0  0
  191.8080  175.6050  135.2300 O   0  0  0  0  0  1  0  0  0  0  0  0
  1  3  1  1  0  0  0
  1  5  1  0  0  0  0
  2  3  2  0  0  0  0
  3  4  1  0  0  0  0
  5  6  1  6  0  0  0
  5  8  1  0  0  0  0
  8  7  1  1  0  0  0
 10  8  1  0  0  0  0
 10 11  1  0  0  0  0
 10  9  1  1  0  0  0
 12 11  1  6  0  0  0
 12 22  1  0  0  0  0
 14 13  1  6  0  0  0
 14 15  1  0  0  0  0
 14 12  1  0  0  0  0
 16 15  1  0  0  0  0
 17 16  1  0  0  0  0
 18 17  2  0  0  0  0
 19 20  2  0  0  0  0
 19 17  1  0  0  0  0
 21 19  1  0  0  0  0
 22 23  1  0  0  0  0
 23 28  1  0  0  0  0
 24 27  1  0  0  0  0
 25 30  1  0  0  0  0
 26 28  1  0  0  0  0
 26 25  2  0  0  0  0
 28 24  2  0  0  0  0
 29 25  1  0  0  0  0
 30 27  2  0  0  0  0
 32 31  1  6  0  0  0
 32  1  1  0  0  0  0
 33 39  1  1  0  0  0
 33 35  1  0  0  0  0
 33 32  1  0  0  0  0
 35 34  1  1  0  0  0
 36 37  1  0  0  0  0
 37 35  1  0  0  0  0
 38 37  2  0  0  0  0
 40 48  1  1  0  0  0
 40 39  1  0  0  0  0
 42 41  1  6  0  0  0
 42 40  1  0  0  0  0
 42 43  1  0  0  0  0
 43 44  1  6  0  0  0
 45 46  1  0  0  0  0
 46 43  1  0  0  0  0
 46 47  2  0  0  0  0
 49 48  1  0  0  0  0
 50 49  1  0  0  0  0
 51 50  1  0  0  0  0
 52 40  1  0  0  0  0
 53 52  1  0  0  0  0
 53 54  1  0  0  0  0
 55 54  1  0  0  0  0
M  END
>  <MODEL>
6

>  <REMARK>
 VINA RESULT:      -4.0      2.597      5.996
  Name = 
  29 active torsions:
  status: ('A' for Active; 'I' for Inactive)
    1  A    between atoms: C_1  and  C_30
    2  A    between atoms: O_2  and  C_28
    3  A    between atoms: O_2  and  C_44
    4  A    between atoms: C_6  and  C_8
    5  A    between atoms: C_6  and  O_20
    6  A    between atoms: C_6  and  C_38
    7  A    between atoms: C_6  and  C_46
    8  A    between atoms: C_7  and  C_8
    9  A    between atoms: C_7  and  C_23
   10  A    between atoms: C_7  and  C_43
   11  A    between atoms: C_10  and  C_32
   12  A    between atoms: C_11  and  C_29
   13  A    between atoms: C_11  and  C_38
   14  A    between atoms: C_12  and  O_14
   15  A    between atoms: O_14  and  C_46
   16  A    between atoms: C_16  and  C_17
   17  A    between atoms: C_16  and  C_26
   18  A    between atoms: C_17  and  C_23
   19  A    between atoms: C_17  and  C_37
   20  A    between atoms: O_20  and  C_30
   21  A    between atoms: C_26  and  C_45
   22  A    between atoms: C_28  and  C_33
   23  A    between atoms: C_32  and  O_39
   24  A    between atoms: C_33  and  C_49
   25  A    between atoms: C_33  and  C_52
   26  A    between atoms: C_34  and  O_39
   27  A    between atoms: C_34  and  C_52
   28  A    between atoms: C_35  and  C_43
   29  A    between atoms: C_45  and  C_49
                            x       y       z     vdW  Elec       q    Type
                         _______ _______ _______ _____ _____    ______ ____

>  <TORSDO>
F 29

$$$$
=
 OpenBabel10262420423D

 55 55  0  0  1  0  0  0  0  0999 V2000
  184.9530  178.1070  141.2410 C   0  0  2  0  0  3  0  0  0  0  0  0
  184.8500  179.3870  139.2090 O   0  0  0  0  0  0  0  0  0  0  0  0
  185.5630  178.7400  140.0220 C   0  0  0  0  0  0  0  0  0  0  0  0
  186.9600  178.6170  139.7890 N   0  0  0  0  0  1  0  0  0  0  0  0
  183.4480  177.8390  141.0540 C   0  0  2  0  0  3  0  0  0  0  0  0
  183.1840  176.7790  139.9880 C   0  0  0  0  0  1  0  0  0  0  0  0
  181.9770  179.4790  141.9830 O   0  0  0  0  0  1  0  0  0  0  0  0
  182.6180  179.1080  140.7980 C   0  0  2  0  0  3  0  0  0  0  0  0
  180.3110  178.7960  140.1660 O   0  0  0  0  0  1  0  0  0  0  0  0
  181.6040  178.9340  139.6600 C   0  0  1  0  0  3  0  0  0  0  0  0
  181.6480  180.1400  138.7350 C   0  0  0  0  0  2  0  0  0  0  0  0
  181.1310  179.7960  137.3390 C   0  0  1  0  0  3  0  0  0  0  0  0
  181.9990  178.1110  135.8640 O   0  0  0  0  0  1  0  0  0  0  0  0
  181.2520  178.2970  137.0300 C   0  0  2  0  0  3  0  0  0  0  0  0
  179.8890  177.6170  136.8950 C   0  0  0  0  0  2  0  0  0  0  0  0
  179.9750  176.2350  137.2270 O   0  0  0  0  0  0  0  0  0  0  0  0
  180.3530  175.2610  136.2970 C   0  0  0  0  0  0  0  0  0  0  0  0
  180.0930  175.4040  135.0710 O   0  0  0  0  0  0  0  0  0  0  0  0
  181.0740  174.0680  136.7530 C   0  0  0  0  0  0  0  0  0  0  0  0
  180.9610  173.6790  137.9470 O   0  0  0  0  0  0  0  0  0  0  0  0
  181.9180  173.3530  135.8560 N   0  0  0  0  0  1  0  0  0  0  0  0
  179.6950  180.2800  137.1770 C   0  0  0  0  0  2  0  0  0  0  0  0
  179.5520  181.0180  135.9720 O   0  0  0  0  0  0  0  0  0  0  0  0
  179.5540  183.0950  134.7510 C   0  0  0  0  0  3  0  0  0  0  0  0
  181.1900  184.2770  136.6870 C   0  0  0  0  0  0  0  0  0  0  0  0
  180.7920  182.9450  136.8260 C   0  0  0  0  0  3  0  0  0  0  0  0
  179.9520  184.4280  134.6130 C   0  0  0  0  0  3  0  0  0  0  0  0
  179.9680  182.3460  135.8570 C   0  0  0  0  0  0  0  0  0  0  0  0
  181.9820  184.8490  137.6250 F   0  0  0  0  0  0  0  0  0  0  0  0
  180.7680  185.0190  135.5810 C   0  0  0  0  0  3  0  0  0  0  0  0
  185.9410  180.1020  142.2550 O   0  0  0  0  0  1  0  0  0  0  0  0
  185.1990  178.9460  142.5100 C   0  0  2  0  0  3  0  0  0  0  0  0
  185.7130  178.1860  143.7450 C   0  0  2  0  0  3  0  0  0  0  0  0
  185.2870  178.4440  146.1220 O   0  0  0  0  0  1  0  0  0  0  0  0
  184.7230  178.0330  144.9110 C   0  0  1  0  0  3  0  0  0  0  0  0
  182.2850  178.2200  144.4030 O   0  0  0  0  0  0  0  0  0  0  0  0
  183.4960  178.8480  144.6460 C   0  0  0  0  0  0  0  0  0  0  0  0
  183.5630  180.1070  144.6090 O   0  0  0  0  0  1  0  0  0  0  0  0
  187.0330  178.7880  144.2400 C   0  0  0  0  0  2  0  0  0  0  0  0
  188.2500  177.8990  143.9510 C   0  0  2  0  0  0  0  0  0  0  0  0
  187.3350  176.8120  145.9620 O   0  0  0  0  0  1  0  0  0  0  0  0
  188.5110  177.0890  145.2550 C   0  0  2  0  0  3  0  0  0  0  0  0
  189.5620  177.7260  146.1790 C   0  0  1  0  0  3  0  0  0  0  0  0
  189.0180  178.0210  147.4310 O   0  0  0  0  0  1  0  0  0  0  0  0
  191.2760  176.5330  147.7000 C   0  0  0  0  0  1  0  0  0  0  0  0
  190.7620  176.8410  146.3370 C   0  0  0  0  0  0  0  0  0  0  0  0
  191.3120  176.3560  145.3600 O   0  0  0  0  0  0  0  0  0  0  0  0
  189.4130  178.8720  143.6400 C   0  0  0  0  0  2  0  0  0  0  0  0
  190.4150  178.2950  142.8550 O   0  0  0  0  0  0  0  0  0  0  0  0
  191.5870  178.9320  143.2600 C   0  0  0  0  0  2  0  0  0  0  0  0
  191.2530  179.9770  144.3090 C   0  0  0  0  0  1  0  0  0  0  0  0
  187.9070  177.0740  142.8410 O   0  0  0  0  0  0  0  0  0  0  0  0
  188.7450  175.9510  142.7560 C   0  0  0  0  0  2  0  0  0  0  0  0
  189.5970  176.0440  141.5030 C   0  0  0  0  0  2  0  0  0  0  0  0
  189.0250  176.9440  140.6050 O   0  0  0  0  0  1  0  0  0  0  0  0
  1  3  1  6  0  0  0
  1 32  1  0  0  0  0
  2  3  2  0  0  0  0
  4  3  1  0  0  0  0
  5  6  1  6  0  0  0
  5  1  1  0  0  0  0
  8  5  1  0  0  0  0
  8  7  1  1  0  0  0
 10  9  1  1  0  0  0
 10  8  1  0  0  0  0
 11 10  1  0  0  0  0
 12 22  1  1  0  0  0
 12 11  1  0  0  0  0
 14 13  1  6  0  0  0
 14 12  1  0  0  0  0
 15 14  1  0  0  0  0
 15 16  1  0  0  0  0
 17 19  1  0  0  0  0
 17 16  1  0  0  0  0
 18 17  2  0  0  0  0
 19 20  2  0  0  0  0
 21 19  1  0  0  0  0
 23 22  1  0  0  0  0
 24 28  1  0  0  0  0
 25 26  1  0  0  0  0
 25 29  1  0  0  0  0
 27 24  2  0  0  0  0
 27 30  1  0  0  0  0
 28 23  1  0  0  0  0
 28 26  2  0  0  0  0
 30 25  2  0  0  0  0
 32 31  1  6  0  0  0
 32 33  1  0  0  0  0
 33 39  1  1  0  0  0
 33 35  1  0  0  0  0
 35 34  1  1  0  0  0
 36 37  2  0  0  0  0
 37 35  1  0  0  0  0
 38 37  1  0  0  0  0
 40 48  1  6  0  0  0
 40 39  1  0  0  0  0
 40 42  1  0  0  0  0
 42 41  1  1  0  0  0
 42 43  1  0  0  0  0
 43 46  1  0  0  0  0
 43 44  1  1  0  0  0
 46 45  1  0  0  0  0
 47 46  2  0  0  0  0
 49 50  1  0  0  0  0
 49 48  1  0  0  0  0
 50 51  1  0  0  0  0
 52 40  1  0  0  0  0
 53 52  1  0  0  0  0
 54 53  1  0  0  0  0
 55 54  1  0  0  0  0
M  END
>  <MODEL>
7

>  <REMARK>
 VINA RESULT:      -3.4      3.827      7.045
  Name = 
  29 active torsions:
  status: ('A' for Active; 'I' for Inactive)
    1  A    between atoms: C_1  and  C_30
    2  A    between atoms: O_2  and  C_28
    3  A    between atoms: O_2  and  C_44
    4  A    between atoms: C_6  and  C_8
    5  A    between atoms: C_6  and  O_20
    6  A    between atoms: C_6  and  C_38
    7  A    between atoms: C_6  and  C_46
    8  A    between atoms: C_7  and  C_8
    9  A    between atoms: C_7  and  C_23
   10  A    between atoms: C_7  and  C_43
   11  A    between atoms: C_10  and  C_32
   12  A    between atoms: C_11  and  C_29
   13  A    between atoms: C_11  and  C_38
   14  A    between atoms: C_12  and  O_14
   15  A    between atoms: O_14  and  C_46
   16  A    between atoms: C_16  and  C_17
   17  A    between atoms: C_16  and  C_26
   18  A    between atoms: C_17  and  C_23
   19  A    between atoms: C_17  and  C_37
   20  A    between atoms: O_20  and  C_30
   21  A    between atoms: C_26  and  C_45
   22  A    between atoms: C_28  and  C_33
   23  A    between atoms: C_32  and  O_39
   24  A    between atoms: C_33  and  C_49
   25  A    between atoms: C_33  and  C_52
   26  A    between atoms: C_34  and  O_39
   27  A    between atoms: C_34  and  C_52
   28  A    between atoms: C_35  and  C_43
   29  A    between atoms: C_45  and  C_49
                            x       y       z     vdW  Elec       q    Type
                         _______ _______ _______ _____ _____    ______ ____

>  <TORSDO>
F 29

$$$$
=
 OpenBabel10262420423D

 55 55  0  0  1  0  0  0  0  0999 V2000
  188.4800  177.8160  138.9590 C   0  0  2  0  0  3  0  0  0  0  0  0
  189.6400  176.4480  137.3580 O   0  0  0  0  0  0  0  0  0  0  0  0
  188.6650  176.5640  138.1480 C   0  0  0  0  0  0  0  0  0  0  0  0
  187.7370  175.4950  138.2800 N   0  0  0  0  0  1  0  0  0  0  0  0
  189.0450  177.6640  140.3830 C   0  0  2  0  0  3  0  0  0  0  0  0
  189.0600  178.9910  141.1370 C   0  0  0  0  0  1  0  0  0  0  0  0
  190.2310  175.5910  140.4970 O   0  0  0  0  0  1  0  0  0  0  0  0
  190.4180  176.9750  140.4380 C   0  0  2  0  0  3  0  0  0  0  0  0
  192.1620  178.4610  141.1920 O   0  0  0  0  0  1  0  0  0  0  0  0
  191.2810  177.4610  141.6090 C   0  0  1  0  0  3  0  0  0  0  0  0
  190.3960  178.0100  142.7150 C   0  0  0  0  0  2  0  0  0  0  0  0
  190.2910  177.0350  143.8870 C   0  0  1  0  0  3  0  0  0  0  0  0
  191.9240  178.2420  145.1690 O   0  0  0  0  0  1  0  0  0  0  0  0
  190.6370  177.7000  145.2260 C   0  0  2  0  0  3  0  0  0  0  0  0
  190.5260  176.7330  146.4050 C   0  0  0  0  0  2  0  0  0  0  0  0
  191.5150  177.0140  147.3890 O   0  0  0  0  0  0  0  0  0  0  0  0
  192.3050  176.0150  147.9690 C   0  0  0  0  0  0  0  0  0  0  0  0
  192.3640  174.8630  147.4580 O   0  0  0  0  0  0  0  0  0  0  0  0
  193.0830  176.3170  149.1740 C   0  0  0  0  0  0  0  0  0  0  0  0
  193.6060  175.3830  149.8390 O   0  0  0  0  0  0  0  0  0  0  0  0
  193.2360  177.6640  149.6090 N   0  0  0  0  0  1  0  0  0  0  0  0
  188.9030  176.4060  143.9240 C   0  0  0  0  0  2  0  0  0  0  0  0
  187.9100  177.3720  143.6120 O   0  0  0  0  0  0  0  0  0  0  0  0
  187.3200  177.7300  145.9210 C   0  0  0  0  0  3  0  0  0  0  0  0
  184.8890  178.8870  145.1610 C   0  0  0  0  0  0  0  0  0  0  0  0
  185.7770  178.4220  144.1880 C   0  0  0  0  0  3  0  0  0  0  0  0
  186.4310  178.1960  146.8940 C   0  0  0  0  0  3  0  0  0  0  0  0
  187.0020  177.8410  144.5630 C   0  0  0  0  0  0  0  0  0  0  0  0
  183.7120  179.4460  144.7920 F   0  0  0  0  0  0  0  0  0  0  0  0
  185.2170  178.7760  146.5140 C   0  0  0  0  0  3  0  0  0  0  0  0
  186.3720  177.8910  140.1980 O   0  0  0  0  0  1  0  0  0  0  0  0
  187.0040  178.2570  139.0070 C   0  0  2  0  0  3  0  0  0  0  0  0
  186.1500  177.9310  137.7710 C   0  0  2  0  0  3  0  0  0  0  0  0
  187.8000  179.2540  136.5770 O   0  0  0  0  0  1  0  0  0  0  0  0
  186.5590  178.6200  136.4590 C   0  0  1  0  0  3  0  0  0  0  0  0
  187.8460  177.0180  135.0400 O   0  0  0  0  0  1  0  0  0  0  0  0
  186.6340  177.6100  135.3580 C   0  0  0  0  0  0  0  0  0  0  0  0
  185.6040  177.3170  134.6910 O   0  0  0  0  0  0  0  0  0  0  0  0
  184.6640  178.1710  138.0610 C   0  0  0  0  0  2  0  0  0  0  0  0
  183.8350  176.8810  138.0810 C   0  0  2  0  0  0  0  0  0  0  0  0
  183.0810  177.4090  135.7980 O   0  0  0  0  0  1  0  0  0  0  0  0
  182.6500  177.1140  137.0970 C   0  0  2  0  0  3  0  0  0  0  0  0
  181.6380  178.1630  137.5850 C   0  0  1  0  0  3  0  0  0  0  0  0
  181.4680  179.1750  136.6370 O   0  0  0  0  0  1  0  0  0  0  0  0
  179.0570  178.2810  137.6210 C   0  0  0  0  0  1  0  0  0  0  0  0
  180.3150  177.5380  137.9100 C   0  0  0  0  0  0  0  0  0  0  0  0
  180.2570  176.4180  138.3950 O   0  0  0  0  0  0  0  0  0  0  0  0
  183.3420  176.7250  139.5410 C   0  0  0  0  0  2  0  0  0  0  0  0
  183.3470  177.9280  140.2530 O   0  0  0  0  0  0  0  0  0  0  0  0
  182.5530  177.6740  141.3710 C   0  0  0  0  0  2  0  0  0  0  0  0
  181.6990  178.8920  141.6660 C   0  0  0  0  0  1  0  0  0  0  0  0
  184.7000  175.8250  137.6740 O   0  0  0  0  0  0  0  0  0  0  0  0
  183.9760  174.7310  137.1730 C   0  0  0  0  0  2  0  0  0  0  0  0
  184.9340  173.6160  136.7940 C   0  0  0  0  0  2  0  0  0  0  0  0
  185.3740  172.9570  137.9420 O   0  0  0  0  0  1  0  0  0  0  0  0
  1  3  1  1  0  0  0
  1 32  1  0  0  0  0
  1  5  1  0  0  0  0
  2  3  2  0  0  0  0
  3  4  1  0  0  0  0
  5  8  1  0  0  0  0
  5  6  1  6  0  0  0
  8  7  1  1  0  0  0
  8 10  1  0  0  0  0
 10  9  1  6  0  0  0
 10 11  1  0  0  0  0
 12 11  1  6  0  0  0
 12 22  1  0  0  0  0
 12 14  1  0  0  0  0
 14 13  1  6  0  0  0
 14 15  1  0  0  0  0
 15 16  1  0  0  0  0
 16 17  1  0  0  0  0
 17 19  1  0  0  0  0
 18 17  2  0  0  0  0
 19 21  1  0  0  0  0
 19 20  2  0  0  0  0
 23 22  1  0  0  0  0
 23 28  1  0  0  0  0
 24 27  1  0  0  0  0
 25 30  1  0  0  0  0
 26 28  1  0  0  0  0
 26 25  2  0  0  0  0
 28 24  2  0  0  0  0
 29 25  1  0  0  0  0
 30 27  2  0  0  0  0
 32 31  1  1  0  0  0
 33 39  1  1  0  0  0
 33 32  1  0  0  0  0
 35 34  1  1  0  0  0
 35 33  1  0  0  0  0
 36 37  1  0  0  0  0
 37 35  1  0  0  0  0
 38 37  2  0  0  0  0
 40 39  1  6  0  0  0
 40 48  1  0  0  0  0
 42 41  1  6  0  0  0
 42 43  1  0  0  0  0
 42 40  1  0  0  0  0
 43 44  1  6  0  0  0
 43 46  1  0  0  0  0
 45 46  1  0  0  0  0
 46 47  2  0  0  0  0
 48 49  1  0  0  0  0
 49 50  1  0  0  0  0
 50 51  1  0  0  0  0
 52 40  1  0  0  0  0
 53 52  1  0  0  0  0
 54 53  1  0  0  0  0
 54 55  1  0  0  0  0
M  END
>  <MODEL>
8

>  <REMARK>
 VINA RESULT:      -2.9      3.253      9.263
  Name = 
  29 active torsions:
  status: ('A' for Active; 'I' for Inactive)
    1  A    between atoms: C_1  and  C_30
    2  A    between atoms: O_2  and  C_28
    3  A    between atoms: O_2  and  C_44
    4  A    between atoms: C_6  and  C_8
    5  A    between atoms: C_6  and  O_20
    6  A    between atoms: C_6  and  C_38
    7  A    between atoms: C_6  and  C_46
    8  A    between atoms: C_7  and  C_8
    9  A    between atoms: C_7  and  C_23
   10  A    between atoms: C_7  and  C_43
   11  A    between atoms: C_10  and  C_32
   12  A    between atoms: C_11  and  C_29
   13  A    between atoms: C_11  and  C_38
   14  A    between atoms: C_12  and  O_14
   15  A    between atoms: O_14  and  C_46
   16  A    between atoms: C_16  and  C_17
   17  A    between atoms: C_16  and  C_26
   18  A    between atoms: C_17  and  C_23
   19  A    between atoms: C_17  and  C_37
   20  A    between atoms: O_20  and  C_30
   21  A    between atoms: C_26  and  C_45
   22  A    between atoms: C_28  and  C_33
   23  A    between atoms: C_32  and  O_39
   24  A    between atoms: C_33  and  C_49
   25  A    between atoms: C_33  and  C_52
   26  A    between atoms: C_34  and  O_39
   27  A    between atoms: C_34  and  C_52
   28  A    between atoms: C_35  and  C_43
   29  A    between atoms: C_45  and  C_49
                            x       y       z     vdW  Elec       q    Type
                         _______ _______ _______ _____ _____    ______ ____

>  <TORSDO>
F 29

$$$$
=
 OpenBabel10262420423D

 55 55  0  0  1  0  0  0  0  0999 V2000
  185.8550  179.0110  143.7740 C   0  0  2  0  0  3  0  0  0  0  0  0
  185.5260  180.0960  145.8940 O   0  0  0  0  0  0  0  0  0  0  0  0
  185.4250  179.0400  145.2140 C   0  0  0  0  0  0  0  0  0  0  0  0
  184.8910  177.8660  145.8130 N   0  0  0  0  0  1  0  0  0  0  0  0
  184.6730  179.2610  142.8190 C   0  0  2  0  0  3  0  0  0  0  0  0
  183.3630  178.7100  143.3760 C   0  0  0  0  0  1  0  0  0  0  0  0
  186.0530  179.4120  140.8730 O   0  0  0  0  0  1  0  0  0  0  0  0
  184.9200  178.7730  141.3820 C   0  0  2  0  0  3  0  0  0  0  0  0
  184.1050  179.5550  139.2510 O   0  0  0  0  0  1  0  0  0  0  0  0
  183.7090  178.9910  140.4650 C   0  0  1  0  0  3  0  0  0  0  0  0
  183.0150  177.6670  140.1940 C   0  0  0  0  0  2  0  0  0  0  0  0
  182.2760  177.6840  138.8570 C   0  0  1  0  0  3  0  0  0  0  0  0
  180.9060  175.7130  138.9080 O   0  0  0  0  0  1  0  0  0  0  0  0
  182.0390  176.2700  138.3090 C   0  0  2  0  0  3  0  0  0  0  0  0
  183.2460  175.3530  138.5140 C   0  0  0  0  0  2  0  0  0  0  0  0
  183.7570  174.8990  137.2660 O   0  0  0  0  0  0  0  0  0  0  0  0
  185.0940  175.0730  136.8910 C   0  0  0  0  0  0  0  0  0  0  0  0
  185.4720  176.1390  136.3320 O   0  0  0  0  0  0  0  0  0  0  0  0
  186.0660  174.0110  137.1670 C   0  0  0  0  0  0  0  0  0  0  0  0
  185.7060  172.9670  137.7740 O   0  0  0  0  0  0  0  0  0  0  0  0
  187.4240  174.1610  136.7650 N   0  0  0  0  0  1  0  0  0  0  0  0
  180.9660  178.4520  138.9910 C   0  0  0  0  0  2  0  0  0  0  0  0
  180.4250  178.7400  137.7100 O   0  0  0  0  0  0  0  0  0  0  0  0
  180.5720  180.0960  135.7240 C   0  0  0  0  0  3  0  0  0  0  0  0
  180.7230  182.4190  137.2740 C   0  0  0  0  0  0  0  0  0  0  0  0
  180.6160  181.1710  137.8930 C   0  0  0  0  0  3  0  0  0  0  0  0
  180.6790  181.3450  135.1050 C   0  0  0  0  0  3  0  0  0  0  0  0
  180.5380  180.0000  137.1190 C   0  0  0  0  0  0  0  0  0  0  0  0
  180.7970  183.5440  138.0250 F   0  0  0  0  0  0  0  0  0  0  0  0
  180.7530  182.5060  135.8800 C   0  0  0  0  0  3  0  0  0  0  0  0
  185.8730  176.5660  143.8490 O   0  0  0  0  0  1  0  0  0  0  0  0
  186.5720  177.6950  143.4130 C   0  0  2  0  0  3  0  0  0  0  0  0
  188.0710  177.6170  143.7470 C   0  0  2  0  0  3  0  0  0  0  0  0
  188.6660  175.6440  142.4620 O   0  0  0  0  0  1  0  0  0  0  0  0
  188.9760  176.9910  142.6740 C   0  0  1  0  0  3  0  0  0  0  0  0
  188.8690  179.1180  141.3700 O   0  0  0  0  0  1  0  0  0  0  0  0
  188.8220  177.7330  141.3840 C   0  0  0  0  0  0  0  0  0  0  0  0
  188.6150  177.1060  140.3090 O   0  0  0  0  0  0  0  0  0  0  0  0
  188.2880  176.9280  145.0990 C   0  0  0  0  0  2  0  0  0  0  0  0
  189.5790  177.3690  145.8020 C   0  0  2  0  0  0  0  0  0  0  0  0
  189.8990  175.8820  147.7380 O   0  0  0  0  0  1  0  0  0  0  0  0
  190.2150  176.0740  146.3880 C   0  0  2  0  0  3  0  0  0  0  0  0
  191.7330  175.9760  146.1670 C   0  0  1  0  0  3  0  0  0  0  0  0
  192.3710  175.4390  147.2890 O   0  0  0  0  0  1  0  0  0  0  0  0
  192.4220  173.7250  145.1040 C   0  0  0  0  0  1  0  0  0  0  0  0
  192.0600  175.1610  144.9530 C   0  0  0  0  0  0  0  0  0  0  0  0
  192.0150  175.6590  143.8380 O   0  0  0  0  0  0  0  0  0  0  0  0
  189.1330  178.3430  146.9210 C   0  0  0  0  0  2  0  0  0  0  0  0
  189.6560  178.0140  148.1750 O   0  0  0  0  0  0  0  0  0  0  0  0
  188.5370  177.8920  148.9980 C   0  0  0  0  0  2  0  0  0  0  0  0
  187.3680  178.6240  148.3680 C   0  0  0  0  0  1  0  0  0  0  0  0
  190.3950  177.9960  144.8170 O   0  0  0  0  0  0  0  0  0  0  0  0
  190.6960  179.3230  145.1650 C   0  0  0  0  0  2  0  0  0  0  0  0
  191.3080  180.0370  143.9740 C   0  0  0  0  0  2  0  0  0  0  0  0
  191.8430  179.1050  143.0850 O   0  0  0  0  0  1  0  0  0  0  0  0
  1  3  1  1  0  0  0
  3  4  1  0  0  0  0
  3  2  2  0  0  0  0
  5  6  1  1  0  0  0
  5  1  1  0  0  0  0
  8  7  1  6  0  0  0
  8  5  1  0  0  0  0
 10  9  1  6  0  0  0
 10  8  1  0  0  0  0
 11 10  1  0  0  0  0
 12 22  1  1  0  0  0
 12 11  1  0  0  0  0
 14 15  1  0  0  0  0
 14 12  1  0  0  0  0
 14 13  1  1  0  0  0
 16 15  1  0  0  0  0
 17 19  1  0  0  0  0
 17 16  1  0  0  0  0
 18 17  2  0  0  0  0
 19 20  2  0  0  0  0
 21 19  1  0  0  0  0
 23 22  1  0  0  0  0
 24 28  1  0  0  0  0
 25 26  1  0  0  0  0
 25 29  1  0  0  0  0
 27 24  2  0  0  0  0
 27 30  1  0  0  0  0
 28 23  1  0  0  0  0
 28 26  2  0  0  0  0
 30 25  2  0  0  0  0
 32 33  1  0  0  0  0
 32  1  1  0  0  0  0
 32 31  1  1  0  0  0
 33 39  1  1  0  0  0
 35 34  1  6  0  0  0
 35 33  1  0  0  0  0
 36 37  1  0  0  0  0
 37 35  1  0  0  0  0
 38 37  2  0  0  0  0
 40 39  1  6  0  0  0
 40 42  1  0  0  0  0
 40 48  1  0  0  0  0
 42 41  1  1  0  0  0
 43 42  1  0  0  0  0
 43 44  1  1  0  0  0
 46 45  1  0  0  0  0
 46 43  1  0  0  0  0
 47 46  2  0  0  0  0
 48 49  1  0  0  0  0
 49 50  1  0  0  0  0
 51 50  1  0  0  0  0
 52 53  1  0  0  0  0
 52 40  1  0  0  0  0
 54 53  1  0  0  0  0
 55 54  1  0  0  0  0
M  END
>  <MODEL>
9

>  <REMARK>
 VINA RESULT:      -2.9      3.552      7.293
  Name = 
  29 active torsions:
  status: ('A' for Active; 'I' for Inactive)
    1  A    between atoms: C_1  and  C_30
    2  A    between atoms: O_2  and  C_28
    3  A    between atoms: O_2  and  C_44
    4  A    between atoms: C_6  and  C_8
    5  A    between atoms: C_6  and  O_20
    6  A    between atoms: C_6  and  C_38
    7  A    between atoms: C_6  and  C_46
    8  A    between atoms: C_7  and  C_8
    9  A    between atoms: C_7  and  C_23
   10  A    between atoms: C_7  and  C_43
   11  A    between atoms: C_10  and  C_32
   12  A    between atoms: C_11  and  C_29
   13  A    between atoms: C_11  and  C_38
   14  A    between atoms: C_12  and  O_14
   15  A    between atoms: O_14  and  C_46
   16  A    between atoms: C_16  and  C_17
   17  A    between atoms: C_16  and  C_26
   18  A    between atoms: C_17  and  C_23
   19  A    between atoms: C_17  and  C_37
   20  A    between atoms: O_20  and  C_30
   21  A    between atoms: C_26  and  C_45
   22  A    between atoms: C_28  and  C_33
   23  A    between atoms: C_32  and  O_39
   24  A    between atoms: C_33  and  C_49
   25  A    between atoms: C_33  and  C_52
   26  A    between atoms: C_34  and  O_39
   27  A    between atoms: C_34  and  C_52
   28  A    between atoms: C_35  and  C_43
   29  A    between atoms: C_45  and  C_49
                            x       y       z     vdW  Elec       q    Type
                         _______ _______ _______ _____ _____    ______ ____

>  <TORSDO>
F 29

$$$$
