=
 OpenBabel10262419553D

 25 29  0  0  1  0  0  0  0  0999 V2000
  186.8840  177.9600  143.0780 N   0  0  0  0  0  0  0  0  0  0  0  0
  187.9460  176.9570  143.0350 C   0  0  2  0  0  3  0  0  0  0  0  0
  187.4680  178.9230  140.9760 C   0  0  0  0  0  3  0  0  0  0  0  0
  185.6130  177.8410  143.7740 C   0  0  2  0  0  3  0  0  0  0  0  0
  189.9070  177.2940  144.5380 N   0  0  2  0  0  0  0  0  0  0  0  0
  183.3040  178.8330  145.0900 C   0  0  0  0  0  2  0  0  0  0  0  0
  188.6910  178.1700  141.0150 N   0  0  0  0  0  0  0  0  0  0  0  0
  184.7510  178.8470  143.0520 C   0  0  0  0  0  0  0  0  0  0  0  0
  183.5000  179.3990  143.6700 C   0  0  0  0  0  2  0  0  0  0  0  0
  190.2240  176.5730  141.8690 N   0  0  0  0  0  0  0  0  0  0  0  0
  191.1420  176.7880  140.7600 C   0  0  0  0  0  1  0  0  0  0  0  0
  188.5390  176.7630  144.4400 C   0  0  0  0  0  2  0  0  0  0  0  0
  184.6160  178.7250  145.8390 C   0  0  0  0  0  3  0  0  0  0  0  0
  186.6110  178.8040  141.9780 C   0  0  0  0  0  0  0  0  0  0  0  0
  185.3240  179.3930  142.0270 N   0  0  0  0  0  0  0  0  0  0  0  0
  190.5940  175.5790  142.8680 C   0  0  0  0  0  2  0  0  0  0  0  0
  185.7110  178.2530  145.2170 C   0  0  0  0  0  3  0  0  0  0  0  0
  190.8690  176.2350  144.2260 C   0  0  0  0  0  2  0  0  0  0  0  0
  188.9700  177.2830  141.9370 C   0  0  0  0  0  0  0  0  0  0  0  0
  191.1180  176.8870  146.8890 S   0  0  0  0  0  0  0  0  0  0  0  0
  191.0860  175.3850  146.8170 O   0  0  0  0  0  0  0  0  0  0  0  0
  191.8840  177.4740  148.0400 O   0  0  0  0  0  0  0  0  0  0  0  0
  190.2870  177.8870  145.8400 C   0  0  2  0  0  3  0  0  0  0  0  0
  188.1680  177.6160  147.5280 C   0  0  0  0  0  2  0  0  0  0  0  0
  189.3560  177.5270  146.9380 C   0  0  0  0  0  0  0  0  0  0  0  0
  1  4  1  0  0  0  0
  2  1  1  0  0  0  0
  2 12  1  1  0  0  0
  3  7  1  0  0  0  0
  3 14  2  0  0  0  0
  4 17  1  1  0  0  0
  5 18  1  1  0  0  0
  5 23  1  0  0  0  0
  6 13  1  0  0  0  0
  7 19  2  0  0  0  0
  8  9  1  0  0  0  0
  8  4  1  0  0  0  0
  9  6  1  0  0  0  0
 10 19  1  0  0  0  0
 10 16  1  0  0  0  0
 11 10  1  0  0  0  0
 12  5  1  0  0  0  0
 14 15  1  0  0  0  0
 14  1  1  0  0  0  0
 15  8  2  0  0  0  0
 16 18  1  0  0  0  0
 17 13  2  0  0  0  0
 19  2  1  0  0  0  0
 20 25  1  0  0  0  0
 20 22  2  0  0  0  0
 21 20  2  0  0  0  0
 23 20  1  0  0  0  0
 23 25  1  1  0  0  0
 25 24  2  0  0  0  0
M  END
>  <MODEL>
1

>  <REMARK>
 VINA RESULT:      -9.2      0.000      0.000
  Name = 
  1 active torsions:
  status: ('A' for Active; 'I' for Inactive)
    1  A    between atoms: N_6  and  C_15
                            x       y       z     vdW  Elec       q    Type
                         _______ _______ _______ _____ _____    ______ ____

>  <TORSDO>
F 1

$$$$
=
 OpenBabel10262419553D

 25 29  0  0  1  0  0  0  0  0999 V2000
  187.4060  178.0790  145.2060 N   0  0  0  0  0  0  0  0  0  0  0  0
  188.8290  178.3010  144.9590 C   0  0  2  0  0  3  0  0  0  0  0  0
  187.7690  176.8030  147.1880 C   0  0  0  0  0  3  0  0  0  0  0  0
  186.3140  178.9460  144.7930 C   0  0  2  0  0  3  0  0  0  0  0  0
  189.8840  177.0260  143.0930 N   0  0  2  0  0  0  0  0  0  0  0  0
  183.6350  179.5320  144.0670 C   0  0  0  0  0  2  0  0  0  0  0  0
  189.1610  176.7340  146.8410 N   0  0  0  0  0  0  0  0  0  0  0  0
  185.2100  178.5530  145.7440 C   0  0  0  0  0  0  0  0  0  0  0  0
  183.7700  178.8510  145.4430 C   0  0  0  0  0  2  0  0  0  0  0  0
  191.1070  177.2430  145.5830 N   0  0  0  0  0  0  0  0  0  0  0  0
  191.9500  176.4660  146.4790 C   0  0  0  0  0  1  0  0  0  0  0  0
  189.1150  178.2280  143.4500 C   0  0  0  0  0  2  0  0  0  0  0  0
  184.5840  178.9350  143.0480 C   0  0  0  0  0  3  0  0  0  0  0  0
  186.9420  177.4590  146.3870 C   0  0  0  0  0  0  0  0  0  0  0  0
  185.5730  177.7040  146.6520 N   0  0  0  0  0  0  0  0  0  0  0  0
  191.7540  177.9250  144.4690 C   0  0  0  0  0  2  0  0  0  0  0  0
  185.8540  178.6580  143.3910 C   0  0  0  0  0  3  0  0  0  0  0  0
  191.3160  177.3300  143.1270 C   0  0  0  0  0  2  0  0  0  0  0  0
  189.6920  177.3730  145.8290 C   0  0  0  0  0  0  0  0  0  0  0  0
  190.7030  176.6720  140.5700 S   0  0  0  0  0  0  0  0  0  0  0  0
  191.7000  177.7970  140.5760 O   0  0  0  0  0  0  0  0  0  0  0  0
  190.7010  175.8010  139.3470 O   0  0  0  0  0  0  0  0  0  0  0  0
  189.5760  176.4200  141.7780 C   0  0  2  0  0  3  0  0  0  0  0  0
  187.9790  178.1540  140.4160 C   0  0  0  0  0  2  0  0  0  0  0  0
  188.9850  177.3840  140.8160 C   0  0  0  0  0  0  0  0  0  0  0  0
  1 14  1  0  0  0  0
  2 12  1  6  0  0  0
  2  1  1  0  0  0  0
  2 19  1  0  0  0  0
  4 17  1  6  0  0  0
  4  1  1  0  0  0  0
  4  8  1  0  0  0  0
  5 18  1  6  0  0  0
  5 12  1  0  0  0  0
  6  9  1  0  0  0  0
  7  3  1  0  0  0  0
  8 15  2  0  0  0  0
  9  8  1  0  0  0  0
 10 19  1  0  0  0  0
 10 11  1  0  0  0  0
 13 17  2  0  0  0  0
 13  6  1  0  0  0  0
 14 15  1  0  0  0  0
 14  3  2  0  0  0  0
 16 10  1  0  0  0  0
 18 16  1  0  0  0  0
 19  7  2  0  0  0  0
 20 21  2  0  0  0  0
 20 25  1  0  0  0  0
 20 23  1  0  0  0  0
 22 20  2  0  0  0  0
 23 25  1  6  0  0  0
 23  5  1  0  0  0  0
 24 25  2  0  0  0  0
M  END
>  <MODEL>
2

>  <REMARK>
 VINA RESULT:      -8.1      2.825      4.550
  Name = 
  1 active torsions:
  status: ('A' for Active; 'I' for Inactive)
    1  A    between atoms: N_6  and  C_15
                            x       y       z     vdW  Elec       q    Type
                         _______ _______ _______ _____ _____    ______ ____

>  <TORSDO>
F 1

$$$$
=
 OpenBabel10262419553D

 25 29  0  0  1  0  0  0  0  0999 V2000
  190.0380  177.1770  144.0310 N   0  0  0  0  0  0  0  0  0  0  0  0
  189.3820  178.0210  143.0340 C   0  0  2  0  0  3  0  0  0  0  0  0
  190.9780  175.6950  142.4150 C   0  0  0  0  0  3  0  0  0  0  0  0
  190.4900  177.5920  145.3490 C   0  0  2  0  0  3  0  0  0  0  0  0
  186.9060  177.8290  142.8160 N   0  0  2  0  0  0  0  0  0  0  0  0
  191.1750  177.1900  148.0720 C   0  0  0  0  0  2  0  0  0  0  0  0
  190.1280  176.2980  141.4260 N   0  0  0  0  0  0  0  0  0  0  0  0
  191.5260  176.5470  145.6820 C   0  0  0  0  0  0  0  0  0  0  0  0
  191.9610  176.2930  147.0960 C   0  0  0  0  0  2  0  0  0  0  0  0
  188.5660  177.8720  140.5820 N   0  0  0  0  0  0  0  0  0  0  0  0
  188.6450  177.3070  139.2440 C   0  0  0  0  0  1  0  0  0  0  0  0
  188.0060  178.4680  143.5530 C   0  0  0  0  0  2  0  0  0  0  0  0
  189.7220  177.3250  147.6680 C   0  0  0  0  0  3  0  0  0  0  0  0
  190.9200  176.1360  143.6630 C   0  0  0  0  0  0  0  0  0  0  0  0
  191.7690  175.7180  144.7160 N   0  0  0  0  0  0  0  0  0  0  0  0
  187.6960  179.0250  140.7790 C   0  0  0  0  0  2  0  0  0  0  0  0
  189.3960  177.5170  146.3780 C   0  0  0  0  0  3  0  0  0  0  0  0
  186.5110  178.6740  141.6870 C   0  0  0  0  0  2  0  0  0  0  0  0
  189.3680  177.3390  141.6570 C   0  0  0  0  0  0  0  0  0  0  0  0
  184.6050  178.7690  143.8060 S   0  0  0  0  0  0  0  0  0  0  0  0
  184.9710  180.2230  143.6830 O   0  0  0  0  0  0  0  0  0  0  0  0
  183.1920  178.4800  144.2240 O   0  0  0  0  0  0  0  0  0  0  0  0
  185.6890  177.5150  143.5990 C   0  0  2  0  0  3  0  0  0  0  0  0
  186.2940  177.8280  146.2350 C   0  0  0  0  0  2  0  0  0  0  0  0
  185.7810  177.9490  145.0150 C   0  0  0  0  0  0  0  0  0  0  0  0
  1  4  1  0  0  0  0
  2 12  1  1  0  0  0
  2  1  1  0  0  0  0
  3 14  2  0  0  0  0
  4  8  1  0  0  0  0
  4 17  1  1  0  0  0
  5 18  1  6  0  0  0
  5 12  1  0  0  0  0
  5 23  1  0  0  0  0
  7 19  2  0  0  0  0
  7  3  1  0  0  0  0
  8  9  1  0  0  0  0
  9  6  1  0  0  0  0
 10 16  1  0  0  0  0
 10 19  1  0  0  0  0
 11 10  1  0  0  0  0
 13  6  1  0  0  0  0
 14  1  1  0  0  0  0
 14 15  1  0  0  0  0
 15  8  2  0  0  0  0
 16 18  1  0  0  0  0
 17 13  2  0  0  0  0
 19  2  1  0  0  0  0
 20 22  2  0  0  0  0
 20 25  1  0  0  0  0
 21 20  2  0  0  0  0
 23 20  1  0  0  0  0
 23 25  1  1  0  0  0
 25 24  2  0  0  0  0
M  END
>  <MODEL>
3

>  <REMARK>
 VINA RESULT:      -7.7      3.117      5.609
  Name = 
  1 active torsions:
  status: ('A' for Active; 'I' for Inactive)
    1  A    between atoms: N_6  and  C_15
                            x       y       z     vdW  Elec       q    Type
                         _______ _______ _______ _____ _____    ______ ____

>  <TORSDO>
F 1

$$$$
=
 OpenBabel10262419553D

 25 29  0  0  1  0  0  0  0  0999 V2000
  187.9160  177.6590  141.5210 N   0  0  0  0  0  0  0  0  0  0  0  0
  188.5200  178.0980  140.2640 C   0  0  2  0  0  3  0  0  0  0  0  0
  189.7500  176.2540  142.1140 C   0  0  0  0  0  3  0  0  0  0  0  0
  186.9610  178.4040  142.3250 C   0  0  2  0  0  3  0  0  0  0  0  0
  187.5740  177.1730  138.1500 N   0  0  2  0  0  0  0  0  0  0  0  0
  184.8470  178.6850  144.1950 C   0  0  0  0  0  2  0  0  0  0  0  0
  190.2520  176.4120  140.7780 N   0  0  0  0  0  0  0  0  0  0  0  0
  187.1170  177.7700  143.6850 C   0  0  0  0  0  0  0  0  0  0  0  0
  186.0550  177.8960  144.7380 C   0  0  0  0  0  2  0  0  0  0  0  0
  190.3210  177.3070  138.5820 N   0  0  0  0  0  0  0  0  0  0  0  0
  191.5340  176.5680  138.2650 C   0  0  0  0  0  1  0  0  0  0  0  0
  187.4380  178.2160  139.1780 C   0  0  0  0  0  2  0  0  0  0  0  0
  184.5430  178.3290  142.7550 C   0  0  0  0  0  3  0  0  0  0  0  0
  188.6250  176.8660  142.4510 C   0  0  0  0  0  0  0  0  0  0  0  0
  188.0680  176.8930  143.7530 N   0  0  0  0  0  0  0  0  0  0  0  0
  189.7720  178.1790  137.5510 C   0  0  0  0  0  2  0  0  0  0  0  0
  185.5440  178.1970  141.8670 C   0  0  0  0  0  3  0  0  0  0  0  0
  188.4150  177.6660  137.0570 C   0  0  0  0  0  2  0  0  0  0  0  0
  189.7220  177.2160  139.8910 C   0  0  0  0  0  0  0  0  0  0  0  0
  186.3650  175.1140  136.9420 S   0  0  0  0  0  0  0  0  0  0  0  0
  187.6320  174.4230  136.5190 O   0  0  0  0  0  0  0  0  0  0  0  0
  185.0900  174.3620  136.6920 O   0  0  0  0  0  0  0  0  0  0  0  0
  186.3140  176.6640  137.5640 C   0  0  2  0  0  3  0  0  0  0  0  0
  186.1930  177.5150  134.9810 C   0  0  0  0  0  2  0  0  0  0  0  0
  186.2700  176.7800  136.0860 C   0  0  0  0  0  0  0  0  0  0  0  0
  1  4  1  0  0  0  0
  1 14  1  0  0  0  0
  2 12  1  6  0  0  0
  2  1  1  0  0  0  0
  3 14  2  0  0  0  0
  4 17  1  6  0  0  0
  4  8  1  0  0  0  0
  5 18  1  6  0  0  0
  5 12  1  0  0  0  0
  6  9  1  0  0  0  0
  7  3  1  0  0  0  0
  8 15  2  0  0  0  0
  8  9  1  0  0  0  0
 10 19  1  0  0  0  0
 11 10  1  0  0  0  0
 13  6  1  0  0  0  0
 14 15  1  0  0  0  0
 16 10  1  0  0  0  0
 17 13  2  0  0  0  0
 18 16  1  0  0  0  0
 19  2  1  0  0  0  0
 19  7  2  0  0  0  0
 20 23  1  0  0  0  0
 21 20  2  0  0  0  0
 22 20  2  0  0  0  0
 23 25  1  6  0  0  0
 23  5  1  0  0  0  0
 24 25  2  0  0  0  0
 25 20  1  0  0  0  0
M  END
>  <MODEL>
4

>  <REMARK>
 VINA RESULT:      -7.5      4.696      6.635
  Name = 
  1 active torsions:
  status: ('A' for Active; 'I' for Inactive)
    1  A    between atoms: N_6  and  C_15
                            x       y       z     vdW  Elec       q    Type
                         _______ _______ _______ _____ _____    ______ ____

>  <TORSDO>
F 1

$$$$
=
 OpenBabel10262419553D

 25 29  0  0  1  0  0  0  0  0999 V2000
  188.1320  177.5230  145.4490 N   0  0  0  0  0  0  0  0  0  0  0  0
  187.0790  177.3070  144.4580 C   0  0  2  0  0  3  0  0  0  0  0  0
  186.7820  178.9140  146.8390 C   0  0  0  0  0  3  0  0  0  0  0  0
  189.2300  176.6200  145.7500 C   0  0  2  0  0  3  0  0  0  0  0  0
  187.2960  178.4890  142.2730 N   0  0  2  0  0  0  0  0  0  0  0  0
  191.8330  175.9580  146.6650 C   0  0  0  0  0  2  0  0  0  0  0  0
  185.8230  178.9820  145.7720 N   0  0  0  0  0  0  0  0  0  0  0  0
  189.6340  177.0510  147.1380 C   0  0  0  0  0  0  0  0  0  0  0  0
  190.9840  176.7170  147.7040 C   0  0  0  0  0  2  0  0  0  0  0  0
  184.8860  178.4290  143.6640 N   0  0  0  0  0  0  0  0  0  0  0  0
  183.7200  179.2670  143.9060 C   0  0  0  0  0  1  0  0  0  0  0  0
  187.6840  177.2990  143.0450 C   0  0  0  0  0  2  0  0  0  0  0  0
  191.6370  176.5100  145.2680 C   0  0  0  0  0  3  0  0  0  0  0  0
  187.8850  178.2030  146.6620 C   0  0  0  0  0  0  0  0  0  0  0  0
  188.8640  177.9540  147.6560 N   0  0  0  0  0  0  0  0  0  0  0  0
  184.9390  177.6940  142.4060 C   0  0  0  0  0  2  0  0  0  0  0  0
  190.4040  176.8220  144.8320 C   0  0  0  0  0  3  0  0  0  0  0  0
  186.0750  178.2070  141.5140 C   0  0  0  0  0  2  0  0  0  0  0  0
  185.9180  178.2940  144.6620 C   0  0  0  0  0  0  0  0  0  0  0  0
  188.2280  178.4370  139.7650 S   0  0  0  0  0  0  0  0  0  0  0  0
  187.5600  177.1450  139.3830 O   0  0  0  0  0  0  0  0  0  0  0  0
  188.9230  179.1720  138.6560 O   0  0  0  0  0  0  0  0  0  0  0  0
  188.3090  179.0160  141.3310 C   0  0  2  0  0  3  0  0  0  0  0  0
  190.5570  177.5030  141.5940 C   0  0  0  0  0  2  0  0  0  0  0  0
  189.4590  178.0980  141.1400 C   0  0  0  0  0  0  0  0  0  0  0  0
  1  4  1  0  0  0  0
  1 14  1  0  0  0  0
  2 12  1  6  0  0  0
  2 19  1  0  0  0  0
  2  1  1  0  0  0  0
  4 17  1  6  0  0  0
  4  8  1  0  0  0  0
  5 18  1  6  0  0  0
  5 12  1  0  0  0  0
  6  9  1  0  0  0  0
  7  3  1  0  0  0  0
  8 15  2  0  0  0  0
  8  9  1  0  0  0  0
 10 11  1  0  0  0  0
 10 19  1  0  0  0  0
 13  6  1  0  0  0  0
 14  3  2  0  0  0  0
 14 15  1  0  0  0  0
 16 10  1  0  0  0  0
 17 13  2  0  0  0  0
 18 16  1  0  0  0  0
 19  7  2  0  0  0  0
 20 25  1  0  0  0  0
 20 23  1  0  0  0  0
 21 20  2  0  0  0  0
 22 20  2  0  0  0  0
 23 25  1  1  0  0  0
 23  5  1  0  0  0  0
 25 24  2  0  0  0  0
M  END
>  <MODEL>
5

>  <REMARK>
 VINA RESULT:      -7.4      3.337      6.307
  Name = 
  1 active torsions:
  status: ('A' for Active; 'I' for Inactive)
    1  A    between atoms: N_6  and  C_15
                            x       y       z     vdW  Elec       q    Type
                         _______ _______ _______ _____ _____    ______ ____

>  <TORSDO>
F 1

$$$$
=
 OpenBabel10262419553D

 25 29  0  0  1  0  0  0  0  0999 V2000
  189.3630  177.4090  143.1600 N   0  0  0  0  0  0  0  0  0  0  0  0
  188.4420  177.0590  144.2390 C   0  0  2  0  0  3  0  0  0  0  0  0
  191.1190  178.0640  144.6360 C   0  0  0  0  0  3  0  0  0  0  0  0
  189.3780  176.8430  141.8210 C   0  0  2  0  0  3  0  0  0  0  0  0
  186.5370  178.6090  144.6730 N   0  0  2  0  0  0  0  0  0  0  0  0
  189.9150  176.8530  139.0360 C   0  0  0  0  0  2  0  0  0  0  0  0
  190.1740  178.0210  145.7160 N   0  0  0  0  0  0  0  0  0  0  0  0
  190.7870  177.1290  141.3620 C   0  0  0  0  0  0  0  0  0  0  0  0
  191.1560  177.1270  139.9070 C   0  0  0  0  0  2  0  0  0  0  0  0
  188.0820  177.5830  146.7480 N   0  0  0  0  0  0  0  0  0  0  0  0
  188.5890  177.9740  148.0550 C   0  0  0  0  0  1  0  0  0  0  0  0
  187.0120  177.4780  143.8610 C   0  0  0  0  0  2  0  0  0  0  0  0
  188.6840  177.5510  139.5730 C   0  0  0  0  0  3  0  0  0  0  0  0
  190.7080  177.7620  143.4130 C   0  0  0  0  0  0  0  0  0  0  0  0
  191.5420  177.6530  142.2740 N   0  0  0  0  0  0  0  0  0  0  0  0
  186.7000  177.1280  146.6680 C   0  0  0  0  0  2  0  0  0  0  0  0
  188.4270  177.5460  140.8920 C   0  0  0  0  0  3  0  0  0  0  0  0
  185.8410  178.1070  145.8590 C   0  0  0  0  0  2  0  0  0  0  0  0
  188.9420  177.5970  145.5890 C   0  0  0  0  0  0  0  0  0  0  0  0
  184.0070  179.3800  144.2700 S   0  0  0  0  0  0  0  0  0  0  0  0
  183.3810  178.0940  144.7360 O   0  0  0  0  0  0  0  0  0  0  0  0
  183.0560  180.5020  143.9680 O   0  0  0  0  0  0  0  0  0  0  0  0
  185.6430  179.5720  143.9920 C   0  0  2  0  0  3  0  0  0  0  0  0
  185.1560  178.6280  141.4860 C   0  0  0  0  0  2  0  0  0  0  0  0
  185.0440  179.0310  142.7470 C   0  0  0  0  0  0  0  0  0  0  0  0
  1 14  1  0  0  0  0
  1  2  1  0  0  0  0
  2 12  1  6  0  0  0
  2 19  1  0  0  0  0
  3  7  1  0  0  0  0
  4 17  1  6  0  0  0
  4  1  1  0  0  0  0
  5 12  1  6  0  0  0
  5 18  1  0  0  0  0
  6 13  1  0  0  0  0
  6  9  1  0  0  0  0
  8  4  1  0  0  0  0
  8 15  2  0  0  0  0
  9  8  1  0  0  0  0
 10 11  1  0  0  0  0
 13 17  2  0  0  0  0
 14  3  2  0  0  0  0
 15 14  1  0  0  0  0
 16 10  1  0  0  0  0
 18 16  1  0  0  0  0
 19  7  2  0  0  0  0
 19 10  1  0  0  0  0
 20 21  2  0  0  0  0
 22 20  2  0  0  0  0
 23 25  1  6  0  0  0
 23 20  1  0  0  0  0
 23  5  1  0  0  0  0
 24 25  2  0  0  0  0
 25 20  1  0  0  0  0
M  END
>  <MODEL>
6

>  <REMARK>
 VINA RESULT:      -7.0      3.366      6.209
  Name = 
  1 active torsions:
  status: ('A' for Active; 'I' for Inactive)
    1  A    between atoms: N_6  and  C_15
                            x       y       z     vdW  Elec       q    Type
                         _______ _______ _______ _____ _____    ______ ____

>  <TORSDO>
F 1

$$$$
=
 OpenBabel10262419553D

 25 29  0  0  1  0  0  0  0  0999 V2000
  186.8890  177.9570  142.7750 N   0  0  0  0  0  0  0  0  0  0  0  0
  187.4620  178.4740  141.5330 C   0  0  2  0  0  3  0  0  0  0  0  0
  188.5610  176.2790  143.0540 C   0  0  0  0  0  3  0  0  0  0  0  0
  186.0920  178.7060  143.7330 C   0  0  2  0  0  3  0  0  0  0  0  0
  186.2710  177.9400  139.4080 N   0  0  2  0  0  0  0  0  0  0  0  0
  184.1570  179.0030  145.7860 C   0  0  0  0  0  2  0  0  0  0  0  0
  188.9920  176.5410  141.7090 N   0  0  0  0  0  0  0  0  0  0  0  0
  186.2530  177.8930  144.9940 C   0  0  0  0  0  0  0  0  0  0  0  0
  185.2860  178.0140  146.1360 C   0  0  0  0  0  2  0  0  0  0  0  0
  189.0340  177.6880  139.6330 N   0  0  0  0  0  0  0  0  0  0  0  0
  190.1180  176.8540  139.1370 C   0  0  0  0  0  1  0  0  0  0  0  0
  186.3370  178.8550  140.5580 C   0  0  0  0  0  2  0  0  0  0  0  0
  183.7170  178.8680  144.3430 C   0  0  0  0  0  3  0  0  0  0  0  0
  187.5480  176.9750  143.5480 C   0  0  0  0  0  0  0  0  0  0  0  0
  187.0850  176.9070  144.8840 N   0  0  0  0  0  0  0  0  0  0  0  0
  188.5370  178.7420  138.7560 C   0  0  0  0  0  2  0  0  0  0  0  0
  184.6330  178.7290  143.3690 C   0  0  0  0  0  3  0  0  0  0  0  0
  187.0960  178.4610  138.3160 C   0  0  0  0  0  2  0  0  0  0  0  0
  188.5140  177.5070  140.9660 C   0  0  0  0  0  0  0  0  0  0  0  0
  184.0050  179.0000  138.4590 S   0  0  0  0  0  0  0  0  0  0  0  0
  184.2410  180.3790  139.0100 O   0  0  0  0  0  0  0  0  0  0  0  0
  182.8140  178.8460  137.5570 O   0  0  0  0  0  0  0  0  0  0  0  0
  184.9200  177.6630  138.8700 C   0  0  2  0  0  3  0  0  0  0  0  0
  183.2280  177.3630  140.9800 C   0  0  0  0  0  2  0  0  0  0  0  0
  183.8490  177.7950  139.8880 C   0  0  0  0  0  0  0  0  0  0  0  0
  1 14  1  0  0  0  0
  1  4  1  0  0  0  0
  2 12  1  6  0  0  0
  2  1  1  0  0  0  0
  3 14  2  0  0  0  0
  4 17  1  6  0  0  0
  4  8  1  0  0  0  0
  5 18  1  6  0  0  0
  5 12  1  0  0  0  0
  6  9  1  0  0  0  0
  7  3  1  0  0  0  0
  8  9  1  0  0  0  0
 10 19  1  0  0  0  0
 11 10  1  0  0  0  0
 13  6  1  0  0  0  0
 14 15  1  0  0  0  0
 15  8  2  0  0  0  0
 16 10  1  0  0  0  0
 17 13  2  0  0  0  0
 18 16  1  0  0  0  0
 19  2  1  0  0  0  0
 19  7  2  0  0  0  0
 20 23  1  0  0  0  0
 20 21  2  0  0  0  0
 20 25  1  0  0  0  0
 22 20  2  0  0  0  0
 23  5  1  0  0  0  0
 23 25  1  1  0  0  0
 25 24  2  0  0  0  0
M  END
>  <MODEL>
7

>  <REMARK>
 VINA RESULT:      -6.9      4.474      6.043
  Name = 
  1 active torsions:
  status: ('A' for Active; 'I' for Inactive)
    1  A    between atoms: N_6  and  C_15
                            x       y       z     vdW  Elec       q    Type
                         _______ _______ _______ _____ _____    ______ ____

>  <TORSDO>
F 1

$$$$
=
 OpenBabel10262419553D

 25 29  0  0  1  0  0  0  0  0999 V2000
  186.0400  178.2720  142.6440 N   0  0  0  0  0  0  0  0  0  0  0  0
  187.1130  177.5230  141.9940 C   0  0  2  0  0  3  0  0  0  0  0  0
  185.3310  179.3430  140.6350 C   0  0  0  0  0  3  0  0  0  0  0  0
  185.3180  177.8780  143.8440 C   0  0  2  0  0  3  0  0  0  0  0  0
  189.4550  178.2750  142.4100 N   0  0  2  0  0  0  0  0  0  0  0  0
  183.8050  178.3420  146.1970 C   0  0  0  0  0  2  0  0  0  0  0  0
  186.5350  178.8740  140.0070 N   0  0  0  0  0  0  0  0  0  0  0  0
  184.0420  178.6740  143.7310 C   0  0  0  0  0  0  0  0  0  0  0  0
  183.1720  178.9400  144.9250 C   0  0  0  0  0  2  0  0  0  0  0  0
  188.5590  177.6460  139.8500 N   0  0  0  0  0  0  0  0  0  0  0  0
  188.7600  178.0580  138.4690 C   0  0  0  0  0  1  0  0  0  0  0  0
  188.3400  177.4600  142.9180 C   0  0  0  0  0  2  0  0  0  0  0  0
  185.3080  178.5190  146.2160 C   0  0  0  0  0  3  0  0  0  0  0  0
  185.1120  179.0390  141.9050 C   0  0  0  0  0  0  0  0  0  0  0  0
  183.9270  179.3350  142.6230 N   0  0  0  0  0  0  0  0  0  0  0  0
  189.5490  176.7540  140.4400 C   0  0  0  0  0  2  0  0  0  0  0  0
  186.0270  178.2980  145.1010 C   0  0  0  0  0  3  0  0  0  0  0  0
  190.3220  177.4510  141.5650 C   0  0  0  0  0  2  0  0  0  0  0  0
  187.3890  178.0670  140.5830 C   0  0  0  0  0  0  0  0  0  0  0  0
  191.6920  178.1170  143.8690 S   0  0  0  0  0  0  0  0  0  0  0  0
  191.8900  176.6390  143.6820 O   0  0  0  0  0  0  0  0  0  0  0  0
  192.7990  178.8460  144.5750 O   0  0  0  0  0  0  0  0  0  0  0  0
  190.3010  178.9330  143.4300 C   0  0  2  0  0  3  0  0  0  0  0  0
  189.3300  178.2550  145.8810 C   0  0  0  0  0  2  0  0  0  0  0  0
  190.0860  178.4000  144.7970 C   0  0  0  0  0  0  0  0  0  0  0  0
  1  4  1  0  0  0  0
  2  1  1  0  0  0  0
  2 12  1  1  0  0  0
  3 14  2  0  0  0  0
  4 17  1  1  0  0  0
  5 18  1  1  0  0  0
  5 12  1  0  0  0  0
  5 23  1  0  0  0  0
  6 13  1  0  0  0  0
  7 19  2  0  0  0  0
  7  3  1  0  0  0  0
  8  4  1  0  0  0  0
  8  9  1  0  0  0  0
  9  6  1  0  0  0  0
 10 16  1  0  0  0  0
 10 19  1  0  0  0  0
 11 10  1  0  0  0  0
 14 15  1  0  0  0  0
 14  1  1  0  0  0  0
 15  8  2  0  0  0  0
 16 18  1  0  0  0  0
 17 13  2  0  0  0  0
 19  2  1  0  0  0  0
 20 22  2  0  0  0  0
 20 25  1  0  0  0  0
 21 20  2  0  0  0  0
 23 20  1  0  0  0  0
 23 25  1  1  0  0  0
 25 24  2  0  0  0  0
M  END
>  <MODEL>
8

>  <REMARK>
 VINA RESULT:      -6.7      1.838      2.284
  Name = 
  1 active torsions:
  status: ('A' for Active; 'I' for Inactive)
    1  A    between atoms: N_6  and  C_15
                            x       y       z     vdW  Elec       q    Type
                         _______ _______ _______ _____ _____    ______ ____

>  <TORSDO>
F 1

$$$$
=
 OpenBabel10262419553D

 25 29  0  0  1  0  0  0  0  0999 V2000
  187.0540  178.2170  142.3370 N   0  0  0  0  0  0  0  0  0  0  0  0
  188.4830  178.4870  142.4750 C   0  0  2  0  0  3  0  0  0  0  0  0
  186.8740  177.1350  144.4560 C   0  0  0  0  0  3  0  0  0  0  0  0
  186.1020  178.9900  141.5560 C   0  0  2  0  0  3  0  0  0  0  0  0
  190.0510  177.1110  141.1080 N   0  0  2  0  0  0  0  0  0  0  0  0
  183.7240  179.3770  140.0600 C   0  0  0  0  0  2  0  0  0  0  0  0
  188.3090  177.1050  144.5180 N   0  0  0  0  0  0  0  0  0  0  0  0
  184.7850  178.6260  142.1950 C   0  0  0  0  0  0  0  0  0  0  0  0
  183.4810  178.8260  141.4780 C   0  0  0  0  0  2  0  0  0  0  0  0
  190.5180  177.6010  143.8080 N   0  0  0  0  0  0  0  0  0  0  0  0
  191.0930  176.9470  144.9740 C   0  0  0  0  0  1  0  0  0  0  0  0
  189.1840  178.2990  141.1200 C   0  0  0  0  0  2  0  0  0  0  0  0
  184.9340  178.7430  139.4080 C   0  0  0  0  0  3  0  0  0  0  0  0
  186.2910  177.6780  143.3970 C   0  0  0  0  0  0  0  0  0  0  0  0
  184.8970  177.8780  143.2460 N   0  0  0  0  0  0  0  0  0  0  0  0
  191.4360  178.2160  142.8570 C   0  0  0  0  0  2  0  0  0  0  0  0
  186.0630  178.5600  140.1150 C   0  0  0  0  0  3  0  0  0  0  0  0
  191.4080  177.4860  141.5100 C   0  0  0  0  0  2  0  0  0  0  0  0
  189.0880  177.6810  143.6370 C   0  0  0  0  0  0  0  0  0  0  0  0
  191.6370  176.3760  139.0820 S   0  0  0  0  0  0  0  0  0  0  0  0
  192.7070  177.3970  139.3510 O   0  0  0  0  0  0  0  0  0  0  0  0
  191.9440  175.3660  138.0150 O   0  0  0  0  0  0  0  0  0  0  0  0
  190.1390  176.3790  139.8240 C   0  0  2  0  0  3  0  0  0  0  0  0
  189.3500  178.0730  137.8450 C   0  0  0  0  0  2  0  0  0  0  0  0
  190.0470  177.2680  138.6400 C   0  0  0  0  0  0  0  0  0  0  0  0
  1  2  1  0  0  0  0
  1 14  1  0  0  0  0
  2 12  1  6  0  0  0
  2 19  1  0  0  0  0
  3  7  1  0  0  0  0
  4 17  1  6  0  0  0
  4  8  1  0  0  0  0
  4  1  1  0  0  0  0
  5 12  1  6  0  0  0
  5 18  1  0  0  0  0
  6  9  1  0  0  0  0
  8 15  2  0  0  0  0
  9  8  1  0  0  0  0
 10 11  1  0  0  0  0
 13  6  1  0  0  0  0
 13 17  2  0  0  0  0
 14  3  2  0  0  0  0
 15 14  1  0  0  0  0
 16 10  1  0  0  0  0
 18 16  1  0  0  0  0
 19 10  1  0  0  0  0
 19  7  2  0  0  0  0
 20 21  2  0  0  0  0
 20 23  1  0  0  0  0
 22 20  2  0  0  0  0
 23 25  1  6  0  0  0
 23  5  1  0  0  0  0
 24 25  2  0  0  0  0
 25 20  1  0  0  0  0
M  END
>  <MODEL>
9

>  <REMARK>
 VINA RESULT:      -6.5      3.329      5.085
  Name = 
  1 active torsions:
  status: ('A' for Active; 'I' for Inactive)
    1  A    between atoms: N_6  and  C_15
                            x       y       z     vdW  Elec       q    Type
                         _______ _______ _______ _____ _____    ______ ____

>  <TORSDO>
F 1

$$$$
