=
 OpenBabel10262419253D

 31 33  0  0  1  0  0  0  0  0999 V2000
  189.5960  176.8560  139.0770 C   0  0  2  0  0  3  0  0  0  0  0  0
  188.2560  176.9950  142.0300 C   0  0  2  0  0  3  0  0  0  0  0  0
  189.3780  175.1190  142.5970 O   0  0  0  0  0  1  0  0  0  0  0  0
  189.5280  176.4610  142.4980 N   0  0  0  0  0  0  0  0  0  0  0  0
  188.5460  178.0740  140.9960 C   0  0  1  0  0  3  0  0  0  0  0  0
  188.7560  179.4530  141.6100 C   0  0  0  0  0  1  0  0  0  0  0  0
  189.8520  177.6240  140.3830 C   0  0  1  0  0  3  0  0  0  0  0  0
  191.7350  177.3440  141.9870 C   0  0  0  0  0  1  0  0  0  0  0  0
  190.4850  176.6990  141.4210 C   0  0  1  0  0  3  0  0  0  0  0  0
  186.9180  177.7570  145.5200 C   0  0  0  0  0  0  0  0  0  0  0  0
  185.2130  178.2910  143.8870 C   0  0  0  0  0  3  0  0  0  0  0  0
  187.4520  177.6810  147.1840 Cl  0  0  0  0  0  0  0  0  0  0  0  0
  187.7740  177.3490  144.4930 C   0  0  0  0  0  3  0  0  0  0  0  0
  186.0680  177.8830  142.8580 C   0  0  0  0  0  3  0  0  0  0  0  0
  187.3480  177.4040  143.1560 C   0  0  0  0  0  0  0  0  0  0  0  0
  185.6370  178.2280  145.2170 C   0  0  0  0  0  3  0  0  0  0  0  0
  190.8220  176.2400  138.4500 C   0  0  0  0  0  0  0  0  0  0  0  0
  193.1980  176.4530  137.9890 C   0  0  0  0  0  3  0  0  0  0  0  0
  192.0170  176.9640  138.5310 C   0  0  0  0  0  3  0  0  0  0  0  0
  189.6360  174.1980  137.7080 N   0  0  0  0  0  1  0  0  0  0  0  0
  193.1940  175.2060  137.3610 C   0  0  0  0  0  0  0  0  0  0  0  0
  194.6740  174.5640  136.6820 Cl  0  0  0  0  0  0  0  0  0  0  0  0
  190.8240  174.9750  137.8190 C   0  0  0  0  0  0  0  0  0  0  0  0
  192.0110  174.4690  137.2780 C   0  0  0  0  0  3  0  0  0  0  0  0
  188.5710  179.6950  136.9920 O   0  0  0  0  0  0  0  0  0  0  0  0
  188.8130  177.6250  138.1030 N   0  0  0  0  0  0  0  0  0  0  0  0
  186.9980  177.6110  136.6080 O   0  0  0  0  0  0  0  0  0  0  0  0
  189.2140  178.9720  137.7990 C   0  0  0  0  0  3  0  0  0  0  0  0
  187.6560  177.0110  137.4980 C   0  0  0  0  0  0  0  0  0  0  0  0
  186.3910  175.1070  136.9030 O   0  0  0  0  0  1  0  0  0  0  0  0
  187.2270  175.6340  137.8870 C   0  0  0  0  0  2  0  0  0  0  0  0
  1 26  1  6  0  0  0
  2  4  1  0  0  0  0
  2 15  1  1  0  0  0
  4  3  1  0  0  0  0
  5  6  1  1  0  0  0
  5  2  1  0  0  0  0
  7  1  1  6  0  0  0
  7  5  1  0  0  0  0
  7  9  1  0  0  0  0
  9  8  1  1  0  0  0
  9  4  1  0  0  0  0
 10 12  1  0  0  0  0
 11 16  2  0  0  0  0
 13 10  2  0  0  0  0
 14 15  2  0  0  0  0
 14 11  1  0  0  0  0
 15 13  1  0  0  0  0
 16 10  1  0  0  0  0
 17 19  1  0  0  0  0
 17  1  1  0  0  0  0
 18 19  2  0  0  0  0
 20 23  1  0  0  0  0
 21 18  1  0  0  0  0
 22 21  1  0  0  0  0
 23 17  2  0  0  0  0
 24 21  2  0  0  0  0
 24 23  1  0  0  0  0
 25 28  2  0  0  0  0
 27 29  2  0  0  0  0
 28 26  1  0  0  0  0
 29 31  1  0  0  0  0
 29 26  1  0  0  0  0
 30 31  1  0  0  0  0
M  END
>  <MODEL>
1

>  <REMARK>
 VINA RESULT:      -6.8      0.000      0.000
  Name = 
  5 active torsions:
  status: ('A' for Active; 'I' for Inactive)
    1  A    between atoms: C_3  and  C_22
    2  A    between atoms: C_4  and  C_5
    3  A    between atoms: C_4  and  N_12
    4  A    between atoms: C_4  and  C_21
    5  A    between atoms: C_27  and  C_28
                            x       y       z     vdW  Elec       q    Type
                         _______ _______ _______ _____ _____    ______ ____

>  <TORSDO>
F 5

$$$$
=
 OpenBabel10262419253D

 31 33  0  0  1  0  0  0  0  0999 V2000
  189.3890  176.2240  138.7800 C   0  0  2  0  0  3  0  0  0  0  0  0
  188.6390  176.7290  141.8970 C   0  0  2  0  0  3  0  0  0  0  0  0
  190.2500  175.2630  142.4940 O   0  0  0  0  0  1  0  0  0  0  0  0
  190.0650  176.5570  142.1410 N   0  0  0  0  0  0  0  0  0  0  0  0
  188.4710  177.6000  140.6600 C   0  0  1  0  0  3  0  0  0  0  0  0
  188.4700  179.0920  140.9710 C   0  0  0  0  0  1  0  0  0  0  0  0
  189.7050  177.2850  139.8450 C   0  0  1  0  0  3  0  0  0  0  0  0
  191.8710  177.7130  140.9950 C   0  0  0  0  0  1  0  0  0  0  0  0
  190.7190  176.7380  140.8480 C   0  0  1  0  0  3  0  0  0  0  0  0
  187.8130  177.7280  145.4850 C   0  0  0  0  0  0  0  0  0  0  0  0
  185.8410  178.0190  144.1120 C   0  0  0  0  0  3  0  0  0  0  0  0
  188.6050  177.8320  147.0420 Cl  0  0  0  0  0  0  0  0  0  0  0  0
  188.5240  177.2770  144.3690 C   0  0  0  0  0  3  0  0  0  0  0  0
  186.5510  177.5670  142.9940 C   0  0  0  0  0  3  0  0  0  0  0  0
  187.8920  177.1870  143.1190 C   0  0  0  0  0  0  0  0  0  0  0  0
  186.4720  178.0990  145.3560 C   0  0  0  0  0  3  0  0  0  0  0  0
  190.5750  175.7630  137.9710 C   0  0  0  0  0  0  0  0  0  0  0  0
  192.7980  176.2820  137.1380 C   0  0  0  0  0  3  0  0  0  0  0  0
  191.6570  176.6440  137.8560 C   0  0  0  0  0  3  0  0  0  0  0  0
  189.5820  173.5590  137.4390 N   0  0  0  0  0  1  0  0  0  0  0  0
  192.8690  175.0290  136.5270 C   0  0  0  0  0  0  0  0  0  0  0  0
  194.2980  174.5740  135.6260 Cl  0  0  0  0  0  0  0  0  0  0  0  0
  190.6540  174.4920  137.3560 C   0  0  0  0  0  0  0  0  0  0  0  0
  191.8000  174.1370  136.6370 C   0  0  0  0  0  3  0  0  0  0  0  0
  186.1830  175.8940  137.0260 O   0  0  0  0  0  0  0  0  0  0  0  0
  188.2540  176.5890  137.9240 N   0  0  0  0  0  0  0  0  0  0  0  0
  187.2850  178.2480  136.5680 O   0  0  0  0  0  0  0  0  0  0  0  0
  187.1740  175.6530  137.7660 C   0  0  0  0  0  3  0  0  0  0  0  0
  188.2690  177.8680  137.2560 C   0  0  0  0  0  0  0  0  0  0  0  0
  188.9880  180.0970  137.5560 O   0  0  0  0  0  1  0  0  0  0  0  0
  189.4380  178.7880  137.3870 C   0  0  0  0  0  2  0  0  0  0  0  0
  1 26  1  6  0  0  0
  2  4  1  0  0  0  0
  2 15  1  1  0  0  0
  4  3  1  0  0  0  0
  5  6  1  1  0  0  0
  5  2  1  0  0  0  0
  7  1  1  6  0  0  0
  7  5  1  0  0  0  0
  7  9  1  0  0  0  0
  9  8  1  1  0  0  0
  9  4  1  0  0  0  0
 10 12  1  0  0  0  0
 11 16  2  0  0  0  0
 13 10  2  0  0  0  0
 14 15  2  0  0  0  0
 14 11  1  0  0  0  0
 15 13  1  0  0  0  0
 16 10  1  0  0  0  0
 17  1  1  0  0  0  0
 18 19  2  0  0  0  0
 19 17  1  0  0  0  0
 21 24  2  0  0  0  0
 21 18  1  0  0  0  0
 22 21  1  0  0  0  0
 23 20  1  0  0  0  0
 23 17  2  0  0  0  0
 24 23  1  0  0  0  0
 25 28  2  0  0  0  0
 27 29  2  0  0  0  0
 28 26  1  0  0  0  0
 29 31  1  0  0  0  0
 29 26  1  0  0  0  0
 31 30  1  0  0  0  0
M  END
>  <MODEL>
2

>  <REMARK>
 VINA RESULT:      -6.6      0.796      1.804
  Name = 
  5 active torsions:
  status: ('A' for Active; 'I' for Inactive)
    1  A    between atoms: C_3  and  C_22
    2  A    between atoms: C_4  and  C_5
    3  A    between atoms: C_4  and  N_12
    4  A    between atoms: C_4  and  C_21
    5  A    between atoms: C_27  and  C_28
                            x       y       z     vdW  Elec       q    Type
                         _______ _______ _______ _____ _____    ______ ____

>  <TORSDO>
F 5

$$$$
=
 OpenBabel10262419253D

 31 33  0  0  1  0  0  0  0  0999 V2000
  189.6600  176.7660  139.2670 C   0  0  2  0  0  3  0  0  0  0  0  0
  188.2230  176.9720  142.1700 C   0  0  2  0  0  3  0  0  0  0  0  0
  189.1640  175.0020  142.7450 O   0  0  0  0  0  1  0  0  0  0  0  0
  189.4280  176.3280  142.6760 N   0  0  0  0  0  0  0  0  0  0  0  0
  188.6400  178.0390  141.1680 C   0  0  1  0  0  3  0  0  0  0  0  0
  188.9380  179.3870  141.8130 C   0  0  0  0  0  1  0  0  0  0  0  0
  189.9280  177.4910  140.5960 C   0  0  1  0  0  3  0  0  0  0  0  0
  191.7180  177.0340  142.2640 C   0  0  0  0  0  1  0  0  0  0  0  0
  190.4410  176.5020  141.6400 C   0  0  1  0  0  3  0  0  0  0  0  0
  185.1650  178.2820  144.0370 C   0  0  0  0  0  0  0  0  0  0  0  0
  186.9170  177.7980  145.6360 C   0  0  0  0  0  3  0  0  0  0  0  0
  183.5420  178.8360  143.6880 Cl  0  0  0  0  0  0  0  0  0  0  0  0
  186.0040  177.8780  142.9950 C   0  0  0  0  0  3  0  0  0  0  0  0
  187.7570  177.3930  144.5930 C   0  0  0  0  0  3  0  0  0  0  0  0
  187.3080  177.4370  143.2690 C   0  0  0  0  0  0  0  0  0  0  0  0
  185.6210  178.2430  145.3570 C   0  0  0  0  0  3  0  0  0  0  0  0
  190.8650  176.0980  138.6540 C   0  0  0  0  0  0  0  0  0  0  0  0
  191.7220  174.2130  137.3840 C   0  0  0  0  0  3  0  0  0  0  0  0
  190.6580  174.8830  137.9910 C   0  0  0  0  0  3  0  0  0  0  0  0
  192.4330  177.8800  139.3570 N   0  0  0  0  0  1  0  0  0  0  0  0
  193.0070  174.7560  137.4310 C   0  0  0  0  0  0  0  0  0  0  0  0
  194.3410  173.9170  136.6700 Cl  0  0  0  0  0  0  0  0  0  0  0  0
  192.1670  176.6480  138.6950 C   0  0  0  0  0  0  0  0  0  0  0  0
  193.2280  175.9710  138.0850 C   0  0  0  0  0  3  0  0  0  0  0  0
  188.7430  179.7470  137.3350 O   0  0  0  0  0  0  0  0  0  0  0  0
  188.9430  177.5980  138.2940 N   0  0  0  0  0  0  0  0  0  0  0  0
  187.2620  177.6730  136.6510 O   0  0  0  0  0  0  0  0  0  0  0  0
  189.3340  178.9730  138.1340 C   0  0  0  0  0  3  0  0  0  0  0  0
  187.8570  177.0140  137.5440 C   0  0  0  0  0  0  0  0  0  0  0  0
  187.4050  174.9080  136.5740 O   0  0  0  0  0  1  0  0  0  0  0  0
  187.4320  175.6020  137.7840 C   0  0  0  0  0  2  0  0  0  0  0  0
  1 26  1  6  0  0  0
  2  4  1  0  0  0  0
  2 15  1  1  0  0  0
  4  3  1  0  0  0  0
  5  6  1  1  0  0  0
  5  2  1  0  0  0  0
  7  1  1  6  0  0  0
  7  5  1  0  0  0  0
  7  9  1  0  0  0  0
  9  8  1  1  0  0  0
  9  4  1  0  0  0  0
 10 16  1  0  0  0  0
 12 10  1  0  0  0  0
 13 15  1  0  0  0  0
 13 10  2  0  0  0  0
 14 11  1  0  0  0  0
 15 14  2  0  0  0  0
 16 11  2  0  0  0  0
 17 23  1  0  0  0  0
 17  1  1  0  0  0  0
 18 21  2  0  0  0  0
 18 19  1  0  0  0  0
 19 17  2  0  0  0  0
 21 24  1  0  0  0  0
 22 21  1  0  0  0  0
 23 20  1  0  0  0  0
 24 23  2  0  0  0  0
 25 28  2  0  0  0  0
 27 29  2  0  0  0  0
 28 26  1  0  0  0  0
 29 31  1  0  0  0  0
 29 26  1  0  0  0  0
 30 31  1  0  0  0  0
M  END
>  <MODEL>
3

>  <REMARK>
 VINA RESULT:      -6.0      1.238      1.827
  Name = 
  5 active torsions:
  status: ('A' for Active; 'I' for Inactive)
    1  A    between atoms: C_3  and  C_22
    2  A    between atoms: C_4  and  C_5
    3  A    between atoms: C_4  and  N_12
    4  A    between atoms: C_4  and  C_21
    5  A    between atoms: C_27  and  C_28
                            x       y       z     vdW  Elec       q    Type
                         _______ _______ _______ _____ _____    ______ ____

>  <TORSDO>
F 5

$$$$
=
 OpenBabel10262419253D

 31 33  0  0  1  0  0  0  0  0999 V2000
  190.2960  176.6760  144.7400 C   0  0  2  0  0  3  0  0  0  0  0  0
  189.8000  177.4660  141.6310 C   0  0  2  0  0  3  0  0  0  0  0  0
  188.1230  178.8350  142.2760 O   0  0  0  0  0  1  0  0  0  0  0  0
  189.4700  178.7880  142.1470 N   0  0  0  0  0  0  0  0  0  0  0  0
  191.0360  176.9650  142.3650 C   0  0  1  0  0  3  0  0  0  0  0  0
  192.3410  177.4070  141.7140 C   0  0  0  0  0  1  0  0  0  0  0  0
  190.9300  177.6320  143.7170 C   0  0  1  0  0  3  0  0  0  0  0  0
  190.8250  180.1190  143.6660 C   0  0  0  0  0  1  0  0  0  0  0  0
  190.0240  178.8420  143.4970 C   0  0  1  0  0  3  0  0  0  0  0  0
  190.5550  176.3570  138.0610 C   0  0  0  0  0  0  0  0  0  0  0  0
  189.3060  178.4300  137.9950 C   0  0  0  0  0  3  0  0  0  0  0  0
  191.3580  175.0450  137.2280 Cl  0  0  0  0  0  0  0  0  0  0  0  0
  190.5170  176.3780  139.4570 C   0  0  0  0  0  3  0  0  0  0  0  0
  189.2680  178.4520  139.3930 C   0  0  0  0  0  3  0  0  0  0  0  0
  189.8780  177.4320  140.1300 C   0  0  0  0  0  0  0  0  0  0  0  0
  189.9500  177.3840  137.3290 C   0  0  0  0  0  3  0  0  0  0  0  0
  188.9080  177.0570  145.1910 C   0  0  0  0  0  0  0  0  0  0  0  0
  187.5500  178.2660  146.8020 C   0  0  0  0  0  3  0  0  0  0  0  0
  188.8000  177.8590  146.3330 C   0  0  0  0  0  3  0  0  0  0  0  0
  187.7850  175.8520  143.3430 N   0  0  0  0  0  1  0  0  0  0  0  0
  186.3910  177.8760  146.1280 C   0  0  0  0  0  0  0  0  0  0  0  0
  184.8240  178.3860  146.7150 Cl  0  0  0  0  0  0  0  0  0  0  0  0
  187.7330  176.6680  144.5080 C   0  0  0  0  0  0  0  0  0  0  0  0
  186.4830  177.0800  144.9840 C   0  0  0  0  0  3  0  0  0  0  0  0
  191.8640  177.0520  148.0350 O   0  0  0  0  0  0  0  0  0  0  0  0
  191.1780  176.3850  145.8760 N   0  0  0  0  0  0  0  0  0  0  0  0
  192.8150  174.9460  146.7600 O   0  0  0  0  0  0  0  0  0  0  0  0
  191.1170  177.2320  147.0380 C   0  0  0  0  0  3  0  0  0  0  0  0
  192.0900  175.2710  145.7830 C   0  0  0  0  0  0  0  0  0  0  0  0
  192.5630  173.1520  144.8530 O   0  0  0  0  0  1  0  0  0  0  0  0
  192.1770  174.4540  144.5350 C   0  0  0  0  0  2  0  0  0  0  0  0
  1 17  1  0  0  0  0
  1 26  1  1  0  0  0
  2 15  1  6  0  0  0
  2  4  1  0  0  0  0
  2  5  1  0  0  0  0
  4  3  1  0  0  0  0
  4  9  1  0  0  0  0
  5  6  1  6  0  0  0
  5  7  1  0  0  0  0
  7  1  1  1  0  0  0
  9  8  1  6  0  0  0
  9  7  1  0  0  0  0
 10 13  1  0  0  0  0
 11 14  2  0  0  0  0
 12 10  1  0  0  0  0
 13 15  2  0  0  0  0
 14 15  1  0  0  0  0
 16 11  1  0  0  0  0
 16 10  2  0  0  0  0
 17 19  1  0  0  0  0
 19 18  2  0  0  0  0
 20 23  1  0  0  0  0
 21 22  1  0  0  0  0
 21 18  1  0  0  0  0
 23 24  1  0  0  0  0
 23 17  2  0  0  0  0
 24 21  2  0  0  0  0
 26 28  1  0  0  0  0
 28 25  2  0  0  0  0
 29 26  1  0  0  0  0
 29 27  2  0  0  0  0
 31 30  1  0  0  0  0
 31 29  1  0  0  0  0
M  END
>  <MODEL>
4

>  <REMARK>
 VINA RESULT:      -5.7      2.980      8.015
  Name = 
  5 active torsions:
  status: ('A' for Active; 'I' for Inactive)
    1  A    between atoms: C_3  and  C_22
    2  A    between atoms: C_4  and  C_5
    3  A    between atoms: C_4  and  N_12
    4  A    between atoms: C_4  and  C_21
    5  A    between atoms: C_27  and  C_28
                            x       y       z     vdW  Elec       q    Type
                         _______ _______ _______ _____ _____    ______ ____

>  <TORSDO>
F 5

$$$$
=
 OpenBabel10262419253D

 31 33  0  0  1  0  0  0  0  0999 V2000
  181.0860  179.3810  138.3560 C   0  0  2  0  0  3  0  0  0  0  0  0
  181.7180  176.2560  137.7450 C   0  0  2  0  0  3  0  0  0  0  0  0
  179.5690  175.7570  138.2250 O   0  0  0  0  0  1  0  0  0  0  0  0
  180.3590  176.2100  137.2230 N   0  0  0  0  0  0  0  0  0  0  0  0
  182.3730  177.5390  137.2510 C   0  0  1  0  0  3  0  0  0  0  0  0
  183.0360  177.3880  135.8870 C   0  0  0  0  0  1  0  0  0  0  0  0
  181.2070  178.4900  137.1090 C   0  0  1  0  0  3  0  0  0  0  0  0
  179.3940  177.7250  135.5840 C   0  0  0  0  0  1  0  0  0  0  0  0
  179.9740  177.5970  136.9800 C   0  0  1  0  0  3  0  0  0  0  0  0
  182.6720  172.7890  136.4740 C   0  0  0  0  0  0  0  0  0  0  0  0
  184.5390  173.7200  137.7020 C   0  0  0  0  0  3  0  0  0  0  0  0
  181.9690  171.4840  135.5440 Cl  0  0  0  0  0  0  0  0  0  0  0  0
  181.9280  173.9440  136.7280 C   0  0  0  0  0  3  0  0  0  0  0  0
  183.7950  174.8770  137.9570 C   0  0  0  0  0  3  0  0  0  0  0  0
  182.4860  174.9920  137.4780 C   0  0  0  0  0  0  0  0  0  0  0  0
  183.9770  172.6760  136.9610 C   0  0  0  0  0  3  0  0  0  0  0  0
  180.5980  180.7830  138.0900 C   0  0  0  0  0  0  0  0  0  0  0  0
  180.3670  182.5890  136.4810 C   0  0  0  0  0  3  0  0  0  0  0  0
  180.8060  181.3040  136.8080 C   0  0  0  0  0  3  0  0  0  0  0  0
  179.6920  181.0910  140.3730 N   0  0  0  0  0  1  0  0  0  0  0  0
  179.7100  183.3660  137.4370 C   0  0  0  0  0  0  0  0  0  0  0  0
  179.1600  184.9750  137.0280 Cl  0  0  0  0  0  0  0  0  0  0  0  0
  179.9270  181.5710  139.0540 C   0  0  0  0  0  0  0  0  0  0  0  0
  179.4910  182.8570  138.7190 C   0  0  0  0  0  3  0  0  0  0  0  0
  184.5410  180.0810  139.3710 O   0  0  0  0  0  0  0  0  0  0  0  0
  182.2960  179.3730  139.1860 N   0  0  0  0  0  0  0  0  0  0  0  0
  183.2740  178.6740  141.2080 O   0  0  0  0  0  0  0  0  0  0  0  0
  183.4640  180.0710  138.7190 C   0  0  0  0  0  3  0  0  0  0  0  0
  182.2800  178.6490  140.4340 C   0  0  0  0  0  0  0  0  0  0  0  0
  180.6770  178.2870  142.1310 O   0  0  0  0  0  1  0  0  0  0  0  0
  181.0730  177.8780  140.8570 C   0  0  0  0  0  2  0  0  0  0  0  0
  1 26  1  6  0  0  0
  2 15  1  6  0  0  0
  4  2  1  0  0  0  0
  4  3  1  0  0  0  0
  5  6  1  6  0  0  0
  5  2  1  0  0  0  0
  7  5  1  0  0  0  0
  7  1  1  1  0  0  0
  9  8  1  6  0  0  0
  9  7  1  0  0  0  0
  9  4  1  0  0  0  0
 10 13  2  0  0  0  0
 10 16  1  0  0  0  0
 11 14  1  0  0  0  0
 12 10  1  0  0  0  0
 13 15  1  0  0  0  0
 15 14  2  0  0  0  0
 16 11  2  0  0  0  0
 17  1  1  0  0  0  0
 17 23  1  0  0  0  0
 18 19  1  0  0  0  0
 18 21  2  0  0  0  0
 19 17  2  0  0  0  0
 21 24  1  0  0  0  0
 22 21  1  0  0  0  0
 23 20  1  0  0  0  0
 24 23  2  0  0  0  0
 26 29  1  0  0  0  0
 28 26  1  0  0  0  0
 28 25  2  0  0  0  0
 29 31  1  0  0  0  0
 29 27  2  0  0  0  0
 31 30  1  0  0  0  0
M  END
>  <MODEL>
5

>  <REMARK>
 VINA RESULT:      -5.6      7.519     10.657
  Name = 
  5 active torsions:
  status: ('A' for Active; 'I' for Inactive)
    1  A    between atoms: C_3  and  C_22
    2  A    between atoms: C_4  and  C_5
    3  A    between atoms: C_4  and  N_12
    4  A    between atoms: C_4  and  C_21
    5  A    between atoms: C_27  and  C_28
                            x       y       z     vdW  Elec       q    Type
                         _______ _______ _______ _____ _____    ______ ____

>  <TORSDO>
F 5

$$$$
=
 OpenBabel10262419253D

 31 33  0  0  1  0  0  0  0  0999 V2000
  181.6490  179.2610  140.5070 C   0  0  2  0  0  3  0  0  0  0  0  0
  180.9840  181.2890  138.0610 C   0  0  2  0  0  3  0  0  0  0  0  0
  181.5610  179.6690  136.5980 O   0  0  0  0  0  1  0  0  0  0  0  0
  180.5270  180.0970  137.3590 N   0  0  0  0  0  0  0  0  0  0  0  0
  180.4700  181.2240  139.4930 C   0  0  1  0  0  3  0  0  0  0  0  0
  179.0750  181.8150  139.6570 C   0  0  0  0  0  1  0  0  0  0  0  0
  180.3910  179.7390  139.7650 C   0  0  1  0  0  3  0  0  0  0  0  0
  178.9470  178.4500  138.1990 C   0  0  0  0  0  1  0  0  0  0  0  0
  180.3130  179.0830  138.3870 C   0  0  1  0  0  3  0  0  0  0  0  0
  180.0080  184.8930  137.2800 C   0  0  0  0  0  0  0  0  0  0  0  0
  180.5600  183.7600  135.2140 C   0  0  0  0  0  3  0  0  0  0  0  0
  179.5010  186.3370  138.1290 Cl  0  0  0  0  0  0  0  0  0  0  0  0
  180.2690  183.7200  137.9940 C   0  0  0  0  0  3  0  0  0  0  0  0
  180.8220  182.5850  135.9260 C   0  0  0  0  0  3  0  0  0  0  0  0
  180.6720  182.5570  137.3170 C   0  0  0  0  0  0  0  0  0  0  0  0
  180.1530  184.9130  135.8900 C   0  0  0  0  0  3  0  0  0  0  0  0
  182.5300  178.3200  139.7240 C   0  0  0  0  0  0  0  0  0  0  0  0
  182.8930  176.0510  138.9350 C   0  0  0  0  0  3  0  0  0  0  0  0
  182.1380  176.9790  139.6550 C   0  0  0  0  0  3  0  0  0  0  0  0
  184.1460  180.0830  139.0840 N   0  0  0  0  0  1  0  0  0  0  0  0
  184.0510  176.4600  138.2720 C   0  0  0  0  0  0  0  0  0  0  0  0
  184.9980  175.2980  137.3690 Cl  0  0  0  0  0  0  0  0  0  0  0  0
  183.7010  178.7320  139.0450 C   0  0  0  0  0  0  0  0  0  0  0  0
  184.4530  177.7960  138.3260 C   0  0  0  0  0  3  0  0  0  0  0  0
  179.7170  177.8430  143.2850 O   0  0  0  0  0  0  0  0  0  0  0  0
  181.3620  178.7480  141.8510 N   0  0  0  0  0  0  0  0  0  0  0  0
  182.2270  178.2600  143.9830 O   0  0  0  0  0  0  0  0  0  0  0  0
  180.0360  178.2720  142.1440 C   0  0  0  0  0  3  0  0  0  0  0  0
  182.4130  178.7540  142.8390 C   0  0  0  0  0  0  0  0  0  0  0  0
  184.7130  178.3010  142.5540 O   0  0  0  0  0  1  0  0  0  0  0  0
  183.7590  179.3180  142.5220 C   0  0  0  0  0  2  0  0  0  0  0  0
  1 26  1  1  0  0  0
  2 15  1  6  0  0  0
  2  5  1  0  0  0  0
  3  4  1  0  0  0  0
  4  2  1  0  0  0  0
  4  9  1  0  0  0  0
  5  6  1  6  0  0  0
  5  7  1  0  0  0  0
  7  1  1  6  0  0  0
  9  8  1  6  0  0  0
  9  7  1  0  0  0  0
 10 13  1  0  0  0  0
 10 12  1  0  0  0  0
 11 16  1  0  0  0  0
 11 14  2  0  0  0  0
 14 15  1  0  0  0  0
 15 13  2  0  0  0  0
 16 10  2  0  0  0  0
 17  1  1  0  0  0  0
 18 19  2  0  0  0  0
 19 17  1  0  0  0  0
 21 24  2  0  0  0  0
 21 18  1  0  0  0  0
 22 21  1  0  0  0  0
 23 20  1  0  0  0  0
 23 17  2  0  0  0  0
 24 23  1  0  0  0  0
 26 28  1  0  0  0  0
 26 29  1  0  0  0  0
 28 25  2  0  0  0  0
 29 27  2  0  0  0  0
 31 30  1  0  0  0  0
 31 29  1  0  0  0  0
M  END
>  <MODEL>
6

>  <REMARK>
 VINA RESULT:      -5.5      7.673     10.119
  Name = 
  5 active torsions:
  status: ('A' for Active; 'I' for Inactive)
    1  A    between atoms: C_3  and  C_22
    2  A    between atoms: C_4  and  C_5
    3  A    between atoms: C_4  and  N_12
    4  A    between atoms: C_4  and  C_21
    5  A    between atoms: C_27  and  C_28
                            x       y       z     vdW  Elec       q    Type
                         _______ _______ _______ _____ _____    ______ ____

>  <TORSDO>
F 5

$$$$
=
 OpenBabel10262419253D

 31 33  0  0  1  0  0  0  0  0999 V2000
  183.7150  176.5810  138.4390 C   0  0  2  0  0  3  0  0  0  0  0  0
  184.5210  177.9850  141.2520 C   0  0  2  0  0  3  0  0  0  0  0  0
  186.2560  178.9960  140.2180 O   0  0  0  0  0  1  0  0  0  0  0  0
  184.9240  179.1190  140.4300 N   0  0  0  0  0  0  0  0  0  0  0  0
  183.1920  177.4640  140.7230 C   0  0  1  0  0  3  0  0  0  0  0  0
  181.9860  178.1710  141.3280 C   0  0  0  0  0  1  0  0  0  0  0  0
  183.2500  177.8000  139.2500 C   0  0  1  0  0  3  0  0  0  0  0  0
  183.5770  180.2120  138.7260 C   0  0  0  0  0  1  0  0  0  0  0  0
  184.2730  178.9290  139.1370 C   0  0  1  0  0  3  0  0  0  0  0  0
  185.6790  178.2520  144.8760 C   0  0  0  0  0  0  0  0  0  0  0  0
  183.5080  179.3020  144.6630 C   0  0  0  0  0  3  0  0  0  0  0  0
  187.0520  177.7970  145.8610 Cl  0  0  0  0  0  0  0  0  0  0  0  0
  185.6590  177.9330  143.5160 C   0  0  0  0  0  3  0  0  0  0  0  0
  183.4870  178.9830  143.3010 C   0  0  0  0  0  3  0  0  0  0  0  0
  184.5580  178.2920  142.7230 C   0  0  0  0  0  0  0  0  0  0  0  0
  184.6030  178.9360  145.4500 C   0  0  0  0  0  3  0  0  0  0  0  0
  184.8120  176.8610  137.4420 C   0  0  0  0  0  0  0  0  0  0  0  0
  187.1990  176.8690  136.9900 C   0  0  0  0  0  3  0  0  0  0  0  0
  186.1310  176.6480  137.8610 C   0  0  0  0  0  3  0  0  0  0  0  0
  183.2500  177.5320  135.6430 N   0  0  0  0  0  1  0  0  0  0  0  0
  186.9580  177.3050  135.6870 C   0  0  0  0  0  0  0  0  0  0  0  0
  188.2960  177.5830  134.5940 Cl  0  0  0  0  0  0  0  0  0  0  0  0
  184.5710  177.2980  136.1190 C   0  0  0  0  0  0  0  0  0  0  0  0
  185.6470  177.5180  135.2530 C   0  0  0  0  0  3  0  0  0  0  0  0
  180.3250  175.8920  137.2180 O   0  0  0  0  0  0  0  0  0  0  0  0
  182.6040  175.8380  137.8320 N   0  0  0  0  0  0  0  0  0  0  0  0
  181.9220  173.8310  136.8140 O   0  0  0  0  0  0  0  0  0  0  0  0
  181.3250  176.4830  137.7060 C   0  0  0  0  0  3  0  0  0  0  0  0
  182.8280  174.4800  137.4000 C   0  0  0  0  0  0  0  0  0  0  0  0
  184.7260  173.5190  136.3740 O   0  0  0  0  0  1  0  0  0  0  0  0
  184.1500  173.8170  137.6090 C   0  0  0  0  0  2  0  0  0  0  0  0
  1 26  1  6  0  0  0
  2 15  1  1  0  0  0
  3  4  1  0  0  0  0
  4  2  1  0  0  0  0
  5  2  1  0  0  0  0
  5  6  1  1  0  0  0
  7  1  1  6  0  0  0
  7  5  1  0  0  0  0
  9  8  1  1  0  0  0
  9  7  1  0  0  0  0
  9  4  1  0  0  0  0
 10 16  1  0  0  0  0
 10 12  1  0  0  0  0
 11 16  2  0  0  0  0
 13 10  2  0  0  0  0
 14 11  1  0  0  0  0
 15 14  2  0  0  0  0
 15 13  1  0  0  0  0
 17 19  1  0  0  0  0
 17  1  1  0  0  0  0
 18 19  2  0  0  0  0
 20 23  1  0  0  0  0
 21 18  1  0  0  0  0
 22 21  1  0  0  0  0
 23 17  2  0  0  0  0
 24 21  2  0  0  0  0
 24 23  1  0  0  0  0
 25 28  2  0  0  0  0
 27 29  2  0  0  0  0
 28 26  1  0  0  0  0
 29 31  1  0  0  0  0
 29 26  1  0  0  0  0
 30 31  1  0  0  0  0
M  END
>  <MODEL>
7

>  <REMARK>
 VINA RESULT:      -5.3      4.238      5.822
  Name = 
  5 active torsions:
  status: ('A' for Active; 'I' for Inactive)
    1  A    between atoms: C_3  and  C_22
    2  A    between atoms: C_4  and  C_5
    3  A    between atoms: C_4  and  N_12
    4  A    between atoms: C_4  and  C_21
    5  A    between atoms: C_27  and  C_28
                            x       y       z     vdW  Elec       q    Type
                         _______ _______ _______ _____ _____    ______ ____

>  <TORSDO>
F 5

$$$$
=
 OpenBabel10262419253D

 31 33  0  0  1  0  0  0  0  0999 V2000
  187.7960  176.1820  137.7270 C   0  0  2  0  0  3  0  0  0  0  0  0
  189.2120  177.0590  140.5130 C   0  0  2  0  0  3  0  0  0  0  0  0
  191.2070  177.0940  139.4560 O   0  0  0  0  0  1  0  0  0  0  0  0
  190.1020  177.8460  139.6700 N   0  0  0  0  0  0  0  0  0  0  0  0
  187.7900  177.2370  139.9980 C   0  0  1  0  0  3  0  0  0  0  0  0
  187.0820  178.4470  140.5960 C   0  0  0  0  0  1  0  0  0  0  0  0
  187.9860  177.4850  138.5190 C   0  0  1  0  0  3  0  0  0  0  0  0
  189.4300  179.4320  137.9530 C   0  0  0  0  0  1  0  0  0  0  0  0
  189.4260  177.9770  138.3830 C   0  0  1  0  0  3  0  0  0  0  0  0
  190.4800  178.5380  143.7920 C   0  0  0  0  0  0  0  0  0  0  0  0
  188.7760  176.8880  144.2780 C   0  0  0  0  0  3  0  0  0  0  0  0
  191.6360  179.7290  144.3430 Cl  0  0  0  0  0  0  0  0  0  0  0  0
  190.3330  178.2880  142.4250 C   0  0  0  0  0  3  0  0  0  0  0  0
  188.6280  176.6370  142.9100 C   0  0  0  0  0  3  0  0  0  0  0  0
  189.4090  177.3300  141.9780 C   0  0  0  0  0  0  0  0  0  0  0  0
  189.7020  177.8380  144.7190 C   0  0  0  0  0  3  0  0  0  0  0  0
  188.9890  175.7560  136.9090 C   0  0  0  0  0  0  0  0  0  0  0  0
  190.9100  174.2800  136.7250 C   0  0  0  0  0  3  0  0  0  0  0  0
  189.7970  174.7400  137.4320 C   0  0  0  0  0  3  0  0  0  0  0  0
  188.5180  177.3430  135.0690 N   0  0  0  0  0  1  0  0  0  0  0  0
  191.2230  174.8320  135.4810 C   0  0  0  0  0  0  0  0  0  0  0  0
  192.6170  174.2560  134.5950 Cl  0  0  0  0  0  0  0  0  0  0  0  0
  189.3060  176.3080  135.6460 C   0  0  0  0  0  0  0  0  0  0  0  0
  190.4220  175.8420  134.9440 C   0  0  0  0  0  3  0  0  0  0  0  0
  184.8790  177.4740  135.9150 O   0  0  0  0  0  0  0  0  0  0  0  0
  186.5590  176.1660  136.9370 N   0  0  0  0  0  0  0  0  0  0  0  0
  184.9590  174.8380  135.8390 O   0  0  0  0  0  0  0  0  0  0  0  0
  185.9540  177.4190  136.5700 C   0  0  0  0  0  3  0  0  0  0  0  0
  185.9810  174.8960  136.5730 C   0  0  0  0  0  0  0  0  0  0  0  0
  185.7670  173.0030  137.9690 O   0  0  0  0  0  1  0  0  0  0  0  0
  186.5970  173.6140  137.0290 C   0  0  0  0  0  2  0  0  0  0  0  0
  1 26  1  6  0  0  0
  2 15  1  1  0  0  0
  3  4  1  0  0  0  0
  4  2  1  0  0  0  0
  5  2  1  0  0  0  0
  5  6  1  1  0  0  0
  7  1  1  6  0  0  0
  7  5  1  0  0  0  0
  9  8  1  1  0  0  0
  9  7  1  0  0  0  0
  9  4  1  0  0  0  0
 10 12  1  0  0  0  0
 10 16  1  0  0  0  0
 11 16  2  0  0  0  0
 13 10  2  0  0  0  0
 14 11  1  0  0  0  0
 15 13  1  0  0  0  0
 15 14  2  0  0  0  0
 17 19  1  0  0  0  0
 17  1  1  0  0  0  0
 18 19  2  0  0  0  0
 20 23  1  0  0  0  0
 21 18  1  0  0  0  0
 22 21  1  0  0  0  0
 23 17  2  0  0  0  0
 24 21  2  0  0  0  0
 24 23  1  0  0  0  0
 25 28  2  0  0  0  0
 27 29  2  0  0  0  0
 28 26  1  0  0  0  0
 29 26  1  0  0  0  0
 29 31  1  0  0  0  0
 31 30  1  0  0  0  0
M  END
>  <MODEL>
8

>  <REMARK>
 VINA RESULT:      -5.3      2.564      3.348
  Name = 
  5 active torsions:
  status: ('A' for Active; 'I' for Inactive)
    1  A    between atoms: C_3  and  C_22
    2  A    between atoms: C_4  and  C_5
    3  A    between atoms: C_4  and  N_12
    4  A    between atoms: C_4  and  C_21
    5  A    between atoms: C_27  and  C_28
                            x       y       z     vdW  Elec       q    Type
                         _______ _______ _______ _____ _____    ______ ____

>  <TORSDO>
F 5

$$$$
=
 OpenBabel10262419253D

 31 33  0  0  1  0  0  0  0  0999 V2000
  181.6690  178.0230  138.3470 C   0  0  2  0  0  3  0  0  0  0  0  0
  180.8600  180.6050  136.5540 C   0  0  2  0  0  3  0  0  0  0  0  0
  181.4660  179.4710  134.6970 O   0  0  0  0  0  1  0  0  0  0  0  0
  180.4340  179.6280  135.5600 N   0  0  0  0  0  0  0  0  0  0  0  0
  180.3850  180.1300  137.9200 C   0  0  1  0  0  3  0  0  0  0  0  0
  178.9710  180.5890  138.2570 C   0  0  0  0  0  1  0  0  0  0  0  0
  180.3740  178.6250  137.7790 C   0  0  1  0  0  3  0  0  0  0  0  0
  178.9460  177.7440  135.9400 C   0  0  0  0  0  1  0  0  0  0  0  0
  180.2880  178.3650  136.2760 C   0  0  1  0  0  3  0  0  0  0  0  0
  180.4470  184.3960  136.6450 C   0  0  0  0  0  0  0  0  0  0  0  0
  179.4780  183.5460  134.5950 C   0  0  0  0  0  3  0  0  0  0  0  0
  180.8400  185.7420  137.6910 Cl  0  0  0  0  0  0  0  0  0  0  0  0
  180.7930  183.0950  137.0210 C   0  0  0  0  0  3  0  0  0  0  0  0
  179.8240  182.2440  134.9710 C   0  0  0  0  0  3  0  0  0  0  0  0
  180.4760  182.0120  136.1870 C   0  0  0  0  0  0  0  0  0  0  0  0
  179.7890  184.6220  135.4320 C   0  0  0  0  0  3  0  0  0  0  0  0
  181.9420  176.5990  137.9330 C   0  0  0  0  0  0  0  0  0  0  0  0
  181.2500  174.2730  138.0580 C   0  0  0  0  0  3  0  0  0  0  0  0
  181.0720  175.6120  138.4110 C   0  0  0  0  0  3  0  0  0  0  0  0
  183.9190  177.1880  136.5650 N   0  0  0  0  0  1  0  0  0  0  0  0
  182.3030  173.9080  137.2180 C   0  0  0  0  0  0  0  0  0  0  0  0
  182.5280  172.2300  136.7750 Cl  0  0  0  0  0  0  0  0  0  0  0  0
  183.0040  176.2250  137.0780 C   0  0  0  0  0  0  0  0  0  0  0  0
  183.1770  174.8820  136.7290 C   0  0  0  0  0  3  0  0  0  0  0  0
  180.6900  178.1170  141.8810 O   0  0  0  0  0  0  0  0  0  0  0  0
  181.7980  178.2050  139.7970 N   0  0  0  0  0  0  0  0  0  0  0  0
  183.2340  178.7470  141.5790 O   0  0  0  0  0  0  0  0  0  0  0  0
  180.6530  177.9560  140.6330 C   0  0  0  0  0  3  0  0  0  0  0  0
  183.0620  178.6450  140.3350 C   0  0  0  0  0  0  0  0  0  0  0  0
  184.1820  180.3130  139.0940 O   0  0  0  0  0  1  0  0  0  0  0  0
  184.2100  178.9600  139.4330 C   0  0  0  0  0  2  0  0  0  0  0  0
  1 26  1  1  0  0  0
  2 15  1  6  0  0  0
  2  5  1  0  0  0  0
  3  4  1  0  0  0  0
  4  9  1  0  0  0  0
  4  2  1  0  0  0  0
  5  6  1  6  0  0  0
  7  5  1  0  0  0  0
  7  1  1  6  0  0  0
  9  8  1  1  0  0  0
  9  7  1  0  0  0  0
 10 13  1  0  0  0  0
 10 12  1  0  0  0  0
 11 14  2  0  0  0  0
 11 16  1  0  0  0  0
 14 15  1  0  0  0  0
 15 13  2  0  0  0  0
 16 10  2  0  0  0  0
 17  1  1  0  0  0  0
 17 19  1  0  0  0  0
 18 19  2  0  0  0  0
 20 23  1  0  0  0  0
 21 18  1  0  0  0  0
 22 21  1  0  0  0  0
 23 17  2  0  0  0  0
 24 23  1  0  0  0  0
 24 21  2  0  0  0  0
 26 29  1  0  0  0  0
 26 28  1  0  0  0  0
 28 25  2  0  0  0  0
 29 27  2  0  0  0  0
 30 31  1  0  0  0  0
 31 29  1  0  0  0  0
M  END
>  <MODEL>
9

>  <REMARK>
 VINA RESULT:      -5.2      7.915     10.293
  Name = 
  5 active torsions:
  status: ('A' for Active; 'I' for Inactive)
    1  A    between atoms: C_3  and  C_22
    2  A    between atoms: C_4  and  C_5
    3  A    between atoms: C_4  and  N_12
    4  A    between atoms: C_4  and  C_21
    5  A    between atoms: C_27  and  C_28
                            x       y       z     vdW  Elec       q    Type
                         _______ _______ _______ _____ _____    ______ ____

>  <TORSDO>
F 5

$$$$
