=
 OpenBabel10262422563D

 37 42  0  0  1  0  0  0  0  0999 V2000
  189.1990  178.2690  138.3210 C   0  0  2  0  0  0  0  0  0  0  0  0
  188.7190  176.3760  141.9920 C   0  0  0  0  0  2  0  0  0  0  0  0
  189.5260  176.1230  137.0190 C   0  0  2  0  0  3  0  0  0  0  0  0
  189.0480  178.3560  139.8250 C   0  0  1  0  0  3  0  0  0  0  0  0
  190.2050  177.2250  137.8840 C   0  0  2  0  0  3  0  0  0  0  0  0
  187.7500  177.8000  140.2460 N   0  0  0  0  0  0  0  0  0  0  0  0
  188.2670  176.6460  136.3030 C   0  0  0  0  0  2  0  0  0  0  0  0
  190.8540  176.7260  139.1810 C   0  0  1  0  0  3  0  0  0  0  0  0
  189.2900  179.6020  137.6210 C   0  0  0  0  0  2  0  0  0  0  0  0
  188.3460  178.0340  136.0810 O   0  0  0  0  0  0  0  0  0  0  0  0
  191.4750  177.8080  139.8520 O   0  0  0  0  0  0  0  0  0  0  0  0
  187.7710  177.5350  141.6880 C   0  0  0  0  0  2  0  0  0  0  0  0
  188.1200  178.6650  137.3220 C   0  0  1  0  0  3  0  0  0  0  0  0
  190.1910  177.4440  140.2940 C   0  0  1  0  0  0  0  0  0  0  0  0
  190.1590  176.7650  141.6560 C   0  0  1  0  0  3  0  0  0  0  0  0
  190.6530  177.6390  142.6310 O   0  0  0  0  0  0  0  0  0  0  0  0
  190.3220  177.0530  143.8600 C   0  0  1  0  0  3  0  0  0  0  0  0
  191.5380  176.3710  144.4710 C   0  0  0  0  0  2  0  0  0  0  0  0
  192.2780  175.6020  146.7030 C   0  0  0  0  0  1  0  0  0  0  0  0
  191.6810  176.7590  145.9300 C   0  0  0  0  0  2  0  0  0  0  0  0
  189.7510  178.0990  144.8140 C   0  0  0  0  0  2  0  0  0  0  0  0
  188.7180  177.5060  145.7580 C   0  0  0  0  0  2  0  0  0  0  0  0
  187.0540  177.8880  145.1490 S   0  0  0  0  0  0  0  0  0  0  0  0
  186.4600  178.2740  146.8180 C   0  0  0  0  0  1  0  0  0  0  0  0
  189.1420  174.8610  137.7880 C   0  0  0  0  0  2  0  0  0  0  0  0
  189.6410  173.6040  137.0860 C   0  0  0  0  0  2  0  0  0  0  0  0
  191.3880  172.8980  135.4470 C   0  0  0  0  0  1  0  0  0  0  0  0
  191.0980  173.7420  136.6730 C   0  0  0  0  0  2  0  0  0  0  0  0
  186.8170  178.7660  140.0530 O   0  0  0  0  0  0  0  0  0  0  0  0
  186.0750  178.7980  141.2410 C   0  0  0  0  0  2  0  0  0  0  0  0
  184.0980  179.2910  139.3830 S   0  0  0  0  0  0  0  0  0  0  0  0
  184.6020  178.5320  140.9660 C   0  0  2  0  0  3  0  0  0  0  0  0
  183.7400  179.0530  142.1110 C   0  0  0  0  0  2  0  0  0  0  0  0
  181.4900  179.0380  143.1470 C   0  0  0  0  0  1  0  0  0  0  0  0
  181.6800  179.1360  140.6780 C   0  0  0  0  0  2  0  0  0  0  0  0
  182.3010  178.5790  141.9530 C   0  0  1  0  0  3  0  0  0  0  0  0
  182.4130  178.6040  139.4560 C   0  0  0  0  0  2  0  0  0  0  0  0
  1  9  1  6  0  0  0
  1  4  1  0  0  0  0
  3 25  1  1  0  0  0
  3  5  1  0  0  0  0
  4  6  1  6  0  0  0
  4 14  1  0  0  0  0
  5  1  1  0  0  0  0
  5  8  1  0  0  0  0
  6 12  1  0  0  0  0
  7  3  1  0  0  0  0
  8 11  1  0  0  0  0
  8 14  1  0  0  0  0
 10  7  1  0  0  0  0
 10 13  1  0  0  0  0
 11 14  1  0  0  0  0
 12  2  1  0  0  0  0
 13  9  1  0  0  0  0
 13  1  1  0  0  0  0
 14 15  1  0  0  0  0
 15  2  1  0  0  0  0
 15 16  1  0  0  0  0
 16 17  1  0  0  0  0
 17 18  1  0  0  0  0
 17 21  1  0  0  0  0
 18 20  1  0  0  0  0
 20 19  1  0  0  0  0
 21 22  1  0  0  0  0
 23 22  1  0  0  0  0
 23 24  1  0  0  0  0
 26 25  1  0  0  0  0
 27 28  1  0  0  0  0
 28 26  1  0  0  0  0
 29  6  1  0  0  0  0
 29 30  1  0  0  0  0
 31 37  1  0  0  0  0
 31 32  1  0  0  0  0
 32 30  1  0  0  0  0
 32 33  1  0  0  0  0
 35 36  1  0  0  0  0
 36 33  1  0  0  0  0
 36 34  1  0  0  0  0
 37 35  1  0  0  0  0
M  END
>  <MODEL>
1

>  <REMARK>
 VINA RESULT:      -6.3      0.000      0.000
  Name = 
  13 active torsions:
  status: ('A' for Active; 'I' for Inactive)
    1  A    between atoms: O_1  and  C_33
    2  A    between atoms: O_1  and  C_36
    3  A    between atoms: C_3  and  C_30
    4  A    between atoms: C_3  and  C_32
    5  A    between atoms: C_5  and  C_23
    6  A    between atoms: C_5  and  C_33
    7  A    between atoms: C_6  and  C_31
    8  A    between atoms: C_9  and  C_30
    9  A    between atoms: S_11  and  C_26
   10  A    between atoms: N_14  and  O_37
   11  A    between atoms: C_17  and  C_26
   12  A    between atoms: C_17  and  C_33
   13  A    between atoms: C_31  and  O_37
                            x       y       z     vdW  Elec       q    Type
                         _______ _______ _______ _____ _____    ______ ____

>  <TORSDO>
F 13

$$$$
=
 OpenBabel10262422563D

 37 42  0  0  1  0  0  0  0  0999 V2000
  180.8080  177.8240  138.7840 C   0  0  2  0  0  0  0  0  0  0  0  0
  184.7180  179.0440  139.4980 C   0  0  0  0  0  2  0  0  0  0  0  0
  179.8930  180.1740  138.5590 C   0  0  2  0  0  3  0  0  0  0  0  0
  182.2350  177.4820  139.1550 C   0  0  1  0  0  3  0  0  0  0  0  0
  180.2680  179.0220  139.5370 C   0  0  2  0  0  3  0  0  0  0  0  0
  183.1530  177.8280  138.0550 N   0  0  0  0  0  0  0  0  0  0  0  0
  179.5430  179.6470  137.1550 C   0  0  0  0  0  2  0  0  0  0  0  0
  181.3510  179.3700  140.5660 C   0  0  1  0  0  3  0  0  0  0  0  0
  179.8820  176.6370  138.6880 C   0  0  0  0  0  2  0  0  0  0  0  0
  179.0540  178.3270  137.2120 O   0  0  0  0  0  0  0  0  0  0  0  0
  181.5700  178.2630  141.4230 O   0  0  0  0  0  0  0  0  0  0  0  0
  184.5320  177.8590  138.5530 C   0  0  0  0  0  2  0  0  0  0  0  0
  180.1610  177.4860  137.4470 C   0  0  1  0  0  3  0  0  0  0  0  0
  182.4660  178.4180  140.3510 C   0  0  1  0  0  0  0  0  0  0  0  0
  183.8660  178.8630  140.7540 C   0  0  1  0  0  3  0  0  0  0  0  0
  184.4450  177.8990  141.5860 O   0  0  0  0  0  0  0  0  0  0  0  0
  185.4350  178.5780  142.3100 C   0  0  1  0  0  3  0  0  0  0  0  0
  184.8030  179.5710  143.2750 C   0  0  0  0  0  2  0  0  0  0  0  0
  182.8880  178.8400  144.6580 C   0  0  0  0  0  1  0  0  0  0  0  0
  184.3980  178.8740  144.5580 C   0  0  0  0  0  2  0  0  0  0  0  0
  186.3230  177.5880  143.0580 C   0  0  0  0  0  2  0  0  0  0  0  0
  187.8010  177.8500  142.8120 C   0  0  0  0  0  2  0  0  0  0  0  0
  188.0410  178.3920  141.0990 S   0  0  0  0  0  0  0  0  0  0  0  0
  189.4450  177.2690  140.8710 C   0  0  0  0  0  1  0  0  0  0  0  0
  180.9650  181.2500  138.4050 C   0  0  0  0  0  2  0  0  0  0  0  0
  180.7420  182.0870  137.1510 C   0  0  0  0  0  2  0  0  0  0  0  0
  181.1390  184.3710  136.2230 C   0  0  0  0  0  1  0  0  0  0  0  0
  180.7820  183.5750  137.4640 C   0  0  0  0  0  2  0  0  0  0  0  0
  183.0980  176.8150  137.1530 O   0  0  0  0  0  0  0  0  0  0  0  0
  184.1060  175.9240  137.5470 C   0  0  0  0  0  2  0  0  0  0  0  0
  184.7870  173.3840  136.7180 S   0  0  0  0  0  0  0  0  0  0  0  0
  183.5920  174.4920  137.5430 C   0  0  2  0  0  3  0  0  0  0  0  0
  182.2280  174.4130  136.8650 C   0  0  0  0  0  2  0  0  0  0  0  0
  180.2220  173.0160  136.4640 C   0  0  0  0  0  1  0  0  0  0  0  0
  182.4600  171.9530  136.4210 C   0  0  0  0  0  2  0  0  0  0  0  0
  181.6090  173.0370  137.0710 C   0  0  1  0  0  3  0  0  0  0  0  0
  183.8260  171.8820  137.0870 C   0  0  0  0  0  2  0  0  0  0  0  0
  1  9  1  1  0  0  0
  1  4  1  0  0  0  0
  1  5  1  0  0  0  0
  2 15  1  0  0  0  0
  3 25  1  6  0  0  0
  3  5  1  0  0  0  0
  4  6  1  6  0  0  0
  4 14  1  0  0  0  0
  5  8  1  0  0  0  0
  6 12  1  0  0  0  0
  7 10  1  0  0  0  0
  7  3  1  0  0  0  0
  8 11  1  0  0  0  0
 10 13  1  0  0  0  0
 12  2  1  0  0  0  0
 13  9  1  0  0  0  0
 13  1  1  0  0  0  0
 14  8  1  0  0  0  0
 14 15  1  0  0  0  0
 14 11  1  0  0  0  0
 15 16  1  0  0  0  0
 16 17  1  0  0  0  0
 17 21  1  0  0  0  0
 17 18  1  0  0  0  0
 18 20  1  0  0  0  0
 20 19  1  0  0  0  0
 22 21  1  0  0  0  0
 23 22  1  0  0  0  0
 24 23  1  0  0  0  0
 26 28  1  0  0  0  0
 26 25  1  0  0  0  0
 27 28  1  0  0  0  0
 29 30  1  0  0  0  0
 29  6  1  0  0  0  0
 31 37  1  0  0  0  0
 31 32  1  0  0  0  0
 32 30  1  0  0  0  0
 33 36  1  0  0  0  0
 33 32  1  0  0  0  0
 34 36  1  0  0  0  0
 35 36  1  0  0  0  0
 35 37  1  0  0  0  0
M  END
>  <MODEL>
2

>  <REMARK>
 VINA RESULT:      -6.3      4.166      8.324
  Name = 
  13 active torsions:
  status: ('A' for Active; 'I' for Inactive)
    1  A    between atoms: O_1  and  C_33
    2  A    between atoms: O_1  and  C_36
    3  A    between atoms: C_3  and  C_30
    4  A    between atoms: C_3  and  C_32
    5  A    between atoms: C_5  and  C_23
    6  A    between atoms: C_5  and  C_33
    7  A    between atoms: C_6  and  C_31
    8  A    between atoms: C_9  and  C_30
    9  A    between atoms: S_11  and  C_26
   10  A    between atoms: N_14  and  O_37
   11  A    between atoms: C_17  and  C_26
   12  A    between atoms: C_17  and  C_33
   13  A    between atoms: C_31  and  O_37
                            x       y       z     vdW  Elec       q    Type
                         _______ _______ _______ _____ _____    ______ ____

>  <TORSDO>
F 13

$$$$
=
 OpenBabel10262422563D

 37 42  0  0  1  0  0  0  0  0999 V2000
  181.1150  177.8590  138.3430 C   0  0  2  0  0  0  0  0  0  0  0  0
  184.6810  179.3520  139.8730 C   0  0  0  0  0  2  0  0  0  0  0  0
  179.9630  180.1120  138.2570 C   0  0  2  0  0  3  0  0  0  0  0  0
  182.4960  177.6130  138.9110 C   0  0  1  0  0  3  0  0  0  0  0  0
  180.3180  178.8750  139.1340 C   0  0  2  0  0  3  0  0  0  0  0  0
  183.5270  178.2030  138.0390 N   0  0  0  0  0  0  0  0  0  0  0  0
  179.9080  179.7590  136.7590 C   0  0  0  0  0  2  0  0  0  0  0  0
  181.1730  179.1790  140.3710 C   0  0  1  0  0  3  0  0  0  0  0  0
  180.3690  176.6110  137.9400 C   0  0  0  0  0  2  0  0  0  0  0  0
  179.5830  178.4030  136.5650 O   0  0  0  0  0  0  0  0  0  0  0  0
  181.3880  177.9880  141.1080 O   0  0  0  0  0  0  0  0  0  0  0  0
  184.7940  178.3020  138.7700 C   0  0  0  0  0  2  0  0  0  0  0  0
  180.7340  177.6530  136.8830 C   0  0  1  0  0  3  0  0  0  0  0  0
  182.4170  178.3860  140.2360 C   0  0  1  0  0  0  0  0  0  0  0  0
  183.6690  178.9070  140.9280 C   0  0  1  0  0  3  0  0  0  0  0  0
  184.2240  177.8970  141.7220 O   0  0  0  0  0  0  0  0  0  0  0  0
  185.0120  178.5600  142.6720 C   0  0  1  0  0  3  0  0  0  0  0  0
  184.2520  178.7160  143.9810 C   0  0  0  0  0  2  0  0  0  0  0  0
  184.8500  178.3890  146.3590 C   0  0  0  0  0  1  0  0  0  0  0  0
  185.1940  179.1400  145.0900 C   0  0  0  0  0  2  0  0  0  0  0  0
  186.3240  177.8110  142.8940 C   0  0  0  0  0  2  0  0  0  0  0  0
  187.4150  178.2810  141.9460 C   0  0  0  0  0  2  0  0  0  0  0  0
  189.0150  177.6320  142.4990 S   0  0  0  0  0  0  0  0  0  0  0  0
  188.2230  176.3070  143.4500 C   0  0  0  0  0  1  0  0  0  0  0  0
  180.9050  181.3020  138.4280 C   0  0  0  0  0  2  0  0  0  0  0  0
  180.2700  182.5940  137.9290 C   0  0  0  0  0  2  0  0  0  0  0  0
  181.0420  184.8690  137.2470 C   0  0  0  0  0  1  0  0  0  0  0  0
  181.2270  183.3770  137.0450 C   0  0  0  0  0  2  0  0  0  0  0  0
  183.7410  177.3310  137.0220 O   0  0  0  0  0  0  0  0  0  0  0  0
  185.0750  176.9250  137.1680 C   0  0  0  0  0  2  0  0  0  0  0  0
  183.9860  174.4270  137.5860 S   0  0  0  0  0  0  0  0  0  0  0  0
  185.2430  175.4680  136.7660 C   0  0  2  0  0  3  0  0  0  0  0  0
  186.6480  174.9780  137.1000 C   0  0  0  0  0  2  0  0  0  0  0  0
  188.3230  173.1850  136.7600 C   0  0  0  0  0  1  0  0  0  0  0  0
  185.9430  172.5690  137.0700 C   0  0  0  0  0  2  0  0  0  0  0  0
  186.8940  173.6060  136.4870 C   0  0  1  0  0  3  0  0  0  0  0  0
  184.5030  172.9130  136.7160 C   0  0  0  0  0  2  0  0  0  0  0  0
  1  9  1  1  0  0  0
  1  4  1  0  0  0  0
  1  5  1  0  0  0  0
  2 15  1  0  0  0  0
  3 25  1  6  0  0  0
  3  5  1  0  0  0  0
  4  6  1  6  0  0  0
  4 14  1  0  0  0  0
  5  8  1  0  0  0  0
  6 12  1  0  0  0  0
  7  3  1  0  0  0  0
  8 11  1  0  0  0  0
 10  7  1  0  0  0  0
 10 13  1  0  0  0  0
 12  2  1  0  0  0  0
 13  9  1  0  0  0  0
 13  1  1  0  0  0  0
 14  8  1  0  0  0  0
 14 15  1  0  0  0  0
 14 11  1  0  0  0  0
 15 16  1  0  0  0  0
 16 17  1  0  0  0  0
 17 21  1  0  0  0  0
 17 18  1  0  0  0  0
 18 20  1  0  0  0  0
 20 19  1  0  0  0  0
 22 23  1  0  0  0  0
 22 21  1  0  0  0  0
 23 24  1  0  0  0  0
 26 25  1  0  0  0  0
 28 27  1  0  0  0  0
 28 26  1  0  0  0  0
 29 30  1  0  0  0  0
 29  6  1  0  0  0  0
 32 33  1  0  0  0  0
 32 30  1  0  0  0  0
 32 31  1  0  0  0  0
 36 34  1  0  0  0  0
 36 35  1  0  0  0  0
 36 33  1  0  0  0  0
 37 35  1  0  0  0  0
 37 31  1  0  0  0  0
M  END
>  <MODEL>
3

>  <REMARK>
 VINA RESULT:      -6.2      3.516      8.215
  Name = 
  13 active torsions:
  status: ('A' for Active; 'I' for Inactive)
    1  A    between atoms: O_1  and  C_33
    2  A    between atoms: O_1  and  C_36
    3  A    between atoms: C_3  and  C_30
    4  A    between atoms: C_3  and  C_32
    5  A    between atoms: C_5  and  C_23
    6  A    between atoms: C_5  and  C_33
    7  A    between atoms: C_6  and  C_31
    8  A    between atoms: C_9  and  C_30
    9  A    between atoms: S_11  and  C_26
   10  A    between atoms: N_14  and  O_37
   11  A    between atoms: C_17  and  C_26
   12  A    between atoms: C_17  and  C_33
   13  A    between atoms: C_31  and  O_37
                            x       y       z     vdW  Elec       q    Type
                         _______ _______ _______ _____ _____    ______ ____

>  <TORSDO>
F 13

$$$$
=
 OpenBabel10262422563D

 37 42  0  0  1  0  0  0  0  0999 V2000
  188.3500  177.5350  136.7650 C   0  0  2  0  0  0  0  0  0  0  0  0
  191.3700  174.7740  137.5020 C   0  0  0  0  0  2  0  0  0  0  0  0
  186.6640  175.8060  136.0050 C   0  0  2  0  0  3  0  0  0  0  0  0
  189.7900  177.2410  137.1280 C   0  0  1  0  0  3  0  0  0  0  0  0
  187.8540  176.7200  135.5890 C   0  0  2  0  0  3  0  0  0  0  0  0
  189.8620  176.4890  138.3930 N   0  0  0  0  0  0  0  0  0  0  0  0
  185.8940  176.3760  137.2110 C   0  0  0  0  0  2  0  0  0  0  0  0
  189.0910  175.9790  135.0650 C   0  0  1  0  0  3  0  0  0  0  0  0
  187.9950  179.0010  136.7440 C   0  0  0  0  0  2  0  0  0  0  0  0
  186.0080  177.7780  137.2730 O   0  0  0  0  0  0  0  0  0  0  0  0
  190.0810  176.9160  134.6770 O   0  0  0  0  0  0  0  0  0  0  0  0
  191.1900  175.8850  138.5340 C   0  0  0  0  0  2  0  0  0  0  0  0
  187.3070  178.0660  137.7400 C   0  0  1  0  0  3  0  0  0  0  0  0
  190.2170  176.3460  135.9550 C   0  0  1  0  0  0  0  0  0  0  0  0
  191.3670  175.3560  136.0880 C   0  0  1  0  0  3  0  0  0  0  0  0
  192.5800  176.0070  135.8400 O   0  0  0  0  0  0  0  0  0  0  0  0
  193.5590  175.0070  135.9050 C   0  0  1  0  0  3  0  0  0  0  0  0
  193.6250  174.2360  134.5940 C   0  0  0  0  0  2  0  0  0  0  0  0
  192.8370  172.0120  135.3360 C   0  0  0  0  0  1  0  0  0  0  0  0
  194.0350  172.7990  134.8470 C   0  0  0  0  0  2  0  0  0  0  0  0
  194.9200  175.6120  136.2450 C   0  0  0  0  0  2  0  0  0  0  0  0
  195.5980  176.2100  135.0220 C   0  0  0  0  0  2  0  0  0  0  0  0
  197.3360  175.6950  134.9840 S   0  0  0  0  0  0  0  0  0  0  0  0
  197.1780  174.8150  136.5610 C   0  0  0  0  0  1  0  0  0  0  0  0
  187.0550  174.3670  136.3330 C   0  0  0  0  0  2  0  0  0  0  0  0
  186.0070  173.3760  135.8400 C   0  0  0  0  0  2  0  0  0  0  0  0
  183.9220  172.7360  137.0550 C   0  0  0  0  0  1  0  0  0  0  0  0
  185.4280  172.5650  136.9880 C   0  0  0  0  0  2  0  0  0  0  0  0
  189.7450  177.3880  139.4020 O   0  0  0  0  0  0  0  0  0  0  0  0
  190.3380  176.7690  140.5110 C   0  0  0  0  0  2  0  0  0  0  0  0
  191.4470  177.6030  142.8930 S   0  0  0  0  0  0  0  0  0  0  0  0
  189.9920  177.5100  141.7930 C   0  0  2  0  0  3  0  0  0  0  0  0
  188.8240  176.8350  142.5040 C   0  0  0  0  0  2  0  0  0  0  0  0
  187.1110  177.0510  144.2810 C   0  0  0  0  0  1  0  0  0  0  0  0
  189.4050  177.8850  144.7090 C   0  0  0  0  0  2  0  0  0  0  0  0
  188.3240  177.7030  143.6510 C   0  0  1  0  0  3  0  0  0  0  0  0
  190.5940  178.6350  144.1270 C   0  0  0  0  0  2  0  0  0  0  0  0
  1  9  1  6  0  0  0
  1  4  1  0  0  0  0
  1 13  1  0  0  0  0
  2 12  1  0  0  0  0
  3 25  1  1  0  0  0
  3  7  1  0  0  0  0
  4  6  1  1  0  0  0
  5  3  1  0  0  0  0
  5  1  1  0  0  0  0
  6 12  1  0  0  0  0
  6 29  1  0  0  0  0
  7 10  1  0  0  0  0
  8  5  1  0  0  0  0
  8 14  1  0  0  0  0
  9 13  1  0  0  0  0
 10 13  1  0  0  0  0
 11  8  1  0  0  0  0
 11 14  1  0  0  0  0
 14 15  1  0  0  0  0
 14  4  1  0  0  0  0
 15  2  1  0  0  0  0
 16 17  1  0  0  0  0
 16 15  1  0  0  0  0
 17 21  1  0  0  0  0
 18 20  1  0  0  0  0
 18 17  1  0  0  0  0
 20 19  1  0  0  0  0
 22 21  1  0  0  0  0
 23 22  1  0  0  0  0
 23 24  1  0  0  0  0
 26 25  1  0  0  0  0
 26 28  1  0  0  0  0
 28 27  1  0  0  0  0
 29 30  1  0  0  0  0
 30 32  1  0  0  0  0
 31 37  1  0  0  0  0
 32 33  1  0  0  0  0
 32 31  1  0  0  0  0
 33 36  1  0  0  0  0
 36 34  1  0  0  0  0
 36 35  1  0  0  0  0
 37 35  1  0  0  0  0
M  END
>  <MODEL>
4

>  <REMARK>
 VINA RESULT:      -6.2      3.672      7.315
  Name = 
  13 active torsions:
  status: ('A' for Active; 'I' for Inactive)
    1  A    between atoms: O_1  and  C_33
    2  A    between atoms: O_1  and  C_36
    3  A    between atoms: C_3  and  C_30
    4  A    between atoms: C_3  and  C_32
    5  A    between atoms: C_5  and  C_23
    6  A    between atoms: C_5  and  C_33
    7  A    between atoms: C_6  and  C_31
    8  A    between atoms: C_9  and  C_30
    9  A    between atoms: S_11  and  C_26
   10  A    between atoms: N_14  and  O_37
   11  A    between atoms: C_17  and  C_26
   12  A    between atoms: C_17  and  C_33
   13  A    between atoms: C_31  and  O_37
                            x       y       z     vdW  Elec       q    Type
                         _______ _______ _______ _____ _____    ______ ____

>  <TORSDO>
F 13

$$$$
=
 OpenBabel10262422563D

 37 42  0  0  1  0  0  0  0  0999 V2000
  188.9350  178.3060  138.1460 C   0  0  2  0  0  0  0  0  0  0  0  0
  188.4110  176.7190  141.9530 C   0  0  0  0  0  2  0  0  0  0  0  0
  189.1940  176.0570  137.0140 C   0  0  2  0  0  3  0  0  0  0  0  0
  188.7910  178.5140  139.6380 C   0  0  1  0  0  3  0  0  0  0  0  0
  189.9080  177.2020  137.7900 C   0  0  2  0  0  3  0  0  0  0  0  0
  187.4790  178.0320  140.1030 N   0  0  0  0  0  0  0  0  0  0  0  0
  187.9480  176.5600  136.2610 C   0  0  0  0  0  2  0  0  0  0  0  0
  190.5460  176.7850  139.1210 C   0  0  1  0  0  3  0  0  0  0  0  0
  189.0630  179.5780  137.3440 C   0  0  0  0  0  2  0  0  0  0  0  0
  188.0680  177.9240  135.9310 O   0  0  0  0  0  0  0  0  0  0  0  0
  191.2020  177.8980  139.7050 O   0  0  0  0  0  0  0  0  0  0  0  0
  187.4970  177.8790  141.5610 C   0  0  0  0  0  2  0  0  0  0  0  0
  187.8650  178.6550  137.1200 C   0  0  1  0  0  3  0  0  0  0  0  0
  189.9090  177.6080  140.1760 C   0  0  1  0  0  0  0  0  0  0  0  0
  189.8600  177.0370  141.5870 C   0  0  1  0  0  3  0  0  0  0  0  0
  190.3840  177.9690  142.4900 O   0  0  0  0  0  0  0  0  0  0  0  0
  190.2810  177.3650  143.7500 C   0  0  1  0  0  3  0  0  0  0  0  0
  191.6640  177.0940  144.3270 C   0  0  0  0  0  2  0  0  0  0  0  0
  192.0490  175.8650  146.4390 C   0  0  0  0  0  1  0  0  0  0  0  0
  191.7060  175.7220  144.9710 C   0  0  0  0  0  2  0  0  0  0  0  0
  189.4630  178.2400  144.6970 C   0  0  0  0  0  2  0  0  0  0  0  0
  188.3860  177.4450  145.4180 C   0  0  0  0  0  2  0  0  0  0  0  0
  188.8280  177.2800  147.1690 S   0  0  0  0  0  0  0  0  0  0  0  0
  187.3900  178.2530  147.6910 C   0  0  0  0  0  1  0  0  0  0  0  0
  188.7740  174.8700  137.8790 C   0  0  0  0  0  2  0  0  0  0  0  0
  189.1330  173.5430  137.2210 C   0  0  0  0  0  2  0  0  0  0  0  0
  186.6860  173.0470  137.1950 C   0  0  0  0  0  1  0  0  0  0  0  0
  187.9750  173.0020  136.3970 C   0  0  0  0  0  2  0  0  0  0  0  0
  186.5740  179.0070  139.8360 O   0  0  0  0  0  0  0  0  0  0  0  0
  185.6550  178.9490  140.8920 C   0  0  0  0  0  2  0  0  0  0  0  0
  183.0400  178.4820  141.6320 S   0  0  0  0  0  0  0  0  0  0  0  0
  184.2290  179.0670  140.3750 C   0  0  2  0  0  3  0  0  0  0  0  0
  184.0640  178.2880  139.0750 C   0  0  0  0  0  2  0  0  0  0  0  0
  182.6190  177.8790  137.1050 C   0  0  0  0  0  1  0  0  0  0  0  0
  181.5710  178.1530  139.3340 C   0  0  0  0  0  2  0  0  0  0  0  0
  182.7170  178.5970  138.4350 C   0  0  1  0  0  3  0  0  0  0  0  0
  181.5850  178.9390  140.6370 C   0  0  0  0  0  2  0  0  0  0  0  0
  1  9  1  6  0  0  0
  1  4  1  0  0  0  0
  3  5  1  0  0  0  0
  3 25  1  1  0  0  0
  4  6  1  1  0  0  0
  4 14  1  0  0  0  0
  5  1  1  0  0  0  0
  5  8  1  0  0  0  0
  6 12  1  0  0  0  0
  7  3  1  0  0  0  0
  8 11  1  0  0  0  0
  8 14  1  0  0  0  0
 10  7  1  0  0  0  0
 10 13  1  0  0  0  0
 11 14  1  0  0  0  0
 12  2  1  0  0  0  0
 13  9  1  0  0  0  0
 13  1  1  0  0  0  0
 14 15  1  0  0  0  0
 15  2  1  0  0  0  0
 15 16  1  0  0  0  0
 16 17  1  0  0  0  0
 17 18  1  0  0  0  0
 17 21  1  0  0  0  0
 18 20  1  0  0  0  0
 20 19  1  0  0  0  0
 21 22  1  0  0  0  0
 22 23  1  0  0  0  0
 23 24  1  0  0  0  0
 26 25  1  0  0  0  0
 28 27  1  0  0  0  0
 28 26  1  0  0  0  0
 29  6  1  0  0  0  0
 29 30  1  0  0  0  0
 32 30  1  0  0  0  0
 32 31  1  0  0  0  0
 33 32  1  0  0  0  0
 34 36  1  0  0  0  0
 35 37  1  0  0  0  0
 36 33  1  0  0  0  0
 36 35  1  0  0  0  0
 37 31  1  0  0  0  0
M  END
>  <MODEL>
5

>  <REMARK>
 VINA RESULT:      -6.1      1.140      1.840
  Name = 
  13 active torsions:
  status: ('A' for Active; 'I' for Inactive)
    1  A    between atoms: O_1  and  C_33
    2  A    between atoms: O_1  and  C_36
    3  A    between atoms: C_3  and  C_30
    4  A    between atoms: C_3  and  C_32
    5  A    between atoms: C_5  and  C_23
    6  A    between atoms: C_5  and  C_33
    7  A    between atoms: C_6  and  C_31
    8  A    between atoms: C_9  and  C_30
    9  A    between atoms: S_11  and  C_26
   10  A    between atoms: N_14  and  O_37
   11  A    between atoms: C_17  and  C_26
   12  A    between atoms: C_17  and  C_33
   13  A    between atoms: C_31  and  O_37
                            x       y       z     vdW  Elec       q    Type
                         _______ _______ _______ _____ _____    ______ ____

>  <TORSDO>
F 13

$$$$
=
 OpenBabel10262422563D

 37 42  0  0  1  0  0  0  0  0999 V2000
  188.5130  177.5600  136.9280 C   0  0  2  0  0  0  0  0  0  0  0  0
  191.6850  175.0890  137.9850 C   0  0  0  0  0  2  0  0  0  0  0  0
  187.0290  175.6690  136.1340 C   0  0  2  0  0  3  0  0  0  0  0  0
  189.9430  177.4000  137.3980 C   0  0  1  0  0  3  0  0  0  0  0  0
  188.1680  176.6620  135.7580 C   0  0  2  0  0  3  0  0  0  0  0  0
  189.9850  176.7060  138.6970 N   0  0  0  0  0  0  0  0  0  0  0  0
  186.1320  176.2200  137.2590 C   0  0  0  0  0  2  0  0  0  0  0  0
  189.4930  176.0070  135.3510 C   0  0  1  0  0  3  0  0  0  0  0  0
  188.0440  178.9900  136.8180 C   0  0  0  0  0  2  0  0  0  0  0  0
  186.1290  177.6280  137.2670 O   0  0  0  0  0  0  0  0  0  0  0  0
  190.4300  177.0070  134.9890 O   0  0  0  0  0  0  0  0  0  0  0  0
  191.3450  176.2190  138.9530 C   0  0  0  0  0  2  0  0  0  0  0  0
  187.3660  178.0400  137.8060 C   0  0  1  0  0  3  0  0  0  0  0  0
  190.5220  176.4990  136.2970 C   0  0  1  0  0  0  0  0  0  0  0  0
  191.7340  175.6130  136.5500 C   0  0  1  0  0  3  0  0  0  0  0  0
  192.9060  176.3530  136.3550 O   0  0  0  0  0  0  0  0  0  0  0  0
  193.8140  175.4630  135.7660 C   0  0  1  0  0  3  0  0  0  0  0  0
  194.5250  176.1230  134.5940 C   0  0  0  0  0  2  0  0  0  0  0  0
  195.8360  178.2080  134.8330 C   0  0  0  0  0  1  0  0  0  0  0  0
  195.8500  176.7080  135.0430 C   0  0  0  0  0  2  0  0  0  0  0  0
  194.8220  174.9660  136.7990 C   0  0  0  0  0  2  0  0  0  0  0  0
  195.1700  173.5000  136.5960 C   0  0  0  0  0  2  0  0  0  0  0  0
  196.9130  173.2290  137.0150 S   0  0  0  0  0  0  0  0  0  0  0  0
  196.6390  171.4570  137.2900 C   0  0  0  0  0  1  0  0  0  0  0  0
  187.5090  174.2810  136.5500 C   0  0  0  0  0  2  0  0  0  0  0  0
  186.4110  173.4990  137.2610 C   0  0  0  0  0  2  0  0  0  0  0  0
  184.6590  172.4900  135.7960 C   0  0  0  0  0  1  0  0  0  0  0  0
  186.0030  172.2690  136.4650 C   0  0  0  0  0  2  0  0  0  0  0  0
  189.7270  177.6310  139.6560 O   0  0  0  0  0  0  0  0  0  0  0  0
  189.2390  176.8970  140.7450 C   0  0  0  0  0  2  0  0  0  0  0  0
  191.3050  177.5050  142.4660 S   0  0  0  0  0  0  0  0  0  0  0  0
  189.5290  177.6150  142.0550 C   0  0  2  0  0  3  0  0  0  0  0  0
  188.6790  177.0410  143.1820 C   0  0  0  0  0  2  0  0  0  0  0  0
  187.8690  177.3630  145.5010 C   0  0  0  0  0  1  0  0  0  0  0  0
  190.2200  177.9260  144.9550 C   0  0  0  0  0  2  0  0  0  0  0  0
  188.7900  177.9080  144.4290 C   0  0  1  0  0  3  0  0  0  0  0  0
  191.1510  178.5680  143.9360 C   0  0  0  0  0  2  0  0  0  0  0  0
  1  9  1  6  0  0  0
  1  4  1  0  0  0  0
  1 13  1  0  0  0  0
  2 12  1  0  0  0  0
  3 25  1  1  0  0  0
  3  7  1  0  0  0  0
  4  6  1  1  0  0  0
  5  3  1  0  0  0  0
  5  1  1  0  0  0  0
  6 12  1  0  0  0  0
  6 29  1  0  0  0  0
  7 10  1  0  0  0  0
  8  5  1  0  0  0  0
  8 14  1  0  0  0  0
  9 13  1  0  0  0  0
 10 13  1  0  0  0  0
 11  8  1  0  0  0  0
 11 14  1  0  0  0  0
 14 15  1  0  0  0  0
 14  4  1  0  0  0  0
 15  2  1  0  0  0  0
 16 15  1  0  0  0  0
 17 16  1  0  0  0  0
 17 21  1  0  0  0  0
 18 20  1  0  0  0  0
 18 17  1  0  0  0  0
 19 20  1  0  0  0  0
 22 21  1  0  0  0  0
 22 23  1  0  0  0  0
 23 24  1  0  0  0  0
 25 26  1  0  0  0  0
 27 28  1  0  0  0  0
 28 26  1  0  0  0  0
 29 30  1  0  0  0  0
 30 32  1  0  0  0  0
 31 37  1  0  0  0  0
 32 31  1  0  0  0  0
 32 33  1  0  0  0  0
 33 36  1  0  0  0  0
 36 35  1  0  0  0  0
 36 34  1  0  0  0  0
 37 35  1  0  0  0  0
M  END
>  <MODEL>
6

>  <REMARK>
 VINA RESULT:      -6.1      3.733      7.176
  Name = 
  13 active torsions:
  status: ('A' for Active; 'I' for Inactive)
    1  A    between atoms: O_1  and  C_33
    2  A    between atoms: O_1  and  C_36
    3  A    between atoms: C_3  and  C_30
    4  A    between atoms: C_3  and  C_32
    5  A    between atoms: C_5  and  C_23
    6  A    between atoms: C_5  and  C_33
    7  A    between atoms: C_6  and  C_31
    8  A    between atoms: C_9  and  C_30
    9  A    between atoms: S_11  and  C_26
   10  A    between atoms: N_14  and  O_37
   11  A    between atoms: C_17  and  C_26
   12  A    between atoms: C_17  and  C_33
   13  A    between atoms: C_31  and  O_37
                            x       y       z     vdW  Elec       q    Type
                         _______ _______ _______ _____ _____    ______ ____

>  <TORSDO>
F 13

$$$$
=
 OpenBabel10262422563D

 37 42  0  0  1  0  0  0  0  0999 V2000
  187.5540  177.0400  143.6670 C   0  0  2  0  0  0  0  0  0  0  0  0
  190.1470  178.2430  140.6480 C   0  0  0  0  0  2  0  0  0  0  0  0
  189.2280  177.3890  145.5340 C   0  0  2  0  0  3  0  0  0  0  0  0
  187.8530  177.2080  142.1920 C   0  0  1  0  0  3  0  0  0  0  0  0
  188.6980  176.4170  144.4390 C   0  0  2  0  0  3  0  0  0  0  0  0
  188.0540  178.6300  141.8640 N   0  0  0  0  0  0  0  0  0  0  0  0
  188.1450  178.3810  145.9970 C   0  0  0  0  0  2  0  0  0  0  0  0
  189.7260  176.0130  143.3750 C   0  0  1  0  0  3  0  0  0  0  0  0
  186.1820  176.4930  143.9720 C   0  0  0  0  0  2  0  0  0  0  0  0
  186.8550  177.8440  145.8270 O   0  0  0  0  0  0  0  0  0  0  0  0
  189.1410  175.0960  142.4670 O   0  0  0  0  0  0  0  0  0  0  0  0
  188.7090  178.7470  140.5570 C   0  0  0  0  0  2  0  0  0  0  0  0
  186.5640  177.8940  144.4480 C   0  0  1  0  0  3  0  0  0  0  0  0
  189.1790  176.4430  142.0670 C   0  0  1  0  0  0  0  0  0  0  0  0
  190.1680  176.7440  140.9490 C   0  0  1  0  0  3  0  0  0  0  0  0
  189.8150  176.0250  139.8010 O   0  0  0  0  0  0  0  0  0  0  0  0
  190.5780  176.5790  138.7650 C   0  0  1  0  0  3  0  0  0  0  0  0
  191.7260  175.6520  138.3920 C   0  0  0  0  0  2  0  0  0  0  0  0
  193.4010  175.9980  136.6050 C   0  0  0  0  0  1  0  0  0  0  0  0
  192.9390  176.4580  137.9720 C   0  0  0  0  0  2  0  0  0  0  0  0
  189.7000  176.8670  137.5500 C   0  0  0  0  0  2  0  0  0  0  0  0
  188.3550  176.1640  137.6390 C   0  0  0  0  0  2  0  0  0  0  0  0
  187.0460  177.2920  137.0900 S   0  0  0  0  0  0  0  0  0  0  0  0
  188.2260  178.6460  136.8450 C   0  0  0  0  0  1  0  0  0  0  0  0
  190.4610  178.1920  145.1250 C   0  0  0  0  0  2  0  0  0  0  0  0
  191.7440  177.5430  145.6280 C   0  0  0  0  0  2  0  0  0  0  0  0
  192.4290  175.5570  146.9780 C   0  0  0  0  0  1  0  0  0  0  0  0
  191.5030  176.7560  146.9070 C   0  0  0  0  0  2  0  0  0  0  0  0
  186.8250  179.1880  141.7230 O   0  0  0  0  0  0  0  0  0  0  0  0
  186.3070  178.6320  140.5450 C   0  0  0  0  0  2  0  0  0  0  0  0
  183.9130  179.0920  139.2570 S   0  0  0  0  0  0  0  0  0  0  0  0
  184.8120  178.3800  140.6780 C   0  0  2  0  0  3  0  0  0  0  0  0
  184.2860  178.9540  141.9890 C   0  0  0  0  0  2  0  0  0  0  0  0
  182.3890  179.0090  143.5820 C   0  0  0  0  0  1  0  0  0  0  0  0
  181.9210  179.0200  141.1480 C   0  0  0  0  0  2  0  0  0  0  0  0
  182.8540  178.4980  142.2340 C   0  0  1  0  0  3  0  0  0  0  0  0
  182.3030  178.4340  139.7970 C   0  0  0  0  0  2  0  0  0  0  0  0
  1  9  1  6  0  0  0
  1  5  1  0  0  0  0
  1 13  1  0  0  0  0
  2 15  1  0  0  0  0
  3 25  1  6  0  0  0
  3  7  1  0  0  0  0
  4  6  1  1  0  0  0
  4  1  1  0  0  0  0
  5  3  1  0  0  0  0
  8  5  1  0  0  0  0
  9 13  1  0  0  0  0
 10  7  1  0  0  0  0
 11  8  1  0  0  0  0
 12  2  1  0  0  0  0
 12  6  1  0  0  0  0
 13 10  1  0  0  0  0
 14  4  1  0  0  0  0
 14 11  1  0  0  0  0
 14  8  1  0  0  0  0
 15 14  1  0  0  0  0
 16 15  1  0  0  0  0
 17 16  1  0  0  0  0
 18 17  1  0  0  0  0
 19 20  1  0  0  0  0
 20 18  1  0  0  0  0
 21 22  1  0  0  0  0
 21 17  1  0  0  0  0
 23 22  1  0  0  0  0
 24 23  1  0  0  0  0
 25 26  1  0  0  0  0
 26 28  1  0  0  0  0
 28 27  1  0  0  0  0
 29  6  1  0  0  0  0
 30 32  1  0  0  0  0
 30 29  1  0  0  0  0
 31 37  1  0  0  0  0
 31 32  1  0  0  0  0
 32 33  1  0  0  0  0
 33 36  1  0  0  0  0
 35 36  1  0  0  0  0
 36 34  1  0  0  0  0
 37 35  1  0  0  0  0
M  END
>  <MODEL>
7

>  <REMARK>
 VINA RESULT:      -5.7      1.977      6.329
  Name = 
  13 active torsions:
  status: ('A' for Active; 'I' for Inactive)
    1  A    between atoms: O_1  and  C_33
    2  A    between atoms: O_1  and  C_36
    3  A    between atoms: C_3  and  C_30
    4  A    between atoms: C_3  and  C_32
    5  A    between atoms: C_5  and  C_23
    6  A    between atoms: C_5  and  C_33
    7  A    between atoms: C_6  and  C_31
    8  A    between atoms: C_9  and  C_30
    9  A    between atoms: S_11  and  C_26
   10  A    between atoms: N_14  and  O_37
   11  A    between atoms: C_17  and  C_26
   12  A    between atoms: C_17  and  C_33
   13  A    between atoms: C_31  and  O_37
                            x       y       z     vdW  Elec       q    Type
                         _______ _______ _______ _____ _____    ______ ____

>  <TORSDO>
F 13

$$$$
=
 OpenBabel10262422563D

 37 42  0  0  1  0  0  0  0  0999 V2000
  191.0630  177.4850  140.3120 C   0  0  2  0  0  0  0  0  0  0  0  0
  188.1730  175.6180  137.9780 C   0  0  0  0  0  2  0  0  0  0  0  0
  189.7870  177.2140  142.4820 C   0  0  2  0  0  3  0  0  0  0  0  0
  190.5430  177.0900  138.9460 C   0  0  1  0  0  3  0  0  0  0  0  0
  189.9950  178.0810  141.2060 C   0  0  2  0  0  3  0  0  0  0  0  0
  190.4740  175.6240  138.8230 N   0  0  0  0  0  0  0  0  0  0  0  0
  191.0520  176.4140  142.8480 C   0  0  0  0  0  2  0  0  0  0  0  0
  188.7580  178.2260  140.3110 C   0  0  1  0  0  3  0  0  0  0  0  0
  192.3850  178.2120  140.2960 C   0  0  0  0  0  2  0  0  0  0  0  0
  192.2150  177.0580  142.3840 O   0  0  0  0  0  0  0  0  0  0  0  0
  189.0590  179.0710  139.2130 O   0  0  0  0  0  0  0  0  0  0  0  0
  189.6280  175.2630  137.6820 C   0  0  0  0  0  2  0  0  0  0  0  0
  192.2720  176.8540  140.9900 C   0  0  1  0  0  3  0  0  0  0  0  0
  189.1270  177.6850  138.9810 C   0  0  1  0  0  0  0  0  0  0  0  0
  188.0110  177.1330  138.1060 C   0  0  1  0  0  3  0  0  0  0  0  0
  188.0690  177.7250  136.8390 O   0  0  0  0  0  0  0  0  0  0  0  0
  186.7830  178.2300  136.6050 C   0  0  1  0  0  3  0  0  0  0  0  0
  186.2720  177.7810  135.2440 C   0  0  0  0  0  2  0  0  0  0  0  0
  186.1610  175.3450  134.8320 C   0  0  0  0  0  1  0  0  0  0  0  0
  185.4140  176.5390  135.3860 C   0  0  0  0  0  2  0  0  0  0  0  0
  185.8270  177.7910  137.7130 C   0  0  0  0  0  2  0  0  0  0  0  0
  185.0240  178.9570  138.2660 C   0  0  0  0  0  2  0  0  0  0  0  0
  183.9960  178.3810  139.6450 S   0  0  0  0  0  0  0  0  0  0  0  0
  185.1780  179.0030  140.8710 C   0  0  0  0  0  1  0  0  0  0  0  0
  188.6180  176.2360  142.4010 C   0  0  0  0  0  2  0  0  0  0  0  0
  187.6840  176.3790  143.5980 C   0  0  0  0  0  2  0  0  0  0  0  0
  187.0760  177.8760  145.5010 C   0  0  0  0  0  1  0  0  0  0  0  0
  188.1890  177.4320  144.5710 C   0  0  0  0  0  2  0  0  0  0  0  0
  191.7230  175.1860  138.5230 O   0  0  0  0  0  0  0  0  0  0  0  0
  192.0570  175.8350  137.3270 C   0  0  0  0  0  2  0  0  0  0  0  0
  193.8830  175.7640  135.2620 S   0  0  0  0  0  0  0  0  0  0  0  0
  193.5510  175.7390  137.0580 C   0  0  2  0  0  3  0  0  0  0  0  0
  194.1310  174.4800  137.6950 C   0  0  0  0  0  2  0  0  0  0  0  0
  196.2000  173.2870  138.3500 C   0  0  0  0  0  1  0  0  0  0  0  0
  196.1410  174.5020  136.1910 C   0  0  0  0  0  2  0  0  0  0  0  0
  195.6520  174.5040  137.6340 C   0  0  1  0  0  3  0  0  0  0  0  0
  195.6910  175.7690  135.4780 C   0  0  0  0  0  2  0  0  0  0  0  0
  1  9  1  6  0  0  0
  1 13  1  0  0  0  0
  1  5  1  0  0  0  0
  2 15  1  0  0  0  0
  3 25  1  6  0  0  0
  3  7  1  0  0  0  0
  4  6  1  1  0  0  0
  4 14  1  0  0  0  0
  4  1  1  0  0  0  0
  5  3  1  0  0  0  0
  8  5  1  0  0  0  0
  9 13  1  0  0  0  0
 10  7  1  0  0  0  0
 11  8  1  0  0  0  0
 12  2  1  0  0  0  0
 12  6  1  0  0  0  0
 13 10  1  0  0  0  0
 14 11  1  0  0  0  0
 14  8  1  0  0  0  0
 15 14  1  0  0  0  0
 16 15  1  0  0  0  0
 17 16  1  0  0  0  0
 17 21  1  0  0  0  0
 18 20  1  0  0  0  0
 18 17  1  0  0  0  0
 19 20  1  0  0  0  0
 21 22  1  0  0  0  0
 22 23  1  0  0  0  0
 23 24  1  0  0  0  0
 25 26  1  0  0  0  0
 26 28  1  0  0  0  0
 28 27  1  0  0  0  0
 29  6  1  0  0  0  0
 30 29  1  0  0  0  0
 31 37  1  0  0  0  0
 31 32  1  0  0  0  0
 32 30  1  0  0  0  0
 32 33  1  0  0  0  0
 35 36  1  0  0  0  0
 36 33  1  0  0  0  0
 36 34  1  0  0  0  0
 37 35  1  0  0  0  0
M  END
>  <MODEL>
8

>  <REMARK>
 VINA RESULT:      -5.3      3.112      8.685
  Name = 
  13 active torsions:
  status: ('A' for Active; 'I' for Inactive)
    1  A    between atoms: O_1  and  C_33
    2  A    between atoms: O_1  and  C_36
    3  A    between atoms: C_3  and  C_30
    4  A    between atoms: C_3  and  C_32
    5  A    between atoms: C_5  and  C_23
    6  A    between atoms: C_5  and  C_33
    7  A    between atoms: C_6  and  C_31
    8  A    between atoms: C_9  and  C_30
    9  A    between atoms: S_11  and  C_26
   10  A    between atoms: N_14  and  O_37
   11  A    between atoms: C_17  and  C_26
   12  A    between atoms: C_17  and  C_33
   13  A    between atoms: C_31  and  O_37
                            x       y       z     vdW  Elec       q    Type
                         _______ _______ _______ _____ _____    ______ ____

>  <TORSDO>
F 13

$$$$
=
 OpenBabel10262422563D

 37 42  0  0  1  0  0  0  0  0999 V2000
  190.5310  175.2770  137.1260 C   0  0  2  0  0  0  0  0  0  0  0  0
  192.3060  177.8790  139.8390 C   0  0  0  0  0  2  0  0  0  0  0  0
  189.0490  177.0430  136.0790 C   0  0  2  0  0  3  0  0  0  0  0  0
  191.4420  175.5030  138.3130 C   0  0  1  0  0  3  0  0  0  0  0  0
  189.2130  176.0160  137.2380 C   0  0  2  0  0  3  0  0  0  0  0  0
  192.5810  176.3590  137.9350 N   0  0  0  0  0  0  0  0  0  0  0  0
  189.8540  176.6380  134.8310 C   0  0  0  0  0  2  0  0  0  0  0  0
  189.2110  176.6200  138.6480 C   0  0  1  0  0  3  0  0  0  0  0  0
  190.4420  173.8430  136.6660 C   0  0  0  0  0  2  0  0  0  0  0  0
  190.0320  175.2420  134.7690 O   0  0  0  0  0  0  0  0  0  0  0  0
  189.3200  175.5860  139.6110 O   0  0  0  0  0  0  0  0  0  0  0  0
  193.2280  176.8810  139.1430 C   0  0  0  0  0  2  0  0  0  0  0  0
  191.0110  174.9090  135.7290 C   0  0  1  0  0  3  0  0  0  0  0  0
  190.5070  176.2590  139.2690 C   0  0  1  0  0  0  0  0  0  0  0  0
  191.0520  177.1750  140.3560 C   0  0  1  0  0  3  0  0  0  0  0  0
  191.3650  176.4220  141.4940 O   0  0  0  0  0  0  0  0  0  0  0  0
  190.9850  177.2180  142.5820 C   0  0  1  0  0  3  0  0  0  0  0  0
  189.5030  177.5580  142.5040 C   0  0  0  0  0  2  0  0  0  0  0  0
  187.3940  176.9530  143.6450 C   0  0  0  0  0  1  0  0  0  0  0  0
  188.6700  176.4100  143.0380 C   0  0  0  0  0  2  0  0  0  0  0  0
  191.3080  176.5140  143.8980 C   0  0  0  0  0  2  0  0  0  0  0  0
  191.5750  177.5010  145.0220 C   0  0  0  0  0  2  0  0  0  0  0  0
  191.3060  176.6860  146.6190 S   0  0  0  0  0  0  0  0  0  0  0  0
  189.5540  177.1520  146.6360 C   0  0  0  0  0  1  0  0  0  0  0  0
  189.4320  178.4760  136.4430 C   0  0  0  0  0  2  0  0  0  0  0  0
  188.2290  179.2690  136.9380 C   0  0  0  0  0  2  0  0  0  0  0  0
  186.0640  178.2570  137.6630 C   0  0  0  0  0  1  0  0  0  0  0  0
  186.9230  178.6420  136.4740 C   0  0  0  0  0  2  0  0  0  0  0  0
  193.4970  175.5640  137.3280 O   0  0  0  0  0  0  0  0  0  0  0  0
  194.2980  175.0730  138.3670 C   0  0  0  0  0  2  0  0  0  0  0  0
  196.6330  173.9710  137.4000 S   0  0  0  0  0  0  0  0  0  0  0  0
  194.9190  173.7370  137.9870 C   0  0  2  0  0  3  0  0  0  0  0  0
  194.0770  173.0370  136.9260 C   0  0  0  0  0  2  0  0  0  0  0  0
  193.6530  170.9110  135.7270 C   0  0  0  0  0  1  0  0  0  0  0  0
  195.9910  171.5850  136.1970 C   0  0  0  0  0  2  0  0  0  0  0  0
  194.5600  171.6080  136.7200 C   0  0  1  0  0  3  0  0  0  0  0  0
  196.9400  172.1840  137.2250 C   0  0  0  0  0  2  0  0  0  0  0  0
  1  9  1  1  0  0  0
  1  5  1  0  0  0  0
  1  4  1  0  0  0  0
  2 15  1  0  0  0  0
  3 25  1  1  0  0  0
  3  5  1  0  0  0  0
  4  6  1  6  0  0  0
  4 14  1  0  0  0  0
  5  8  1  0  0  0  0
  6 12  1  0  0  0  0
  7  3  1  0  0  0  0
  8 14  1  0  0  0  0
  8 11  1  0  0  0  0
 10  7  1  0  0  0  0
 10 13  1  0  0  0  0
 12  2  1  0  0  0  0
 13  9  1  0  0  0  0
 13  1  1  0  0  0  0
 14 11  1  0  0  0  0
 14 15  1  0  0  0  0
 15 16  1  0  0  0  0
 16 17  1  0  0  0  0
 17 21  1  0  0  0  0
 18 17  1  0  0  0  0
 18 20  1  0  0  0  0
 20 19  1  0  0  0  0
 21 22  1  0  0  0  0
 22 23  1  0  0  0  0
 23 24  1  0  0  0  0
 25 26  1  0  0  0  0
 28 26  1  0  0  0  0
 28 27  1  0  0  0  0
 29  6  1  0  0  0  0
 29 30  1  0  0  0  0
 31 32  1  0  0  0  0
 32 30  1  0  0  0  0
 33 32  1  0  0  0  0
 34 36  1  0  0  0  0
 35 36  1  0  0  0  0
 35 37  1  0  0  0  0
 36 33  1  0  0  0  0
 37 31  1  0  0  0  0
M  END
>  <MODEL>
9

>  <REMARK>
 VINA RESULT:      -5.2      3.405      7.652
  Name = 
  13 active torsions:
  status: ('A' for Active; 'I' for Inactive)
    1  A    between atoms: O_1  and  C_33
    2  A    between atoms: O_1  and  C_36
    3  A    between atoms: C_3  and  C_30
    4  A    between atoms: C_3  and  C_32
    5  A    between atoms: C_5  and  C_23
    6  A    between atoms: C_5  and  C_33
    7  A    between atoms: C_6  and  C_31
    8  A    between atoms: C_9  and  C_30
    9  A    between atoms: S_11  and  C_26
   10  A    between atoms: N_14  and  O_37
   11  A    between atoms: C_17  and  C_26
   12  A    between atoms: C_17  and  C_33
   13  A    between atoms: C_31  and  O_37
                            x       y       z     vdW  Elec       q    Type
                         _______ _______ _______ _____ _____    ______ ____

>  <TORSDO>
F 13

$$$$
