=
 OpenBabel10262420003D

 27 31  0  0  1  0  0  0  0  0999 V2000
  188.7770  178.7970  137.4460 C   0  0  0  0  0  2  0  0  0  0  0  0
  188.3260  177.9940  139.7540 C   0  0  0  0  0  0  0  0  0  0  0  0
  190.5330  177.0490  139.0740 N   0  0  0  0  0  2  0  0  0  0  0  0
  189.4940  177.9540  143.8820 C   0  0  0  0  0  2  0  0  0  0  0  0
  191.6050  179.0960  143.9490 O   0  0  0  0  0  1  0  0  0  0  0  0
  187.4870  178.3910  140.7510 N   0  0  0  0  0  0  0  0  0  0  0  0
  191.4590  177.1790  141.7680 C   0  0  0  0  0  2  0  0  0  0  0  0
  190.9740  174.3300  137.2390 C   0  0  0  0  0  1  0  0  0  0  0  0
  191.6220  176.7990  143.2390 C   0  0  0  0  0  2  0  0  0  0  0  0
  191.3910  176.1560  135.6970 O   0  0  0  0  0  0  0  0  0  0  0  0
  189.6320  177.5510  140.0750 C   0  0  0  0  0  0  0  0  0  0  0  0
  187.8910  178.1120  138.3880 N   0  0  0  0  0  0  0  0  0  0  0  0
  190.9950  177.8540  144.1440 C   0  0  2  0  0  3  0  0  0  0  0  0
  189.1480  178.0010  142.4190 C   0  0  0  0  0  0  0  0  0  0  0  0
  189.8140  177.8470  136.8490 C   0  0  2  0  0  3  0  0  0  0  0  0
  190.0420  177.5600  141.4210 C   0  0  0  0  0  0  0  0  0  0  0  0
  191.2150  175.8200  137.0640 C   0  0  1  0  0  3  0  0  0  0  0  0
  187.8620  178.3920  142.0550 C   0  0  0  0  0  3  0  0  0  0  0  0
  190.1180  176.3060  135.0990 C   0  0  0  0  0  2  0  0  0  0  0  0
  189.4370  177.4760  135.5350 O   0  0  0  0  0  0  0  0  0  0  0  0
  190.1150  176.6370  137.7410 C   0  0  1  0  0  3  0  0  0  0  0  0
  184.1120  176.6670  137.0650 C   0  0  0  0  0  3  0  0  0  0  0  0
  186.6080  177.6140  137.9500 C   0  0  0  0  0  0  0  0  0  0  0  0
  186.5160  176.4220  137.2100 C   0  0  0  0  0  3  0  0  0  0  0  0
  185.2750  175.9500  136.7720 C   0  0  0  0  0  3  0  0  0  0  0  0
  184.1910  177.8550  137.7950 C   0  0  0  0  0  3  0  0  0  0  0  0
  185.4310  178.3270  138.2330 C   0  0  0  0  0  3  0  0  0  0  0  0
  1 12  1  0  0  0  0
  2 11  2  0  0  0  0
  2  6  1  0  0  0  0
  3 11  1  0  0  0  0
  4 13  1  0  0  0  0
  6 18  2  0  0  0  0
  7  9  1  0  0  0  0
  9 13  1  0  0  0  0
 10 17  1  0  0  0  0
 11 16  1  0  0  0  0
 12  2  1  0  0  0  0
 13  5  1  6  0  0  0
 14  4  1  0  0  0  0
 15  1  1  1  0  0  0
 15 21  1  0  0  0  0
 16  7  1  0  0  0  0
 16 14  2  0  0  0  0
 17  8  1  6  0  0  0
 17 21  1  0  0  0  0
 18 14  1  0  0  0  0
 19 20  1  0  0  0  0
 19 10  1  0  0  0  0
 20 15  1  0  0  0  0
 21  3  1  1  0  0  0
 22 26  1  0  0  0  0
 23 27  1  0  0  0  0
 23 12  1  0  0  0  0
 24 23  2  0  0  0  0
 25 22  2  0  0  0  0
 25 24  1  0  0  0  0
 26 27  2  0  0  0  0
M  END
>  <MODEL>
1

>  <REMARK>
 VINA RESULT:      -7.8      0.000      0.000
  Name = 
  1 active torsions:
  status: ('A' for Active; 'I' for Inactive)
    1  A    between atoms: C_9  and  N_15
                            x       y       z     vdW  Elec       q    Type
                         _______ _______ _______ _____ _____    ______ ____

>  <TORSDO>
F 1

$$$$
=
 OpenBabel10262420003D

 27 31  0  0  1  0  0  0  0  0999 V2000
  187.9140  176.1630  143.5930 C   0  0  0  0  0  2  0  0  0  0  0  0
  187.0360  177.7340  141.8800 C   0  0  0  0  0  0  0  0  0  0  0  0
  189.5260  177.8780  141.7910 N   0  0  0  0  0  2  0  0  0  0  0  0
  186.7490  178.8010  137.7350 C   0  0  0  0  0  2  0  0  0  0  0  0
  188.2150  177.2830  136.5920 O   0  0  0  0  0  1  0  0  0  0  0  0
  185.8390  177.8780  141.2470 N   0  0  0  0  0  0  0  0  0  0  0  0
  189.4310  178.3920  138.9880 C   0  0  0  0  0  2  0  0  0  0  0  0
  191.4170  179.6990  143.8060 C   0  0  0  0  0  1  0  0  0  0  0  0
  189.2270  179.1680  137.6870 C   0  0  0  0  0  2  0  0  0  0  0  0
  191.6750  177.4360  144.6410 O   0  0  0  0  0  0  0  0  0  0  0  0
  188.2370  177.9400  141.1580 C   0  0  0  0  0  0  0  0  0  0  0  0
  187.0530  177.2950  143.2500 N   0  0  0  0  0  0  0  0  0  0  0  0
  188.0270  178.6280  136.9160 C   0  0  2  0  0  3  0  0  0  0  0  0
  186.9000  178.3770  139.1700 C   0  0  0  0  0  0  0  0  0  0  0  0
  189.3420  176.6080  143.9030 C   0  0  2  0  0  3  0  0  0  0  0  0
  188.1620  178.2610  139.7900 C   0  0  0  0  0  0  0  0  0  0  0  0
  191.1900  178.2160  143.5610 C   0  0  1  0  0  3  0  0  0  0  0  0
  185.7480  178.2010  139.9330 C   0  0  0  0  0  3  0  0  0  0  0  0
  190.6910  177.4040  145.6570 C   0  0  0  0  0  2  0  0  0  0  0  0
  189.5570  176.6230  145.3030 O   0  0  0  0  0  0  0  0  0  0  0  0
  189.7240  177.9340  143.2340 C   0  0  1  0  0  3  0  0  0  0  0  0
  184.5930  179.0830  146.2280 C   0  0  0  0  0  3  0  0  0  0  0  0
  186.2250  177.9140  144.2590 C   0  0  0  0  0  0  0  0  0  0  0  0
  186.6610  177.9960  145.5940 C   0  0  0  0  0  3  0  0  0  0  0  0
  185.8510  178.5790  146.5720 C   0  0  0  0  0  3  0  0  0  0  0  0
  184.1470  179.0030  144.9080 C   0  0  0  0  0  3  0  0  0  0  0  0
  184.9570  178.4200  143.9300 C   0  0  0  0  0  3  0  0  0  0  0  0
  2 12  1  0  0  0  0
  4 14  1  0  0  0  0
  6  2  1  0  0  0  0
  7 16  1  0  0  0  0
  9  7  1  0  0  0  0
 10 19  1  0  0  0  0
 11  3  1  0  0  0  0
 11  2  2  0  0  0  0
 12  1  1  0  0  0  0
 12 23  1  0  0  0  0
 13  5  1  1  0  0  0
 13  9  1  0  0  0  0
 13  4  1  0  0  0  0
 14 16  2  0  0  0  0
 14 18  1  0  0  0  0
 15  1  1  1  0  0  0
 15 20  1  0  0  0  0
 16 11  1  0  0  0  0
 17  8  1  1  0  0  0
 17 10  1  0  0  0  0
 18  6  2  0  0  0  0
 20 19  1  0  0  0  0
 21  3  1  6  0  0  0
 21 17  1  0  0  0  0
 21 15  1  0  0  0  0
 22 25  1  0  0  0  0
 23 24  1  0  0  0  0
 24 25  2  0  0  0  0
 26 22  2  0  0  0  0
 27 23  2  0  0  0  0
 27 26  1  0  0  0  0
M  END
>  <MODEL>
2

>  <REMARK>
 VINA RESULT:      -7.4      2.464      6.780
  Name = 
  1 active torsions:
  status: ('A' for Active; 'I' for Inactive)
    1  A    between atoms: C_9  and  N_15
                            x       y       z     vdW  Elec       q    Type
                         _______ _______ _______ _____ _____    ______ ____

>  <TORSDO>
F 1

$$$$
=
 OpenBabel10262420003D

 27 31  0  0  1  0  0  0  0  0999 V2000
  188.6720  175.9600  143.2630 C   0  0  0  0  0  2  0  0  0  0  0  0
  188.9930  176.9570  141.0100 C   0  0  0  0  0  0  0  0  0  0  0  0
  191.1790  177.1300  142.2000 N   0  0  0  0  0  2  0  0  0  0  0  0
  190.9850  176.7950  137.2140 C   0  0  0  0  0  2  0  0  0  0  0  0
  192.6200  175.0500  137.4350 O   0  0  0  0  0  1  0  0  0  0  0  0
  188.3120  176.8860  139.8330 N   0  0  0  0  0  0  0  0  0  0  0  0
  192.5850  176.8240  139.7370 C   0  0  0  0  0  2  0  0  0  0  0  0
  192.0050  179.4940  144.3640 C   0  0  0  0  0  1  0  0  0  0  0  0
  193.1700  177.1930  138.3750 C   0  0  0  0  0  2  0  0  0  0  0  0
  191.5120  177.5690  145.7540 O   0  0  0  0  0  0  0  0  0  0  0  0
  190.4090  176.9790  140.9960 C   0  0  0  0  0  0  0  0  0  0  0  0
  188.2570  176.9260  142.2450 N   0  0  0  0  0  0  0  0  0  0  0  0
  192.4670  176.4270  137.2590 C   0  0  2  0  0  3  0  0  0  0  0  0
  190.3330  176.8000  138.5690 C   0  0  0  0  0  0  0  0  0  0  0  0
  189.7900  176.5090  144.1470 C   0  0  2  0  0  3  0  0  0  0  0  0
  191.0790  176.8950  139.7620 C   0  0  0  0  0  0  0  0  0  0  0  0
  191.7450  177.9980  144.4240 C   0  0  1  0  0  3  0  0  0  0  0  0
  188.9410  176.8200  138.6340 C   0  0  0  0  0  3  0  0  0  0  0  0
  190.1540  177.8030  146.0760 C   0  0  0  0  0  2  0  0  0  0  0  0
  189.2660  176.9260  145.3950 O   0  0  0  0  0  0  0  0  0  0  0  0
  190.6250  177.5980  143.4640 C   0  0  1  0  0  3  0  0  0  0  0  0
  184.8810  179.4320  142.9090 C   0  0  0  0  0  3  0  0  0  0  0  0
  187.1200  177.7850  142.4770 C   0  0  0  0  0  0  0  0  0  0  0  0
  186.4270  177.7450  143.7000 C   0  0  0  0  0  3  0  0  0  0  0  0
  185.3160  178.5650  143.9160 C   0  0  0  0  0  3  0  0  0  0  0  0
  185.5580  179.4780  141.6890 C   0  0  0  0  0  3  0  0  0  0  0  0
  186.6690  178.6580  141.4730 C   0  0  0  0  0  3  0  0  0  0  0  0
  2 12  1  0  0  0  0
  4 13  1  0  0  0  0
  4 14  1  0  0  0  0
  6  2  2  0  0  0  0
  7 16  1  0  0  0  0
  9  7  1  0  0  0  0
 10 19  1  0  0  0  0
 11  2  1  0  0  0  0
 11  3  1  0  0  0  0
 12 23  1  0  0  0  0
 12  1  1  0  0  0  0
 13  5  1  1  0  0  0
 13  9  1  0  0  0  0
 14 18  2  0  0  0  0
 14 16  1  0  0  0  0
 15  1  1  6  0  0  0
 15 20  1  0  0  0  0
 16 11  2  0  0  0  0
 17  8  1  1  0  0  0
 17 10  1  0  0  0  0
 18  6  1  0  0  0  0
 20 19  1  0  0  0  0
 21  3  1  6  0  0  0
 21 15  1  0  0  0  0
 21 17  1  0  0  0  0
 22 25  1  0  0  0  0
 23 24  1  0  0  0  0
 24 25  2  0  0  0  0
 26 22  2  0  0  0  0
 27 26  1  0  0  0  0
 27 23  2  0  0  0  0
M  END
>  <MODEL>
3

>  <REMARK>
 VINA RESULT:      -7.1      2.512      6.244
  Name = 
  1 active torsions:
  status: ('A' for Active; 'I' for Inactive)
    1  A    between atoms: C_9  and  N_15
                            x       y       z     vdW  Elec       q    Type
                         _______ _______ _______ _____ _____    ______ ____

>  <TORSDO>
F 1

$$$$
=
 OpenBabel10262420003D

 27 31  0  0  1  0  0  0  0  0999 V2000
  188.7180  178.8860  138.9930 C   0  0  0  0  0  2  0  0  0  0  0  0
  190.5790  177.2690  139.3010 C   0  0  0  0  0  0  0  0  0  0  0  0
  189.4810  176.7090  137.1320 N   0  0  0  0  0  2  0  0  0  0  0  0
  194.3260  175.7290  137.8900 C   0  0  0  0  0  2  0  0  0  0  0  0
  194.7040  176.8240  135.7870 O   0  0  0  0  0  1  0  0  0  0  0  0
  191.6950  177.2410  140.0820 N   0  0  0  0  0  0  0  0  0  0  0  0
  191.9770  175.8540  136.0480 C   0  0  0  0  0  2  0  0  0  0  0  0
  186.7430  174.8840  136.7800 C   0  0  0  0  0  1  0  0  0  0  0  0
  193.1880  174.9590  135.7950 C   0  0  0  0  0  2  0  0  0  0  0  0
  185.9750  177.1640  136.4690 O   0  0  0  0  0  0  0  0  0  0  0  0
  190.6430  176.7760  137.9750 C   0  0  0  0  0  0  0  0  0  0  0  0
  189.3810  177.8750  139.8180 N   0  0  0  0  0  0  0  0  0  0  0  0
  194.4530  175.5820  136.3750 C   0  0  2  0  0  3  0  0  0  0  0  0
  193.0070  176.3070  138.3220 C   0  0  0  0  0  0  0  0  0  0  0  0
  187.7560  178.2580  137.9870 C   0  0  2  0  0  3  0  0  0  0  0  0
  191.8710  176.2960  137.4860 C   0  0  0  0  0  0  0  0  0  0  0  0
  187.1240  176.3380  136.5610 C   0  0  1  0  0  3  0  0  0  0  0  0
  192.8830  176.7680  139.6310 C   0  0  0  0  0  3  0  0  0  0  0  0
  185.5430  177.4890  137.7770 C   0  0  0  0  0  2  0  0  0  0  0  0
  186.4200  178.3920  138.4390 O   0  0  0  0  0  0  0  0  0  0  0  0
  188.1140  176.8120  137.6250 C   0  0  1  0  0  3  0  0  0  0  0  0
  187.8070  176.8590  143.6390 C   0  0  0  0  0  3  0  0  0  0  0  0
  188.8560  177.5380  141.1200 C   0  0  0  0  0  0  0  0  0  0  0  0
  189.4440  176.5190  141.8890 C   0  0  0  0  0  3  0  0  0  0  0  0
  188.9240  176.1830  143.1420 C   0  0  0  0  0  3  0  0  0  0  0  0
  187.2100  177.8690  142.8830 C   0  0  0  0  0  3  0  0  0  0  0  0
  187.7300  178.2060  141.6300 C   0  0  0  0  0  3  0  0  0  0  0  0
  1 12  1  0  0  0  0
  2 12  1  0  0  0  0
  2  6  1  0  0  0  0
  3 11  1  0  0  0  0
  4 14  1  0  0  0  0
  7 16  1  0  0  0  0
  9  7  1  0  0  0  0
  9 13  1  0  0  0  0
 10 17  1  0  0  0  0
 10 19  1  0  0  0  0
 11  2  2  0  0  0  0
 12 23  1  0  0  0  0
 13  5  1  6  0  0  0
 13  4  1  0  0  0  0
 14 18  1  0  0  0  0
 15 20  1  0  0  0  0
 15  1  1  1  0  0  0
 16 11  1  0  0  0  0
 16 14  2  0  0  0  0
 17  8  1  1  0  0  0
 17 21  1  0  0  0  0
 18  6  2  0  0  0  0
 19 20  1  0  0  0  0
 21  3  1  6  0  0  0
 21 15  1  0  0  0  0
 23 27  2  0  0  0  0
 23 24  1  0  0  0  0
 24 25  2  0  0  0  0
 25 22  1  0  0  0  0
 26 22  2  0  0  0  0
 27 26  1  0  0  0  0
M  END
>  <MODEL>
4

>  <REMARK>
 VINA RESULT:      -7.1      2.359      5.386
  Name = 
  1 active torsions:
  status: ('A' for Active; 'I' for Inactive)
    1  A    between atoms: C_9  and  N_15
                            x       y       z     vdW  Elec       q    Type
                         _______ _______ _______ _____ _____    ______ ____

>  <TORSDO>
F 1

$$$$
=
 OpenBabel10262420003D

 27 31  0  0  1  0  0  0  0  0999 V2000
  184.0540  179.7530  139.4680 C   0  0  0  0  0  2  0  0  0  0  0  0
  186.1500  178.4200  139.5340 C   0  0  0  0  0  0  0  0  0  0  0  0
  184.6970  177.4050  137.7770 N   0  0  0  0  0  2  0  0  0  0  0  0
  189.6810  177.0960  137.4880 C   0  0  0  0  0  2  0  0  0  0  0  0
  189.4300  177.8780  135.2320 O   0  0  0  0  0  1  0  0  0  0  0  0
  187.4010  178.6390  140.0250 N   0  0  0  0  0  0  0  0  0  0  0  0
  186.9930  176.6680  136.2540 C   0  0  0  0  0  2  0  0  0  0  0  0
  182.2390  175.2570  138.3230 C   0  0  0  0  0  1  0  0  0  0  0  0
  188.2360  175.8820  135.8400 C   0  0  0  0  0  2  0  0  0  0  0  0
  181.1040  177.3600  137.9100 O   0  0  0  0  0  0  0  0  0  0  0  0
  185.9930  177.7320  138.3060 C   0  0  0  0  0  0  0  0  0  0  0  0
  185.0190  178.9650  140.2360 N   0  0  0  0  0  0  0  0  0  0  0  0
  189.4950  176.7250  136.0180 C   0  0  2  0  0  3  0  0  0  0  0  0
  188.4180  177.5870  138.1420 C   0  0  0  0  0  0  0  0  0  0  0  0
  182.9960  178.8710  138.8090 C   0  0  2  0  0  3  0  0  0  0  0  0
  187.1420  177.3190  137.6060 C   0  0  0  0  0  0  0  0  0  0  0  0
  182.3510  176.6910  137.8330 C   0  0  1  0  0  3  0  0  0  0  0  0
  188.5180  178.2340  139.3710 C   0  0  0  0  0  3  0  0  0  0  0  0
  180.9250  177.8400  139.2290 C   0  0  0  0  0  2  0  0  0  0  0  0
  181.7860  178.9270  139.5420 O   0  0  0  0  0  0  0  0  0  0  0  0
  183.4710  177.4330  138.5630 C   0  0  1  0  0  3  0  0  0  0  0  0
  184.5200  178.4690  144.4340 C   0  0  0  0  0  3  0  0  0  0  0  0
  184.8450  178.7840  141.6580 C   0  0  0  0  0  0  0  0  0  0  0  0
  183.5940  179.0030  142.2620 C   0  0  0  0  0  3  0  0  0  0  0  0
  183.4320  178.8440  143.6410 C   0  0  0  0  0  3  0  0  0  0  0  0
  185.7680  178.2530  143.8470 C   0  0  0  0  0  3  0  0  0  0  0  0
  185.9300  178.4110  142.4680 C   0  0  0  0  0  3  0  0  0  0  0  0
  1 12  1  0  0  0  0
  2  6  1  0  0  0  0
  2 12  1  0  0  0  0
  3 11  1  0  0  0  0
  4 14  1  0  0  0  0
  7 16  1  0  0  0  0
  9 13  1  0  0  0  0
  9  7  1  0  0  0  0
 10 19  1  0  0  0  0
 11  2  2  0  0  0  0
 12 23  1  0  0  0  0
 13  5  1  6  0  0  0
 13  4  1  0  0  0  0
 14 18  1  0  0  0  0
 15  1  1  1  0  0  0
 15 20  1  0  0  0  0
 16 14  2  0  0  0  0
 16 11  1  0  0  0  0
 17 10  1  0  0  0  0
 17  8  1  1  0  0  0
 17 21  1  0  0  0  0
 18  6  2  0  0  0  0
 19 20  1  0  0  0  0
 21  3  1  6  0  0  0
 21 15  1  0  0  0  0
 23 24  2  0  0  0  0
 23 27  1  0  0  0  0
 24 25  1  0  0  0  0
 25 22  2  0  0  0  0
 26 22  1  0  0  0  0
 27 26  2  0  0  0  0
M  END
>  <MODEL>
5

>  <REMARK>
 VINA RESULT:      -6.5      3.310      6.775
  Name = 
  1 active torsions:
  status: ('A' for Active; 'I' for Inactive)
    1  A    between atoms: C_9  and  N_15
                            x       y       z     vdW  Elec       q    Type
                         _______ _______ _______ _____ _____    ______ ____

>  <TORSDO>
F 1

$$$$
=
 OpenBabel10262420003D

 27 31  0  0  1  0  0  0  0  0999 V2000
  189.3710  178.2280  138.2380 C   0  0  0  0  0  2  0  0  0  0  0  0
  187.0360  177.4300  137.9490 C   0  0  0  0  0  0  0  0  0  0  0  0
  187.2400  178.2450  140.2990 N   0  0  0  0  0  2  0  0  0  0  0  0
  182.8510  178.3730  137.9050 C   0  0  0  0  0  2  0  0  0  0  0  0
  182.7140  180.6590  138.6280 O   0  0  0  0  0  1  0  0  0  0  0  0
  186.2440  177.1760  136.8710 N   0  0  0  0  0  0  0  0  0  0  0  0
  184.5150  179.0870  140.2810 C   0  0  0  0  0  2  0  0  0  0  0  0
  188.4840  176.5140  142.8310 C   0  0  0  0  0  1  0  0  0  0  0  0
  182.9920  178.9850  140.3300 C   0  0  0  0  0  2  0  0  0  0  0  0
  190.2600  178.0590  142.2440 O   0  0  0  0  0  0  0  0  0  0  0  0
  186.4720  178.0250  139.1050 C   0  0  0  0  0  0  0  0  0  0  0  0
  188.4460  177.1590  137.8600 N   0  0  0  0  0  0  0  0  0  0  0  0
  182.3810  179.3500  138.9810 C   0  0  2  0  0  3  0  0  0  0  0  0
  184.3310  178.1090  137.9470 C   0  0  0  0  0  0  0  0  0  0  0  0
  189.6470  178.2350  139.7400 C   0  0  2  0  0  3  0  0  0  0  0  0
  185.1080  178.3690  139.0950 C   0  0  0  0  0  0  0  0  0  0  0  0
  188.8900  177.7490  142.0450 C   0  0  1  0  0  3  0  0  0  0  0  0
  184.9250  177.4880  136.8510 C   0  0  0  0  0  3  0  0  0  0  0  0
  191.0370  177.2630  141.3690 C   0  0  0  0  0  2  0  0  0  0  0  0
  190.9110  177.6540  140.0080 O   0  0  0  0  0  0  0  0  0  0  0  0
  188.5210  177.6050  140.5690 C   0  0  1  0  0  3  0  0  0  0  0  0
  189.9460  173.4250  136.4750 C   0  0  0  0  0  3  0  0  0  0  0  0
  188.9510  175.8960  137.3770 C   0  0  0  0  0  0  0  0  0  0  0  0
  188.0860  174.8050  137.1800 C   0  0  0  0  0  3  0  0  0  0  0  0
  188.5800  173.5770  136.7290 C   0  0  0  0  0  3  0  0  0  0  0  0
  190.8160  174.4990  136.6720 C   0  0  0  0  0  3  0  0  0  0  0  0
  190.3220  175.7260  137.1220 C   0  0  0  0  0  3  0  0  0  0  0  0
  2 11  1  0  0  0  0
  4 14  1  0  0  0  0
  4 13  1  0  0  0  0
  6  2  2  0  0  0  0
  7  9  1  0  0  0  0
 11  3  1  0  0  0  0
 12  2  1  0  0  0  0
 12  1  1  0  0  0  0
 13  5  1  6  0  0  0
 13  9  1  0  0  0  0
 14 16  1  0  0  0  0
 15  1  1  6  0  0  0
 15 20  1  0  0  0  0
 15 21  1  0  0  0  0
 16 11  2  0  0  0  0
 16  7  1  0  0  0  0
 17 10  1  0  0  0  0
 17  8  1  1  0  0  0
 18  6  1  0  0  0  0
 18 14  2  0  0  0  0
 19 10  1  0  0  0  0
 20 19  1  0  0  0  0
 21  3  1  1  0  0  0
 21 17  1  0  0  0  0
 22 26  2  0  0  0  0
 22 25  1  0  0  0  0
 23 12  1  0  0  0  0
 24 23  1  0  0  0  0
 25 24  2  0  0  0  0
 26 27  1  0  0  0  0
 27 23  2  0  0  0  0
M  END
>  <MODEL>
6

>  <REMARK>
 VINA RESULT:      -6.3      2.339      5.984
  Name = 
  1 active torsions:
  status: ('A' for Active; 'I' for Inactive)
    1  A    between atoms: C_9  and  N_15
                            x       y       z     vdW  Elec       q    Type
                         _______ _______ _______ _____ _____    ______ ____

>  <TORSDO>
F 1

$$$$
=
 OpenBabel10262420003D

 27 31  0  0  1  0  0  0  0  0999 V2000
  182.2480  179.5300  140.2100 C   0  0  0  0  0  2  0  0  0  0  0  0
  184.3810  178.3750  139.6720 C   0  0  0  0  0  0  0  0  0  0  0  0
  182.5680  177.1550  138.4670 N   0  0  0  0  0  2  0  0  0  0  0  0
  187.2420  177.2300  136.6880 C   0  0  0  0  0  2  0  0  0  0  0  0
  186.2560  177.8680  134.5940 O   0  0  0  0  0  1  0  0  0  0  0  0
  185.6950  178.7190  139.7550 N   0  0  0  0  0  0  0  0  0  0  0  0
  184.3600  176.5230  136.3390 C   0  0  0  0  0  2  0  0  0  0  0  0
  180.5960  174.8490  139.7890 C   0  0  0  0  0  1  0  0  0  0  0  0
  185.4880  175.8190  135.5880 C   0  0  0  0  0  2  0  0  0  0  0  0
  179.2000  176.8290  139.6840 O   0  0  0  0  0  0  0  0  0  0  0  0
  183.9270  177.6120  138.5680 C   0  0  0  0  0  0  0  0  0  0  0  0
  183.4670  178.8640  140.6700 N   0  0  0  0  0  0  0  0  0  0  0  0
  186.6590  176.7680  135.3540 C   0  0  2  0  0  3  0  0  0  0  0  0
  186.1940  177.6530  137.6800 C   0  0  0  0  0  0  0  0  0  0  0  0
  181.1270  178.5320  139.9260 C   0  0  2  0  0  3  0  0  0  0  0  0
  184.8460  177.2550  137.5650 C   0  0  0  0  0  0  0  0  0  0  0  0
  180.4230  176.2590  139.2500 C   0  0  1  0  0  3  0  0  0  0  0  0
  186.5970  178.3700  138.8040 C   0  0  0  0  0  3  0  0  0  0  0  0
  179.3810  177.3630  140.9820 C   0  0  0  0  0  2  0  0  0  0  0  0
  180.1920  178.5310  140.9900 O   0  0  0  0  0  0  0  0  0  0  0  0
  181.6360  177.1270  139.5860 C   0  0  1  0  0  3  0  0  0  0  0  0
  184.3010  178.5520  144.8310 C   0  0  0  0  0  3  0  0  0  0  0  0
  183.7440  178.7460  142.0820 C   0  0  0  0  0  0  0  0  0  0  0  0
  182.7560  179.0480  143.0350 C   0  0  0  0  0  3  0  0  0  0  0  0
  183.0330  178.9500  144.4020 C   0  0  0  0  0  3  0  0  0  0  0  0
  185.2930  178.2540  143.8950 C   0  0  0  0  0  3  0  0  0  0  0  0
  185.0160  178.3520  142.5280 C   0  0  0  0  0  3  0  0  0  0  0  0
  1 12  1  0  0  0  0
  2  6  1  0  0  0  0
  2 12  1  0  0  0  0
  3 11  1  0  0  0  0
  4 14  1  0  0  0  0
  7 16  1  0  0  0  0
  9  7  1  0  0  0  0
 10 19  1  0  0  0  0
 11  2  2  0  0  0  0
 12 23  1  0  0  0  0
 13  5  1  1  0  0  0
 13  9  1  0  0  0  0
 13  4  1  0  0  0  0
 14 18  1  0  0  0  0
 15  1  1  1  0  0  0
 15 20  1  0  0  0  0
 16 14  2  0  0  0  0
 16 11  1  0  0  0  0
 17 21  1  0  0  0  0
 17 10  1  0  0  0  0
 17  8  1  1  0  0  0
 18  6  2  0  0  0  0
 19 20  1  0  0  0  0
 21  3  1  6  0  0  0
 21 15  1  0  0  0  0
 23 27  2  0  0  0  0
 23 24  1  0  0  0  0
 24 25  2  0  0  0  0
 25 22  1  0  0  0  0
 26 22  2  0  0  0  0
 27 26  1  0  0  0  0
M  END
>  <MODEL>
7

>  <REMARK>
 VINA RESULT:      -6.3      4.464      8.242
  Name = 
  1 active torsions:
  status: ('A' for Active; 'I' for Inactive)
    1  A    between atoms: C_9  and  N_15
                            x       y       z     vdW  Elec       q    Type
                         _______ _______ _______ _____ _____    ______ ____

>  <TORSDO>
F 1

$$$$
=
 OpenBabel10262420003D

 27 31  0  0  1  0  0  0  0  0999 V2000
  189.2180  177.4540  137.1010 C   0  0  0  0  0  2  0  0  0  0  0  0
  191.1950  176.3110  138.0800 C   0  0  0  0  0  0  0  0  0  0  0  0
  190.1220  174.6930  136.5120 N   0  0  0  0  0  2  0  0  0  0  0  0
  195.0320  174.5010  137.4420 C   0  0  0  0  0  2  0  0  0  0  0  0
  195.3110  174.4410  135.0590 O   0  0  0  0  0  1  0  0  0  0  0  0
  192.3160  176.7370  138.7250 N   0  0  0  0  0  0  0  0  0  0  0  0
  192.6640  173.5660  135.8790 C   0  0  0  0  0  2  0  0  0  0  0  0
  187.5210  172.7710  137.2190 C   0  0  0  0  0  1  0  0  0  0  0  0
  193.9350  172.7350  136.0440 C   0  0  0  0  0  2  0  0  0  0  0  0
  186.5870  174.5540  135.8650 O   0  0  0  0  0  0  0  0  0  0  0  0
  191.2830  175.2340  137.1630 C   0  0  0  0  0  0  0  0  0  0  0  0
  189.9600  177.0200  138.2850 N   0  0  0  0  0  0  0  0  0  0  0  0
  195.1570  173.6370  136.1890 C   0  0  2  0  0  3  0  0  0  0  0  0
  193.6780  175.1380  137.5930 C   0  0  0  0  0  0  0  0  0  0  0  0
  188.2960  176.3560  136.5740 C   0  0  2  0  0  3  0  0  0  0  0  0
  192.5390  174.6500  136.9190 C   0  0  0  0  0  0  0  0  0  0  0  0
  187.7940  173.9500  136.2990 C   0  0  1  0  0  3  0  0  0  0  0  0
  193.5320  176.1740  138.5120 C   0  0  0  0  0  3  0  0  0  0  0  0
  186.1440  175.4540  136.8630 C   0  0  0  0  0  2  0  0  0  0  0  0
  186.9580  176.6160  136.9600 O   0  0  0  0  0  0  0  0  0  0  0  0
  188.7550  174.9430  136.9510 C   0  0  1  0  0  3  0  0  0  0  0  0
  188.5540  177.9800  142.1850 C   0  0  0  0  0  3  0  0  0  0  0  0
  189.4730  177.3360  139.6070 C   0  0  0  0  0  0  0  0  0  0  0  0
  188.4220  178.2530  139.7840 C   0  0  0  0  0  3  0  0  0  0  0  0
  187.9640  178.5720  141.0660 C   0  0  0  0  0  3  0  0  0  0  0  0
  189.6020  177.0710  142.0230 C   0  0  0  0  0  3  0  0  0  0  0  0
  190.0600  176.7530  140.7420 C   0  0  0  0  0  3  0  0  0  0  0  0
  1 12  1  0  0  0  0
  2 12  1  0  0  0  0
  2  6  1  0  0  0  0
  3 11  1  0  0  0  0
  4 14  1  0  0  0  0
  7  9  1  0  0  0  0
  7 16  1  0  0  0  0
  9 13  1  0  0  0  0
 10 17  1  0  0  0  0
 10 19  1  0  0  0  0
 11  2  2  0  0  0  0
 12 23  1  0  0  0  0
 13  5  1  6  0  0  0
 13  4  1  0  0  0  0
 14 18  1  0  0  0  0
 15 21  1  0  0  0  0
 15 20  1  0  0  0  0
 15  1  1  1  0  0  0
 16 11  1  0  0  0  0
 16 14  2  0  0  0  0
 17 21  1  0  0  0  0
 17  8  1  1  0  0  0
 18  6  2  0  0  0  0
 19 20  1  0  0  0  0
 21  3  1  6  0  0  0
 23 24  2  0  0  0  0
 23 27  1  0  0  0  0
 24 25  1  0  0  0  0
 25 22  2  0  0  0  0
 26 22  1  0  0  0  0
 27 26  2  0  0  0  0
M  END
>  <MODEL>
8

>  <REMARK>
 VINA RESULT:      -6.0      2.670      5.818
  Name = 
  1 active torsions:
  status: ('A' for Active; 'I' for Inactive)
    1  A    between atoms: C_9  and  N_15
                            x       y       z     vdW  Elec       q    Type
                         _______ _______ _______ _____ _____    ______ ____

>  <TORSDO>
F 1

$$$$
=
 OpenBabel10262420003D

 27 31  0  0  1  0  0  0  0  0999 V2000
  187.9350  177.4060  136.1720 C   0  0  0  0  0  2  0  0  0  0  0  0
  185.6340  176.8540  136.9280 C   0  0  0  0  0  0  0  0  0  0  0  0
  186.6710  178.2530  138.7150 N   0  0  0  0  0  2  0  0  0  0  0  0
  181.7220  178.2580  137.9910 C   0  0  0  0  0  2  0  0  0  0  0  0
  181.8930  180.6530  137.9950 O   0  0  0  0  0  1  0  0  0  0  0  0
  184.5080  176.4130  136.3030 N   0  0  0  0  0  0  0  0  0  0  0  0
  184.1320  179.3880  139.3490 C   0  0  0  0  0  2  0  0  0  0  0  0
  188.6960  177.1470  141.0880 C   0  0  0  0  0  1  0  0  0  0  0  0
  182.7230  179.4920  139.9290 C   0  0  0  0  0  2  0  0  0  0  0  0
  190.1790  178.2380  139.5090 O   0  0  0  0  0  0  0  0  0  0  0  0
  185.5260  177.8090  137.9680 C   0  0  0  0  0  0  0  0  0  0  0  0
  186.9160  176.3970  136.4620 N   0  0  0  0  0  0  0  0  0  0  0  0
  181.6810  179.5440  138.8160 C   0  0  2  0  0  3  0  0  0  0  0  0
  183.1160  177.8350  137.6180 C   0  0  0  0  0  0  0  0  0  0  0  0
  188.7240  177.7920  137.4210 C   0  0  2  0  0  3  0  0  0  0  0  0
  184.2540  178.3040  138.3090 C   0  0  0  0  0  0  0  0  0  0  0  0
  188.8220  178.0570  139.8780 C   0  0  1  0  0  3  0  0  0  0  0  0
  183.2720  176.8680  136.6280 C   0  0  0  0  0  3  0  0  0  0  0  0
  190.5820  177.1420  138.7090 C   0  0  0  0  0  2  0  0  0  0  0  0
  189.9900  177.1560  137.4160 O   0  0  0  0  0  0  0  0  0  0  0  0
  187.9520  177.5590  138.7240 C   0  0  1  0  0  3  0  0  0  0  0  0
  187.7730  172.2760  135.8310 C   0  0  0  0  0  3  0  0  0  0  0  0
  187.1940  174.9970  136.2440 C   0  0  0  0  0  0  0  0  0  0  0  0
  186.8630  174.0390  137.2180 C   0  0  0  0  0  3  0  0  0  0  0  0
  187.1490  172.6860  137.0120 C   0  0  0  0  0  3  0  0  0  0  0  0
  188.1110  173.2180  134.8570 C   0  0  0  0  0  3  0  0  0  0  0  0
  187.8250  174.5710  135.0630 C   0  0  0  0  0  3  0  0  0  0  0  0
  1 12  1  0  0  0  0
  2 11  1  0  0  0  0
  4 13  1  0  0  0  0
  6 18  1  0  0  0  0
  6  2  2  0  0  0  0
  7  9  1  0  0  0  0
 10 17  1  0  0  0  0
 11 16  2  0  0  0  0
 11  3  1  0  0  0  0
 12  2  1  0  0  0  0
 13  5  1  6  0  0  0
 13  9  1  0  0  0  0
 14  4  1  0  0  0  0
 14 16  1  0  0  0  0
 15  1  1  6  0  0  0
 15 21  1  0  0  0  0
 16  7  1  0  0  0  0
 17  8  1  1  0  0  0
 18 14  2  0  0  0  0
 19 10  1  0  0  0  0
 20 15  1  0  0  0  0
 20 19  1  0  0  0  0
 21  3  1  6  0  0  0
 21 17  1  0  0  0  0
 22 25  1  0  0  0  0
 23 12  1  0  0  0  0
 23 24  1  0  0  0  0
 25 24  2  0  0  0  0
 26 27  1  0  0  0  0
 26 22  2  0  0  0  0
 27 23  2  0  0  0  0
M  END
>  <MODEL>
9

>  <REMARK>
 VINA RESULT:      -5.9      2.904      6.069
  Name = 
  1 active torsions:
  status: ('A' for Active; 'I' for Inactive)
    1  A    between atoms: C_9  and  N_15
                            x       y       z     vdW  Elec       q    Type
                         _______ _______ _______ _____ _____    ______ ____

>  <TORSDO>
F 1

$$$$
