=
 OpenBabel10262423283D

 34 39  0  0  1  0  0  0  0  0999 V2000
  187.0580  178.2510  144.0440 C   0  0  0  0  0  0  0  0  0  0  0  0
  183.5530  178.6550  144.9360 C   0  0  0  0  0  3  0  0  0  0  0  0
  185.4390  178.3270  146.3300 O   0  0  0  0  0  0  0  0  0  0  0  0
  189.8120  177.6250  144.3270 N   0  0  0  0  0  0  0  0  0  0  0  0
  187.9530  178.1600  142.9350 N   0  0  0  0  0  2  0  0  0  0  0  0
  189.1070  177.9720  145.5670 C   0  0  2  0  0  3  0  0  0  0  0  0
  188.4620  176.8360  147.8060 C   0  0  0  0  0  2  0  0  0  0  0  0
  189.5340  177.0440  146.7180 C   0  0  0  0  0  2  0  0  0  0  0  0
  189.3230  177.7720  143.1250 C   0  0  0  0  0  0  0  0  0  0  0  0
  186.8180  178.1170  146.4760 C   0  0  0  0  0  0  0  0  0  0  0  0
  187.6140  178.0720  145.3960 C   0  0  0  0  0  0  0  0  0  0  0  0
  187.4180  177.9550  147.8390 C   0  0  0  0  0  2  0  0  0  0  0  0
  182.9180  178.7970  143.6140 C   0  0  0  0  0  0  0  0  0  0  0  0
  183.6540  178.7670  142.4940 C   0  0  0  0  0  3  0  0  0  0  0  0
  184.8680  178.4840  145.0620 C   0  0  0  0  0  0  0  0  0  0  0  0
  185.1540  178.6140  142.4870 C   0  0  0  0  0  2  0  0  0  0  0  0
  185.7410  178.4470  143.8660 C   0  0  0  0  0  0  0  0  0  0  0  0
  192.3720  177.2880  140.9450 C   0  0  0  0  0  3  0  0  0  0  0  0
  189.5840  177.1180  140.7240 C   0  0  0  0  0  3  0  0  0  0  0  0
  192.0110  176.2710  137.4020 C   0  0  0  0  0  0  0  0  0  0  0  0
  192.5960  176.6530  138.6190 C   0  0  0  0  0  3  0  0  0  0  0  0
  191.7920  176.9280  139.7270 C   0  0  0  0  0  0  0  0  0  0  0  0
  189.8070  176.4720  138.3990 C   0  0  0  0  0  3  0  0  0  0  0  0
  190.3870  176.8380  139.6170 C   0  0  0  0  0  0  0  0  0  0  0  0
  190.6180  176.1910  137.2950 C   0  0  0  0  0  3  0  0  0  0  0  0
  190.1650  177.4840  141.9500 C   0  0  0  0  0  0  0  0  0  0  0  0
  191.5620  177.5650  142.0500 C   0  0  0  0  0  3  0  0  0  0  0  0
  192.8520  176.0170  136.1930 C   0  0  0  0  0  3  0  0  0  0  0  0
  194.1170  176.5870  136.3690 O   0  0  0  0  0  1  0  0  0  0  0  0
  192.9840  174.6440  135.9620 O   0  0  0  0  0  1  0  0  0  0  0  0
  181.4940  178.9500  143.5550 N   0  0  0  0  0  2  0  0  0  0  0  0
  180.7480  179.2480  142.3370 C   0  0  0  0  0  3  0  0  0  0  0  0
  180.0490  177.9930  141.8590 C   0  0  0  0  0  1  0  0  0  0  0  0
  179.7080  180.3210  142.6060 C   0  0  0  0  0  1  0  0  0  0  0  0
  1 11  1  0  0  0  0
  2 15  2  0  0  0  0
  3 10  1  0  0  0  0
  4  6  1  0  0  0  0
  5  9  1  0  0  0  0
  5  1  1  0  0  0  0
  6  8  1  1  0  0  0
  7 12  1  0  0  0  0
  8  7  1  0  0  0  0
  9  4  2  0  0  0  0
 10 12  1  0  0  0  0
 11  6  1  0  0  0  0
 11 10  2  0  0  0  0
 13  2  1  0  0  0  0
 14 13  2  0  0  0  0
 15  3  1  0  0  0  0
 16 14  1  0  0  0  0
 16 17  1  0  0  0  0
 17  1  2  0  0  0  0
 17 15  1  0  0  0  0
 18 27  1  0  0  0  0
 19 26  1  0  0  0  0
 20 21  2  0  0  0  0
 21 22  1  0  0  0  0
 22 18  2  0  0  0  0
 23 24  1  0  0  0  0
 24 22  1  0  0  0  0
 24 19  2  0  0  0  0
 25 20  1  0  0  0  0
 25 23  2  0  0  0  0
 26 27  2  0  0  0  0
 26  9  1  0  0  0  0
 28 29  1  0  0  0  0
 28 20  1  0  0  0  0
 30 28  1  0  0  0  0
 31 13  1  0  0  0  0
 32 34  1  0  0  0  0
 32 31  1  0  0  0  0
 33 32  1  0  0  0  0
M  END
>  <MODEL>
1

>  <REMARK>
 VINA RESULT:     -10.3      0.000      0.000
  Name = 
  4 active torsions:
  status: ('A' for Active; 'I' for Inactive)
    1  A    between atoms: C_3  and  N_25
    2  A    between atoms: C_7  and  C_11
    3  A    between atoms: C_18  and  C_30
    4  A    between atoms: C_23  and  N_25
                            x       y       z     vdW  Elec       q    Type
                         _______ _______ _______ _____ _____    ______ ____

>  <TORSDO>
F 4

$$$$
=
 OpenBabel10262423283D

 34 39  0  0  1  0  0  0  0  0999 V2000
  188.9570  177.2050  143.0340 C   0  0  0  0  0  0  0  0  0  0  0  0
  192.0830  176.9140  141.1960 C   0  0  0  0  0  3  0  0  0  0  0  0
  191.6840  176.7930  143.5270 O   0  0  0  0  0  0  0  0  0  0  0  0
  187.1940  177.5330  145.2350 N   0  0  0  0  0  0  0  0  0  0  0  0
  187.5580  177.4500  142.8820 N   0  0  0  0  0  2  0  0  0  0  0  0
  188.5220  176.9980  145.5570 C   0  0  2  0  0  3  0  0  0  0  0  0
  190.6080  177.6980  146.9270 C   0  0  0  0  0  2  0  0  0  0  0  0
  189.0710  177.6320  146.8480 C   0  0  0  0  0  2  0  0  0  0  0  0
  186.7210  177.6780  144.0270 C   0  0  0  0  0  0  0  0  0  0  0  0
  190.7960  176.8560  144.6100 C   0  0  0  0  0  0  0  0  0  0  0  0
  189.4860  177.0570  144.4010 C   0  0  0  0  0  0  0  0  0  0  0  0
  191.2990  176.6850  146.0110 C   0  0  0  0  0  2  0  0  0  0  0  0
  191.6350  177.0990  139.8040 C   0  0  0  0  0  0  0  0  0  0  0  0
  190.3390  177.2990  139.5220 C   0  0  0  0  0  3  0  0  0  0  0  0
  191.2240  176.9470  142.2130 C   0  0  0  0  0  0  0  0  0  0  0  0
  189.2540  177.3270  140.5690 C   0  0  0  0  0  2  0  0  0  0  0  0
  189.7780  177.1590  141.9730 C   0  0  0  0  0  0  0  0  0  0  0  0
  183.2660  179.0270  144.7530 C   0  0  0  0  0  3  0  0  0  0  0  0
  184.7480  178.1220  142.5540 C   0  0  0  0  0  3  0  0  0  0  0  0
  180.7980  179.4520  142.0230 C   0  0  0  0  0  0  0  0  0  0  0  0
  181.3710  179.4480  143.3040 C   0  0  0  0  0  3  0  0  0  0  0  0
  182.6870  179.0130  143.4830 C   0  0  0  0  0  0  0  0  0  0  0  0
  182.8560  178.5520  141.1010 C   0  0  0  0  0  3  0  0  0  0  0  0
  183.4340  178.5610  142.3730 C   0  0  0  0  0  0  0  0  0  0  0  0
  181.5400  178.9950  140.9280 C   0  0  0  0  0  3  0  0  0  0  0  0
  185.3320  178.1310  143.8310 C   0  0  0  0  0  0  0  0  0  0  0  0
  184.5810  178.5880  144.9250 C   0  0  0  0  0  3  0  0  0  0  0  0
  179.3790  179.8700  141.8190 C   0  0  0  0  0  3  0  0  0  0  0  0
  179.2680  181.2560  141.9670 O   0  0  0  0  0  1  0  0  0  0  0  0
  178.9310  179.4970  140.5480 O   0  0  0  0  0  1  0  0  0  0  0  0
  192.6190  177.0790  138.7630 N   0  0  0  0  0  2  0  0  0  0  0  0
  192.4640  176.3690  137.4980 C   0  0  0  0  0  3  0  0  0  0  0  0
  193.7640  176.4390  136.7230 C   0  0  0  0  0  1  0  0  0  0  0  0
  192.1180  174.9120  137.7500 C   0  0  0  0  0  1  0  0  0  0  0  0
  1 11  1  0  0  0  0
  2 15  2  0  0  0  0
  3 10  1  0  0  0  0
  4  6  1  0  0  0  0
  5  1  1  0  0  0  0
  5  9  1  0  0  0  0
  6  8  1  1  0  0  0
  8  7  1  0  0  0  0
  9  4  2  0  0  0  0
 10 12  1  0  0  0  0
 11 10  2  0  0  0  0
 11  6  1  0  0  0  0
 12  7  1  0  0  0  0
 13  2  1  0  0  0  0
 14 13  2  0  0  0  0
 14 16  1  0  0  0  0
 15  3  1  0  0  0  0
 16 17  1  0  0  0  0
 17 15  1  0  0  0  0
 17  1  2  0  0  0  0
 18 27  1  0  0  0  0
 19 26  1  0  0  0  0
 20 21  2  0  0  0  0
 21 22  1  0  0  0  0
 22 18  2  0  0  0  0
 23 24  1  0  0  0  0
 24 19  2  0  0  0  0
 24 22  1  0  0  0  0
 25 23  2  0  0  0  0
 25 20  1  0  0  0  0
 26  9  1  0  0  0  0
 26 27  2  0  0  0  0
 28 29  1  0  0  0  0
 28 20  1  0  0  0  0
 30 28  1  0  0  0  0
 31 13  1  0  0  0  0
 32 34  1  0  0  0  0
 32 31  1  0  0  0  0
 33 32  1  0  0  0  0
M  END
>  <MODEL>
2

>  <REMARK>
 VINA RESULT:     -10.2      2.805      9.068
  Name = 
  4 active torsions:
  status: ('A' for Active; 'I' for Inactive)
    1  A    between atoms: C_3  and  N_25
    2  A    between atoms: C_7  and  C_11
    3  A    between atoms: C_18  and  C_30
    4  A    between atoms: C_23  and  N_25
                            x       y       z     vdW  Elec       q    Type
                         _______ _______ _______ _____ _____    ______ ____

>  <TORSDO>
F 4

$$$$
=
 OpenBabel10262423283D

 34 39  0  0  1  0  0  0  0  0999 V2000
  183.2310  178.4690  141.0650 C   0  0  0  0  0  0  0  0  0  0  0  0
  181.4410  178.2070  137.9080 C   0  0  0  0  0  3  0  0  0  0  0  0
  180.6240  178.7240  140.0700 O   0  0  0  0  0  0  0  0  0  0  0  0
  183.6590  178.6380  143.8660 N   0  0  0  0  0  0  0  0  0  0  0  0
  184.5190  178.3220  141.6660 N   0  0  0  0  0  2  0  0  0  0  0  0
  182.3510  179.1050  143.3920 C   0  0  2  0  0  3  0  0  0  0  0  0
  179.8550  178.4560  143.6580 C   0  0  0  0  0  2  0  0  0  0  0  0
  181.2280  178.6370  144.3350 C   0  0  0  0  0  2  0  0  0  0  0  0
  184.6710  178.3470  143.0940 C   0  0  0  0  0  0  0  0  0  0  0  0
  180.8530  178.9060  141.4410 C   0  0  0  0  0  0  0  0  0  0  0  0
  182.0920  178.7850  141.9430 C   0  0  0  0  0  0  0  0  0  0  0  0
  179.7190  179.2520  142.3580 C   0  0  0  0  0  2  0  0  0  0  0  0
  182.5230  177.8440  136.9750 C   0  0  0  0  0  0  0  0  0  0  0  0
  183.7850  177.7120  137.4080 C   0  0  0  0  0  3  0  0  0  0  0  0
  181.6770  178.4050  139.2040 C   0  0  0  0  0  0  0  0  0  0  0  0
  184.2030  177.9390  138.8380 C   0  0  0  0  0  2  0  0  0  0  0  0
  183.0490  178.2810  139.7480 C   0  0  0  0  0  0  0  0  0  0  0  0
  188.3070  177.3660  143.4200 C   0  0  0  0  0  3  0  0  0  0  0  0
  186.1260  177.9310  145.0870 C   0  0  0  0  0  3  0  0  0  0  0  0
  189.8480  176.9330  146.7600 C   0  0  0  0  0  0  0  0  0  0  0  0
  189.6930  176.9700  145.3660 C   0  0  0  0  0  3  0  0  0  0  0  0
  188.4580  177.3080  144.8060 C   0  0  0  0  0  0  0  0  0  0  0  0
  187.5150  177.5440  147.0350 C   0  0  0  0  0  3  0  0  0  0  0  0
  187.3620  177.5970  145.6470 C   0  0  0  0  0  0  0  0  0  0  0  0
  188.7550  177.2110  147.5890 C   0  0  0  0  0  3  0  0  0  0  0  0
  185.9700  177.9860  143.6920 C   0  0  0  0  0  0  0  0  0  0  0  0
  187.0680  177.7030  142.8660 C   0  0  0  0  0  3  0  0  0  0  0  0
  191.1480  176.5280  147.3760 C   0  0  0  0  0  3  0  0  0  0  0  0
  192.0600  176.1870  146.3740 O   0  0  0  0  0  1  0  0  0  0  0  0
  191.6710  177.5670  148.1530 O   0  0  0  0  0  1  0  0  0  0  0  0
  182.1890  177.6190  135.6000 N   0  0  0  0  0  2  0  0  0  0  0  0
  182.0600  176.3010  134.9890 C   0  0  0  0  0  3  0  0  0  0  0  0
  183.4340  175.7900  134.6070 C   0  0  0  0  0  1  0  0  0  0  0  0
  181.4260  175.3270  135.9670 C   0  0  0  0  0  1  0  0  0  0  0  0
  1  5  1  0  0  0  0
  1 11  1  0  0  0  0
  2 15  2  0  0  0  0
  3 10  1  0  0  0  0
  5  9  1  0  0  0  0
  6  4  1  0  0  0  0
  6  8  1  1  0  0  0
  7  8  1  0  0  0  0
  9 26  1  0  0  0  0
  9  4  2  0  0  0  0
 10 11  2  0  0  0  0
 10 12  1  0  0  0  0
 11  6  1  0  0  0  0
 12  7  1  0  0  0  0
 13 14  2  0  0  0  0
 13  2  1  0  0  0  0
 14 16  1  0  0  0  0
 15 17  1  0  0  0  0
 15  3  1  0  0  0  0
 16 17  1  0  0  0  0
 17  1  2  0  0  0  0
 18 22  1  0  0  0  0
 19 24  1  0  0  0  0
 20 28  1  0  0  0  0
 20 25  1  0  0  0  0
 21 20  2  0  0  0  0
 22 21  1  0  0  0  0
 22 24  2  0  0  0  0
 23 25  2  0  0  0  0
 24 23  1  0  0  0  0
 26 19  2  0  0  0  0
 27 18  2  0  0  0  0
 27 26  1  0  0  0  0
 28 30  1  0  0  0  0
 29 28  1  0  0  0  0
 31 13  1  0  0  0  0
 32 31  1  0  0  0  0
 32 34  1  0  0  0  0
 33 32  1  0  0  0  0
M  END
>  <MODEL>
3

>  <REMARK>
 VINA RESULT:      -9.9      4.430      7.609
  Name = 
  4 active torsions:
  status: ('A' for Active; 'I' for Inactive)
    1  A    between atoms: C_3  and  N_25
    2  A    between atoms: C_7  and  C_11
    3  A    between atoms: C_18  and  C_30
    4  A    between atoms: C_23  and  N_25
                            x       y       z     vdW  Elec       q    Type
                         _______ _______ _______ _____ _____    ______ ____

>  <TORSDO>
F 4

$$$$
=
 OpenBabel10262423283D

 34 39  0  0  1  0  0  0  0  0999 V2000
  182.7410  178.6420  141.1240 C   0  0  0  0  0  0  0  0  0  0  0  0
  181.5580  178.1600  137.7170 C   0  0  0  0  0  3  0  0  0  0  0  0
  180.3510  178.7530  139.6660 O   0  0  0  0  0  0  0  0  0  0  0  0
  182.6510  178.9640  143.9430 N   0  0  0  0  0  0  0  0  0  0  0  0
  183.9020  178.5710  141.9540 N   0  0  0  0  0  2  0  0  0  0  0  0
  181.4370  179.3600  143.2180 C   0  0  2  0  0  3  0  0  0  0  0  0
  178.9530  178.6340  143.0680 C   0  0  0  0  0  2  0  0  0  0  0  0
  180.1750  178.8980  143.9690 C   0  0  0  0  0  2  0  0  0  0  0  0
  183.7930  178.6720  143.3830 C   0  0  0  0  0  0  0  0  0  0  0  0
  180.3230  179.0110  141.0440 C   0  0  0  0  0  0  0  0  0  0  0  0
  181.4540  178.9590  141.7660 C   0  0  0  0  0  0  0  0  0  0  0  0
  179.0330  179.3600  141.7230 C   0  0  0  0  0  2  0  0  0  0  0  0
  182.8000  177.7910  137.0140 C   0  0  0  0  0  0  0  0  0  0  0  0
  183.9660  177.7260  137.6730 C   0  0  0  0  0  3  0  0  0  0  0  0
  181.5510  178.4300  139.0220 C   0  0  1  0  0  3  0  0  0  0  0  0
  184.1120  178.0380  139.1400 C   0  0  0  0  0  3  0  0  0  0  0  0
  182.8050  178.3820  139.8080 C   0  0  0  0  0  0  0  0  0  0  0  0
  186.0280  178.3440  146.4130 C   0  0  0  0  0  3  0  0  0  0  0  0
  186.1510  177.8810  143.6520 C   0  0  0  0  0  3  0  0  0  0  0  0
  189.4820  177.0500  146.0740 C   0  0  0  0  0  0  0  0  0  0  0  0
  188.3120  177.5730  146.6450 C   0  0  0  0  0  3  0  0  0  0  0  0
  187.2000  177.8440  145.8440 C   0  0  0  0  0  0  0  0  0  0  0  0
  188.4330  177.1000  143.8850 C   0  0  0  0  0  3  0  0  0  0  0  0
  187.2620  177.6060  144.4530 C   0  0  0  0  0  0  0  0  0  0  0  0
  189.5410  176.8250  144.6940 C   0  0  0  0  0  3  0  0  0  0  0  0
  184.9720  178.3880  144.2220 C   0  0  0  0  0  0  0  0  0  0  0  0
  184.9200  178.6150  145.6050 C   0  0  0  0  0  3  0  0  0  0  0  0
  190.6960  176.7980  146.9070 C   0  0  0  0  0  3  0  0  0  0  0  0
  191.8420  177.1660  146.1970 O   0  0  0  0  0  1  0  0  0  0  0  0
  190.6330  177.5200  148.1030 O   0  0  0  0  0  1  0  0  0  0  0  0
  182.7270  177.4870  135.6160 N   0  0  0  0  0  2  0  0  0  0  0  0
  182.7720  176.1370  135.0640 C   0  0  0  0  0  3  0  0  0  0  0  0
  184.2110  175.7620  134.7780 C   0  0  0  0  0  1  0  0  0  0  0  0
  182.1900  175.1440  136.0530 C   0  0  0  0  0  1  0  0  0  0  0  0
  1 11  1  0  0  0  0
  1  5  1  0  0  0  0
  3 10  1  0  0  0  0
  5  9  1  0  0  0  0
  6  4  1  0  0  0  0
  6  8  1  1  0  0  0
  7  8  1  0  0  0  0
  9  4  2  0  0  0  0
  9 26  1  0  0  0  0
 10 12  1  0  0  0  0
 10 11  2  0  0  0  0
 11  6  1  0  0  0  0
 12  7  1  0  0  0  0
 13 14  1  0  0  0  0
 13  2  2  0  0  0  0
 14 16  2  0  0  0  0
 15  2  1  1  0  0  0
 15  3  1  0  0  0  0
 15 17  1  0  0  0  0
 16 17  1  0  0  0  0
 17  1  2  0  0  0  0
 19 26  2  0  0  0  0
 19 24  1  0  0  0  0
 20 21  1  0  0  0  0
 20 28  1  0  0  0  0
 22 18  1  0  0  0  0
 22 21  2  0  0  0  0
 23 24  2  0  0  0  0
 23 25  1  0  0  0  0
 24 22  1  0  0  0  0
 25 20  2  0  0  0  0
 26 27  1  0  0  0  0
 27 18  2  0  0  0  0
 28 30  1  0  0  0  0
 29 28  1  0  0  0  0
 31 13  1  0  0  0  0
 32 31  1  0  0  0  0
 32 34  1  0  0  0  0
 33 32  1  0  0  0  0
M  END
>  <MODEL>
4

>  <REMARK>
 VINA RESULT:      -9.9      4.495      7.899
  Name = 
  4 active torsions:
  status: ('A' for Active; 'I' for Inactive)
    1  A    between atoms: C_3  and  N_25
    2  A    between atoms: C_7  and  C_11
    3  A    between atoms: C_18  and  C_30
    4  A    between atoms: C_23  and  N_25
                            x       y       z     vdW  Elec       q    Type
                         _______ _______ _______ _____ _____    ______ ____

>  <TORSDO>
F 4

$$$$
=
 OpenBabel10262423283D

 34 39  0  0  1  0  0  0  0  0999 V2000
  186.4850  178.4130  140.4520 C   0  0  0  0  0  0  0  0  0  0  0  0
  186.4900  178.2200  136.8190 C   0  0  0  0  0  3  0  0  0  0  0  0
  184.7050  178.6840  138.3050 O   0  0  0  0  0  0  0  0  0  0  0  0
  185.4720  178.5170  143.1020 N   0  0  0  0  0  0  0  0  0  0  0  0
  187.3090  178.2550  141.6080 N   0  0  0  0  0  2  0  0  0  0  0  0
  184.5610  178.9920  142.0530 C   0  0  2  0  0  3  0  0  0  0  0  0
  182.2690  178.3290  141.0400 C   0  0  0  0  0  2  0  0  0  0  0  0
  183.1250  178.4990  142.3090 C   0  0  0  0  0  2  0  0  0  0  0  0
  186.7370  178.2470  142.9250 C   0  0  0  0  0  0  0  0  0  0  0  0
  184.2250  178.8340  139.6140 C   0  0  0  0  0  0  0  0  0  0  0  0
  185.0560  178.7050  140.6590 C   0  0  0  0  0  0  0  0  0  0  0  0
  182.7820  179.1550  139.8570 C   0  0  0  0  0  2  0  0  0  0  0  0
  187.8960  177.8820  136.5350 C   0  0  0  0  0  0  0  0  0  0  0  0
  188.7820  177.7430  137.5320 C   0  0  0  0  0  3  0  0  0  0  0  0
  186.0530  178.3880  138.0660 C   0  0  1  0  0  3  0  0  0  0  0  0
  188.4360  177.9370  138.9860 C   0  0  0  0  0  3  0  0  0  0  0  0
  186.9790  178.2540  139.2140 C   0  0  0  0  0  0  0  0  0  0  0  0
  187.8150  177.5160  146.4730 C   0  0  0  0  0  3  0  0  0  0  0  0
  188.9210  177.5120  143.8990 C   0  0  0  0  0  3  0  0  0  0  0  0
  191.2790  176.4270  147.2020 C   0  0  0  0  0  0  0  0  0  0  0  0
  189.9410  176.8050  147.3900 C   0  0  0  0  0  3  0  0  0  0  0  0
  189.1520  177.1600  146.2920 C   0  0  0  0  0  0  0  0  0  0  0  0
  191.0470  176.7910  144.8130 C   0  0  0  0  0  3  0  0  0  0  0  0
  189.7090  177.1530  144.9950 C   0  0  0  0  0  0  0  0  0  0  0  0
  191.8290  176.4300  145.9150 C   0  0  0  0  0  3  0  0  0  0  0  0
  187.5760  177.8760  144.0790 C   0  0  0  0  0  0  0  0  0  0  0  0
  187.0320  177.8730  145.3720 C   0  0  0  0  0  3  0  0  0  0  0  0
  192.1510  176.0890  148.3680 C   0  0  0  0  0  3  0  0  0  0  0  0
  193.1930  175.2540  147.9520 O   0  0  0  0  0  1  0  0  0  0  0  0
  192.6800  177.2490  148.9420 O   0  0  0  0  0  1  0  0  0  0  0  0
  188.2880  177.6880  135.1700 N   0  0  0  0  0  2  0  0  0  0  0  0
  188.6530  176.3990  134.5940 C   0  0  0  0  0  3  0  0  0  0  0  0
  190.1430  176.1820  134.7560 C   0  0  0  0  0  1  0  0  0  0  0  0
  187.9100  175.2780  135.2990 C   0  0  0  0  0  1  0  0  0  0  0  0
  1 11  1  0  0  0  0
  1  5  1  0  0  0  0
  3 10  1  0  0  0  0
  5  9  1  0  0  0  0
  6  8  1  1  0  0  0
  6  4  1  0  0  0  0
  7  8  1  0  0  0  0
  9  4  2  0  0  0  0
  9 26  1  0  0  0  0
 10 12  1  0  0  0  0
 10 11  2  0  0  0  0
 11  6  1  0  0  0  0
 12  7  1  0  0  0  0
 13  2  2  0  0  0  0
 13 14  1  0  0  0  0
 14 16  2  0  0  0  0
 15  2  1  1  0  0  0
 15  3  1  0  0  0  0
 15 17  1  0  0  0  0
 16 17  1  0  0  0  0
 17  1  2  0  0  0  0
 19 26  2  0  0  0  0
 19 24  1  0  0  0  0
 20 21  1  0  0  0  0
 20 28  1  0  0  0  0
 22 18  1  0  0  0  0
 22 21  2  0  0  0  0
 23 24  2  0  0  0  0
 23 25  1  0  0  0  0
 24 22  1  0  0  0  0
 25 20  2  0  0  0  0
 26 27  1  0  0  0  0
 27 18  2  0  0  0  0
 28 30  1  0  0  0  0
 29 28  1  0  0  0  0
 31 13  1  0  0  0  0
 32 33  1  0  0  0  0
 32 31  1  0  0  0  0
 32 34  1  0  0  0  0
M  END
>  <MODEL>
5

>  <REMARK>
 VINA RESULT:      -9.7      3.555      8.147
  Name = 
  4 active torsions:
  status: ('A' for Active; 'I' for Inactive)
    1  A    between atoms: C_3  and  N_25
    2  A    between atoms: C_7  and  C_11
    3  A    between atoms: C_18  and  C_30
    4  A    between atoms: C_23  and  N_25
                            x       y       z     vdW  Elec       q    Type
                         _______ _______ _______ _____ _____    ______ ____

>  <TORSDO>
F 4

$$$$
=
 OpenBabel10262423283D

 34 39  0  0  1  0  0  0  0  0999 V2000
  183.7700  178.4450  141.3300 C   0  0  0  0  0  0  0  0  0  0  0  0
  182.4130  178.1310  137.9690 C   0  0  0  0  0  3  0  0  0  0  0  0
  181.3030  178.5960  140.0090 O   0  0  0  0  0  0  0  0  0  0  0  0
  183.8260  178.6100  144.1630 N   0  0  0  0  0  0  0  0  0  0  0  0
  184.9740  178.3480  142.0920 N   0  0  0  0  0  2  0  0  0  0  0  0
  182.5710  179.0240  143.5270 C   0  0  2  0  0  3  0  0  0  0  0  0
  180.0920  178.2660  143.4680 C   0  0  0  0  0  2  0  0  0  0  0  0
  181.3570  178.5010  144.3160 C   0  0  0  0  0  2  0  0  0  0  0  0
  184.9410  178.3680  143.5280 C   0  0  0  0  0  0  0  0  0  0  0  0
  181.3460  178.7770  141.3990 C   0  0  0  0  0  0  0  0  0  0  0  0
  182.5140  178.7050  142.0550 C   0  0  0  0  0  0  0  0  0  0  0  0
  180.0900  179.0660  142.1630 C   0  0  0  0  0  2  0  0  0  0  0  0
  183.6200  177.8230  137.1810 C   0  0  0  0  0  0  0  0  0  0  0  0
  184.8200  177.7410  137.7730 C   0  0  0  0  0  3  0  0  0  0  0  0
  182.4710  178.3290  139.2850 C   0  0  0  0  0  0  0  0  0  0  0  0
  185.0410  177.9740  139.2460 C   0  0  0  0  0  2  0  0  0  0  0  0
  183.7660  178.2590  140.0000 C   0  0  0  0  0  0  0  0  0  0  0  0
  187.3240  177.8590  146.4170 C   0  0  0  0  0  3  0  0  0  0  0  0
  187.3370  177.6530  143.6230 C   0  0  0  0  0  3  0  0  0  0  0  0
  190.8040  176.7440  145.8130 C   0  0  0  0  0  0  0  0  0  0  0  0
  189.6430  177.1650  146.4800 C   0  0  0  0  0  3  0  0  0  0  0  0
  188.4860  177.4610  145.7550 C   0  0  0  0  0  0  0  0  0  0  0  0
  189.6550  176.9490  143.6850 C   0  0  0  0  0  3  0  0  0  0  0  0
  188.4930  177.3520  144.3470 C   0  0  0  0  0  0  0  0  0  0  0  0
  190.8080  176.6470  144.4170 C   0  0  0  0  0  3  0  0  0  0  0  0
  186.1670  178.0580  144.2860 C   0  0  0  0  0  0  0  0  0  0  0  0
  186.1710  178.1560  145.6850 C   0  0  0  0  0  3  0  0  0  0  0  0
  192.0640  176.4680  146.5680 C   0  0  0  0  0  3  0  0  0  0  0  0
  191.8910  176.8010  147.9140 O   0  0  0  0  0  1  0  0  0  0  0  0
  192.4190  175.1190  146.4600 O   0  0  0  0  0  1  0  0  0  0  0  0
  183.4760  177.5950  135.7740 N   0  0  0  0  0  2  0  0  0  0  0  0
  183.7130  176.3130  135.1190 C   0  0  0  0  0  3  0  0  0  0  0  0
  185.1830  176.1930  134.7740 C   0  0  0  0  0  1  0  0  0  0  0  0
  183.3270  175.1710  136.0420 C   0  0  0  0  0  1  0  0  0  0  0  0
  1 11  1  0  0  0  0
  1  5  1  0  0  0  0
  2 15  2  0  0  0  0
  3 10  1  0  0  0  0
  5  9  1  0  0  0  0
  6  4  1  0  0  0  0
  6  8  1  1  0  0  0
  7  8  1  0  0  0  0
  9  4  2  0  0  0  0
  9 26  1  0  0  0  0
 10 11  2  0  0  0  0
 10 12  1  0  0  0  0
 11  6  1  0  0  0  0
 12  7  1  0  0  0  0
 13 14  2  0  0  0  0
 13  2  1  0  0  0  0
 14 16  1  0  0  0  0
 15 17  1  0  0  0  0
 15  3  1  0  0  0  0
 16 17  1  0  0  0  0
 17  1  2  0  0  0  0
 19 26  2  0  0  0  0
 19 24  1  0  0  0  0
 20 21  1  0  0  0  0
 20 28  1  0  0  0  0
 22 18  1  0  0  0  0
 22 21  2  0  0  0  0
 23 24  2  0  0  0  0
 23 25  1  0  0  0  0
 24 22  1  0  0  0  0
 25 20  2  0  0  0  0
 26 27  1  0  0  0  0
 27 18  2  0  0  0  0
 28 29  1  0  0  0  0
 30 28  1  0  0  0  0
 31 13  1  0  0  0  0
 32 31  1  0  0  0  0
 32 34  1  0  0  0  0
 33 32  1  0  0  0  0
M  END
>  <MODEL>
6

>  <REMARK>
 VINA RESULT:      -9.7      4.214      7.293
  Name = 
  4 active torsions:
  status: ('A' for Active; 'I' for Inactive)
    1  A    between atoms: C_3  and  N_25
    2  A    between atoms: C_7  and  C_11
    3  A    between atoms: C_18  and  C_30
    4  A    between atoms: C_23  and  N_25
                            x       y       z     vdW  Elec       q    Type
                         _______ _______ _______ _____ _____    ______ ____

>  <TORSDO>
F 4

$$$$
=
 OpenBabel10262423283D

 34 39  0  0  1  0  0  0  0  0999 V2000
  186.4250  178.2290  142.9200 C   0  0  0  0  0  0  0  0  0  0  0  0
  182.9910  178.6390  144.0520 C   0  0  0  0  0  3  0  0  0  0  0  0
  184.9820  178.4130  145.3150 O   0  0  0  0  0  0  0  0  0  0  0  0
  189.2020  177.6530  143.0270 N   0  0  0  0  0  0  0  0  0  0  0  0
  187.2360  178.0860  141.7530 N   0  0  0  0  0  2  0  0  0  0  0  0
  188.5870  178.0600  144.2970 C   0  0  2  0  0  3  0  0  0  0  0  0
  188.1310  177.0430  146.6370 C   0  0  0  0  0  2  0  0  0  0  0  0
  189.1140  177.2030  145.4610 C   0  0  0  0  0  2  0  0  0  0  0  0
  188.6220  177.7260  141.8600 C   0  0  0  0  0  0  0  0  0  0  0  0
  186.3710  178.2280  145.3670 C   0  0  0  0  0  0  0  0  0  0  0  0
  187.0840  178.1330  144.2340 C   0  0  0  0  0  0  0  0  0  0  0  0
  187.0740  178.1500  146.6880 C   0  0  0  0  0  2  0  0  0  0  0  0
  182.2560  178.6990  142.7760 C   0  0  0  0  0  0  0  0  0  0  0  0
  182.9070  178.6150  141.6070 C   0  0  0  0  0  3  0  0  0  0  0  0
  184.3150  178.4920  144.0870 C   0  0  0  0  0  0  0  0  0  0  0  0
  184.4040  178.4810  141.4940 C   0  0  0  0  0  2  0  0  0  0  0  0
  185.0960  178.3980  142.8320 C   0  0  0  0  0  0  0  0  0  0  0  0
  189.4040  176.8080  138.2780 C   0  0  0  0  0  3  0  0  0  0  0  0
  190.7820  177.3170  140.6640 C   0  0  0  0  0  3  0  0  0  0  0  0
  192.9110  176.3720  137.1690 C   0  0  0  0  0  0  0  0  0  0  0  0
  191.5090  176.4190  137.1450 C   0  0  0  0  0  3  0  0  0  0  0  0
  190.7980  176.7400  138.3040 C   0  0  0  0  0  0  0  0  0  0  0  0
  192.8890  176.9380  139.5290 C   0  0  0  0  0  3  0  0  0  0  0  0
  191.4930  177.0010  139.5050 C   0  0  0  0  0  0  0  0  0  0  0  0
  193.5950  176.6220  138.3640 C   0  0  0  0  0  3  0  0  0  0  0  0
  189.3780  177.3830  140.6420 C   0  0  0  0  0  0  0  0  0  0  0  0
  188.6990  177.1270  139.4410 C   0  0  0  0  0  3  0  0  0  0  0  0
  193.6860  175.9850  135.9510 C   0  0  0  0  0  3  0  0  0  0  0  0
  194.9890  176.4830  136.0420 O   0  0  0  0  0  1  0  0  0  0  0  0
  193.7240  174.5940  135.8110 O   0  0  0  0  0  1  0  0  0  0  0  0
  180.8300  178.8310  142.8170 N   0  0  0  0  0  2  0  0  0  0  0  0
  180.1240  180.1010  142.9470 C   0  0  0  0  0  3  0  0  0  0  0  0
  179.6360  180.5440  141.5840 C   0  0  0  0  0  1  0  0  0  0  0  0
  178.9310  179.9480  143.8740 C   0  0  0  0  0  1  0  0  0  0  0  0
  1 11  1  0  0  0  0
  2 15  2  0  0  0  0
  3 10  1  0  0  0  0
  4  6  1  0  0  0  0
  5  9  1  0  0  0  0
  5  1  1  0  0  0  0
  6  8  1  1  0  0  0
  7 12  1  0  0  0  0
  8  7  1  0  0  0  0
  9  4  2  0  0  0  0
 10 12  1  0  0  0  0
 11  6  1  0  0  0  0
 11 10  2  0  0  0  0
 13 31  1  0  0  0  0
 13  2  1  0  0  0  0
 14 13  2  0  0  0  0
 15  3  1  0  0  0  0
 16 14  1  0  0  0  0
 16 17  1  0  0  0  0
 17  1  2  0  0  0  0
 17 15  1  0  0  0  0
 18 22  2  0  0  0  0
 18 27  1  0  0  0  0
 20 25  1  0  0  0  0
 21 20  2  0  0  0  0
 21 22  1  0  0  0  0
 22 24  1  0  0  0  0
 24 23  1  0  0  0  0
 24 19  2  0  0  0  0
 25 23  2  0  0  0  0
 26 19  1  0  0  0  0
 26  9  1  0  0  0  0
 27 26  2  0  0  0  0
 28 29  1  0  0  0  0
 28 20  1  0  0  0  0
 30 28  1  0  0  0  0
 31 32  1  0  0  0  0
 32 34  1  0  0  0  0
 33 32  1  0  0  0  0
M  END
>  <MODEL>
7

>  <REMARK>
 VINA RESULT:      -9.5      1.105      1.761
  Name = 
  4 active torsions:
  status: ('A' for Active; 'I' for Inactive)
    1  A    between atoms: C_3  and  N_25
    2  A    between atoms: C_7  and  C_11
    3  A    between atoms: C_18  and  C_30
    4  A    between atoms: C_23  and  N_25
                            x       y       z     vdW  Elec       q    Type
                         _______ _______ _______ _____ _____    ______ ____

>  <TORSDO>
F 4

$$$$
=
 OpenBabel10262423283D

 34 39  0  0  1  0  0  0  0  0999 V2000
  190.7980  176.8140  138.0310 C   0  0  0  0  0  0  0  0  0  0  0  0
  192.7890  175.4780  135.2940 C   0  0  0  0  0  3  0  0  0  0  0  0
  190.5980  176.3770  135.2710 O   0  0  0  0  0  0  0  0  0  0  0  0
  188.5210  177.7460  139.4460 N   0  0  0  0  0  0  0  0  0  0  0  0
  190.7960  177.0370  139.4420 N   0  0  0  0  0  2  0  0  0  0  0  0
  188.4510  177.8570  137.9840 C   0  0  2  0  0  3  0  0  0  0  0  0
  187.0360  176.8900  136.0390 C   0  0  0  0  0  2  0  0  0  0  0  0
  187.0550  177.4600  137.4710 C   0  0  0  0  0  2  0  0  0  0  0  0
  189.5970  177.4430  140.1210 C   0  0  0  0  0  0  0  0  0  0  0  0
  189.5070  176.9310  135.9560 C   0  0  0  0  0  0  0  0  0  0  0  0
  189.5770  177.1460  137.2780 C   0  0  0  0  0  0  0  0  0  0  0  0
  188.2590  177.3020  135.2150 C   0  0  0  0  0  2  0  0  0  0  0  0
  194.0280  175.0780  135.9860 C   0  0  0  0  0  0  0  0  0  0  0  0
  194.1660  175.2700  137.3060 C   0  0  0  0  0  3  0  0  0  0  0  0
  191.7710  176.0310  135.9520 C   0  0  1  0  0  3  0  0  0  0  0  0
  193.1110  175.9130  138.1700 C   0  0  0  0  0  3  0  0  0  0  0  0
  191.8600  176.2750  137.4100 C   0  0  0  0  0  0  0  0  0  0  0  0
  190.7580  177.5290  143.7170 C   0  0  0  0  0  3  0  0  0  0  0  0
  188.3480  177.4540  142.2890 C   0  0  0  0  0  3  0  0  0  0  0  0
  188.3000  177.5470  146.4890 C   0  0  0  0  0  0  0  0  0  0  0  0
  189.5240  177.5390  145.8010 C   0  0  0  0  0  3  0  0  0  0  0  0
  189.5430  177.5150  144.4040 C   0  0  0  0  0  0  0  0  0  0  0  0
  187.1120  177.4750  144.3730 C   0  0  0  0  0  3  0  0  0  0  0  0
  188.3280  177.4830  143.6850 C   0  0  0  0  0  0  0  0  0  0  0  0
  187.0990  177.5050  145.7720 C   0  0  0  0  0  3  0  0  0  0  0  0
  189.5700  177.4630  141.5950 C   0  0  0  0  0  0  0  0  0  0  0  0
  190.7700  177.5020  142.3200 C   0  0  0  0  0  3  0  0  0  0  0  0
  188.2610  177.5260  147.9820 C   0  0  0  0  0  3  0  0  0  0  0  0
  189.4550  178.0410  148.4940 O   0  0  0  0  0  1  0  0  0  0  0  0
  187.1830  178.2790  148.4580 O   0  0  0  0  0  1  0  0  0  0  0  0
  195.0700  174.4650  135.2180 N   0  0  0  0  0  2  0  0  0  0  0  0
  196.4420  174.2920  135.6830 C   0  0  0  0  0  3  0  0  0  0  0  0
  197.0080  173.0120  135.1030 C   0  0  0  0  0  1  0  0  0  0  0  0
  197.3010  175.4600  135.2340 C   0  0  0  0  0  1  0  0  0  0  0  0
  1  5  1  0  0  0  0
  2 13  2  0  0  0  0
  3 15  1  0  0  0  0
  3 10  1  0  0  0  0
  4  9  2  0  0  0  0
  5  9  1  0  0  0  0
  6  8  1  6  0  0  0
  6  4  1  0  0  0  0
  7  8  1  0  0  0  0
  9 26  1  0  0  0  0
 10 11  2  0  0  0  0
 11  6  1  0  0  0  0
 11  1  1  0  0  0  0
 12 10  1  0  0  0  0
 12  7  1  0  0  0  0
 13 14  1  0  0  0  0
 14 16  2  0  0  0  0
 15  2  1  1  0  0  0
 15 17  1  0  0  0  0
 17  1  2  0  0  0  0
 17 16  1  0  0  0  0
 18 22  1  0  0  0  0
 19 24  1  0  0  0  0
 20 28  1  0  0  0  0
 21 20  1  0  0  0  0
 22 21  2  0  0  0  0
 23 25  1  0  0  0  0
 24 23  2  0  0  0  0
 24 22  1  0  0  0  0
 25 20  2  0  0  0  0
 26 19  2  0  0  0  0
 26 27  1  0  0  0  0
 27 18  2  0  0  0  0
 28 30  1  0  0  0  0
 28 29  1  0  0  0  0
 31 32  1  0  0  0  0
 31 13  1  0  0  0  0
 33 32  1  0  0  0  0
 34 32  1  0  0  0  0
M  END
>  <MODEL>
8

>  <REMARK>
 VINA RESULT:      -9.4      3.422     10.805
  Name = 
  4 active torsions:
  status: ('A' for Active; 'I' for Inactive)
    1  A    between atoms: C_3  and  N_25
    2  A    between atoms: C_7  and  C_11
    3  A    between atoms: C_18  and  C_30
    4  A    between atoms: C_23  and  N_25
                            x       y       z     vdW  Elec       q    Type
                         _______ _______ _______ _____ _____    ______ ____

>  <TORSDO>
F 4

$$$$
=
 OpenBabel10262423283D

 34 39  0  0  1  0  0  0  0  0999 V2000
  189.3700  177.3390  138.2440 C   0  0  0  0  0  0  0  0  0  0  0  0
  191.6780  176.0610  135.7380 C   0  0  0  0  0  3  0  0  0  0  0  0
  189.4920  176.9340  135.4740 O   0  0  0  0  0  0  0  0  0  0  0  0
  186.9340  178.2270  139.4000 N   0  0  0  0  0  0  0  0  0  0  0  0
  189.2030  177.5440  139.6480 N   0  0  0  0  0  2  0  0  0  0  0  0
  187.0300  178.3550  137.9410 C   0  0  2  0  0  3  0  0  0  0  0  0
  185.8600  177.3970  135.8360 C   0  0  0  0  0  2  0  0  0  0  0  0
  185.7080  177.9490  137.2660 C   0  0  0  0  0  2  0  0  0  0  0  0
  187.9300  177.9270  140.1900 C   0  0  0  0  0  0  0  0  0  0  0  0
  188.3240  177.4680  136.0360 C   0  0  0  0  0  0  0  0  0  0  0  0
  188.2380  177.6670  137.3600 C   0  0  0  0  0  0  0  0  0  0  0  0
  187.1630  177.8340  135.1610 C   0  0  0  0  0  2  0  0  0  0  0  0
  192.8340  175.6660  136.5630 C   0  0  0  0  0  0  0  0  0  0  0  0
  192.8180  175.8420  137.8920 C   0  0  0  0  0  3  0  0  0  0  0  0
  190.5840  176.5930  136.2810 C   0  0  1  0  0  3  0  0  0  0  0  0
  191.6630  176.4620  138.6370 C   0  0  0  0  0  3  0  0  0  0  0  0
  190.5020  176.8200  137.7430 C   0  0  0  0  0  0  0  0  0  0  0  0
  186.2500  178.1120  143.5700 C   0  0  0  0  0  3  0  0  0  0  0  0
  188.8200  177.7330  142.5200 C   0  0  0  0  0  3  0  0  0  0  0  0
  188.2240  177.7070  146.6780 C   0  0  0  0  0  0  0  0  0  0  0  0
  187.1380  177.9200  145.8150 C   0  0  0  0  0  3  0  0  0  0  0  0
  187.3320  177.9220  144.4320 C   0  0  0  0  0  0  0  0  0  0  0  0
  189.7090  177.5300  144.7650 C   0  0  0  0  0  3  0  0  0  0  0  0
  188.6270  177.7260  143.9030 C   0  0  0  0  0  0  0  0  0  0  0  0
  189.5070  177.5220  146.1500 C   0  0  0  0  0  3  0  0  0  0  0  0
  187.7330  177.9280  141.6510 C   0  0  0  0  0  0  0  0  0  0  0  0
  186.4510  178.1160  142.1870 C   0  0  0  0  0  3  0  0  0  0  0  0
  188.0450  177.7470  148.1610 C   0  0  0  0  0  3  0  0  0  0  0  0
  188.0590  176.4470  148.6740 O   0  0  0  0  0  1  0  0  0  0  0  0
  189.0590  178.5000  148.7620 O   0  0  0  0  0  1  0  0  0  0  0  0
  193.9650  175.0740  135.9120 N   0  0  0  0  0  2  0  0  0  0  0  0
  194.9490  174.2300  136.5790 C   0  0  0  0  0  3  0  0  0  0  0  0
  194.5400  172.7780  136.4390 C   0  0  0  0  0  1  0  0  0  0  0  0
  196.3180  174.4200  135.9510 C   0  0  0  0  0  1  0  0  0  0  0  0
  1  5  1  0  0  0  0
  2 13  2  0  0  0  0
  3 10  1  0  0  0  0
  3 15  1  0  0  0  0
  4  9  2  0  0  0  0
  5  9  1  0  0  0  0
  6  8  1  6  0  0  0
  6  4  1  0  0  0  0
  7  8  1  0  0  0  0
  9 26  1  0  0  0  0
 10 11  2  0  0  0  0
 11  6  1  0  0  0  0
 11  1  1  0  0  0  0
 12  7  1  0  0  0  0
 12 10  1  0  0  0  0
 13 14  1  0  0  0  0
 14 16  2  0  0  0  0
 15  2  1  1  0  0  0
 15 17  1  0  0  0  0
 17  1  2  0  0  0  0
 17 16  1  0  0  0  0
 18 22  1  0  0  0  0
 19 24  1  0  0  0  0
 20 28  1  0  0  0  0
 21 20  2  0  0  0  0
 22 21  1  0  0  0  0
 23 25  2  0  0  0  0
 24 22  2  0  0  0  0
 24 23  1  0  0  0  0
 25 20  1  0  0  0  0
 26 27  1  0  0  0  0
 26 19  2  0  0  0  0
 27 18  2  0  0  0  0
 28 29  1  0  0  0  0
 28 30  1  0  0  0  0
 31 13  1  0  0  0  0
 31 32  1  0  0  0  0
 33 32  1  0  0  0  0
 34 32  1  0  0  0  0
M  END
>  <MODEL>
9

>  <REMARK>
 VINA RESULT:      -9.1      3.116     10.393
  Name = 
  4 active torsions:
  status: ('A' for Active; 'I' for Inactive)
    1  A    between atoms: C_3  and  N_25
    2  A    between atoms: C_7  and  C_11
    3  A    between atoms: C_18  and  C_30
    4  A    between atoms: C_23  and  N_25
                            x       y       z     vdW  Elec       q    Type
                         _______ _______ _______ _____ _____    ______ ____

>  <TORSDO>
F 4

$$$$
