=
 OpenBabel10262419543D

 25 28  0  0  0  0  0  0  0  0999 V2000
  187.0340  178.0440  142.6540 N   0  0  0  0  0  0  0  0  0  0  0  0
  188.2270  177.5690  142.1910 C   0  0  0  0  0  0  0  0  0  0  0  0
  186.3470  178.7710  140.5040 C   0  0  0  0  0  3  0  0  0  0  0  0
  186.4840  178.0760  143.8800 C   0  0  0  0  0  0  0  0  0  0  0  0
  190.4790  176.8790  143.0150 C   0  0  0  0  0  0  0  0  0  0  0  0
  184.9220  178.4080  146.1400 C   0  0  0  0  0  3  0  0  0  0  0  0
  187.5180  178.2880  140.0070 N   0  0  0  0  0  0  0  0  0  0  0  0
  185.2590  178.6850  143.7860 C   0  0  0  0  0  0  0  0  0  0  0  0
  184.4440  178.8690  144.8990 C   0  0  0  0  0  3  0  0  0  0  0  0
  189.6650  177.1350  140.1090 C   0  0  0  0  0  0  0  0  0  0  0  0
  189.5170  176.6410  138.7810 N   0  0  0  0  0  1  0  0  0  0  0  0
  189.1520  176.8820  143.1220 C   0  0  0  0  0  3  0  0  0  0  0  0
  186.1860  177.7830  146.2370 C   0  0  0  0  0  3  0  0  0  0  0  0
  186.1140  178.6370  141.8630 C   0  0  0  0  0  0  0  0  0  0  0  0
  184.9970  179.0510  142.5130 N   0  0  0  0  0  0  0  0  0  0  0  0
  190.8500  177.1210  140.6440 N   0  0  0  0  0  0  0  0  0  0  0  0
  186.9880  177.6100  145.0950 C   0  0  0  0  0  3  0  0  0  0  0  0
  191.1700  177.6630  141.9550 C   0  0  0  0  0  2  0  0  0  0  0  0
  188.4740  177.6990  140.7930 C   0  0  0  0  0  0  0  0  0  0  0  0
  191.2910  176.0960  143.9930 C   0  0  0  0  0  2  0  0  0  0  0  0
  190.7000  177.9380  145.4710 C   0  0  0  0  0  2  0  0  0  0  0  0
  191.3160  176.7700  145.3280 C   0  0  0  0  0  0  0  0  0  0  0  0
  191.9590  176.1240  146.4840 C   0  0  0  0  0  0  0  0  0  0  0  0
  192.0280  176.7780  147.7090 O   0  0  0  0  0  1  0  0  0  0  0  0
  192.4560  174.9720  146.3720 O   0  0  0  0  0  0  0  0  0  0  0  0
  1  4  1  0  0  0  0
  2  1  1  0  0  0  0
  2 12  1  0  0  0  0
  3 14  1  0  0  0  0
  4 17  1  0  0  0  0
  5 12  2  0  0  0  0
  5 20  1  0  0  0  0
  6 13  1  0  0  0  0
  7  3  2  0  0  0  0
  7 19  1  0  0  0  0
  8  4  2  0  0  0  0
  8  9  1  0  0  0  0
  9  6  2  0  0  0  0
 10 16  2  0  0  0  0
 10 19  1  0  0  0  0
 11 10  1  0  0  0  0
 14 15  2  0  0  0  0
 14  1  1  0  0  0  0
 15  8  1  0  0  0  0
 16 18  1  0  0  0  0
 17 13  2  0  0  0  0
 18  5  1  0  0  0  0
 19  2  2  0  0  0  0
 20 22  1  0  0  0  0
 22 21  2  0  0  0  0
 22 23  1  0  0  0  0
 23 24  1  0  0  0  0
 25 23  2  0  0  0  0
M  END
>  <MODEL>
1

>  <REMARK>
 VINA RESULT:      -9.4      0.000      0.000
  Name = 
  3 active torsions:
  status: ('A' for Active; 'I' for Inactive)
    1  A    between atoms: C_2  and  C_25
    2  A    between atoms: C_6  and  C_15
    3  A    between atoms: C_15  and  C_25
                            x       y       z     vdW  Elec       q    Type
                         _______ _______ _______ _____ _____    ______ ____

>  <TORSDO>
F 3

$$$$
=
 OpenBabel10262419543D

 25 28  0  0  0  0  0  0  0  0999 V2000
  186.4200  178.2310  145.2070 N   0  0  0  0  0  0  0  0  0  0  0  0
  186.4560  178.0950  143.8490 C   0  0  0  0  0  0  0  0  0  0  0  0
  184.1810  179.0130  145.1930 C   0  0  0  0  0  3  0  0  0  0  0  0
  187.3330  178.0020  146.1670 C   0  0  0  0  0  0  0  0  0  0  0  0
  188.0890  177.8500  141.9780 C   0  0  0  0  0  0  0  0  0  0  0  0
  188.8030  177.7190  148.4940 C   0  0  0  0  0  3  0  0  0  0  0  0
  184.1770  178.8690  143.8400 N   0  0  0  0  0  0  0  0  0  0  0  0
  186.7730  178.3220  147.3770 C   0  0  0  0  0  0  0  0  0  0  0  0
  187.4790  178.1920  148.5700 C   0  0  0  0  0  3  0  0  0  0  0  0
  185.0990  178.2310  141.6730 C   0  0  0  0  0  0  0  0  0  0  0  0
  183.8140  177.8650  141.1810 N   0  0  0  0  0  1  0  0  0  0  0  0
  187.6670  177.5390  143.2020 C   0  0  0  0  0  3  0  0  0  0  0  0
  189.3800  177.3920  147.2460 C   0  0  0  0  0  3  0  0  0  0  0  0
  185.3390  178.6820  145.8790 C   0  0  0  0  0  0  0  0  0  0  0  0
  185.5040  178.7560  147.2230 N   0  0  0  0  0  0  0  0  0  0  0  0
  186.0550  178.4290  140.8160 N   0  0  0  0  0  0  0  0  0  0  0  0
  188.6420  177.5330  146.0570 C   0  0  0  0  0  3  0  0  0  0  0  0
  187.3940  178.8830  141.1610 C   0  0  0  0  0  2  0  0  0  0  0  0
  185.2680  178.4300  143.1360 C   0  0  0  0  0  0  0  0  0  0  0  0
  189.2970  177.1710  141.4240 C   0  0  0  0  0  2  0  0  0  0  0  0
  191.0810  178.3240  142.6140 C   0  0  0  0  0  2  0  0  0  0  0  0
  190.4210  177.1900  142.4130 C   0  0  0  0  0  0  0  0  0  0  0  0
  190.7520  175.9890  143.1970 C   0  0  0  0  0  0  0  0  0  0  0  0
  191.6890  176.0530  144.2220 O   0  0  0  0  0  1  0  0  0  0  0  0
  190.1900  174.8900  142.9430 O   0  0  0  0  0  0  0  0  0  0  0  0
  1 14  1  0  0  0  0
  1  4  1  0  0  0  0
  2  1  1  0  0  0  0
  3 14  1  0  0  0  0
  4  8  1  0  0  0  0
  5 12  2  0  0  0  0
  6  9  1  0  0  0  0
  7  3  2  0  0  0  0
  8  9  2  0  0  0  0
 10 19  1  0  0  0  0
 11 10  1  0  0  0  0
 12  2  1  0  0  0  0
 13  6  2  0  0  0  0
 14 15  2  0  0  0  0
 15  8  1  0  0  0  0
 16 18  1  0  0  0  0
 16 10  2  0  0  0  0
 17  4  2  0  0  0  0
 17 13  1  0  0  0  0
 18  5  1  0  0  0  0
 19  7  1  0  0  0  0
 19  2  2  0  0  0  0
 20  5  1  0  0  0  0
 20 22  1  0  0  0  0
 22 21  2  0  0  0  0
 22 23  1  0  0  0  0
 23 24  1  0  0  0  0
 25 23  2  0  0  0  0
M  END
>  <MODEL>
2

>  <REMARK>
 VINA RESULT:      -9.4      2.063      3.947
  Name = 
  3 active torsions:
  status: ('A' for Active; 'I' for Inactive)
    1  A    between atoms: C_2  and  C_25
    2  A    between atoms: C_6  and  C_15
    3  A    between atoms: C_15  and  C_25
                            x       y       z     vdW  Elec       q    Type
                         _______ _______ _______ _____ _____    ______ ____

>  <TORSDO>
F 3

$$$$
=
 OpenBabel10262419543D

 25 28  0  0  0  0  0  0  0  0999 V2000
  187.1220  177.8580  145.1030 N   0  0  0  0  0  0  0  0  0  0  0  0
  188.3070  177.4990  144.5280 C   0  0  0  0  0  0  0  0  0  0  0  0
  187.9310  177.4860  147.3000 C   0  0  0  0  0  3  0  0  0  0  0  0
  185.9490  178.2630  144.5860 C   0  0  0  0  0  0  0  0  0  0  0  0
  189.2510  176.8050  142.3250 C   0  0  0  0  0  0  0  0  0  0  0  0
  183.3660  179.1130  144.0680 C   0  0  0  0  0  3  0  0  0  0  0  0
  189.1320  177.1430  146.7610 N   0  0  0  0  0  0  0  0  0  0  0  0
  185.0770  178.4840  145.6210 C   0  0  0  0  0  0  0  0  0  0  0  0
  183.7710  178.9130  145.4020 C   0  0  0  0  0  3  0  0  0  0  0  0
  190.7460  176.8200  144.9590 C   0  0  0  0  0  0  0  0  0  0  0  0
  191.8320  177.1870  145.8030 N   0  0  0  0  0  1  0  0  0  0  0  0
  188.4650  177.5910  143.0580 C   0  0  0  0  0  3  0  0  0  0  0  0
  184.2650  178.8820  143.0020 C   0  0  0  0  0  3  0  0  0  0  0  0
  186.9110  177.8510  146.4370 C   0  0  0  0  0  0  0  0  0  0  0  0
  185.6630  178.2300  146.8100 N   0  0  0  0  0  0  0  0  0  0  0  0
  191.0070  176.1830  143.8570 N   0  0  0  0  0  0  0  0  0  0  0  0
  185.5790  178.4500  143.2530 C   0  0  0  0  0  3  0  0  0  0  0  0
  190.0010  175.6750  142.9380 C   0  0  0  0  0  2  0  0  0  0  0  0
  189.3630  177.1260  145.4100 C   0  0  0  0  0  0  0  0  0  0  0  0
  189.3600  177.0450  140.8560 C   0  0  0  0  0  2  0  0  0  0  0  0
  191.6660  177.7550  141.1870 C   0  0  0  0  0  2  0  0  0  0  0  0
  190.7940  177.1010  140.4290 C   0  0  0  0  0  0  0  0  0  0  0  0
  191.2460  176.3910  139.2210 C   0  0  0  0  0  0  0  0  0  0  0  0
  192.4820  176.6800  138.6540 O   0  0  0  0  0  0  0  0  0  0  0  0
  190.5130  175.5160  138.6880 O   0  0  0  0  0  1  0  0  0  0  0  0
  1 14  1  0  0  0  0
  2  1  1  0  0  0  0
  2 19  2  0  0  0  0
  4  1  1  0  0  0  0
  4  8  1  0  0  0  0
  5 18  1  0  0  0  0
  5 12  2  0  0  0  0
  6  9  1  0  0  0  0
  7  3  2  0  0  0  0
  8 15  1  0  0  0  0
  9  8  2  0  0  0  0
 10 19  1  0  0  0  0
 10 11  1  0  0  0  0
 12  2  1  0  0  0  0
 13 17  1  0  0  0  0
 13  6  2  0  0  0  0
 14 15  2  0  0  0  0
 14  3  1  0  0  0  0
 16 10  2  0  0  0  0
 17  4  2  0  0  0  0
 18 16  1  0  0  0  0
 19  7  1  0  0  0  0
 20  5  1  0  0  0  0
 22 20  1  0  0  0  0
 22 21  2  0  0  0  0
 23 22  1  0  0  0  0
 24 23  2  0  0  0  0
 25 23  1  0  0  0  0
M  END
>  <MODEL>
3

>  <REMARK>
 VINA RESULT:      -9.4      3.213      4.759
  Name = 
  3 active torsions:
  status: ('A' for Active; 'I' for Inactive)
    1  A    between atoms: C_2  and  C_25
    2  A    between atoms: C_6  and  C_15
    3  A    between atoms: C_15  and  C_25
                            x       y       z     vdW  Elec       q    Type
                         _______ _______ _______ _____ _____    ______ ____

>  <TORSDO>
F 3

$$$$
=
 OpenBabel10262419543D

 25 28  0  0  0  0  0  0  0  0999 V2000
  187.4950  177.9600  142.1650 N   0  0  0  0  0  0  0  0  0  0  0  0
  188.3050  177.5290  143.1760 C   0  0  0  0  0  0  0  0  0  0  0  0
  189.2650  177.9810  140.5870 C   0  0  0  0  0  3  0  0  0  0  0  0
  186.1850  178.2560  142.1160 C   0  0  0  0  0  0  0  0  0  0  0  0
  188.3680  177.3760  145.6660 C   0  0  0  0  0  0  0  0  0  0  0  0
  183.5970  178.9940  141.4690 C   0  0  0  0  0  3  0  0  0  0  0  0
  190.0950  177.5320  141.5670 N   0  0  0  0  0  0  0  0  0  0  0  0
  185.8830  178.6580  140.8400 C   0  0  0  0  0  0  0  0  0  0  0  0
  184.5930  179.0360  140.4760 C   0  0  0  0  0  3  0  0  0  0  0  0
  190.6640  176.7260  143.7980 C   0  0  0  0  0  0  0  0  0  0  0  0
  191.6820  175.8750  143.2840 N   0  0  0  0  0  1  0  0  0  0  0  0
  187.7250  177.2430  144.5080 C   0  0  0  0  0  3  0  0  0  0  0  0
  183.9100  178.5820  142.7850 C   0  0  0  0  0  3  0  0  0  0  0  0
  187.9350  178.1950  140.9100 C   0  0  0  0  0  0  0  0  0  0  0  0
  186.9780  178.6280  140.0510 N   0  0  0  0  0  0  0  0  0  0  0  0
  190.6760  177.0070  145.0670 N   0  0  0  0  0  0  0  0  0  0  0  0
  185.2210  178.2050  143.1240 C   0  0  0  0  0  3  0  0  0  0  0  0
  189.7530  177.9210  145.7210 C   0  0  0  0  0  2  0  0  0  0  0  0
  189.6750  177.3030  142.8510 C   0  0  0  0  0  0  0  0  0  0  0  0
  187.6800  176.9970  146.9340 C   0  0  0  0  0  2  0  0  0  0  0  0
  188.0700  178.6030  148.7220 C   0  0  0  0  0  2  0  0  0  0  0  0
  187.2950  178.2130  147.7170 C   0  0  0  0  0  0  0  0  0  0  0  0
  186.1100  179.0020  147.3430 C   0  0  0  0  0  0  0  0  0  0  0  0
  185.0420  178.4020  146.6870 O   0  0  0  0  0  0  0  0  0  0  0  0
  186.0560  180.2310  147.6120 O   0  0  0  0  0  1  0  0  0  0  0  0
  1  2  1  0  0  0  0
  2 12  1  0  0  0  0
  3 14  1  0  0  0  0
  3  7  2  0  0  0  0
  4  1  1  0  0  0  0
  4 17  1  0  0  0  0
  5 18  1  0  0  0  0
  5 20  1  0  0  0  0
  6 13  1  0  0  0  0
  7 19  1  0  0  0  0
  8  4  2  0  0  0  0
  9  8  1  0  0  0  0
  9  6  2  0  0  0  0
 10 16  2  0  0  0  0
 11 10  1  0  0  0  0
 12  5  2  0  0  0  0
 13 17  2  0  0  0  0
 14  1  1  0  0  0  0
 15  8  1  0  0  0  0
 15 14  2  0  0  0  0
 16 18  1  0  0  0  0
 19  2  2  0  0  0  0
 19 10  1  0  0  0  0
 20 22  1  0  0  0  0
 22 21  2  0  0  0  0
 23 25  1  0  0  0  0
 23 22  1  0  0  0  0
 24 23  2  0  0  0  0
M  END
>  <MODEL>
4

>  <REMARK>
 VINA RESULT:      -9.2      2.631      4.214
  Name = 
  3 active torsions:
  status: ('A' for Active; 'I' for Inactive)
    1  A    between atoms: C_2  and  C_25
    2  A    between atoms: C_6  and  C_15
    3  A    between atoms: C_15  and  C_25
                            x       y       z     vdW  Elec       q    Type
                         _______ _______ _______ _____ _____    ______ ____

>  <TORSDO>
F 3

$$$$
=
 OpenBabel10262419543D

 25 28  0  0  0  0  0  0  0  0999 V2000
  186.4970  178.2480  142.9970 N   0  0  0  0  0  0  0  0  0  0  0  0
  187.6970  177.7090  143.3640 C   0  0  0  0  0  0  0  0  0  0  0  0
  187.1890  178.5790  140.7530 C   0  0  0  0  0  3  0  0  0  0  0  0
  185.3650  178.4910  143.6800 C   0  0  0  0  0  0  0  0  0  0  0  0
  189.0380  177.1940  145.4040 C   0  0  0  0  0  0  0  0  0  0  0  0
  182.8500  179.2020  144.5890 C   0  0  0  0  0  3  0  0  0  0  0  0
  188.3890  178.0270  141.0800 N   0  0  0  0  0  0  0  0  0  0  0  0
  184.4600  179.0630  142.8230 C   0  0  0  0  0  0  0  0  0  0  0  0
  183.1850  179.4340  143.2410 C   0  0  0  0  0  3  0  0  0  0  0  0
  190.0010  176.9270  142.5440 C   0  0  0  0  0  0  0  0  0  0  0  0
  190.5700  176.2060  141.4560 N   0  0  0  0  0  1  0  0  0  0  0  0
  187.8820  177.2050  144.7440 C   0  0  0  0  0  3  0  0  0  0  0  0
  183.7830  178.6150  145.4720 C   0  0  0  0  0  3  0  0  0  0  0  0
  186.2300  178.6850  141.7480 C   0  0  0  0  0  0  0  0  0  0  0  0
  184.9840  179.1970  141.5860 N   0  0  0  0  0  0  0  0  0  0  0  0
  190.6830  177.0180  143.6480 N   0  0  0  0  0  0  0  0  0  0  0  0
  185.0650  178.2500  145.0220 C   0  0  0  0  0  3  0  0  0  0  0  0
  190.2700  177.7850  144.8120 C   0  0  0  0  0  2  0  0  0  0  0  0
  188.6890  177.5930  142.3450 C   0  0  0  0  0  0  0  0  0  0  0  0
  189.0940  176.6030  146.7730 C   0  0  0  0  0  2  0  0  0  0  0  0
  189.8020  178.3660  148.2950 C   0  0  0  0  0  2  0  0  0  0  0  0
  190.1360  177.2820  147.6060 C   0  0  0  0  0  0  0  0  0  0  0  0
  191.4940  176.7240  147.7110 C   0  0  0  0  0  0  0  0  0  0  0  0
  192.3970  177.2360  148.6370 O   0  0  0  0  0  1  0  0  0  0  0  0
  191.8520  175.7790  146.9590 O   0  0  0  0  0  0  0  0  0  0  0  0
  1  2  1  0  0  0  0
  1  4  1  0  0  0  0
  2 12  1  0  0  0  0
  3  7  2  0  0  0  0
  3 14  1  0  0  0  0
  4 17  1  0  0  0  0
  5 20  1  0  0  0  0
  6 13  1  0  0  0  0
  7 19  1  0  0  0  0
  8  9  1  0  0  0  0
  8  4  2  0  0  0  0
  9  6  2  0  0  0  0
 10 16  2  0  0  0  0
 11 10  1  0  0  0  0
 12  5  2  0  0  0  0
 14  1  1  0  0  0  0
 15 14  2  0  0  0  0
 15  8  1  0  0  0  0
 16 18  1  0  0  0  0
 17 13  2  0  0  0  0
 18  5  1  0  0  0  0
 19 10  1  0  0  0  0
 19  2  2  0  0  0  0
 20 22  1  0  0  0  0
 22 23  1  0  0  0  0
 22 21  2  0  0  0  0
 23 24  1  0  0  0  0
 25 23  2  0  0  0  0
M  END
>  <MODEL>
5

>  <REMARK>
 VINA RESULT:      -9.0      1.522      2.123
  Name = 
  3 active torsions:
  status: ('A' for Active; 'I' for Inactive)
    1  A    between atoms: C_2  and  C_25
    2  A    between atoms: C_6  and  C_15
    3  A    between atoms: C_15  and  C_25
                            x       y       z     vdW  Elec       q    Type
                         _______ _______ _______ _____ _____    ______ ____

>  <TORSDO>
F 3

$$$$
=
 OpenBabel10262419543D

 25 28  0  0  0  0  0  0  0  0999 V2000
  186.7840  178.2300  142.7770 N   0  0  0  0  0  0  0  0  0  0  0  0
  185.5760  178.6130  142.2700 C   0  0  0  0  0  0  0  0  0  0  0  0
  187.8140  178.2070  140.6410 C   0  0  0  0  0  3  0  0  0  0  0  0
  187.2020  177.9680  144.0280 C   0  0  0  0  0  0  0  0  0  0  0  0
  183.1610  178.6970  142.8950 C   0  0  0  0  0  0  0  0  0  0  0  0
  188.5600  177.3120  146.3480 C   0  0  0  0  0  3  0  0  0  0  0  0
  186.6290  178.6100  140.1060 N   0  0  0  0  0  0  0  0  0  0  0  0
  188.5240  177.6080  143.9720 C   0  0  0  0  0  0  0  0  0  0  0  0
  189.2420  177.2720  145.1170 C   0  0  0  0  0  3  0  0  0  0  0  0
  184.3020  179.3400  140.1630 C   0  0  0  0  0  0  0  0  0  0  0  0
  184.4880  180.1800  139.0280 N   0  0  0  0  0  1  0  0  0  0  0  0
  184.4470  178.8770  143.1910 C   0  0  0  0  0  3  0  0  0  0  0  0
  187.1970  177.6800  146.4040 C   0  0  0  0  0  3  0  0  0  0  0  0
  187.8760  178.0180  142.0120 C   0  0  0  0  0  0  0  0  0  0  0  0
  188.9790  177.6320  142.7020 N   0  0  0  0  0  0  0  0  0  0  0  0
  183.0880  179.0250  140.5050 N   0  0  0  0  0  0  0  0  0  0  0  0
  186.4960  178.0150  145.2310 C   0  0  0  0  0  3  0  0  0  0  0  0
  182.7450  178.1170  141.5880 C   0  0  0  0  0  2  0  0  0  0  0  0
  185.5030  178.8140  140.8600 C   0  0  0  0  0  0  0  0  0  0  0  0
  182.1190  179.0590  143.9000 C   0  0  0  0  0  2  0  0  0  0  0  0
  180.1100  177.6880  143.7950 C   0  0  0  0  0  2  0  0  0  0  0  0
  180.7480  178.7740  143.3750 C   0  0  0  0  0  0  0  0  0  0  0  0
  180.0860  179.7120  142.4530 C   0  0  0  0  0  0  0  0  0  0  0  0
  179.5570  179.2620  141.2490 O   0  0  0  0  0  0  0  0  0  0  0  0
  179.9990  180.9340  142.7460 O   0  0  0  0  0  1  0  0  0  0  0  0
  1  4  1  0  0  0  0
  2  1  1  0  0  0  0
  2 12  1  0  0  0  0
  3 14  1  0  0  0  0
  4 17  1  0  0  0  0
  5 12  2  0  0  0  0
  5 20  1  0  0  0  0
  6 13  1  0  0  0  0
  7  3  2  0  0  0  0
  7 19  1  0  0  0  0
  8  4  2  0  0  0  0
  8  9  1  0  0  0  0
  9  6  2  0  0  0  0
 10 16  2  0  0  0  0
 10 19  1  0  0  0  0
 11 10  1  0  0  0  0
 14 15  2  0  0  0  0
 14  1  1  0  0  0  0
 15  8  1  0  0  0  0
 16 18  1  0  0  0  0
 17 13  2  0  0  0  0
 18  5  1  0  0  0  0
 19  2  2  0  0  0  0
 22 21  2  0  0  0  0
 22 20  1  0  0  0  0
 23 25  1  0  0  0  0
 23 22  1  0  0  0  0
 24 23  2  0  0  0  0
M  END
>  <MODEL>
6

>  <REMARK>
 VINA RESULT:      -8.9      4.566      7.188
  Name = 
  3 active torsions:
  status: ('A' for Active; 'I' for Inactive)
    1  A    between atoms: C_2  and  C_25
    2  A    between atoms: C_6  and  C_15
    3  A    between atoms: C_15  and  C_25
                            x       y       z     vdW  Elec       q    Type
                         _______ _______ _______ _____ _____    ______ ____

>  <TORSDO>
F 3

$$$$
=
 OpenBabel10262419543D

 25 28  0  0  0  0  0  0  0  0999 V2000
  188.2540  178.0740  141.1540 N   0  0  0  0  0  0  0  0  0  0  0  0
  186.9620  178.4340  141.4100 C   0  0  0  0  0  0  0  0  0  0  0  0
  187.9160  178.0600  138.8070 C   0  0  0  0  0  3  0  0  0  0  0  0
  189.3020  177.8230  141.9570 C   0  0  0  0  0  0  0  0  0  0  0  0
  185.3050  178.4790  143.2760 C   0  0  0  0  0  0  0  0  0  0  0  0
  191.7340  177.2000  143.1210 C   0  0  0  0  0  3  0  0  0  0  0  0
  186.6280  178.4400  139.0270 N   0  0  0  0  0  0  0  0  0  0  0  0
  190.3740  177.4860  141.1710 C   0  0  0  0  0  0  0  0  0  0  0  0
  191.6140  177.1670  141.7190 C   0  0  0  0  0  3  0  0  0  0  0  0
  184.7170  179.1310  140.3770 C   0  0  0  0  0  0  0  0  0  0  0  0
  184.2240  179.9690  139.3370 N   0  0  0  0  0  1  0  0  0  0  0  0
  186.5350  178.6820  142.8060 C   0  0  0  0  0  3  0  0  0  0  0  0
  190.6280  177.5450  143.9300 C   0  0  0  0  0  3  0  0  0  0  0  0
  188.7360  177.8770  139.9080 C   0  0  0  0  0  0  0  0  0  0  0  0
  190.0430  177.5130  139.8630 N   0  0  0  0  0  0  0  0  0  0  0  0
  183.9060  178.7960  141.3360 N   0  0  0  0  0  0  0  0  0  0  0  0
  189.3880  177.8630  143.3500 C   0  0  0  0  0  3  0  0  0  0  0  0
  184.2400  177.8860  142.4200 C   0  0  0  0  0  2  0  0  0  0  0  0
  186.1120  178.6280  140.2820 C   0  0  0  0  0  0  0  0  0  0  0  0
  184.9960  178.8260  144.6940 C   0  0  0  0  0  2  0  0  0  0  0  0
  186.4740  176.9740  145.2530 C   0  0  0  0  0  2  0  0  0  0  0  0
  185.9260  178.1220  145.6320 C   0  0  0  0  0  0  0  0  0  0  0  0
  186.2780  178.7210  146.9300 C   0  0  0  0  0  0  0  0  0  0  0  0
  187.2680  178.1520  147.7230 O   0  0  0  0  0  1  0  0  0  0  0  0
  185.6810  179.7530  147.3360 O   0  0  0  0  0  0  0  0  0  0  0  0
  1  2  1  0  0  0  0
  1  4  1  0  0  0  0
  2 12  1  0  0  0  0
  3  7  2  0  0  0  0
  3 14  1  0  0  0  0
  4 17  1  0  0  0  0
  5 20  1  0  0  0  0
  6 13  1  0  0  0  0
  7 19  1  0  0  0  0
  8  9  1  0  0  0  0
  8  4  2  0  0  0  0
  9  6  2  0  0  0  0
 10 16  2  0  0  0  0
 11 10  1  0  0  0  0
 12  5  2  0  0  0  0
 14  1  1  0  0  0  0
 15 14  2  0  0  0  0
 15  8  1  0  0  0  0
 16 18  1  0  0  0  0
 17 13  2  0  0  0  0
 18  5  1  0  0  0  0
 19 10  1  0  0  0  0
 19  2  2  0  0  0  0
 20 22  1  0  0  0  0
 21 22  2  0  0  0  0
 22 23  1  0  0  0  0
 23 25  2  0  0  0  0
 23 24  1  0  0  0  0
M  END
>  <MODEL>
7

>  <REMARK>
 VINA RESULT:      -8.8      2.166      5.317
  Name = 
  3 active torsions:
  status: ('A' for Active; 'I' for Inactive)
    1  A    between atoms: C_2  and  C_25
    2  A    between atoms: C_6  and  C_15
    3  A    between atoms: C_15  and  C_25
                            x       y       z     vdW  Elec       q    Type
                         _______ _______ _______ _____ _____    ______ ____

>  <TORSDO>
F 3

$$$$
=
 OpenBabel10262419543D

 25 28  0  0  0  0  0  0  0  0999 V2000
  189.5760  177.5170  143.8260 N   0  0  0  0  0  0  0  0  0  0  0  0
  188.5580  177.5420  144.7360 C   0  0  0  0  0  0  0  0  0  0  0  0
  191.2470  177.5000  145.5090 C   0  0  0  0  0  3  0  0  0  0  0  0
  189.5910  177.5110  142.4820 C   0  0  0  0  0  0  0  0  0  0  0  0
  186.1210  178.0530  144.8910 C   0  0  0  0  0  0  0  0  0  0  0  0
  190.1910  177.4990  139.7800 C   0  0  0  0  0  3  0  0  0  0  0  0
  190.2560  177.5030  146.4420 N   0  0  0  0  0  0  0  0  0  0  0  0
  190.8990  177.4970  142.0680 C   0  0  0  0  0  0  0  0  0  0  0  0
  191.2410  177.4900  140.7180 C   0  0  0  0  0  3  0  0  0  0  0  0
  187.9470  177.4380  147.2280 C   0  0  0  0  0  0  0  0  0  0  0  0
  188.3160  176.7150  148.3980 N   0  0  0  0  0  1  0  0  0  0  0  0
  187.1550  177.4950  144.2650 C   0  0  0  0  0  3  0  0  0  0  0  0
  188.8440  177.5150  140.2080 C   0  0  0  0  0  3  0  0  0  0  0  0
  190.8810  177.5080  144.1730 C   0  0  0  0  0  0  0  0  0  0  0  0
  191.7410  177.4940  143.1230 N   0  0  0  0  0  0  0  0  0  0  0  0
  186.7920  178.0330  147.2080 N   0  0  0  0  0  0  0  0  0  0  0  0
  188.5280  177.5220  141.5790 C   0  0  0  0  0  3  0  0  0  0  0  0
  186.3130  178.8710  146.1200 C   0  0  0  0  0  2  0  0  0  0  0  0
  188.9260  177.5310  146.1140 C   0  0  0  0  0  0  0  0  0  0  0  0
  184.7470  177.8790  144.3350 C   0  0  0  0  0  2  0  0  0  0  0  0
  183.7860  180.0860  143.9680 C   0  0  0  0  0  2  0  0  0  0  0  0
  184.3830  179.0240  143.4420 C   0  0  0  0  0  0  0  0  0  0  0  0
  184.7350  179.0030  142.0120 C   0  0  0  0  0  0  0  0  0  0  0  0
  184.0330  178.1940  141.1260 O   0  0  0  0  0  0  0  0  0  0  0  0
  185.6810  179.7150  141.5810 O   0  0  0  0  0  1  0  0  0  0  0  0
  1 14  1  0  0  0  0
  1  2  1  0  0  0  0
  2 19  2  0  0  0  0
  3  7  2  0  0  0  0
  4  1  1  0  0  0  0
  5 18  1  0  0  0  0
  6 13  2  0  0  0  0
  6  9  1  0  0  0  0
  8  4  1  0  0  0  0
  8 15  1  0  0  0  0
  9  8  2  0  0  0  0
 10 11  1  0  0  0  0
 12  2  1  0  0  0  0
 12  5  2  0  0  0  0
 13 17  1  0  0  0  0
 14  3  1  0  0  0  0
 15 14  2  0  0  0  0
 16 10  2  0  0  0  0
 17  4  2  0  0  0  0
 18 16  1  0  0  0  0
 19  7  1  0  0  0  0
 19 10  1  0  0  0  0
 20  5  1  0  0  0  0
 22 21  2  0  0  0  0
 22 20  1  0  0  0  0
 23 22  1  0  0  0  0
 24 23  2  0  0  0  0
 25 23  1  0  0  0  0
M  END
>  <MODEL>
8

>  <REMARK>
 VINA RESULT:      -8.7      3.577      6.872
  Name = 
  3 active torsions:
  status: ('A' for Active; 'I' for Inactive)
    1  A    between atoms: C_2  and  C_25
    2  A    between atoms: C_6  and  C_15
    3  A    between atoms: C_15  and  C_25
                            x       y       z     vdW  Elec       q    Type
                         _______ _______ _______ _____ _____    ______ ____

>  <TORSDO>
F 3

$$$$
=
 OpenBabel10262419543D

 25 28  0  0  0  0  0  0  0  0999 V2000
  188.3210  177.5710  142.7620 N   0  0  0  0  0  0  0  0  0  0  0  0
  188.8680  177.6230  141.5120 C   0  0  0  0  0  0  0  0  0  0  0  0
  190.2820  176.6420  143.7180 C   0  0  0  0  0  3  0  0  0  0  0  0
  187.1140  177.9220  143.2400 C   0  0  0  0  0  0  0  0  0  0  0  0
  188.1950  177.8550  139.1200 C   0  0  0  0  0  0  0  0  0  0  0  0
  184.8370  178.4510  144.7210 C   0  0  0  0  0  3  0  0  0  0  0  0
  190.8640  176.6990  142.4890 N   0  0  0  0  0  0  0  0  0  0  0  0
  187.0870  177.6440  144.5830 C   0  0  0  0  0  0  0  0  0  0  0  0
  185.9610  177.8960  145.3620 C   0  0  0  0  0  3  0  0  0  0  0  0
  190.9920  177.2570  140.1170 C   0  0  0  0  0  0  0  0  0  0  0  0
  192.3920  177.5040  140.2020 N   0  0  0  0  0  1  0  0  0  0  0  0
  188.0920  178.2150  140.3980 C   0  0  0  0  0  3  0  0  0  0  0  0
  184.8650  178.7350  143.3360 C   0  0  0  0  0  3  0  0  0  0  0  0
  188.9780  177.0930  143.8410 C   0  0  0  0  0  0  0  0  0  0  0  0
  188.2600  177.1160  144.9920 N   0  0  0  0  0  0  0  0  0  0  0  0
  190.4690  177.0680  138.9430 N   0  0  0  0  0  0  0  0  0  0  0  0
  186.0170  178.4700  142.5740 C   0  0  0  0  0  3  0  0  0  0  0  0
  189.0750  176.7280  138.7040 C   0  0  0  0  0  2  0  0  0  0  0  0
  190.2110  177.1630  141.3770 C   0  0  0  0  0  0  0  0  0  0  0  0
  187.3930  178.5770  138.0890 C   0  0  0  0  0  2  0  0  0  0  0  0
  185.8300  176.9850  137.1140 C   0  0  0  0  0  2  0  0  0  0  0  0
  186.0250  177.9850  137.9660 C   0  0  0  0  0  0  0  0  0  0  0  0
  184.9210  178.4600  138.8180 C   0  0  0  0  0  0  0  0  0  0  0  0
  184.9340  179.7510  139.3320 O   0  0  0  0  0  1  0  0  0  0  0  0
  183.9580  177.6970  139.0910 O   0  0  0  0  0  0  0  0  0  0  0  0
  1  4  1  0  0  0  0
  1 14  1  0  0  0  0
  2  1  1  0  0  0  0
  3 14  1  0  0  0  0
  4  8  1  0  0  0  0
  5 12  2  0  0  0  0
  6  9  1  0  0  0  0
  7  3  2  0  0  0  0
  8 15  1  0  0  0  0
  8  9  2  0  0  0  0
 10 11  1  0  0  0  0
 10 19  1  0  0  0  0
 12  2  1  0  0  0  0
 13  6  2  0  0  0  0
 14 15  2  0  0  0  0
 16 10  2  0  0  0  0
 17  4  2  0  0  0  0
 17 13  1  0  0  0  0
 18 16  1  0  0  0  0
 18  5  1  0  0  0  0
 19  2  2  0  0  0  0
 19  7  1  0  0  0  0
 20  5  1  0  0  0  0
 21 22  2  0  0  0  0
 22 20  1  0  0  0  0
 22 23  1  0  0  0  0
 23 25  2  0  0  0  0
 23 24  1  0  0  0  0
M  END
>  <MODEL>
9

>  <REMARK>
 VINA RESULT:      -8.7      3.617      5.641
  Name = 
  3 active torsions:
  status: ('A' for Active; 'I' for Inactive)
    1  A    between atoms: C_2  and  C_25
    2  A    between atoms: C_6  and  C_15
    3  A    between atoms: C_15  and  C_25
                            x       y       z     vdW  Elec       q    Type
                         _______ _______ _______ _____ _____    ______ ____

>  <TORSDO>
F 3

$$$$
