=
 OpenBabel10252415023D

 34 39  0  0  1  0  0  0  0  0999 V2000
  185.5230  178.0170  143.4990 C   0  0  0  0  0  0  0  0  0  0  0  0
  185.7500  178.8630  141.2330 C   0  0  0  0  0  0  0  0  0  0  0  0
  187.7350  177.9040  142.4690 C   0  0  0  0  0  0  0  0  0  0  0  0
  189.9450  177.4970  141.5410 C   0  0  0  0  0  0  0  0  0  0  0  0
  183.5660  178.7410  142.2770 C   0  0  0  0  0  3  0  0  0  0  0  0
  184.3710  179.0790  141.1930 C   0  0  0  0  0  3  0  0  0  0  0  0
  188.2790  177.7250  139.9990 N   0  0  0  0  0  2  0  0  0  0  0  0
  186.3500  178.2480  142.3650 C   0  0  0  0  0  0  0  0  0  0  0  0
  190.6300  177.3140  140.2390 C   0  0  0  0  0  2  0  0  0  0  0  0
  184.1450  178.2320  143.4340 C   0  0  0  0  0  3  0  0  0  0  0  0
  188.2710  177.5800  143.7550 C   0  0  0  0  0  0  0  0  0  0  0  0
  186.0610  177.6210  144.6770 N   0  0  0  0  0  0  0  0  0  0  0  0
  186.4760  179.4120  140.2310 F   0  0  0  0  0  0  0  0  0  0  0  0
  190.4910  177.2730  142.7940 C   0  0  0  0  0  3  0  0  0  0  0  0
  189.6650  177.3230  143.9260 C   0  0  0  0  0  0  0  0  0  0  0  0
  189.4870  177.4730  139.2190 C   0  0  1  0  0  3  0  0  0  0  0  0
  188.6200  177.7850  141.3700 C   0  0  0  0  0  0  0  0  0  0  0  0
  187.3900  177.4270  144.8300 C   0  0  0  0  0  3  0  0  0  0  0  0
  190.3860  177.4290  147.6580 C   0  0  0  0  0  0  0  0  0  0  0  0
  191.5340  176.6360  147.7380 C   0  0  0  0  0  3  0  0  0  0  0  0
  190.2920  177.0710  145.2520 C   0  0  0  0  0  0  0  0  0  0  0  0
  192.0680  176.0660  146.5800 C   0  0  0  0  0  3  0  0  0  0  0  0
  189.7730  177.6490  146.4220 C   0  0  0  0  0  3  0  0  0  0  0  0
  191.4540  176.2850  145.3450 C   0  0  0  0  0  3  0  0  0  0  0  0
  189.8700  177.9870  148.7790 F   0  0  0  0  0  0  0  0  0  0  0  0
  189.3110  176.1960  138.4150 C   0  0  0  0  0  2  0  0  0  0  0  0
  188.5430  176.4810  137.1350 C   0  0  0  0  0  2  0  0  0  0  0  0
  186.8290  178.6830  137.1680 O   0  0  0  0  0  1  0  0  0  0  0  0
  187.1130  176.3580  137.3820 N   0  0  0  0  0  0  0  0  0  0  0  0
  186.4350  177.4430  136.6570 C   0  0  1  0  0  3  0  0  0  0  0  0
  184.4520  175.9630  136.2900 C   0  0  0  0  0  2  0  0  0  0  0  0
  185.2160  174.8480  136.9890 C   0  0  0  0  0  2  0  0  0  0  0  0
  186.7130  175.0750  136.7990 C   0  0  0  0  0  2  0  0  0  0  0  0
  184.9190  177.3160  136.8090 C   0  0  0  0  0  2  0  0  0  0  0  0
  1 12  1  0  0  0  0
  2  8  1  0  0  0  0
  3 11  1  0  0  0  0
  4 14  2  0  0  0  0
  5 10  2  0  0  0  0
  6  2  2  0  0  0  0
  6  5  1  0  0  0  0
  7 17  1  0  0  0  0
  8  3  1  0  0  0  0
  8  1  2  0  0  0  0
  9  4  1  0  0  0  0
 10  1  1  0  0  0  0
 11 15  2  0  0  0  0
 11 18  1  0  0  0  0
 12 18  2  0  0  0  0
 13  2  1  0  0  0  0
 14 15  1  0  0  0  0
 15 21  1  0  0  0  0
 16 26  1  1  0  0  0
 16  7  1  0  0  0  0
 16  9  1  0  0  0  0
 17  4  1  0  0  0  0
 17  3  2  0  0  0  0
 19 20  1  0  0  0  0
 19 25  1  0  0  0  0
 21 24  2  0  0  0  0
 21 23  1  0  0  0  0
 22 20  2  0  0  0  0
 23 19  2  0  0  0  0
 24 22  1  0  0  0  0
 27 29  1  0  0  0  0
 27 26  1  0  0  0  0
 30 34  1  0  0  0  0
 30 28  1  1  0  0  0
 30 29  1  0  0  0  0
 31 34  1  0  0  0  0
 31 32  1  0  0  0  0
 33 32  1  0  0  0  0
 33 29  1  0  0  0  0
M  END
>  <MODEL>
1

>  <REMARK>
 VINA RESULT:      -9.9      0.000      0.000
  Name = 
  4 active torsions:
  status: ('A' for Active; 'I' for Inactive)
    1  A    between atoms: C_3  and  N_13
    2  A    between atoms: C_3  and  C_17
    3  A    between atoms: C_12  and  C_28
    4  A    between atoms: C_17  and  C_29
                            x       y       z     vdW  Elec       q    Type
                         _______ _______ _______ _____ _____    ______ ____

>  <TORSDO>
F 4

$$$$
=
 OpenBabel10252415023D

 34 39  0  0  1  0  0  0  0  0999 V2000
  185.6200  177.9820  143.2720 C   0  0  0  0  0  0  0  0  0  0  0  0
  185.9430  178.8250  141.0150 C   0  0  0  0  0  0  0  0  0  0  0  0
  187.8790  177.8910  142.3450 C   0  0  0  0  0  0  0  0  0  0  0  0
  190.1340  177.5070  141.5210 C   0  0  0  0  0  0  0  0  0  0  0  0
  183.7140  178.6810  141.9580 C   0  0  0  0  0  3  0  0  0  0  0  0
  184.5640  179.0250  140.9110 C   0  0  0  0  0  3  0  0  0  0  0  0
  188.5380  177.7120  139.9030 N   0  0  0  0  0  2  0  0  0  0  0  0
  186.4970  178.2190  142.1770 C   0  0  0  0  0  0  0  0  0  0  0  0
  190.8810  177.3290  140.2530 C   0  0  0  0  0  2  0  0  0  0  0  0
  184.2440  178.1810  143.1420 C   0  0  0  0  0  3  0  0  0  0  0  0
  188.3580  177.5760  143.6560 C   0  0  0  0  0  0  0  0  0  0  0  0
  186.1070  177.5950  144.4740 N   0  0  0  0  0  0  0  0  0  0  0  0
  186.7080  179.3790  140.0470 F   0  0  0  0  0  0  0  0  0  0  0  0
  190.6240  177.2920  142.7990 C   0  0  0  0  0  3  0  0  0  0  0  0
  189.7460  177.3360  143.8920 C   0  0  0  0  0  0  0  0  0  0  0  0
  189.7840  177.4720  139.1820 C   0  0  1  0  0  3  0  0  0  0  0  0
  188.8150  177.7800  141.2890 C   0  0  0  0  0  0  0  0  0  0  0  0
  187.4310  177.4170  144.6890 C   0  0  0  0  0  3  0  0  0  0  0  0
  190.2880  177.4540  147.6540 C   0  0  0  0  0  0  0  0  0  0  0  0
  191.4430  176.6800  147.7880 C   0  0  0  0  0  3  0  0  0  0  0  0
  190.3130  177.0950  145.2470 C   0  0  0  0  0  0  0  0  0  0  0  0
  192.0410  176.1190  146.6580 C   0  0  0  0  0  3  0  0  0  0  0  0
  189.7300  177.6640  146.3900 C   0  0  0  0  0  3  0  0  0  0  0  0
  191.4820  176.3280  145.3940 C   0  0  0  0  0  3  0  0  0  0  0  0
  189.7100  178.0040  148.7490 F   0  0  0  0  0  0  0  0  0  0  0  0
  189.6600  176.1910  138.3740 C   0  0  0  0  0  2  0  0  0  0  0  0
  191.0240  175.5410  138.2050 C   0  0  0  0  0  2  0  0  0  0  0  0
  193.6440  176.4980  138.2760 O   0  0  0  0  0  1  0  0  0  0  0  0
  191.6890  176.0920  137.0330 N   0  0  0  0  0  0  0  0  0  0  0  0
  193.1290  175.8250  137.1650 C   0  0  1  0  0  3  0  0  0  0  0  0
  193.3220  175.6150  134.6800 C   0  0  0  0  0  2  0  0  0  0  0  0
  191.8180  175.8290  134.5950 C   0  0  0  0  0  2  0  0  0  0  0  0
  191.1710  175.3410  135.8870 C   0  0  0  0  0  2  0  0  0  0  0  0
  193.8750  176.3060  135.9190 C   0  0  0  0  0  2  0  0  0  0  0  0
  1 12  1  0  0  0  0
  2  8  1  0  0  0  0
  3 11  1  0  0  0  0
  4 14  2  0  0  0  0
  5 10  2  0  0  0  0
  6  2  2  0  0  0  0
  6  5  1  0  0  0  0
  7 17  1  0  0  0  0
  8  3  1  0  0  0  0
  8  1  2  0  0  0  0
  9  4  1  0  0  0  0
 10  1  1  0  0  0  0
 11 15  2  0  0  0  0
 11 18  1  0  0  0  0
 12 18  2  0  0  0  0
 13  2  1  0  0  0  0
 14 15  1  0  0  0  0
 15 21  1  0  0  0  0
 16 26  1  1  0  0  0
 16  7  1  0  0  0  0
 16  9  1  0  0  0  0
 17  4  1  0  0  0  0
 17  3  2  0  0  0  0
 19 20  1  0  0  0  0
 19 25  1  0  0  0  0
 21 24  2  0  0  0  0
 21 23  1  0  0  0  0
 22 20  2  0  0  0  0
 23 19  2  0  0  0  0
 24 22  1  0  0  0  0
 27 26  1  0  0  0  0
 29 30  1  0  0  0  0
 29 27  1  0  0  0  0
 30 28  1  1  0  0  0
 31 34  1  0  0  0  0
 32 31  1  0  0  0  0
 32 33  1  0  0  0  0
 33 29  1  0  0  0  0
 34 30  1  0  0  0  0
M  END
>  <MODEL>
2

>  <REMARK>
 VINA RESULT:      -9.8      2.292      3.277
  Name = 
  4 active torsions:
  status: ('A' for Active; 'I' for Inactive)
    1  A    between atoms: C_3  and  N_13
    2  A    between atoms: C_3  and  C_17
    3  A    between atoms: C_12  and  C_28
    4  A    between atoms: C_17  and  C_29
                            x       y       z     vdW  Elec       q    Type
                         _______ _______ _______ _____ _____    ______ ____

>  <TORSDO>
F 4

$$$$
=
 OpenBabel10252415023D

 34 39  0  0  1  0  0  0  0  0999 V2000
  190.0800  177.1390  146.9320 C   0  0  0  0  0  0  0  0  0  0  0  0
  191.5380  175.8010  145.5230 C   0  0  0  0  0  0  0  0  0  0  0  0
  189.4480  176.8700  144.5880 C   0  0  0  0  0  0  0  0  0  0  0  0
  188.7770  176.9090  142.2520 C   0  0  0  0  0  0  0  0  0  0  0  0
  192.1720  176.3000  147.8100 C   0  0  0  0  0  3  0  0  0  0  0  0
  192.4290  175.6770  146.5920 C   0  0  0  0  0  3  0  0  0  0  0  0
  190.9850  176.4620  142.6130 N   0  0  0  0  0  2  0  0  0  0  0  0
  190.3740  176.6080  145.6470 C   0  0  0  0  0  0  0  0  0  0  0  0
  189.3420  176.7530  140.8900 C   0  0  0  0  0  2  0  0  0  0  0  0
  190.9890  177.0100  147.9850 C   0  0  0  0  0  3  0  0  0  0  0  0
  188.1720  177.4320  144.9120 C   0  0  0  0  0  0  0  0  0  0  0  0
  188.8940  177.7470  147.1730 N   0  0  0  0  0  0  0  0  0  0  0  0
  191.7590  174.9960  144.4580 F   0  0  0  0  0  0  0  0  0  0  0  0
  187.5080  177.3650  142.5660 C   0  0  0  0  0  3  0  0  0  0  0  0
  187.1780  177.6230  143.9050 C   0  0  0  0  0  0  0  0  0  0  0  0
  190.8270  176.4520  141.1630 C   0  0  1  0  0  3  0  0  0  0  0  0
  189.7220  176.6820  143.2120 C   0  0  0  0  0  0  0  0  0  0  0  0
  187.9470  177.8780  146.2170 C   0  0  0  0  0  3  0  0  0  0  0  0
  183.5720  178.7460  143.4580 C   0  0  0  0  0  0  0  0  0  0  0  0
  183.2380  179.1190  144.7630 C   0  0  0  0  0  3  0  0  0  0  0  0
  185.8050  178.1170  144.1970 C   0  0  0  0  0  0  0  0  0  0  0  0
  184.1840  179.0020  145.7840 C   0  0  0  0  0  3  0  0  0  0  0  0
  184.8490  178.2530  143.1770 C   0  0  0  0  0  3  0  0  0  0  0  0
  185.4600  178.5080  145.5030 C   0  0  0  0  0  3  0  0  0  0  0  0
  182.6580  178.8650  142.4660 F   0  0  0  0  0  0  0  0  0  0  0  0
  191.7070  177.5300  140.5520 C   0  0  0  0  0  2  0  0  0  0  0  0
  191.6090  177.4940  139.0360 C   0  0  0  0  0  2  0  0  0  0  0  0
  189.7900  175.8390  137.7160 O   0  0  0  0  0  1  0  0  0  0  0  0
  191.9640  176.1680  138.5510 N   0  0  0  0  0  0  0  0  0  0  0  0
  191.1420  175.8860  137.3650 C   0  0  1  0  0  3  0  0  0  0  0  0
  193.0080  174.5380  136.3870 C   0  0  0  0  0  2  0  0  0  0  0  0
  193.8470  174.9090  137.6010 C   0  0  0  0  0  2  0  0  0  0  0  0
  193.3690  176.2520  138.1450 C   0  0  0  0  0  2  0  0  0  0  0  0
  191.5310  174.5380  136.7570 C   0  0  0  0  0  2  0  0  0  0  0  0
  1 12  1  0  0  0  0
  1 10  2  0  0  0  0
  2  8  2  0  0  0  0
  2  6  1  0  0  0  0
  3 11  1  0  0  0  0
  3  8  1  0  0  0  0
  4 14  2  0  0  0  0
  4 17  1  0  0  0  0
  5 10  1  0  0  0  0
  6  5  2  0  0  0  0
  7 17  1  0  0  0  0
  8  1  1  0  0  0  0
  9 16  1  0  0  0  0
  9  4  1  0  0  0  0
 11 18  1  0  0  0  0
 13  2  1  0  0  0  0
 14 15  1  0  0  0  0
 15 21  1  0  0  0  0
 15 11  2  0  0  0  0
 16 26  1  6  0  0  0
 16  7  1  0  0  0  0
 17  3  2  0  0  0  0
 18 12  2  0  0  0  0
 19 20  1  0  0  0  0
 20 22  2  0  0  0  0
 21 24  2  0  0  0  0
 23 19  2  0  0  0  0
 23 21  1  0  0  0  0
 24 22  1  0  0  0  0
 25 19  1  0  0  0  0
 27 26  1  0  0  0  0
 29 27  1  0  0  0  0
 30 28  1  1  0  0  0
 30 29  1  0  0  0  0
 31 34  1  0  0  0  0
 31 32  1  0  0  0  0
 32 33  1  0  0  0  0
 33 29  1  0  0  0  0
 34 30  1  0  0  0  0
M  END
>  <MODEL>
3

>  <REMARK>
 VINA RESULT:      -9.7      3.103      6.193
  Name = 
  4 active torsions:
  status: ('A' for Active; 'I' for Inactive)
    1  A    between atoms: C_3  and  N_13
    2  A    between atoms: C_3  and  C_17
    3  A    between atoms: C_12  and  C_28
    4  A    between atoms: C_17  and  C_29
                            x       y       z     vdW  Elec       q    Type
                         _______ _______ _______ _____ _____    ______ ____

>  <TORSDO>
F 4

$$$$
=
 OpenBabel10252415023D

 34 39  0  0  1  0  0  0  0  0999 V2000
  188.1070  178.5140  139.5180 C   0  0  0  0  0  0  0  0  0  0  0  0
  186.3620  178.0770  137.8840 C   0  0  0  0  0  0  0  0  0  0  0  0
  185.8020  178.4300  140.3230 C   0  0  0  0  0  0  0  0  0  0  0  0
  183.5710  178.6110  141.2720 C   0  0  0  0  0  0  0  0  0  0  0  0
  188.6580  178.3810  137.1670 C   0  0  0  0  0  3  0  0  0  0  0  0
  187.3240  178.1150  136.8720 C   0  0  0  0  0  3  0  0  0  0  0  0
  183.6930  178.9670  139.0210 N   0  0  0  0  0  2  0  0  0  0  0  0
  186.7230  178.3570  139.2300 C   0  0  0  0  0  0  0  0  0  0  0  0
  182.1740  178.9110  140.8770 C   0  0  0  0  0  2  0  0  0  0  0  0
  189.0500  178.5570  138.4900 C   0  0  0  0  0  3  0  0  0  0  0  0
  186.3140  178.4120  141.6590 C   0  0  0  0  0  0  0  0  0  0  0  0
  188.5420  178.5850  140.7980 N   0  0  0  0  0  0  0  0  0  0  0  0
  185.1420  177.6060  137.5380 F   0  0  0  0  0  0  0  0  0  0  0  0
  184.0520  178.5010  142.5660 C   0  0  0  0  0  3  0  0  0  0  0  0
  185.4330  178.3850  142.7820 C   0  0  0  0  0  0  0  0  0  0  0  0
  182.2840  179.1450  139.3590 C   0  0  1  0  0  3  0  0  0  0  0  0
  184.4020  178.5940  140.1870 C   0  0  0  0  0  0  0  0  0  0  0  0
  187.6950  178.5130  141.8500 C   0  0  0  0  0  3  0  0  0  0  0  0
  187.5080  177.4600  145.8310 C   0  0  0  0  0  0  0  0  0  0  0  0
  186.7470  178.0180  146.8600 C   0  0  0  0  0  3  0  0  0  0  0  0
  185.9070  178.2740  144.1890 C   0  0  0  0  0  0  0  0  0  0  0  0
  185.5620  178.6960  146.5620 C   0  0  0  0  0  3  0  0  0  0  0  0
  187.0880  177.5840  144.5040 C   0  0  0  0  0  3  0  0  0  0  0  0
  185.1430  178.8200  145.2350 C   0  0  0  0  0  3  0  0  0  0  0  0
  188.6540  176.7970  146.1200 F   0  0  0  0  0  0  0  0  0  0  0  0
  181.8560  180.5590  139.0070 C   0  0  0  0  0  2  0  0  0  0  0  0
  180.9140  180.5440  137.8150 C   0  0  0  0  0  2  0  0  0  0  0  0
  180.5820  180.3870  135.0490 O   0  0  0  0  0  1  0  0  0  0  0  0
  181.2300  181.6510  136.9240 N   0  0  0  0  0  0  0  0  0  0  0  0
  180.3340  181.5640  135.7610 C   0  0  1  0  0  3  0  0  0  0  0  0
  180.3280  184.0580  135.5740 C   0  0  0  0  0  2  0  0  0  0  0  0
  181.2010  184.1040  136.8190 C   0  0  0  0  0  2  0  0  0  0  0  0
  180.9190  182.8710  137.6720 C   0  0  0  0  0  2  0  0  0  0  0  0
  180.5610  182.7520  134.8260 C   0  0  0  0  0  2  0  0  0  0  0  0
  1 12  1  0  0  0  0
  2  8  1  0  0  0  0
  3 11  1  0  0  0  0
  4 14  2  0  0  0  0
  5 10  2  0  0  0  0
  6  5  1  0  0  0  0
  6  2  2  0  0  0  0
  7 16  1  0  0  0  0
  7 17  1  0  0  0  0
  8  1  2  0  0  0  0
  8  3  1  0  0  0  0
  9  4  1  0  0  0  0
 10  1  1  0  0  0  0
 11 18  1  0  0  0  0
 11 15  2  0  0  0  0
 12 18  2  0  0  0  0
 13  2  1  0  0  0  0
 14 15  1  0  0  0  0
 15 21  1  0  0  0  0
 16 26  1  1  0  0  0
 16  9  1  0  0  0  0
 17  3  2  0  0  0  0
 17  4  1  0  0  0  0
 19 25  1  0  0  0  0
 19 20  1  0  0  0  0
 21 23  1  0  0  0  0
 21 24  2  0  0  0  0
 22 20  2  0  0  0  0
 23 19  2  0  0  0  0
 24 22  1  0  0  0  0
 27 26  1  0  0  0  0
 29 33  1  0  0  0  0
 29 27  1  0  0  0  0
 30 28  1  6  0  0  0
 30 29  1  0  0  0  0
 31 32  1  0  0  0  0
 32 33  1  0  0  0  0
 34 31  1  0  0  0  0
 34 30  1  0  0  0  0
M  END
>  <MODEL>
4

>  <REMARK>
 VINA RESULT:      -9.6      3.833      6.269
  Name = 
  4 active torsions:
  status: ('A' for Active; 'I' for Inactive)
    1  A    between atoms: C_3  and  N_13
    2  A    between atoms: C_3  and  C_17
    3  A    between atoms: C_12  and  C_28
    4  A    between atoms: C_17  and  C_29
                            x       y       z     vdW  Elec       q    Type
                         _______ _______ _______ _____ _____    ______ ____

>  <TORSDO>
F 4

$$$$
=
 OpenBabel10252415023D

 34 39  0  0  1  0  0  0  0  0999 V2000
  183.3440  178.5940  141.7620 C   0  0  0  0  0  0  0  0  0  0  0  0
  184.0250  179.3770  139.5650 C   0  0  0  0  0  0  0  0  0  0  0  0
  185.7270  178.5320  141.2300 C   0  0  0  0  0  0  0  0  0  0  0  0
  188.0960  178.1800  140.8090 C   0  0  0  0  0  0  0  0  0  0  0  0
  181.6720  179.2060  140.1250 C   0  0  0  0  0  3  0  0  0  0  0  0
  182.6790  179.5400  139.2250 C   0  0  0  0  0  3  0  0  0  0  0  0
  186.7910  178.2960  138.9410 N   0  0  0  0  0  2  0  0  0  0  0  0
  184.3870  178.8210  140.8220 C   0  0  0  0  0  0  0  0  0  0  0  0
  189.0480  177.9820  139.6900 C   0  0  0  0  0  2  0  0  0  0  0  0
  182.0060  178.7560  141.3980 C   0  0  0  0  0  3  0  0  0  0  0  0
  185.9860  178.2680  142.6130 C   0  0  0  0  0  0  0  0  0  0  0  0
  183.6300  178.2550  143.0410 N   0  0  0  0  0  0  0  0  0  0  0  0
  184.9310  179.9210  138.7200 F   0  0  0  0  0  0  0  0  0  0  0  0
  188.3680  178.0150  142.1570 C   0  0  0  0  0  3  0  0  0  0  0  0
  187.3180  178.0700  143.0850 C   0  0  0  0  0  0  0  0  0  0  0  0
  188.1450  178.0660  138.4460 C   0  0  1  0  0  3  0  0  0  0  0  0
  186.8300  178.4130  140.3500 C   0  0  0  0  0  0  0  0  0  0  0  0
  184.9010  178.1170  143.4810 C   0  0  0  0  0  3  0  0  0  0  0  0
  189.1770  177.1280  146.2670 C   0  0  0  0  0  0  0  0  0  0  0  0
  188.2400  177.4750  147.2430 C   0  0  0  0  0  3  0  0  0  0  0  0
  187.6550  177.8830  144.5230 C   0  0  0  0  0  0  0  0  0  0  0  0
  187.0090  178.0170  146.8670 C   0  0  0  0  0  3  0  0  0  0  0  0
  188.8830  177.3260  144.9150 C   0  0  0  0  0  3  0  0  0  0  0  0
  186.7170  178.2160  145.5150 C   0  0  0  0  0  3  0  0  0  0  0  0
  190.3680  176.5970  146.6300 F   0  0  0  0  0  0  0  0  0  0  0  0
  188.1830  176.7590  137.6730 C   0  0  0  0  0  2  0  0  0  0  0  0
  186.8430  176.5020  137.0040 C   0  0  0  0  0  2  0  0  0  0  0  0
  184.1820  176.2940  137.8170 O   0  0  0  0  0  1  0  0  0  0  0  0
  186.2720  175.2610  137.5080 N   0  0  0  0  0  0  0  0  0  0  0  0
  184.8420  175.2500  137.1640 C   0  0  1  0  0  3  0  0  0  0  0  0
  184.9150  172.7610  136.9230 C   0  0  0  0  0  2  0  0  0  0  0  0
  186.4070  172.8260  137.2190 C   0  0  0  0  0  2  0  0  0  0  0  0
  186.9440  174.1840  136.7770 C   0  0  0  0  0  2  0  0  0  0  0  0
  184.2030  173.9280  137.5930 C   0  0  0  0  0  2  0  0  0  0  0  0
  1 12  1  0  0  0  0
  2  8  1  0  0  0  0
  3 11  1  0  0  0  0
  4 14  2  0  0  0  0
  5 10  2  0  0  0  0
  6  2  2  0  0  0  0
  6  5  1  0  0  0  0
  7 17  1  0  0  0  0
  8  3  1  0  0  0  0
  8  1  2  0  0  0  0
  9  4  1  0  0  0  0
 10  1  1  0  0  0  0
 11 15  2  0  0  0  0
 11 18  1  0  0  0  0
 12 18  2  0  0  0  0
 13  2  1  0  0  0  0
 14 15  1  0  0  0  0
 15 21  1  0  0  0  0
 16 26  1  1  0  0  0
 16  7  1  0  0  0  0
 16  9  1  0  0  0  0
 17  4  1  0  0  0  0
 17  3  2  0  0  0  0
 19 25  1  0  0  0  0
 19 20  1  0  0  0  0
 21 23  1  0  0  0  0
 21 24  2  0  0  0  0
 22 20  2  0  0  0  0
 23 19  2  0  0  0  0
 24 22  1  0  0  0  0
 27 29  1  0  0  0  0
 27 26  1  0  0  0  0
 30 29  1  0  0  0  0
 30 34  1  0  0  0  0
 30 28  1  1  0  0  0
 31 32  1  0  0  0  0
 31 34  1  0  0  0  0
 33 32  1  0  0  0  0
 33 29  1  0  0  0  0
M  END
>  <MODEL>
5

>  <REMARK>
 VINA RESULT:      -9.6      1.711      2.755
  Name = 
  4 active torsions:
  status: ('A' for Active; 'I' for Inactive)
    1  A    between atoms: C_3  and  N_13
    2  A    between atoms: C_3  and  C_17
    3  A    between atoms: C_12  and  C_28
    4  A    between atoms: C_17  and  C_29
                            x       y       z     vdW  Elec       q    Type
                         _______ _______ _______ _____ _____    ______ ____

>  <TORSDO>
F 4

$$$$
=
 OpenBabel10252415023D

 34 39  0  0  1  0  0  0  0  0999 V2000
  185.6310  177.9960  143.2380 C   0  0  0  0  0  0  0  0  0  0  0  0
  185.9590  178.7470  140.9510 C   0  0  0  0  0  0  0  0  0  0  0  0
  187.8790  177.8080  142.3000 C   0  0  0  0  0  0  0  0  0  0  0  0
  190.1150  177.3290  141.4740 C   0  0  0  0  0  0  0  0  0  0  0  0
  183.7350  178.7020  141.9130 C   0  0  0  0  0  3  0  0  0  0  0  0
  184.5860  178.9840  140.8490 C   0  0  0  0  0  3  0  0  0  0  0  0
  188.5130  177.5220  139.8610 N   0  0  0  0  0  2  0  0  0  0  0  0
  186.5050  178.1690  142.1290 C   0  0  0  0  0  0  0  0  0  0  0  0
  190.8460  177.0840  140.2090 C   0  0  0  0  0  2  0  0  0  0  0  0
  184.2600  178.2300  143.1110 C   0  0  0  0  0  3  0  0  0  0  0  0
  188.3590  177.5260  143.6180 C   0  0  0  0  0  0  0  0  0  0  0  0
  186.1170  177.6390  144.4500 N   0  0  0  0  0  0  0  0  0  0  0  0
  186.7320  179.2450  139.9570 F   0  0  0  0  0  0  0  0  0  0  0  0
  190.6090  177.1460  142.7550 C   0  0  0  0  0  3  0  0  0  0  0  0
  189.7410  177.2550  143.8520 C   0  0  0  0  0  0  0  0  0  0  0  0
  189.7450  177.2200  139.1400 C   0  0  1  0  0  3  0  0  0  0  0  0
  188.8030  177.6310  141.2420 C   0  0  0  0  0  0  0  0  0  0  0  0
  187.4360  177.4310  144.6620 C   0  0  0  0  0  3  0  0  0  0  0  0
  190.2850  177.4520  147.6110 C   0  0  0  0  0  0  0  0  0  0  0  0
  191.4490  176.6940  147.7590 C   0  0  0  0  0  3  0  0  0  0  0  0
  190.3130  177.0460  145.2110 C   0  0  0  0  0  0  0  0  0  0  0  0
  192.0530  176.1180  146.6380 C   0  0  0  0  0  3  0  0  0  0  0  0
  189.7240  177.6300  146.3430 C   0  0  0  0  0  3  0  0  0  0  0  0
  191.4900  176.2960  145.3720 C   0  0  0  0  0  3  0  0  0  0  0  0
  189.7030  178.0160  148.6960 F   0  0  0  0  0  0  0  0  0  0  0  0
  189.5790  175.9150  138.3800 C   0  0  0  0  0  2  0  0  0  0  0  0
  189.1850  176.1910  136.9390 C   0  0  0  0  0  2  0  0  0  0  0  0
  190.0430  173.7050  136.0060 O   0  0  0  0  0  1  0  0  0  0  0  0
  188.2610  175.1650  136.4760 N   0  0  0  0  0  0  0  0  0  0  0  0
  188.8690  173.8550  136.7490 C   0  0  1  0  0  3  0  0  0  0  0  0
  186.5980  172.8760  137.1290 C   0  0  0  0  0  2  0  0  0  0  0  0
  186.0170  174.2640  136.9050 C   0  0  0  0  0  2  0  0  0  0  0  0
  187.0570  175.3100  137.2980 C   0  0  0  0  0  2  0  0  0  0  0  0
  187.9050  172.7320  136.3610 C   0  0  0  0  0  2  0  0  0  0  0  0
  1 12  1  0  0  0  0
  2  8  1  0  0  0  0
  3 11  1  0  0  0  0
  4 14  2  0  0  0  0
  5 10  2  0  0  0  0
  6  2  2  0  0  0  0
  6  5  1  0  0  0  0
  7 17  1  0  0  0  0
  8  3  1  0  0  0  0
  8  1  2  0  0  0  0
  9  4  1  0  0  0  0
 10  1  1  0  0  0  0
 11 15  2  0  0  0  0
 11 18  1  0  0  0  0
 12 18  2  0  0  0  0
 13  2  1  0  0  0  0
 14 15  1  0  0  0  0
 15 21  1  0  0  0  0
 16 26  1  1  0  0  0
 16  7  1  0  0  0  0
 16  9  1  0  0  0  0
 17  4  1  0  0  0  0
 17  3  2  0  0  0  0
 19 20  1  0  0  0  0
 19 25  1  0  0  0  0
 21 24  2  0  0  0  0
 21 23  1  0  0  0  0
 22 20  2  0  0  0  0
 23 19  2  0  0  0  0
 24 22  1  0  0  0  0
 27 26  1  0  0  0  0
 29 30  1  0  0  0  0
 29 27  1  0  0  0  0
 29 33  1  0  0  0  0
 30 28  1  6  0  0  0
 32 31  1  0  0  0  0
 32 33  1  0  0  0  0
 34 30  1  0  0  0  0
 34 31  1  0  0  0  0
M  END
>  <MODEL>
6

>  <REMARK>
 VINA RESULT:      -9.6      1.369      1.779
  Name = 
  4 active torsions:
  status: ('A' for Active; 'I' for Inactive)
    1  A    between atoms: C_3  and  N_13
    2  A    between atoms: C_3  and  C_17
    3  A    between atoms: C_12  and  C_28
    4  A    between atoms: C_17  and  C_29
                            x       y       z     vdW  Elec       q    Type
                         _______ _______ _______ _____ _____    ______ ____

>  <TORSDO>
F 4

$$$$
=
 OpenBabel10252415023D

 34 39  0  0  1  0  0  0  0  0999 V2000
  183.0150  178.6350  141.6290 C   0  0  0  0  0  0  0  0  0  0  0  0
  183.8600  179.3850  139.4780 C   0  0  0  0  0  0  0  0  0  0  0  0
  185.4370  178.6380  141.3060 C   0  0  0  0  0  0  0  0  0  0  0  0
  187.8420  178.3520  141.1000 C   0  0  0  0  0  0  0  0  0  0  0  0
  181.4740  179.1520  139.8380 C   0  0  0  0  0  3  0  0  0  0  0  0
  182.5450  179.4960  139.0190 C   0  0  0  0  0  3  0  0  0  0  0  0
  186.7020  178.3800  139.1240 N   0  0  0  0  0  2  0  0  0  0  0  0
  184.1290  178.8720  140.7760 C   0  0  0  0  0  0  0  0  0  0  0  0
  188.8940  178.1570  140.0730 C   0  0  0  0  0  2  0  0  0  0  0  0
  181.7090  178.7440  141.1470 C   0  0  0  0  0  3  0  0  0  0  0  0
  185.5820  178.4170  142.7120 C   0  0  0  0  0  0  0  0  0  0  0  0
  183.1990  178.3380  142.9370 N   0  0  0  0  0  0  0  0  0  0  0  0
  184.8190  179.9370  138.6990 F   0  0  0  0  0  0  0  0  0  0  0  0
  188.0010  178.2300  142.4700 C   0  0  0  0  0  3  0  0  0  0  0  0
  186.8740  178.2740  143.3030 C   0  0  0  0  0  0  0  0  0  0  0  0
  188.1000  178.1810  138.7540 C   0  0  1  0  0  3  0  0  0  0  0  0
  186.6140  178.5320  140.5280 C   0  0  0  0  0  0  0  0  0  0  0  0
  184.4310  178.2520  143.4880 C   0  0  0  0  0  3  0  0  0  0  0  0
  188.3970  177.3200  146.6550 C   0  0  0  0  0  0  0  0  0  0  0  0
  187.4410  177.8200  147.5420 C   0  0  0  0  0  3  0  0  0  0  0  0
  187.0890  178.1330  144.7690 C   0  0  0  0  0  0  0  0  0  0  0  0
  186.3050  178.4680  147.0500 C   0  0  0  0  0  3  0  0  0  0  0  0
  188.2190  177.4720  145.2770 C   0  0  0  0  0  3  0  0  0  0  0  0
  186.1290  178.6200  145.6720 C   0  0  0  0  0  3  0  0  0  0  0  0
  189.4960  176.6860  147.1300 F   0  0  0  0  0  0  0  0  0  0  0  0
  188.2450  176.8570  138.0230 C   0  0  0  0  0  2  0  0  0  0  0  0
  189.5570  176.1890  138.4000 C   0  0  0  0  0  2  0  0  0  0  0  0
  192.1870  176.7780  139.1200 O   0  0  0  0  0  1  0  0  0  0  0  0
  190.5800  176.5280  137.4210 N   0  0  0  0  0  0  0  0  0  0  0  0
  191.8770  176.0790  137.9510 C   0  0  1  0  0  3  0  0  0  0  0  0
  192.6680  175.6080  135.6250 C   0  0  0  0  0  2  0  0  0  0  0  0
  191.2900  176.0180  135.1260 C   0  0  0  0  0  2  0  0  0  0  0  0
  190.2630  175.7490  136.2220 C   0  0  0  0  0  2  0  0  0  0  0  0
  192.9840  176.3320  136.9270 C   0  0  0  0  0  2  0  0  0  0  0  0
  1 12  1  0  0  0  0
  2  8  1  0  0  0  0
  3 11  1  0  0  0  0
  4 14  2  0  0  0  0
  5 10  2  0  0  0  0
  6  2  2  0  0  0  0
  6  5  1  0  0  0  0
  7 17  1  0  0  0  0
  8  3  1  0  0  0  0
  8  1  2  0  0  0  0
  9  4  1  0  0  0  0
 10  1  1  0  0  0  0
 11 15  2  0  0  0  0
 11 18  1  0  0  0  0
 12 18  2  0  0  0  0
 13  2  1  0  0  0  0
 14 15  1  0  0  0  0
 15 21  1  0  0  0  0
 16 26  1  1  0  0  0
 16  7  1  0  0  0  0
 16  9  1  0  0  0  0
 17  4  1  0  0  0  0
 17  3  2  0  0  0  0
 19 25  1  0  0  0  0
 19 20  1  0  0  0  0
 21 23  1  0  0  0  0
 21 24  2  0  0  0  0
 22 20  2  0  0  0  0
 23 19  2  0  0  0  0
 24 22  1  0  0  0  0
 26 27  1  0  0  0  0
 29 30  1  0  0  0  0
 29 27  1  0  0  0  0
 30 28  1  1  0  0  0
 31 34  1  0  0  0  0
 32 31  1  0  0  0  0
 32 33  1  0  0  0  0
 33 29  1  0  0  0  0
 34 30  1  0  0  0  0
M  END
>  <MODEL>
7

>  <REMARK>
 VINA RESULT:      -9.4      2.450      3.940
  Name = 
  4 active torsions:
  status: ('A' for Active; 'I' for Inactive)
    1  A    between atoms: C_3  and  N_13
    2  A    between atoms: C_3  and  C_17
    3  A    between atoms: C_12  and  C_28
    4  A    between atoms: C_17  and  C_29
                            x       y       z     vdW  Elec       q    Type
                         _______ _______ _______ _____ _____    ______ ____

>  <TORSDO>
F 4

$$$$
=
 OpenBabel10252415023D

 34 39  0  0  1  0  0  0  0  0999 V2000
  188.7150  177.0560  145.7840 C   0  0  0  0  0  0  0  0  0  0  0  0
  186.8820  178.5410  146.3620 C   0  0  0  0  0  0  0  0  0  0  0  0
  187.4400  178.0430  143.9490 C   0  0  0  0  0  0  0  0  0  0  0  0
  186.1560  178.7380  142.0040 C   0  0  0  0  0  0  0  0  0  0  0  0
  188.0830  177.3520  148.0990 C   0  0  0  0  0  3  0  0  0  0  0  0
  187.0950  178.2520  147.7120 C   0  0  0  0  0  3  0  0  0  0  0  0
  185.0170  178.7890  143.9810 N   0  0  0  0  0  2  0  0  0  0  0  0
  187.6400  177.8830  145.3560 C   0  0  0  0  0  0  0  0  0  0  0  0
  184.7980  179.1950  141.6260 C   0  0  0  0  0  2  0  0  0  0  0  0
  188.9050  176.7730  147.1380 C   0  0  0  0  0  3  0  0  0  0  0  0
  188.4510  177.5750  143.0510 C   0  0  0  0  0  0  0  0  0  0  0  0
  189.6000  176.5560  144.8890 N   0  0  0  0  0  0  0  0  0  0  0  0
  186.0540  179.5770  146.0910 F   0  0  0  0  0  0  0  0  0  0  0  0
  187.1710  178.3730  141.1350 C   0  0  0  0  0  3  0  0  0  0  0  0
  188.3430  177.7970  141.6440 C   0  0  0  0  0  0  0  0  0  0  0  0
  184.0530  179.2220  142.9740 C   0  0  1  0  0  3  0  0  0  0  0  0
  186.2670  178.5700  143.3560 C   0  0  0  0  0  0  0  0  0  0  0  0
  189.5060  176.8160  143.5650 C   0  0  0  0  0  3  0  0  0  0  0  0
  191.7550  177.1700  140.0860 C   0  0  0  0  0  0  0  0  0  0  0  0
  191.3970  176.7520  138.8020 C   0  0  0  0  0  3  0  0  0  0  0  0
  189.4050  177.4140  140.6740 C   0  0  0  0  0  0  0  0  0  0  0  0
  190.0480  176.6730  138.4460 C   0  0  0  0  0  3  0  0  0  0  0  0
  190.7650  177.5030  141.0140 C   0  0  0  0  0  3  0  0  0  0  0  0
  189.0590  177.0050  139.3750 C   0  0  0  0  0  3  0  0  0  0  0  0
  193.0620  177.2530  140.4300 F   0  0  0  0  0  0  0  0  0  0  0  0
  182.8800  178.2570  142.9510 C   0  0  0  0  0  2  0  0  0  0  0  0
  181.5850  178.9940  143.2500 C   0  0  0  0  0  2  0  0  0  0  0  0
  179.6810  180.8780  142.4680 O   0  0  0  0  0  1  0  0  0  0  0  0
  180.6190  178.7390  142.1910 N   0  0  0  0  0  0  0  0  0  0  0  0
  180.3010  180.0240  141.5510 C   0  0  1  0  0  3  0  0  0  0  0  0
  179.9800  178.8600  139.3610 C   0  0  0  0  0  2  0  0  0  0  0  0
  180.3800  177.5630  140.0480 C   0  0  0  0  0  2  0  0  0  0  0  0
  181.3040  177.8830  141.2190 C   0  0  0  0  0  2  0  0  0  0  0  0
  179.3520  179.8100  140.3710 C   0  0  0  0  0  2  0  0  0  0  0  0
  1 10  2  0  0  0  0
  2  6  1  0  0  0  0
  3  8  1  0  0  0  0
  4 17  2  0  0  0  0
  6  5  2  0  0  0  0
  8  1  1  0  0  0  0
  8  2  2  0  0  0  0
  9  4  1  0  0  0  0
  9 16  1  0  0  0  0
 10  5  1  0  0  0  0
 11 18  1  0  0  0  0
 11  3  2  0  0  0  0
 12  1  1  0  0  0  0
 13  2  1  0  0  0  0
 14 15  2  0  0  0  0
 14  4  1  0  0  0  0
 15 11  1  0  0  0  0
 16 26  1  6  0  0  0
 16  7  1  0  0  0  0
 17  3  1  0  0  0  0
 17  7  1  0  0  0  0
 18 12  2  0  0  0  0
 19 25  1  0  0  0  0
 19 23  1  0  0  0  0
 20 19  2  0  0  0  0
 21 23  2  0  0  0  0
 21 15  1  0  0  0  0
 22 20  1  0  0  0  0
 22 24  2  0  0  0  0
 24 21  1  0  0  0  0
 26 27  1  0  0  0  0
 29 27  1  0  0  0  0
 30 29  1  0  0  0  0
 30 28  1  1  0  0  0
 31 32  1  0  0  0  0
 31 34  1  0  0  0  0
 32 33  1  0  0  0  0
 33 29  1  0  0  0  0
 34 30  1  0  0  0  0
M  END
>  <MODEL>
8

>  <REMARK>
 VINA RESULT:      -9.3      3.371      6.348
  Name = 
  4 active torsions:
  status: ('A' for Active; 'I' for Inactive)
    1  A    between atoms: C_3  and  N_13
    2  A    between atoms: C_3  and  C_17
    3  A    between atoms: C_12  and  C_28
    4  A    between atoms: C_17  and  C_29
                            x       y       z     vdW  Elec       q    Type
                         _______ _______ _______ _____ _____    ______ ____

>  <TORSDO>
F 4

$$$$
=
 OpenBabel10252415023D

 34 39  0  0  1  0  0  0  0  0999 V2000
  187.5050  177.5480  144.8710 C   0  0  0  0  0  0  0  0  0  0  0  0
  185.5160  178.9400  144.7790 C   0  0  0  0  0  0  0  0  0  0  0  0
  186.7110  178.2380  142.6660 C   0  0  0  0  0  0  0  0  0  0  0  0
  185.9510  178.6280  140.3900 C   0  0  0  0  0  0  0  0  0  0  0  0
  186.2750  178.0330  146.8960 C   0  0  0  0  0  3  0  0  0  0  0  0
  185.3810  178.8090  146.1640 C   0  0  0  0  0  3  0  0  0  0  0  0
  184.3320  178.7950  141.9890 N   0  0  0  0  0  2  0  0  0  0  0  0
  186.5420  178.2410  144.0870 C   0  0  0  0  0  0  0  0  0  0  0  0
  184.7200  178.9370  139.6250 C   0  0  0  0  0  2  0  0  0  0  0  0
  187.3460  177.4230  146.2530 C   0  0  0  0  0  3  0  0  0  0  0  0
  187.9440  177.7600  142.1190 C   0  0  0  0  0  0  0  0  0  0  0  0
  188.6170  177.0290  144.2980 N   0  0  0  0  0  0  0  0  0  0  0  0
  184.7400  179.8750  144.1840 F   0  0  0  0  0  0  0  0  0  0  0  0
  187.1750  178.2540  139.8590 C   0  0  0  0  0  3  0  0  0  0  0  0
  188.1980  177.8250  140.7160 C   0  0  0  0  0  0  0  0  0  0  0  0
  183.6470  179.0450  140.7250 C   0  0  1  0  0  3  0  0  0  0  0  0
  185.7120  178.6090  141.7350 C   0  0  0  0  0  0  0  0  0  0  0  0
  188.8610  177.1410  142.9730 C   0  0  0  0  0  3  0  0  0  0  0  0
  191.9230  177.2710  140.1850 C   0  0  0  0  0  0  0  0  0  0  0  0
  191.9380  176.7330  138.8960 C   0  0  0  0  0  3  0  0  0  0  0  0
  189.4950  177.4280  140.1030 C   0  0  0  0  0  0  0  0  0  0  0  0
  190.7390  176.5490  138.2030 C   0  0  0  0  0  3  0  0  0  0  0  0
  190.7090  177.6210  140.7820 C   0  0  0  0  0  3  0  0  0  0  0  0
  189.5250  176.8970  138.8010 C   0  0  0  0  0  3  0  0  0  0  0  0
  193.0850  177.4560  140.8550 F   0  0  0  0  0  0  0  0  0  0  0  0
  182.5680  177.9950  140.5190 C   0  0  0  0  0  2  0  0  0  0  0  0
  181.2030  178.6540  140.4200 C   0  0  0  0  0  2  0  0  0  0  0  0
  179.7490  181.0260  140.6390 O   0  0  0  0  0  1  0  0  0  0  0  0
  180.8430  179.2370  141.7050 N   0  0  0  0  0  0  0  0  0  0  0  0
  179.5770  179.9640  141.5320 C   0  0  1  0  0  3  0  0  0  0  0  0
  178.9310  179.4050  143.8820 C   0  0  0  0  0  2  0  0  0  0  0  0
  180.2220  178.6080  143.9960 C   0  0  0  0  0  2  0  0  0  0  0  0
  180.6230  178.1080  142.6110 C   0  0  0  0  0  2  0  0  0  0  0  0
  179.1020  180.5300  142.8710 C   0  0  0  0  0  2  0  0  0  0  0  0
  1 10  2  0  0  0  0
  2  6  1  0  0  0  0
  3  8  1  0  0  0  0
  4 17  1  0  0  0  0
  6  5  2  0  0  0  0
  8  2  2  0  0  0  0
  8  1  1  0  0  0  0
  9  4  1  0  0  0  0
  9 16  1  0  0  0  0
 10  5  1  0  0  0  0
 11  3  1  0  0  0  0
 11 18  1  0  0  0  0
 12  1  1  0  0  0  0
 13  2  1  0  0  0  0
 14  4  2  0  0  0  0
 14 15  1  0  0  0  0
 15 11  2  0  0  0  0
 16 26  1  6  0  0  0
 16  7  1  0  0  0  0
 17  7  1  0  0  0  0
 17  3  2  0  0  0  0
 18 12  2  0  0  0  0
 19 23  1  0  0  0  0
 19 25  1  0  0  0  0
 20 19  2  0  0  0  0
 21 15  1  0  0  0  0
 21 23  2  0  0  0  0
 22 24  2  0  0  0  0
 22 20  1  0  0  0  0
 24 21  1  0  0  0  0
 27 26  1  0  0  0  0
 27 29  1  0  0  0  0
 29 33  1  0  0  0  0
 30 28  1  6  0  0  0
 30 29  1  0  0  0  0
 30 34  1  0  0  0  0
 31 32  1  0  0  0  0
 33 32  1  0  0  0  0
 34 31  1  0  0  0  0
M  END
>  <MODEL>
9

>  <REMARK>
 VINA RESULT:      -9.3      3.361      6.328
  Name = 
  4 active torsions:
  status: ('A' for Active; 'I' for Inactive)
    1  A    between atoms: C_3  and  N_13
    2  A    between atoms: C_3  and  C_17
    3  A    between atoms: C_12  and  C_28
    4  A    between atoms: C_17  and  C_29
                            x       y       z     vdW  Elec       q    Type
                         _______ _______ _______ _____ _____    ______ ____

>  <TORSDO>
F 4

$$$$
