=
 OpenBabel10262420123D

 27 30  0  0  1  0  0  0  0  0999 V2000
  187.4230  178.1440  142.4590 N   0  0  0  0  0  2  0  0  0  0  0  0
  188.4660  177.5060  144.5990 C   0  0  0  0  0  0  0  0  0  0  0  0
  189.8530  176.3540  142.8930 C   0  0  0  0  0  2  0  0  0  0  0  0
  189.9450  177.0900  139.2060 C   0  0  0  0  0  3  0  0  0  0  0  0
  188.8370  177.9170  139.0300 C   0  0  0  0  0  0  0  0  0  0  0  0
  187.3920  177.9190  143.8820 C   0  0  0  0  0  0  0  0  0  0  0  0
  188.3230  177.7630  141.4050 C   0  0  0  0  0  0  0  0  0  0  0  0
  189.8320  177.3790  144.0170 C   0  0  1  0  0  3  0  0  0  0  0  0
  190.2480  176.5990  140.4770 C   0  0  0  0  0  3  0  0  0  0  0  0
  188.5380  178.3970  137.8000 F   0  0  0  0  0  0  0  0  0  0  0  0
  188.0330  178.2460  140.1220 C   0  0  0  0  0  3  0  0  0  0  0  0
  189.4510  176.9280  141.5790 C   0  0  0  0  0  0  0  0  0  0  0  0
  183.7110  178.5790  144.6150 C   0  0  0  0  0  2  0  0  0  0  0  0
  186.1690  178.2500  144.5500 N   0  0  0  0  0  0  0  0  0  0  0  0
  186.1520  178.2120  146.0170 C   0  0  0  0  0  2  0  0  0  0  0  0
  184.7280  178.2880  146.5660 C   0  0  0  0  0  2  0  0  0  0  0  0
  183.9800  179.2160  145.8330 O   0  0  0  0  0  0  0  0  0  0  0  0
  184.9710  178.5480  143.7520 C   0  0  0  0  0  2  0  0  0  0  0  0
  191.6520  178.9690  144.5980 C   0  0  0  0  0  2  0  0  0  0  0  0
  191.8840  178.5020  143.1770 C   0  0  0  0  0  2  0  0  0  0  0  0
  190.4710  178.7250  143.6790 C   0  0  0  0  0  3  0  0  0  0  0  0
  188.3650  177.1730  145.9580 O   0  0  0  0  0  0  0  0  0  0  0  0
  189.3160  177.5750  146.9400 C   0  0  1  0  0  3  0  0  0  0  0  0
  188.6530  178.0420  148.0750 O   0  0  0  0  0  1  0  0  0  0  0  0
  190.1890  176.3950  147.3200 C   0  0  0  0  0  2  0  0  0  0  0  0
  192.3970  175.6540  147.3580 C   0  0  0  0  0  1  0  0  0  0  0  0
  191.5620  176.8330  147.4950 N   0  0  0  0  0  2  0  0  0  0  0  0
  1  6  1  0  0  0  0
  2 22  1  0  0  0  0
  3  8  1  0  0  0  0
  4  9  1  0  0  0  0
  5  4  2  0  0  0  0
  5 11  1  0  0  0  0
  6 14  1  0  0  0  0
  6  2  2  0  0  0  0
  7 12  1  0  0  0  0
  7  1  1  0  0  0  0
  8 21  1  6  0  0  0
  8  2  1  0  0  0  0
  9 12  2  0  0  0  0
 10  5  1  0  0  0  0
 11  7  2  0  0  0  0
 12  3  1  0  0  0  0
 13 17  1  0  0  0  0
 14 15  1  0  0  0  0
 15 16  1  0  0  0  0
 17 16  1  0  0  0  0
 18 14  1  0  0  0  0
 18 13  1  0  0  0  0
 20 21  1  0  0  0  0
 20 19  1  0  0  0  0
 21 19  1  0  0  0  0
 22 23  1  0  0  0  0
 23 25  1  0  0  0  0
 23 24  1  1  0  0  0
 25 27  1  0  0  0  0
 26 27  1  0  0  0  0
M  END
>  <MODEL>
1

>  <REMARK>
 VINA RESULT:      -8.3      0.000      0.000
  Name = 
  6 active torsions:
  status: ('A' for Active; 'I' for Inactive)
    1  A    between atoms: C_2  and  O_6
    2  A    between atoms: C_5  and  O_6
    3  A    between atoms: C_5  and  C_17
    4  A    between atoms: N_9  and  C_15
    5  A    between atoms: C_14  and  C_19
    6  A    between atoms: N_16  and  C_17
                            x       y       z     vdW  Elec       q    Type
                         _______ _______ _______ _____ _____    ______ ____

>  <TORSDO>
F 6

$$$$
=
 OpenBabel10262420123D

 27 30  0  0  1  0  0  0  0  0999 V2000
  187.3630  178.2660  141.5250 N   0  0  0  0  0  2  0  0  0  0  0  0
  187.7780  177.5730  143.8540 C   0  0  0  0  0  0  0  0  0  0  0  0
  189.5280  176.3840  142.5560 C   0  0  0  0  0  2  0  0  0  0  0  0
  190.6190  177.1440  139.0380 C   0  0  0  0  0  3  0  0  0  0  0  0
  189.6260  178.0130  138.5900 C   0  0  0  0  0  0  0  0  0  0  0  0
  186.9480  178.0320  142.8840 C   0  0  0  0  0  0  0  0  0  0  0  0
  188.4960  177.8600  140.7410 C   0  0  0  0  0  0  0  0  0  0  0  0
  189.2450  177.4000  143.6520 C   0  0  1  0  0  3  0  0  0  0  0  0
  190.5570  176.6320  140.3350 C   0  0  0  0  0  3  0  0  0  0  0  0
  189.6800  178.5130  137.3320 F   0  0  0  0  0  0  0  0  0  0  0  0
  188.5730  178.3630  139.4350 C   0  0  0  0  0  3  0  0  0  0  0  0
  189.5080  176.9820  141.1920 C   0  0  0  0  0  0  0  0  0  0  0  0
  183.9260  179.7840  144.4100 C   0  0  0  0  0  2  0  0  0  0  0  0
  185.6030  178.4030  143.2110 N   0  0  0  0  0  0  0  0  0  0  0  0
  184.5290  177.9720  142.3090 C   0  0  0  0  0  2  0  0  0  0  0  0
  183.2140  178.6870  142.6170 C   0  0  0  0  0  2  0  0  0  0  0  0
  183.0340  178.7840  144.0020 O   0  0  0  0  0  0  0  0  0  0  0  0
  185.3570  179.2470  144.3900 C   0  0  0  0  0  2  0  0  0  0  0  0
  190.8460  178.9490  144.7530 C   0  0  0  0  0  2  0  0  0  0  0  0
  191.4870  178.4570  143.4730 C   0  0  0  0  0  2  0  0  0  0  0  0
  189.9960  178.7240  143.5180 C   0  0  0  0  0  3  0  0  0  0  0  0
  187.3090  177.2340  145.1320 O   0  0  0  0  0  0  0  0  0  0  0  0
  187.8150  177.8070  146.3340 C   0  0  1  0  0  3  0  0  0  0  0  0
  186.7570  178.2680  147.1170 O   0  0  0  0  0  1  0  0  0  0  0  0
  188.5960  176.7650  147.1090 C   0  0  0  0  0  2  0  0  0  0  0  0
  190.9020  176.5490  147.3560 C   0  0  0  0  0  1  0  0  0  0  0  0
  189.7660  177.3760  147.7160 N   0  0  0  0  0  2  0  0  0  0  0  0
  1  6  1  0  0  0  0
  2 22  1  0  0  0  0
  3  8  1  0  0  0  0
  4  9  1  0  0  0  0
  5  4  2  0  0  0  0
  5 11  1  0  0  0  0
  6 14  1  0  0  0  0
  6  2  2  0  0  0  0
  7 12  1  0  0  0  0
  7  1  1  0  0  0  0
  8 21  1  6  0  0  0
  8  2  1  0  0  0  0
  9 12  2  0  0  0  0
 10  5  1  0  0  0  0
 11  7  2  0  0  0  0
 12  3  1  0  0  0  0
 14 18  1  0  0  0  0
 15 16  1  0  0  0  0
 15 14  1  0  0  0  0
 16 17  1  0  0  0  0
 17 13  1  0  0  0  0
 18 13  1  0  0  0  0
 20 21  1  0  0  0  0
 20 19  1  0  0  0  0
 21 19  1  0  0  0  0
 22 23  1  0  0  0  0
 23 25  1  0  0  0  0
 23 24  1  1  0  0  0
 25 27  1  0  0  0  0
 26 27  1  0  0  0  0
M  END
>  <MODEL>
2

>  <REMARK>
 VINA RESULT:      -8.1      1.232      1.626
  Name = 
  6 active torsions:
  status: ('A' for Active; 'I' for Inactive)
    1  A    between atoms: C_2  and  O_6
    2  A    between atoms: C_5  and  O_6
    3  A    between atoms: C_5  and  C_17
    4  A    between atoms: N_9  and  C_15
    5  A    between atoms: C_14  and  C_19
    6  A    between atoms: N_16  and  C_17
                            x       y       z     vdW  Elec       q    Type
                         _______ _______ _______ _____ _____    ______ ____

>  <TORSDO>
F 6

$$$$
=
 OpenBabel10262420123D

 27 30  0  0  1  0  0  0  0  0999 V2000
  186.8850  177.8380  144.3580 N   0  0  0  0  0  2  0  0  0  0  0  0
  188.1620  178.1570  142.2740 C   0  0  0  0  0  0  0  0  0  0  0  0
  189.8220  178.6010  144.0640 C   0  0  0  0  0  2  0  0  0  0  0  0
  189.5080  177.6750  147.6960 C   0  0  0  0  0  3  0  0  0  0  0  0
  188.1660  177.3190  147.8070 C   0  0  0  0  0  0  0  0  0  0  0  0
  186.9880  178.1390  142.9530 C   0  0  0  0  0  0  0  0  0  0  0  0
  187.8260  177.7900  145.4430 C   0  0  0  0  0  0  0  0  0  0  0  0
  189.4550  177.7260  142.8760 C   0  0  1  0  0  3  0  0  0  0  0  0
  190.0150  178.0880  146.4630 C   0  0  0  0  0  3  0  0  0  0  0  0
  187.6670  176.9170  149.0010 F   0  0  0  0  0  0  0  0  0  0  0  0
  187.3330  177.3800  146.6880 C   0  0  0  0  0  3  0  0  0  0  0  0
  189.1900  178.1470  145.3340 C   0  0  0  0  0  0  0  0  0  0  0  0
  183.2990  178.6910  142.1670 C   0  0  0  0  0  2  0  0  0  0  0  0
  185.7530  178.3330  142.2520 N   0  0  0  0  0  0  0  0  0  0  0  0
  185.8140  178.7650  140.8510 C   0  0  0  0  0  2  0  0  0  0  0  0
  184.4470  179.2160  140.3410 C   0  0  0  0  0  2  0  0  0  0  0  0
  183.4500  178.3550  140.8160 O   0  0  0  0  0  0  0  0  0  0  0  0
  184.4830  178.1570  142.9730 C   0  0  0  0  0  2  0  0  0  0  0  0
  190.6560  175.6240  142.3080 C   0  0  0  0  0  2  0  0  0  0  0  0
  190.8540  175.8850  143.7870 C   0  0  0  0  0  2  0  0  0  0  0  0
  189.5300  176.2210  143.1310 C   0  0  0  0  0  3  0  0  0  0  0  0
  188.2380  178.5800  140.9380 O   0  0  0  0  0  0  0  0  0  0  0  0
  189.1680  178.0520  139.9970 C   0  0  1  0  0  3  0  0  0  0  0  0
  188.8210  176.7400  139.6780 O   0  0  0  0  0  1  0  0  0  0  0  0
  189.1560  178.8950  138.7370 C   0  0  0  0  0  2  0  0  0  0  0  0
  188.3100  178.4950  136.6050 C   0  0  0  0  0  1  0  0  0  0  0  0
  187.9310  178.6560  137.9960 N   0  0  0  0  0  2  0  0  0  0  0  0
  1  7  1  0  0  0  0
  2  8  1  0  0  0  0
  2  6  2  0  0  0  0
  3 12  1  0  0  0  0
  4  5  1  0  0  0  0
  5 10  1  0  0  0  0
  6  1  1  0  0  0  0
  7 11  1  0  0  0  0
  8 21  1  1  0  0  0
  8  3  1  0  0  0  0
  9  4  2  0  0  0  0
 11  5  2  0  0  0  0
 12  7  2  0  0  0  0
 12  9  1  0  0  0  0
 13 18  1  0  0  0  0
 14  6  1  0  0  0  0
 14 18  1  0  0  0  0
 15 14  1  0  0  0  0
 16 17  1  0  0  0  0
 16 15  1  0  0  0  0
 17 13  1  0  0  0  0
 19 21  1  0  0  0  0
 19 20  1  0  0  0  0
 21 20  1  0  0  0  0
 22  2  1  0  0  0  0
 23 24  1  6  0  0  0
 23 22  1  0  0  0  0
 25 23  1  0  0  0  0
 26 27  1  0  0  0  0
 27 25  1  0  0  0  0
M  END
>  <MODEL>
3

>  <REMARK>
 VINA RESULT:      -7.1      3.464      6.168
  Name = 
  6 active torsions:
  status: ('A' for Active; 'I' for Inactive)
    1  A    between atoms: C_2  and  O_6
    2  A    between atoms: C_5  and  O_6
    3  A    between atoms: C_5  and  C_17
    4  A    between atoms: N_9  and  C_15
    5  A    between atoms: C_14  and  C_19
    6  A    between atoms: N_16  and  C_17
                            x       y       z     vdW  Elec       q    Type
                         _______ _______ _______ _____ _____    ______ ____

>  <TORSDO>
F 6

$$$$
=
 OpenBabel10262420123D

 27 30  0  0  1  0  0  0  0  0999 V2000
  190.8290  175.9490  139.1650 N   0  0  0  0  0  2  0  0  0  0  0  0
  188.9430  177.5360  139.1170 C   0  0  0  0  0  0  0  0  0  0  0  0
  189.7480  177.4950  136.7700 C   0  0  0  0  0  2  0  0  0  0  0  0
  192.0020  174.9170  135.2150 C   0  0  0  0  0  3  0  0  0  0  0  0
  192.4750  174.2150  136.3220 C   0  0  0  0  0  0  0  0  0  0  0  0
  189.9340  176.8940  139.7840 C   0  0  0  0  0  0  0  0  0  0  0  0
  191.1740  175.6410  137.8050 C   0  0  0  0  0  0  0  0  0  0  0  0
  188.5800  177.2250  137.7050 C   0  0  1  0  0  3  0  0  0  0  0  0
  191.1160  175.9790  135.3960 C   0  0  0  0  0  3  0  0  0  0  0  0
  193.3360  173.1830  136.1530 F   0  0  0  0  0  0  0  0  0  0  0  0
  192.0650  174.5790  137.6050 C   0  0  0  0  0  3  0  0  0  0  0  0
  190.6940  176.3480  136.6780 C   0  0  0  0  0  0  0  0  0  0  0  0
  189.5410  176.4900  143.5530 C   0  0  0  0  0  2  0  0  0  0  0  0
  190.0720  177.0670  141.2000 N   0  0  0  0  0  0  0  0  0  0  0  0
  191.2480  177.7910  141.6950 C   0  0  0  0  0  2  0  0  0  0  0  0
  191.4120  177.6330  143.2060 C   0  0  0  0  0  2  0  0  0  0  0  0
  190.1640  177.7130  143.8340 O   0  0  0  0  0  0  0  0  0  0  0  0
  189.0770  176.4630  142.0980 C   0  0  0  0  0  2  0  0  0  0  0  0
  186.4710  176.0410  137.1300 C   0  0  0  0  0  2  0  0  0  0  0  0
  187.5090  175.6660  136.0930 C   0  0  0  0  0  2  0  0  0  0  0  0
  187.9200  175.8570  137.5390 C   0  0  0  0  0  3  0  0  0  0  0  0
  188.1760  178.5430  139.7210 O   0  0  0  0  0  0  0  0  0  0  0  0
  186.9160  178.3080  140.3420 C   0  0  1  0  0  3  0  0  0  0  0  0
  186.8130  179.0750  141.5030 O   0  0  0  0  0  1  0  0  0  0  0  0
  185.7970  178.6850  139.3920 C   0  0  0  0  0  2  0  0  0  0  0  0
  183.7150  179.7050  139.1630 C   0  0  0  0  0  1  0  0  0  0  0  0
  184.8240  179.5150  140.0800 N   0  0  0  0  0  2  0  0  0  0  0  0
  1  6  1  0  0  0  0
  2 22  1  0  0  0  0
  2  6  2  0  0  0  0
  3  8  1  0  0  0  0
  4  9  2  0  0  0  0
  4  5  1  0  0  0  0
  5 11  2  0  0  0  0
  6 14  1  0  0  0  0
  7  1  1  0  0  0  0
  8 21  1  1  0  0  0
  8  2  1  0  0  0  0
  9 12  1  0  0  0  0
 10  5  1  0  0  0  0
 11  7  1  0  0  0  0
 12  3  1  0  0  0  0
 12  7  2  0  0  0  0
 13 17  1  0  0  0  0
 14 15  1  0  0  0  0
 14 18  1  0  0  0  0
 15 16  1  0  0  0  0
 16 17  1  0  0  0  0
 18 13  1  0  0  0  0
 19 21  1  0  0  0  0
 20 19  1  0  0  0  0
 20 21  1  0  0  0  0
 22 23  1  0  0  0  0
 23 24  1  1  0  0  0
 25 27  1  0  0  0  0
 25 23  1  0  0  0  0
 26 27  1  0  0  0  0
M  END
>  <MODEL>
4

>  <REMARK>
 VINA RESULT:      -6.6      3.638      7.042
  Name = 
  6 active torsions:
  status: ('A' for Active; 'I' for Inactive)
    1  A    between atoms: C_2  and  O_6
    2  A    between atoms: C_5  and  O_6
    3  A    between atoms: C_5  and  C_17
    4  A    between atoms: N_9  and  C_15
    5  A    between atoms: C_14  and  C_19
    6  A    between atoms: N_16  and  C_17
                            x       y       z     vdW  Elec       q    Type
                         _______ _______ _______ _____ _____    ______ ____

>  <TORSDO>
F 6

$$$$
=
 OpenBabel10262420123D

 27 30  0  0  1  0  0  0  0  0999 V2000
  185.8930  178.6550  140.2190 N   0  0  0  0  0  2  0  0  0  0  0  0
  184.6010  177.8870  138.2650 C   0  0  0  0  0  0  0  0  0  0  0  0
  183.0710  177.5030  140.1810 C   0  0  0  0  0  2  0  0  0  0  0  0
  183.3820  178.9680  143.6310 C   0  0  0  0  0  3  0  0  0  0  0  0
  184.6700  179.5000  143.6240 C   0  0  0  0  0  0  0  0  0  0  0  0
  185.7840  178.1470  138.8750 C   0  0  0  0  0  0  0  0  0  0  0  0
  184.9890  178.7410  141.3330 C   0  0  0  0  0  0  0  0  0  0  0  0
  183.2830  178.2370  138.8670 C   0  0  1  0  0  3  0  0  0  0  0  0
  182.8920  178.3240  142.4940 C   0  0  0  0  0  3  0  0  0  0  0  0
  185.1520  180.1250  144.7240 F   0  0  0  0  0  0  0  0  0  0  0  0
  185.4660  179.3820  142.4840 C   0  0  0  0  0  3  0  0  0  0  0  0
  183.6800  178.2070  141.3440 C   0  0  0  0  0  0  0  0  0  0  0  0
  189.1920  176.9200  137.6900 C   0  0  0  0  0  2  0  0  0  0  0  0
  187.0100  178.0080  138.1460 N   0  0  0  0  0  0  0  0  0  0  0  0
  187.0980  178.6280  136.8190 C   0  0  0  0  0  2  0  0  0  0  0  0
  188.3290  178.1460  136.0530 C   0  0  0  0  0  2  0  0  0  0  0  0
  189.4280  178.0640  136.9160 O   0  0  0  0  0  0  0  0  0  0  0  0
  188.1000  177.2040  138.7190 C   0  0  0  0  0  2  0  0  0  0  0  0
  181.9310  180.0990  137.9270 C   0  0  0  0  0  2  0  0  0  0  0  0
  181.6100  179.9960  139.4030 C   0  0  0  0  0  2  0  0  0  0  0  0
  183.0230  179.7420  138.9160 C   0  0  0  0  0  3  0  0  0  0  0  0
  184.5360  177.2720  137.0060 O   0  0  0  0  0  0  0  0  0  0  0  0
  184.3210  175.8750  136.8230 C   0  0  1  0  0  3  0  0  0  0  0  0
  183.2350  175.6740  135.9710 O   0  0  0  0  0  1  0  0  0  0  0  0
  185.5580  175.2420  136.2160 C   0  0  0  0  0  2  0  0  0  0  0  0
  185.3540  173.3750  137.5930 C   0  0  0  0  0  1  0  0  0  0  0  0
  186.2510  174.4530  137.2180 N   0  0  0  0  0  2  0  0  0  0  0  0
  1  7  1  0  0  0  0
  2  8  1  0  0  0  0
  2  6  2  0  0  0  0
  3 12  1  0  0  0  0
  5  4  1  0  0  0  0
  5 10  1  0  0  0  0
  6  1  1  0  0  0  0
  7 12  2  0  0  0  0
  7 11  1  0  0  0  0
  8 21  1  1  0  0  0
  8  3  1  0  0  0  0
  9  4  2  0  0  0  0
 11  5  2  0  0  0  0
 12  9  1  0  0  0  0
 13 18  1  0  0  0  0
 14 18  1  0  0  0  0
 14  6  1  0  0  0  0
 15 14  1  0  0  0  0
 16 15  1  0  0  0  0
 16 17  1  0  0  0  0
 17 13  1  0  0  0  0
 19 21  1  0  0  0  0
 19 20  1  0  0  0  0
 21 20  1  0  0  0  0
 22  2  1  0  0  0  0
 23 24  1  6  0  0  0
 23 22  1  0  0  0  0
 25 23  1  0  0  0  0
 25 27  1  0  0  0  0
 27 26  1  0  0  0  0
M  END
>  <MODEL>
5

>  <REMARK>
 VINA RESULT:      -6.5      5.696      8.964
  Name = 
  6 active torsions:
  status: ('A' for Active; 'I' for Inactive)
    1  A    between atoms: C_2  and  O_6
    2  A    between atoms: C_5  and  O_6
    3  A    between atoms: C_5  and  C_17
    4  A    between atoms: N_9  and  C_15
    5  A    between atoms: C_14  and  C_19
    6  A    between atoms: N_16  and  C_17
                            x       y       z     vdW  Elec       q    Type
                         _______ _______ _______ _____ _____    ______ ____

>  <TORSDO>
F 6

$$$$
=
 OpenBabel10262420123D

 27 30  0  0  1  0  0  0  0  0999 V2000
  186.0330  178.0470  139.8880 N   0  0  0  0  0  2  0  0  0  0  0  0
  188.3940  178.1240  140.5920 C   0  0  0  0  0  0  0  0  0  0  0  0
  187.1950  179.3400  142.3930 C   0  0  0  0  0  2  0  0  0  0  0  0
  183.4960  179.2740  143.0670 C   0  0  0  0  0  3  0  0  0  0  0  0
  182.9850  178.6700  141.9200 C   0  0  0  0  0  0  0  0  0  0  0  0
  187.4490  178.0140  139.6250 C   0  0  0  0  0  0  0  0  0  0  0  0
  185.2320  178.4700  141.0040 C   0  0  0  0  0  0  0  0  0  0  0  0
  188.0700  178.1450  142.0460 C   0  0  1  0  0  3  0  0  0  0  0  0
  184.8710  179.4770  143.1900 C   0  0  0  0  0  3  0  0  0  0  0  0
  181.6510  178.4700  141.7950 F   0  0  0  0  0  0  0  0  0  0  0  0
  183.8480  178.2760  140.8970 C   0  0  0  0  0  3  0  0  0  0  0  0
  185.7450  179.0790  142.1720 C   0  0  0  0  0  0  0  0  0  0  0  0
  189.0790  178.3030  136.1930 C   0  0  0  0  0  2  0  0  0  0  0  0
  187.8380  177.7580  138.2700 N   0  0  0  0  0  0  0  0  0  0  0  0
  187.6500  176.4020  137.7430 C   0  0  0  0  0  2  0  0  0  0  0  0
  188.3780  176.2080  136.4130 C   0  0  0  0  0  2  0  0  0  0  0  0
  188.2300  177.3500  135.6160 O   0  0  0  0  0  0  0  0  0  0  0  0
  188.4650  178.8330  137.4870 C   0  0  0  0  0  2  0  0  0  0  0  0
  188.6780  176.1160  143.3480 C   0  0  0  0  0  2  0  0  0  0  0  0
  187.5600  176.8220  144.0880 C   0  0  0  0  0  2  0  0  0  0  0  0
  187.5690  176.8000  142.5720 C   0  0  0  0  0  3  0  0  0  0  0  0
  189.7600  178.2180  140.2850 O   0  0  0  0  0  0  0  0  0  0  0  0
  190.6630  177.1190  140.3680 C   0  0  1  0  0  3  0  0  0  0  0  0
  191.0370  176.7200  139.0850 O   0  0  0  0  0  1  0  0  0  0  0  0
  191.8980  177.5280  141.1460 C   0  0  0  0  0  2  0  0  0  0  0  0
  191.6060  178.2950  143.3250 C   0  0  0  0  0  1  0  0  0  0  0  0
  191.7770  177.0960  142.5270 N   0  0  0  0  0  2  0  0  0  0  0  0
  1  7  1  0  0  0  0
  2  8  1  0  0  0  0
  4  9  1  0  0  0  0
  5  4  2  0  0  0  0
  6  1  1  0  0  0  0
  6  2  2  0  0  0  0
  7 12  1  0  0  0  0
  8  3  1  0  0  0  0
  8 21  1  6  0  0  0
 10  5  1  0  0  0  0
 11  7  2  0  0  0  0
 11  5  1  0  0  0  0
 12  3  1  0  0  0  0
 12  9  2  0  0  0  0
 13 18  1  0  0  0  0
 14  6  1  0  0  0  0
 15 14  1  0  0  0  0
 16 15  1  0  0  0  0
 17 13  1  0  0  0  0
 17 16  1  0  0  0  0
 18 14  1  0  0  0  0
 19 20  1  0  0  0  0
 21 19  1  0  0  0  0
 21 20  1  0  0  0  0
 22 23  1  0  0  0  0
 22  2  1  0  0  0  0
 23 24  1  6  0  0  0
 23 25  1  0  0  0  0
 25 27  1  0  0  0  0
 27 26  1  0  0  0  0
M  END
>  <MODEL>
6

>  <REMARK>
 VINA RESULT:      -6.4      3.761      6.540
  Name = 
  6 active torsions:
  status: ('A' for Active; 'I' for Inactive)
    1  A    between atoms: C_2  and  O_6
    2  A    between atoms: C_5  and  O_6
    3  A    between atoms: C_5  and  C_17
    4  A    between atoms: N_9  and  C_15
    5  A    between atoms: C_14  and  C_19
    6  A    between atoms: N_16  and  C_17
                            x       y       z     vdW  Elec       q    Type
                         _______ _______ _______ _____ _____    ______ ____

>  <TORSDO>
F 6

$$$$
=
 OpenBabel10262420123D

 27 30  0  0  1  0  0  0  0  0999 V2000
  188.8720  177.8210  143.9930 N   0  0  0  0  0  2  0  0  0  0  0  0
  186.7030  177.7800  142.8220 C   0  0  0  0  0  0  0  0  0  0  0  0
  186.1620  176.9780  145.1070 C   0  0  0  0  0  2  0  0  0  0  0  0
  188.3110  177.3240  148.1740 C   0  0  0  0  0  3  0  0  0  0  0  0
  189.5380  177.7210  147.6470 C   0  0  0  0  0  0  0  0  0  0  0  0
  188.0590  177.7450  142.8060 C   0  0  0  0  0  0  0  0  0  0  0  0
  188.6130  177.6500  145.3960 C   0  0  0  0  0  0  0  0  0  0  0  0
  185.9120  178.0480  144.0560 C   0  0  1  0  0  3  0  0  0  0  0  0
  187.2330  177.0910  147.3200 C   0  0  0  0  0  3  0  0  0  0  0  0
  190.5890  177.9490  148.4700 F   0  0  0  0  0  0  0  0  0  0  0  0
  189.6860  177.8790  146.2680 C   0  0  0  0  0  3  0  0  0  0  0  0
  187.3690  177.2520  145.9370 C   0  0  0  0  0  0  0  0  0  0  0  0
  190.2750  176.6750  139.8960 C   0  0  0  0  0  2  0  0  0  0  0  0
  188.7590  177.7240  141.5560 N   0  0  0  0  0  0  0  0  0  0  0  0
  188.3040  178.6290  140.4940 C   0  0  0  0  0  2  0  0  0  0  0  0
  188.9390  178.2820  139.1490 C   0  0  0  0  0  2  0  0  0  0  0  0
  190.2890  177.9540  139.3250 O   0  0  0  0  0  0  0  0  0  0  0  0
  189.8540  176.7620  141.3620 C   0  0  0  0  0  2  0  0  0  0  0  0
  184.6680  180.1350  144.5830 C   0  0  0  0  0  2  0  0  0  0  0  0
  185.2970  179.6360  145.8670 C   0  0  0  0  0  2  0  0  0  0  0  0
  186.0390  179.4880  144.5540 C   0  0  0  0  0  3  0  0  0  0  0  0
  185.9430  177.5730  141.6610 O   0  0  0  0  0  0  0  0  0  0  0  0
  184.8930  178.4400  141.2430 C   0  0  1  0  0  3  0  0  0  0  0  0
  185.3680  179.7500  141.1630 O   0  0  0  0  0  1  0  0  0  0  0  0
  184.3830  178.0080  139.8820 C   0  0  0  0  0  2  0  0  0  0  0  0
  185.4890  177.9030  137.8350 C   0  0  0  0  0  1  0  0  0  0  0  0
  184.9960  178.8200  138.8450 N   0  0  0  0  0  2  0  0  0  0  0  0
  1  7  1  0  0  0  0
  2  8  1  0  0  0  0
  3 12  1  0  0  0  0
  5  4  1  0  0  0  0
  5 10  1  0  0  0  0
  6  2  2  0  0  0  0
  6  1  1  0  0  0  0
  7 12  2  0  0  0  0
  7 11  1  0  0  0  0
  8 21  1  1  0  0  0
  8  3  1  0  0  0  0
  9  4  2  0  0  0  0
 11  5  2  0  0  0  0
 12  9  1  0  0  0  0
 13 18  1  0  0  0  0
 14  6  1  0  0  0  0
 15 14  1  0  0  0  0
 16 17  1  0  0  0  0
 16 15  1  0  0  0  0
 17 13  1  0  0  0  0
 18 14  1  0  0  0  0
 19 20  1  0  0  0  0
 21 19  1  0  0  0  0
 21 20  1  0  0  0  0
 22  2  1  0  0  0  0
 23 24  1  6  0  0  0
 23 22  1  0  0  0  0
 25 23  1  0  0  0  0
 26 27  1  0  0  0  0
 27 25  1  0  0  0  0
M  END
>  <MODEL>
7

>  <REMARK>
 VINA RESULT:      -6.3      3.383      7.170
  Name = 
  6 active torsions:
  status: ('A' for Active; 'I' for Inactive)
    1  A    between atoms: C_2  and  O_6
    2  A    between atoms: C_5  and  O_6
    3  A    between atoms: C_5  and  C_17
    4  A    between atoms: N_9  and  C_15
    5  A    between atoms: C_14  and  C_19
    6  A    between atoms: N_16  and  C_17
                            x       y       z     vdW  Elec       q    Type
                         _______ _______ _______ _____ _____    ______ ____

>  <TORSDO>
F 6

$$$$
=
 OpenBabel10262420123D

 27 30  0  0  1  0  0  0  0  0999 V2000
  187.4780  177.7410  144.4900 N   0  0  0  0  0  2  0  0  0  0  0  0
  187.4340  178.6280  142.1900 C   0  0  0  0  0  0  0  0  0  0  0  0
  189.7980  178.9060  142.8910 C   0  0  0  0  0  2  0  0  0  0  0  0
  191.4850  177.2390  145.8110 C   0  0  0  0  0  3  0  0  0  0  0  0
  190.4120  176.7040  146.5210 C   0  0  0  0  0  0  0  0  0  0  0  0
  186.8100  178.3280  143.3570 C   0  0  0  0  0  0  0  0  0  0  0  0
  188.8550  177.5940  144.8740 C   0  0  0  0  0  0  0  0  0  0  0  0
  188.8460  178.2490  141.9040 C   0  0  1  0  0  3  0  0  0  0  0  0
  191.2500  177.9510  144.6330 C   0  0  0  0  0  3  0  0  0  0  0  0
  190.6320  176.0130  147.6640 F   0  0  0  0  0  0  0  0  0  0  0  0
  189.1090  176.8850  146.0550 C   0  0  0  0  0  3  0  0  0  0  0  0
  189.9480  178.1320  144.1550 C   0  0  0  0  0  0  0  0  0  0  0  0
  183.3800  179.6390  144.3790 C   0  0  0  0  0  2  0  0  0  0  0  0
  185.3930  178.5040  143.4760 N   0  0  0  0  0  0  0  0  0  0  0  0
  184.5350  177.9150  142.4410 C   0  0  0  0  0  2  0  0  0  0  0  0
  183.1010  178.4350  142.5350 C   0  0  0  0  0  2  0  0  0  0  0  0
  182.7080  178.5170  143.8760 O   0  0  0  0  0  0  0  0  0  0  0  0
  184.8590  179.3130  144.5810 C   0  0  0  0  0  2  0  0  0  0  0  0
  189.6260  176.4760  140.3460 C   0  0  0  0  0  2  0  0  0  0  0  0
  190.5190  176.4410  141.5690 C   0  0  0  0  0  2  0  0  0  0  0  0
  189.0410  176.7440  141.7190 C   0  0  0  0  0  3  0  0  0  0  0  0
  186.7810  179.3160  141.1570 O   0  0  0  0  0  0  0  0  0  0  0  0
  186.1200  178.6680  140.0740 C   0  0  1  0  0  3  0  0  0  0  0  0
  185.1190  179.4980  139.5690 O   0  0  0  0  0  1  0  0  0  0  0  0
  187.1180  178.3610  138.9750 C   0  0  0  0  0  2  0  0  0  0  0  0
  187.1350  178.4220  136.6470 C   0  0  0  0  0  1  0  0  0  0  0  0
  186.4200  177.8900  137.7920 N   0  0  0  0  0  2  0  0  0  0  0  0
  1  7  1  0  0  0  0
  2  6  2  0  0  0  0
  3 12  1  0  0  0  0
  4  5  1  0  0  0  0
  5 10  1  0  0  0  0
  6 14  1  0  0  0  0
  6  1  1  0  0  0  0
  7 11  1  0  0  0  0
  8 21  1  1  0  0  0
  8  2  1  0  0  0  0
  8  3  1  0  0  0  0
  9  4  2  0  0  0  0
 11  5  2  0  0  0  0
 12  9  1  0  0  0  0
 12  7  2  0  0  0  0
 13 18  1  0  0  0  0
 14 18  1  0  0  0  0
 15 16  1  0  0  0  0
 15 14  1  0  0  0  0
 16 17  1  0  0  0  0
 17 13  1  0  0  0  0
 19 20  1  0  0  0  0
 19 21  1  0  0  0  0
 20 21  1  0  0  0  0
 22  2  1  0  0  0  0
 23 24  1  6  0  0  0
 23 22  1  0  0  0  0
 25 23  1  0  0  0  0
 26 27  1  0  0  0  0
 27 25  1  0  0  0  0
M  END
>  <MODEL>
8

>  <REMARK>
 VINA RESULT:      -6.2      3.143      5.902
  Name = 
  6 active torsions:
  status: ('A' for Active; 'I' for Inactive)
    1  A    between atoms: C_2  and  O_6
    2  A    between atoms: C_5  and  O_6
    3  A    between atoms: C_5  and  C_17
    4  A    between atoms: N_9  and  C_15
    5  A    between atoms: C_14  and  C_19
    6  A    between atoms: N_16  and  C_17
                            x       y       z     vdW  Elec       q    Type
                         _______ _______ _______ _____ _____    ______ ____

>  <TORSDO>
F 6

$$$$
=
 OpenBabel10262420123D

 27 30  0  0  1  0  0  0  0  0999 V2000
  191.5240  176.2230  138.6600 N   0  0  0  0  0  2  0  0  0  0  0  0
  189.1940  176.1770  137.8570 C   0  0  0  0  0  0  0  0  0  0  0  0
  190.5430  176.0130  135.7800 C   0  0  0  0  0  2  0  0  0  0  0  0
  194.1910  175.1320  135.5380 C   0  0  0  0  0  3  0  0  0  0  0  0
  194.6170  175.2210  136.8620 C   0  0  0  0  0  0  0  0  0  0  0  0
  190.1190  176.5160  138.7890 C   0  0  0  0  0  0  0  0  0  0  0  0
  192.3710  175.8450  137.5620 C   0  0  0  0  0  0  0  0  0  0  0  0
  189.5090  175.3370  136.6670 C   0  0  1  0  0  3  0  0  0  0  0  0
  192.8590  175.3970  135.2200 C   0  0  0  0  0  3  0  0  0  0  0  0
  195.9100  174.9670  137.1780 F   0  0  0  0  0  0  0  0  0  0  0  0
  193.7130  175.5790  137.8630 C   0  0  0  0  0  3  0  0  0  0  0  0
  191.9430  175.7490  136.2180 C   0  0  0  0  0  0  0  0  0  0  0  0
  188.2540  178.6090  141.3700 C   0  0  0  0  0  2  0  0  0  0  0  0
  189.7060  177.1150  140.0230 N   0  0  0  0  0  0  0  0  0  0  0  0
  190.1280  176.4780  141.2750 C   0  0  0  0  0  2  0  0  0  0  0  0
  189.3710  177.0430  142.4770 C   0  0  0  0  0  2  0  0  0  0  0  0
  189.2380  178.4310  142.3500 O   0  0  0  0  0  0  0  0  0  0  0  0
  188.8290  178.2950  139.9900 C   0  0  0  0  0  2  0  0  0  0  0  0
  188.5800  173.0330  136.7580 C   0  0  0  0  0  2  0  0  0  0  0  0
  189.7250  173.0300  135.7670 C   0  0  0  0  0  2  0  0  0  0  0  0
  189.8100  173.8810  137.0190 C   0  0  0  0  0  3  0  0  0  0  0  0
  187.8570  176.5920  137.9550 O   0  0  0  0  0  0  0  0  0  0  0  0
  186.9110  176.4570  136.8990 C   0  0  1  0  0  3  0  0  0  0  0  0
  186.0320  175.4120  137.1860 O   0  0  0  0  0  1  0  0  0  0  0  0
  186.1260  177.7450  136.7460 C   0  0  0  0  0  2  0  0  0  0  0  0
  184.8410  178.4590  138.5520 C   0  0  0  0  0  1  0  0  0  0  0  0
  186.1750  178.5020  137.9830 N   0  0  0  0  0  2  0  0  0  0  0  0
  1  6  1  0  0  0  0
  2 22  1  0  0  0  0
  2  6  2  0  0  0  0
  3 12  1  0  0  0  0
  3  8  1  0  0  0  0
  4  5  1  0  0  0  0
  5 10  1  0  0  0  0
  5 11  2  0  0  0  0
  6 14  1  0  0  0  0
  7 11  1  0  0  0  0
  7  1  1  0  0  0  0
  8 21  1  1  0  0  0
  8  2  1  0  0  0  0
  9  4  2  0  0  0  0
  9 12  1  0  0  0  0
 12  7  2  0  0  0  0
 13 17  1  0  0  0  0
 14 15  1  0  0  0  0
 15 16  1  0  0  0  0
 17 16  1  0  0  0  0
 18 14  1  0  0  0  0
 18 13  1  0  0  0  0
 19 21  1  0  0  0  0
 20 19  1  0  0  0  0
 20 21  1  0  0  0  0
 23 24  1  1  0  0  0
 23 22  1  0  0  0  0
 25 23  1  0  0  0  0
 25 27  1  0  0  0  0
 27 26  1  0  0  0  0
M  END
>  <MODEL>
9

>  <REMARK>
 VINA RESULT:      -6.1      4.597      7.949
  Name = 
  6 active torsions:
  status: ('A' for Active; 'I' for Inactive)
    1  A    between atoms: C_2  and  O_6
    2  A    between atoms: C_5  and  O_6
    3  A    between atoms: C_5  and  C_17
    4  A    between atoms: N_9  and  C_15
    5  A    between atoms: C_14  and  C_19
    6  A    between atoms: N_16  and  C_17
                            x       y       z     vdW  Elec       q    Type
                         _______ _______ _______ _____ _____    ______ ____

>  <TORSDO>
F 6

$$$$
