=
 OpenBabel10262419513D

 25 29  0  0  1  0  0  0  0  0999 V2000
  187.1250  177.6990  144.2980 C   0  0  0  0  0  0  0  0  0  0  0  0
  188.0510  176.8480  143.4860 C   0  0  0  0  0  0  0  0  0  0  0  0
  188.5160  177.6620  146.2900 C   0  0  0  0  0  3  0  0  0  0  0  0
  185.8730  178.0730  144.1070 C   0  0  0  0  0  0  0  0  0  0  0  0
  183.2580  178.9850  144.2310 C   0  0  0  0  0  3  0  0  0  0  0  0
  189.5880  177.0330  145.4760 C   0  0  0  0  0  3  0  0  0  0  0  0
  185.3810  178.6120  145.2920 C   0  0  0  0  0  0  0  0  0  0  0  0
  184.0700  179.0800  145.3750 C   0  0  0  0  0  3  0  0  0  0  0  0
  190.5140  176.2310  143.3400 C   0  0  0  0  0  0  0  0  0  0  0  0
  191.6760  175.6530  143.9280 N   0  0  0  0  0  1  0  0  0  0  0  0
  188.2230  177.3210  142.0720 C   0  0  0  0  0  2  0  0  0  0  0  0
  183.7570  178.4200  143.0390 C   0  0  0  0  0  3  0  0  0  0  0  0
  187.3760  177.9890  145.6870 C   0  0  0  0  0  0  0  0  0  0  0  0
  186.2270  178.5880  146.2780 N   0  0  0  0  0  0  0  0  0  0  0  0
  190.4590  176.4000  142.0510 N   0  0  0  0  0  0  0  0  0  0  0  0
  185.0790  177.9500  142.9690 C   0  0  0  0  0  3  0  0  0  0  0  0
  189.3450  177.0390  141.3900 C   0  0  0  0  0  0  0  0  0  0  0  0
  189.3990  176.7030  144.1780 C   0  0  0  0  0  0  0  0  0  0  0  0
  189.9640  177.6170  137.4680 C   0  0  1  0  0  3  0  0  0  0  0  0
  189.4750  177.4320  139.9760 C   0  0  0  0  0  0  0  0  0  0  0  0
  190.3990  176.4410  138.7960 S   0  0  0  0  0  0  0  0  0  0  0  0
  189.1150  176.9090  136.4310 C   0  0  0  0  0  1  0  0  0  0  0  0
  188.9320  178.5080  139.5140 N   0  0  0  0  0  0  0  0  0  0  0  0
  189.1730  178.6850  138.1320 C   0  0  0  0  0  0  0  0  0  0  0  0
  188.7530  179.6990  137.5150 O   0  0  0  0  0  0  0  0  0  0  0  0
  1 13  1  0  0  0  0
  2 18  1  0  0  0  0
  2  1  2  0  0  0  0
  4  1  1  0  0  0  0
  4  7  1  0  0  0  0
  5  8  1  0  0  0  0
  6  3  2  0  0  0  0
  7  8  2  0  0  0  0
  7 14  1  0  0  0  0
  9 10  1  0  0  0  0
  9 18  2  0  0  0  0
 11  2  1  0  0  0  0
 12  5  2  0  0  0  0
 13 14  2  0  0  0  0
 13  3  1  0  0  0  0
 15  9  1  0  0  0  0
 16 12  1  0  0  0  0
 16  4  2  0  0  0  0
 17 15  2  0  0  0  0
 17 11  1  0  0  0  0
 18  6  1  0  0  0  0
 19 22  1  6  0  0  0
 19 24  1  0  0  0  0
 19 21  1  0  0  0  0
 20 17  1  0  0  0  0
 21 20  1  0  0  0  0
 23 20  2  0  0  0  0
 24 23  1  0  0  0  0
 25 24  2  0  0  0  0
M  END
>  <MODEL>
1

>  <REMARK>
 VINA RESULT:     -11.3      0.000      0.000
  Name = 
  1 active torsions:
  status: ('A' for Active; 'I' for Inactive)
    1  A    between atoms: C_6  and  C_23
                            x       y       z     vdW  Elec       q    Type
                         _______ _______ _______ _____ _____    ______ ____

>  <TORSDO>
F 1

$$$$
=
 OpenBabel10262419513D

 25 29  0  0  1  0  0  0  0  0999 V2000
  185.3330  178.2450  144.0040 C   0  0  0  0  0  0  0  0  0  0  0  0
  186.5470  177.4350  143.6770 C   0  0  1  0  0  3  0  0  0  0  0  0
  185.9670  178.6300  146.3190 C   0  0  0  0  0  3  0  0  0  0  0  0
  184.1910  178.4260  143.3650 C   0  0  0  0  0  0  0  0  0  0  0  0
  181.6200  178.9920  142.4970 C   0  0  0  0  0  3  0  0  0  0  0  0
  187.3000  178.0570  146.0010 C   0  0  0  0  0  3  0  0  0  0  0  0
  183.2840  179.0310  144.2290 C   0  0  0  0  0  0  0  0  0  0  0  0
  181.9870  179.3280  143.8110 C   0  0  0  0  0  3  0  0  0  0  0  0
  188.9570  177.1360  144.4300 C   0  0  0  0  0  0  0  0  0  0  0  0
  189.8980  176.7910  145.4440 N   0  0  0  0  0  1  0  0  0  0  0  0
  187.1450  177.7550  142.3380 C   0  0  0  0  0  3  0  0  0  0  0  0
  182.5380  178.3610  141.6320 C   0  0  0  0  0  3  0  0  0  0  0  0
  185.0740  178.7290  145.3370 C   0  0  0  0  0  0  0  0  0  0  0  0
  183.7460  179.2360  145.4260 N   0  0  0  0  0  0  0  0  0  0  0  0
  189.3270  177.1420  143.1820 N   0  0  0  0  0  0  0  0  0  0  0  0
  183.8420  178.0650  142.0650 C   0  0  0  0  0  3  0  0  0  0  0  0
  188.4520  177.5450  142.1070 C   0  0  0  0  0  0  0  0  0  0  0  0
  187.5900  177.5530  144.7810 C   0  0  0  0  0  0  0  0  0  0  0  0
  190.3500  177.7710  138.5800 C   0  0  1  0  0  3  0  0  0  0  0  0
  189.0170  177.7810  140.7670 C   0  0  0  0  0  0  0  0  0  0  0  0
  190.4750  176.9080  140.1840 S   0  0  0  0  0  0  0  0  0  0  0  0
  190.0870  176.7540  137.4850 C   0  0  0  0  0  1  0  0  0  0  0  0
  188.4930  178.6260  139.9440 N   0  0  0  0  0  0  0  0  0  0  0  0
  189.1880  178.6860  138.7140 C   0  0  0  0  0  0  0  0  0  0  0  0
  188.8440  179.4830  137.8020 O   0  0  0  0  0  0  0  0  0  0  0  0
  1 13  1  0  0  0  0
  2 11  1  6  0  0  0
  2  1  1  0  0  0  0
  2 18  1  0  0  0  0
  4  1  2  0  0  0  0
  4  7  1  0  0  0  0
  5  8  2  0  0  0  0
  6  3  1  0  0  0  0
  7 14  2  0  0  0  0
  8  7  1  0  0  0  0
  9 18  1  0  0  0  0
  9 10  1  0  0  0  0
 12 16  2  0  0  0  0
 12  5  1  0  0  0  0
 13 14  1  0  0  0  0
 13  3  2  0  0  0  0
 15  9  2  0  0  0  0
 16  4  1  0  0  0  0
 17 11  2  0  0  0  0
 17 15  1  0  0  0  0
 18  6  2  0  0  0  0
 19 22  1  6  0  0  0
 19 24  1  0  0  0  0
 19 21  1  0  0  0  0
 20 17  1  0  0  0  0
 21 20  1  0  0  0  0
 23 20  2  0  0  0  0
 24 23  1  0  0  0  0
 25 24  2  0  0  0  0
M  END
>  <MODEL>
2

>  <REMARK>
 VINA RESULT:     -10.7      1.272      1.899
  Name = 
  1 active torsions:
  status: ('A' for Active; 'I' for Inactive)
    1  A    between atoms: C_6  and  C_23
                            x       y       z     vdW  Elec       q    Type
                         _______ _______ _______ _____ _____    ______ ____

>  <TORSDO>
F 1

$$$$
=
 OpenBabel10262419513D

 25 29  0  0  1  0  0  0  0  0999 V2000
  186.9270  177.9680  145.2160 C   0  0  0  0  0  0  0  0  0  0  0  0
  188.0650  177.0990  144.7810 C   0  0  1  0  0  3  0  0  0  0  0  0
  187.7850  178.3100  147.4640 C   0  0  0  0  0  3  0  0  0  0  0  0
  185.7430  178.2080  144.6820 C   0  0  0  0  0  0  0  0  0  0  0  0
  183.1350  178.9060  144.0490 C   0  0  0  0  0  3  0  0  0  0  0  0
  189.0540  177.6720  147.0270 C   0  0  0  0  0  3  0  0  0  0  0  0
  184.9480  178.8540  145.6240 C   0  0  0  0  0  0  0  0  0  0  0  0
  183.6360  179.2180  145.3250 C   0  0  0  0  0  3  0  0  0  0  0  0
  190.5150  176.6770  145.3140 C   0  0  0  0  0  0  0  0  0  0  0  0
  191.5240  176.2810  146.2380 N   0  0  0  0  0  1  0  0  0  0  0  0
  188.5550  177.3950  143.3930 C   0  0  0  0  0  3  0  0  0  0  0  0
  183.9400  178.2330  143.1050 C   0  0  0  0  0  3  0  0  0  0  0  0
  186.8140  178.4580  146.5660 C   0  0  0  0  0  0  0  0  0  0  0  0
  185.5260  179.0310  146.7740 N   0  0  0  0  0  0  0  0  0  0  0  0
  190.7700  176.6700  144.0380 N   0  0  0  0  0  0  0  0  0  0  0  0
  185.2600  177.8710  143.4190 C   0  0  0  0  0  3  0  0  0  0  0  0
  189.8230  177.1210  143.0450 C   0  0  0  0  0  0  0  0  0  0  0  0
  189.2070  177.1600  145.7860 C   0  0  0  0  0  0  0  0  0  0  0  0
  191.5770  177.6120  139.4710 C   0  0  1  0  0  3  0  0  0  0  0  0
  190.2770  177.3350  141.6600 C   0  0  0  0  0  0  0  0  0  0  0  0
  192.0200  177.3670  141.2250 S   0  0  0  0  0  0  0  0  0  0  0  0
  192.0540  176.4190  138.6640 C   0  0  0  0  0  1  0  0  0  0  0  0
  189.4450  177.5090  140.6890 N   0  0  0  0  0  0  0  0  0  0  0  0
  190.0940  177.6840  139.4440 C   0  0  0  0  0  0  0  0  0  0  0  0
  189.4450  177.9050  138.3880 O   0  0  0  0  0  0  0  0  0  0  0  0
  1 13  1  0  0  0  0
  2 11  1  6  0  0  0
  2  1  1  0  0  0  0
  2 18  1  0  0  0  0
  4  1  2  0  0  0  0
  4  7  1  0  0  0  0
  5  8  2  0  0  0  0
  6  3  1  0  0  0  0
  7 14  2  0  0  0  0
  8  7  1  0  0  0  0
  9 18  1  0  0  0  0
  9 10  1  0  0  0  0
 12 16  2  0  0  0  0
 12  5  1  0  0  0  0
 13 14  1  0  0  0  0
 13  3  2  0  0  0  0
 15  9  2  0  0  0  0
 16  4  1  0  0  0  0
 17 11  2  0  0  0  0
 17 15  1  0  0  0  0
 18  6  2  0  0  0  0
 19 22  1  6  0  0  0
 19 21  1  0  0  0  0
 20 17  1  0  0  0  0
 21 20  1  0  0  0  0
 23 20  2  0  0  0  0
 24 19  1  0  0  0  0
 24 23  1  0  0  0  0
 25 24  2  0  0  0  0
M  END
>  <MODEL>
3

>  <REMARK>
 VINA RESULT:     -10.3      1.449      1.759
  Name = 
  1 active torsions:
  status: ('A' for Active; 'I' for Inactive)
    1  A    between atoms: C_6  and  C_23
                            x       y       z     vdW  Elec       q    Type
                         _______ _______ _______ _____ _____    ______ ____

>  <TORSDO>
F 1

$$$$
=
 OpenBabel10262419513D

 25 29  0  0  1  0  0  0  0  0999 V2000
  188.3640  177.7280  144.1900 C   0  0  0  0  0  0  0  0  0  0  0  0
  188.2510  178.3630  142.8400 C   0  0  0  0  0  0  0  0  0  0  0  0
  186.0160  178.0190  144.7440 C   0  0  0  0  0  3  0  0  0  0  0  0
  189.4090  177.4090  144.9330 C   0  0  0  0  0  0  0  0  0  0  0  0
  191.2420  176.7050  146.8900 C   0  0  0  0  0  3  0  0  0  0  0  0
  185.7800  178.4250  143.3350 C   0  0  0  0  0  3  0  0  0  0  0  0
  188.9720  177.1160  146.2210 C   0  0  0  0  0  0  0  0  0  0  0  0
  189.8760  176.7560  147.2190 C   0  0  0  0  0  3  0  0  0  0  0  0
  186.5290  178.7840  141.0170 C   0  0  0  0  0  0  0  0  0  0  0  0
  185.3050  179.3780  140.5920 N   0  0  0  0  0  1  0  0  0  0  0  0
  189.0150  177.6430  141.7670 C   0  0  0  0  0  2  0  0  0  0  0  0
  191.6800  177.0210  145.5870 C   0  0  0  0  0  3  0  0  0  0  0  0
  187.2490  177.6670  145.1010 C   0  0  0  0  0  0  0  0  0  0  0  0
  187.6910  177.2560  146.3910 N   0  0  0  0  0  0  0  0  0  0  0  0
  187.4010  178.3990  140.1320 N   0  0  0  0  0  0  0  0  0  0  0  0
  190.7590  177.3840  144.5910 C   0  0  0  0  0  3  0  0  0  0  0  0
  188.6320  177.7290  140.4820 C   0  0  0  0  0  0  0  0  0  0  0  0
  186.7910  178.5370  142.4450 C   0  0  0  0  0  0  0  0  0  0  0  0
  190.3240  175.9300  137.3210 C   0  0  1  0  0  3  0  0  0  0  0  0
  189.4320  177.0900  139.4230 C   0  0  0  0  0  0  0  0  0  0  0  0
  188.6710  176.3590  137.9680 S   0  0  0  0  0  0  0  0  0  0  0  0
  190.5670  176.6870  136.0290 C   0  0  0  0  0  1  0  0  0  0  0  0
  190.7190  177.0220  139.4870 N   0  0  0  0  0  0  0  0  0  0  0  0
  191.2840  176.3780  138.3620 C   0  0  0  0  0  0  0  0  0  0  0  0
  192.5250  176.1860  138.2680 O   0  0  0  0  0  0  0  0  0  0  0  0
  1  4  1  0  0  0  0
  1 13  1  0  0  0  0
  2  1  2  0  0  0  0
  3 13  1  0  0  0  0
  4  7  1  0  0  0  0
  5  8  1  0  0  0  0
  6  3  2  0  0  0  0
  7 14  1  0  0  0  0
  7  8  2  0  0  0  0
  9 18  2  0  0  0  0
 10  9  1  0  0  0  0
 11  2  1  0  0  0  0
 12  5  2  0  0  0  0
 13 14  2  0  0  0  0
 15 17  2  0  0  0  0
 15  9  1  0  0  0  0
 16  4  2  0  0  0  0
 16 12  1  0  0  0  0
 17 11  1  0  0  0  0
 18  2  1  0  0  0  0
 18  6  1  0  0  0  0
 19 22  1  6  0  0  0
 19 21  1  0  0  0  0
 19 24  1  0  0  0  0
 20 23  2  0  0  0  0
 20 17  1  0  0  0  0
 21 20  1  0  0  0  0
 24 23  1  0  0  0  0
 25 24  2  0  0  0  0
M  END
>  <MODEL>
4

>  <REMARK>
 VINA RESULT:      -9.9      2.052      4.341
  Name = 
  1 active torsions:
  status: ('A' for Active; 'I' for Inactive)
    1  A    between atoms: C_6  and  C_23
                            x       y       z     vdW  Elec       q    Type
                         _______ _______ _______ _____ _____    ______ ____

>  <TORSDO>
F 1

$$$$
=
 OpenBabel10262419513D

 25 29  0  0  1  0  0  0  0  0999 V2000
  187.7710  177.7210  142.9890 C   0  0  0  0  0  0  0  0  0  0  0  0
  186.6520  178.5460  143.5420 C   0  0  1  0  0  3  0  0  0  0  0  0
  188.5120  176.9120  145.1580 C   0  0  0  0  0  3  0  0  0  0  0  0
  188.3400  177.6860  141.7980 C   0  0  0  0  0  0  0  0  0  0  0  0
  189.9280  177.3480  139.5510 C   0  0  0  0  0  3  0  0  0  0  0  0
  187.2820  177.5000  145.7470 C   0  0  0  0  0  3  0  0  0  0  0  0
  189.5220  176.9580  141.8860 C   0  0  0  0  0  0  0  0  0  0  0  0
  190.3340  176.7720  140.7670 C   0  0  0  0  0  3  0  0  0  0  0  0
  185.1110  178.6470  145.5620 C   0  0  0  0  0  0  0  0  0  0  0  0
  184.9310  178.7810  146.9680 N   0  0  0  0  0  1  0  0  0  0  0  0
  185.3840  178.4570  142.7450 C   0  0  0  0  0  3  0  0  0  0  0  0
  188.7390  178.1010  139.4730 C   0  0  0  0  0  3  0  0  0  0  0  0
  188.6910  177.0120  143.8430 C   0  0  0  0  0  0  0  0  0  0  0  0
  189.7950  176.5300  143.0820 N   0  0  0  0  0  0  0  0  0  0  0  0
  184.1070  178.8550  144.7600 N   0  0  0  0  0  0  0  0  0  0  0  0
  187.9300  178.2820  140.6070 C   0  0  0  0  0  3  0  0  0  0  0  0
  184.1940  178.6730  143.3300 C   0  0  0  0  0  0  0  0  0  0  0  0
  186.4010  178.2070  145.0050 C   0  0  0  0  0  0  0  0  0  0  0  0
  181.1500  178.4570  140.7250 C   0  0  1  0  0  3  0  0  0  0  0  0
  182.9590  178.6670  142.5270 C   0  0  0  0  0  0  0  0  0  0  0  0
  182.9630  178.2400  140.7810 S   0  0  0  0  0  0  0  0  0  0  0  0
  180.4980  177.1280  140.3940 C   0  0  0  0  0  1  0  0  0  0  0  0
  181.8120  178.9680  143.0370 N   0  0  0  0  0  0  0  0  0  0  0  0
  180.7620  178.8890  142.0920 C   0  0  0  0  0  0  0  0  0  0  0  0
  179.5770  179.1850  142.3990 O   0  0  0  0  0  0  0  0  0  0  0  0
  1  2  1  0  0  0  0
  1 13  1  0  0  0  0
  2 11  1  6  0  0  0
  2 18  1  0  0  0  0
  3  6  1  0  0  0  0
  4  7  1  0  0  0  0
  4  1  2  0  0  0  0
  5  8  2  0  0  0  0
  7 14  2  0  0  0  0
  8  7  1  0  0  0  0
  9 10  1  0  0  0  0
 11 17  2  0  0  0  0
 12  5  1  0  0  0  0
 12 16  2  0  0  0  0
 13  3  2  0  0  0  0
 14 13  1  0  0  0  0
 15  9  2  0  0  0  0
 16  4  1  0  0  0  0
 17 15  1  0  0  0  0
 18  9  1  0  0  0  0
 18  6  2  0  0  0  0
 19 22  1  1  0  0  0
 19 21  1  0  0  0  0
 19 24  1  0  0  0  0
 20 23  2  0  0  0  0
 20 17  1  0  0  0  0
 21 20  1  0  0  0  0
 24 25  2  0  0  0  0
 24 23  1  0  0  0  0
M  END
>  <MODEL>
5

>  <REMARK>
 VINA RESULT:      -9.3      3.268      6.450
  Name = 
  1 active torsions:
  status: ('A' for Active; 'I' for Inactive)
    1  A    between atoms: C_6  and  C_23
                            x       y       z     vdW  Elec       q    Type
                         _______ _______ _______ _____ _____    ______ ____

>  <TORSDO>
F 1

$$$$
=
 OpenBabel10262419513D

 25 29  0  0  1  0  0  0  0  0999 V2000
  187.7990  177.7120  143.0080 C   0  0  0  0  0  0  0  0  0  0  0  0
  186.6720  178.5340  143.5520 C   0  0  1  0  0  3  0  0  0  0  0  0
  188.5330  176.9170  145.1840 C   0  0  0  0  0  3  0  0  0  0  0  0
  188.3740  177.6760  141.8200 C   0  0  0  0  0  0  0  0  0  0  0  0
  189.9760  177.3390  139.5820 C   0  0  0  0  0  3  0  0  0  0  0  0
  187.2960  177.5000  145.7640 C   0  0  0  0  0  3  0  0  0  0  0  0
  189.5600  176.9550  141.9170 C   0  0  0  0  0  0  0  0  0  0  0  0
  190.3780  176.7710  140.8030 C   0  0  0  0  0  3  0  0  0  0  0  0
  185.1200  178.6330  145.5630 C   0  0  0  0  0  0  0  0  0  0  0  0
  184.9320  178.7710  146.9680 N   0  0  0  0  0  1  0  0  0  0  0  0
  185.4090  178.4340  142.7480 C   0  0  0  0  0  3  0  0  0  0  0  0
  188.7820  178.0850  139.4950 C   0  0  0  0  0  3  0  0  0  0  0  0
  188.7180  177.0130  143.8690 C   0  0  0  0  0  0  0  0  0  0  0  0
  189.8290  176.5340  143.1160 N   0  0  0  0  0  0  0  0  0  0  0  0
  184.1190  178.8320  144.7550 N   0  0  0  0  0  0  0  0  0  0  0  0
  187.9670  178.2660  140.6240 C   0  0  0  0  0  3  0  0  0  0  0  0
  184.2140  178.6450  143.3260 C   0  0  0  0  0  0  0  0  0  0  0  0
  186.4150  178.1990  145.0140 C   0  0  0  0  0  0  0  0  0  0  0  0
  180.6020  178.7880  141.5860 C   0  0  1  0  0  3  0  0  0  0  0  0
  182.9830  178.6290  142.5170 C   0  0  0  0  0  0  0  0  0  0  0  0
  181.3750  179.0020  143.2270 S   0  0  0  0  0  0  0  0  0  0  0  0
  180.0020  180.1070  141.1410 C   0  0  0  0  0  1  0  0  0  0  0  0
  182.9980  178.3460  141.2580 N   0  0  0  0  0  0  0  0  0  0  0  0
  181.7100  178.3990  140.6760 C   0  0  0  0  0  0  0  0  0  0  0  0
  181.5230  178.1150  139.4640 O   0  0  0  0  0  0  0  0  0  0  0  0
  1  2  1  0  0  0  0
  1 13  1  0  0  0  0
  2 11  1  6  0  0  0
  2 18  1  0  0  0  0
  3  6  1  0  0  0  0
  4  7  1  0  0  0  0
  4  1  2  0  0  0  0
  5  8  2  0  0  0  0
  7 14  2  0  0  0  0
  8  7  1  0  0  0  0
  9 10  1  0  0  0  0
 11 17  2  0  0  0  0
 12  5  1  0  0  0  0
 12 16  2  0  0  0  0
 13  3  2  0  0  0  0
 14 13  1  0  0  0  0
 15  9  2  0  0  0  0
 16  4  1  0  0  0  0
 17 15  1  0  0  0  0
 18  9  1  0  0  0  0
 18  6  2  0  0  0  0
 19 22  1  6  0  0  0
 19 21  1  0  0  0  0
 20 21  1  0  0  0  0
 20 17  1  0  0  0  0
 23 20  2  0  0  0  0
 24 23  1  0  0  0  0
 24 19  1  0  0  0  0
 25 24  2  0  0  0  0
M  END
>  <MODEL>
6

>  <REMARK>
 VINA RESULT:      -9.3      3.279      6.412
  Name = 
  1 active torsions:
  status: ('A' for Active; 'I' for Inactive)
    1  A    between atoms: C_6  and  C_23
                            x       y       z     vdW  Elec       q    Type
                         _______ _______ _______ _____ _____    ______ ____

>  <TORSDO>
F 1

$$$$
=
 OpenBabel10262419513D

 25 29  0  0  1  0  0  0  0  0999 V2000
  185.7120  178.1900  143.8850 C   0  0  0  0  0  0  0  0  0  0  0  0
  184.7090  178.7520  142.9270 C   0  0  0  0  0  0  0  0  0  0  0  0
  184.3740  178.6460  145.8620 C   0  0  0  0  0  3  0  0  0  0  0  0
  186.9810  177.8540  143.7420 C   0  0  0  0  0  0  0  0  0  0  0  0
  189.6550  177.1600  143.9800 C   0  0  0  0  0  3  0  0  0  0  0  0
  183.2420  178.9840  144.9630 C   0  0  0  0  0  3  0  0  0  0  0  0
  187.5400  177.6620  145.0020 C   0  0  0  0  0  0  0  0  0  0  0  0
  188.8810  177.3080  145.1430 C   0  0  0  0  0  3  0  0  0  0  0  0
  182.2080  179.1660  142.7350 C   0  0  0  0  0  0  0  0  0  0  0  0
  181.0250  179.8030  143.2090 N   0  0  0  0  0  1  0  0  0  0  0  0
  184.5340  177.9280  141.6840 C   0  0  0  0  0  2  0  0  0  0  0  0
  189.0870  177.3740  142.7060 C   0  0  0  0  0  3  0  0  0  0  0  0
  185.5180  178.2450  145.3120 C   0  0  0  0  0  0  0  0  0  0  0  0
  186.7200  177.8840  145.9850 N   0  0  0  0  0  0  0  0  0  0  0  0
  182.2410  178.6810  141.5280 N   0  0  0  0  0  0  0  0  0  0  0  0
  187.7350  177.7320  142.5760 C   0  0  0  0  0  3  0  0  0  0  0  0
  183.3770  177.9620  141.0010 C   0  0  0  0  0  0  0  0  0  0  0  0
  183.3730  178.9870  143.6170 C   0  0  0  0  0  0  0  0  0  0  0  0
  183.3970  176.2800  137.3590 C   0  0  1  0  0  3  0  0  0  0  0  0
  183.2380  177.2180  139.7380 C   0  0  0  0  0  0  0  0  0  0  0  0
  184.1280  177.6960  138.2520 S   0  0  0  0  0  0  0  0  0  0  0  0
  184.5010  175.3260  136.9460 C   0  0  0  0  0  1  0  0  0  0  0  0
  182.4690  176.1870  139.6340 N   0  0  0  0  0  0  0  0  0  0  0  0
  182.4940  175.6210  138.3380 C   0  0  0  0  0  0  0  0  0  0  0  0
  181.7770  174.6300  138.0380 O   0  0  0  0  0  0  0  0  0  0  0  0
  1 13  1  0  0  0  0
  2 18  1  0  0  0  0
  2  1  2  0  0  0  0
  4  1  1  0  0  0  0
  4  7  1  0  0  0  0
  5  8  1  0  0  0  0
  6  3  2  0  0  0  0
  7  8  2  0  0  0  0
  7 14  1  0  0  0  0
  9 10  1  0  0  0  0
  9 18  2  0  0  0  0
 11  2  1  0  0  0  0
 12  5  2  0  0  0  0
 13  3  1  0  0  0  0
 13 14  2  0  0  0  0
 15  9  1  0  0  0  0
 16 12  1  0  0  0  0
 16  4  2  0  0  0  0
 17 15  2  0  0  0  0
 17 11  1  0  0  0  0
 18  6  1  0  0  0  0
 19 22  1  1  0  0  0
 19 21  1  0  0  0  0
 19 24  1  0  0  0  0
 20 17  1  0  0  0  0
 21 20  1  0  0  0  0
 23 20  2  0  0  0  0
 24 23  1  0  0  0  0
 25 24  2  0  0  0  0
M  END
>  <MODEL>
7

>  <REMARK>
 VINA RESULT:      -9.0      3.785      5.996
  Name = 
  1 active torsions:
  status: ('A' for Active; 'I' for Inactive)
    1  A    between atoms: C_6  and  C_23
                            x       y       z     vdW  Elec       q    Type
                         _______ _______ _______ _____ _____    ______ ____

>  <TORSDO>
F 1

$$$$
=
 OpenBabel10262419513D

 25 29  0  0  1  0  0  0  0  0999 V2000
  187.8850  177.9740  143.2950 C   0  0  0  0  0  0  0  0  0  0  0  0
  187.4690  178.6240  142.0130 C   0  0  0  0  0  0  0  0  0  0  0  0
  185.6650  178.0400  144.2810 C   0  0  0  0  0  3  0  0  0  0  0  0
  189.0730  177.7350  143.8200 C   0  0  0  0  0  0  0  0  0  0  0  0
  191.2910  177.1590  145.3810 C   0  0  0  0  0  3  0  0  0  0  0  0
  185.1380  178.4530  142.9550 C   0  0  0  0  0  3  0  0  0  0  0  0
  188.9100  177.3770  145.1550 C   0  0  0  0  0  0  0  0  0  0  0  0
  190.0110  177.0800  145.9560 C   0  0  0  0  0  3  0  0  0  0  0  0
  185.4080  178.9260  140.5540 C   0  0  0  0  0  0  0  0  0  0  0  0
  184.0810  179.4150  140.3830 N   0  0  0  0  0  1  0  0  0  0  0  0
  188.0780  177.9980  140.7920 C   0  0  0  0  0  2  0  0  0  0  0  0
  191.4510  177.5400  144.0320 C   0  0  0  0  0  3  0  0  0  0  0  0
  186.9680  177.7940  144.3910 C   0  0  0  0  0  0  0  0  0  0  0  0
  187.6760  177.3970  145.5630 N   0  0  0  0  0  0  0  0  0  0  0  0
  186.1310  178.6390  139.5100 N   0  0  0  0  0  0  0  0  0  0  0  0
  190.3340  177.8400  143.2360 C   0  0  0  0  0  3  0  0  0  0  0  0
  187.4570  178.0750  139.6030 C   0  0  0  0  0  0  0  0  0  0  0  0
  185.9520  178.6740  141.8990 C   0  0  0  0  0  0  0  0  0  0  0  0
  189.5780  177.0140  136.3680 C   0  0  1  0  0  3  0  0  0  0  0  0
  188.0970  177.5330  138.3930 C   0  0  0  0  0  0  0  0  0  0  0  0
  189.5030  178.3420  137.6180 S   0  0  0  0  0  0  0  0  0  0  0  0
  190.8930  176.2720  136.5050 C   0  0  0  0  0  1  0  0  0  0  0  0
  187.6820  176.4500  137.8270 N   0  0  0  0  0  0  0  0  0  0  0  0
  188.4450  176.1070  136.6870 C   0  0  0  0  0  0  0  0  0  0  0  0
  188.1630  175.1010  135.9840 O   0  0  0  0  0  0  0  0  0  0  0  0
  1  4  1  0  0  0  0
  1 13  1  0  0  0  0
  2  1  2  0  0  0  0
  3 13  1  0  0  0  0
  4  7  1  0  0  0  0
  5  8  1  0  0  0  0
  6  3  2  0  0  0  0
  7 14  1  0  0  0  0
  7  8  2  0  0  0  0
  9 18  2  0  0  0  0
 10  9  1  0  0  0  0
 11  2  1  0  0  0  0
 12  5  2  0  0  0  0
 13 14  2  0  0  0  0
 15 17  2  0  0  0  0
 15  9  1  0  0  0  0
 16  4  2  0  0  0  0
 16 12  1  0  0  0  0
 17 11  1  0  0  0  0
 18  2  1  0  0  0  0
 18  6  1  0  0  0  0
 19 22  1  1  0  0  0
 19 24  1  0  0  0  0
 19 21  1  0  0  0  0
 20 17  1  0  0  0  0
 21 20  1  0  0  0  0
 23 20  2  0  0  0  0
 24 23  1  0  0  0  0
 25 24  2  0  0  0  0
M  END
>  <MODEL>
8

>  <REMARK>
 VINA RESULT:      -9.0      2.188      4.558
  Name = 
  1 active torsions:
  status: ('A' for Active; 'I' for Inactive)
    1  A    between atoms: C_6  and  C_23
                            x       y       z     vdW  Elec       q    Type
                         _______ _______ _______ _____ _____    ______ ____

>  <TORSDO>
F 1

$$$$
=
 OpenBabel10262419513D

 25 29  0  0  1  0  0  0  0  0999 V2000
  187.9300  177.8280  145.1340 C   0  0  0  0  0  0  0  0  0  0  0  0
  187.2900  178.6690  144.0740 C   0  0  0  0  0  0  0  0  0  0  0  0
  185.9200  177.6520  146.4880 C   0  0  0  0  0  3  0  0  0  0  0  0
  189.1930  177.5450  145.3950 C   0  0  0  0  0  0  0  0  0  0  0  0
  191.6560  176.7910  146.4230 C   0  0  0  0  0  3  0  0  0  0  0  0
  185.1640  178.2620  145.3650 C   0  0  0  0  0  3  0  0  0  0  0  0
  189.2710  176.9630  146.6570 C   0  0  0  0  0  0  0  0  0  0  0  0
  190.4990  176.5740  147.1910 C   0  0  0  0  0  3  0  0  0  0  0  0
  185.0020  179.1400  143.0710 C   0  0  0  0  0  0  0  0  0  0  0  0
  183.6640  179.6050  143.2200 N   0  0  0  0  0  1  0  0  0  0  0  0
  187.6750  178.2770  142.6770 C   0  0  0  0  0  2  0  0  0  0  0  0
  191.5720  177.3980  145.1530 C   0  0  0  0  0  3  0  0  0  0  0  0
  187.2240  177.4350  146.3260 C   0  0  0  0  0  0  0  0  0  0  0  0
  188.1300  176.8720  147.2710 N   0  0  0  0  0  0  0  0  0  0  0  0
  185.5280  179.0570  141.8830 N   0  0  0  0  0  0  0  0  0  0  0  0
  190.3300  177.7890  144.6260 C   0  0  0  0  0  3  0  0  0  0  0  0
  186.8520  178.5310  141.6460 C   0  0  0  0  0  0  0  0  0  0  0  0
  185.7770  178.6850  144.2370 C   0  0  0  0  0  0  0  0  0  0  0  0
  188.4500  177.4650  138.1240 C   0  0  1  0  0  3  0  0  0  0  0  0
  187.2690  178.2220  140.2680 C   0  0  0  0  0  0  0  0  0  0  0  0
  188.8770  177.5070  139.9000 S   0  0  0  0  0  0  0  0  0  0  0  0
  188.4120  176.0240  137.6540 C   0  0  0  0  0  1  0  0  0  0  0  0
  186.5020  178.4490  139.2550 N   0  0  0  0  0  0  0  0  0  0  0  0
  187.0960  178.0680  138.0300 C   0  0  0  0  0  0  0  0  0  0  0  0
  186.5110  178.2490  136.9300 O   0  0  0  0  0  0  0  0  0  0  0  0
  1  4  1  0  0  0  0
  1 13  1  0  0  0  0
  2 18  1  0  0  0  0
  2  1  2  0  0  0  0
  4  7  1  0  0  0  0
  5  8  1  0  0  0  0
  6  3  2  0  0  0  0
  7  8  2  0  0  0  0
  7 14  1  0  0  0  0
  9 10  1  0  0  0  0
  9 18  2  0  0  0  0
 11  2  1  0  0  0  0
 12  5  2  0  0  0  0
 13  3  1  0  0  0  0
 13 14  2  0  0  0  0
 15  9  1  0  0  0  0
 16 12  1  0  0  0  0
 16  4  2  0  0  0  0
 17 15  2  0  0  0  0
 17 11  1  0  0  0  0
 18  6  1  0  0  0  0
 19 22  1  1  0  0  0
 19 21  1  0  0  0  0
 20 17  1  0  0  0  0
 21 20  1  0  0  0  0
 23 20  2  0  0  0  0
 24 19  1  0  0  0  0
 24 23  1  0  0  0  0
 25 24  2  0  0  0  0
M  END
>  <MODEL>
9

>  <REMARK>
 VINA RESULT:      -8.9      2.200      4.535
  Name = 
  1 active torsions:
  status: ('A' for Active; 'I' for Inactive)
    1  A    between atoms: C_6  and  C_23
                            x       y       z     vdW  Elec       q    Type
                         _______ _______ _______ _____ _____    ______ ____

>  <TORSDO>
F 1

$$$$
