=
 OpenBabel10262421523D

 30 33  0  0  1  0  0  0  0  0999 V2000
  186.1560  177.8310  142.6980 C   0  0  0  0  0  3  0  0  0  0  0  0
  183.8390  178.4580  142.2900 C   0  0  0  0  0  0  0  0  0  0  0  0
  185.6810  178.5230  146.8280 C   0  0  0  0  0  3  0  0  0  0  0  0
  187.2350  177.6260  143.5580 C   0  0  0  0  0  0  0  0  0  0  0  0
  186.7540  178.3230  147.6980 C   0  0  0  0  0  3  0  0  0  0  0  0
  182.6020  178.8840  142.7800 C   0  0  0  0  0  3  0  0  0  0  0  0
  183.9880  178.2280  140.8920 N   0  0  0  0  0  1  0  0  0  0  0  0
  185.8230  178.2970  145.4470 C   0  0  0  0  0  0  0  0  0  0  0  0
  182.4270  179.1190  144.1440 C   0  0  0  0  0  3  0  0  0  0  0  0
  184.9160  178.2610  143.1760 C   0  0  0  0  0  0  0  0  0  0  0  0
  187.0770  177.8600  144.9430 C   0  0  0  0  0  0  0  0  0  0  0  0
  187.9840  177.8940  147.2020 C   0  0  0  0  0  3  0  0  0  0  0  0
  188.1440  177.6640  145.8350 C   0  0  0  0  0  3  0  0  0  0  0  0
  183.4890  178.9270  145.0300 C   0  0  0  0  0  3  0  0  0  0  0  0
  184.7420  178.4970  144.5620 C   0  0  0  0  0  0  0  0  0  0  0  0
  188.5310  177.1660  142.9400 C   0  0  1  0  0  3  0  0  0  0  0  0
  190.3610  178.6650  142.5290 O   0  0  0  0  0  1  0  0  0  0  0  0
  189.1360  178.2290  142.0190 C   0  0  1  0  0  3  0  0  0  0  0  0
  188.3310  177.5730  139.7420 N   0  0  0  0  0  0  0  0  0  0  0  0
  190.7680  177.0880  140.0180 S   0  0  0  0  0  0  0  0  0  0  0  0
  189.3320  177.6960  140.6350 C   0  0  0  0  0  0  0  0  0  0  0  0
  188.7500  177.0060  138.5780 C   0  0  0  0  0  3  0  0  0  0  0  0
  190.1000  176.6570  138.5320 C   0  0  0  0  0  3  0  0  0  0  0  0
  189.4440  176.7950  143.9330 O   0  0  0  0  0  0  0  0  0  0  0  0
  190.1870  175.7510  143.3710 C   0  0  0  0  0  2  0  0  0  0  0  0
  191.5550  175.6780  144.0250 C   0  0  0  0  0  2  0  0  0  0  0  0
  191.7130  176.7950  145.0400 C   0  0  0  0  0  2  0  0  0  0  0  0
  191.6200  176.9660  147.5230 O   0  0  0  0  0  1  0  0  0  0  0  0
  191.9370  176.2240  146.3940 C   0  0  0  0  0  0  0  0  0  0  0  0
  192.3820  175.0540  146.5160 O   0  0  0  0  0  0  0  0  0  0  0  0
  1 10  2  0  0  0  0
  1  4  1  0  0  0  0
  2  6  2  0  0  0  0
  2 10  1  0  0  0  0
  3  5  2  0  0  0  0
  4 11  2  0  0  0  0
  6  9  1  0  0  0  0
  7  2  1  0  0  0  0
  8  3  1  0  0  0  0
  9 14  2  0  0  0  0
 10 15  1  0  0  0  0
 11  8  1  0  0  0  0
 11 13  1  0  0  0  0
 12  5  1  0  0  0  0
 13 12  2  0  0  0  0
 15 14  1  0  0  0  0
 15  8  2  0  0  0  0
 16  4  1  0  0  0  0
 16 24  1  1  0  0  0
 18 17  1  1  0  0  0
 18 16  1  0  0  0  0
 19 21  2  0  0  0  0
 20 21  1  0  0  0  0
 21 18  1  0  0  0  0
 22 19  1  0  0  0  0
 23 22  2  0  0  0  0
 23 20  1  0  0  0  0
 25 24  1  0  0  0  0
 25 26  1  0  0  0  0
 26 27  1  0  0  0  0
 27 29  1  0  0  0  0
 29 30  2  0  0  0  0
 29 28  1  0  0  0  0
M  END
>  <MODEL>
1

>  <REMARK>
 VINA RESULT:      -9.5      0.000      0.000
  Name = 
  8 active torsions:
  status: ('A' for Active; 'I' for Inactive)
    1  A    between atoms: C_4  and  C_13
    2  A    between atoms: C_7  and  C_15
    3  A    between atoms: C_7  and  C_16
    4  A    between atoms: C_8  and  C_12
    5  A    between atoms: C_8  and  C_13
    6  A    between atoms: C_13  and  O_27
    7  A    between atoms: C_16  and  C_30
    8  A    between atoms: O_27  and  C_30
                            x       y       z     vdW  Elec       q    Type
                         _______ _______ _______ _____ _____    ______ ____

>  <TORSDO>
F 8

$$$$
=
 OpenBabel10262421523D

 30 33  0  0  1  0  0  0  0  0999 V2000
  185.4000  178.0400  142.0730 C   0  0  0  0  0  3  0  0  0  0  0  0
  183.0910  178.5180  141.4680 C   0  0  0  0  0  0  0  0  0  0  0  0
  184.5240  178.6550  146.1490 C   0  0  0  0  0  3  0  0  0  0  0  0
  186.4120  177.8980  143.0230 C   0  0  0  0  0  0  0  0  0  0  0  0
  185.5290  178.5170  147.1080 C   0  0  0  0  0  3  0  0  0  0  0  0
  181.7910  178.8560  141.8510 C   0  0  0  0  0  3  0  0  0  0  0  0
  183.3750  178.3130  140.0870 N   0  0  0  0  0  1  0  0  0  0  0  0
  184.8010  178.4540  144.7850 C   0  0  0  0  0  0  0  0  0  0  0  0
  181.4820  179.0640  143.1950 C   0  0  0  0  0  3  0  0  0  0  0  0
  184.0970  178.3830  142.4440 C   0  0  0  0  0  0  0  0  0  0  0  0
  186.1200  178.1060  144.3900 C   0  0  0  0  0  0  0  0  0  0  0  0
  186.8240  178.1750  146.7190 C   0  0  0  0  0  3  0  0  0  0  0  0
  187.1160  177.9720  145.3700 C   0  0  0  0  0  3  0  0  0  0  0  0
  182.4740  178.9330  144.1690 C   0  0  0  0  0  3  0  0  0  0  0  0
  183.7890  178.5920  143.8100 C   0  0  0  0  0  0  0  0  0  0  0  0
  187.7840  177.5310  142.5170 C   0  0  1  0  0  3  0  0  0  0  0  0
  189.6160  179.0200  142.0790 O   0  0  0  0  0  1  0  0  0  0  0  0
  188.3670  178.6120  141.6030 C   0  0  1  0  0  3  0  0  0  0  0  0
  187.5590  178.2960  139.2570 N   0  0  0  0  0  0  0  0  0  0  0  0
  189.7760  177.1960  139.6090 S   0  0  0  0  0  0  0  0  0  0  0  0
  188.5040  178.1170  140.2000 C   0  0  0  0  0  0  0  0  0  0  0  0
  187.8890  177.6990  138.0790 C   0  0  0  0  0  3  0  0  0  0  0  0
  189.1090  177.0230  138.0710 C   0  0  0  0  0  3  0  0  0  0  0  0
  188.6470  177.2700  143.5870 O   0  0  0  0  0  0  0  0  0  0  0  0
  189.3490  176.1190  143.2140 C   0  0  0  0  0  2  0  0  0  0  0  0
  190.7170  176.1080  143.8740 C   0  0  0  0  0  2  0  0  0  0  0  0
  190.8500  177.2840  144.8240 C   0  0  0  0  0  2  0  0  0  0  0  0
  189.9630  176.6420  147.0610 O   0  0  0  0  0  1  0  0  0  0  0  0
  191.0520  176.7950  146.2130 C   0  0  0  0  0  0  0  0  0  0  0  0
  192.2050  176.4860  146.6100 O   0  0  0  0  0  0  0  0  0  0  0  0
  1 10  2  0  0  0  0
  1  4  1  0  0  0  0
  2  6  2  0  0  0  0
  2 10  1  0  0  0  0
  3  5  2  0  0  0  0
  4 11  2  0  0  0  0
  6  9  1  0  0  0  0
  7  2  1  0  0  0  0
  8  3  1  0  0  0  0
  9 14  2  0  0  0  0
 10 15  1  0  0  0  0
 11  8  1  0  0  0  0
 11 13  1  0  0  0  0
 12  5  1  0  0  0  0
 13 12  2  0  0  0  0
 15 14  1  0  0  0  0
 15  8  2  0  0  0  0
 16  4  1  0  0  0  0
 16 24  1  1  0  0  0
 18 17  1  1  0  0  0
 18 16  1  0  0  0  0
 19 21  2  0  0  0  0
 20 21  1  0  0  0  0
 21 18  1  0  0  0  0
 22 19  1  0  0  0  0
 23 22  2  0  0  0  0
 23 20  1  0  0  0  0
 25 24  1  0  0  0  0
 25 26  1  0  0  0  0
 26 27  1  0  0  0  0
 27 29  1  0  0  0  0
 29 30  2  0  0  0  0
 29 28  1  0  0  0  0
M  END
>  <MODEL>
2

>  <REMARK>
 VINA RESULT:      -9.1      0.995      1.165
  Name = 
  8 active torsions:
  status: ('A' for Active; 'I' for Inactive)
    1  A    between atoms: C_4  and  C_13
    2  A    between atoms: C_7  and  C_15
    3  A    between atoms: C_7  and  C_16
    4  A    between atoms: C_8  and  C_12
    5  A    between atoms: C_8  and  C_13
    6  A    between atoms: C_13  and  O_27
    7  A    between atoms: C_16  and  C_30
    8  A    between atoms: O_27  and  C_30
                            x       y       z     vdW  Elec       q    Type
                         _______ _______ _______ _____ _____    ______ ____

>  <TORSDO>
F 8

$$$$
=
 OpenBabel10262421523D

 30 33  0  0  1  0  0  0  0  0999 V2000
  185.4120  178.1860  142.1440 C   0  0  0  0  0  3  0  0  0  0  0  0
  183.1010  178.5600  141.4740 C   0  0  0  0  0  0  0  0  0  0  0  0
  184.3750  178.6590  146.2010 C   0  0  0  0  0  3  0  0  0  0  0  0
  186.3990  178.0720  143.1240 C   0  0  0  0  0  0  0  0  0  0  0  0
  185.3540  178.5490  147.1900 C   0  0  0  0  0  3  0  0  0  0  0  0
  181.7740  178.8230  141.8200 C   0  0  0  0  0  3  0  0  0  0  0  0
  183.4400  178.4030  140.0980 N   0  0  0  0  0  1  0  0  0  0  0  0
  184.7050  178.5040  144.8430 C   0  0  0  0  0  0  0  0  0  0  0  0
  181.4120  178.9830  143.1570 C   0  0  0  0  0  3  0  0  0  0  0  0
  184.0820  178.4530  142.4790 C   0  0  0  0  0  0  0  0  0  0  0  0
  186.0520  178.2330  144.4840 C   0  0  0  0  0  0  0  0  0  0  0  0
  186.6760  178.2830  146.8370 C   0  0  0  0  0  3  0  0  0  0  0  0
  187.0220  178.1260  145.4940 C   0  0  0  0  0  3  0  0  0  0  0  0
  182.3770  178.8790  144.1610 C   0  0  0  0  0  3  0  0  0  0  0  0
  183.7190  178.6140  143.8380 C   0  0  0  0  0  0  0  0  0  0  0  0
  187.8030  177.7880  142.6560 C   0  0  1  0  0  3  0  0  0  0  0  0
  188.6620  175.5470  142.7350 O   0  0  0  0  0  1  0  0  0  0  0  0
  188.4800  176.7030  143.4980 C   0  0  1  0  0  3  0  0  0  0  0  0
  190.4310  176.5910  145.0600 N   0  0  0  0  0  0  0  0  0  0  0  0
  190.6460  178.5130  143.4770 S   0  0  0  0  0  0  0  0  0  0  0  0
  189.8010  177.1700  144.0200 C   0  0  0  0  0  0  0  0  0  0  0  0
  191.5850  177.2360  145.3840 C   0  0  0  0  0  3  0  0  0  0  0  0
  191.8870  178.3530  144.6050 C   0  0  0  0  0  3  0  0  0  0  0  0
  187.8080  177.4380  141.3020 O   0  0  0  0  0  0  0  0  0  0  0  0
  188.5630  178.4320  140.6720 C   0  0  0  0  0  2  0  0  0  0  0  0
  189.5310  177.8020  139.6850 C   0  0  0  0  0  2  0  0  0  0  0  0
  188.7970  177.3860  138.4230 C   0  0  0  0  0  2  0  0  0  0  0  0
  186.8540  178.7040  137.5910 O   0  0  0  0  0  1  0  0  0  0  0  0
  188.2280  178.5820  137.7480 C   0  0  0  0  0  0  0  0  0  0  0  0
  188.9900  179.5010  137.3510 O   0  0  0  0  0  0  0  0  0  0  0  0
  1 10  2  0  0  0  0
  1  4  1  0  0  0  0
  2  6  2  0  0  0  0
  2 10  1  0  0  0  0
  3  5  2  0  0  0  0
  4 11  2  0  0  0  0
  6  9  1  0  0  0  0
  7  2  1  0  0  0  0
  8  3  1  0  0  0  0
  9 14  2  0  0  0  0
 10 15  1  0  0  0  0
 11  8  1  0  0  0  0
 11 13  1  0  0  0  0
 12  5  1  0  0  0  0
 13 12  2  0  0  0  0
 15 14  1  0  0  0  0
 15  8  2  0  0  0  0
 16 24  1  6  0  0  0
 16  4  1  0  0  0  0
 16 18  1  0  0  0  0
 18 17  1  6  0  0  0
 18 21  1  0  0  0  0
 19 22  1  0  0  0  0
 20 21  1  0  0  0  0
 20 23  1  0  0  0  0
 21 19  2  0  0  0  0
 23 22  2  0  0  0  0
 25 24  1  0  0  0  0
 26 25  1  0  0  0  0
 27 26  1  0  0  0  0
 28 29  1  0  0  0  0
 29 27  1  0  0  0  0
 30 29  2  0  0  0  0
M  END
>  <MODEL>
3

>  <REMARK>
 VINA RESULT:      -8.8      2.255      4.620
  Name = 
  8 active torsions:
  status: ('A' for Active; 'I' for Inactive)
    1  A    between atoms: C_4  and  C_13
    2  A    between atoms: C_7  and  C_15
    3  A    between atoms: C_7  and  C_16
    4  A    between atoms: C_8  and  C_12
    5  A    between atoms: C_8  and  C_13
    6  A    between atoms: C_13  and  O_27
    7  A    between atoms: C_16  and  C_30
    8  A    between atoms: O_27  and  C_30
                            x       y       z     vdW  Elec       q    Type
                         _______ _______ _______ _____ _____    ______ ____

>  <TORSDO>
F 8

$$$$
=
 OpenBabel10262421523D

 30 33  0  0  1  0  0  0  0  0999 V2000
  188.9030  177.4620  143.5250 C   0  0  0  0  0  3  0  0  0  0  0  0
  190.7990  176.9150  144.9500 C   0  0  0  0  0  0  0  0  0  0  0  0
  186.4420  178.0040  146.9020 C   0  0  0  0  0  3  0  0  0  0  0  0
  187.5660  177.8230  143.3510 C   0  0  0  0  0  0  0  0  0  0  0  0
  185.1030  178.3640  146.7400 C   0  0  0  0  0  3  0  0  0  0  0  0
  191.3330  176.7360  146.2290 C   0  0  0  0  0  3  0  0  0  0  0  0
  191.6410  176.7280  143.8160 N   0  0  0  0  0  1  0  0  0  0  0  0
  187.2760  177.8190  145.7850 C   0  0  0  0  0  0  0  0  0  0  0  0
  190.5340  176.9110  147.3580 C   0  0  0  0  0  3  0  0  0  0  0  0
  189.4470  177.2760  144.7980 C   0  0  0  0  0  0  0  0  0  0  0  0
  186.7400  178.0030  144.4820 C   0  0  0  0  0  0  0  0  0  0  0  0
  184.5770  178.5440  145.4610 C   0  0  0  0  0  3  0  0  0  0  0  0
  185.3910  178.3650  144.3420 C   0  0  0  0  0  3  0  0  0  0  0  0
  189.1910  177.2680  147.2170 C   0  0  0  0  0  3  0  0  0  0  0  0
  188.6310  177.4550  145.9420 C   0  0  0  0  0  0  0  0  0  0  0  0
  187.0780  177.9930  141.9350 C   0  0  1  0  0  3  0  0  0  0  0  0
  186.1420  180.2010  141.8260 O   0  0  0  0  0  1  0  0  0  0  0  0
  185.8080  178.8450  141.8630 C   0  0  1  0  0  3  0  0  0  0  0  0
  185.3390  178.8460  139.4050 N   0  0  0  0  0  0  0  0  0  0  0  0
  183.5020  177.7270  140.6790 S   0  0  0  0  0  0  0  0  0  0  0  0
  184.9920  178.4980  140.6600 C   0  0  0  0  0  0  0  0  0  0  0  0
  184.4040  178.4700  138.4910 C   0  0  0  0  0  3  0  0  0  0  0  0
  183.2840  177.8210  139.0110 C   0  0  0  0  0  3  0  0  0  0  0  0
  188.0850  178.5380  141.1310 O   0  0  0  0  0  0  0  0  0  0  0  0
  188.4520  177.5080  140.2590 C   0  0  0  0  0  2  0  0  0  0  0  0
  189.7780  177.8350  139.5960 C   0  0  0  0  0  2  0  0  0  0  0  0
  189.6860  177.6050  138.0980 C   0  0  0  0  0  2  0  0  0  0  0  0
  187.5760  178.1280  136.8830 O   0  0  0  0  0  0  0  0  0  0  0  0
  188.7400  178.5780  137.4920 C   0  0  0  0  0  0  0  0  0  0  0  0
  188.9760  179.8110  137.5610 O   0  0  0  0  0  1  0  0  0  0  0  0
  1 10  1  0  0  0  0
  2  6  1  0  0  0  0
  4  1  2  0  0  0  0
  4 11  1  0  0  0  0
  5  3  1  0  0  0  0
  6  9  2  0  0  0  0
  7  2  1  0  0  0  0
  8 15  1  0  0  0  0
  8  3  2  0  0  0  0
 10  2  2  0  0  0  0
 10 15  1  0  0  0  0
 11  8  1  0  0  0  0
 12  5  2  0  0  0  0
 13 11  2  0  0  0  0
 13 12  1  0  0  0  0
 14  9  1  0  0  0  0
 15 14  2  0  0  0  0
 16 24  1  6  0  0  0
 16  4  1  0  0  0  0
 18 17  1  6  0  0  0
 18 16  1  0  0  0  0
 19 21  2  0  0  0  0
 21 20  1  0  0  0  0
 21 18  1  0  0  0  0
 22 23  2  0  0  0  0
 22 19  1  0  0  0  0
 23 20  1  0  0  0  0
 25 24  1  0  0  0  0
 26 25  1  0  0  0  0
 27 26  1  0  0  0  0
 28 29  2  0  0  0  0
 29 30  1  0  0  0  0
 29 27  1  0  0  0  0
M  END
>  <MODEL>
4

>  <REMARK>
 VINA RESULT:      -8.7      2.894      5.951
  Name = 
  8 active torsions:
  status: ('A' for Active; 'I' for Inactive)
    1  A    between atoms: C_4  and  C_13
    2  A    between atoms: C_7  and  C_15
    3  A    between atoms: C_7  and  C_16
    4  A    between atoms: C_8  and  C_12
    5  A    between atoms: C_8  and  C_13
    6  A    between atoms: C_13  and  O_27
    7  A    between atoms: C_16  and  C_30
    8  A    between atoms: O_27  and  C_30
                            x       y       z     vdW  Elec       q    Type
                         _______ _______ _______ _____ _____    ______ ____

>  <TORSDO>
F 8

$$$$
=
 OpenBabel10262421523D

 30 33  0  0  1  0  0  0  0  0999 V2000
  189.1780  177.3270  144.0240 C   0  0  0  0  0  3  0  0  0  0  0  0
  189.9040  177.1660  146.3420 C   0  0  0  0  0  0  0  0  0  0  0  0
  185.2610  178.2760  145.2520 C   0  0  0  0  0  3  0  0  0  0  0  0
  188.1940  177.5600  143.0630 C   0  0  0  0  0  0  0  0  0  0  0  0
  184.2670  178.5100  144.3000 C   0  0  0  0  0  3  0  0  0  0  0  0
  189.6100  177.2490  147.7050 C   0  0  0  0  0  3  0  0  0  0  0  0
  191.2320  176.8440  145.9380 N   0  0  0  0  0  1  0  0  0  0  0  0
  186.5730  177.9580  144.8580 C   0  0  0  0  0  0  0  0  0  0  0  0
  188.3190  177.5610  148.1300 C   0  0  0  0  0  3  0  0  0  0  0  0
  188.8940  177.4020  145.3890 C   0  0  0  0  0  0  0  0  0  0  0  0
  186.8790  177.8760  143.4730 C   0  0  0  0  0  0  0  0  0  0  0  0
  184.5690  178.4300  142.9410 C   0  0  0  0  0  3  0  0  0  0  0  0
  185.8660  178.1150  142.5320 C   0  0  0  0  0  3  0  0  0  0  0  0
  187.3100  177.7960  147.1930 C   0  0  0  0  0  3  0  0  0  0  0  0
  187.5820  177.7210  145.8160 C   0  0  0  0  0  0  0  0  0  0  0  0
  188.6040  177.4480  141.6160 C   0  0  1  0  0  3  0  0  0  0  0  0
  188.2930  179.7710  141.0940 O   0  0  0  0  0  1  0  0  0  0  0  0
  187.8940  178.4810  140.7370 C   0  0  1  0  0  3  0  0  0  0  0  0
  189.0020  179.0400  138.5640 N   0  0  0  0  0  0  0  0  0  0  0  0
  187.4920  177.0620  138.3300 S   0  0  0  0  0  0  0  0  0  0  0  0
  188.1860  178.2500  139.2890 C   0  0  0  0  0  0  0  0  0  0  0  0
  189.0570  178.6600  137.2580 C   0  0  0  0  0  3  0  0  0  0  0  0
  188.2720  177.5580  136.9210 C   0  0  0  0  0  3  0  0  0  0  0  0
  189.9920  177.5620  141.4900 O   0  0  0  0  0  0  0  0  0  0  0  0
  190.3810  176.4520  140.7330 C   0  0  0  0  0  2  0  0  0  0  0  0
  191.4400  176.8560  139.7230 C   0  0  0  0  0  2  0  0  0  0  0  0
  191.3460  175.9810  138.4860 C   0  0  0  0  0  2  0  0  0  0  0  0
  192.3270  176.0760  136.1990 O   0  0  0  0  0  0  0  0  0  0  0  0
  192.4730  176.2810  137.5640 C   0  0  0  0  0  0  0  0  0  0  0  0
  193.5460  176.7540  138.0180 O   0  0  0  0  0  1  0  0  0  0  0  0
  1 10  1  0  0  0  0
  2  6  1  0  0  0  0
  4 11  1  0  0  0  0
  4  1  2  0  0  0  0
  5  3  2  0  0  0  0
  6  9  2  0  0  0  0
  7  2  1  0  0  0  0
  8  3  1  0  0  0  0
  8 15  1  0  0  0  0
 10 15  1  0  0  0  0
 10  2  2  0  0  0  0
 11  8  2  0  0  0  0
 12  5  1  0  0  0  0
 13 12  2  0  0  0  0
 13 11  1  0  0  0  0
 14  9  1  0  0  0  0
 15 14  2  0  0  0  0
 16 24  1  1  0  0  0
 16  4  1  0  0  0  0
 18 17  1  1  0  0  0
 18 16  1  0  0  0  0
 19 21  2  0  0  0  0
 20 21  1  0  0  0  0
 21 18  1  0  0  0  0
 22 19  1  0  0  0  0
 23 22  2  0  0  0  0
 23 20  1  0  0  0  0
 25 24  1  0  0  0  0
 26 25  1  0  0  0  0
 27 26  1  0  0  0  0
 28 29  2  0  0  0  0
 29 30  1  0  0  0  0
 29 27  1  0  0  0  0
M  END
>  <MODEL>
5

>  <REMARK>
 VINA RESULT:      -8.6      2.591      5.182
  Name = 
  8 active torsions:
  status: ('A' for Active; 'I' for Inactive)
    1  A    between atoms: C_4  and  C_13
    2  A    between atoms: C_7  and  C_15
    3  A    between atoms: C_7  and  C_16
    4  A    between atoms: C_8  and  C_12
    5  A    between atoms: C_8  and  C_13
    6  A    between atoms: C_13  and  O_27
    7  A    between atoms: C_16  and  C_30
    8  A    between atoms: O_27  and  C_30
                            x       y       z     vdW  Elec       q    Type
                         _______ _______ _______ _____ _____    ______ ____

>  <TORSDO>
F 8

$$$$
=
 OpenBabel10262421523D

 30 33  0  0  1  0  0  0  0  0999 V2000
  186.7710  178.1260  144.5040 C   0  0  0  0  0  3  0  0  0  0  0  0
  186.4860  178.2050  146.9210 C   0  0  0  0  0  0  0  0  0  0  0  0
  190.7280  176.7510  144.9540 C   0  0  0  0  0  3  0  0  0  0  0  0
  187.5410  177.8660  143.3700 C   0  0  0  0  0  0  0  0  0  0  0  0
  191.5090  176.4890  143.8270 C   0  0  0  0  0  3  0  0  0  0  0  0
  187.0070  178.0100  148.2020 C   0  0  0  0  0  3  0  0  0  0  0  0
  185.1470  178.6710  146.7810 N   0  0  0  0  0  1  0  0  0  0  0  0
  189.4060  177.2110  144.8200 C   0  0  0  0  0  0  0  0  0  0  0  0
  188.3150  177.5570  148.3700 C   0  0  0  0  0  3  0  0  0  0  0  0
  187.2830  177.9390  145.7900 C   0  0  0  0  0  0  0  0  0  0  0  0
  188.8690  177.4070  143.5200 C   0  0  0  0  0  0  0  0  0  0  0  0
  190.9810  176.6810  142.5500 C   0  0  0  0  0  3  0  0  0  0  0  0
  189.6710  177.1370  142.3990 C   0  0  0  0  0  3  0  0  0  0  0  0
  189.1130  177.2910  147.2550 C   0  0  0  0  0  3  0  0  0  0  0  0
  188.6110  177.4770  145.9560 C   0  0  0  0  0  0  0  0  0  0  0  0
  186.8950  178.1050  142.0290 C   0  0  1  0  0  3  0  0  0  0  0  0
  185.6810  180.1190  142.5140 O   0  0  0  0  0  1  0  0  0  0  0  0
  185.5250  178.7760  142.1630 C   0  0  1  0  0  3  0  0  0  0  0  0
  184.8420  179.5860  139.8970 N   0  0  0  0  0  0  0  0  0  0  0  0
  183.5960  177.5150  140.5340 S   0  0  0  0  0  0  0  0  0  0  0  0
  184.7500  178.6800  140.8890 C   0  0  0  0  0  0  0  0  0  0  0  0
  183.9920  179.3120  138.8700 C   0  0  0  0  0  3  0  0  0  0  0  0
  183.1970  178.1780  139.0370 C   0  0  0  0  0  3  0  0  0  0  0  0
  187.7370  178.8610  141.2070 O   0  0  0  0  0  0  0  0  0  0  0  0
  187.8240  178.1390  140.0130 C   0  0  0  0  0  2  0  0  0  0  0  0
  188.9920  178.6420  139.1840 C   0  0  0  0  0  2  0  0  0  0  0  0
  189.4730  177.5540  138.2400 C   0  0  0  0  0  2  0  0  0  0  0  0
  191.6940  177.4910  139.3650 O   0  0  0  0  0  1  0  0  0  0  0  0
  190.5980  176.8050  138.8590 C   0  0  0  0  0  0  0  0  0  0  0  0
  190.5410  175.5520  138.9560 O   0  0  0  0  0  0  0  0  0  0  0  0
  1 10  1  0  0  0  0
  2  6  1  0  0  0  0
  4 11  1  0  0  0  0
  4  1  2  0  0  0  0
  5  3  2  0  0  0  0
  6  9  2  0  0  0  0
  7  2  1  0  0  0  0
  8  3  1  0  0  0  0
  8 15  1  0  0  0  0
 10 15  1  0  0  0  0
 10  2  2  0  0  0  0
 11  8  2  0  0  0  0
 12  5  1  0  0  0  0
 13 12  2  0  0  0  0
 13 11  1  0  0  0  0
 14  9  1  0  0  0  0
 15 14  2  0  0  0  0
 16 24  1  6  0  0  0
 16 18  1  0  0  0  0
 16  4  1  0  0  0  0
 18 17  1  6  0  0  0
 19 21  2  0  0  0  0
 20 21  1  0  0  0  0
 21 18  1  0  0  0  0
 22 23  2  0  0  0  0
 22 19  1  0  0  0  0
 23 20  1  0  0  0  0
 25 24  1  0  0  0  0
 26 25  1  0  0  0  0
 27 29  1  0  0  0  0
 27 26  1  0  0  0  0
 29 30  2  0  0  0  0
 29 28  1  0  0  0  0
M  END
>  <MODEL>
6

>  <REMARK>
 VINA RESULT:      -8.4      3.021      5.498
  Name = 
  8 active torsions:
  status: ('A' for Active; 'I' for Inactive)
    1  A    between atoms: C_4  and  C_13
    2  A    between atoms: C_7  and  C_15
    3  A    between atoms: C_7  and  C_16
    4  A    between atoms: C_8  and  C_12
    5  A    between atoms: C_8  and  C_13
    6  A    between atoms: C_13  and  O_27
    7  A    between atoms: C_16  and  C_30
    8  A    between atoms: O_27  and  C_30
                            x       y       z     vdW  Elec       q    Type
                         _______ _______ _______ _____ _____    ______ ____

>  <TORSDO>
F 8

$$$$
=
 OpenBabel10262421523D

 30 33  0  0  1  0  0  0  0  0999 V2000
  187.6320  177.7070  142.7800 C   0  0  0  0  0  3  0  0  0  0  0  0
  189.2390  177.2150  144.5410 C   0  0  0  0  0  0  0  0  0  0  0  0
  184.6780  178.6130  145.6450 C   0  0  0  0  0  3  0  0  0  0  0  0
  186.3610  178.0980  142.3570 C   0  0  0  0  0  0  0  0  0  0  0  0
  183.4020  179.0040  145.2330 C   0  0  0  0  0  3  0  0  0  0  0  0
  189.5470  177.1250  145.9000 C   0  0  0  0  0  3  0  0  0  0  0  0
  190.2460  176.9060  143.5810 N   0  0  0  0  0  1  0  0  0  0  0  0
  185.6740  178.3070  144.7010 C   0  0  0  0  0  0  0  0  0  0  0  0
  188.5820  177.4210  146.8630 C   0  0  0  0  0  3  0  0  0  0  0  0
  187.9490  177.6090  144.1360 C   0  0  0  0  0  0  0  0  0  0  0  0
  185.3690  178.4000  143.3160 C   0  0  0  0  0  0  0  0  0  0  0  0
  183.1040  179.0960  143.8740 C   0  0  0  0  0  3  0  0  0  0  0  0
  184.0800  178.7960  142.9240 C   0  0  0  0  0  3  0  0  0  0  0  0
  187.2990  177.8110  146.4720 C   0  0  0  0  0  3  0  0  0  0  0  0
  186.9660  177.9110  145.1100 C   0  0  0  0  0  0  0  0  0  0  0  0
  186.1210  178.1670  140.8700 C   0  0  1  0  0  3  0  0  0  0  0  0
  184.8750  179.9510  139.8550 O   0  0  0  0  0  1  0  0  0  0  0  0
  184.7410  178.7390  140.5370 C   0  0  1  0  0  3  0  0  0  0  0  0
  183.0040  176.9670  140.2160 N   0  0  0  0  0  0  0  0  0  0  0  0
  184.1580  177.5060  138.0650 S   0  0  0  0  0  0  0  0  0  0  0  0
  183.9460  177.7830  139.7060 C   0  0  0  0  0  0  0  0  0  0  0  0
  182.4670  176.1490  139.2700 C   0  0  0  0  0  3  0  0  0  0  0  0
  182.9860  176.2970  137.9840 C   0  0  0  0  0  3  0  0  0  0  0  0
  187.1280  178.9090  140.2440 O   0  0  0  0  0  0  0  0  0  0  0  0
  187.7980  177.9960  139.4240 C   0  0  0  0  0  2  0  0  0  0  0  0
  189.0560  178.6300  138.8580 C   0  0  0  0  0  2  0  0  0  0  0  0
  189.8260  177.6170  138.0300 C   0  0  0  0  0  2  0  0  0  0  0  0
  191.2960  177.2370  140.0050 O   0  0  0  0  0  1  0  0  0  0  0  0
  190.6010  176.7150  138.9220 C   0  0  0  0  0  0  0  0  0  0  0  0
  190.5990  175.4740  138.7170 O   0  0  0  0  0  0  0  0  0  0  0  0
  1 10  1  0  0  0  0
  2  6  1  0  0  0  0
  4  1  2  0  0  0  0
  4 11  1  0  0  0  0
  5  3  1  0  0  0  0
  6  9  2  0  0  0  0
  7  2  1  0  0  0  0
  8 15  1  0  0  0  0
  8  3  2  0  0  0  0
 10  2  2  0  0  0  0
 10 15  1  0  0  0  0
 11  8  1  0  0  0  0
 12  5  2  0  0  0  0
 13 11  2  0  0  0  0
 13 12  1  0  0  0  0
 14  9  1  0  0  0  0
 15 14  2  0  0  0  0
 16 24  1  6  0  0  0
 16  4  1  0  0  0  0
 18 17  1  6  0  0  0
 18 16  1  0  0  0  0
 20 21  1  0  0  0  0
 21 19  2  0  0  0  0
 21 18  1  0  0  0  0
 22 19  1  0  0  0  0
 23 20  1  0  0  0  0
 23 22  2  0  0  0  0
 25 24  1  0  0  0  0
 26 25  1  0  0  0  0
 27 26  1  0  0  0  0
 27 29  1  0  0  0  0
 29 28  1  0  0  0  0
 30 29  2  0  0  0  0
M  END
>  <MODEL>
7

>  <REMARK>
 VINA RESULT:      -8.4      2.886      5.521
  Name = 
  8 active torsions:
  status: ('A' for Active; 'I' for Inactive)
    1  A    between atoms: C_4  and  C_13
    2  A    between atoms: C_7  and  C_15
    3  A    between atoms: C_7  and  C_16
    4  A    between atoms: C_8  and  C_12
    5  A    between atoms: C_8  and  C_13
    6  A    between atoms: C_13  and  O_27
    7  A    between atoms: C_16  and  C_30
    8  A    between atoms: O_27  and  C_30
                            x       y       z     vdW  Elec       q    Type
                         _______ _______ _______ _____ _____    ______ ____

>  <TORSDO>
F 8

$$$$
=
 OpenBabel10262421523D

 30 33  0  0  1  0  0  0  0  0999 V2000
  185.5740  178.4140  143.2730 C   0  0  0  0  0  3  0  0  0  0  0  0
  185.0900  178.7120  145.6400 C   0  0  0  0  0  0  0  0  0  0  0  0
  189.4550  177.0440  144.1780 C   0  0  0  0  0  3  0  0  0  0  0  0
  186.4320  178.0450  142.2360 C   0  0  0  0  0  0  0  0  0  0  0  0
  190.3230  176.6730  143.1490 C   0  0  0  0  0  3  0  0  0  0  0  0
  185.4980  178.6280  146.9730 C   0  0  0  0  0  3  0  0  0  0  0  0
  183.7750  179.1770  145.3460 N   0  0  0  0  0  1  0  0  0  0  0  0
  188.1570  177.5030  143.8920 C   0  0  0  0  0  0  0  0  0  0  0  0
  186.7780  178.1770  147.2920 C   0  0  0  0  0  3  0  0  0  0  0  0
  185.9730  178.3380  144.6100 C   0  0  0  0  0  0  0  0  0  0  0  0
  187.7350  177.5870  142.5390 C   0  0  0  0  0  0  0  0  0  0  0  0
  189.9080  176.7560  141.8210 C   0  0  0  0  0  3  0  0  0  0  0  0
  188.6230  177.2100  141.5190 C   0  0  0  0  0  3  0  0  0  0  0  0
  187.6620  177.8050  146.2770 C   0  0  0  0  0  3  0  0  0  0  0  0
  187.2750  177.8790  144.9280 C   0  0  0  0  0  0  0  0  0  0  0  0
  185.9060  178.1700  140.8300 C   0  0  1  0  0  3  0  0  0  0  0  0
  184.7940  179.9620  139.6820 O   0  0  0  0  0  1  0  0  0  0  0  0
  184.6740  179.0770  140.7560 C   0  0  1  0  0  3  0  0  0  0  0  0
  183.3240  177.2000  139.8000 N   0  0  0  0  0  0  0  0  0  0  0  0
  181.9450  178.6290  141.3180 S   0  0  0  0  0  0  0  0  0  0  0  0
  183.4210  178.2750  140.6060 C   0  0  0  0  0  0  0  0  0  0  0  0
  182.0660  176.6800  139.7880 C   0  0  0  0  0  3  0  0  0  0  0  0
  181.1340  177.3470  140.5830 C   0  0  0  0  0  3  0  0  0  0  0  0
  186.9090  178.6280  139.9690 O   0  0  0  0  0  0  0  0  0  0  0  0
  186.7120  177.9260  138.7750 C   0  0  0  0  0  2  0  0  0  0  0  0
  187.6490  178.4520  137.7020 C   0  0  0  0  0  2  0  0  0  0  0  0
  189.0530  178.6060  138.2610 C   0  0  0  0  0  2  0  0  0  0  0  0
  190.9550  177.0190  138.5170 O   0  0  0  0  0  1  0  0  0  0  0  0
  189.9310  177.5300  137.7310 C   0  0  0  0  0  0  0  0  0  0  0  0
  189.7240  177.0580  136.5840 O   0  0  0  0  0  0  0  0  0  0  0  0
  1 10  1  0  0  0  0
  2  6  1  0  0  0  0
  4 11  1  0  0  0  0
  4  1  2  0  0  0  0
  5  3  2  0  0  0  0
  6  9  2  0  0  0  0
  7  2  1  0  0  0  0
  8  3  1  0  0  0  0
  8 15  1  0  0  0  0
 10 15  1  0  0  0  0
 10  2  2  0  0  0  0
 11  8  2  0  0  0  0
 12  5  1  0  0  0  0
 13 12  2  0  0  0  0
 13 11  1  0  0  0  0
 14  9  1  0  0  0  0
 15 14  2  0  0  0  0
 16 24  1  6  0  0  0
 16  4  1  0  0  0  0
 18 17  1  6  0  0  0
 18 16  1  0  0  0  0
 19 21  2  0  0  0  0
 21 18  1  0  0  0  0
 21 20  1  0  0  0  0
 22 19  1  0  0  0  0
 22 23  2  0  0  0  0
 23 20  1  0  0  0  0
 25 24  1  0  0  0  0
 26 27  1  0  0  0  0
 26 25  1  0  0  0  0
 29 27  1  0  0  0  0
 29 28  1  0  0  0  0
 30 29  2  0  0  0  0
M  END
>  <MODEL>
8

>  <REMARK>
 VINA RESULT:      -8.3      3.471      5.929
  Name = 
  8 active torsions:
  status: ('A' for Active; 'I' for Inactive)
    1  A    between atoms: C_4  and  C_13
    2  A    between atoms: C_7  and  C_15
    3  A    between atoms: C_7  and  C_16
    4  A    between atoms: C_8  and  C_12
    5  A    between atoms: C_8  and  C_13
    6  A    between atoms: C_13  and  O_27
    7  A    between atoms: C_16  and  C_30
    8  A    between atoms: O_27  and  C_30
                            x       y       z     vdW  Elec       q    Type
                         _______ _______ _______ _____ _____    ______ ____

>  <TORSDO>
F 8

$$$$
=
 OpenBabel10262421523D

 30 33  0  0  1  0  0  0  0  0999 V2000
  187.1000  177.9500  142.2460 C   0  0  0  0  0  3  0  0  0  0  0  0
  185.1810  178.4920  143.6430 C   0  0  0  0  0  0  0  0  0  0  0  0
  189.4370  177.1500  145.6590 C   0  0  0  0  0  3  0  0  0  0  0  0
  188.4270  177.5500  142.0910 C   0  0  0  0  0  0  0  0  0  0  0  0
  190.7670  176.7510  145.5170 C   0  0  0  0  0  3  0  0  0  0  0  0
  184.6150  178.6250  144.9130 C   0  0  0  0  0  3  0  0  0  0  0  0
  184.3810  178.7660  142.4960 N   0  0  0  0  0  1  0  0  0  0  0  0
  188.6440  177.4210  144.5300 C   0  0  0  0  0  0  0  0  0  0  0  0
  185.3740  178.3650  146.0540 C   0  0  0  0  0  3  0  0  0  0  0  0
  186.5240  178.0910  143.5110 C   0  0  0  0  0  0  0  0  0  0  0  0
  189.2130  177.2840  143.2350 C   0  0  0  0  0  0  0  0  0  0  0  0
  191.3250  176.6160  144.2460 C   0  0  0  0  0  3  0  0  0  0  0  0
  190.5520  176.8810  143.1150 C   0  0  0  0  0  3  0  0  0  0  0  0
  186.7070  177.9680  145.9330 C   0  0  0  0  0  3  0  0  0  0  0  0
  187.2990  177.8250  144.6670 C   0  0  0  0  0  0  0  0  0  0  0  0
  188.9520  177.4340  140.6830 C   0  0  1  0  0  3  0  0  0  0  0  0
  189.0550  179.2600  139.1270 O   0  0  0  0  0  1  0  0  0  0  0  0
  188.1870  178.3340  139.7090 C   0  0  1  0  0  3  0  0  0  0  0  0
  188.0930  176.4530  138.0620 N   0  0  0  0  0  0  0  0  0  0  0  0
  186.0450  177.8800  137.9270 S   0  0  0  0  0  0  0  0  0  0  0  0
  187.5230  177.5290  138.6380 C   0  0  0  0  0  0  0  0  0  0  0  0
  187.3180  175.9300  137.0720 C   0  0  0  0  0  3  0  0  0  0  0  0
  186.1150  176.5950  136.8390 C   0  0  0  0  0  3  0  0  0  0  0  0
  190.3220  177.7180  140.6450 O   0  0  0  0  0  0  0  0  0  0  0  0
  190.8670  176.7620  139.7810 C   0  0  0  0  0  2  0  0  0  0  0  0
  192.3060  177.1190  139.4530 C   0  0  0  0  0  2  0  0  0  0  0  0
  192.6230  176.7500  138.0150 C   0  0  0  0  0  2  0  0  0  0  0  0
  192.6000  174.2740  137.7490 O   0  0  0  0  0  0  0  0  0  0  0  0
  193.3220  175.4390  137.9680 C   0  0  0  0  0  0  0  0  0  0  0  0
  194.5720  175.3890  138.0930 O   0  0  0  0  0  1  0  0  0  0  0  0
  1 10  1  0  0  0  0
  2  6  1  0  0  0  0
  4  1  2  0  0  0  0
  4 11  1  0  0  0  0
  5  3  1  0  0  0  0
  6  9  2  0  0  0  0
  7  2  1  0  0  0  0
  8 15  1  0  0  0  0
  8  3  2  0  0  0  0
 10  2  2  0  0  0  0
 10 15  1  0  0  0  0
 11  8  1  0  0  0  0
 12  5  2  0  0  0  0
 13 11  2  0  0  0  0
 13 12  1  0  0  0  0
 14  9  1  0  0  0  0
 15 14  2  0  0  0  0
 16 24  1  1  0  0  0
 16  4  1  0  0  0  0
 18 17  1  6  0  0  0
 18 16  1  0  0  0  0
 19 21  2  0  0  0  0
 20 21  1  0  0  0  0
 21 18  1  0  0  0  0
 22 19  1  0  0  0  0
 23 22  2  0  0  0  0
 23 20  1  0  0  0  0
 25 24  1  0  0  0  0
 26 25  1  0  0  0  0
 27 26  1  0  0  0  0
 28 29  2  0  0  0  0
 29 27  1  0  0  0  0
 29 30  1  0  0  0  0
M  END
>  <MODEL>
9

>  <REMARK>
 VINA RESULT:      -8.2      2.633      4.435
  Name = 
  8 active torsions:
  status: ('A' for Active; 'I' for Inactive)
    1  A    between atoms: C_4  and  C_13
    2  A    between atoms: C_7  and  C_15
    3  A    between atoms: C_7  and  C_16
    4  A    between atoms: C_8  and  C_12
    5  A    between atoms: C_8  and  C_13
    6  A    between atoms: C_13  and  O_27
    7  A    between atoms: C_16  and  C_30
    8  A    between atoms: O_27  and  C_30
                            x       y       z     vdW  Elec       q    Type
                         _______ _______ _______ _____ _____    ______ ____

>  <TORSDO>
F 8

$$$$
