=
 OpenBabel10262421543D

 30 33  0  0  0  0  0  0  0  0999 V2000
  188.0750  177.5630  143.7960 C   0  0  0  0  0  3  0  0  0  0  0  0
  187.5470  177.7030  146.1660 C   0  0  0  0  0  0  0  0  0  0  0  0
  184.2810  179.0000  142.8280 N   0  0  0  0  0  0  0  0  0  0  0  0
  187.7210  177.7160  142.4510 C   0  0  0  0  0  0  0  0  0  0  0  0
  183.9030  179.1980  141.5380 C   0  0  0  0  0  3  0  0  0  0  0  0
  186.6380  178.0080  147.1840 C   0  0  0  0  0  3  0  0  0  0  0  0
  188.8130  177.2360  146.5030 O   0  0  0  0  0  1  0  0  0  0  0  0
  185.5160  178.5230  143.1540 C   0  0  0  0  0  0  0  0  0  0  0  0
  185.3620  178.4780  146.8710 C   0  0  0  0  0  3  0  0  0  0  0  0
  187.1760  177.8700  144.8220 C   0  0  0  0  0  0  0  0  0  0  0  0
  186.4400  178.2130  142.1260 C   0  0  0  0  0  0  0  0  0  0  0  0
  184.7870  178.9180  140.4980 C   0  0  0  0  0  3  0  0  0  0  0  0
  186.0570  178.4270  140.7960 C   0  0  0  0  0  3  0  0  0  0  0  0
  184.9850  178.6480  145.5360 C   0  0  0  0  0  3  0  0  0  0  0  0
  185.8830  178.3470  144.5010 C   0  0  0  0  0  0  0  0  0  0  0  0
  190.6540  176.2380  140.9180 O   0  0  0  0  0  0  0  0  0  0  0  0
  190.0250  176.9560  141.7410 C   0  0  0  0  0  0  0  0  0  0  0  0
  188.6810  177.3760  141.4320 N   0  0  0  0  0  0  0  0  0  0  0  0
  191.0510  176.5010  143.9560 N   0  0  0  0  0  0  0  0  0  0  0  0
  191.0820  178.6250  143.2700 N   0  0  0  0  0  2  0  0  0  0  0  0
  190.7060  177.3640  142.9860 C   0  0  0  0  0  0  0  0  0  0  0  0
  191.6520  177.2140  144.8930 N   0  0  0  0  0  0  0  0  0  0  0  0
  191.6690  178.4950  144.4760 C   0  0  0  0  0  3  0  0  0  0  0  0
  188.2760  177.4850  140.0350 C   0  0  0  0  0  2  0  0  0  0  0  0
  189.1580  178.4900  139.3140 C   0  0  0  0  0  2  0  0  0  0  0  0
  189.4990  177.9870  137.9240 C   0  0  0  0  0  2  0  0  0  0  0  0
  189.4200  176.5330  137.8890 N   0  0  0  0  0  0  0  0  0  0  0  0
  191.6920  176.3490  137.2370 N   0  0  0  0  0  1  0  0  0  0  0  0
  190.4280  175.7820  137.5730 C   0  0  0  0  0  0  0  0  0  0  0  0
  190.2700  174.3680  137.5610 N   0  0  0  0  0  1  0  0  0  0  0  0
  1 10  1  0  0  0  0
  2  7  1  0  0  0  0
  2  6  1  0  0  0  0
  3  8  1  0  0  0  0
  4  1  2  0  0  0  0
  5  3  2  0  0  0  0
  8 15  1  0  0  0  0
  9  6  2  0  0  0  0
 10  2  2  0  0  0  0
 11  4  1  0  0  0  0
 11  8  2  0  0  0  0
 12 13  2  0  0  0  0
 12  5  1  0  0  0  0
 13 11  1  0  0  0  0
 14  9  1  0  0  0  0
 15 10  1  0  0  0  0
 15 14  2  0  0  0  0
 16 17  2  0  0  0  0
 17 21  1  0  0  0  0
 18 17  1  0  0  0  0
 18  4  1  0  0  0  0
 19 22  1  0  0  0  0
 20 23  1  0  0  0  0
 21 20  1  0  0  0  0
 21 19  2  0  0  0  0
 23 22  2  0  0  0  0
 24 18  1  0  0  0  0
 25 24  1  0  0  0  0
 26 25  1  0  0  0  0
 27 26  1  0  0  0  0
 28 29  1  0  0  0  0
 29 27  2  0  0  0  0
 30 29  1  0  0  0  0
M  END
>  <MODEL>
1

>  <REMARK>
 VINA RESULT:      -8.7      0.000      0.000
  Name = 
  6 active torsions:
  status: ('A' for Active; 'I' for Inactive)
    1  A    between atoms: C_4  and  N_13
    2  A    between atoms: N_7  and  C_16
    3  A    between atoms: C_8  and  C_12
    4  A    between atoms: N_13  and  C_27
    5  A    between atoms: C_16  and  C_30
    6  A    between atoms: C_27  and  C_30
                            x       y       z     vdW  Elec       q    Type
                         _______ _______ _______ _____ _____    ______ ____

>  <TORSDO>
F 6

$$$$
=
 OpenBabel10262421543D

 30 33  0  0  0  0  0  0  0  0999 V2000
  188.1010  177.5830  143.7540 C   0  0  0  0  0  3  0  0  0  0  0  0
  187.6510  177.6810  146.1430 C   0  0  0  0  0  0  0  0  0  0  0  0
  184.2540  178.9730  142.9360 N   0  0  0  0  0  0  0  0  0  0  0  0
  187.6990  177.7490  142.4240 C   0  0  0  0  0  0  0  0  0  0  0  0
  183.8300  179.1840  141.6620 C   0  0  0  0  0  3  0  0  0  0  0  0
  186.7730  177.9570  147.1940 C   0  0  0  0  0  3  0  0  0  0  0  0
  188.9350  177.2290  146.4290 O   0  0  0  0  0  1  0  0  0  0  0  0
  185.5070  178.5110  143.2130 C   0  0  0  0  0  0  0  0  0  0  0  0
  185.4790  178.4110  146.9320 C   0  0  0  0  0  3  0  0  0  0  0  0
  187.2320  177.8600  144.8140 C   0  0  0  0  0  0  0  0  0  0  0  0
  186.4010  178.2300  142.1500 C   0  0  0  0  0  0  0  0  0  0  0  0
  184.6830  178.9320  140.5880 C   0  0  0  0  0  3  0  0  0  0  0  0
  185.9690  178.4570  140.8370 C   0  0  0  0  0  3  0  0  0  0  0  0
  185.0550  178.5940  145.6130 C   0  0  0  0  0  3  0  0  0  0  0  0
  185.9220  178.3220  144.5440 C   0  0  0  0  0  0  0  0  0  0  0  0
  190.5320  176.2400  140.7410 O   0  0  0  0  0  0  0  0  0  0  0  0
  189.9510  176.9240  141.6250 C   0  0  0  0  0  0  0  0  0  0  0  0
  188.6290  177.4380  141.3690 N   0  0  0  0  0  0  0  0  0  0  0  0
  190.9890  176.2440  143.7750 N   0  0  0  0  0  0  0  0  0  0  0  0
  191.0960  178.4160  143.2710 N   0  0  0  0  0  2  0  0  0  0  0  0
  190.6660  177.1980  142.8880 C   0  0  0  0  0  0  0  0  0  0  0  0
  191.6320  176.8500  144.7580 N   0  0  0  0  0  0  0  0  0  0  0  0
  191.6950  178.1600  144.4520 C   0  0  0  0  0  3  0  0  0  0  0  0
  188.2170  177.6760  139.9900 C   0  0  0  0  0  2  0  0  0  0  0  0
  189.1190  178.7170  139.3480 C   0  0  0  0  0  2  0  0  0  0  0  0
  188.9950  178.6590  137.8380 C   0  0  0  0  0  2  0  0  0  0  0  0
  187.5930  178.5580  137.4580 N   0  0  0  0  0  0  0  0  0  0  0  0
  187.9890  176.5670  136.2340 N   0  0  0  0  0  1  0  0  0  0  0  0
  187.1310  177.5960  136.7210 C   0  0  0  0  0  0  0  0  0  0  0  0
  185.7470  177.5680  136.3930 N   0  0  0  0  0  1  0  0  0  0  0  0
  1 10  1  0  0  0  0
  2  7  1  0  0  0  0
  2  6  1  0  0  0  0
  3  8  1  0  0  0  0
  4  1  2  0  0  0  0
  5  3  2  0  0  0  0
  8 15  1  0  0  0  0
  9  6  2  0  0  0  0
 10  2  2  0  0  0  0
 11  4  1  0  0  0  0
 11  8  2  0  0  0  0
 12 13  2  0  0  0  0
 12  5  1  0  0  0  0
 13 11  1  0  0  0  0
 14  9  1  0  0  0  0
 15 10  1  0  0  0  0
 15 14  2  0  0  0  0
 16 17  2  0  0  0  0
 17 21  1  0  0  0  0
 18 17  1  0  0  0  0
 18  4  1  0  0  0  0
 19 22  1  0  0  0  0
 20 23  1  0  0  0  0
 21 20  1  0  0  0  0
 21 19  2  0  0  0  0
 23 22  2  0  0  0  0
 24 18  1  0  0  0  0
 25 24  1  0  0  0  0
 26 25  1  0  0  0  0
 27 26  1  0  0  0  0
 28 29  1  0  0  0  0
 29 27  2  0  0  0  0
 30 29  1  0  0  0  0
M  END
>  <MODEL>
2

>  <REMARK>
 VINA RESULT:      -8.6      1.201      1.537
  Name = 
  6 active torsions:
  status: ('A' for Active; 'I' for Inactive)
    1  A    between atoms: C_4  and  N_13
    2  A    between atoms: N_7  and  C_16
    3  A    between atoms: C_8  and  C_12
    4  A    between atoms: N_13  and  C_27
    5  A    between atoms: C_16  and  C_30
    6  A    between atoms: C_27  and  C_30
                            x       y       z     vdW  Elec       q    Type
                         _______ _______ _______ _____ _____    ______ ____

>  <TORSDO>
F 6

$$$$
=
 OpenBabel10262421543D

 30 33  0  0  0  0  0  0  0  0999 V2000
  183.3650  179.0420  140.2040 C   0  0  0  0  0  3  0  0  0  0  0  0
  185.4960  178.7040  141.3270 C   0  0  0  0  0  0  0  0  0  0  0  0
  181.3540  178.7100  143.8430 N   0  0  0  0  0  0  0  0  0  0  0  0
  181.9690  179.1470  140.2290 C   0  0  0  0  0  0  0  0  0  0  0  0
  180.0030  178.8390  143.9240 C   0  0  0  0  0  3  0  0  0  0  0  0
  186.2170  178.4700  142.5000 C   0  0  0  0  0  3  0  0  0  0  0  0
  186.1800  178.8240  140.1210 O   0  0  0  0  0  1  0  0  0  0  0  0
  182.0190  178.8080  142.6560 C   0  0  0  0  0  0  0  0  0  0  0  0
  185.5530  178.3460  143.7220 C   0  0  0  0  0  3  0  0  0  0  0  0
  184.0960  178.8130  141.3730 C   0  0  0  0  0  0  0  0  0  0  0  0
  181.2920  179.0450  141.4630 C   0  0  0  0  0  0  0  0  0  0  0  0
  179.2530  179.0860  142.7750 C   0  0  0  0  0  3  0  0  0  0  0  0
  179.9020  179.1900  141.5460 C   0  0  0  0  0  3  0  0  0  0  0  0
  184.1620  178.4550  143.7780 C   0  0  0  0  0  3  0  0  0  0  0  0
  183.4210  178.6890  142.6100 C   0  0  0  0  0  0  0  0  0  0  0  0
  179.5110  178.7000  137.6040 O   0  0  0  0  0  0  0  0  0  0  0  0
  180.4520  178.3560  138.3690 C   0  0  0  0  0  0  0  0  0  0  0  0
  181.2620  179.3710  138.9950 N   0  0  0  0  0  0  0  0  0  0  0  0
  180.0050  176.1570  139.4290 N   0  0  0  0  0  0  0  0  0  0  0  0
  181.6360  176.2050  137.9060 N   0  0  0  0  0  2  0  0  0  0  0  0
  180.7060  176.9160  138.5720 C   0  0  0  0  0  0  0  0  0  0  0  0
  180.4920  174.9320  139.3280 N   0  0  0  0  0  0  0  0  0  0  0  0
  181.4760  174.9650  138.4080 C   0  0  0  0  0  3  0  0  0  0  0  0
  181.3950  180.6710  138.3460 C   0  0  0  0  0  2  0  0  0  0  0  0
  180.4500  181.6730  138.9890 C   0  0  0  0  0  2  0  0  0  0  0  0
  179.5970  182.3430  137.9290 C   0  0  0  0  0  2  0  0  0  0  0  0
  180.1920  183.6150  137.5430 N   0  0  0  0  0  0  0  0  0  0  0  0
  180.7200  182.7990  135.3810 N   0  0  0  0  0  1  0  0  0  0  0  0
  180.7080  183.8230  136.3730 C   0  0  0  0  0  0  0  0  0  0  0  0
  181.2710  185.0950  136.0720 N   0  0  0  0  0  1  0  0  0  0  0  0
  1  4  2  0  0  0  0
  1 10  1  0  0  0  0
  2 10  2  0  0  0  0
  2  6  1  0  0  0  0
  3  5  1  0  0  0  0
  4 11  1  0  0  0  0
  6  9  2  0  0  0  0
  7  2  1  0  0  0  0
  8  3  2  0  0  0  0
  9 14  1  0  0  0  0
 10 15  1  0  0  0  0
 11 13  2  0  0  0  0
 11  8  1  0  0  0  0
 12  5  2  0  0  0  0
 13 12  1  0  0  0  0
 15  8  1  0  0  0  0
 15 14  2  0  0  0  0
 16 17  2  0  0  0  0
 17 21  1  0  0  0  0
 17 18  1  0  0  0  0
 18  4  1  0  0  0  0
 20 23  1  0  0  0  0
 20 21  1  0  0  0  0
 21 19  2  0  0  0  0
 22 19  1  0  0  0  0
 23 22  2  0  0  0  0
 24 25  1  0  0  0  0
 24 18  1  0  0  0  0
 26 25  1  0  0  0  0
 27 26  1  0  0  0  0
 28 29  1  0  0  0  0
 29 27  2  0  0  0  0
 30 29  1  0  0  0  0
M  END
>  <MODEL>
3

>  <REMARK>
 VINA RESULT:      -8.3      5.543      8.764
  Name = 
  6 active torsions:
  status: ('A' for Active; 'I' for Inactive)
    1  A    between atoms: C_4  and  N_13
    2  A    between atoms: N_7  and  C_16
    3  A    between atoms: C_8  and  C_12
    4  A    between atoms: N_13  and  C_27
    5  A    between atoms: C_16  and  C_30
    6  A    between atoms: C_27  and  C_30
                            x       y       z     vdW  Elec       q    Type
                         _______ _______ _______ _____ _____    ______ ____

>  <TORSDO>
F 6

$$$$
=
 OpenBabel10262421543D

 30 33  0  0  0  0  0  0  0  0999 V2000
  186.9800  178.1810  144.6170 C   0  0  0  0  0  3  0  0  0  0  0  0
  186.5650  178.3580  147.0060 C   0  0  0  0  0  0  0  0  0  0  0  0
  190.8060  176.6920  145.3540 N   0  0  0  0  0  0  0  0  0  0  0  0
  187.8120  177.8610  143.5370 C   0  0  0  0  0  0  0  0  0  0  0  0
  191.6380  176.3350  144.3410 C   0  0  0  0  0  3  0  0  0  0  0  0
  187.0080  178.2030  148.3220 C   0  0  0  0  0  3  0  0  0  0  0  0
  185.2820  178.8440  146.7740 O   0  0  0  0  0  1  0  0  0  0  0  0
  189.5560  177.1880  145.1230 C   0  0  0  0  0  0  0  0  0  0  0  0
  188.2910  177.7170  148.5810 C   0  0  0  0  0  3  0  0  0  0  0  0
  187.4120  178.0250  145.9370 C   0  0  0  0  0  0  0  0  0  0  0  0
  189.1020  177.3470  143.7900 C   0  0  0  0  0  0  0  0  0  0  0  0
  191.2240  176.4630  143.0160 C   0  0  0  0  0  3  0  0  0  0  0  0
  189.9540  176.9680  142.7450 C   0  0  0  0  0  3  0  0  0  0  0  0
  189.1400  177.3810  147.5230 C   0  0  0  0  0  3  0  0  0  0  0  0
  188.7130  177.5300  146.1950 C   0  0  0  0  0  0  0  0  0  0  0  0
  186.0110  179.3510  140.7680 O   0  0  0  0  0  0  0  0  0  0  0  0
  186.1380  178.8190  141.9040 C   0  0  0  0  0  0  0  0  0  0  0  0
  187.3230  178.0510  142.1960 N   0  0  0  0  0  0  0  0  0  0  0  0
  184.8840  180.0900  143.6280 N   0  0  0  0  0  0  0  0  0  0  0  0
  184.0910  178.0650  143.1220 N   0  0  0  0  0  2  0  0  0  0  0  0
  185.0490  178.9830  142.8860 C   0  0  0  0  0  0  0  0  0  0  0  0
  183.8070  179.8860  144.3680 N   0  0  0  0  0  0  0  0  0  0  0  0
  183.3320  178.6640  144.0600 C   0  0  0  0  0  3  0  0  0  0  0  0
  188.0460  177.4190  141.0990 C   0  0  0  0  0  2  0  0  0  0  0  0
  188.6650  178.4790  140.2030 C   0  0  0  0  0  2  0  0  0  0  0  0
  188.9530  177.9020  138.8300 C   0  0  0  0  0  2  0  0  0  0  0  0
  187.7220  177.4080  138.2300 N   0  0  0  0  0  0  0  0  0  0  0  0
  187.4880  179.3660  136.9140 N   0  0  0  0  0  1  0  0  0  0  0  0
  187.0490  178.0810  137.3500 C   0  0  0  0  0  0  0  0  0  0  0  0
  185.8540  177.5300  136.8100 N   0  0  0  0  0  1  0  0  0  0  0  0
  1 10  1  0  0  0  0
  2  6  1  0  0  0  0
  4 11  1  0  0  0  0
  4  1  2  0  0  0  0
  5  3  2  0  0  0  0
  6  9  2  0  0  0  0
  7  2  1  0  0  0  0
  8  3  1  0  0  0  0
  8 15  1  0  0  0  0
 10 15  1  0  0  0  0
 10  2  2  0  0  0  0
 11  8  2  0  0  0  0
 12  5  1  0  0  0  0
 13 12  2  0  0  0  0
 13 11  1  0  0  0  0
 14  9  1  0  0  0  0
 15 14  2  0  0  0  0
 16 17  2  0  0  0  0
 17 18  1  0  0  0  0
 17 21  1  0  0  0  0
 18  4  1  0  0  0  0
 19 22  1  0  0  0  0
 20 23  1  0  0  0  0
 21 20  1  0  0  0  0
 21 19  2  0  0  0  0
 23 22  2  0  0  0  0
 24 18  1  0  0  0  0
 25 24  1  0  0  0  0
 26 25  1  0  0  0  0
 27 26  1  0  0  0  0
 28 29  1  0  0  0  0
 29 27  2  0  0  0  0
 30 29  1  0  0  0  0
M  END
>  <MODEL>
4

>  <REMARK>
 VINA RESULT:      -8.2      2.129      4.881
  Name = 
  6 active torsions:
  status: ('A' for Active; 'I' for Inactive)
    1  A    between atoms: C_4  and  N_13
    2  A    between atoms: N_7  and  C_16
    3  A    between atoms: C_8  and  C_12
    4  A    between atoms: N_13  and  C_27
    5  A    between atoms: C_16  and  C_30
    6  A    between atoms: C_27  and  C_30
                            x       y       z     vdW  Elec       q    Type
                         _______ _______ _______ _____ _____    ______ ____

>  <TORSDO>
F 6

$$$$
=
 OpenBabel10262421543D

 30 33  0  0  0  0  0  0  0  0999 V2000
  186.9790  178.1560  144.5200 C   0  0  0  0  0  3  0  0  0  0  0  0
  186.5680  178.2570  146.9150 C   0  0  0  0  0  0  0  0  0  0  0  0
  190.8430  176.7410  145.2060 N   0  0  0  0  0  0  0  0  0  0  0  0
  187.8150  177.8850  143.4300 C   0  0  0  0  0  0  0  0  0  0  0  0
  191.6800  176.4320  144.1810 C   0  0  0  0  0  3  0  0  0  0  0  0
  187.0200  178.0770  148.2250 C   0  0  0  0  0  3  0  0  0  0  0  0
  185.2740  178.7180  146.6990 O   0  0  0  0  0  1  0  0  0  0  0  0
  189.5810  177.2120  144.9910 C   0  0  0  0  0  0  0  0  0  0  0  0
  188.3150  177.6150  148.4660 C   0  0  0  0  0  3  0  0  0  0  0  0
  187.4190  177.9740  145.8340 C   0  0  0  0  0  0  0  0  0  0  0  0
  189.1190  177.3970  143.6650 C   0  0  0  0  0  0  0  0  0  0  0  0
  191.2590  176.5860  142.8610 C   0  0  0  0  0  3  0  0  0  0  0  0
  189.9750  177.0670  142.6070 C   0  0  0  0  0  3  0  0  0  0  0  0
  189.1680  177.3290  147.3970 C   0  0  0  0  0  3  0  0  0  0  0  0
  188.7330  177.5050  146.0750 C   0  0  0  0  0  0  0  0  0  0  0  0
  185.9820  179.4160  140.7040 O   0  0  0  0  0  0  0  0  0  0  0  0
  186.1220  178.8600  141.8260 C   0  0  0  0  0  0  0  0  0  0  0  0
  187.3170  178.1000  142.0960 N   0  0  0  0  0  0  0  0  0  0  0  0
  184.8830  180.0560  143.6150 N   0  0  0  0  0  0  0  0  0  0  0  0
  184.0670  178.0690  143.0080 N   0  0  0  0  0  2  0  0  0  0  0  0
  185.0350  178.9860  142.8170 C   0  0  0  0  0  0  0  0  0  0  0  0
  183.8050  179.8280  144.3450 N   0  0  0  0  0  0  0  0  0  0  0  0
  183.3150  178.6290  143.9760 C   0  0  0  0  0  3  0  0  0  0  0  0
  188.0430  177.5030  140.9800 C   0  0  0  0  0  2  0  0  0  0  0  0
  188.6910  178.5900  140.1380 C   0  0  0  0  0  2  0  0  0  0  0  0
  189.0200  178.0570  138.7570 C   0  0  0  0  0  2  0  0  0  0  0  0
  190.0420  177.0230  138.8540 N   0  0  0  0  0  0  0  0  0  0  0  0
  189.0660  175.7860  137.0830 N   0  0  0  0  0  1  0  0  0  0  0  0
  190.0620  175.9800  138.0850 C   0  0  0  0  0  0  0  0  0  0  0  0
  191.0940  175.0150  138.2420 N   0  0  0  0  0  1  0  0  0  0  0  0
  1 10  1  0  0  0  0
  2  6  1  0  0  0  0
  4 11  1  0  0  0  0
  4  1  2  0  0  0  0
  5  3  2  0  0  0  0
  6  9  2  0  0  0  0
  7  2  1  0  0  0  0
  8  3  1  0  0  0  0
  8 15  1  0  0  0  0
 10 15  1  0  0  0  0
 10  2  2  0  0  0  0
 11  8  2  0  0  0  0
 12  5  1  0  0  0  0
 13 12  2  0  0  0  0
 13 11  1  0  0  0  0
 14  9  1  0  0  0  0
 15 14  2  0  0  0  0
 16 17  2  0  0  0  0
 17 18  1  0  0  0  0
 17 21  1  0  0  0  0
 18  4  1  0  0  0  0
 19 22  1  0  0  0  0
 20 23  1  0  0  0  0
 21 20  1  0  0  0  0
 21 19  2  0  0  0  0
 23 22  2  0  0  0  0
 24 18  1  0  0  0  0
 25 24  1  0  0  0  0
 26 27  1  0  0  0  0
 26 25  1  0  0  0  0
 28 29  1  0  0  0  0
 29 30  1  0  0  0  0
 29 27  2  0  0  0  0
M  END
>  <MODEL>
5

>  <REMARK>
 VINA RESULT:      -8.1      1.764      4.631
  Name = 
  6 active torsions:
  status: ('A' for Active; 'I' for Inactive)
    1  A    between atoms: C_4  and  N_13
    2  A    between atoms: N_7  and  C_16
    3  A    between atoms: C_8  and  C_12
    4  A    between atoms: N_13  and  C_27
    5  A    between atoms: C_16  and  C_30
    6  A    between atoms: C_27  and  C_30
                            x       y       z     vdW  Elec       q    Type
                         _______ _______ _______ _____ _____    ______ ____

>  <TORSDO>
F 6

$$$$
=
 OpenBabel10262421543D

 30 33  0  0  0  0  0  0  0  0999 V2000
  185.3080  178.7120  142.4130 C   0  0  0  0  0  3  0  0  0  0  0  0
  184.0790  178.9920  144.4930 C   0  0  0  0  0  0  0  0  0  0  0  0
  188.4770  176.9550  144.4800 N   0  0  0  0  0  0  0  0  0  0  0  0
  186.4430  178.2960  141.7070 C   0  0  0  0  0  0  0  0  0  0  0  0
  189.5850  176.5040  143.8350 C   0  0  0  0  0  3  0  0  0  0  0  0
  184.0060  178.8420  145.8810 C   0  0  0  0  0  3  0  0  0  0  0  0
  183.0100  179.5680  143.8150 O   0  0  0  0  0  1  0  0  0  0  0  0
  187.4390  177.5380  143.8140 C   0  0  0  0  0  0  0  0  0  0  0  0
  185.0650  178.2660  146.5840 C   0  0  0  0  0  3  0  0  0  0  0  0
  185.2230  178.5620  143.8000 C   0  0  0  0  0  0  0  0  0  0  0  0
  187.5090  177.6920  142.4070 C   0  0  0  0  0  0  0  0  0  0  0  0
  189.6860  176.6240  142.4490 C   0  0  0  0  0  3  0  0  0  0  0  0
  188.6440  177.2180  141.7390 C   0  0  0  0  0  3  0  0  0  0  0  0
  186.2060  177.8350  145.9030 C   0  0  0  0  0  3  0  0  0  0  0  0
  186.2980  177.9770  144.5110 C   0  0  0  0  0  0  0  0  0  0  0  0
  185.4040  179.3390  138.3950 O   0  0  0  0  0  0  0  0  0  0  0  0
  185.3020  178.7300  139.4930 C   0  0  0  0  0  0  0  0  0  0  0  0
  186.4850  178.4830  140.2790 N   0  0  0  0  0  0  0  0  0  0  0  0
  183.0220  179.0830  140.4100 N   0  0  0  0  0  0  0  0  0  0  0  0
  183.5420  176.9890  139.8370 N   0  0  0  0  0  2  0  0  0  0  0  0
  183.9670  178.2640  139.9200 C   0  0  0  0  0  0  0  0  0  0  0  0
  181.9670  178.3270  140.6610 N   0  0  0  0  0  0  0  0  0  0  0  0
  182.2840  177.0640  140.3140 C   0  0  0  0  0  3  0  0  0  0  0  0
  187.7770  178.3960  139.6070 C   0  0  0  0  0  2  0  0  0  0  0  0
  187.7240  177.3450  138.5100 C   0  0  0  0  0  2  0  0  0  0  0  0
  188.9810  177.4070  137.6650 C   0  0  0  0  0  2  0  0  0  0  0  0
  190.1380  177.6590  138.5120 N   0  0  0  0  0  0  0  0  0  0  0  0
  190.7930  175.3820  138.4280 N   0  0  0  0  0  1  0  0  0  0  0  0
  190.9700  176.7290  138.8620 C   0  0  0  0  0  0  0  0  0  0  0  0
  192.0770  177.0560  139.6930 N   0  0  0  0  0  1  0  0  0  0  0  0
  1 10  1  0  0  0  0
  2  6  1  0  0  0  0
  4 11  1  0  0  0  0
  4  1  2  0  0  0  0
  5  3  1  0  0  0  0
  6  9  2  0  0  0  0
  7  2  1  0  0  0  0
  8  3  2  0  0  0  0
  8 15  1  0  0  0  0
 10  2  2  0  0  0  0
 10 15  1  0  0  0  0
 11  8  1  0  0  0  0
 12  5  2  0  0  0  0
 13 11  2  0  0  0  0
 13 12  1  0  0  0  0
 14  9  1  0  0  0  0
 15 14  2  0  0  0  0
 16 17  2  0  0  0  0
 17 21  1  0  0  0  0
 17 18  1  0  0  0  0
 18  4  1  0  0  0  0
 19 22  1  0  0  0  0
 20 21  1  0  0  0  0
 20 23  1  0  0  0  0
 21 19  2  0  0  0  0
 23 22  2  0  0  0  0
 24 18  1  0  0  0  0
 25 24  1  0  0  0  0
 26 25  1  0  0  0  0
 26 27  1  0  0  0  0
 27 29  2  0  0  0  0
 28 29  1  0  0  0  0
 29 30  1  0  0  0  0
M  END
>  <MODEL>
6

>  <REMARK>
 VINA RESULT:      -8.1      2.435      5.011
  Name = 
  6 active torsions:
  status: ('A' for Active; 'I' for Inactive)
    1  A    between atoms: C_4  and  N_13
    2  A    between atoms: N_7  and  C_16
    3  A    between atoms: C_8  and  C_12
    4  A    between atoms: N_13  and  C_27
    5  A    between atoms: C_16  and  C_30
    6  A    between atoms: C_27  and  C_30
                            x       y       z     vdW  Elec       q    Type
                         _______ _______ _______ _____ _____    ______ ____

>  <TORSDO>
F 6

$$$$
=
 OpenBabel10262421543D

 30 33  0  0  0  0  0  0  0  0999 V2000
  186.4740  177.6370  142.4600 C   0  0  0  0  0  3  0  0  0  0  0  0
  184.1700  178.3140  142.0720 C   0  0  0  0  0  0  0  0  0  0  0  0
  186.0600  178.4340  146.5340 N   0  0  0  0  0  0  0  0  0  0  0  0
  187.5650  177.4360  143.3130 C   0  0  0  0  0  0  0  0  0  0  0  0
  187.0800  178.2220  147.4070 C   0  0  0  0  0  3  0  0  0  0  0  0
  182.9550  178.7950  142.5660 C   0  0  0  0  0  3  0  0  0  0  0  0
  184.2920  178.0420  140.7130 O   0  0  0  0  0  1  0  0  0  0  0  0
  186.1890  178.1840  145.1990 C   0  0  0  0  0  0  0  0  0  0  0  0
  182.8090  179.0760  143.9260 C   0  0  0  0  0  3  0  0  0  0  0  0
  185.2520  178.1130  142.9450 C   0  0  0  0  0  0  0  0  0  0  0  0
  187.4190  177.6970  144.6930 C   0  0  0  0  0  0  0  0  0  0  0  0
  188.3020  177.7300  146.9520 C   0  0  0  0  0  3  0  0  0  0  0  0
  188.4670  177.4670  145.5930 C   0  0  0  0  0  3  0  0  0  0  0  0
  183.8790  178.8770  144.8010 C   0  0  0  0  0  3  0  0  0  0  0  0
  185.1070  178.3960  144.3240 C   0  0  0  0  0  0  0  0  0  0  0  0
  190.5110  177.3070  141.2060 O   0  0  0  0  0  0  0  0  0  0  0  0
  189.2760  177.3430  141.4550 C   0  0  0  0  0  0  0  0  0  0  0  0
  188.8060  176.9550  142.7610 N   0  0  0  0  0  0  0  0  0  0  0  0
  187.6540  178.9040  140.4090 N   0  0  0  0  0  0  0  0  0  0  0  0
  188.1310  177.0550  139.2530 N   0  0  0  0  0  2  0  0  0  0  0  0
  188.3510  177.7570  140.3810 C   0  0  0  0  0  0  0  0  0  0  0  0
  186.9590  178.9460  139.2850 N   0  0  0  0  0  0  0  0  0  0  0  0
  187.2490  177.8300  138.5900 C   0  0  0  0  0  3  0  0  0  0  0  0
  189.6000  176.0220  143.5520 C   0  0  0  0  0  2  0  0  0  0  0  0
  191.0810  176.2650  143.3140 C   0  0  0  0  0  2  0  0  0  0  0  0
  191.8910  175.7710  144.4970 C   0  0  0  0  0  2  0  0  0  0  0  0
  191.6750  176.6400  145.6450 N   0  0  0  0  0  0  0  0  0  0  0  0
  192.5090  175.0000  147.1400 N   0  0  0  0  0  1  0  0  0  0  0  0
  191.9590  176.2860  146.8590 C   0  0  0  0  0  0  0  0  0  0  0  0
  191.7190  177.1930  147.9280 N   0  0  0  0  0  1  0  0  0  0  0  0
  1 10  2  0  0  0  0
  1  4  1  0  0  0  0
  2  6  2  0  0  0  0
  2 10  1  0  0  0  0
  3  5  2  0  0  0  0
  4 11  2  0  0  0  0
  6  9  1  0  0  0  0
  7  2  1  0  0  0  0
  8  3  1  0  0  0  0
  9 14  2  0  0  0  0
 10 15  1  0  0  0  0
 11  8  1  0  0  0  0
 11 13  1  0  0  0  0
 12  5  1  0  0  0  0
 13 12  2  0  0  0  0
 15 14  1  0  0  0  0
 15  8  2  0  0  0  0
 16 17  2  0  0  0  0
 17 18  1  0  0  0  0
 18  4  1  0  0  0  0
 18 24  1  0  0  0  0
 20 21  1  0  0  0  0
 21 19  2  0  0  0  0
 21 17  1  0  0  0  0
 22 19  1  0  0  0  0
 23 20  1  0  0  0  0
 23 22  2  0  0  0  0
 25 24  1  0  0  0  0
 25 26  1  0  0  0  0
 26 27  1  0  0  0  0
 27 29  2  0  0  0  0
 29 28  1  0  0  0  0
 29 30  1  0  0  0  0
M  END
>  <MODEL>
7

>  <REMARK>
 VINA RESULT:      -8.1      2.227      5.661
  Name = 
  6 active torsions:
  status: ('A' for Active; 'I' for Inactive)
    1  A    between atoms: C_4  and  N_13
    2  A    between atoms: N_7  and  C_16
    3  A    between atoms: C_8  and  C_12
    4  A    between atoms: N_13  and  C_27
    5  A    between atoms: C_16  and  C_30
    6  A    between atoms: C_27  and  C_30
                            x       y       z     vdW  Elec       q    Type
                         _______ _______ _______ _____ _____    ______ ____

>  <TORSDO>
F 6

$$$$
=
 OpenBabel10262421543D

 30 33  0  0  0  0  0  0  0  0999 V2000
  184.3260  178.7630  139.6030 C   0  0  0  0  0  3  0  0  0  0  0  0
  186.7460  178.5250  139.6080 C   0  0  0  0  0  0  0  0  0  0  0  0
  184.2660  178.6120  143.7710 N   0  0  0  0  0  0  0  0  0  0  0  0
  183.1010  178.8470  140.2760 C   0  0  0  0  0  0  0  0  0  0  0  0
  183.1070  178.7240  144.4710 C   0  0  0  0  0  3  0  0  0  0  0  0
  187.9420  178.3730  140.3150 C   0  0  0  0  0  3  0  0  0  0  0  0
  186.7810  178.5860  138.2190 O   0  0  0  0  0  1  0  0  0  0  0  0
  184.2950  178.6520  142.4080 C   0  0  0  0  0  0  0  0  0  0  0  0
  187.9330  178.3090  141.7090 C   0  0  0  0  0  3  0  0  0  0  0  0
  185.5280  178.6150  140.3010 C   0  0  0  0  0  0  0  0  0  0  0  0
  183.0850  178.8060  141.6870 C   0  0  0  0  0  0  0  0  0  0  0  0
  181.8960  178.8910  143.7990 C   0  0  0  0  0  3  0  0  0  0  0  0
  181.8900  178.9340  142.4060 C   0  0  0  0  0  3  0  0  0  0  0  0
  186.7260  178.3990  142.4070 C   0  0  0  0  0  3  0  0  0  0  0  0
  185.5150  178.5520  141.7150 C   0  0  0  0  0  0  0  0  0  0  0  0
  180.0800  177.9010  138.5120 O   0  0  0  0  0  0  0  0  0  0  0  0
  181.3150  177.8980  138.7590 C   0  0  0  0  0  0  0  0  0  0  0  0
  181.8900  178.9870  139.5100 N   0  0  0  0  0  0  0  0  0  0  0  0
  182.3060  175.6260  138.8970 N   0  0  0  0  0  0  0  0  0  0  0  0
  182.7720  176.7960  137.0540 N   0  0  0  0  0  2  0  0  0  0  0  0
  182.1360  176.7860  138.2410 C   0  0  0  0  0  0  0  0  0  0  0  0
  183.0740  174.8720  138.1300 N   0  0  0  0  0  0  0  0  0  0  0  0
  183.3540  175.5810  137.0190 C   0  0  0  0  0  3  0  0  0  0  0  0
  181.2370  180.2910  139.4770 C   0  0  0  0  0  2  0  0  0  0  0  0
  181.5580  181.0030  138.1740 C   0  0  0  0  0  2  0  0  0  0  0  0
  181.0890  182.4440  138.2340 C   0  0  0  0  0  2  0  0  0  0  0  0
  180.7750  182.9210  136.8950 N   0  0  0  0  0  0  0  0  0  0  0  0
  181.9050  184.9700  137.2760 N   0  0  0  0  0  1  0  0  0  0  0  0
  181.1490  184.0810  136.4550 C   0  0  0  0  0  0  0  0  0  0  0  0
  180.8020  184.4750  135.1330 N   0  0  0  0  0  1  0  0  0  0  0  0
  1  4  2  0  0  0  0
  1 10  1  0  0  0  0
  2 10  2  0  0  0  0
  2  6  1  0  0  0  0
  3  5  1  0  0  0  0
  4 11  1  0  0  0  0
  6  9  2  0  0  0  0
  7  2  1  0  0  0  0
  8  3  2  0  0  0  0
  9 14  1  0  0  0  0
 10 15  1  0  0  0  0
 11 13  2  0  0  0  0
 11  8  1  0  0  0  0
 12  5  2  0  0  0  0
 13 12  1  0  0  0  0
 15 14  2  0  0  0  0
 15  8  1  0  0  0  0
 16 17  2  0  0  0  0
 17 18  1  0  0  0  0
 18  4  1  0  0  0  0
 20 21  1  0  0  0  0
 21 17  1  0  0  0  0
 21 19  2  0  0  0  0
 22 19  1  0  0  0  0
 23 20  1  0  0  0  0
 23 22  2  0  0  0  0
 24 18  1  0  0  0  0
 25 26  1  0  0  0  0
 25 24  1  0  0  0  0
 27 26  1  0  0  0  0
 29 27  2  0  0  0  0
 29 28  1  0  0  0  0
 30 29  1  0  0  0  0
M  END
>  <MODEL>
8

>  <REMARK>
 VINA RESULT:      -8.0      4.900      8.268
  Name = 
  6 active torsions:
  status: ('A' for Active; 'I' for Inactive)
    1  A    between atoms: C_4  and  N_13
    2  A    between atoms: N_7  and  C_16
    3  A    between atoms: C_8  and  C_12
    4  A    between atoms: N_13  and  C_27
    5  A    between atoms: C_16  and  C_30
    6  A    between atoms: C_27  and  C_30
                            x       y       z     vdW  Elec       q    Type
                         _______ _______ _______ _____ _____    ______ ____

>  <TORSDO>
F 6

$$$$
=
 OpenBabel10262421543D

 30 33  0  0  0  0  0  0  0  0999 V2000
  187.3860  178.3280  140.5700 C   0  0  0  0  0  3  0  0  0  0  0  0
  185.3210  178.9190  141.7100 C   0  0  0  0  0  0  0  0  0  0  0  0
  188.9970  176.9070  144.1450 N   0  0  0  0  0  0  0  0  0  0  0  0
  188.6870  177.8110  140.5790 C   0  0  0  0  0  0  0  0  0  0  0  0
  190.2420  176.3640  144.1990 C   0  0  0  0  0  3  0  0  0  0  0  0
  184.5670  178.9810  142.8850 C   0  0  0  0  0  3  0  0  0  0  0  0
  184.7670  179.3850  140.5220 O   0  0  0  0  0  1  0  0  0  0  0  0
  188.4650  177.3820  142.9820 C   0  0  0  0  0  0  0  0  0  0  0  0
  185.1010  178.5190  144.0900 C   0  0  0  0  0  3  0  0  0  0  0  0
  186.6220  178.3900  141.7380 C   0  0  0  0  0  0  0  0  0  0  0  0
  189.2250  177.3210  141.7880 C   0  0  0  0  0  0  0  0  0  0  0  0
  191.0170  176.2730  143.0430 C   0  0  0  0  0  3  0  0  0  0  0  0
  190.5040  176.7510  141.8390 C   0  0  0  0  0  3  0  0  0  0  0  0
  186.3930  177.9910  144.1270 C   0  0  0  0  0  3  0  0  0  0  0  0
  187.1650  177.9200  142.9580 C   0  0  0  0  0  0  0  0  0  0  0  0
  189.5230  178.4170  137.1050 O   0  0  0  0  0  0  0  0  0  0  0  0
  188.8230  177.9870  138.0610 C   0  0  0  0  0  0  0  0  0  0  0  0
  189.4360  177.7790  139.3500 N   0  0  0  0  0  0  0  0  0  0  0  0
  186.4450  178.6280  137.7510 N   0  0  0  0  0  0  0  0  0  0  0  0
  186.9090  176.4500  137.5930 N   0  0  0  0  0  0  0  0  0  0  0  0
  187.3990  177.6850  137.8140 C   0  0  0  0  0  0  0  0  0  0  0  0
  185.3120  177.9960  137.4970 N   0  0  0  0  0  2  0  0  0  0  0  0
  185.5960  176.6820  137.4020 C   0  0  0  0  0  3  0  0  0  0  0  0
  190.8670  177.5030  139.4170 C   0  0  0  0  0  2  0  0  0  0  0  0
  191.1770  176.1890  138.7190 C   0  0  0  0  0  2  0  0  0  0  0  0
  192.2300  176.4010  137.6480 C   0  0  0  0  0  2  0  0  0  0  0  0
  193.5550  176.1510  138.1960 N   0  0  0  0  0  0  0  0  0  0  0  0
  193.6410  173.9960  137.2110 N   0  0  0  0  0  1  0  0  0  0  0  0
  194.2030  175.0460  137.9960 C   0  0  0  0  0  0  0  0  0  0  0  0
  195.4940  174.8780  138.5670 N   0  0  0  0  0  1  0  0  0  0  0  0
  1  4  2  0  0  0  0
  1 10  1  0  0  0  0
  2 10  2  0  0  0  0
  2  6  1  0  0  0  0
  3  5  1  0  0  0  0
  4 11  1  0  0  0  0
  6  9  2  0  0  0  0
  7  2  1  0  0  0  0
  8  3  2  0  0  0  0
  9 14  1  0  0  0  0
 10 15  1  0  0  0  0
 11 13  2  0  0  0  0
 11  8  1  0  0  0  0
 12  5  2  0  0  0  0
 13 12  1  0  0  0  0
 15  8  1  0  0  0  0
 15 14  2  0  0  0  0
 16 17  2  0  0  0  0
 17 18  1  0  0  0  0
 18 24  1  0  0  0  0
 18  4  1  0  0  0  0
 19 21  2  0  0  0  0
 20 21  1  0  0  0  0
 21 17  1  0  0  0  0
 22 19  1  0  0  0  0
 23 22  1  0  0  0  0
 23 20  2  0  0  0  0
 25 24  1  0  0  0  0
 26 27  1  0  0  0  0
 26 25  1  0  0  0  0
 28 29  1  0  0  0  0
 29 27  2  0  0  0  0
 29 30  1  0  0  0  0
M  END
>  <MODEL>
9

>  <REMARK>
 VINA RESULT:      -8.0      2.594      5.191
  Name = 
  6 active torsions:
  status: ('A' for Active; 'I' for Inactive)
    1  A    between atoms: C_4  and  N_13
    2  A    between atoms: N_7  and  C_16
    3  A    between atoms: C_8  and  C_12
    4  A    between atoms: N_13  and  C_27
    5  A    between atoms: C_16  and  C_30
    6  A    between atoms: C_27  and  C_30
                            x       y       z     vdW  Elec       q    Type
                         _______ _______ _______ _____ _____    ______ ____

>  <TORSDO>
F 6

$$$$
