=
 OpenBabel10262423303D

 34 40  0  0  1  0  0  0  0  0999 V2000
  185.4560  178.2460  143.2410 C   0  0  0  0  0  0  0  0  0  0  0  0
  182.0620  179.2430  144.3000 C   0  0  0  0  0  3  0  0  0  0  0  0
  184.0600  178.8780  145.5560 N   0  0  0  0  0  0  0  0  0  0  0  0
  188.4010  177.0530  143.2040 S   0  0  0  0  0  0  0  0  0  0  0  0
  186.2200  178.1160  142.0370 N   0  0  0  0  0  2  0  0  0  0  0  0
  187.4770  177.6480  144.6270 C   0  0  0  0  0  0  0  0  0  0  0  0
  187.2230  177.6640  147.1020 C   0  0  0  0  0  2  0  0  0  0  0  0
  188.0200  177.4860  145.8370 C   0  0  0  0  0  3  0  0  0  0  0  0
  187.6720  178.2530  142.0490 C   0  0  2  0  0  3  0  0  0  0  0  0
  185.3660  178.5130  145.6490 C   0  0  0  0  0  0  0  0  0  0  0  0
  186.0780  178.1300  144.4980 C   0  0  0  0  0  0  0  0  0  0  0  0
  186.0930  178.6830  146.9500 C   0  0  0  0  0  2  0  0  0  0  0  0
  181.4140  179.3070  143.0610 C   0  0  0  0  0  0  0  0  0  0  0  0
  182.1340  178.9830  141.9020 C   0  0  0  0  0  3  0  0  0  0  0  0
  183.4080  178.8870  144.3650 C   0  0  0  0  0  0  0  0  0  0  0  0
  183.4480  178.6420  141.9800 N   0  0  0  0  0  0  0  0  0  0  0  0
  184.0990  178.5820  143.1750 C   0  0  0  0  0  0  0  0  0  0  0  0
  187.9970  178.0320  138.1970 C   0  0  0  0  0  2  0  0  0  0  0  0
  189.5810  177.6030  140.5310 N   0  0  0  0  0  2  0  0  0  0  0  0
  190.8480  175.8760  136.8960 N   0  0  0  0  0  0  0  0  0  0  0  0
  189.7710  176.8700  136.8350 C   0  0  0  0  0  2  0  0  0  0  0  0
  189.1270  177.0080  138.2080 C   0  0  1  0  0  3  0  0  0  0  0  0
  191.3450  176.4840  139.2350 C   0  0  0  0  0  2  0  0  0  0  0  0
  190.1850  177.4690  139.2090 C   0  0  2  0  0  3  0  0  0  0  0  0
  191.8990  176.3410  137.8170 C   0  0  0  0  0  2  0  0  0  0  0  0
  188.2320  178.0730  140.6750 C   0  0  0  0  0  0  0  0  0  0  0  0
  187.4560  178.2310  139.5890 C   0  0  0  0  0  3  0  0  0  0  0  0
  191.3840  175.7100  135.5410 C   0  0  1  0  0  3  0  0  0  0  0  0
  190.7320  176.5360  134.6180 O   0  0  0  0  0  1  0  0  0  0  0  0
  192.8790  175.9730  135.5170 C   0  0  0  0  0  1  0  0  0  0  0  0
  179.0470  178.5040  142.6170 N   0  0  0  0  0  0  0  0  0  0  0  0
  179.1570  178.9300  144.0180 C   0  0  0  0  0  2  0  0  0  0  0  0
  179.7060  177.2010  142.5510 C   0  0  0  0  0  1  0  0  0  0  0  0
  179.9400  179.6360  143.0030 C   0  0  1  0  0  3  0  0  0  0  0  0
  1 11  1  0  0  0  0
  2 15  1  0  0  0  0
  3 10  1  0  0  0  0
  4  6  1  0  0  0  0
  5  9  1  0  0  0  0
  5  1  1  0  0  0  0
  6  8  2  0  0  0  0
  8  7  1  0  0  0  0
  9 26  1  6  0  0  0
  9  4  1  0  0  0  0
 10 12  1  0  0  0  0
 11  6  1  0  0  0  0
 11 10  2  0  0  0  0
 12  7  1  0  0  0  0
 13  2  2  0  0  0  0
 14 16  2  0  0  0  0
 14 13  1  0  0  0  0
 15  3  2  0  0  0  0
 16 17  1  0  0  0  0
 17  1  2  0  0  0  0
 17 15  1  0  0  0  0
 18 22  1  0  0  0  0
 18 27  1  0  0  0  0
 19 26  1  0  0  0  0
 20 25  1  0  0  0  0
 21 20  1  0  0  0  0
 22 21  1  6  0  0  0
 22 24  1  0  0  0  0
 24 23  1  1  0  0  0
 24 19  1  0  0  0  0
 25 23  1  0  0  0  0
 27 26  2  0  0  0  0
 28 30  1  1  0  0  0
 28 20  1  0  0  0  0
 29 28  1  0  0  0  0
 31 34  1  0  0  0  0
 31 32  1  0  0  0  0
 33 31  1  0  0  0  0
 34 13  1  1  0  0  0
 34 32  1  0  0  0  0
M  END
>  <MODEL>
1

>  <REMARK>
 VINA RESULT:      -9.8      0.000      0.000
  Name = 
  3 active torsions:
  status: ('A' for Active; 'I' for Inactive)
    1  A    between atoms: N_7  and  C_11
    2  A    between atoms: C_18  and  C_30
    3  A    between atoms: C_23  and  C_25
                            x       y       z     vdW  Elec       q    Type
                         _______ _______ _______ _____ _____    ______ ____

>  <TORSDO>
F 3

$$$$
=
 OpenBabel10262423303D

 34 40  0  0  1  0  0  0  0  0999 V2000
  188.8610  177.5060  142.4480 C   0  0  0  0  0  0  0  0  0  0  0  0
  191.0350  176.6390  139.5910 C   0  0  0  0  0  3  0  0  0  0  0  0
  191.3170  176.3150  141.9400 N   0  0  0  0  0  0  0  0  0  0  0  0
  187.8150  178.2710  145.3490 S   0  0  0  0  0  0  0  0  0  0  0  0
  187.5170  177.9350  142.6950 N   0  0  0  0  0  2  0  0  0  0  0  0
  189.3030  177.3520  144.9260 C   0  0  0  0  0  0  0  0  0  0  0  0
  191.5410  176.5430  145.6510 C   0  0  0  0  0  2  0  0  0  0  0  0
  190.1420  177.0330  145.9150 C   0  0  0  0  0  3  0  0  0  0  0  0
  186.8470  177.6250  143.9520 C   0  0  2  0  0  3  0  0  0  0  0  0
  190.9060  176.4640  143.2280 C   0  0  0  0  0  0  0  0  0  0  0  0
  189.6940  177.1180  143.5130 C   0  0  0  0  0  0  0  0  0  0  0  0
  191.6600  175.7800  144.3300 C   0  0  0  0  0  2  0  0  0  0  0  0
  190.2410  177.0730  138.5230 C   0  0  0  0  0  0  0  0  0  0  0  0
  189.0050  177.6740  138.7970 C   0  0  0  0  0  3  0  0  0  0  0  0
  190.5800  176.7840  140.9000 C   0  0  0  0  0  0  0  0  0  0  0  0
  188.5710  177.8040  140.0800 N   0  0  0  0  0  0  0  0  0  0  0  0
  189.3240  177.3820  141.1330 C   0  0  0  0  0  0  0  0  0  0  0  0
  183.4390  179.0090  145.1580 C   0  0  0  0  0  2  0  0  0  0  0  0
  184.7430  178.2860  142.7260 N   0  0  0  0  0  0  0  0  0  0  0  0
  180.5360  178.6080  142.7340 N   0  0  0  0  0  0  0  0  0  0  0  0
  181.2570  179.1250  143.9020 C   0  0  0  0  0  2  0  0  0  0  0  0
  182.6470  178.5040  143.9570 C   0  0  1  0  0  3  0  0  0  0  0  0
  182.6390  178.4090  141.4590 C   0  0  0  0  0  2  0  0  0  0  0  0
  183.4090  178.8770  142.6860 C   0  0  2  0  0  3  0  0  0  0  0  0
  181.2350  179.0130  141.5020 C   0  0  0  0  0  2  0  0  0  0  0  0
  185.4610  178.1820  143.9650 C   0  0  0  0  0  0  0  0  0  0  0  0
  184.8450  178.4690  145.1250 C   0  0  0  0  0  2  0  0  0  0  0  0
  179.1780  179.1600  142.7620 C   0  0  1  0  0  3  0  0  0  0  0  0
  178.9310  179.8710  143.9430 O   0  0  0  0  0  1  0  0  0  0  0  0
  178.9310  180.0470  141.5550 C   0  0  0  0  0  1  0  0  0  0  0  0
  190.4050  175.7110  136.3870 N   0  0  0  0  0  0  0  0  0  0  0  0
  189.7030  176.9700  136.1030 C   0  0  0  0  0  2  0  0  0  0  0  0
  189.4330  174.8670  137.0760 C   0  0  0  0  0  1  0  0  0  0  0  0
  190.7660  176.9660  137.1090 C   0  0  1  0  0  3  0  0  0  0  0  0
  1  5  1  0  0  0  0
  1 11  1  0  0  0  0
  2 15  1  0  0  0  0
  3 10  1  0  0  0  0
  5  9  1  0  0  0  0
  6  4  1  0  0  0  0
  6  8  2  0  0  0  0
  7  8  1  0  0  0  0
  9 26  1  6  0  0  0
  9  4  1  0  0  0  0
 10 11  2  0  0  0  0
 10 12  1  0  0  0  0
 11  6  1  0  0  0  0
 12  7  1  0  0  0  0
 13 14  1  0  0  0  0
 13  2  2  0  0  0  0
 14 16  2  0  0  0  0
 15 17  1  0  0  0  0
 15  3  2  0  0  0  0
 16 17  1  0  0  0  0
 17  1  2  0  0  0  0
 19 26  2  0  0  0  0
 20 28  1  0  0  0  0
 20 21  1  0  0  0  0
 22 21  1  6  0  0  0
 22 18  1  0  0  0  0
 23 25  1  0  0  0  0
 24 23  1  6  0  0  0
 24 19  1  0  0  0  0
 24 22  1  0  0  0  0
 25 20  1  0  0  0  0
 26 27  1  0  0  0  0
 27 18  1  0  0  0  0
 28 30  1  6  0  0  0
 28 29  1  0  0  0  0
 31 33  1  0  0  0  0
 31 34  1  0  0  0  0
 32 31  1  0  0  0  0
 32 34  1  0  0  0  0
 34 13  1  1  0  0  0
M  END
>  <MODEL>
2

>  <REMARK>
 VINA RESULT:      -9.7      3.187      9.010
  Name = 
  3 active torsions:
  status: ('A' for Active; 'I' for Inactive)
    1  A    between atoms: N_7  and  C_11
    2  A    between atoms: C_18  and  C_30
    3  A    between atoms: C_23  and  C_25
                            x       y       z     vdW  Elec       q    Type
                         _______ _______ _______ _____ _____    ______ ____

>  <TORSDO>
F 3

$$$$
=
 OpenBabel10262423303D

 34 40  0  0  1  0  0  0  0  0999 V2000
  189.5760  176.9910  138.2250 C   0  0  0  0  0  0  0  0  0  0  0  0
  187.1740  176.5920  135.4470 C   0  0  0  0  0  3  0  0  0  0  0  0
  189.4970  176.0590  135.6100 N   0  0  0  0  0  0  0  0  0  0  0  0
  192.2470  177.3760  139.9010 S   0  0  0  0  0  0  0  0  0  0  0  0
  189.5700  177.2830  139.6270 N   0  0  0  0  0  2  0  0  0  0  0  0
  192.0710  176.6280  138.2750 C   0  0  0  0  0  0  0  0  0  0  0  0
  193.1790  175.9360  136.1580 C   0  0  0  0  0  2  0  0  0  0  0  0
  193.1840  176.2820  137.6230 C   0  0  0  0  0  3  0  0  0  0  0  0
  190.6310  176.7960  140.5000 C   0  0  2  0  0  3  0  0  0  0  0  0
  190.6780  176.0460  136.2830 C   0  0  0  0  0  0  0  0  0  0  0  0
  190.7560  176.5680  137.5870 C   0  0  0  0  0  0  0  0  0  0  0  0
  191.8550  175.3200  135.7010 C   0  0  0  0  0  2  0  0  0  0  0  0
  186.0030  177.0630  136.0500 C   0  0  0  0  0  0  0  0  0  0  0  0
  186.0610  177.5320  137.3700 C   0  0  0  0  0  3  0  0  0  0  0  0
  188.3680  176.5690  136.1670 C   0  0  0  0  0  0  0  0  0  0  0  0
  187.2310  177.4980  138.0620 N   0  0  0  0  0  0  0  0  0  0  0  0
  188.3810  177.0360  137.4970 C   0  0  0  0  0  0  0  0  0  0  0  0
  191.2190  177.9540  144.1470 C   0  0  0  0  0  2  0  0  0  0  0  0
  189.0630  177.2090  142.4340 N   0  0  0  0  0  0  0  0  0  0  0  0
  188.4220  177.1760  146.6040 N   0  0  0  0  0  0  0  0  0  0  0  0
  189.6470  177.8160  146.1120 C   0  0  0  0  0  2  0  0  0  0  0  0
  189.9500  177.3180  144.7050 C   0  0  1  0  0  3  0  0  0  0  0  0
  187.4920  177.0840  144.3210 C   0  0  0  0  0  2  0  0  0  0  0  0
  188.7850  177.6820  143.7860 C   0  0  2  0  0  3  0  0  0  0  0  0
  187.2830  177.5690  145.7560 C   0  0  0  0  0  2  0  0  0  0  0  0
  190.4000  177.2350  141.9100 C   0  0  0  0  0  0  0  0  0  0  0  0
  191.4330  177.5330  142.7170 C   0  0  0  0  0  2  0  0  0  0  0  0
  188.2100  177.6130  147.9880 C   0  0  1  0  0  3  0  0  0  0  0  0
  189.3650  178.1850  148.5350 O   0  0  0  0  0  1  0  0  0  0  0  0
  187.0500  178.5890  148.0740 C   0  0  0  0  0  1  0  0  0  0  0  0
  183.8720  175.9170  135.2820 N   0  0  0  0  0  0  0  0  0  0  0  0
  183.5220  177.1020  136.0770 C   0  0  0  0  0  2  0  0  0  0  0  0
  184.2930  174.9070  136.2490 C   0  0  0  0  0  1  0  0  0  0  0  0
  184.7260  177.1410  135.2450 C   0  0  1  0  0  3  0  0  0  0  0  0
  1  5  1  0  0  0  0
  2 13  2  0  0  0  0
  2 15  1  0  0  0  0
  3 15  2  0  0  0  0
  3 10  1  0  0  0  0
  4  9  1  0  0  0  0
  5  9  1  0  0  0  0
  6  4  1  0  0  0  0
  7  8  1  0  0  0  0
  8  6  2  0  0  0  0
  9 26  1  1  0  0  0
 10 11  2  0  0  0  0
 11  1  1  0  0  0  0
 11  6  1  0  0  0  0
 12  7  1  0  0  0  0
 12 10  1  0  0  0  0
 13 14  1  0  0  0  0
 14 16  2  0  0  0  0
 15 17  1  0  0  0  0
 17 16  1  0  0  0  0
 17  1  2  0  0  0  0
 19 24  1  0  0  0  0
 20 28  1  0  0  0  0
 21 20  1  0  0  0  0
 22 18  1  6  0  0  0
 22 21  1  0  0  0  0
 23 25  1  0  0  0  0
 24 23  1  1  0  0  0
 24 22  1  0  0  0  0
 25 20  1  0  0  0  0
 26 19  2  0  0  0  0
 26 27  1  0  0  0  0
 27 18  1  0  0  0  0
 28 30  1  6  0  0  0
 28 29  1  0  0  0  0
 31 32  1  0  0  0  0
 31 33  1  0  0  0  0
 34 31  1  0  0  0  0
 34 13  1  1  0  0  0
 34 32  1  0  0  0  0
M  END
>  <MODEL>
3

>  <REMARK>
 VINA RESULT:      -9.2      4.730      8.876
  Name = 
  3 active torsions:
  status: ('A' for Active; 'I' for Inactive)
    1  A    between atoms: N_7  and  C_11
    2  A    between atoms: C_18  and  C_30
    3  A    between atoms: C_23  and  C_25
                            x       y       z     vdW  Elec       q    Type
                         _______ _______ _______ _____ _____    ______ ____

>  <TORSDO>
F 3

$$$$
=
 OpenBabel10262423303D

 34 40  0  0  1  0  0  0  0  0999 V2000
  182.6130  178.4790  140.8540 C   0  0  0  0  0  0  0  0  0  0  0  0
  182.1820  178.2640  137.1920 C   0  0  0  0  0  3  0  0  0  0  0  0
  180.8900  179.3720  138.8690 N   0  0  0  0  0  0  0  0  0  0  0  0
  182.0560  178.7820  143.9680 S   0  0  0  0  0  0  0  0  0  0  0  0
  183.6040  178.1890  141.8460 N   0  0  0  0  0  2  0  0  0  0  0  0
  181.0960  179.4670  142.6100 C   0  0  0  0  0  0  0  0  0  0  0  0
  178.9310  180.4300  141.8540 C   0  0  0  0  0  2  0  0  0  0  0  0
  179.9520  180.0900  142.9060 C   0  0  0  0  0  3  0  0  0  0  0  0
  183.6490  178.9270  143.1030 C   0  0  2  0  0  3  0  0  0  0  0  0
  180.6250  179.6840  140.1650 C   0  0  0  0  0  0  0  0  0  0  0  0
  181.4490  179.1930  141.1940 C   0  0  0  0  0  0  0  0  0  0  0  0
  179.5580  180.6890  140.4830 C   0  0  0  0  0  2  0  0  0  0  0  0
  183.3060  177.5070  136.8450 C   0  0  0  0  0  0  0  0  0  0  0  0
  184.1640  177.0630  137.8600 C   0  0  0  0  0  3  0  0  0  0  0  0
  181.9460  178.5880  138.5270 C   0  0  0  0  0  0  0  0  0  0  0  0
  183.9240  177.3910  139.1580 N   0  0  0  0  0  0  0  0  0  0  0  0
  182.8410  178.1340  139.5170 C   0  0  0  0  0  0  0  0  0  0  0  0
  185.8740  178.1630  146.1770 C   0  0  0  0  0  2  0  0  0  0  0  0
  185.9300  177.8730  143.3400 N   0  0  0  0  0  0  0  0  0  0  0  0
  189.5710  177.6370  145.4570 N   0  0  0  0  0  0  0  0  0  0  0  0
  188.3310  177.6020  146.2380 C   0  0  0  0  0  2  0  0  0  0  0  0
  187.1900  178.1760  145.4070 C   0  0  1  0  0  3  0  0  0  0  0  0
  188.3210  177.3000  143.3570 C   0  0  0  0  0  2  0  0  0  0  0  0
  187.0190  177.3320  144.1460 C   0  0  2  0  0  3  0  0  0  0  0  0
  189.4330  176.7790  144.2680 C   0  0  0  0  0  2  0  0  0  0  0  0
  184.7670  178.4380  143.9650 C   0  0  0  0  0  0  0  0  0  0  0  0
  184.7450  178.6290  145.2960 C   0  0  0  0  0  2  0  0  0  0  0  0
  190.6580  177.1580  146.3170 C   0  0  1  0  0  3  0  0  0  0  0  0
  190.1790  176.3760  147.3740 O   0  0  0  0  0  1  0  0  0  0  0  0
  191.6810  176.3780  145.5090 C   0  0  0  0  0  1  0  0  0  0  0  0
  182.9730  175.7760  135.0180 N   0  0  0  0  0  0  0  0  0  0  0  0
  182.2770  177.0140  134.6420 C   0  0  0  0  0  2  0  0  0  0  0  0
  182.1320  175.1460  136.0320 C   0  0  0  0  0  1  0  0  0  0  0  0
  183.5230  177.1090  135.4030 C   0  0  1  0  0  3  0  0  0  0  0  0
  1 11  1  0  0  0  0
  1  5  1  0  0  0  0
  2 15  1  0  0  0  0
  3 10  1  0  0  0  0
  5  9  1  0  0  0  0
  6  8  2  0  0  0  0
  6  4  1  0  0  0  0
  7  8  1  0  0  0  0
  9 26  1  1  0  0  0
  9  4  1  0  0  0  0
 10 12  1  0  0  0  0
 10 11  2  0  0  0  0
 11  6  1  0  0  0  0
 12  7  1  0  0  0  0
 13  2  2  0  0  0  0
 13 14  1  0  0  0  0
 14 16  2  0  0  0  0
 15  3  2  0  0  0  0
 15 17  1  0  0  0  0
 16 17  1  0  0  0  0
 17  1  2  0  0  0  0
 19 26  2  0  0  0  0
 19 24  1  0  0  0  0
 20 21  1  0  0  0  0
 20 28  1  0  0  0  0
 22 18  1  1  0  0  0
 22 21  1  0  0  0  0
 23 25  1  0  0  0  0
 24 23  1  6  0  0  0
 24 22  1  0  0  0  0
 25 20  1  0  0  0  0
 26 27  1  0  0  0  0
 27 18  1  0  0  0  0
 28 30  1  6  0  0  0
 28 29  1  0  0  0  0
 31 34  1  0  0  0  0
 31 33  1  0  0  0  0
 32 31  1  0  0  0  0
 32 34  1  0  0  0  0
 34 13  1  1  0  0  0
M  END
>  <MODEL>
4

>  <REMARK>
 VINA RESULT:      -9.0      4.442      7.496
  Name = 
  3 active torsions:
  status: ('A' for Active; 'I' for Inactive)
    1  A    between atoms: N_7  and  C_11
    2  A    between atoms: C_18  and  C_30
    3  A    between atoms: C_23  and  C_25
                            x       y       z     vdW  Elec       q    Type
                         _______ _______ _______ _____ _____    ______ ____

>  <TORSDO>
F 3

$$$$
=
 OpenBabel10262423303D

 34 40  0  0  1  0  0  0  0  0999 V2000
  190.9010  176.1940  137.7420 C   0  0  0  0  0  0  0  0  0  0  0  0
  193.0830  174.6260  135.2070 C   0  0  0  0  0  3  0  0  0  0  0  0
  191.1280  175.9800  134.9820 N   0  0  0  0  0  0  0  0  0  0  0  0
  188.3970  177.4580  139.2330 S   0  0  0  0  0  0  0  0  0  0  0  0
  190.8990  176.4690  139.1470 N   0  0  0  0  0  2  0  0  0  0  0  0
  188.7170  177.4230  137.4630 C   0  0  0  0  0  0  0  0  0  0  0  0
  187.7890  177.6200  135.1640 C   0  0  0  0  0  2  0  0  0  0  0  0
  187.7620  177.8760  136.6470 C   0  0  0  0  0  3  0  0  0  0  0  0
  190.1510  177.5960  139.6920 C   0  0  2  0  0  3  0  0  0  0  0  0
  190.0820  176.6710  135.5100 C   0  0  0  0  0  0  0  0  0  0  0  0
  189.9120  176.7430  136.9050 C   0  0  0  0  0  0  0  0  0  0  0  0
  189.2100  177.4970  134.6110 C   0  0  0  0  0  2  0  0  0  0  0  0
  194.0440  174.0270  136.0300 C   0  0  0  0  0  0  0  0  0  0  0  0
  193.9130  174.1440  137.4210 C   0  0  0  0  0  3  0  0  0  0  0  0
  192.0330  175.3470  135.7740 C   0  0  0  0  0  0  0  0  0  0  0  0
  192.8850  174.8540  137.9590 N   0  0  0  0  0  0  0  0  0  0  0  0
  191.9450  175.4520  137.1770 C   0  0  0  0  0  0  0  0  0  0  0  0
  191.6800  177.5360  143.2480 C   0  0  0  0  0  2  0  0  0  0  0  0
  189.1320  177.7950  141.9920 N   0  0  0  0  0  2  0  0  0  0  0  0
  189.2640  176.7530  146.0780 N   0  0  0  0  0  0  0  0  0  0  0  0
  190.5090  177.2140  145.4560 C   0  0  0  0  0  2  0  0  0  0  0  0
  190.4060  177.0710  143.9430 C   0  0  1  0  0  3  0  0  0  0  0  0
  187.9520  177.5070  144.1300 C   0  0  0  0  0  2  0  0  0  0  0  0
  189.2430  177.9250  143.4410 C   0  0  2  0  0  3  0  0  0  0  0  0
  188.1460  177.6090  145.6430 C   0  0  0  0  0  2  0  0  0  0  0  0
  190.3060  177.6670  141.1770 C   0  0  0  0  0  0  0  0  0  0  0  0
  191.5080  177.4920  141.7520 C   0  0  0  0  0  3  0  0  0  0  0  0
  189.4330  176.8250  147.5330 C   0  0  1  0  0  3  0  0  0  0  0  0
  190.7530  177.1290  147.8880 O   0  0  0  0  0  1  0  0  0  0  0  0
  188.4800  177.8410  148.1370 C   0  0  0  0  0  1  0  0  0  0  0  0
  196.3980  173.9420  135.0850 N   0  0  0  0  0  0  0  0  0  0  0  0
  196.3230  173.0800  136.2720 C   0  0  0  0  0  2  0  0  0  0  0  0
  196.4480  175.3090  135.5970 C   0  0  0  0  0  1  0  0  0  0  0  0
  195.1460  173.1980  135.4120 C   0  0  1  0  0  3  0  0  0  0  0  0
  1  5  1  0  0  0  0
  2 15  2  0  0  0  0
  2 13  1  0  0  0  0
  3 10  2  0  0  0  0
  3 15  1  0  0  0  0
  4  9  1  0  0  0  0
  5  9  1  0  0  0  0
  6  4  1  0  0  0  0
  7  8  1  0  0  0  0
  8  6  2  0  0  0  0
  9 26  1  1  0  0  0
 10 11  1  0  0  0  0
 11  6  1  0  0  0  0
 11  1  2  0  0  0  0
 12  7  1  0  0  0  0
 12 10  1  0  0  0  0
 13 14  2  0  0  0  0
 14 16  1  0  0  0  0
 15 17  1  0  0  0  0
 17  1  1  0  0  0  0
 17 16  2  0  0  0  0
 19 24  1  0  0  0  0
 20 28  1  0  0  0  0
 21 20  1  0  0  0  0
 22 18  1  6  0  0  0
 22 21  1  0  0  0  0
 23 25  1  0  0  0  0
 24 22  1  0  0  0  0
 24 23  1  1  0  0  0
 25 20  1  0  0  0  0
 26 27  2  0  0  0  0
 26 19  1  0  0  0  0
 27 18  1  0  0  0  0
 28 29  1  0  0  0  0
 28 30  1  6  0  0  0
 31 34  1  0  0  0  0
 31 33  1  0  0  0  0
 31 32  1  0  0  0  0
 34 13  1  1  0  0  0
 34 32  1  0  0  0  0
M  END
>  <MODEL>
5

>  <REMARK>
 VINA RESULT:      -8.8      4.894     11.258
  Name = 
  3 active torsions:
  status: ('A' for Active; 'I' for Inactive)
    1  A    between atoms: N_7  and  C_11
    2  A    between atoms: C_18  and  C_30
    3  A    between atoms: C_23  and  C_25
                            x       y       z     vdW  Elec       q    Type
                         _______ _______ _______ _____ _____    ______ ____

>  <TORSDO>
F 3

$$$$
=
 OpenBabel10262423303D

 34 40  0  0  1  0  0  0  0  0999 V2000
  186.1610  178.0060  143.5270 C   0  0  0  0  0  0  0  0  0  0  0  0
  182.6060  178.9800  143.2950 C   0  0  0  0  0  3  0  0  0  0  0  0
  184.1500  179.0770  145.1150 N   0  0  0  0  0  0  0  0  0  0  0  0
  188.9860  177.0560  144.6270 S   0  0  0  0  0  0  0  0  0  0  0  0
  187.2430  177.6440  142.6620 N   0  0  0  0  0  2  0  0  0  0  0  0
  187.6880  177.9110  145.5320 C   0  0  0  0  0  0  0  0  0  0  0  0
  186.7230  178.5070  147.7460 C   0  0  0  0  0  2  0  0  0  0  0  0
  187.8540  178.0860  146.8460 C   0  0  0  0  0  3  0  0  0  0  0  0
  188.6280  177.8840  143.0490 C   0  0  2  0  0  3  0  0  0  0  0  0
  185.3720  178.8410  145.6620 C   0  0  0  0  0  0  0  0  0  0  0  0
  186.3880  178.2440  144.8950 C   0  0  0  0  0  0  0  0  0  0  0  0
  185.6880  179.3740  147.0280 C   0  0  0  0  0  2  0  0  0  0  0  0
  182.3480  178.6950  141.9490 C   0  0  0  0  0  0  0  0  0  0  0  0
  183.3740  178.1530  141.1630 C   0  0  0  0  0  3  0  0  0  0  0  0
  183.8740  178.7500  143.8250 C   0  0  0  0  0  0  0  0  0  0  0  0
  184.6080  177.9380  141.6930 N   0  0  0  0  0  0  0  0  0  0  0  0
  184.8820  178.2160  142.9970 C   0  0  0  0  0  0  0  0  0  0  0  0
  191.8480  177.1560  141.0260 C   0  0  0  0  0  2  0  0  0  0  0  0
  189.0190  176.8930  140.7610 N   0  0  0  0  0  0  0  0  0  0  0  0
  191.3890  176.7410  137.2740 N   0  0  0  0  0  0  0  0  0  0  0  0
  192.0790  176.6630  138.5650 C   0  0  0  0  0  2  0  0  0  0  0  0
  191.1730  177.2130  139.6600 C   0  0  1  0  0  3  0  0  0  0  0  0
  189.2030  176.3870  138.3620 C   0  0  0  0  0  2  0  0  0  0  0  0
  189.8970  176.3750  139.7170 C   0  0  2  0  0  3  0  0  0  0  0  0
  190.1870  175.8900  137.3020 C   0  0  0  0  0  2  0  0  0  0  0  0
  189.5640  177.4180  141.9810 C   0  0  0  0  0  0  0  0  0  0  0  0
  190.8910  177.5970  142.1030 C   0  0  0  0  0  2  0  0  0  0  0  0
  192.3210  176.2850  136.2370 C   0  0  1  0  0  3  0  0  0  0  0  0
  193.6260  176.1610  136.7290 O   0  0  0  0  0  1  0  0  0  0  0  0
  191.8580  174.9690  135.6380 C   0  0  0  0  0  1  0  0  0  0  0  0
  180.8810  179.6370  140.1040 N   0  0  0  0  0  0  0  0  0  0  0  0
  180.7330  178.1750  140.1400 C   0  0  0  0  0  2  0  0  0  0  0  0
  182.1710  179.8840  139.4650 C   0  0  0  0  0  1  0  0  0  0  0  0
  180.9560  178.8920  141.3960 C   0  0  1  0  0  3  0  0  0  0  0  0
  1 11  1  0  0  0  0
  2 15  1  0  0  0  0
  3 10  1  0  0  0  0
  4  6  1  0  0  0  0
  5  9  1  0  0  0  0
  5  1  1  0  0  0  0
  6  8  2  0  0  0  0
  8  7  1  0  0  0  0
  9 26  1  6  0  0  0
  9  4  1  0  0  0  0
 10 12  1  0  0  0  0
 11  6  1  0  0  0  0
 11 10  2  0  0  0  0
 12  7  1  0  0  0  0
 13  2  2  0  0  0  0
 14 16  2  0  0  0  0
 14 13  1  0  0  0  0
 15  3  2  0  0  0  0
 16 17  1  0  0  0  0
 17  1  2  0  0  0  0
 17 15  1  0  0  0  0
 18 27  1  0  0  0  0
 19 26  2  0  0  0  0
 20 25  1  0  0  0  0
 20 21  1  0  0  0  0
 22 21  1  6  0  0  0
 22 24  1  0  0  0  0
 22 18  1  0  0  0  0
 24 23  1  6  0  0  0
 24 19  1  0  0  0  0
 25 23  1  0  0  0  0
 26 27  1  0  0  0  0
 28 30  1  1  0  0  0
 28 29  1  0  0  0  0
 28 20  1  0  0  0  0
 31 32  1  0  0  0  0
 31 34  1  0  0  0  0
 32 34  1  0  0  0  0
 33 31  1  0  0  0  0
 34 13  1  6  0  0  0
M  END
>  <MODEL>
6

>  <REMARK>
 VINA RESULT:      -8.6      1.572      2.219
  Name = 
  3 active torsions:
  status: ('A' for Active; 'I' for Inactive)
    1  A    between atoms: N_7  and  C_11
    2  A    between atoms: C_18  and  C_30
    3  A    between atoms: C_23  and  C_25
                            x       y       z     vdW  Elec       q    Type
                         _______ _______ _______ _____ _____    ______ ____

>  <TORSDO>
F 3

$$$$
=
 OpenBabel10262423303D

 34 40  0  0  1  0  0  0  0  0999 V2000
  186.2900  178.0760  138.5810 C   0  0  0  0  0  0  0  0  0  0  0  0
  182.6640  178.3870  137.9510 C   0  0  0  0  0  3  0  0  0  0  0  0
  184.4520  177.6740  136.5380 N   0  0  0  0  0  0  0  0  0  0  0  0
  189.4410  177.9440  138.1960 S   0  0  0  0  0  0  0  0  0  0  0  0
  187.2020  178.0910  139.6840 N   0  0  0  0  0  2  0  0  0  0  0  0
  188.1710  177.5390  136.9890 C   0  0  0  0  0  0  0  0  0  0  0  0
  187.5920  177.1930  134.5940 C   0  0  0  0  0  2  0  0  0  0  0  0
  188.5610  177.2480  135.7450 C   0  0  0  0  0  3  0  0  0  0  0  0
  188.4700  177.3720  139.6220 C   0  0  2  0  0  3  0  0  0  0  0  0
  185.7710  177.4490  136.2960 C   0  0  0  0  0  0  0  0  0  0  0  0
  186.7280  177.7030  137.2960 C   0  0  0  0  0  0  0  0  0  0  0  0
  186.1870  176.7700  135.0250 C   0  0  0  0  0  2  0  0  0  0  0  0
  182.2200  178.8130  139.2090 C   0  0  0  0  0  0  0  0  0  0  0  0
  183.1620  179.0130  140.2280 C   0  0  0  0  0  3  0  0  0  0  0  0
  184.0190  178.1430  137.7370 C   0  0  0  0  0  0  0  0  0  0  0  0
  184.4810  178.7660  140.0060 N   0  0  0  0  0  0  0  0  0  0  0  0
  184.9320  178.3420  138.7920 C   0  0  0  0  0  0  0  0  0  0  0  0
  191.3730  177.6350  142.1700 C   0  0  0  0  0  2  0  0  0  0  0  0
  188.5200  177.6470  142.1310 N   0  0  0  0  0  2  0  0  0  0  0  0
  190.4770  176.8710  145.7860 N   0  0  0  0  0  0  0  0  0  0  0  0
  191.2920  177.3730  144.6750 C   0  0  0  0  0  2  0  0  0  0  0  0
  190.5640  177.1300  143.3600 C   0  0  1  0  0  3  0  0  0  0  0  0
  188.3980  177.4140  144.5750 C   0  0  0  0  0  2  0  0  0  0  0  0
  189.2290  177.8730  143.3850 C   0  0  2  0  0  3  0  0  0  0  0  0
  189.2120  177.6230  145.8520 C   0  0  0  0  0  2  0  0  0  0  0  0
  189.2390  177.5450  140.8920 C   0  0  0  0  0  0  0  0  0  0  0  0
  190.5820  177.4860  140.8960 C   0  0  0  0  0  3  0  0  0  0  0  0
  191.2460  177.0440  147.0230 C   0  0  1  0  0  3  0  0  0  0  0  0
  190.4490  177.5240  148.0680 O   0  0  0  0  0  1  0  0  0  0  0  0
  191.9160  175.7430  147.4280 C   0  0  0  0  0  1  0  0  0  0  0  0
  179.9100  177.9860  139.8570 N   0  0  0  0  0  0  0  0  0  0  0  0
  180.3400  179.0140  140.8150 C   0  0  0  0  0  2  0  0  0  0  0  0
  180.6510  176.7800  140.2180 C   0  0  0  0  0  1  0  0  0  0  0  0
  180.7580  179.1330  139.4170 C   0  0  1  0  0  3  0  0  0  0  0  0
  1 17  1  0  0  0  0
  1  5  1  0  0  0  0
  2 13  1  0  0  0  0
  3 15  1  0  0  0  0
  4  9  1  0  0  0  0
  6 11  1  0  0  0  0
  6  4  1  0  0  0  0
  7 12  1  0  0  0  0
  7  8  1  0  0  0  0
  8  6  2  0  0  0  0
  9  5  1  0  0  0  0
  9 26  1  1  0  0  0
 10  3  2  0  0  0  0
 10 11  1  0  0  0  0
 11  1  2  0  0  0  0
 12 10  1  0  0  0  0
 13 14  2  0  0  0  0
 15  2  2  0  0  0  0
 15 17  1  0  0  0  0
 16 14  1  0  0  0  0
 17 16  2  0  0  0  0
 19 24  1  0  0  0  0
 20 25  1  0  0  0  0
 20 28  1  0  0  0  0
 21 20  1  0  0  0  0
 22 18  1  6  0  0  0
 22 24  1  0  0  0  0
 22 21  1  0  0  0  0
 23 25  1  0  0  0  0
 24 23  1  1  0  0  0
 26 27  2  0  0  0  0
 26 19  1  0  0  0  0
 27 18  1  0  0  0  0
 28 30  1  1  0  0  0
 28 29  1  0  0  0  0
 31 33  1  0  0  0  0
 31 32  1  0  0  0  0
 34 13  1  1  0  0  0
 34 31  1  0  0  0  0
 34 32  1  0  0  0  0
M  END
>  <MODEL>
7

>  <REMARK>
 VINA RESULT:      -8.5      3.773      7.129
  Name = 
  3 active torsions:
  status: ('A' for Active; 'I' for Inactive)
    1  A    between atoms: N_7  and  C_11
    2  A    between atoms: C_18  and  C_30
    3  A    between atoms: C_23  and  C_25
                            x       y       z     vdW  Elec       q    Type
                         _______ _______ _______ _____ _____    ______ ____

>  <TORSDO>
F 3

$$$$
=
 OpenBabel10262423303D

 34 40  0  0  1  0  0  0  0  0999 V2000
  187.4070  177.9690  142.8910 C   0  0  0  0  0  0  0  0  0  0  0  0
  190.6680  176.8520  141.5630 C   0  0  0  0  0  3  0  0  0  0  0  0
  189.8070  176.9010  143.7910 N   0  0  0  0  0  0  0  0  0  0  0  0
  185.1210  179.0750  144.7990 S   0  0  0  0  0  0  0  0  0  0  0  0
  186.1080  178.3290  142.4090 N   0  0  0  0  0  2  0  0  0  0  0  0
  186.6280  178.2180  145.2770 C   0  0  0  0  0  0  0  0  0  0  0  0
  188.2560  177.6930  147.0830 C   0  0  0  0  0  2  0  0  0  0  0  0
  186.9010  178.1120  146.5800 C   0  0  0  0  0  3  0  0  0  0  0  0
  184.9230  178.1600  143.2420 C   0  0  2  0  0  3  0  0  0  0  0  0
  188.8390  177.2080  144.6940 C   0  0  0  0  0  0  0  0  0  0  0  0
  187.6380  177.8060  144.2690 C   0  0  0  0  0  0  0  0  0  0  0  0
  188.9810  176.7540  146.1170 C   0  0  0  0  0  2  0  0  0  0  0  0
  190.4730  177.0620  140.1930 C   0  0  0  0  0  0  0  0  0  0  0  0
  189.2560  177.6030  139.7570 C   0  0  0  0  0  3  0  0  0  0  0  0
  189.6500  177.1550  142.4660 C   0  0  0  0  0  0  0  0  0  0  0  0
  188.2700  177.8900  140.6480 N   0  0  0  0  0  0  0  0  0  0  0  0
  188.4350  177.6850  141.9850 C   0  0  0  0  0  0  0  0  0  0  0  0
  181.2610  179.1110  142.4230 C   0  0  0  0  0  2  0  0  0  0  0  0
  183.7720  178.8330  141.0990 N   0  0  0  0  0  0  0  0  0  0  0  0
  180.2590  178.8470  138.7640 N   0  0  0  0  0  0  0  0  0  0  0  0
  180.1390  179.2450  140.1700 C   0  0  0  0  0  2  0  0  0  0  0  0
  181.3390  178.7240  140.9500 C   0  0  1  0  0  3  0  0  0  0  0  0
  182.7190  178.9810  138.8820 C   0  0  0  0  0  2  0  0  0  0  0  0
  182.6140  179.3260  140.3610 C   0  0  2  0  0  3  0  0  0  0  0  0
  181.4560  179.4700  138.1730 C   0  0  0  0  0  2  0  0  0  0  0  0
  183.6960  178.6080  142.5150 C   0  0  0  0  0  0  0  0  0  0  0  0
  182.5120  178.6840  143.1450 C   0  0  0  0  0  2  0  0  0  0  0  0
  179.0480  179.2900  138.0660 C   0  0  1  0  0  3  0  0  0  0  0  0
  179.0110  180.6820  137.9210 O   0  0  0  0  0  1  0  0  0  0  0  0
  178.9310  178.6180  136.7090 C   0  0  0  0  0  1  0  0  0  0  0  0
  191.3370  175.7110  138.2250 N   0  0  0  0  0  0  0  0  0  0  0  0
  191.2660  177.1280  137.8430 C   0  0  0  0  0  2  0  0  0  0  0  0
  189.9590  175.2280  138.1970 C   0  0  0  0  0  1  0  0  0  0  0  0
  191.6020  176.7860  139.2260 C   0  0  1  0  0  3  0  0  0  0  0  0
  1 11  1  0  0  0  0
  2 15  1  0  0  0  0
  3 10  1  0  0  0  0
  4  6  1  0  0  0  0
  5  1  1  0  0  0  0
  5  9  1  0  0  0  0
  6  8  2  0  0  0  0
  8  7  1  0  0  0  0
  9 26  1  6  0  0  0
  9  4  1  0  0  0  0
 10 12  1  0  0  0  0
 11 10  2  0  0  0  0
 11  6  1  0  0  0  0
 12  7  1  0  0  0  0
 13  2  2  0  0  0  0
 14 13  1  0  0  0  0
 14 16  2  0  0  0  0
 15  3  2  0  0  0  0
 16 17  1  0  0  0  0
 17 15  1  0  0  0  0
 17  1  2  0  0  0  0
 18 27  1  0  0  0  0
 19 26  2  0  0  0  0
 20 21  1  0  0  0  0
 22 21  1  6  0  0  0
 22 18  1  0  0  0  0
 24 23  1  6  0  0  0
 24 22  1  0  0  0  0
 24 19  1  0  0  0  0
 25 20  1  0  0  0  0
 25 23  1  0  0  0  0
 26 27  1  0  0  0  0
 28 30  1  6  0  0  0
 28 20  1  0  0  0  0
 29 28  1  0  0  0  0
 31 34  1  0  0  0  0
 32 31  1  0  0  0  0
 32 34  1  0  0  0  0
 33 31  1  0  0  0  0
 34 13  1  1  0  0  0
M  END
>  <MODEL>
8

>  <REMARK>
 VINA RESULT:      -8.2      3.171      8.328
  Name = 
  3 active torsions:
  status: ('A' for Active; 'I' for Inactive)
    1  A    between atoms: N_7  and  C_11
    2  A    between atoms: C_18  and  C_30
    3  A    between atoms: C_23  and  C_25
                            x       y       z     vdW  Elec       q    Type
                         _______ _______ _______ _____ _____    ______ ____

>  <TORSDO>
F 3

$$$$
=
 OpenBabel10262423303D

 34 40  0  0  1  0  0  0  0  0999 V2000
  182.1730  177.4900  140.5330 C   0  0  0  0  0  0  0  0  0  0  0  0
  180.1570  175.9690  137.8380 C   0  0  0  0  0  3  0  0  0  0  0  0
  179.5950  177.5860  139.5050 N   0  0  0  0  0  0  0  0  0  0  0  0
  183.0620  178.8820  143.2470 S   0  0  0  0  0  0  0  0  0  0  0  0
  183.5430  177.5910  140.9350 N   0  0  0  0  0  2  0  0  0  0  0  0
  181.4750  179.0200  142.4130 C   0  0  0  0  0  0  0  0  0  0  0  0
  179.0650  179.6150  142.5820 C   0  0  0  0  0  2  0  0  0  0  0  0
  180.5000  179.6910  143.0320 C   0  0  0  0  0  3  0  0  0  0  0  0
  184.0190  178.7310  141.7090 C   0  0  2  0  0  3  0  0  0  0  0  0
  179.9010  178.3380  140.5950 C   0  0  0  0  0  0  0  0  0  0  0  0
  181.1830  178.2620  141.1700 C   0  0  0  0  0  0  0  0  0  0  0  0
  178.9310  179.3750  141.0770 C   0  0  0  0  0  2  0  0  0  0  0  0
  181.1160  175.1540  137.2280 C   0  0  0  0  0  0  0  0  0  0  0  0
  182.4120  175.1170  137.7610 C   0  0  0  0  0  3  0  0  0  0  0  0
  180.5040  176.7470  138.9410 C   0  0  0  0  0  0  0  0  0  0  0  0
  182.7380  175.8850  138.8360 N   0  0  0  0  0  0  0  0  0  0  0  0
  181.8210  176.6920  139.4390 C   0  0  0  0  0  0  0  0  0  0  0  0
  187.8670  178.6110  141.3050 C   0  0  0  0  0  2  0  0  0  0  0  0
  185.8870  178.1690  143.3100 N   0  0  0  0  0  2  0  0  0  0  0  0
  189.7430  176.5640  143.9030 N   0  0  0  0  0  0  0  0  0  0  0  0
  189.5720  177.5310  142.8130 C   0  0  0  0  0  2  0  0  0  0  0  0
  188.0980  177.6180  142.4380 C   0  0  1  0  0  3  0  0  0  0  0  0
  187.5240  177.1280  144.8210 C   0  0  0  0  0  2  0  0  0  0  0  0
  187.3020  178.0820  143.6560 C   0  0  2  0  0  3  0  0  0  0  0  0
  189.0240  177.0340  145.1000 C   0  0  0  0  0  2  0  0  0  0  0  0
  185.4780  178.6000  142.0030 C   0  0  0  0  0  0  0  0  0  0  0  0
  186.3930  178.7630  141.0320 C   0  0  0  0  0  3  0  0  0  0  0  0
  191.1790  176.4440  144.1770 C   0  0  1  0  0  3  0  0  0  0  0  0
  191.9400  177.2550  143.3270 O   0  0  0  0  0  1  0  0  0  0  0  0
  191.4810  176.7760  145.6280 C   0  0  0  0  0  1  0  0  0  0  0  0
  180.2810  172.8900  136.4400 N   0  0  0  0  0  0  0  0  0  0  0  0
  179.2970  173.9200  136.0780 C   0  0  0  0  0  2  0  0  0  0  0  0
  180.1060  172.6690  137.8730 C   0  0  0  0  0  1  0  0  0  0  0  0
  180.7190  174.2690  136.0700 C   0  0  1  0  0  3  0  0  0  0  0  0
  1  5  1  0  0  0  0
  1 11  1  0  0  0  0
  2 15  1  0  0  0  0
  3 10  1  0  0  0  0
  5  9  1  0  0  0  0
  6  8  2  0  0  0  0
  6  4  1  0  0  0  0
  7  8  1  0  0  0  0
  9 26  1  1  0  0  0
  9  4  1  0  0  0  0
 10 12  1  0  0  0  0
 10 11  2  0  0  0  0
 11  6  1  0  0  0  0
 12  7  1  0  0  0  0
 13 14  1  0  0  0  0
 13  2  2  0  0  0  0
 14 16  2  0  0  0  0
 15 17  1  0  0  0  0
 15  3  2  0  0  0  0
 16 17  1  0  0  0  0
 17  1  2  0  0  0  0
 19 24  1  0  0  0  0
 20 28  1  0  0  0  0
 20 25  1  0  0  0  0
 21 20  1  0  0  0  0
 22 18  1  6  0  0  0
 22 21  1  0  0  0  0
 22 24  1  0  0  0  0
 23 25  1  0  0  0  0
 24 23  1  1  0  0  0
 26 19  1  0  0  0  0
 27 18  1  0  0  0  0
 27 26  2  0  0  0  0
 28 30  1  1  0  0  0
 29 28  1  0  0  0  0
 31 33  1  0  0  0  0
 32 31  1  0  0  0  0
 34 32  1  0  0  0  0
 34 31  1  0  0  0  0
 34 13  1  1  0  0  0
M  END
>  <MODEL>
9

>  <REMARK>
 VINA RESULT:      -8.2      4.020      6.770
  Name = 
  3 active torsions:
  status: ('A' for Active; 'I' for Inactive)
    1  A    between atoms: N_7  and  C_11
    2  A    between atoms: C_18  and  C_30
    3  A    between atoms: C_23  and  C_25
                            x       y       z     vdW  Elec       q    Type
                         _______ _______ _______ _____ _____    ______ ____

>  <TORSDO>
F 3

$$$$
