=
 OpenBabel10262420143D

 27 31  0  0  1  0  0  0  0  0999 V2000
  189.6260  177.4290  142.6690 N   0  0  0  0  0  0  0  0  0  0  0  0
  187.6340  177.7180  144.1220 C   0  0  0  0  0  0  0  0  0  0  0  0
  186.9350  178.5710  141.9260 N   0  0  0  0  0  0  0  0  0  0  0  0
  187.0060  177.3490  145.4310 C   0  0  0  0  0  3  0  0  0  0  0  0
  189.0630  178.1110  139.3650 C   0  0  0  0  0  0  0  0  0  0  0  0
  189.1090  177.9340  143.9360 C   0  0  1  0  0  3  0  0  0  0  0  0
  185.4020  178.0470  143.8380 N   0  0  0  0  0  0  0  0  0  0  0  0
  189.1460  177.6920  141.4940 C   0  0  0  0  0  0  0  0  0  0  0  0
  186.7070  178.1280  143.2730 C   0  0  0  0  0  0  0  0  0  0  0  0
  187.9650  178.6110  139.8890 O   0  0  0  0  0  0  0  0  0  0  0  0
  185.5080  177.5290  145.1930 C   0  0  0  0  0  3  0  0  0  0  0  0
  189.8530  177.4950  140.3240 C   0  0  0  0  0  3  0  0  0  0  0  0
  187.9710  178.3490  141.1710 C   0  0  0  0  0  0  0  0  0  0  0  0
  183.0910  178.8860  143.9830 C   0  0  0  0  0  3  0  0  0  0  0  0
  181.7270  179.0550  142.0310 N   0  0  0  0  0  0  0  0  0  0  0  0
  182.7350  178.5750  141.2550 C   0  0  0  0  0  3  0  0  0  0  0  0
  183.9600  178.2340  141.8310 C   0  0  0  0  0  3  0  0  0  0  0  0
  184.1500  178.3870  143.2110 C   0  0  0  0  0  0  0  0  0  0  0  0
  181.8800  179.2160  143.3720 C   0  0  0  0  0  3  0  0  0  0  0  0
  191.5080  176.4100  147.1640 C   0  0  0  0  0  3  0  0  0  0  0  0
  189.9310  177.4010  145.0720 C   0  0  0  0  0  0  0  0  0  0  0  0
  191.0810  176.6530  144.7920 C   0  0  0  0  0  3  0  0  0  0  0  0
  191.8670  176.1570  145.8370 C   0  0  0  0  0  3  0  0  0  0  0  0
  190.3620  177.1590  147.4480 C   0  0  0  0  0  3  0  0  0  0  0  0
  189.5740  177.6560  146.4040 C   0  0  0  0  0  3  0  0  0  0  0  0
  188.9000  179.4290  137.3620 N   0  0  0  0  0  1  0  0  0  0  0  0
  189.3890  178.1780  137.9150 C   0  0  0  0  0  2  0  0  0  0  0  0
  1  6  1  0  0  0  0
  2  4  1  0  0  0  0
  3  9  1  0  0  0  0
  5 10  1  0  0  0  0
  5 12  2  0  0  0  0
  6  2  1  0  0  0  0
  6 21  1  1  0  0  0
  7 11  1  0  0  0  0
  8  1  2  0  0  0  0
  9  7  1  0  0  0  0
  9  2  2  0  0  0  0
 10 13  1  0  0  0  0
 11  4  2  0  0  0  0
 12  8  1  0  0  0  0
 13  8  1  0  0  0  0
 13  3  2  0  0  0  0
 15 19  2  0  0  0  0
 16 17  2  0  0  0  0
 16 15  1  0  0  0  0
 17 18  1  0  0  0  0
 18  7  1  0  0  0  0
 18 14  2  0  0  0  0
 19 14  1  0  0  0  0
 20 24  1  0  0  0  0
 21 25  1  0  0  0  0
 22 21  2  0  0  0  0
 22 23  1  0  0  0  0
 23 20  2  0  0  0  0
 25 24  2  0  0  0  0
 26 27  1  0  0  0  0
 27  5  1  0  0  0  0
M  END
>  <MODEL>
1

>  <REMARK>
 VINA RESULT:     -10.2      0.000      0.000
  Name = 
  3 active torsions:
  status: ('A' for Active; 'I' for Inactive)
    1  A    between atoms: C_9  and  C_15
    2  A    between atoms: C_13  and  C_22
    3  A    between atoms: C_14  and  N_17
                            x       y       z     vdW  Elec       q    Type
                         _______ _______ _______ _____ _____    ______ ____

>  <TORSDO>
F 3

$$$$
=
 OpenBabel10262420143D

 27 31  0  0  1  0  0  0  0  0999 V2000
  190.1840  176.9210  142.9480 N   0  0  0  0  0  0  0  0  0  0  0  0
  188.2250  177.4430  144.3780 C   0  0  0  0  0  0  0  0  0  0  0  0
  187.5630  178.1660  142.1240 N   0  0  0  0  0  0  0  0  0  0  0  0
  187.5850  177.2160  145.7140 C   0  0  0  0  0  3  0  0  0  0  0  0
  189.6400  177.3800  139.6020 C   0  0  0  0  0  0  0  0  0  0  0  0
  189.7090  177.5530  144.1730 C   0  0  1  0  0  3  0  0  0  0  0  0
  186.0140  177.8870  144.0750 N   0  0  0  0  0  0  0  0  0  0  0  0
  189.7130  177.1210  141.7570 C   0  0  0  0  0  0  0  0  0  0  0  0
  187.3180  177.8440  143.5020 C   0  0  0  0  0  0  0  0  0  0  0  0
  188.5790  177.9850  140.0880 O   0  0  0  0  0  0  0  0  0  0  0  0
  186.0990  177.4690  145.4660 C   0  0  0  0  0  3  0  0  0  0  0  0
  190.3980  176.7920  140.6040 C   0  0  0  0  0  3  0  0  0  0  0  0
  188.5780  177.8230  141.3870 C   0  0  0  0  0  0  0  0  0  0  0  0
  184.6600  178.1430  142.0350 C   0  0  0  0  0  3  0  0  0  0  0  0
  182.4160  178.9520  142.1500 N   0  0  0  0  0  0  0  0  0  0  0  0
  182.5030  179.0710  143.5020 C   0  0  0  0  0  3  0  0  0  0  0  0
  183.6840  178.7250  144.1610 C   0  0  0  0  0  3  0  0  0  0  0  0
  184.7810  178.2540  143.4270 C   0  0  0  0  0  0  0  0  0  0  0  0
  183.4630  178.4990  141.4100 C   0  0  0  0  0  3  0  0  0  0  0  0
  191.9520  176.1440  147.5610 C   0  0  0  0  0  3  0  0  0  0  0  0
  190.5040  177.0590  145.3440 C   0  0  0  0  0  0  0  0  0  0  0  0
  190.2370  177.5720  146.6190 C   0  0  0  0  0  3  0  0  0  0  0  0
  190.9600  177.1160  147.7250 C   0  0  0  0  0  3  0  0  0  0  0  0
  192.2210  175.6270  146.2900 C   0  0  0  0  0  3  0  0  0  0  0  0
  191.4980  176.0820  145.1820 C   0  0  0  0  0  3  0  0  0  0  0  0
  188.9640  176.5080  137.4670 N   0  0  0  0  0  1  0  0  0  0  0  0
  189.9590  177.3150  138.1500 C   0  0  0  0  0  2  0  0  0  0  0  0
  1  6  1  0  0  0  0
  2  4  1  0  0  0  0
  3  9  1  0  0  0  0
  5 10  1  0  0  0  0
  5 12  2  0  0  0  0
  6  2  1  0  0  0  0
  6 21  1  1  0  0  0
  7 11  1  0  0  0  0
  8  1  2  0  0  0  0
  9  7  1  0  0  0  0
  9  2  2  0  0  0  0
 10 13  1  0  0  0  0
 11  4  2  0  0  0  0
 12  8  1  0  0  0  0
 13  8  1  0  0  0  0
 13  3  2  0  0  0  0
 14 18  1  0  0  0  0
 15 16  2  0  0  0  0
 16 17  1  0  0  0  0
 18  7  1  0  0  0  0
 18 17  2  0  0  0  0
 19 14  2  0  0  0  0
 19 15  1  0  0  0  0
 20 23  1  0  0  0  0
 21 22  1  0  0  0  0
 22 23  2  0  0  0  0
 24 20  2  0  0  0  0
 25 21  2  0  0  0  0
 25 24  1  0  0  0  0
 26 27  1  0  0  0  0
 27  5  1  0  0  0  0
M  END
>  <MODEL>
2

>  <REMARK>
 VINA RESULT:      -9.4      0.925      1.604
  Name = 
  3 active torsions:
  status: ('A' for Active; 'I' for Inactive)
    1  A    between atoms: C_9  and  C_15
    2  A    between atoms: C_13  and  C_22
    3  A    between atoms: C_14  and  N_17
                            x       y       z     vdW  Elec       q    Type
                         _______ _______ _______ _____ _____    ______ ____

>  <TORSDO>
F 3

$$$$
=
 OpenBabel10262420143D

 27 31  0  0  1  0  0  0  0  0999 V2000
  185.5850  178.4300  145.0410 N   0  0  0  0  0  0  0  0  0  0  0  0
  187.5660  178.0390  143.5970 C   0  0  0  0  0  0  0  0  0  0  0  0
  185.6580  178.0600  142.0480 N   0  0  0  0  0  0  0  0  0  0  0  0
  189.0620  178.0740  143.5300 C   0  0  0  0  0  3  0  0  0  0  0  0
  182.6740  178.9390  143.3200 C   0  0  0  0  0  0  0  0  0  0  0  0
  186.7950  177.6440  144.8250 C   0  0  1  0  0  3  0  0  0  0  0  0
  188.0710  178.2030  141.3860 N   0  0  0  0  0  0  0  0  0  0  0  0
  184.6500  178.6400  144.1680 C   0  0  0  0  0  0  0  0  0  0  0  0
  187.0560  178.0840  142.3770 C   0  0  0  0  0  0  0  0  0  0  0  0
  183.4370  178.4940  142.3450 O   0  0  0  0  0  0  0  0  0  0  0  0
  189.3680  178.2380  142.0430 C   0  0  0  0  0  3  0  0  0  0  0  0
  183.3830  179.0740  144.5040 C   0  0  0  0  0  3  0  0  0  0  0  0
  184.6460  178.3300  142.8190 C   0  0  0  0  0  0  0  0  0  0  0  0
  189.0080  178.5180  139.1300 C   0  0  0  0  0  3  0  0  0  0  0  0
  187.5970  178.4830  137.2040 N   0  0  0  0  0  0  0  0  0  0  0  0
  186.5010  178.2690  137.9810 C   0  0  0  0  0  3  0  0  0  0  0  0
  186.6340  178.1730  139.3670 C   0  0  0  0  0  3  0  0  0  0  0  0
  187.8980  178.2990  139.9580 C   0  0  0  0  0  0  0  0  0  0  0  0
  188.8370  178.6080  137.7470 C   0  0  0  0  0  3  0  0  0  0  0  0
  189.1500  177.6330  148.4240 C   0  0  0  0  0  3  0  0  0  0  0  0
  187.6310  177.6410  146.0700 C   0  0  0  0  0  0  0  0  0  0  0  0
  187.1370  178.2540  147.2270 C   0  0  0  0  0  3  0  0  0  0  0  0
  187.8950  178.2510  148.4020 C   0  0  0  0  0  3  0  0  0  0  0  0
  189.6460  177.0170  147.2710 C   0  0  0  0  0  3  0  0  0  0  0  0
  188.8880  177.0190  146.0950 C   0  0  0  0  0  3  0  0  0  0  0  0
  180.4210  178.3710  143.9340 N   0  0  0  0  0  1  0  0  0  0  0  0
  181.2360  179.2810  143.1490 C   0  0  0  0  0  2  0  0  0  0  0  0
  2  6  1  0  0  0  0
  3  9  1  0  0  0  0
  3 13  2  0  0  0  0
  4  2  1  0  0  0  0
  5 12  2  0  0  0  0
  6  1  1  0  0  0  0
  6 21  1  1  0  0  0
  7 11  1  0  0  0  0
  7  9  1  0  0  0  0
  8 12  1  0  0  0  0
  8  1  2  0  0  0  0
  9  2  2  0  0  0  0
 10 13  1  0  0  0  0
 10  5  1  0  0  0  0
 11  4  2  0  0  0  0
 13  8  1  0  0  0  0
 14 18  1  0  0  0  0
 15 19  1  0  0  0  0
 15 16  2  0  0  0  0
 16 17  1  0  0  0  0
 17 18  2  0  0  0  0
 18  7  1  0  0  0  0
 19 14  2  0  0  0  0
 21 25  2  0  0  0  0
 21 22  1  0  0  0  0
 22 23  2  0  0  0  0
 23 20  1  0  0  0  0
 24 20  2  0  0  0  0
 25 24  1  0  0  0  0
 27  5  1  0  0  0  0
 27 26  1  0  0  0  0
M  END
>  <MODEL>
3

>  <REMARK>
 VINA RESULT:      -9.4      1.742      5.462
  Name = 
  3 active torsions:
  status: ('A' for Active; 'I' for Inactive)
    1  A    between atoms: C_9  and  C_15
    2  A    between atoms: C_13  and  C_22
    3  A    between atoms: C_14  and  N_17
                            x       y       z     vdW  Elec       q    Type
                         _______ _______ _______ _____ _____    ______ ____

>  <TORSDO>
F 3

$$$$
=
 OpenBabel10262420143D

 27 31  0  0  1  0  0  0  0  0999 V2000
  190.8940  177.0260  142.9670 N   0  0  0  0  0  0  0  0  0  0  0  0
  188.6970  177.5610  141.9430 C   0  0  0  0  0  0  0  0  0  0  0  0
  188.2100  177.2200  144.3280 N   0  0  0  0  0  0  0  0  0  0  0  0
  188.0090  178.0970  140.7250 C   0  0  0  0  0  3  0  0  0  0  0  0
  190.8420  176.8390  146.3820 C   0  0  0  0  0  0  0  0  0  0  0  0
  189.9490  176.7310  141.8960 C   0  0  1  0  0  3  0  0  0  0  0  0
  186.6550  178.2600  142.6590 N   0  0  0  0  0  0  0  0  0  0  0  0
  190.6210  177.0640  144.2330 C   0  0  0  0  0  0  0  0  0  0  0  0
  187.8960  177.6450  142.9920 C   0  0  0  0  0  0  0  0  0  0  0  0
  189.5500  176.8430  146.1360 O   0  0  0  0  0  0  0  0  0  0  0  0
  186.6660  178.6050  141.2460 C   0  0  0  0  0  3  0  0  0  0  0  0
  191.5840  176.9930  145.2200 C   0  0  0  0  0  3  0  0  0  0  0  0
  189.3820  177.0060  144.8490 C   0  0  0  0  0  0  0  0  0  0  0  0
  184.2760  178.7920  143.0060 C   0  0  0  0  0  3  0  0  0  0  0  0
  183.3940  179.0700  145.2080 N   0  0  0  0  0  0  0  0  0  0  0  0
  184.6150  178.8260  145.7540 C   0  0  0  0  0  3  0  0  0  0  0  0
  185.7090  178.5560  144.9300 C   0  0  0  0  0  3  0  0  0  0  0  0
  185.5470  178.5370  143.5380 C   0  0  0  0  0  0  0  0  0  0  0  0
  183.2040  179.0580  143.8620 C   0  0  0  0  0  3  0  0  0  0  0  0
  191.9900  176.8870  138.1140 C   0  0  0  0  0  3  0  0  0  0  0  0
  190.6450  176.7880  140.5700 C   0  0  0  0  0  0  0  0  0  0  0  0
  191.9470  177.2980  140.5010 C   0  0  0  0  0  3  0  0  0  0  0  0
  192.6180  177.3480  139.2750 C   0  0  0  0  0  3  0  0  0  0  0  0
  190.6910  176.3740  138.1780 C   0  0  0  0  0  3  0  0  0  0  0  0
  190.0180  176.3230  139.4040 C   0  0  0  0  0  3  0  0  0  0  0  0
  192.6110  175.8830  147.6980 N   0  0  0  0  0  1  0  0  0  0  0  0
  191.4210  176.7140  147.7460 C   0  0  0  0  0  2  0  0  0  0  0  0
  1  8  2  0  0  0  0
  2  9  2  0  0  0  0
  3 13  2  0  0  0  0
  4 11  2  0  0  0  0
  4  2  1  0  0  0  0
  5 27  1  0  0  0  0
  6 21  1  6  0  0  0
  6  2  1  0  0  0  0
  6  1  1  0  0  0  0
  7  9  1  0  0  0  0
  7 18  1  0  0  0  0
  8 13  1  0  0  0  0
  8 12  1  0  0  0  0
  9  3  1  0  0  0  0
 10  5  1  0  0  0  0
 11  7  1  0  0  0  0
 12  5  2  0  0  0  0
 13 10  1  0  0  0  0
 14 18  2  0  0  0  0
 14 19  1  0  0  0  0
 15 16  1  0  0  0  0
 17 16  2  0  0  0  0
 18 17  1  0  0  0  0
 19 15  2  0  0  0  0
 20 24  2  0  0  0  0
 20 23  1  0  0  0  0
 22 21  1  0  0  0  0
 23 22  2  0  0  0  0
 24 25  1  0  0  0  0
 25 21  2  0  0  0  0
 26 27  1  0  0  0  0
M  END
>  <MODEL>
4

>  <REMARK>
 VINA RESULT:      -9.3      2.281      5.514
  Name = 
  3 active torsions:
  status: ('A' for Active; 'I' for Inactive)
    1  A    between atoms: C_9  and  C_15
    2  A    between atoms: C_13  and  C_22
    3  A    between atoms: C_14  and  N_17
                            x       y       z     vdW  Elec       q    Type
                         _______ _______ _______ _____ _____    ______ ____

>  <TORSDO>
F 3

$$$$
=
 OpenBabel10262420143D

 27 31  0  0  1  0  0  0  0  0999 V2000
  190.0550  177.0810  142.5050 N   0  0  0  0  0  0  0  0  0  0  0  0
  187.8720  177.7790  143.4560 C   0  0  0  0  0  0  0  0  0  0  0  0
  187.6980  178.2850  141.0570 N   0  0  0  0  0  0  0  0  0  0  0  0
  186.9710  177.6980  144.6510 C   0  0  0  0  0  3  0  0  0  0  0  0
  190.2030  177.2120  139.0900 C   0  0  0  0  0  0  0  0  0  0  0  0
  189.3700  177.8410  143.5440 C   0  0  1  0  0  3  0  0  0  0  0  0
  185.7840  178.2300  142.6740 N   0  0  0  0  0  0  0  0  0  0  0  0
  189.8370  177.1690  141.2300 C   0  0  0  0  0  0  0  0  0  0  0  0
  187.1720  178.1060  142.3820 C   0  0  0  0  0  0  0  0  0  0  0  0
  189.0900  177.8820  139.2930 O   0  0  0  0  0  0  0  0  0  0  0  0
  185.5750  177.9520  144.0870 C   0  0  0  0  0  3  0  0  0  0  0  0
  190.7240  176.7130  140.2750 C   0  0  0  0  0  3  0  0  0  0  0  0
  188.8250  177.8510  140.5750 C   0  0  0  0  0  0  0  0  0  0  0  0
  183.3830  178.3930  142.1540 C   0  0  0  0  0  3  0  0  0  0  0  0
  182.6440  179.1710  140.0200 N   0  0  0  0  0  0  0  0  0  0  0  0
  183.9300  179.3370  139.6080 C   0  0  0  0  0  3  0  0  0  0  0  0
  184.9860  179.0310  140.4700 C   0  0  0  0  0  3  0  0  0  0  0  0
  184.7190  178.5530  141.7590 C   0  0  0  0  0  0  0  0  0  0  0  0
  182.3530  178.7090  141.2650 C   0  0  0  0  0  3  0  0  0  0  0  0
  190.9320  176.7320  147.3950 C   0  0  0  0  0  3  0  0  0  0  0  0
  189.8990  177.4530  144.8920 C   0  0  0  0  0  0  0  0  0  0  0  0
  191.1190  176.7720  144.9790 C   0  0  0  0  0  3  0  0  0  0  0  0
  191.6340  176.4110  146.2280 C   0  0  0  0  0  3  0  0  0  0  0  0
  189.7150  177.4140  147.3130 C   0  0  0  0  0  3  0  0  0  0  0  0
  189.1980  177.7760  146.0640 C   0  0  0  0  0  3  0  0  0  0  0  0
  192.0200  176.2190  137.8710 N   0  0  0  0  0  1  0  0  0  0  0  0
  190.8010  176.9960  137.7450 C   0  0  0  0  0  2  0  0  0  0  0  0
  1  6  1  0  0  0  0
  2  6  1  0  0  0  0
  2  4  1  0  0  0  0
  3  9  1  0  0  0  0
  5 10  1  0  0  0  0
  5 12  2  0  0  0  0
  6 21  1  1  0  0  0
  7 11  1  0  0  0  0
  8  1  2  0  0  0  0
  9  7  1  0  0  0  0
  9  2  2  0  0  0  0
 10 13  1  0  0  0  0
 11  4  2  0  0  0  0
 12  8  1  0  0  0  0
 13  3  2  0  0  0  0
 13  8  1  0  0  0  0
 15 19  1  0  0  0  0
 16 15  2  0  0  0  0
 16 17  1  0  0  0  0
 17 18  2  0  0  0  0
 18 14  1  0  0  0  0
 18  7  1  0  0  0  0
 19 14  2  0  0  0  0
 21 22  2  0  0  0  0
 21 25  1  0  0  0  0
 22 23  1  0  0  0  0
 23 20  2  0  0  0  0
 24 20  1  0  0  0  0
 25 24  2  0  0  0  0
 27 26  1  0  0  0  0
 27  5  1  0  0  0  0
M  END
>  <MODEL>
5

>  <REMARK>
 VINA RESULT:      -9.2      1.414      1.547
  Name = 
  3 active torsions:
  status: ('A' for Active; 'I' for Inactive)
    1  A    between atoms: C_9  and  C_15
    2  A    between atoms: C_13  and  C_22
    3  A    between atoms: C_14  and  N_17
                            x       y       z     vdW  Elec       q    Type
                         _______ _______ _______ _____ _____    ______ ____

>  <TORSDO>
F 3

$$$$
=
 OpenBabel10262420143D

 27 31  0  0  1  0  0  0  0  0999 V2000
  186.0590  178.5140  141.5500 N   0  0  0  0  0  0  0  0  0  0  0  0
  186.3130  178.0440  143.9740 C   0  0  0  0  0  0  0  0  0  0  0  0
  188.4400  177.3270  142.9730 N   0  0  0  0  0  0  0  0  0  0  0  0
  185.7460  178.2930  145.3380 C   0  0  0  0  0  3  0  0  0  0  0  0
  188.9160  178.0530  139.7260 C   0  0  0  0  0  0  0  0  0  0  0  0
  185.4740  177.8980  142.7360 C   0  0  1  0  0  3  0  0  0  0  0  0
  188.0220  177.6530  145.4230 N   0  0  0  0  0  0  0  0  0  0  0  0
  187.2620  178.3190  141.1080 C   0  0  0  0  0  0  0  0  0  0  0  0
  187.5760  177.6620  144.0700 C   0  0  0  0  0  0  0  0  0  0  0  0
  189.2720  177.4750  140.8520 O   0  0  0  0  0  0  0  0  0  0  0  0
  186.9260  178.0740  146.2820 C   0  0  0  0  0  3  0  0  0  0  0  0
  187.6570  178.6270  139.8210 C   0  0  0  0  0  3  0  0  0  0  0  0
  188.3050  177.6430  141.7190 C   0  0  0  0  0  0  0  0  0  0  0  0
  190.4110  177.2070  145.0220 C   0  0  0  0  0  3  0  0  0  0  0  0
  191.8720  176.6590  146.8290 N   0  0  0  0  0  0  0  0  0  0  0  0
  190.8480  176.7530  147.7190 C   0  0  0  0  0  3  0  0  0  0  0  0
  189.5650  177.0800  147.2760 C   0  0  0  0  0  3  0  0  0  0  0  0
  189.3330  177.3110  145.9130 C   0  0  0  0  0  0  0  0  0  0  0  0
  191.6800  176.8780  145.5010 C   0  0  0  0  0  3  0  0  0  0  0  0
  181.4200  179.2490  143.2170 C   0  0  0  0  0  3  0  0  0  0  0  0
  184.0660  178.3780  142.9180 C   0  0  0  0  0  0  0  0  0  0  0  0
  183.2550  178.5640  141.7920 C   0  0  0  0  0  3  0  0  0  0  0  0
  181.9350  178.9990  141.9410 C   0  0  0  0  0  3  0  0  0  0  0  0
  182.2250  179.0620  144.3450 C   0  0  0  0  0  3  0  0  0  0  0  0
  183.5460  178.6270  144.1970 C   0  0  0  0  0  3  0  0  0  0  0  0
  189.1620  178.9450  137.5090 N   0  0  0  0  0  1  0  0  0  0  0  0
  189.7810  178.1040  138.5170 C   0  0  0  0  0  2  0  0  0  0  0  0
  1  6  1  0  0  0  0
  2  9  2  0  0  0  0
  2  4  1  0  0  0  0
  3  9  1  0  0  0  0
  4 11  2  0  0  0  0
  5 12  2  0  0  0  0
  5 10  1  0  0  0  0
  6 21  1  1  0  0  0
  6  2  1  0  0  0  0
  7 18  1  0  0  0  0
  7 11  1  0  0  0  0
  8  1  2  0  0  0  0
  8 13  1  0  0  0  0
  9  7  1  0  0  0  0
 10 13  1  0  0  0  0
 12  8  1  0  0  0  0
 13  3  2  0  0  0  0
 14 19  2  0  0  0  0
 14 18  1  0  0  0  0
 15 16  2  0  0  0  0
 17 16  1  0  0  0  0
 18 17  2  0  0  0  0
 19 15  1  0  0  0  0
 20 24  1  0  0  0  0
 21 25  1  0  0  0  0
 22 23  1  0  0  0  0
 22 21  2  0  0  0  0
 23 20  2  0  0  0  0
 25 24  2  0  0  0  0
 26 27  1  0  0  0  0
 27  5  1  0  0  0  0
M  END
>  <MODEL>
6

>  <REMARK>
 VINA RESULT:      -9.0      1.407      6.256
  Name = 
  3 active torsions:
  status: ('A' for Active; 'I' for Inactive)
    1  A    between atoms: C_9  and  C_15
    2  A    between atoms: C_13  and  C_22
    3  A    between atoms: C_14  and  N_17
                            x       y       z     vdW  Elec       q    Type
                         _______ _______ _______ _____ _____    ______ ____

>  <TORSDO>
F 3

$$$$
=
 OpenBabel10262420143D

 27 31  0  0  1  0  0  0  0  0999 V2000
  188.5670  177.1430  145.8310 N   0  0  0  0  0  0  0  0  0  0  0  0
  188.3570  177.6590  143.4120 C   0  0  0  0  0  0  0  0  0  0  0  0
  190.7620  177.2940  143.7660 N   0  0  0  0  0  0  0  0  0  0  0  0
  187.4030  177.7980  142.2650 C   0  0  0  0  0  3  0  0  0  0  0  0
  191.7010  176.1620  146.7870 C   0  0  0  0  0  0  0  0  0  0  0  0
  188.0250  178.0490  144.8240 C   0  0  1  0  0  3  0  0  0  0  0  0
  189.6170  177.3920  141.5380 N   0  0  0  0  0  0  0  0  0  0  0  0
  189.8020  176.7580  145.9200 C   0  0  0  0  0  0  0  0  0  0  0  0
  189.5850  177.4620  142.9600 C   0  0  0  0  0  0  0  0  0  0  0  0
  191.9660  176.6210  145.5840 O   0  0  0  0  0  0  0  0  0  0  0  0
  188.2660  177.5620  141.0280 C   0  0  0  0  0  3  0  0  0  0  0  0
  190.3420  176.2010  147.0620 C   0  0  0  0  0  3  0  0  0  0  0  0
  190.8350  176.9640  145.0210 C   0  0  0  0  0  0  0  0  0  0  0  0
  192.0470  177.5060  141.1530 C   0  0  0  0  0  3  0  0  0  0  0  0
  192.9970  176.7520  139.0960 N   0  0  0  0  0  0  0  0  0  0  0  0
  191.7660  176.4150  138.6240 C   0  0  0  0  0  3  0  0  0  0  0  0
  190.6340  176.6180  139.4140 C   0  0  0  0  0  3  0  0  0  0  0  0
  190.7650  177.1700  140.6950 C   0  0  0  0  0  0  0  0  0  0  0  0
  193.1580  177.2880  140.3350 C   0  0  0  0  0  3  0  0  0  0  0  0
  183.8220  178.6280  145.5260 C   0  0  0  0  0  3  0  0  0  0  0  0
  186.5560  178.2460  145.0530 C   0  0  0  0  0  0  0  0  0  0  0  0
  186.0330  178.0640  146.3390 C   0  0  0  0  0  3  0  0  0  0  0  0
  184.6680  178.2540  146.5740 C   0  0  0  0  0  3  0  0  0  0  0  0
  184.3400  178.8130  144.2410 C   0  0  0  0  0  3  0  0  0  0  0  0
  185.7060  178.6230  144.0030 C   0  0  0  0  0  3  0  0  0  0  0  0
  192.9360  176.5760  148.8060 N   0  0  0  0  0  1  0  0  0  0  0  0
  192.7390  175.6380  147.7170 C   0  0  0  0  0  2  0  0  0  0  0  0
  1  8  2  0  0  0  0
  2  6  1  0  0  0  0
  3 13  2  0  0  0  0
  4  2  1  0  0  0  0
  5 12  2  0  0  0  0
  5 27  1  0  0  0  0
  6 21  1  6  0  0  0
  6  1  1  0  0  0  0
  7  9  1  0  0  0  0
  8 12  1  0  0  0  0
  9  2  2  0  0  0  0
  9  3  1  0  0  0  0
 10  5  1  0  0  0  0
 11  7  1  0  0  0  0
 11  4  2  0  0  0  0
 13 10  1  0  0  0  0
 13  8  1  0  0  0  0
 15 19  1  0  0  0  0
 16 15  2  0  0  0  0
 16 17  1  0  0  0  0
 17 18  2  0  0  0  0
 18 14  1  0  0  0  0
 18  7  1  0  0  0  0
 19 14  2  0  0  0  0
 20 23  1  0  0  0  0
 21 22  1  0  0  0  0
 22 23  2  0  0  0  0
 24 20  2  0  0  0  0
 25 24  1  0  0  0  0
 25 21  2  0  0  0  0
 27 26  1  0  0  0  0
M  END
>  <MODEL>
7

>  <REMARK>
 VINA RESULT:      -9.0      2.824      7.168
  Name = 
  3 active torsions:
  status: ('A' for Active; 'I' for Inactive)
    1  A    between atoms: C_9  and  C_15
    2  A    between atoms: C_13  and  C_22
    3  A    between atoms: C_14  and  N_17
                            x       y       z     vdW  Elec       q    Type
                         _______ _______ _______ _____ _____    ______ ____

>  <TORSDO>
F 3

$$$$
=
 OpenBabel10262420143D

 27 31  0  0  1  0  0  0  0  0999 V2000
  187.9370  177.7230  144.8060 N   0  0  0  0  0  0  0  0  0  0  0  0
  189.7980  177.2910  143.2210 C   0  0  0  0  0  0  0  0  0  0  0  0
  187.7890  177.4050  141.8100 N   0  0  0  0  0  0  0  0  0  0  0  0
  191.2860  177.2760  143.0510 C   0  0  0  0  0  3  0  0  0  0  0  0
  184.9330  178.3630  143.3000 C   0  0  0  0  0  0  0  0  0  0  0  0
  189.1000  176.9010  144.4940 C   0  0  1  0  0  3  0  0  0  0  0  0
  190.1540  177.4780  140.9830 N   0  0  0  0  0  0  0  0  0  0  0  0
  186.9510  177.9810  144.0040 C   0  0  0  0  0  0  0  0  0  0  0  0
  189.2060  177.3760  142.0410 C   0  0  0  0  0  0  0  0  0  0  0  0
  185.6110  177.9100  142.2680 O   0  0  0  0  0  0  0  0  0  0  0  0
  191.4940  177.4560  141.5490 C   0  0  0  0  0  3  0  0  0  0  0  0
  185.7270  178.4530  144.4340 C   0  0  0  0  0  3  0  0  0  0  0  0
  186.8430  177.6960  142.6530 C   0  0  0  0  0  0  0  0  0  0  0  0
  189.0540  178.6320  139.1060 C   0  0  0  0  0  3  0  0  0  0  0  0
  189.3550  177.8770  136.8610 N   0  0  0  0  0  0  0  0  0  0  0  0
  190.1680  176.8710  137.2820 C   0  0  0  0  0  3  0  0  0  0  0  0
  190.4460  176.7190  138.6420 C   0  0  0  0  0  3  0  0  0  0  0  0
  189.8870  177.6050  139.5730 C   0  0  0  0  0  0  0  0  0  0  0  0
  188.7980  178.7530  137.7390 C   0  0  0  0  0  3  0  0  0  0  0  0
  191.6960  176.7460  147.9190 C   0  0  0  0  0  3  0  0  0  0  0  0
  190.0190  176.8460  145.6770 C   0  0  0  0  0  0  0  0  0  0  0  0
  189.6630  177.5190  146.8520 C   0  0  0  0  0  3  0  0  0  0  0  0
  190.5010  177.4700  147.9700 C   0  0  0  0  0  3  0  0  0  0  0  0
  192.0550  176.0710  146.7490 C   0  0  0  0  0  3  0  0  0  0  0  0
  191.2180  176.1190  145.6290 C   0  0  0  0  0  3  0  0  0  0  0  0
  182.9830  178.9390  144.5800 N   0  0  0  0  0  1  0  0  0  0  0  0
  183.5000  178.7580  143.2360 C   0  0  0  0  0  2  0  0  0  0  0  0
  2  6  1  0  0  0  0
  3  9  1  0  0  0  0
  3 13  2  0  0  0  0
  4  2  1  0  0  0  0
  5 12  2  0  0  0  0
  6  1  1  0  0  0  0
  6 21  1  1  0  0  0
  7 11  1  0  0  0  0
  7  9  1  0  0  0  0
  8 12  1  0  0  0  0
  8  1  2  0  0  0  0
  9  2  2  0  0  0  0
 10 13  1  0  0  0  0
 10  5  1  0  0  0  0
 11  4  2  0  0  0  0
 13  8  1  0  0  0  0
 14 18  1  0  0  0  0
 15 16  2  0  0  0  0
 15 19  1  0  0  0  0
 16 17  1  0  0  0  0
 17 18  2  0  0  0  0
 18  7  1  0  0  0  0
 19 14  2  0  0  0  0
 20 23  1  0  0  0  0
 21 22  1  0  0  0  0
 22 23  2  0  0  0  0
 24 20  2  0  0  0  0
 25 21  2  0  0  0  0
 25 24  1  0  0  0  0
 27  5  1  0  0  0  0
 27 26  1  0  0  0  0
M  END
>  <MODEL>
8

>  <REMARK>
 VINA RESULT:      -9.0      1.507      5.449
  Name = 
  3 active torsions:
  status: ('A' for Active; 'I' for Inactive)
    1  A    between atoms: C_9  and  C_15
    2  A    between atoms: C_13  and  C_22
    3  A    between atoms: C_14  and  N_17
                            x       y       z     vdW  Elec       q    Type
                         _______ _______ _______ _____ _____    ______ ____

>  <TORSDO>
F 3

$$$$
=
 OpenBabel10262420143D

 27 31  0  0  1  0  0  0  0  0999 V2000
  185.1140  178.7110  141.4480 N   0  0  0  0  0  0  0  0  0  0  0  0
  184.8700  178.4660  143.9060 C   0  0  0  0  0  0  0  0  0  0  0  0
  187.1600  177.7110  143.4260 N   0  0  0  0  0  0  0  0  0  0  0  0
  184.0360  178.8220  145.0980 C   0  0  0  0  0  3  0  0  0  0  0  0
  188.2840  178.1550  140.2900 C   0  0  0  0  0  0  0  0  0  0  0  0
  184.3020  178.1910  142.5420 C   0  0  1  0  0  3  0  0  0  0  0  0
  186.2500  178.2440  145.7000 N   0  0  0  0  0  0  0  0  0  0  0  0
  186.3820  178.5050  141.2780 C   0  0  0  0  0  0  0  0  0  0  0  0
  186.0890  178.1230  144.2900 C   0  0  0  0  0  0  0  0  0  0  0  0
  188.4060  177.6880  141.5140 O   0  0  0  0  0  0  0  0  0  0  0  0
  185.0000  178.7160  146.2770 C   0  0  0  0  0  3  0  0  0  0  0  0
  187.0300  178.7060  140.0750 C   0  0  0  0  0  3  0  0  0  0  0  0
  187.2820  177.9100  142.1470 C   0  0  0  0  0  0  0  0  0  0  0  0
  187.4610  178.2800  147.8440 C   0  0  0  0  0  3  0  0  0  0  0  0
  189.7040  177.4740  147.9950 N   0  0  0  0  0  0  0  0  0  0  0  0
  189.7090  177.1690  146.6700 C   0  0  0  0  0  3  0  0  0  0  0  0
  188.5770  177.4150  145.8900 C   0  0  0  0  0  3  0  0  0  0  0  0
  187.4350  177.9780  146.4750 C   0  0  0  0  0  0  0  0  0  0  0  0
  188.6110  178.0200  148.5920 C   0  0  0  0  0  3  0  0  0  0  0  0
  180.2290  179.4880  142.0650 C   0  0  0  0  0  3  0  0  0  0  0  0
  182.8840  178.6530  142.3900 C   0  0  0  0  0  0  0  0  0  0  0  0
  182.3330  178.7620  141.1070 C   0  0  0  0  0  3  0  0  0  0  0  0
  181.0090  179.1790  140.9450 C   0  0  0  0  0  3  0  0  0  0  0  0
  180.7740  179.3780  143.3480 C   0  0  0  0  0  3  0  0  0  0  0  0
  182.0990  178.9600  143.5120 C   0  0  0  0  0  3  0  0  0  0  0  0
  189.0670  179.0250  138.1920 N   0  0  0  0  0  1  0  0  0  0  0  0
  189.3770  178.1170  139.2820 C   0  0  0  0  0  2  0  0  0  0  0  0
  1  6  1  0  0  0  0
  2  9  2  0  0  0  0
  2  4  1  0  0  0  0
  3  9  1  0  0  0  0
  4 11  2  0  0  0  0
  5 10  1  0  0  0  0
  6 21  1  1  0  0  0
  6  2  1  0  0  0  0
  7 11  1  0  0  0  0
  7 18  1  0  0  0  0
  8  1  2  0  0  0  0
  8 13  1  0  0  0  0
  9  7  1  0  0  0  0
 10 13  1  0  0  0  0
 12  5  2  0  0  0  0
 12  8  1  0  0  0  0
 13  3  2  0  0  0  0
 14 19  1  0  0  0  0
 15 19  2  0  0  0  0
 16 15  1  0  0  0  0
 17 18  1  0  0  0  0
 17 16  2  0  0  0  0
 18 14  2  0  0  0  0
 20 24  1  0  0  0  0
 21 25  1  0  0  0  0
 22 21  2  0  0  0  0
 23 22  1  0  0  0  0
 23 20  2  0  0  0  0
 24 25  2  0  0  0  0
 26 27  1  0  0  0  0
 27  5  1  0  0  0  0
M  END
>  <MODEL>
9

>  <REMARK>
 VINA RESULT:      -9.0      1.777      6.392
  Name = 
  3 active torsions:
  status: ('A' for Active; 'I' for Inactive)
    1  A    between atoms: C_9  and  C_15
    2  A    between atoms: C_13  and  C_22
    3  A    between atoms: C_14  and  N_17
                            x       y       z     vdW  Elec       q    Type
                         _______ _______ _______ _____ _____    ______ ____

>  <TORSDO>
F 3

$$$$
