=
 OpenBabel10262419513D

 25 28  0  0  1  0  0  0  0  0999 V2000
  187.8230  177.8280  145.7180 N   0  0  0  0  0  0  0  0  0  0  0  0
  186.8440  177.6100  144.6490 C   0  0  2  0  0  3  0  0  0  0  0  0
  186.1860  178.5490  147.3170 C   0  0  0  0  0  3  0  0  0  0  0  0
  189.1450  177.3080  145.7430 C   0  0  0  0  0  0  0  0  0  0  0  0
  191.7180  176.3040  146.0840 C   0  0  0  0  0  3  0  0  0  0  0  0
  185.1990  178.6260  146.2250 C   0  0  0  0  0  3  0  0  0  0  0  0
  189.7420  177.3400  146.9940 C   0  0  0  0  0  0  0  0  0  0  0  0
  191.0300  176.8380  147.1830 C   0  0  0  0  0  3  0  0  0  0  0  0
  184.5660  178.3930  143.8490 C   0  0  0  0  0  0  0  0  0  0  0  0
  182.9950  178.8060  144.0620 S   0  0  0  0  0  0  0  0  0  0  0  0
  187.3350  178.1240  143.3840 N   0  0  0  0  0  0  0  0  0  0  0  0
  191.1130  176.2710  144.8160 C   0  0  0  0  0  3  0  0  0  0  0  0
  187.4350  178.1840  147.0440 C   0  0  0  0  0  0  0  0  0  0  0  0
  188.7150  178.0260  148.2960 S   0  0  0  0  0  0  0  0  0  0  0  0
  185.0660  178.0880  142.4670 C   0  0  0  0  0  2  0  0  0  0  0  0
  189.8160  176.7710  144.6390 C   0  0  0  0  0  3  0  0  0  0  0  0
  186.5570  178.3190  142.3690 C   0  0  0  0  0  0  0  0  0  0  0  0
  185.5010  178.2310  144.9790 C   0  0  0  0  0  0  0  0  0  0  0  0
  187.1300  178.8130  141.0820 C   0  0  0  0  0  2  0  0  0  0  0  0
  188.6610  177.9190  140.6770 S   0  0  0  0  0  0  0  0  0  0  0  0
  188.2900  177.9050  138.8980 C   0  0  0  0  0  2  0  0  0  0  0  0
  188.9170  179.0480  138.2560 N   0  0  0  0  0  2  0  0  0  0  0  0
  188.0970  179.4130  137.1790 N   0  0  0  0  0  2  0  0  0  0  0  0
  187.2060  178.2930  136.9240 C   0  0  0  0  0  2  0  0  0  0  0  0
  187.2160  177.9550  135.4460 C   0  0  0  0  0  1  0  0  0  0  0  0
  1  4  1  0  0  0  0
  1 13  1  0  0  0  0
  2 11  1  6  0  0  0
  2 18  1  0  0  0  0
  2  1  1  0  0  0  0
  4  7  1  0  0  0  0
  5  8  1  0  0  0  0
  6  3  1  0  0  0  0
  7  8  2  0  0  0  0
  7 14  1  0  0  0  0
  9 10  2  0  0  0  0
  9 18  1  0  0  0  0
 12  5  2  0  0  0  0
 13  3  2  0  0  0  0
 13 14  1  0  0  0  0
 15  9  1  0  0  0  0
 16 12  1  0  0  0  0
 16  4  2  0  0  0  0
 17 15  1  0  0  0  0
 17 11  2  0  0  0  0
 18  6  2  0  0  0  0
 19 17  1  0  0  0  0
 20 19  1  0  0  0  0
 21 20  1  0  0  0  0
 22 21  1  0  0  0  0
 23 22  1  0  0  0  0
 24 23  1  0  0  0  0
 25 24  1  0  0  0  0
M  END
>  <MODEL>
1

>  <REMARK>
 VINA RESULT:      -8.6      0.000      0.000
  Name = 
  6 active torsions:
  status: ('A' for Active; 'I' for Inactive)
    1  A    between atoms: C_2  and  N_12
    2  A    between atoms: C_6  and  S_15
    3  A    between atoms: C_6  and  C_23
    4  A    between atoms: N_12  and  N_25
    5  A    between atoms: S_15  and  C_21
    6  A    between atoms: C_21  and  N_25
                            x       y       z     vdW  Elec       q    Type
                         _______ _______ _______ _____ _____    ______ ____

>  <TORSDO>
F 6

$$$$
=
 OpenBabel10262419513D

 25 28  0  0  1  0  0  0  0  0999 V2000
  187.9090  177.8170  145.7180 N   0  0  0  0  0  0  0  0  0  0  0  0
  186.9560  177.5960  144.6260 C   0  0  2  0  0  3  0  0  0  0  0  0
  186.2360  178.5600  147.2690 C   0  0  0  0  0  3  0  0  0  0  0  0
  189.2260  177.2890  145.7810 C   0  0  0  0  0  0  0  0  0  0  0  0
  191.7830  176.2710  146.1950 C   0  0  0  0  0  3  0  0  0  0  0  0
  185.2780  178.6360  146.1520 C   0  0  0  0  0  3  0  0  0  0  0  0
  189.7910  177.3260  147.0470 C   0  0  0  0  0  0  0  0  0  0  0  0
  191.0710  176.8180  147.2720 C   0  0  0  0  0  3  0  0  0  0  0  0
  184.7050  178.3880  143.7620 C   0  0  0  0  0  0  0  0  0  0  0  0
  183.1310  178.8130  143.9310 S   0  0  0  0  0  0  0  0  0  0  0  0
  187.4830  178.0970  143.3710 N   0  0  0  0  0  0  0  0  0  0  0  0
  191.2110  176.2310  144.9130 C   0  0  0  0  0  3  0  0  0  0  0  0
  187.4900  178.1850  147.0310 C   0  0  0  0  0  0  0  0  0  0  0  0
  188.7360  178.0290  148.3170 S   0  0  0  0  0  0  0  0  0  0  0  0
  185.2380  178.0690  142.3950 C   0  0  0  0  0  2  0  0  0  0  0  0
  189.9220  176.7390  144.6990 C   0  0  0  0  0  3  0  0  0  0  0  0
  186.7320  178.2900  142.3340 C   0  0  0  0  0  0  0  0  0  0  0  0
  185.6090  178.2280  144.9170 C   0  0  0  0  0  0  0  0  0  0  0  0
  187.3410  178.7700  141.0580 C   0  0  0  0  0  2  0  0  0  0  0  0
  188.8450  177.8230  140.6690 S   0  0  0  0  0  0  0  0  0  0  0  0
  188.8750  178.4050  138.9480 C   0  0  0  0  0  2  0  0  0  0  0  0
  189.9000  177.6910  138.2050 N   0  0  0  0  0  2  0  0  0  0  0  0
  189.6370  176.3230  138.3550 N   0  0  0  0  0  2  0  0  0  0  0  0
  190.8300  175.6110  137.9270 C   0  0  0  0  0  2  0  0  0  0  0  0
  192.0650  176.4190  138.2790 C   0  0  0  0  0  1  0  0  0  0  0  0
  1  4  1  0  0  0  0
  1 13  1  0  0  0  0
  2 11  1  6  0  0  0
  2 18  1  0  0  0  0
  2  1  1  0  0  0  0
  4  7  1  0  0  0  0
  5  8  1  0  0  0  0
  6  3  1  0  0  0  0
  7  8  2  0  0  0  0
  7 14  1  0  0  0  0
  9 10  2  0  0  0  0
  9 18  1  0  0  0  0
 12  5  2  0  0  0  0
 13  3  2  0  0  0  0
 13 14  1  0  0  0  0
 15  9  1  0  0  0  0
 16 12  1  0  0  0  0
 16  4  2  0  0  0  0
 17 15  1  0  0  0  0
 17 11  2  0  0  0  0
 18  6  2  0  0  0  0
 19 17  1  0  0  0  0
 20 19  1  0  0  0  0
 21 20  1  0  0  0  0
 22 23  1  0  0  0  0
 22 21  1  0  0  0  0
 24 25  1  0  0  0  0
 24 23  1  0  0  0  0
M  END
>  <MODEL>
2

>  <REMARK>
 VINA RESULT:      -8.3      1.284      1.701
  Name = 
  6 active torsions:
  status: ('A' for Active; 'I' for Inactive)
    1  A    between atoms: C_2  and  N_12
    2  A    between atoms: C_6  and  S_15
    3  A    between atoms: C_6  and  C_23
    4  A    between atoms: N_12  and  N_25
    5  A    between atoms: S_15  and  C_21
    6  A    between atoms: C_21  and  N_25
                            x       y       z     vdW  Elec       q    Type
                         _______ _______ _______ _____ _____    ______ ____

>  <TORSDO>
F 6

$$$$
=
 OpenBabel10262419513D

 25 28  0  0  1  0  0  0  0  0999 V2000
  184.4580  178.5030  142.8650 N   0  0  0  0  0  0  0  0  0  0  0  0
  185.7450  178.5900  143.5610 C   0  0  2  0  0  3  0  0  0  0  0  0
  183.1560  178.8210  144.8550 C   0  0  0  0  0  3  0  0  0  0  0  0
  184.2690  178.6390  141.4640 C   0  0  0  0  0  0  0  0  0  0  0  0
  183.6260  178.9950  138.7790 C   0  0  0  0  0  3  0  0  0  0  0  0
  184.3830  178.6350  145.6500 C   0  0  0  0  0  3  0  0  0  0  0  0
  182.9550  178.8820  141.0910 C   0  0  0  0  0  0  0  0  0  0  0  0
  182.6160  179.0660  139.7500 C   0  0  0  0  0  3  0  0  0  0  0  0
  186.8070  178.2000  145.8330 C   0  0  0  0  0  0  0  0  0  0  0  0
  186.8650  178.3070  147.4670 S   0  0  0  0  0  0  0  0  0  0  0  0
  186.6590  177.5670  143.0880 N   0  0  0  0  0  0  0  0  0  0  0  0
  184.9570  178.7510  139.1560 C   0  0  0  0  0  3  0  0  0  0  0  0
  183.2170  178.7340  143.5290 C   0  0  0  0  0  0  0  0  0  0  0  0
  181.7940  178.9720  142.4570 S   0  0  0  0  0  0  0  0  0  0  0  0
  188.0600  177.8750  145.0720 C   0  0  0  0  0  2  0  0  0  0  0  0
  185.2870  178.5740  140.5070 C   0  0  0  0  0  3  0  0  0  0  0  0
  187.7320  177.2470  143.7370 C   0  0  0  0  0  0  0  0  0  0  0  0
  185.5810  178.4900  145.0650 C   0  0  0  0  0  0  0  0  0  0  0  0
  188.6530  176.2130  143.1780 C   0  0  0  0  0  2  0  0  0  0  0  0
  189.5600  176.8700  141.7440 S   0  0  0  0  0  0  0  0  0  0  0  0
  190.7310  177.7850  142.7900 C   0  0  0  0  0  2  0  0  0  0  0  0
  191.4860  176.8540  143.6130 N   0  0  0  0  0  2  0  0  0  0  0  0
  191.6390  177.4510  144.8710 N   0  0  0  0  0  2  0  0  0  0  0  0
  191.6980  176.3770  145.8480 C   0  0  0  0  0  2  0  0  0  0  0  0
  190.8890  176.7520  147.0740 C   0  0  0  0  0  1  0  0  0  0  0  0
  1 13  1  0  0  0  0
  1  2  1  0  0  0  0
  2 11  1  6  0  0  0
  2 18  1  0  0  0  0
  3  6  1  0  0  0  0
  4  1  1  0  0  0  0
  5 12  2  0  0  0  0
  5  8  1  0  0  0  0
  7  4  1  0  0  0  0
  7 14  1  0  0  0  0
  8  7  2  0  0  0  0
  9 10  2  0  0  0  0
 11 17  2  0  0  0  0
 12 16  1  0  0  0  0
 13  3  2  0  0  0  0
 14 13  1  0  0  0  0
 15  9  1  0  0  0  0
 16  4  2  0  0  0  0
 17 15  1  0  0  0  0
 18  6  2  0  0  0  0
 18  9  1  0  0  0  0
 19 17  1  0  0  0  0
 20 21  1  0  0  0  0
 20 19  1  0  0  0  0
 21 22  1  0  0  0  0
 22 23  1  0  0  0  0
 23 24  1  0  0  0  0
 24 25  1  0  0  0  0
M  END
>  <MODEL>
3

>  <REMARK>
 VINA RESULT:      -7.7      2.520      6.687
  Name = 
  6 active torsions:
  status: ('A' for Active; 'I' for Inactive)
    1  A    between atoms: C_2  and  N_12
    2  A    between atoms: C_6  and  S_15
    3  A    between atoms: C_6  and  C_23
    4  A    between atoms: N_12  and  N_25
    5  A    between atoms: S_15  and  C_21
    6  A    between atoms: C_21  and  N_25
                            x       y       z     vdW  Elec       q    Type
                         _______ _______ _______ _____ _____    ______ ____

>  <TORSDO>
F 6

$$$$
=
 OpenBabel10262419513D

 25 28  0  0  1  0  0  0  0  0999 V2000
  187.0910  177.8970  145.4570 N   0  0  0  0  0  0  0  0  0  0  0  0
  188.5280  177.8990  145.1670 C   0  0  2  0  0  3  0  0  0  0  0  0
  187.3850  177.5960  147.8200 C   0  0  0  0  0  3  0  0  0  0  0  0
  186.0750  178.3730  144.5860 C   0  0  0  0  0  0  0  0  0  0  0  0
  183.9230  179.3570  143.1200 C   0  0  0  0  0  3  0  0  0  0  0  0
  188.8090  177.3040  147.5740 C   0  0  0  0  0  3  0  0  0  0  0  0
  184.8580  178.6050  145.2100 C   0  0  0  0  0  0  0  0  0  0  0  0
  183.7700  179.1000  144.4900 C   0  0  0  0  0  3  0  0  0  0  0  0
  190.7370  177.0200  146.0570 C   0  0  0  0  0  0  0  0  0  0  0  0
  191.8260  176.7080  147.2410 S   0  0  0  0  0  0  0  0  0  0  0  0
  188.8190  177.1030  143.9900 N   0  0  0  0  0  0  0  0  0  0  0  0
  185.1560  179.1240  142.4880 C   0  0  0  0  0  3  0  0  0  0  0  0
  186.5840  177.8560  146.7900 C   0  0  0  0  0  0  0  0  0  0  0  0
  184.8400  178.2540  146.9700 S   0  0  0  0  0  0  0  0  0  0  0  0
  191.1820  176.9960  144.6230 C   0  0  0  0  0  2  0  0  0  0  0  0
  186.2440  178.6320  143.2220 C   0  0  0  0  0  3  0  0  0  0  0  0
  190.0180  176.7080  143.7020 C   0  0  0  0  0  0  0  0  0  0  0  0
  189.3420  177.4040  146.3470 C   0  0  0  0  0  0  0  0  0  0  0  0
  190.2590  175.9240  142.4540 C   0  0  0  0  0  2  0  0  0  0  0  0
  191.1400  176.9340  141.2240 S   0  0  0  0  0  0  0  0  0  0  0  0
  189.6090  177.3470  140.3350 C   0  0  0  0  0  2  0  0  0  0  0  0
  189.9300  177.8390  139.0060 N   0  0  0  0  0  2  0  0  0  0  0  0
  189.0480  178.8940  138.7370 N   0  0  0  0  0  2  0  0  0  0  0  0
  189.0280  179.0750  137.2940 C   0  0  0  0  0  2  0  0  0  0  0  0
  188.9900  177.7230  136.6080 C   0  0  0  0  0  1  0  0  0  0  0  0
  1 13  1  0  0  0  0
  2 11  1  6  0  0  0
  2  1  1  0  0  0  0
  2 18  1  0  0  0  0
  4  7  1  0  0  0  0
  4  1  1  0  0  0  0
  5  8  1  0  0  0  0
  6  3  1  0  0  0  0
  7 14  1  0  0  0  0
  8  7  2  0  0  0  0
  9 18  1  0  0  0  0
  9 10  2  0  0  0  0
 12  5  2  0  0  0  0
 12 16  1  0  0  0  0
 13 14  1  0  0  0  0
 13  3  2  0  0  0  0
 15  9  1  0  0  0  0
 16  4  2  0  0  0  0
 17 11  2  0  0  0  0
 17 15  1  0  0  0  0
 18  6  2  0  0  0  0
 19 17  1  0  0  0  0
 20 19  1  0  0  0  0
 21 20  1  0  0  0  0
 22 21  1  0  0  0  0
 23 22  1  0  0  0  0
 24 23  1  0  0  0  0
 25 24  1  0  0  0  0
M  END
>  <MODEL>
4

>  <REMARK>
 VINA RESULT:      -7.7      1.690      4.721
  Name = 
  6 active torsions:
  status: ('A' for Active; 'I' for Inactive)
    1  A    between atoms: C_2  and  N_12
    2  A    between atoms: C_6  and  S_15
    3  A    between atoms: C_6  and  C_23
    4  A    between atoms: N_12  and  N_25
    5  A    between atoms: S_15  and  C_21
    6  A    between atoms: C_21  and  N_25
                            x       y       z     vdW  Elec       q    Type
                         _______ _______ _______ _____ _____    ______ ____

>  <TORSDO>
F 6

$$$$
=
 OpenBabel10262419513D

 25 28  0  0  1  0  0  0  0  0999 V2000
  185.3430  178.3110  143.8610 N   0  0  0  0  0  0  0  0  0  0  0  0
  184.5200  178.0010  142.6880 C   0  0  2  0  0  3  0  0  0  0  0  0
  183.4880  179.0450  145.1930 C   0  0  0  0  0  3  0  0  0  0  0  0
  186.6670  177.8450  144.0850 C   0  0  0  0  0  0  0  0  0  0  0  0
  189.2040  176.9610  144.8110 C   0  0  0  0  0  3  0  0  0  0  0  0
  182.6510  179.0290  143.9800 C   0  0  0  0  0  3  0  0  0  0  0  0
  187.0920  177.9620  145.4000 C   0  0  0  0  0  0  0  0  0  0  0  0
  188.3610  177.5220  145.7810 C   0  0  0  0  0  3  0  0  0  0  0  0
  182.3430  178.6530  141.5580 C   0  0  0  0  0  0  0  0  0  0  0  0
  180.7450  179.0140  141.5430 S   0  0  0  0  0  0  0  0  0  0  0  0
  185.1570  178.4700  141.4710 N   0  0  0  0  0  0  0  0  0  0  0  0
  188.7720  176.8400  143.4790 C   0  0  0  0  0  3  0  0  0  0  0  0
  184.7730  178.7160  145.1040 C   0  0  0  0  0  0  0  0  0  0  0  0
  185.8820  178.6720  146.5190 S   0  0  0  0  0  0  0  0  0  0  0  0
  183.0300  178.2990  140.2710 C   0  0  0  0  0  2  0  0  0  0  0  0
  187.4940  177.2800  143.1090 C   0  0  0  0  0  3  0  0  0  0  0  0
  184.5130  178.5830  140.3550 C   0  0  0  0  0  0  0  0  0  0  0  0
  183.1260  178.5840  142.8070 C   0  0  0  0  0  0  0  0  0  0  0  0
  185.2330  179.0350  139.1270 C   0  0  0  0  0  2  0  0  0  0  0  0
  185.1550  177.7590  137.8330 S   0  0  0  0  0  0  0  0  0  0  0  0
  186.8210  178.1490  137.2210 C   0  0  0  0  0  2  0  0  0  0  0  0
  187.6680  178.5580  138.3290 N   0  0  0  0  0  2  0  0  0  0  0  0
  188.4600  177.4520  138.6680 N   0  0  0  0  0  2  0  0  0  0  0  0
  189.3030  177.8580  139.7810 C   0  0  0  0  0  2  0  0  0  0  0  0
  190.3410  176.7870  140.0560 C   0  0  0  0  0  1  0  0  0  0  0  0
  1  4  1  0  0  0  0
  1 13  1  0  0  0  0
  2 11  1  6  0  0  0
  2 18  1  0  0  0  0
  2  1  1  0  0  0  0
  4  7  1  0  0  0  0
  5  8  1  0  0  0  0
  6  3  1  0  0  0  0
  7  8  2  0  0  0  0
  7 14  1  0  0  0  0
  9 18  1  0  0  0  0
 10  9  2  0  0  0  0
 12  5  2  0  0  0  0
 13  3  2  0  0  0  0
 13 14  1  0  0  0  0
 15 17  1  0  0  0  0
 15  9  1  0  0  0  0
 16 12  1  0  0  0  0
 16  4  2  0  0  0  0
 17 11  2  0  0  0  0
 18  6  2  0  0  0  0
 19 17  1  0  0  0  0
 20 19  1  0  0  0  0
 21 20  1  0  0  0  0
 21 22  1  0  0  0  0
 22 23  1  0  0  0  0
 23 24  1  0  0  0  0
 24 25  1  0  0  0  0
M  END
>  <MODEL>
5

>  <REMARK>
 VINA RESULT:      -7.6      2.181      3.240
  Name = 
  6 active torsions:
  status: ('A' for Active; 'I' for Inactive)
    1  A    between atoms: C_2  and  N_12
    2  A    between atoms: C_6  and  S_15
    3  A    between atoms: C_6  and  C_23
    4  A    between atoms: N_12  and  N_25
    5  A    between atoms: S_15  and  C_21
    6  A    between atoms: C_21  and  N_25
                            x       y       z     vdW  Elec       q    Type
                         _______ _______ _______ _____ _____    ______ ____

>  <TORSDO>
F 6

$$$$
=
 OpenBabel10262419513D

 25 28  0  0  1  0  0  0  0  0999 V2000
  187.8400  177.6760  145.0070 N   0  0  0  0  0  0  0  0  0  0  0  0
  186.6390  177.5430  144.1780 C   0  0  2  0  0  3  0  0  0  0  0  0
  186.6340  178.3790  146.9590 C   0  0  0  0  0  3  0  0  0  0  0  0
  189.1100  177.1090  144.7160 C   0  0  0  0  0  0  0  0  0  0  0  0
  191.6460  175.9990  144.4330 C   0  0  0  0  0  3  0  0  0  0  0  0
  185.4340  178.5430  146.1200 C   0  0  0  0  0  3  0  0  0  0  0  0
  189.9710  177.0600  145.8020 C   0  0  0  0  0  0  0  0  0  0  0  0
  191.2450  176.5050  145.6780 C   0  0  0  0  0  3  0  0  0  0  0  0
  184.2790  178.4440  143.9390 C   0  0  0  0  0  0  0  0  0  0  0  0
  182.8140  178.9030  144.5140 S   0  0  0  0  0  0  0  0  0  0  0  0
  186.8600  178.0980  142.8560 N   0  0  0  0  0  0  0  0  0  0  0  0
  190.7740  176.0460  143.3330 C   0  0  0  0  0  3  0  0  0  0  0  0
  187.7740  177.9830  146.3990 C   0  0  0  0  0  0  0  0  0  0  0  0
  189.2920  177.7210  147.3260 S   0  0  0  0  0  0  0  0  0  0  0  0
  184.4440  178.1870  142.4690 C   0  0  0  0  0  2  0  0  0  0  0  0
  189.4940  176.6000  143.4710 C   0  0  0  0  0  3  0  0  0  0  0  0
  185.8850  178.3680  142.0490 C   0  0  0  0  0  0  0  0  0  0  0  0
  185.4330  178.1960  144.8240 C   0  0  0  0  0  0  0  0  0  0  0  0
  186.1790  178.9010  140.6850 C   0  0  0  0  0  2  0  0  0  0  0  0
  184.6540  179.0120  139.6980 S   0  0  0  0  0  0  0  0  0  0  0  0
  185.4410  178.2770  138.2350 C   0  0  0  0  0  2  0  0  0  0  0  0
  184.6060  177.2090  137.7110 N   0  0  0  0  0  2  0  0  0  0  0  0
  183.5950  176.9810  138.6540 N   0  0  0  0  0  2  0  0  0  0  0  0
  182.8330  175.8330  138.1910 C   0  0  0  0  0  2  0  0  0  0  0  0
  183.7740  174.6880  137.8680 C   0  0  0  0  0  1  0  0  0  0  0  0
  1 13  1  0  0  0  0
  2 11  1  6  0  0  0
  2 18  1  0  0  0  0
  2  1  1  0  0  0  0
  4  1  1  0  0  0  0
  4  7  1  0  0  0  0
  5  8  1  0  0  0  0
  6  3  1  0  0  0  0
  7 14  1  0  0  0  0
  8  7  2  0  0  0  0
  9 10  2  0  0  0  0
  9 18  1  0  0  0  0
 12 16  1  0  0  0  0
 12  5  2  0  0  0  0
 13  3  2  0  0  0  0
 13 14  1  0  0  0  0
 15  9  1  0  0  0  0
 16  4  2  0  0  0  0
 17 15  1  0  0  0  0
 17 11  2  0  0  0  0
 18  6  2  0  0  0  0
 19 17  1  0  0  0  0
 20 19  1  0  0  0  0
 21 20  1  0  0  0  0
 22 21  1  0  0  0  0
 22 23  1  0  0  0  0
 24 23  1  0  0  0  0
 25 24  1  0  0  0  0
M  END
>  <MODEL>
6

>  <REMARK>
 VINA RESULT:      -7.5      2.310      2.454
  Name = 
  6 active torsions:
  status: ('A' for Active; 'I' for Inactive)
    1  A    between atoms: C_2  and  N_12
    2  A    between atoms: C_6  and  S_15
    3  A    between atoms: C_6  and  C_23
    4  A    between atoms: N_12  and  N_25
    5  A    between atoms: S_15  and  C_21
    6  A    between atoms: C_21  and  N_25
                            x       y       z     vdW  Elec       q    Type
                         _______ _______ _______ _____ _____    ______ ____

>  <TORSDO>
F 6

$$$$
=
 OpenBabel10262419513D

 25 28  0  0  1  0  0  0  0  0999 V2000
  184.9730  178.4120  143.5430 N   0  0  0  0  0  0  0  0  0  0  0  0
  186.3450  178.4250  144.0610 C   0  0  2  0  0  3  0  0  0  0  0  0
  183.9620  178.6440  145.7060 C   0  0  0  0  0  3  0  0  0  0  0  0
  184.6010  178.6360  142.1900 C   0  0  0  0  0  0  0  0  0  0  0  0
  183.6150  179.1680  139.6420 C   0  0  0  0  0  3  0  0  0  0  0  0
  185.2780  178.3790  146.3150 C   0  0  0  0  0  3  0  0  0  0  0  0
  183.2590  178.9340  142.0140 C   0  0  0  0  0  0  0  0  0  0  0  0
  182.7490  179.2060  140.7440 C   0  0  0  0  0  3  0  0  0  0  0  0
  187.6890  177.8730  146.1410 C   0  0  0  0  0  0  0  0  0  0  0  0
  187.9690  177.8800  147.7560 S   0  0  0  0  0  0  0  0  0  0  0  0
  187.1520  177.4090  143.4110 N   0  0  0  0  0  0  0  0  0  0  0  0
  184.9760  178.8680  139.8200 C   0  0  0  0  0  3  0  0  0  0  0  0
  183.8410  178.6340  144.3820 C   0  0  0  0  0  0  0  0  0  0  0  0
  182.2950  178.9710  143.5280 S   0  0  0  0  0  0  0  0  0  0  0  0
  188.8160  177.5630  145.2000 C   0  0  0  0  0  2  0  0  0  0  0  0
  185.4790  178.6030  141.1010 C   0  0  0  0  0  3  0  0  0  0  0  0
  188.2910  177.0230  143.8890 C   0  0  0  0  0  0  0  0  0  0  0  0
  186.3810  178.2390  145.5640 C   0  0  0  0  0  0  0  0  0  0  0  0
  189.0940  176.0020  143.1530 C   0  0  0  0  0  2  0  0  0  0  0  0
  190.8550  176.1340  143.5920 S   0  0  0  0  0  0  0  0  0  0  0  0
  191.2400  177.1280  142.1200 C   0  0  0  0  0  2  0  0  0  0  0  0
  190.4080  176.7010  141.0070 N   0  0  0  0  0  2  0  0  0  0  0  0
  191.0810  177.0620  139.8320 N   0  0  0  0  0  2  0  0  0  0  0  0
  190.0750  177.5280  138.8920 C   0  0  0  0  0  2  0  0  0  0  0  0
  188.7480  177.7060  139.6050 C   0  0  0  0  0  1  0  0  0  0  0  0
  1  2  1  0  0  0  0
  1 13  1  0  0  0  0
  2 11  1  6  0  0  0
  2 18  1  0  0  0  0
  3  6  1  0  0  0  0
  4  1  1  0  0  0  0
  5 12  2  0  0  0  0
  5  8  1  0  0  0  0
  7  4  1  0  0  0  0
  7 14  1  0  0  0  0
  8  7  2  0  0  0  0
  9 10  2  0  0  0  0
 11 17  2  0  0  0  0
 12 16  1  0  0  0  0
 13  3  2  0  0  0  0
 14 13  1  0  0  0  0
 15  9  1  0  0  0  0
 16  4  2  0  0  0  0
 17 15  1  0  0  0  0
 18  9  1  0  0  0  0
 18  6  2  0  0  0  0
 19 20  1  0  0  0  0
 19 17  1  0  0  0  0
 21 20  1  0  0  0  0
 22 21  1  0  0  0  0
 23 22  1  0  0  0  0
 24 25  1  0  0  0  0
 24 23  1  0  0  0  0
M  END
>  <MODEL>
7

>  <REMARK>
 VINA RESULT:      -7.5      2.311      5.488
  Name = 
  6 active torsions:
  status: ('A' for Active; 'I' for Inactive)
    1  A    between atoms: C_2  and  N_12
    2  A    between atoms: C_6  and  S_15
    3  A    between atoms: C_6  and  C_23
    4  A    between atoms: N_12  and  N_25
    5  A    between atoms: S_15  and  C_21
    6  A    between atoms: C_21  and  N_25
                            x       y       z     vdW  Elec       q    Type
                         _______ _______ _______ _____ _____    ______ ____

>  <TORSDO>
F 6

$$$$
=
 OpenBabel10262419513D

 25 28  0  0  1  0  0  0  0  0999 V2000
  186.3080  178.2530  144.5240 N   0  0  0  0  0  0  0  0  0  0  0  0
  186.1870  177.9350  143.0980 C   0  0  2  0  0  3  0  0  0  0  0  0
  184.0430  179.0180  144.7300 C   0  0  0  0  0  3  0  0  0  0  0  0
  187.3300  177.7800  145.3900 C   0  0  0  0  0  0  0  0  0  0  0  0
  189.1400  176.8860  147.3060 C   0  0  0  0  0  3  0  0  0  0  0  0
  183.9340  178.9940  143.2600 C   0  0  0  0  0  3  0  0  0  0  0  0
  187.0340  177.9100  146.7390 C   0  0  0  0  0  0  0  0  0  0  0  0
  187.9290  177.4650  147.7120 C   0  0  0  0  0  3  0  0  0  0  0  0
  184.8890  178.5900  141.0180 C   0  0  0  0  0  0  0  0  0  0  0  0
  183.5220  178.9630  140.1940 S   0  0  0  0  0  0  0  0  0  0  0  0
  187.3570  178.3840  142.3680 N   0  0  0  0  0  0  0  0  0  0  0  0
  189.4390  176.7520  145.9390 C   0  0  0  0  0  3  0  0  0  0  0  0
  185.1920  178.6780  145.3060 C   0  0  0  0  0  0  0  0  0  0  0  0
  185.4330  178.6430  147.0870 S   0  0  0  0  0  0  0  0  0  0  0  0
  186.1270  178.2150  140.2570 C   0  0  0  0  0  2  0  0  0  0  0  0
  188.5300  177.1970  144.9700 C   0  0  0  0  0  3  0  0  0  0  0  0
  187.3680  178.4890  141.0780 C   0  0  0  0  0  0  0  0  0  0  0  0
  184.9320  178.5300  142.4920 C   0  0  0  0  0  0  0  0  0  0  0  0
  188.6160  178.9200  140.3800 C   0  0  0  0  0  2  0  0  0  0  0  0
  189.2380  177.5930  139.3020 S   0  0  0  0  0  0  0  0  0  0  0  0
  190.2660  176.8800  140.6200 C   0  0  0  0  0  2  0  0  0  0  0  0
  191.5760  177.5090  140.6170 N   0  0  0  0  0  2  0  0  0  0  0  0
  192.0440  177.4880  141.9370 N   0  0  0  0  0  2  0  0  0  0  0  0
  191.0800  178.2210  142.7420 C   0  0  0  0  0  2  0  0  0  0  0  0
  191.7300  178.6760  144.0340 C   0  0  0  0  0  1  0  0  0  0  0  0
  1 13  1  0  0  0  0
  1  4  1  0  0  0  0
  2 11  1  6  0  0  0
  2  1  1  0  0  0  0
  3 13  2  0  0  0  0
  4  7  1  0  0  0  0
  5  8  1  0  0  0  0
  6  3  1  0  0  0  0
  7 14  1  0  0  0  0
  7  8  2  0  0  0  0
  9 18  1  0  0  0  0
 10  9  2  0  0  0  0
 12  5  2  0  0  0  0
 13 14  1  0  0  0  0
 15  9  1  0  0  0  0
 15 17  1  0  0  0  0
 16  4  2  0  0  0  0
 16 12  1  0  0  0  0
 17 11  2  0  0  0  0
 18  2  1  0  0  0  0
 18  6  2  0  0  0  0
 19 17  1  0  0  0  0
 20 19  1  0  0  0  0
 20 21  1  0  0  0  0
 22 21  1  0  0  0  0
 22 23  1  0  0  0  0
 23 24  1  0  0  0  0
 24 25  1  0  0  0  0
M  END
>  <MODEL>
8

>  <REMARK>
 VINA RESULT:      -7.5      2.367      3.683
  Name = 
  6 active torsions:
  status: ('A' for Active; 'I' for Inactive)
    1  A    between atoms: C_2  and  N_12
    2  A    between atoms: C_6  and  S_15
    3  A    between atoms: C_6  and  C_23
    4  A    between atoms: N_12  and  N_25
    5  A    between atoms: S_15  and  C_21
    6  A    between atoms: C_21  and  N_25
                            x       y       z     vdW  Elec       q    Type
                         _______ _______ _______ _____ _____    ______ ____

>  <TORSDO>
F 6

$$$$
=
 OpenBabel10262419513D

 25 28  0  0  1  0  0  0  0  0999 V2000
  187.1310  178.1520  142.0320 N   0  0  0  0  0  0  0  0  0  0  0  0
  188.3120  177.3990  141.6000 C   0  0  2  0  0  3  0  0  0  0  0  0
  186.3870  178.6140  139.7980 C   0  0  0  0  0  3  0  0  0  0  0  0
  186.5610  178.1160  143.3330 C   0  0  0  0  0  0  0  0  0  0  0  0
  185.1910  178.1160  145.7550 C   0  0  0  0  0  3  0  0  0  0  0  0
  187.6850  178.1260  139.2980 C   0  0  0  0  0  3  0  0  0  0  0  0
  185.2670  178.6090  143.3980 C   0  0  0  0  0  0  0  0  0  0  0  0
  184.5650  178.6140  144.6040 C   0  0  0  0  0  3  0  0  0  0  0  0
  189.9430  177.1950  139.6660 C   0  0  0  0  0  0  0  0  0  0  0  0
  190.3360  177.1010  138.0780 S   0  0  0  0  0  0  0  0  0  0  0  0
  189.4740  177.7640  142.3890 N   0  0  0  0  0  0  0  0  0  0  0  0
  186.5020  177.6140  145.6900 C   0  0  0  0  0  3  0  0  0  0  0  0
  186.1560  178.6330  141.1080 C   0  0  0  0  0  0  0  0  0  0  0  0
  184.6030  179.1790  141.8310 S   0  0  0  0  0  0  0  0  0  0  0  0
  190.9510  176.7850  140.6990 C   0  0  0  0  0  2  0  0  0  0  0  0
  187.1950  177.6080  144.4720 C   0  0  0  0  0  3  0  0  0  0  0  0
  190.6790  177.4690  142.0200 C   0  0  0  0  0  0  0  0  0  0  0  0
  188.5990  177.5960  140.1250 C   0  0  0  0  0  0  0  0  0  0  0  0
  191.8320  177.8380  142.8940 C   0  0  0  0  0  2  0  0  0  0  0  0
  191.2450  178.4760  144.4940 S   0  0  0  0  0  0  0  0  0  0  0  0
  191.1190  176.8120  145.2140 C   0  0  0  0  0  2  0  0  0  0  0  0
  192.0560  176.6820  146.3170 N   0  0  0  0  0  2  0  0  0  0  0  0
  191.3960  177.1300  147.4690 N   0  0  0  0  0  2  0  0  0  0  0  0
  189.9980  176.7570  147.3310 C   0  0  0  0  0  2  0  0  0  0  0  0
  189.1270  177.7360  148.0940 C   0  0  0  0  0  1  0  0  0  0  0  0
  1  4  1  0  0  0  0
  2 18  1  6  0  0  0
  2  1  1  0  0  0  0
  2 11  1  0  0  0  0
  3 13  2  0  0  0  0
  4  7  2  0  0  0  0
  4 16  1  0  0  0  0
  6  3  1  0  0  0  0
  6 18  2  0  0  0  0
  7  8  1  0  0  0  0
  8  5  2  0  0  0  0
  9 18  1  0  0  0  0
  9 15  1  0  0  0  0
 10  9  2  0  0  0  0
 12  5  1  0  0  0  0
 13 14  1  0  0  0  0
 13  1  1  0  0  0  0
 14  7  1  0  0  0  0
 15 17  1  0  0  0  0
 16 12  2  0  0  0  0
 17 11  2  0  0  0  0
 17 19  1  0  0  0  0
 19 20  1  0  0  0  0
 20 21  1  0  0  0  0
 21 22  1  0  0  0  0
 22 23  1  0  0  0  0
 24 23  1  0  0  0  0
 24 25  1  0  0  0  0
M  END
>  <MODEL>
9

>  <REMARK>
 VINA RESULT:      -7.5      2.378      7.012
  Name = 
  6 active torsions:
  status: ('A' for Active; 'I' for Inactive)
    1  A    between atoms: C_2  and  N_12
    2  A    between atoms: C_6  and  S_15
    3  A    between atoms: C_6  and  C_23
    4  A    between atoms: N_12  and  N_25
    5  A    between atoms: S_15  and  C_21
    6  A    between atoms: C_21  and  N_25
                            x       y       z     vdW  Elec       q    Type
                         _______ _______ _______ _____ _____    ______ ____

>  <TORSDO>
F 6

$$$$
