=
 OpenBabel10262420483D

 28 31  0  0  1  0  0  0  0  0999 V2000
  187.9010  177.1860  144.9930 C   0  0  1  0  0  3  0  0  0  0  0  0
  185.4200  179.1450  147.6800 O   0  0  0  0  0  0  0  0  0  0  0  0
  185.4070  178.8560  142.6130 C   0  0  2  0  0  3  0  0  0  0  0  0
  185.8540  178.5610  145.4160 C   0  0  0  0  0  0  0  0  0  0  0  0
  186.3130  177.9050  143.1840 O   0  0  0  0  0  0  0  0  0  0  0  0
  187.4160  177.9420  147.3210 C   0  0  0  0  0  3  0  0  0  0  0  0
  184.6050  179.1750  144.9240 C   0  0  0  0  0  3  0  0  0  0  0  0
  186.1820  178.5790  146.8530 C   0  0  0  0  0  0  0  0  0  0  0  0
  184.3640  179.2770  143.6170 C   0  0  0  0  0  3  0  0  0  0  0  0
  188.2180  177.3090  146.4640 C   0  0  0  0  0  3  0  0  0  0  0  0
  186.6590  177.9280  144.5430 C   0  0  0  0  0  0  0  0  0  0  0  0
  183.2480  178.4230  141.4170 C   0  0  0  0  0  2  0  0  0  0  0  0
  184.3770  178.9660  138.8700 C   0  0  0  0  0  2  0  0  0  0  0  0
  182.8410  176.9970  139.3570 C   0  0  0  0  0  0  0  0  0  0  0  0
  184.7690  178.3120  141.3300 C   0  0  1  0  0  3  0  0  0  0  0  0
  186.5690  178.6200  139.7590 O   0  0  0  0  0  1  0  0  0  0  0  0
  184.0140  177.5160  138.5660 C   0  0  0  0  0  2  0  0  0  0  0  0
  185.2910  179.0710  140.0940 C   0  0  1  0  0  3  0  0  0  0  0  0
  182.0670  175.9570  138.7740 N   0  0  0  0  0  1  0  0  0  0  0  0
  182.5610  177.3520  140.6200 C   0  0  0  0  0  3  0  0  0  0  0  0
  189.0930  177.5350  144.1520 C   0  0  0  0  0  0  0  0  0  0  0  0
  190.0290  178.4370  144.6610 C   0  0  0  0  0  3  0  0  0  0  0  0
  190.4390  177.3270  142.1510 C   0  0  0  0  0  0  0  0  0  0  0  0
  191.1530  178.7650  143.9010 C   0  0  0  0  0  3  0  0  0  0  0  0
  188.4070  176.0870  142.3610 F   0  0  0  0  0  0  0  0  0  0  0  0
  189.2980  176.9710  142.8800 C   0  0  0  0  0  0  0  0  0  0  0  0
  190.7310  176.6430  140.5620 Cl  0  0  0  0  0  0  0  0  0  0  0  0
  191.3330  178.2090  142.6730 N   0  0  0  0  0  0  0  0  0  0  0  0
  1 21  1  6  0  0  0
  1 10  1  0  0  0  0
  3  5  1  0  0  0  0
  3  9  1  1  0  0  0
  4  8  1  0  0  0  0
  5 11  1  0  0  0  0
  7  4  1  0  0  0  0
  8  6  1  0  0  0  0
  8  2  2  0  0  0  0
  9  7  2  0  0  0  0
 10  6  2  0  0  0  0
 11  1  1  0  0  0  0
 11  4  2  0  0  0  0
 13 18  1  0  0  0  0
 14 20  2  0  0  0  0
 15 12  1  1  0  0  0
 15  3  1  0  0  0  0
 17 13  1  0  0  0  0
 17 14  1  0  0  0  0
 18 16  1  6  0  0  0
 18 15  1  0  0  0  0
 19 14  1  0  0  0  0
 20 12  1  0  0  0  0
 21 22  1  0  0  0  0
 23 28  2  0  0  0  0
 23 26  1  0  0  0  0
 24 22  2  0  0  0  0
 25 26  1  0  0  0  0
 26 21  2  0  0  0  0
 27 23  1  0  0  0  0
 28 24  1  0  0  0  0
M  END
>  <MODEL>
1

>  <REMARK>
 VINA RESULT:     -10.4      0.000      0.000
  Name = 
  2 active torsions:
  status: ('A' for Active; 'I' for Inactive)
    1  A    between atoms: C_1  and  C_2
    2  A    between atoms: C_10  and  C_13
                            x       y       z     vdW  Elec       q    Type
                         _______ _______ _______ _____ _____    ______ ____

>  <TORSDO>
F 2

$$$$
=
 OpenBabel10262420483D

 28 31  0  0  1  0  0  0  0  0999 V2000
  188.8640  176.8310  145.5700 C   0  0  1  0  0  3  0  0  0  0  0  0
  187.5550  178.2530  149.2410 O   0  0  0  0  0  0  0  0  0  0  0  0
  185.8880  178.9950  144.5050 C   0  0  2  0  0  3  0  0  0  0  0  0
  187.1860  178.1310  146.8950 C   0  0  0  0  0  0  0  0  0  0  0  0
  186.8460  177.9310  144.5570 O   0  0  0  0  0  0  0  0  0  0  0  0
  189.2200  177.1100  148.0240 C   0  0  0  0  0  3  0  0  0  0  0  0
  185.9030  178.8550  146.9680 C   0  0  0  0  0  3  0  0  0  0  0  0
  187.9600  177.8510  148.1180 C   0  0  0  0  0  0  0  0  0  0  0  0
  185.2640  179.2240  145.8580 C   0  0  0  0  0  3  0  0  0  0  0  0
  189.6470  176.6470  146.8480 C   0  0  0  0  0  3  0  0  0  0  0  0
  187.6110  177.6720  145.7030 C   0  0  0  0  0  0  0  0  0  0  0  0
  183.6150  179.6320  143.6650 C   0  0  0  0  0  2  0  0  0  0  0  0
  184.3420  179.2350  140.9510 C   0  0  0  0  0  2  0  0  0  0  0  0
  182.1590  178.4230  141.9750 C   0  0  0  0  0  0  0  0  0  0  0  0
  184.8280  178.7340  143.4300 C   0  0  1  0  0  3  0  0  0  0  0  0
  186.1960  177.8900  141.6360 O   0  0  0  0  0  1  0  0  0  0  0  0
  183.2550  178.1660  140.9720 C   0  0  0  0  0  2  0  0  0  0  0  0
  185.4060  178.9740  142.0210 C   0  0  1  0  0  3  0  0  0  0  0  0
  180.8730  177.8880  141.6910 N   0  0  0  0  0  1  0  0  0  0  0  0
  182.3450  179.0030  143.1700 C   0  0  0  0  0  3  0  0  0  0  0  0
  189.7470  177.3200  144.4610 C   0  0  0  0  0  0  0  0  0  0  0  0
  190.7280  178.2690  144.7560 C   0  0  0  0  0  3  0  0  0  0  0  0
  190.4890  177.3280  142.1570 C   0  0  0  0  0  0  0  0  0  0  0  0
  191.5700  178.7280  143.7420 C   0  0  0  0  0  3  0  0  0  0  0  0
  188.6830  175.9140  142.8290 F   0  0  0  0  0  0  0  0  0  0  0  0
  189.6240  176.8410  143.1440 C   0  0  0  0  0  0  0  0  0  0  0  0
  190.3690  176.7530  140.5040 Cl  0  0  0  0  0  0  0  0  0  0  0  0
  191.4350  178.2520  142.4750 N   0  0  0  0  0  0  0  0  0  0  0  0
  1 21  1  6  0  0  0
  1 11  1  0  0  0  0
  1 10  1  0  0  0  0
  3  5  1  0  0  0  0
  3  9  1  1  0  0  0
  4  7  1  0  0  0  0
  4  8  1  0  0  0  0
  5 11  1  0  0  0  0
  6  8  1  0  0  0  0
  8  2  2  0  0  0  0
  9  7  2  0  0  0  0
 10  6  2  0  0  0  0
 11  4  2  0  0  0  0
 13 17  1  0  0  0  0
 13 18  1  0  0  0  0
 14 20  2  0  0  0  0
 15 12  1  1  0  0  0
 15  3  1  0  0  0  0
 17 14  1  0  0  0  0
 18 16  1  6  0  0  0
 18 15  1  0  0  0  0
 19 14  1  0  0  0  0
 20 12  1  0  0  0  0
 21 22  1  0  0  0  0
 23 28  2  0  0  0  0
 23 26  1  0  0  0  0
 24 22  2  0  0  0  0
 25 26  1  0  0  0  0
 26 21  2  0  0  0  0
 27 23  1  0  0  0  0
 28 24  1  0  0  0  0
M  END
>  <MODEL>
2

>  <REMARK>
 VINA RESULT:      -9.5      1.424      1.986
  Name = 
  2 active torsions:
  status: ('A' for Active; 'I' for Inactive)
    1  A    between atoms: C_1  and  C_2
    2  A    between atoms: C_10  and  C_13
                            x       y       z     vdW  Elec       q    Type
                         _______ _______ _______ _____ _____    ______ ____

>  <TORSDO>
F 2

$$$$
=
 OpenBabel10262420483D

 28 31  0  0  1  0  0  0  0  0999 V2000
  187.5440  177.1480  144.7480 C   0  0  1  0  0  3  0  0  0  0  0  0
  184.1520  179.5160  144.4370 O   0  0  0  0  0  0  0  0  0  0  0  0
  187.7640  178.2760  141.0940 C   0  0  2  0  0  3  0  0  0  0  0  0
  186.0110  178.5270  143.3310 C   0  0  0  0  0  0  0  0  0  0  0  0
  187.8540  177.4730  142.2770 O   0  0  0  0  0  0  0  0  0  0  0  0
  185.6260  178.3180  145.8340 C   0  0  0  0  0  3  0  0  0  0  0  0
  185.5880  179.0040  142.0010 C   0  0  0  0  0  3  0  0  0  0  0  0
  185.2000  178.8240  144.5260 C   0  0  0  0  0  0  0  0  0  0  0  0
  186.3800  178.8520  140.9390 C   0  0  0  0  0  3  0  0  0  0  0  0
  186.7140  177.5540  145.9430 C   0  0  0  0  0  3  0  0  0  0  0  0
  187.1120  177.7600  143.4310 C   0  0  0  0  0  0  0  0  0  0  0  0
  187.4930  178.0440  138.6140 C   0  0  0  0  0  2  0  0  0  0  0  0
  190.1840  177.2210  138.2460 C   0  0  0  0  0  2  0  0  0  0  0  0
  188.1880  176.1120  137.1210 C   0  0  0  0  0  0  0  0  0  0  0  0
  188.1880  177.4840  139.8530 C   0  0  1  0  0  3  0  0  0  0  0  0
  190.3310  176.6410  140.5600 O   0  0  0  0  0  1  0  0  0  0  0  0
  189.5610  175.9320  137.7190 C   0  0  0  0  0  2  0  0  0  0  0  0
  189.7190  177.5270  139.6730 C   0  0  1  0  0  3  0  0  0  0  0  0
  187.7880  175.1930  136.1150 N   0  0  0  0  0  1  0  0  0  0  0  0
  187.2770  176.9900  137.5660 C   0  0  0  0  0  3  0  0  0  0  0  0
  189.0060  177.3620  145.0080 C   0  0  0  0  0  0  0  0  0  0  0  0
  189.7550  178.0740  144.0680 C   0  0  0  0  0  3  0  0  0  0  0  0
  191.0000  177.1280  146.3610 C   0  0  0  0  0  0  0  0  0  0  0  0
  191.1140  178.2970  144.2960 C   0  0  0  0  0  3  0  0  0  0  0  0
  188.9310  176.1910  147.1040 F   0  0  0  0  0  0  0  0  0  0  0  0
  189.6350  176.8820  146.1710 C   0  0  0  0  0  0  0  0  0  0  0  0
  191.8180  176.5460  147.7990 Cl  0  0  0  0  0  0  0  0  0  0  0  0
  191.7030  177.8230  145.4270 N   0  0  0  0  0  0  0  0  0  0  0  0
  1 21  1  1  0  0  0
  1 10  1  0  0  0  0
  2  8  2  0  0  0  0
  3  9  1  6  0  0  0
  3  5  1  0  0  0  0
  4 11  2  0  0  0  0
  4  8  1  0  0  0  0
  5 11  1  0  0  0  0
  6 10  2  0  0  0  0
  7  4  1  0  0  0  0
  8  6  1  0  0  0  0
  9  7  2  0  0  0  0
 11  1  1  0  0  0  0
 13 18  1  0  0  0  0
 14 20  2  0  0  0  0
 14 17  1  0  0  0  0
 15 12  1  6  0  0  0
 15  3  1  0  0  0  0
 17 13  1  0  0  0  0
 18 15  1  0  0  0  0
 18 16  1  1  0  0  0
 19 14  1  0  0  0  0
 20 12  1  0  0  0  0
 21 26  1  0  0  0  0
 22 24  1  0  0  0  0
 22 21  2  0  0  0  0
 23 27  1  0  0  0  0
 24 28  2  0  0  0  0
 26 23  2  0  0  0  0
 26 25  1  0  0  0  0
 28 23  1  0  0  0  0
M  END
>  <MODEL>
3

>  <REMARK>
 VINA RESULT:      -9.4      3.143      3.962
  Name = 
  2 active torsions:
  status: ('A' for Active; 'I' for Inactive)
    1  A    between atoms: C_1  and  C_2
    2  A    between atoms: C_10  and  C_13
                            x       y       z     vdW  Elec       q    Type
                         _______ _______ _______ _____ _____    ______ ____

>  <TORSDO>
F 2

$$$$
=
 OpenBabel10262420483D

 28 31  0  0  1  0  0  0  0  0999 V2000
  187.5530  176.9020  143.8130 C   0  0  1  0  0  3  0  0  0  0  0  0
  186.9980  178.5460  147.5810 O   0  0  0  0  0  0  0  0  0  0  0  0
  184.3170  178.8840  143.2850 C   0  0  2  0  0  3  0  0  0  0  0  0
  186.1390  178.2400  145.3840 C   0  0  0  0  0  0  0  0  0  0  0  0
  185.3140  177.8590  143.1950 O   0  0  0  0  0  0  0  0  0  0  0  0
  188.4150  177.3710  146.1070 C   0  0  0  0  0  3  0  0  0  0  0  0
  184.8680  178.9250  145.6890 C   0  0  0  0  0  3  0  0  0  0  0  0
  187.1700  178.0770  146.4250 C   0  0  0  0  0  0  0  0  0  0  0  0
  183.9890  179.1910  144.7230 C   0  0  0  0  0  3  0  0  0  0  0  0
  188.6000  176.8380  144.8980 C   0  0  0  0  0  3  0  0  0  0  0  0
  186.3190  177.7090  144.1610 C   0  0  0  0  0  0  0  0  0  0  0  0
  181.8500  179.2480  143.0460 C   0  0  0  0  0  2  0  0  0  0  0  0
  181.9320  178.9850  140.2210 C   0  0  0  0  0  2  0  0  0  0  0  0
  180.1750  177.8940  141.7030 C   0  0  0  0  0  0  0  0  0  0  0  0
  183.0650  178.5100  142.4860 C   0  0  1  0  0  3  0  0  0  0  0  0
  184.0410  177.8690  140.3790 O   0  0  0  0  0  1  0  0  0  0  0  0
  181.0150  177.7900  140.4550 C   0  0  0  0  0  2  0  0  0  0  0  0
  183.2490  178.8420  140.9910 C   0  0  1  0  0  3  0  0  0  0  0  0
  178.9310  177.2080  141.7130 N   0  0  0  0  0  1  0  0  0  0  0  0
  180.5800  178.4740  142.8430 C   0  0  0  0  0  3  0  0  0  0  0  0
  188.1520  177.3370  142.5080 C   0  0  0  0  0  0  0  0  0  0  0  0
  187.5900  178.4300  141.8460 C   0  0  0  0  0  3  0  0  0  0  0  0
  189.7860  177.1510  140.7320 C   0  0  0  0  0  0  0  0  0  0  0  0
  188.1400  178.8600  140.6380 C   0  0  0  0  0  3  0  0  0  0  0  0
  189.8360  175.6240  142.5700 F   0  0  0  0  0  0  0  0  0  0  0  0
  189.2660  176.6870  141.9460 C   0  0  0  0  0  0  0  0  0  0  0  0
  191.1750  176.3690  140.0010 Cl  0  0  0  0  0  0  0  0  0  0  0  0
  189.2160  178.2180  140.1100 N   0  0  0  0  0  0  0  0  0  0  0  0
  1 21  1  6  0  0  0
  1 11  1  0  0  0  0
  1 10  1  0  0  0  0
  3  9  1  1  0  0  0
  4  7  1  0  0  0  0
  4  8  1  0  0  0  0
  5  3  1  0  0  0  0
  5 11  1  0  0  0  0
  6  8  1  0  0  0  0
  8  2  2  0  0  0  0
  9  7  2  0  0  0  0
 10  6  2  0  0  0  0
 11  4  2  0  0  0  0
 13 17  1  0  0  0  0
 13 18  1  0  0  0  0
 14 19  1  0  0  0  0
 14 20  2  0  0  0  0
 15 12  1  1  0  0  0
 15  3  1  0  0  0  0
 17 14  1  0  0  0  0
 18 16  1  6  0  0  0
 18 15  1  0  0  0  0
 20 12  1  0  0  0  0
 22 21  2  0  0  0  0
 23 26  2  0  0  0  0
 24 22  1  0  0  0  0
 26 21  1  0  0  0  0
 26 25  1  0  0  0  0
 27 23  1  0  0  0  0
 28 24  2  0  0  0  0
 28 23  1  0  0  0  0
M  END
>  <MODEL>
4

>  <REMARK>
 VINA RESULT:      -9.0      1.898      2.370
  Name = 
  2 active torsions:
  status: ('A' for Active; 'I' for Inactive)
    1  A    between atoms: C_1  and  C_2
    2  A    between atoms: C_10  and  C_13
                            x       y       z     vdW  Elec       q    Type
                         _______ _______ _______ _____ _____    ______ ____

>  <TORSDO>
F 2

$$$$
=
 OpenBabel10262420483D

 28 31  0  0  1  0  0  0  0  0999 V2000
  184.6440  179.2610  142.8940 C   0  0  1  0  0  3  0  0  0  0  0  0
  184.5550  178.3960  146.9500 O   0  0  0  0  0  0  0  0  0  0  0  0
  187.6530  176.9130  143.2130 C   0  0  2  0  0  3  0  0  0  0  0  0
  185.6930  178.1520  144.8760 C   0  0  0  0  0  0  0  0  0  0  0  0
  186.8060  177.9870  142.7890 O   0  0  0  0  0  0  0  0  0  0  0  0
  183.4720  179.3670  145.0940 C   0  0  0  0  0  3  0  0  0  0  0  0
  186.8280  177.4280  145.4810 C   0  0  0  0  0  3  0  0  0  0  0  0
  184.5760  178.6280  145.7120 C   0  0  0  0  0  0  0  0  0  0  0  0
  187.7740  176.8830  144.7160 C   0  0  0  0  0  3  0  0  0  0  0  0
  183.4940  179.6510  143.7910 C   0  0  0  0  0  3  0  0  0  0  0  0
  185.7220  178.4310  143.5590 C   0  0  0  0  0  0  0  0  0  0  0  0
  188.9540  177.9010  141.3130 C   0  0  0  0  0  2  0  0  0  0  0  0
  191.3370  178.0850  142.8440 C   0  0  0  0  0  2  0  0  0  0  0  0
  191.2450  177.2310  140.4480 C   0  0  0  0  0  0  0  0  0  0  0  0
  189.0260  176.9900  142.5370 C   0  0  1  0  0  3  0  0  0  0  0  0
  190.4780  176.4790  144.3910 O   0  0  0  0  0  1  0  0  0  0  0  0
  191.9040  177.1280  141.8010 C   0  0  0  0  0  2  0  0  0  0  0  0
  190.0940  177.5030  143.5230 C   0  0  1  0  0  3  0  0  0  0  0  0
  192.0220  176.8760  139.3130 N   0  0  0  0  0  1  0  0  0  0  0  0
  189.9450  177.5030  140.2580 C   0  0  0  0  0  3  0  0  0  0  0  0
  184.1510  178.6230  141.6290 C   0  0  0  0  0  0  0  0  0  0  0  0
  182.9110  177.9820  141.6430 C   0  0  0  0  0  3  0  0  0  0  0  0
  184.3700  178.0620  139.2840 C   0  0  0  0  0  0  0  0  0  0  0  0
  182.4270  177.3920  140.4740 C   0  0  0  0  0  3  0  0  0  0  0  0
  186.1000  179.2860  140.3890 F   0  0  0  0  0  0  0  0  0  0  0  0
  184.8930  178.6660  140.4340 C   0  0  0  0  0  0  0  0  0  0  0  0
  185.2640  178.0960  137.7750 Cl  0  0  0  0  0  0  0  0  0  0  0  0
  183.1590  177.4440  139.3300 N   0  0  0  0  0  0  0  0  0  0  0  0
  1 21  1  6  0  0  0
  1 11  1  0  0  0  0
  1 10  1  0  0  0  0
  3  9  1  1  0  0  0
  4  7  1  0  0  0  0
  4  8  1  0  0  0  0
  5  3  1  0  0  0  0
  5 11  1  0  0  0  0
  6  8  1  0  0  0  0
  8  2  2  0  0  0  0
  9  7  2  0  0  0  0
 10  6  2  0  0  0  0
 11  4  2  0  0  0  0
 13 18  1  0  0  0  0
 14 17  1  0  0  0  0
 15 12  1  6  0  0  0
 15  3  1  0  0  0  0
 15 18  1  0  0  0  0
 17 13  1  0  0  0  0
 18 16  1  1  0  0  0
 19 14  1  0  0  0  0
 20 14  2  0  0  0  0
 20 12  1  0  0  0  0
 21 22  1  0  0  0  0
 23 28  2  0  0  0  0
 23 26  1  0  0  0  0
 24 22  2  0  0  0  0
 25 26  1  0  0  0  0
 26 21  2  0  0  0  0
 27 23  1  0  0  0  0
 28 24  1  0  0  0  0
M  END
>  <MODEL>
5

>  <REMARK>
 VINA RESULT:      -8.8      2.135      6.013
  Name = 
  2 active torsions:
  status: ('A' for Active; 'I' for Inactive)
    1  A    between atoms: C_1  and  C_2
    2  A    between atoms: C_10  and  C_13
                            x       y       z     vdW  Elec       q    Type
                         _______ _______ _______ _____ _____    ______ ____

>  <TORSDO>
F 2

$$$$
=
 OpenBabel10262420483D

 28 31  0  0  1  0  0  0  0  0999 V2000
  187.6160  176.8220  144.4300 C   0  0  1  0  0  3  0  0  0  0  0  0
  184.8280  179.2540  146.3080 O   0  0  0  0  0  0  0  0  0  0  0  0
  186.1820  178.7450  141.4440 C   0  0  2  0  0  3  0  0  0  0  0  0
  185.7770  178.5110  144.2580 C   0  0  0  0  0  0  0  0  0  0  0  0
  186.7300  177.6940  142.2470 O   0  0  0  0  0  0  0  0  0  0  0  0
  186.6270  177.7460  146.5270 C   0  0  0  0  0  3  0  0  0  0  0  0
  184.8290  179.2840  143.4350 C   0  0  0  0  0  3  0  0  0  0  0  0
  185.6900  178.5420  145.7300 C   0  0  0  0  0  0  0  0  0  0  0  0
  184.9820  179.3640  142.1130 C   0  0  0  0  0  3  0  0  0  0  0  0
  187.5250  176.9600  145.9320 C   0  0  0  0  0  3  0  0  0  0  0  0
  186.6820  177.7240  143.6480 C   0  0  0  0  0  0  0  0  0  0  0  0
  184.6380  179.0020  139.4870 C   0  0  0  0  0  2  0  0  0  0  0  0
  186.6880  178.4410  137.6050 C   0  0  0  0  0  2  0  0  0  0  0  0
  184.3430  177.4590  137.4930 C   0  0  0  0  0  0  0  0  0  0  0  0
  185.8500  178.2480  140.0330 C   0  0  1  0  0  3  0  0  0  0  0  0
  187.9960  177.4160  139.3230 O   0  0  0  0  0  1  0  0  0  0  0  0
  185.8130  177.2490  137.2320 C   0  0  0  0  0  2  0  0  0  0  0  0
  187.0580  178.4230  139.0910 C   0  0  1  0  0  3  0  0  0  0  0  0
  183.4250  176.7380  136.6820 N   0  0  0  0  0  1  0  0  0  0  0  0
  183.8490  178.1700  138.5180 C   0  0  0  0  0  3  0  0  0  0  0  0
  189.0350  176.9480  143.9600 C   0  0  0  0  0  0  0  0  0  0  0  0
  189.5400  175.9770  143.0930 C   0  0  0  0  0  3  0  0  0  0  0  0
  191.1700  178.0850  143.8680 C   0  0  0  0  0  0  0  0  0  0  0  0
  190.8530  176.0820  142.6320 C   0  0  0  0  0  3  0  0  0  0  0  0
  189.3930  178.9790  145.1930 F   0  0  0  0  0  0  0  0  0  0  0  0
  189.8580  178.0180  144.3540 C   0  0  0  0  0  0  0  0  0  0  0  0
  192.2270  179.4040  144.3350 Cl  0  0  0  0  0  0  0  0  0  0  0  0
  191.6330  177.1230  143.0250 N   0  0  0  0  0  0  0  0  0  0  0  0
  1 21  1  6  0  0  0
  1 10  1  0  0  0  0
  3  9  1  1  0  0  0
  3  5  1  0  0  0  0
  4  8  1  0  0  0  0
  5 11  1  0  0  0  0
  7  4  1  0  0  0  0
  8  2  2  0  0  0  0
  8  6  1  0  0  0  0
  9  7  2  0  0  0  0
 10  6  2  0  0  0  0
 11  4  2  0  0  0  0
 11  1  1  0  0  0  0
 13 18  1  0  0  0  0
 14 20  2  0  0  0  0
 15 12  1  6  0  0  0
 15  3  1  0  0  0  0
 17 14  1  0  0  0  0
 17 13  1  0  0  0  0
 18 16  1  6  0  0  0
 18 15  1  0  0  0  0
 19 14  1  0  0  0  0
 20 12  1  0  0  0  0
 21 26  1  0  0  0  0
 22 21  2  0  0  0  0
 23 27  1  0  0  0  0
 23 26  2  0  0  0  0
 24 28  2  0  0  0  0
 24 22  1  0  0  0  0
 26 25  1  0  0  0  0
 28 23  1  0  0  0  0
M  END
>  <MODEL>
6

>  <REMARK>
 VINA RESULT:      -8.6      1.777      2.188
  Name = 
  2 active torsions:
  status: ('A' for Active; 'I' for Inactive)
    1  A    between atoms: C_1  and  C_2
    2  A    between atoms: C_10  and  C_13
                            x       y       z     vdW  Elec       q    Type
                         _______ _______ _______ _____ _____    ______ ____

>  <TORSDO>
F 2

$$$$
=
 OpenBabel10262420483D

 28 31  0  0  1  0  0  0  0  0999 V2000
  189.9150  175.9240  137.9400 C   0  0  1  0  0  3  0  0  0  0  0  0
  194.0600  176.0870  137.9360 O   0  0  0  0  0  0  0  0  0  0  0  0
  190.5790  177.8780  141.1670 C   0  0  2  0  0  3  0  0  0  0  0  0
  192.0390  176.5700  139.0930 C   0  0  0  0  0  0  0  0  0  0  0  0
  189.9920  176.9800  140.2180 O   0  0  0  0  0  0  0  0  0  0  0  0
  192.0840  175.5590  136.7630 C   0  0  0  0  0  3  0  0  0  0  0  0
  192.7390  177.0660  140.2940 C   0  0  0  0  0  3  0  0  0  0  0  0
  192.8010  176.0700  137.9350 C   0  0  0  0  0  0  0  0  0  0  0  0
  192.0630  177.6390  141.2900 C   0  0  0  0  0  3  0  0  0  0  0  0
  190.7510  175.5010  136.7570 C   0  0  0  0  0  3  0  0  0  0  0  0
  190.6940  176.5190  139.0950 C   0  0  0  0  0  0  0  0  0  0  0  0
  189.1210  176.4610  142.6320 C   0  0  0  0  0  2  0  0  0  0  0  0
  190.3980  177.3400  145.0090 C   0  0  0  0  0  2  0  0  0  0  0  0
  187.8770  177.1260  144.7410 C   0  0  0  0  0  0  0  0  0  0  0  0
  189.8780  177.7840  142.5260 C   0  0  1  0  0  3  0  0  0  0  0  0
  191.2530  179.2500  143.8530 O   0  0  0  0  0  1  0  0  0  0  0  0
  189.0200  177.8820  145.3720 C   0  0  0  0  0  2  0  0  0  0  0  0
  190.8940  177.9130  143.6780 C   0  0  1  0  0  3  0  0  0  0  0  0
  186.6340  177.1280  145.4290 N   0  0  0  0  0  1  0  0  0  0  0  0
  187.9170  176.5720  143.5210 C   0  0  0  0  0  3  0  0  0  0  0  0
  188.7850  176.8140  137.5140 C   0  0  0  0  0  0  0  0  0  0  0  0
  189.0560  178.1590  137.2550 C   0  0  0  0  0  3  0  0  0  0  0  0
  186.4670  177.2110  136.9390 C   0  0  0  0  0  0  0  0  0  0  0  0
  188.0230  179.0030  136.8430 C   0  0  0  0  0  3  0  0  0  0  0  0
  187.1820  175.0260  137.5930 F   0  0  0  0  0  0  0  0  0  0  0  0
  187.4740  176.3300  137.3530 C   0  0  0  0  0  0  0  0  0  0  0  0
  184.8210  176.6440  136.7260 Cl  0  0  0  0  0  0  0  0  0  0  0  0
  186.7620  178.5160  136.6950 N   0  0  0  0  0  0  0  0  0  0  0  0
  1 21  1  6  0  0  0
  1 11  1  0  0  0  0
  3  9  1  1  0  0  0
  3 15  1  0  0  0  0
  4 11  2  0  0  0  0
  4  7  1  0  0  0  0
  5  3  1  0  0  0  0
  6  8  1  0  0  0  0
  7  9  2  0  0  0  0
  8  2  2  0  0  0  0
  8  4  1  0  0  0  0
 10  6  2  0  0  0  0
 10  1  1  0  0  0  0
 11  5  1  0  0  0  0
 12 20  1  0  0  0  0
 13 17  1  0  0  0  0
 14 17  1  0  0  0  0
 14 19  1  0  0  0  0
 15 12  1  6  0  0  0
 15 18  1  0  0  0  0
 18 16  1  1  0  0  0
 18 13  1  0  0  0  0
 20 14  2  0  0  0  0
 22 21  2  0  0  0  0
 23 26  2  0  0  0  0
 24 22  1  0  0  0  0
 26 21  1  0  0  0  0
 26 25  1  0  0  0  0
 27 23  1  0  0  0  0
 28 24  2  0  0  0  0
 28 23  1  0  0  0  0
M  END
>  <MODEL>
7

>  <REMARK>
 VINA RESULT:      -8.2      4.183      7.968
  Name = 
  2 active torsions:
  status: ('A' for Active; 'I' for Inactive)
    1  A    between atoms: C_1  and  C_2
    2  A    between atoms: C_10  and  C_13
                            x       y       z     vdW  Elec       q    Type
                         _______ _______ _______ _____ _____    ______ ____

>  <TORSDO>
F 2

$$$$
=
 OpenBabel10262420483D

 28 31  0  0  1  0  0  0  0  0999 V2000
  190.5410  175.7930  143.9950 C   0  0  1  0  0  3  0  0  0  0  0  0
  191.9820  176.1970  147.8640 O   0  0  0  0  0  0  0  0  0  0  0  0
  188.1390  178.4220  145.4070 C   0  0  2  0  0  3  0  0  0  0  0  0
  190.3140  176.7930  146.2770 C   0  0  0  0  0  0  0  0  0  0  0  0
  188.6540  177.3100  144.6650 O   0  0  0  0  0  0  0  0  0  0  0  0
  192.2990  175.3160  145.7000 C   0  0  0  0  0  3  0  0  0  0  0  0
  189.5330  177.5730  147.2570 C   0  0  0  0  0  3  0  0  0  0  0  0
  191.5530  176.1050  146.6840 C   0  0  0  0  0  0  0  0  0  0  0  0
  188.4870  178.3020  146.8690 C   0  0  0  0  0  3  0  0  0  0  0  0
  191.8420  175.1790  144.4550 C   0  0  0  0  0  3  0  0  0  0  0  0
  189.8470  176.6640  145.0220 C   0  0  0  0  0  0  0  0  0  0  0  0
  186.1360  177.5460  144.1820 C   0  0  0  0  0  2  0  0  0  0  0  0
  184.3930  178.0550  146.3620 C   0  0  0  0  0  2  0  0  0  0  0  0
  183.8430  178.6060  143.9390 C   0  0  0  0  0  0  0  0  0  0  0  0
  186.6290  178.5770  145.1960 C   0  0  1  0  0  3  0  0  0  0  0  0
  185.9780  179.5900  147.2820 O   0  0  0  0  0  1  0  0  0  0  0  0
  183.6920  178.9960  145.3880 C   0  0  0  0  0  2  0  0  0  0  0  0
  185.8710  178.4200  146.5290 C   0  0  1  0  0  3  0  0  0  0  0  0
  182.8110  178.9990  143.0450 N   0  0  0  0  0  1  0  0  0  0  0  0
  184.9400  178.0370  143.4180 C   0  0  0  0  0  3  0  0  0  0  0  0
  190.7110  176.5040  142.6860 C   0  0  0  0  0  0  0  0  0  0  0  0
  191.9750  176.9930  142.3500 C   0  0  0  0  0  3  0  0  0  0  0  0
  189.8720  177.3370  140.5730 C   0  0  0  0  0  0  0  0  0  0  0  0
  192.1590  177.6470  141.1310 C   0  0  0  0  0  3  0  0  0  0  0  0
  188.4040  176.2060  142.0840 F   0  0  0  0  0  0  0  0  0  0  0  0
  189.6430  176.6760  141.7860 C   0  0  0  0  0  0  0  0  0  0  0  0
  188.5660  177.5690  139.4260 Cl  0  0  0  0  0  0  0  0  0  0  0  0
  191.1140  177.8030  140.2750 N   0  0  0  0  0  0  0  0  0  0  0  0
  1 21  1  6  0  0  0
  1 10  1  0  0  0  0
  1 11  1  0  0  0  0
  3  9  1  1  0  0  0
  4  8  1  0  0  0  0
  4  7  1  0  0  0  0
  5 11  1  0  0  0  0
  5  3  1  0  0  0  0
  6  8  1  0  0  0  0
  8  2  2  0  0  0  0
  9  7  2  0  0  0  0
 10  6  2  0  0  0  0
 11  4  2  0  0  0  0
 13 18  1  0  0  0  0
 14 17  1  0  0  0  0
 15 12  1  6  0  0  0
 15  3  1  0  0  0  0
 15 18  1  0  0  0  0
 17 13  1  0  0  0  0
 18 16  1  6  0  0  0
 19 14  1  0  0  0  0
 20 14  2  0  0  0  0
 20 12  1  0  0  0  0
 22 21  1  0  0  0  0
 23 26  1  0  0  0  0
 24 22  2  0  0  0  0
 26 25  1  0  0  0  0
 26 21  2  0  0  0  0
 27 23  1  0  0  0  0
 28 23  2  0  0  0  0
 28 24  1  0  0  0  0
M  END
>  <MODEL>
8

>  <REMARK>
 VINA RESULT:      -8.1      2.733      4.719
  Name = 
  2 active torsions:
  status: ('A' for Active; 'I' for Inactive)
    1  A    between atoms: C_1  and  C_2
    2  A    between atoms: C_10  and  C_13
                            x       y       z     vdW  Elec       q    Type
                         _______ _______ _______ _____ _____    ______ ____

>  <TORSDO>
F 2

$$$$
=
 OpenBabel10262420483D

 28 31  0  0  1  0  0  0  0  0999 V2000
  187.6040  177.1190  143.9680 C   0  0  1  0  0  3  0  0  0  0  0  0
  183.9530  178.9830  144.6060 O   0  0  0  0  0  0  0  0  0  0  0  0
  186.9300  178.6240  140.5110 C   0  0  2  0  0  3  0  0  0  0  0  0
  185.6540  178.3910  143.0520 C   0  0  0  0  0  0  0  0  0  0  0  0
  187.3590  177.7300  141.5440 O   0  0  0  0  0  0  0  0  0  0  0  0
  185.8190  177.8810  145.5360 C   0  0  0  0  0  3  0  0  0  0  0  0
  184.9120  178.9320  141.8970 C   0  0  0  0  0  3  0  0  0  0  0  0
  185.0750  178.4460  144.4070 C   0  0  0  0  0  0  0  0  0  0  0  0
  185.4820  179.0040  140.6940 C   0  0  0  0  0  3  0  0  0  0  0  0
  186.9920  177.2780  145.3390 C   0  0  0  0  0  3  0  0  0  0  0  0
  186.8390  177.7890  142.8450 C   0  0  0  0  0  0  0  0  0  0  0  0
  185.9850  178.2870  138.2140 C   0  0  0  0  0  2  0  0  0  0  0  0
  188.5290  178.4980  136.9740 C   0  0  0  0  0  2  0  0  0  0  0  0
  186.7980  176.7290  136.3840 C   0  0  0  0  0  0  0  0  0  0  0  0
  187.1860  178.0300  139.1220 C   0  0  1  0  0  3  0  0  0  0  0  0
  189.5950  178.0320  139.0620 O   0  0  0  0  0  1  0  0  0  0  0  0
  188.2600  177.0660  136.5220 C   0  0  0  0  0  2  0  0  0  0  0  0
  188.4640  178.6260  138.4990 C   0  0  1  0  0  3  0  0  0  0  0  0
  186.4450  175.7170  135.4500 N   0  0  0  0  0  1  0  0  0  0  0  0
  185.8290  177.2180  137.1720 C   0  0  0  0  0  3  0  0  0  0  0  0
  189.0500  177.5190  143.9720 C   0  0  0  0  0  0  0  0  0  0  0  0
  189.5380  178.2520  145.0550 C   0  0  0  0  0  3  0  0  0  0  0  0
  191.2660  177.5550  142.9990 C   0  0  0  0  0  0  0  0  0  0  0  0
  190.8840  178.6220  145.0860 C   0  0  0  0  0  3  0  0  0  0  0  0
  189.4780  176.4470  141.8640 F   0  0  0  0  0  0  0  0  0  0  0  0
  189.9240  177.1640  142.9280 C   0  0  0  0  0  0  0  0  0  0  0  0
  192.3870  177.1300  141.7180 Cl  0  0  0  0  0  0  0  0  0  0  0  0
  191.7120  178.2690  144.0670 N   0  0  0  0  0  0  0  0  0  0  0  0
  1 21  1  1  0  0  0
  1 10  1  0  0  0  0
  3  9  1  1  0  0  0
  3  5  1  0  0  0  0
  4  8  1  0  0  0  0
  5 11  1  0  0  0  0
  7  4  1  0  0  0  0
  8  2  2  0  0  0  0
  8  6  1  0  0  0  0
  9  7  2  0  0  0  0
 10  6  2  0  0  0  0
 11  4  2  0  0  0  0
 11  1  1  0  0  0  0
 13 18  1  0  0  0  0
 14 17  1  0  0  0  0
 14 20  2  0  0  0  0
 15 12  1  6  0  0  0
 15  3  1  0  0  0  0
 17 13  1  0  0  0  0
 18 16  1  1  0  0  0
 18 15  1  0  0  0  0
 19 14  1  0  0  0  0
 20 12  1  0  0  0  0
 21 22  1  0  0  0  0
 22 24  2  0  0  0  0
 23 28  2  0  0  0  0
 25 26  1  0  0  0  0
 26 23  1  0  0  0  0
 26 21  2  0  0  0  0
 27 23  1  0  0  0  0
 28 24  1  0  0  0  0
M  END
>  <MODEL>
9

>  <REMARK>
 VINA RESULT:      -8.1      2.380      2.994
  Name = 
  2 active torsions:
  status: ('A' for Active; 'I' for Inactive)
    1  A    between atoms: C_1  and  C_2
    2  A    between atoms: C_10  and  C_13
                            x       y       z     vdW  Elec       q    Type
                         _______ _______ _______ _____ _____    ______ ____

>  <TORSDO>
F 2

$$$$
