=
 OpenBabel10252414583D

 34 37  0  0  1  0  0  0  0  0999 V2000
  182.5900  175.8530  136.7590 C   0  0  0  0  0  0  0  0  0  0  0  0
  184.8820  174.8480  136.3570 C   0  0  0  0  0  0  0  0  0  0  0  0
  188.3550  176.4080  134.5940 O   0  0  0  0  0  0  0  0  0  0  0  0
  184.6050  176.9630  137.5720 C   0  0  0  0  0  0  0  0  0  0  0  0
  186.1430  177.7070  135.2810 O   0  0  0  0  0  1  0  0  0  0  0  0
  180.4280  176.8400  137.2050 O   0  0  0  0  0  1  0  0  0  0  0  0
  184.4500  173.9290  135.6080 O   0  0  0  0  0  0  0  0  0  0  0  0
  186.6730  175.6930  137.7580 O   0  0  0  0  0  0  0  0  0  0  0  0
  189.9890  174.9150  135.4660 C   0  0  0  0  0  2  0  0  0  0  0  0
  188.7630  175.1410  135.0050 C   0  0  0  0  0  0  0  0  0  0  0  0
  183.9920  175.8960  136.8870 C   0  0  0  0  0  0  0  0  0  0  0  0
  188.9120  177.6170  135.0980 C   0  0  0  0  0  2  0  0  0  0  0  0
  186.7530  177.8770  136.5290 C   0  0  2  0  0  3  0  0  0  0  0  0
  181.9640  174.8100  136.0860 O   0  0  0  0  0  1  0  0  0  0  0  0
  187.1590  173.8160  136.3240 C   0  0  0  0  0  2  0  0  0  0  0  0
  183.8080  177.9760  138.1540 C   0  0  0  0  0  0  0  0  0  0  0  0
  181.8110  176.8690  137.3250 C   0  0  0  0  0  0  0  0  0  0  0  0
  186.2770  174.9150  136.7040 N   0  0  0  0  0  0  0  0  0  0  0  0
  188.3030  177.9910  136.4610 C   0  0  1  0  0  3  0  0  0  0  0  0
  186.1180  176.9930  137.6250 C   0  0  1  0  0  3  0  0  0  0  0  0
  182.4180  177.9150  138.0190 C   0  0  0  0  0  3  0  0  0  0  0  0
  187.7730  174.0330  134.9500 C   0  0  0  0  0  2  0  0  0  0  0  0
  189.0810  177.4340  137.6680 C   0  0  0  0  0  3  0  0  0  0  0  0
  189.0150  178.3970  138.8400 C   0  0  0  0  0  1  0  0  0  0  0  0
  190.5490  177.2180  137.3360 C   0  0  0  0  0  1  0  0  0  0  0  0
  183.5370  180.4020  138.7390 C   0  0  0  0  0  1  0  0  0  0  0  0
  184.3690  179.1390  138.9290 C   0  0  1  0  0  3  0  0  0  0  0  0
  186.3590  178.4220  142.0940 C   0  0  0  0  0  0  0  0  0  0  0  0
  185.3470  178.2110  143.0330 C   0  0  0  0  0  3  0  0  0  0  0  0
  184.6920  178.8040  140.3660 C   0  0  0  0  0  0  0  0  0  0  0  0
  184.0080  178.3060  142.6480 C   0  0  0  0  0  3  0  0  0  0  0  0
  186.0340  178.7230  140.7690 C   0  0  0  0  0  3  0  0  0  0  0  0
  183.6820  178.6050  141.3230 C   0  0  0  0  0  3  0  0  0  0  0  0
  187.6590  178.3370  142.4680 F   0  0  0  0  0  0  0  0  0  0  0  0
  1 11  2  0  0  0  0
  1 17  1  0  0  0  0
  2 18  1  0  0  0  0
  2 11  1  0  0  0  0
  3 10  1  0  0  0  0
  3 12  1  0  0  0  0
  4 16  2  0  0  0  0
  6 17  1  0  0  0  0
  7  2  2  0  0  0  0
 10  9  2  0  0  0  0
 11  4  1  0  0  0  0
 12 19  1  0  0  0  0
 13  5  1  6  0  0  0
 13 20  1  0  0  0  0
 14  1  1  0  0  0  0
 15 18  1  0  0  0  0
 16 27  1  0  0  0  0
 17 21  2  0  0  0  0
 18  8  1  0  0  0  0
 19 13  1  0  0  0  0
 19 23  1  1  0  0  0
 20  4  1  6  0  0  0
 20  8  1  0  0  0  0
 21 16  1  0  0  0  0
 22 10  1  0  0  0  0
 22 15  1  0  0  0  0
 23 24  1  0  0  0  0
 25 23  1  0  0  0  0
 27 26  1  1  0  0  0
 27 30  1  0  0  0  0
 28 34  1  0  0  0  0
 28 29  1  0  0  0  0
 30 32  1  0  0  0  0
 30 33  2  0  0  0  0
 31 29  2  0  0  0  0
 32 28  2  0  0  0  0
 33 31  1  0  0  0  0
M  END
>  <MODEL>
1

>  <REMARK>
 VINA RESULT:      -6.2      0.000      0.000
  Name = 
  3 active torsions:
  status: ('A' for Active; 'I' for Inactive)
    1  A    between atoms: C_12  and  C_28
    2  A    between atoms: C_13  and  C_29
    3  A    between atoms: C_21  and  C_28
                            x       y       z     vdW  Elec       q    Type
                         _______ _______ _______ _____ _____    ______ ____

>  <TORSDO>
F 3

$$$$
=
 OpenBabel10252414583D

 34 37  0  0  1  0  0  0  0  0999 V2000
  188.2760  177.6620  139.6740 C   0  0  0  0  0  0  0  0  0  0  0  0
  189.6640  176.5160  141.4580 C   0  0  0  0  0  0  0  0  0  0  0  0
  191.2580  177.8990  145.0850 O   0  0  0  0  0  0  0  0  0  0  0  0
  187.5580  177.6520  142.0050 C   0  0  0  0  0  0  0  0  0  0  0  0
  189.5090  179.1130  143.4970 O   0  0  0  0  0  1  0  0  0  0  0  0
  186.8920  178.7390  138.0080 O   0  0  0  0  0  1  0  0  0  0  0  0
  190.6280  176.2720  140.6820 O   0  0  0  0  0  0  0  0  0  0  0  0
  188.5230  176.0300  143.5420 O   0  0  0  0  0  0  0  0  0  0  0  0
  191.6460  175.8340  146.2010 C   0  0  0  0  0  2  0  0  0  0  0  0
  191.6210  176.5540  145.0830 C   0  0  0  0  0  0  0  0  0  0  0  0
  188.4950  177.2970  141.0160 C   0  0  0  0  0  0  0  0  0  0  0  0
  190.3910  178.4800  146.0520 C   0  0  0  0  0  2  0  0  0  0  0  0
  188.5270  178.4410  144.2350 C   0  0  2  0  0  3  0  0  0  0  0  0
  189.1880  177.3230  138.6810 O   0  0  0  0  0  1  0  0  0  0  0  0
  190.7510  175.1560  143.2520 C   0  0  0  0  0  2  0  0  0  0  0  0
  186.3840  178.3540  141.6430 C   0  0  0  0  0  0  0  0  0  0  0  0
  187.1190  178.3700  139.3270 C   0  0  0  0  0  0  0  0  0  0  0  0
  189.6850  176.0550  142.8210 N   0  0  0  0  0  0  0  0  0  0  0  0
  188.9140  178.2020  145.7230 C   0  0  1  0  0  3  0  0  0  0  0  0
  187.8730  177.2890  143.4410 C   0  0  1  0  0  3  0  0  0  0  0  0
  186.1830  178.7050  140.3050 C   0  0  0  0  0  3  0  0  0  0  0  0
  191.9550  175.9190  143.7810 C   0  0  0  0  0  2  0  0  0  0  0  0
  188.3580  176.9210  146.3740 C   0  0  0  0  0  3  0  0  0  0  0  0
  186.8410  176.9650  146.4350 C   0  0  0  0  0  1  0  0  0  0  0  0
  188.8680  176.7500  147.7970 C   0  0  0  0  0  1  0  0  0  0  0  0
  185.5630  180.1370  143.2070 C   0  0  0  0  0  1  0  0  0  0  0  0
  185.3120  178.7510  142.6230 C   0  0  1  0  0  3  0  0  0  0  0  0
  181.5150  178.8510  142.3650 C   0  0  0  0  0  0  0  0  0  0  0  0
  181.2860  178.1570  141.1750 C   0  0  0  0  0  3  0  0  0  0  0  0
  183.9100  178.5250  142.1060 C   0  0  0  0  0  0  0  0  0  0  0  0
  182.3640  177.6540  140.4410 C   0  0  0  0  0  3  0  0  0  0  0  0
  182.8210  179.0400  142.8250 C   0  0  0  0  0  3  0  0  0  0  0  0
  183.6690  177.8410  140.9020 C   0  0  0  0  0  3  0  0  0  0  0  0
  180.4710  179.3440  143.0720 F   0  0  0  0  0  0  0  0  0  0  0  0
  1 11  1  0  0  0  0
  2 18  1  0  0  0  0
  3 12  1  0  0  0  0
  6 17  1  0  0  0  0
  7  2  2  0  0  0  0
 10  3  1  0  0  0  0
 10  9  2  0  0  0  0
 11  2  1  0  0  0  0
 11  4  2  0  0  0  0
 13  5  1  6  0  0  0
 13 19  1  0  0  0  0
 14  1  1  0  0  0  0
 15 22  1  0  0  0  0
 16  4  1  0  0  0  0
 16 27  1  0  0  0  0
 17  1  2  0  0  0  0
 17 21  1  0  0  0  0
 18 15  1  0  0  0  0
 18  8  1  0  0  0  0
 19 12  1  0  0  0  0
 19 23  1  6  0  0  0
 20  4  1  6  0  0  0
 20  8  1  0  0  0  0
 20 13  1  0  0  0  0
 21 16  2  0  0  0  0
 22 10  1  0  0  0  0
 23 24  1  0  0  0  0
 23 25  1  0  0  0  0
 27 26  1  6  0  0  0
 28 32  1  0  0  0  0
 28 34  1  0  0  0  0
 29 28  2  0  0  0  0
 30 27  1  0  0  0  0
 30 32  2  0  0  0  0
 31 33  2  0  0  0  0
 31 29  1  0  0  0  0
 33 30  1  0  0  0  0
M  END
>  <MODEL>
2

>  <REMARK>
 VINA RESULT:      -6.2      4.427      7.325
  Name = 
  3 active torsions:
  status: ('A' for Active; 'I' for Inactive)
    1  A    between atoms: C_12  and  C_28
    2  A    between atoms: C_13  and  C_29
    3  A    between atoms: C_21  and  C_28
                            x       y       z     vdW  Elec       q    Type
                         _______ _______ _______ _____ _____    ______ ____

>  <TORSDO>
F 3

$$$$
=
 OpenBabel10252414583D

 34 37  0  0  1  0  0  0  0  0999 V2000
  184.2450  178.8440  142.5420 C   0  0  0  0  0  0  0  0  0  0  0  0
  185.3140  178.5360  140.2640 C   0  0  0  0  0  0  0  0  0  0  0  0
  184.7830  175.6220  137.2920 O   0  0  0  0  0  0  0  0  0  0  0  0
  182.8760  178.6390  140.5330 C   0  0  0  0  0  0  0  0  0  0  0  0
  183.3200  176.0220  139.4710 O   0  0  0  0  0  1  0  0  0  0  0  0
  183.1710  179.1740  144.6840 O   0  0  0  0  0  1  0  0  0  0  0  0
  186.4800  178.4060  140.7270 O   0  0  0  0  0  0  0  0  0  0  0  0
  183.8960  179.0050  138.3540 O   0  0  0  0  0  0  0  0  0  0  0  0
  185.6700  176.7670  135.4040 C   0  0  0  0  0  2  0  0  0  0  0  0
  185.6960  176.4970  136.7060 C   0  0  0  0  0  0  0  0  0  0  0  0
  184.1420  178.6680  141.1490 C   0  0  0  0  0  0  0  0  0  0  0  0
  183.4800  175.3810  136.7750 C   0  0  0  0  0  2  0  0  0  0  0  0
  182.5690  176.9020  138.6830 C   0  0  2  0  0  3  0  0  0  0  0  0
  185.4850  178.8750  143.1710 O   0  0  0  0  0  1  0  0  0  0  0  0
  186.2290  178.5610  137.9390 C   0  0  0  0  0  2  0  0  0  0  0  0
  181.7100  178.8140  141.3140 C   0  0  0  0  0  0  0  0  0  0  0  0
  183.0840  179.0020  143.3090 C   0  0  0  0  0  0  0  0  0  0  0  0
  185.0850  178.5380  138.8440 N   0  0  0  0  0  0  0  0  0  0  0  0
  182.4980  176.4950  137.1830 C   0  0  1  0  0  3  0  0  0  0  0  0
  182.8200  178.3830  139.0410 C   0  0  1  0  0  3  0  0  0  0  0  0
  181.8320  178.9910  142.6950 C   0  0  0  0  0  3  0  0  0  0  0  0
  186.6970  177.1590  137.5830 C   0  0  0  0  0  2  0  0  0  0  0  0
  182.4050  177.6500  136.1670 C   0  0  0  0  0  3  0  0  0  0  0  0
  181.0690  178.3610  136.2840 C   0  0  0  0  0  1  0  0  0  0  0  0
  182.5310  177.1480  134.7370 C   0  0  0  0  0  1  0  0  0  0  0  0
  179.3040  178.2160  141.7060 C   0  0  0  0  0  1  0  0  0  0  0  0
  180.3160  178.8280  140.7440 C   0  0  1  0  0  3  0  0  0  0  0  0
  179.7550  181.6440  138.2460 C   0  0  0  0  0  0  0  0  0  0  0  0
  179.1610  182.6260  139.0420 C   0  0  0  0  0  3  0  0  0  0  0  0
  179.9140  180.1650  140.1680 C   0  0  0  0  0  0  0  0  0  0  0  0
  178.9310  182.3800  140.3980 C   0  0  0  0  0  3  0  0  0  0  0  0
  180.1250  180.4180  138.8040 C   0  0  0  0  0  3  0  0  0  0  0  0
  179.3010  181.1540  140.9570 C   0  0  0  0  0  3  0  0  0  0  0  0
  179.9720  181.8810  136.9290 F   0  0  0  0  0  0  0  0  0  0  0  0
  1 14  1  0  0  0  0
  1 17  1  0  0  0  0
  2  7  2  0  0  0  0
  2 11  1  0  0  0  0
  4 11  1  0  0  0  0
  4 16  2  0  0  0  0
  8 18  1  0  0  0  0
  9 10  2  0  0  0  0
 10  3  1  0  0  0  0
 10 22  1  0  0  0  0
 11  1  2  0  0  0  0
 12 19  1  0  0  0  0
 12  3  1  0  0  0  0
 13 20  1  0  0  0  0
 13  5  1  6  0  0  0
 15 18  1  0  0  0  0
 16 21  1  0  0  0  0
 17  6  1  0  0  0  0
 18  2  1  0  0  0  0
 19 23  1  6  0  0  0
 19 13  1  0  0  0  0
 20  8  1  6  0  0  0
 20  4  1  0  0  0  0
 21 17  2  0  0  0  0
 22 15  1  0  0  0  0
 23 24  1  0  0  0  0
 25 23  1  0  0  0  0
 27 16  1  0  0  0  0
 27 26  1  1  0  0  0
 28 32  2  0  0  0  0
 28 29  1  0  0  0  0
 29 31  2  0  0  0  0
 30 27  1  0  0  0  0
 30 33  2  0  0  0  0
 31 33  1  0  0  0  0
 32 30  1  0  0  0  0
 34 28  1  0  0  0  0
M  END
>  <MODEL>
3

>  <REMARK>
 VINA RESULT:      -6.1      3.711      6.173
  Name = 
  3 active torsions:
  status: ('A' for Active; 'I' for Inactive)
    1  A    between atoms: C_12  and  C_28
    2  A    between atoms: C_13  and  C_29
    3  A    between atoms: C_21  and  C_28
                            x       y       z     vdW  Elec       q    Type
                         _______ _______ _______ _____ _____    ______ ____

>  <TORSDO>
F 3

$$$$
=
 OpenBabel10252414583D

 34 37  0  0  1  0  0  0  0  0999 V2000
  186.1880  178.6730  141.7430 C   0  0  0  0  0  0  0  0  0  0  0  0
  183.6530  178.6610  141.7250 C   0  0  0  0  0  0  0  0  0  0  0  0
  180.8580  180.8670  139.5050 O   0  0  0  0  0  0  0  0  0  0  0  0
  184.9520  178.3260  139.6690 C   0  0  0  0  0  0  0  0  0  0  0  0
  183.4860  180.7240  139.1480 O   0  0  0  0  0  1  0  0  0  0  0  0
  188.6060  178.6360  141.7070 O   0  0  0  0  0  1  0  0  0  0  0  0
  183.5510  179.0140  142.9320 O   0  0  0  0  0  0  0  0  0  0  0  0
  182.6100  177.6710  139.7720 O   0  0  0  0  0  0  0  0  0  0  0  0
  178.9310  179.4940  139.7530 C   0  0  0  0  0  2  0  0  0  0  0  0
  180.0510  180.0100  140.2500 C   0  0  0  0  0  0  0  0  0  0  0  0
  184.9640  178.5650  141.0570 C   0  0  0  0  0  0  0  0  0  0  0  0
  180.9250  180.8490  138.0840 C   0  0  0  0  0  2  0  0  0  0  0  0
  183.2110  179.6270  138.3220 C   0  0  2  0  0  3  0  0  0  0  0  0
  186.2230  178.9100  143.1130 O   0  0  0  0  0  1  0  0  0  0  0  0
  181.1830  178.2980  141.6120 C   0  0  0  0  0  2  0  0  0  0  0  0
  186.1730  178.1680  138.9720 C   0  0  0  0  0  0  0  0  0  0  0  0
  187.3910  178.5300  141.0430 C   0  0  0  0  0  0  0  0  0  0  0  0
  182.4810  178.3600  140.9470 N   0  0  0  0  0  0  0  0  0  0  0  0
  181.8490  179.7270  137.5780 C   0  0  1  0  0  3  0  0  0  0  0  0
  183.6090  178.2820  138.9700 C   0  0  1  0  0  3  0  0  0  0  0  0
  187.3780  178.2750  139.6720 C   0  0  0  0  0  3  0  0  0  0  0  0
  180.4890  179.6510  141.6240 C   0  0  0  0  0  2  0  0  0  0  0  0
  181.1240  178.3960  137.3010 C   0  0  0  0  0  3  0  0  0  0  0  0
  181.9170  177.5460  136.3240 C   0  0  0  0  0  1  0  0  0  0  0  0
  179.7470  178.6230  136.6960 C   0  0  0  0  0  1  0  0  0  0  0  0
  187.3390  178.7210  136.8200 C   0  0  0  0  0  1  0  0  0  0  0  0
  186.2620  177.8810  137.4970 C   0  0  1  0  0  3  0  0  0  0  0  0
  185.1320  174.3500  136.6340 C   0  0  0  0  0  0  0  0  0  0  0  0
  186.3480  173.6700  136.5380 C   0  0  0  0  0  3  0  0  0  0  0  0
  186.3110  176.4070  137.1720 C   0  0  0  0  0  0  0  0  0  0  0  0
  187.5480  174.3550  136.7470 C   0  0  0  0  0  3  0  0  0  0  0  0
  185.1140  175.7130  136.9430 C   0  0  0  0  0  3  0  0  0  0  0  0
  187.5300  175.7170  137.0580 C   0  0  0  0  0  3  0  0  0  0  0  0
  183.9680  173.6880  136.4250 F   0  0  0  0  0  0  0  0  0  0  0  0
  1 14  1  0  0  0  0
  2  7  2  0  0  0  0
  3 10  1  0  0  0  0
  4 11  2  0  0  0  0
  8 18  1  0  0  0  0
  9 10  2  0  0  0  0
 10 22  1  0  0  0  0
 11  2  1  0  0  0  0
 11  1  1  0  0  0  0
 12  3  1  0  0  0  0
 13 20  1  0  0  0  0
 13  5  1  1  0  0  0
 15 22  1  0  0  0  0
 16  4  1  0  0  0  0
 16 21  2  0  0  0  0
 17  6  1  0  0  0  0
 17  1  2  0  0  0  0
 18 15  1  0  0  0  0
 18  2  1  0  0  0  0
 19 23  1  1  0  0  0
 19 12  1  0  0  0  0
 19 13  1  0  0  0  0
 20  4  1  1  0  0  0
 20  8  1  0  0  0  0
 21 17  1  0  0  0  0
 24 23  1  0  0  0  0
 25 23  1  0  0  0  0
 27 26  1  1  0  0  0
 27 16  1  0  0  0  0
 28 32  1  0  0  0  0
 29 28  2  0  0  0  0
 29 31  1  0  0  0  0
 30 27  1  0  0  0  0
 31 33  2  0  0  0  0
 32 30  2  0  0  0  0
 33 30  1  0  0  0  0
 34 28  1  0  0  0  0
M  END
>  <MODEL>
4

>  <REMARK>
 VINA RESULT:      -6.1      3.372      7.511
  Name = 
  3 active torsions:
  status: ('A' for Active; 'I' for Inactive)
    1  A    between atoms: C_12  and  C_28
    2  A    between atoms: C_13  and  C_29
    3  A    between atoms: C_21  and  C_28
                            x       y       z     vdW  Elec       q    Type
                         _______ _______ _______ _____ _____    ______ ____

>  <TORSDO>
F 3

$$$$
=
 OpenBabel10252414583D

 34 37  0  0  1  0  0  0  0  0999 V2000
  187.1210  175.1980  136.2300 C   0  0  0  0  0  0  0  0  0  0  0  0
  189.1730  173.7400  135.9270 C   0  0  0  0  0  0  0  0  0  0  0  0
  193.0550  174.6100  134.5940 O   0  0  0  0  0  0  0  0  0  0  0  0
  189.2370  175.7760  137.2960 C   0  0  0  0  0  0  0  0  0  0  0  0
  191.1160  176.3160  135.2110 O   0  0  0  0  0  1  0  0  0  0  0  0
  185.1870  176.6050  136.5840 O   0  0  0  0  0  1  0  0  0  0  0  0
  188.6290  172.9930  135.0690 O   0  0  0  0  0  0  0  0  0  0  0  0
  190.9570  174.0710  137.5370 O   0  0  0  0  0  0  0  0  0  0  0  0
  194.2380  172.7370  135.4600 C   0  0  0  0  0  2  0  0  0  0  0  0
  193.1400  173.2600  134.9240 C   0  0  0  0  0  0  0  0  0  0  0  0
  188.4800  174.9210  136.4730 C   0  0  0  0  0  0  0  0  0  0  0  0
  193.8050  175.6290  135.2450 C   0  0  0  0  0  2  0  0  0  0  0  0
  191.6220  176.2630  136.5140 C   0  0  2  0  0  3  0  0  0  0  0  0
  186.3550  174.3670  135.4190 O   0  0  0  0  0  1  0  0  0  0  0  0
  191.1680  172.2350  135.9880 C   0  0  0  0  0  2  0  0  0  0  0  0
  188.6230  176.8990  137.8990 C   0  0  0  0  0  0  0  0  0  0  0  0
  186.5260  176.3190  136.8180 C   0  0  0  0  0  0  0  0  0  0  0  0
  190.5090  173.4740  136.3900 N   0  0  0  0  0  0  0  0  0  0  0  0
  193.1600  176.0350  136.5820 C   0  0  1  0  0  3  0  0  0  0  0  0
  190.7100  175.4680  137.4740 C   0  0  1  0  0  3  0  0  0  0  0  0
  187.2720  177.1560  137.6480 C   0  0  0  0  0  3  0  0  0  0  0  0
  191.9460  172.4040  134.6920 C   0  0  0  0  0  2  0  0  0  0  0  0
  193.6790  175.2390  137.7950 C   0  0  0  0  0  3  0  0  0  0  0  0
  193.5920  176.0730  139.0610 C   0  0  0  0  0  1  0  0  0  0  0  0
  195.1330  174.8310  137.6160 C   0  0  0  0  0  1  0  0  0  0  0  0
  189.0980  179.3070  138.4250 C   0  0  0  0  0  1  0  0  0  0  0  0
  189.3410  177.8540  138.8160 C   0  0  1  0  0  3  0  0  0  0  0  0
  189.8610  176.3900  142.2910 C   0  0  0  0  0  0  0  0  0  0  0  0
  188.8160  176.9720  143.0120 C   0  0  0  0  0  3  0  0  0  0  0  0
  189.1360  177.5490  140.2810 C   0  0  0  0  0  0  0  0  0  0  0  0
  187.9350  177.8510  142.3760 C   0  0  0  0  0  3  0  0  0  0  0  0
  190.0240  176.6820  140.9340 C   0  0  0  0  0  3  0  0  0  0  0  0
  188.0960  178.1420  141.0190 C   0  0  0  0  0  3  0  0  0  0  0  0
  190.7190  175.5430  142.9090 F   0  0  0  0  0  0  0  0  0  0  0  0
  1 11  2  0  0  0  0
  1 17  1  0  0  0  0
  2 18  1  0  0  0  0
  2 11  1  0  0  0  0
  3 10  1  0  0  0  0
  3 12  1  0  0  0  0
  4 16  2  0  0  0  0
  6 17  1  0  0  0  0
  7  2  2  0  0  0  0
 10  9  2  0  0  0  0
 11  4  1  0  0  0  0
 12 19  1  0  0  0  0
 13  5  1  6  0  0  0
 13 19  1  0  0  0  0
 13 20  1  0  0  0  0
 14  1  1  0  0  0  0
 15 18  1  0  0  0  0
 16 27  1  0  0  0  0
 17 21  2  0  0  0  0
 18  8  1  0  0  0  0
 19 23  1  1  0  0  0
 20  4  1  6  0  0  0
 20  8  1  0  0  0  0
 21 16  1  0  0  0  0
 22 10  1  0  0  0  0
 22 15  1  0  0  0  0
 23 24  1  0  0  0  0
 25 23  1  0  0  0  0
 27 26  1  1  0  0  0
 27 30  1  0  0  0  0
 28 34  1  0  0  0  0
 28 29  1  0  0  0  0
 30 32  1  0  0  0  0
 30 33  2  0  0  0  0
 31 29  2  0  0  0  0
 32 28  2  0  0  0  0
 33 31  1  0  0  0  0
M  END
>  <MODEL>
5

>  <REMARK>
 VINA RESULT:      -6.0      3.032      4.737
  Name = 
  3 active torsions:
  status: ('A' for Active; 'I' for Inactive)
    1  A    between atoms: C_12  and  C_28
    2  A    between atoms: C_13  and  C_29
    3  A    between atoms: C_21  and  C_28
                            x       y       z     vdW  Elec       q    Type
                         _______ _______ _______ _____ _____    ______ ____

>  <TORSDO>
F 3

$$$$
=
 OpenBabel10252414583D

 34 37  0  0  1  0  0  0  0  0999 V2000
  180.3140  177.6980  141.2200 C   0  0  0  0  0  0  0  0  0  0  0  0
  180.4900  176.1770  139.1990 C   0  0  0  0  0  0  0  0  0  0  0  0
  182.1960  176.7420  135.4080 O   0  0  0  0  0  0  0  0  0  0  0  0
  182.4760  177.2180  140.1970 C   0  0  0  0  0  0  0  0  0  0  0  0
  182.4170  178.2960  137.5500 O   0  0  0  0  0  1  0  0  0  0  0  0
  180.2110  179.1260  143.1680 O   0  0  0  0  0  1  0  0  0  0  0  0
  179.2410  176.0790  139.0490 O   0  0  0  0  0  0  0  0  0  0  0  0
  182.6980  175.2930  138.7250 O   0  0  0  0  0  0  0  0  0  0  0  0
  182.4480  174.4820  134.7070 C   0  0  0  0  0  2  0  0  0  0  0  0
  181.7620  175.4200  135.3550 C   0  0  0  0  0  0  0  0  0  0  0  0
  181.0780  177.0570  140.2250 C   0  0  0  0  0  0  0  0  0  0  0  0
  183.5620  177.1280  135.3070 C   0  0  0  0  0  2  0  0  0  0  0  0
  183.5240  177.5070  137.8830 C   0  0  2  0  0  3  0  0  0  0  0  0
  178.9310  177.5530  141.2660 O   0  0  0  0  0  1  0  0  0  0  0  0
  180.8490  174.4510  137.4270 C   0  0  0  0  0  2  0  0  0  0  0  0
  183.1140  178.0050  141.1850 C   0  0  0  0  0  0  0  0  0  0  0  0
  180.9520  178.4860  142.1840 C   0  0  0  0  0  0  0  0  0  0  0  0
  181.3910  175.4430  138.3510 N   0  0  0  0  0  0  0  0  0  0  0  0
  184.2960  176.9550  136.6500 C   0  0  1  0  0  3  0  0  0  0  0  0
  183.2420  176.5590  139.0690 C   0  0  1  0  0  3  0  0  0  0  0  0
  182.3390  178.6310  142.1660 C   0  0  0  0  0  3  0  0  0  0  0  0
  180.5120  175.0610  136.0760 C   0  0  0  0  0  2  0  0  0  0  0  0
  184.9670  175.5790  136.8240 C   0  0  0  0  0  3  0  0  0  0  0  0
  186.2690  175.7110  137.5930 C   0  0  0  0  0  1  0  0  0  0  0  0
  185.2910  174.9400  135.4820 C   0  0  0  0  0  1  0  0  0  0  0  0
  185.0550  179.3780  140.3810 C   0  0  0  0  0  1  0  0  0  0  0  0
  184.6040  178.2130  141.2550 C   0  0  1  0  0  3  0  0  0  0  0  0
  186.8260  177.5100  144.2650 C   0  0  0  0  0  0  0  0  0  0  0  0
  186.2030  178.2570  145.2670 C   0  0  0  0  0  3  0  0  0  0  0  0
  185.1430  178.2320  142.6660 C   0  0  0  0  0  0  0  0  0  0  0  0
  185.0580  179.0010  144.9730 C   0  0  0  0  0  3  0  0  0  0  0  0
  186.3020  177.5030  142.9690 C   0  0  0  0  0  3  0  0  0  0  0  0
  184.5330  178.9930  143.6780 C   0  0  0  0  0  3  0  0  0  0  0  0
  187.9400  176.7930  144.5480 F   0  0  0  0  0  0  0  0  0  0  0  0
  1 14  1  0  0  0  0
  1 17  1  0  0  0  0
  2 11  1  0  0  0  0
  4 11  1  0  0  0  0
  4 16  2  0  0  0  0
  7  2  2  0  0  0  0
  9 10  2  0  0  0  0
 10  3  1  0  0  0  0
 10 22  1  0  0  0  0
 11  1  2  0  0  0  0
 12  3  1  0  0  0  0
 12 19  1  0  0  0  0
 13  5  1  6  0  0  0
 13 20  1  0  0  0  0
 15 18  1  0  0  0  0
 16 27  1  0  0  0  0
 16 21  1  0  0  0  0
 17  6  1  0  0  0  0
 18  8  1  0  0  0  0
 18  2  1  0  0  0  0
 19 23  1  1  0  0  0
 19 13  1  0  0  0  0
 20  8  1  6  0  0  0
 20  4  1  0  0  0  0
 21 17  2  0  0  0  0
 22 15  1  0  0  0  0
 23 24  1  0  0  0  0
 25 23  1  0  0  0  0
 27 26  1  1  0  0  0
 27 30  1  0  0  0  0
 28 34  1  0  0  0  0
 28 29  1  0  0  0  0
 30 32  1  0  0  0  0
 30 33  2  0  0  0  0
 31 29  2  0  0  0  0
 32 28  2  0  0  0  0
 33 31  1  0  0  0  0
M  END
>  <MODEL>
6

>  <REMARK>
 VINA RESULT:      -5.8      2.875      4.779
  Name = 
  3 active torsions:
  status: ('A' for Active; 'I' for Inactive)
    1  A    between atoms: C_12  and  C_28
    2  A    between atoms: C_13  and  C_29
    3  A    between atoms: C_21  and  C_28
                            x       y       z     vdW  Elec       q    Type
                         _______ _______ _______ _____ _____    ______ ____

>  <TORSDO>
F 3

$$$$
=
 OpenBabel10252414583D

 34 37  0  0  1  0  0  0  0  0999 V2000
  181.9960  178.7370  143.6460 C   0  0  0  0  0  0  0  0  0  0  0  0
  180.6870  177.9150  141.6360 C   0  0  0  0  0  0  0  0  0  0  0  0
  180.6650  179.1300  137.6200 O   0  0  0  0  0  0  0  0  0  0  0  0
  183.1390  178.0320  141.6090 C   0  0  0  0  0  0  0  0  0  0  0  0
  182.3620  179.8390  139.5350 O   0  0  0  0  0  1  0  0  0  0  0  0
  183.2970  179.4760  145.5450 O   0  0  0  0  0  1  0  0  0  0  0  0
  179.5640  178.2050  142.1330 O   0  0  0  0  0  0  0  0  0  0  0  0
  181.9490  176.6610  139.9880 O   0  0  0  0  0  0  0  0  0  0  0  0
  179.7040  177.2100  136.5940 C   0  0  0  0  0  2  0  0  0  0  0  0
  179.7810  178.0530  137.6200 C   0  0  0  0  0  0  0  0  0  0  0  0
  181.9460  178.2490  142.3260 C   0  0  0  0  0  0  0  0  0  0  0  0
  181.8850  179.1480  136.8890 C   0  0  0  0  0  2  0  0  0  0  0  0
  183.1080  178.7200  139.1470 C   0  0  2  0  0  3  0  0  0  0  0  0
  180.8300  178.9600  144.3710 O   0  0  0  0  0  1  0  0  0  0  0  0
  179.5560  176.7810  139.7170 C   0  0  0  0  0  2  0  0  0  0  0  0
  184.3870  178.2790  142.2280 C   0  0  0  0  0  0  0  0  0  0  0  0
  183.2340  178.9930  144.2450 C   0  0  0  0  0  0  0  0  0  0  0  0
  180.7770  177.2610  140.3580 N   0  0  0  0  0  0  0  0  0  0  0  0
  182.9970  178.3850  137.6320 C   0  0  1  0  0  3  0  0  0  0  0  0
  183.0270  177.5670  140.1720 C   0  0  1  0  0  3  0  0  0  0  0  0
  184.4150  178.7600  143.5400 C   0  0  0  0  0  3  0  0  0  0  0  0
  178.9330  177.8400  138.8220 C   0  0  0  0  0  2  0  0  0  0  0  0
  183.0940  176.8950  137.2540 C   0  0  0  0  0  3  0  0  0  0  0  0
  184.4880  176.3600  137.5300 C   0  0  0  0  0  1  0  0  0  0  0  0
  182.8030  176.6720  135.7780 C   0  0  0  0  0  1  0  0  0  0  0  0
  186.0010  179.1050  140.4930 C   0  0  0  0  0  1  0  0  0  0  0  0
  185.7140  178.0500  141.5550 C   0  0  1  0  0  3  0  0  0  0  0  0
  189.2160  177.9470  143.0430 C   0  0  0  0  0  0  0  0  0  0  0  0
  188.9820  177.3870  144.3010 C   0  0  0  0  0  3  0  0  0  0  0  0
  186.8460  177.8020  142.5250 C   0  0  0  0  0  0  0  0  0  0  0  0
  187.6820  177.0440  144.6800 C   0  0  0  0  0  3  0  0  0  0  0  0
  188.1530  178.1590  142.1610 C   0  0  0  0  0  3  0  0  0  0  0  0
  186.6190  177.2540  143.7990 C   0  0  0  0  0  3  0  0  0  0  0  0
  190.4760  178.2860  142.6770 F   0  0  0  0  0  0  0  0  0  0  0  0
  1 17  1  0  0  0  0
  1 14  1  0  0  0  0
  2  7  2  0  0  0  0
  2 11  1  0  0  0  0
  3 10  1  0  0  0  0
  4 16  2  0  0  0  0
  4 11  1  0  0  0  0
  8 18  1  0  0  0  0
  9 10  2  0  0  0  0
 10 22  1  0  0  0  0
 11  1  2  0  0  0  0
 12  3  1  0  0  0  0
 12 19  1  0  0  0  0
 13  5  1  1  0  0  0
 13 20  1  0  0  0  0
 15 18  1  0  0  0  0
 16 21  1  0  0  0  0
 17  6  1  0  0  0  0
 18  2  1  0  0  0  0
 19 23  1  1  0  0  0
 19 13  1  0  0  0  0
 20  8  1  1  0  0  0
 20  4  1  0  0  0  0
 21 17  2  0  0  0  0
 22 15  1  0  0  0  0
 23 24  1  0  0  0  0
 25 23  1  0  0  0  0
 27 26  1  1  0  0  0
 27 16  1  0  0  0  0
 27 30  1  0  0  0  0
 28 29  1  0  0  0  0
 29 31  2  0  0  0  0
 30 33  2  0  0  0  0
 32 30  1  0  0  0  0
 32 28  2  0  0  0  0
 33 31  1  0  0  0  0
 34 28  1  0  0  0  0
M  END
>  <MODEL>
7

>  <REMARK>
 VINA RESULT:      -5.6      3.794      6.577
  Name = 
  3 active torsions:
  status: ('A' for Active; 'I' for Inactive)
    1  A    between atoms: C_12  and  C_28
    2  A    between atoms: C_13  and  C_29
    3  A    between atoms: C_21  and  C_28
                            x       y       z     vdW  Elec       q    Type
                         _______ _______ _______ _____ _____    ______ ____

>  <TORSDO>
F 3

$$$$
=
 OpenBabel10252414583D

 34 37  0  0  1  0  0  0  0  0999 V2000
  182.6510  173.4680  136.8070 C   0  0  0  0  0  0  0  0  0  0  0  0
  185.1440  173.0070  136.8020 C   0  0  0  0  0  0  0  0  0  0  0  0
  188.2970  174.6780  134.5940 O   0  0  0  0  0  0  0  0  0  0  0  0
  184.2590  175.2690  137.1600 C   0  0  0  0  0  0  0  0  0  0  0  0
  185.7850  175.5230  134.7560 O   0  0  0  0  0  1  0  0  0  0  0  0
  180.2840  173.9600  136.8600 O   0  0  0  0  0  1  0  0  0  0  0  0
  185.0150  171.8060  136.4410 O   0  0  0  0  0  0  0  0  0  0  0  0
  186.5420  174.7210  137.7990 O   0  0  0  0  0  0  0  0  0  0  0  0
  190.1490  174.0600  135.9520 C   0  0  0  0  0  2  0  0  0  0  0  0
  188.9530  173.7870  135.4400 C   0  0  0  0  0  0  0  0  0  0  0  0
  183.9840  173.9110  136.9110 C   0  0  0  0  0  0  0  0  0  0  0  0
  188.5000  176.0860  134.6210 C   0  0  0  0  0  2  0  0  0  0  0  0
  186.2150  176.2730  135.8570 C   0  0  2  0  0  3  0  0  0  0  0  0
  182.3570  172.1310  136.5610 O   0  0  0  0  0  1  0  0  0  0  0  0
  187.5930  172.6500  137.1500 C   0  0  0  0  0  2  0  0  0  0  0  0
  183.1920  176.1830  137.3310 C   0  0  0  0  0  0  0  0  0  0  0  0
  181.6030  174.3830  136.9620 C   0  0  0  0  0  0  0  0  0  0  0  0
  186.4430  173.5480  137.1010 N   0  0  0  0  0  0  0  0  0  0  0  0
  187.6930  176.7480  135.7530 C   0  0  1  0  0  3  0  0  0  0  0  0
  185.7090  175.7020  137.2000 C   0  0  1  0  0  3  0  0  0  0  0  0
  181.8760  175.7240  137.2270 C   0  0  0  0  0  3  0  0  0  0  0  0
  188.2650  172.5170  135.7930 C   0  0  0  0  0  2  0  0  0  0  0  0
  188.4640  176.8720  137.0810 C   0  0  0  0  0  3  0  0  0  0  0  0
  187.9220  178.0220  137.9110 C   0  0  0  0  0  1  0  0  0  0  0  0
  189.9440  177.1360  136.8470 C   0  0  0  0  0  1  0  0  0  0  0  0
  182.3010  178.5040  136.9830 C   0  0  0  0  0  1  0  0  0  0  0  0
  183.3850  177.6460  137.6280 C   0  0  1  0  0  3  0  0  0  0  0  0
  185.0880  178.8410  140.8150 C   0  0  0  0  0  0  0  0  0  0  0  0
  184.1410  178.5200  141.7900 C   0  0  0  0  0  3  0  0  0  0  0  0
  183.6360  177.9360  139.0890 C   0  0  0  0  0  0  0  0  0  0  0  0
  182.9360  177.9180  141.4200 C   0  0  0  0  0  3  0  0  0  0  0  0
  184.8350  178.5560  139.4710 C   0  0  0  0  0  3  0  0  0  0  0  0
  182.6820  177.6310  140.0760 C   0  0  0  0  0  3  0  0  0  0  0  0
  186.2540  179.4310  141.1740 F   0  0  0  0  0  0  0  0  0  0  0  0
  1 11  2  0  0  0  0
  1 17  1  0  0  0  0
  2 11  1  0  0  0  0
  2 18  1  0  0  0  0
  3 12  1  0  0  0  0
  3 10  1  0  0  0  0
  4 16  2  0  0  0  0
  6 17  1  0  0  0  0
  7  2  2  0  0  0  0
 10 22  1  0  0  0  0
 10  9  2  0  0  0  0
 11  4  1  0  0  0  0
 12 19  1  0  0  0  0
 13  5  1  6  0  0  0
 13 20  1  0  0  0  0
 14  1  1  0  0  0  0
 16 27  1  0  0  0  0
 17 21  2  0  0  0  0
 18 15  1  0  0  0  0
 18  8  1  0  0  0  0
 19 13  1  0  0  0  0
 19 23  1  1  0  0  0
 20  4  1  6  0  0  0
 20  8  1  0  0  0  0
 21 16  1  0  0  0  0
 22 15  1  0  0  0  0
 23 24  1  0  0  0  0
 25 23  1  0  0  0  0
 27 26  1  1  0  0  0
 27 30  1  0  0  0  0
 28 34  1  0  0  0  0
 28 29  1  0  0  0  0
 30 32  1  0  0  0  0
 30 33  2  0  0  0  0
 31 29  2  0  0  0  0
 32 28  2  0  0  0  0
 33 31  1  0  0  0  0
M  END
>  <MODEL>
8

>  <REMARK>
 VINA RESULT:      -5.3      1.526      1.923
  Name = 
  3 active torsions:
  status: ('A' for Active; 'I' for Inactive)
    1  A    between atoms: C_12  and  C_28
    2  A    between atoms: C_13  and  C_29
    3  A    between atoms: C_21  and  C_28
                            x       y       z     vdW  Elec       q    Type
                         _______ _______ _______ _____ _____    ______ ____

>  <TORSDO>
F 3

$$$$
=
 OpenBabel10252414583D

 34 37  0  0  1  0  0  0  0  0999 V2000
  186.7400  178.3920  138.8570 C   0  0  0  0  0  0  0  0  0  0  0  0
  185.1100  178.4120  140.7990 C   0  0  0  0  0  0  0  0  0  0  0  0
  181.2240  179.9480  141.1770 O   0  0  0  0  0  0  0  0  0  0  0  0
  184.4850  177.4960  138.6080 C   0  0  0  0  0  0  0  0  0  0  0  0
  182.6670  179.6730  138.9650 O   0  0  0  0  0  1  0  0  0  0  0  0
  188.2650  178.3120  136.9810 O   0  0  0  0  0  1  0  0  0  0  0  0
  185.8670  179.0890  141.5470 O   0  0  0  0  0  0  0  0  0  0  0  0
  183.2010  176.9290  140.5970 O   0  0  0  0  0  0  0  0  0  0  0  0
  180.4610  178.7260  143.0710 C   0  0  0  0  0  2  0  0  0  0  0  0
  181.4380  179.3450  142.4150 C   0  0  0  0  0  0  0  0  0  0  0  0
  185.4710  178.1140  139.4000 C   0  0  0  0  0  0  0  0  0  0  0  0
  180.2170  179.5320  140.2620 C   0  0  0  0  0  2  0  0  0  0  0  0
  182.1060  178.3930  138.8800 C   0  0  2  0  0  3  0  0  0  0  0  0
  187.7290  179.0020  139.6210 O   0  0  0  0  0  1  0  0  0  0  0  0
  183.5240  178.0660  142.6990 C   0  0  0  0  0  2  0  0  0  0  0  0
  184.7800  177.1320  137.2730 C   0  0  0  0  0  0  0  0  0  0  0  0
  187.0180  178.0420  137.5300 C   0  0  0  0  0  0  0  0  0  0  0  0
  183.8480  177.9210  141.2830 N   0  0  0  0  0  0  0  0  0  0  0  0
  180.6640  178.3000  139.4550 C   0  0  1  0  0  3  0  0  0  0  0  0
  183.1180  177.2780  139.2230 C   0  0  1  0  0  3  0  0  0  0  0  0
  186.0460  177.4140  136.7520 C   0  0  0  0  0  3  0  0  0  0  0  0
  182.8110  179.3780  142.9840 C   0  0  0  0  0  2  0  0  0  0  0  0
  180.2710  176.9550  140.0960 C   0  0  0  0  0  3  0  0  0  0  0  0
  180.1500  175.8720  139.0390 C   0  0  0  0  0  1  0  0  0  0  0  0
  178.9320  177.0460  140.8110 C   0  0  0  0  0  1  0  0  0  0  0  0
  184.0650  176.7760  134.8940 C   0  0  0  0  0  1  0  0  0  0  0  0
  183.8030  176.4430  136.3590 C   0  0  1  0  0  3  0  0  0  0  0  0
  182.1920  173.0210  136.7850 C   0  0  0  0  0  0  0  0  0  0  0  0
  183.2800  172.2320  137.1660 C   0  0  0  0  0  3  0  0  0  0  0  0
  183.6370  174.9710  136.6550 C   0  0  0  0  0  0  0  0  0  0  0  0
  184.5490  172.8040  137.2830 C   0  0  0  0  0  3  0  0  0  0  0  0
  182.3700  174.3820  136.5240 C   0  0  0  0  0  3  0  0  0  0  0  0
  184.7280  174.1650  137.0240 C   0  0  0  0  0  3  0  0  0  0  0  0
  180.9620  172.4650  136.6660 F   0  0  0  0  0  0  0  0  0  0  0  0
  1 11  1  0  0  0  0
  1 14  1  0  0  0  0
  2 18  1  0  0  0  0
  2  7  2  0  0  0  0
  3 10  1  0  0  0  0
  4 11  2  0  0  0  0
  6 17  1  0  0  0  0
  8 18  1  0  0  0  0
 10 22  1  0  0  0  0
 10  9  2  0  0  0  0
 11  2  1  0  0  0  0
 12  3  1  0  0  0  0
 13  5  1  1  0  0  0
 13 20  1  0  0  0  0
 13 19  1  0  0  0  0
 15 22  1  0  0  0  0
 16  4  1  0  0  0  0
 17  1  2  0  0  0  0
 18 15  1  0  0  0  0
 19 23  1  1  0  0  0
 19 12  1  0  0  0  0
 20  4  1  1  0  0  0
 20  8  1  0  0  0  0
 21 16  2  0  0  0  0
 21 17  1  0  0  0  0
 23 25  1  0  0  0  0
 24 23  1  0  0  0  0
 27 26  1  6  0  0  0
 27 30  1  0  0  0  0
 27 16  1  0  0  0  0
 28 29  1  0  0  0  0
 29 31  2  0  0  0  0
 30 33  2  0  0  0  0
 32 30  1  0  0  0  0
 32 28  2  0  0  0  0
 33 31  1  0  0  0  0
 34 28  1  0  0  0  0
M  END
>  <MODEL>
9

>  <REMARK>
 VINA RESULT:      -5.2      3.357      7.662
  Name = 
  3 active torsions:
  status: ('A' for Active; 'I' for Inactive)
    1  A    between atoms: C_12  and  C_28
    2  A    between atoms: C_13  and  C_29
    3  A    between atoms: C_21  and  C_28
                            x       y       z     vdW  Elec       q    Type
                         _______ _______ _______ _____ _____    ______ ____

>  <TORSDO>
F 3

$$$$
