=
 OpenBabel10262420453D

 28 31  0  0  1  0  0  0  0  0999 V2000
  188.6560  177.4100  145.5010 C   0  0  0  0  0  0  0  0  0  0  0  0
  185.1670  178.1450  146.8710 C   0  0  0  0  0  2  0  0  0  0  0  0
  185.6510  178.4210  143.8580 C   0  0  0  0  0  2  0  0  0  0  0  0
  187.4360  178.2520  147.8840 C   0  0  0  0  0  3  0  0  0  0  0  0
  186.4290  177.2080  144.3560 C   0  0  0  0  0  2  0  0  0  0  0  0
  188.8220  178.1210  147.8210 C   0  0  0  0  0  3  0  0  0  0  0  0
  184.7420  179.2220  145.9860 N   0  0  0  0  0  2  0  0  0  0  0  0
  186.6480  177.9610  146.7680 C   0  0  0  0  0  0  0  0  0  0  0  0
  184.3960  178.6360  144.6960 C   0  0  1  0  0  3  0  0  0  0  0  0
  189.4270  177.7020  146.6360 C   0  0  0  0  0  3  0  0  0  0  0  0
  187.2570  177.5390  145.5670 C   0  0  0  0  0  0  0  0  0  0  0  0
  189.2490  176.9820  144.3000 O   0  0  0  0  0  0  0  0  0  0  0  0
  189.8080  177.8300  143.2920 C   0  0  1  0  0  3  0  0  0  0  0  0
  191.6430  177.5100  141.0230 C   0  0  0  0  0  2  0  0  0  0  0  0
  191.3320  177.9830  143.4410 C   0  0  0  0  0  2  0  0  0  0  0  0
  187.9860  177.3060  141.6960 F   0  0  0  0  0  0  0  0  0  0  0  0
  189.3170  177.4810  141.9030 C   0  0  0  0  0  0  0  0  0  0  0  0
  190.1630  177.2990  140.8770 C   0  0  0  0  0  3  0  0  0  0  0  0
  192.1000  177.1410  142.4260 C   0  0  0  0  0  2  0  0  0  0  0  0
  183.4530  179.5690  143.9430 C   0  0  0  0  0  2  0  0  0  0  0  0
  183.0630  178.8060  141.5650 C   0  0  0  0  0  2  0  0  0  0  0  0
  180.8210  179.5280  143.0690 S   0  0  0  0  0  0  0  0  0  0  0  0
  181.0220  178.3280  140.2080 C   0  0  2  0  0  3  0  0  0  0  0  0
  182.5110  178.8340  142.9890 C   0  0  2  0  0  3  0  0  0  0  0  0
  179.8440  177.8630  141.0650 C   0  0  0  0  0  2  0  0  0  0  0  0
  180.0840  177.9400  142.5730 C   0  0  0  0  0  2  0  0  0  0  0  0
  180.7910  177.9060  138.7730 C   0  0  0  0  0  1  0  0  0  0  0  0
  182.3570  177.7760  140.6920 C   0  0  0  0  0  2  0  0  0  0  0  0
  1 11  2  0  0  0  0
  1 10  1  0  0  0  0
  3  5  1  0  0  0  0
  3  9  1  0  0  0  0
  5 11  1  0  0  0  0
  6  4  1  0  0  0  0
  7  2  1  0  0  0  0
  8  2  1  0  0  0  0
  8  4  2  0  0  0  0
  9 20  1  6  0  0  0
  9  7  1  0  0  0  0
 10  6  2  0  0  0  0
 11  8  1  0  0  0  0
 12  1  1  0  0  0  0
 13 15  1  0  0  0  0
 13 12  1  1  0  0  0
 14 19  1  0  0  0  0
 16 17  1  0  0  0  0
 17 13  1  0  0  0  0
 18 14  1  0  0  0  0
 18 17  2  0  0  0  0
 19 15  1  0  0  0  0
 21 24  1  0  0  0  0
 23 27  1  6  0  0  0
 23 28  1  0  0  0  0
 23 25  1  0  0  0  0
 24 22  1  0  0  0  0
 24 20  1  1  0  0  0
 25 26  1  0  0  0  0
 26 22  1  0  0  0  0
 28 21  1  0  0  0  0
M  END
>  <MODEL>
1

>  <REMARK>
 VINA RESULT:      -9.3      0.000      0.000
  Name = 
  4 active torsions:
  status: ('A' for Active; 'I' for Inactive)
    1  A    between atoms: C_1  and  O_2
    2  A    between atoms: O_2  and  C_3
    3  A    between atoms: C_10  and  C_13
    4  A    between atoms: C_10  and  C_25
                            x       y       z     vdW  Elec       q    Type
                         _______ _______ _______ _____ _____    ______ ____

>  <TORSDO>
F 4

$$$$
=
 OpenBabel10262420453D

 28 31  0  0  1  0  0  0  0  0999 V2000
  185.6990  177.9880  145.0080 C   0  0  0  0  0  0  0  0  0  0  0  0
  185.0720  178.3230  141.2540 C   0  0  0  0  0  2  0  0  0  0  0  0
  187.9620  178.1040  142.2480 C   0  0  0  0  0  2  0  0  0  0  0  0
  183.7720  179.0320  143.2530 C   0  0  0  0  0  3  0  0  0  0  0  0
  187.0980  177.1700  143.0880 C   0  0  0  0  0  2  0  0  0  0  0  0
  183.5930  179.1450  144.6310 C   0  0  0  0  0  3  0  0  0  0  0  0
  186.2250  179.1170  140.8500 N   0  0  0  0  0  2  0  0  0  0  0  0
  184.9040  178.3950  142.7390 C   0  0  0  0  0  0  0  0  0  0  0  0
  187.3930  178.2430  140.8400 C   0  0  1  0  0  3  0  0  0  0  0  0
  184.5500  178.6260  145.5020 C   0  0  0  0  0  3  0  0  0  0  0  0
  185.8770  177.8710  143.6170 C   0  0  0  0  0  0  0  0  0  0  0  0
  186.6720  177.4550  145.8710 O   0  0  0  0  0  0  0  0  0  0  0  0
  187.8050  178.1560  146.3920 C   0  0  1  0  0  3  0  0  0  0  0  0
  189.6270  177.8520  148.6740 C   0  0  0  0  0  2  0  0  0  0  0  0
  187.5150  178.7890  147.7640 C   0  0  0  0  0  2  0  0  0  0  0  0
  189.3950  176.7350  145.1290 F   0  0  0  0  0  0  0  0  0  0  0  0
  189.0810  177.3450  146.3010 C   0  0  0  0  0  0  0  0  0  0  0  0
  189.8910  177.1790  147.3570 C   0  0  0  0  0  3  0  0  0  0  0  0
  188.1310  177.9940  148.9110 C   0  0  0  0  0  2  0  0  0  0  0  0
  188.4660  178.8290  139.9290 C   0  0  0  0  0  2  0  0  0  0  0  0
  190.4470  177.3360  139.4380 C   0  0  0  0  0  2  0  0  0  0  0  0
  189.0940  178.4400  137.2560 S   0  0  0  0  0  0  0  0  0  0  0  0
  191.4330  176.3940  137.3470 C   0  0  2  0  0  3  0  0  0  0  0  0
  189.0690  177.8020  138.9700 C   0  0  2  0  0  3  0  0  0  0  0  0
  190.3920  176.1960  136.2440 C   0  0  0  0  0  2  0  0  0  0  0  0
  189.0070  176.7570  136.5680 C   0  0  0  0  0  2  0  0  0  0  0  0
  192.6410  175.5290  137.0520 C   0  0  0  0  0  1  0  0  0  0  0  0
  190.8950  176.0620  138.7330 C   0  0  0  0  0  2  0  0  0  0  0  0
  1 10  1  0  0  0  0
  1 12  1  0  0  0  0
  2  8  1  0  0  0  0
  3  5  1  0  0  0  0
  4  6  1  0  0  0  0
  5 11  1  0  0  0  0
  6 10  2  0  0  0  0
  7  2  1  0  0  0  0
  8  4  2  0  0  0  0
  8 11  1  0  0  0  0
  9 20  1  6  0  0  0
  9  7  1  0  0  0  0
  9  3  1  0  0  0  0
 11  1  2  0  0  0  0
 13 12  1  1  0  0  0
 13 15  1  0  0  0  0
 14 19  1  0  0  0  0
 15 19  1  0  0  0  0
 16 17  1  0  0  0  0
 17 13  1  0  0  0  0
 17 18  2  0  0  0  0
 18 14  1  0  0  0  0
 22 24  1  0  0  0  0
 23 27  1  6  0  0  0
 23 28  1  0  0  0  0
 24 21  1  0  0  0  0
 24 20  1  1  0  0  0
 25 26  1  0  0  0  0
 25 23  1  0  0  0  0
 26 22  1  0  0  0  0
 28 21  1  0  0  0  0
M  END
>  <MODEL>
2

>  <REMARK>
 VINA RESULT:      -9.0      3.253      6.951
  Name = 
  4 active torsions:
  status: ('A' for Active; 'I' for Inactive)
    1  A    between atoms: C_1  and  O_2
    2  A    between atoms: O_2  and  C_3
    3  A    between atoms: C_10  and  C_13
    4  A    between atoms: C_10  and  C_25
                            x       y       z     vdW  Elec       q    Type
                         _______ _______ _______ _____ _____    ______ ____

>  <TORSDO>
F 4

$$$$
=
 OpenBabel10262420453D

 28 31  0  0  1  0  0  0  0  0999 V2000
  187.7880  177.4990  144.8700 C   0  0  0  0  0  0  0  0  0  0  0  0
  191.2230  178.0590  143.2950 C   0  0  0  0  0  2  0  0  0  0  0  0
  188.9210  177.1170  141.5050 C   0  0  0  0  0  2  0  0  0  0  0  0
  190.4970  177.4870  145.6040 C   0  0  0  0  0  3  0  0  0  0  0  0
  188.3650  178.1240  142.5050 C   0  0  0  0  0  2  0  0  0  0  0  0
  189.5170  177.2000  146.5530 C   0  0  0  0  0  3  0  0  0  0  0  0
  191.2400  177.0080  142.2850 N   0  0  0  0  0  2  0  0  0  0  0  0
  190.1380  177.7870  144.2880 C   0  0  0  0  0  0  0  0  0  0  0  0
  190.3790  177.4270  141.1840 C   0  0  1  0  0  3  0  0  0  0  0  0
  188.1710  177.2070  146.1880 C   0  0  0  0  0  3  0  0  0  0  0  0
  188.7770  177.7920  143.9130 C   0  0  0  0  0  0  0  0  0  0  0  0
  186.4360  177.5140  144.4840 O   0  0  0  0  0  0  0  0  0  0  0  0
  185.5970  178.6700  144.4120 C   0  0  1  0  0  3  0  0  0  0  0  0
  182.7860  179.2200  143.7640 C   0  0  0  0  0  2  0  0  0  0  0  0
  185.1270  178.9590  142.9760 C   0  0  0  0  0  2  0  0  0  0  0  0
  184.8420  178.3950  146.7570 F   0  0  0  0  0  0  0  0  0  0  0  0
  184.5110  178.6650  145.4680 C   0  0  0  0  0  0  0  0  0  0  0  0
  183.2220  178.8800  145.1610 C   0  0  0  0  0  3  0  0  0  0  0  0
  183.6810  178.5330  142.7430 C   0  0  0  0  0  2  0  0  0  0  0  0
  190.7730  176.6850  139.9110 C   0  0  0  0  0  2  0  0  0  0  0  0
  189.9610  175.6440  137.7560 C   0  0  0  0  0  2  0  0  0  0  0  0
  189.3330  178.3300  138.2040 S   0  0  0  0  0  0  0  0  0  0  0  0
  188.4790  176.4220  135.9030 C   0  0  2  0  0  3  0  0  0  0  0  0
  189.6620  176.6560  138.8610 C   0  0  2  0  0  3  0  0  0  0  0  0
  187.4370  177.4390  136.3720 C   0  0  0  0  0  2  0  0  0  0  0  0
  187.6070  177.9020  137.8200 C   0  0  0  0  0  2  0  0  0  0  0  0
  188.0230  175.8100  134.5960 C   0  0  0  0  0  1  0  0  0  0  0  0
  188.7270  175.3190  136.9230 C   0  0  0  0  0  2  0  0  0  0  0  0
  1 10  1  0  0  0  0
  2  8  1  0  0  0  0
  3  5  1  0  0  0  0
  4  6  1  0  0  0  0
  5 11  1  0  0  0  0
  7  2  1  0  0  0  0
  8  4  2  0  0  0  0
  9 20  1  6  0  0  0
  9  3  1  0  0  0  0
  9  7  1  0  0  0  0
 10  6  2  0  0  0  0
 11  8  1  0  0  0  0
 11  1  2  0  0  0  0
 12  1  1  0  0  0  0
 13 12  1  6  0  0  0
 13 17  1  0  0  0  0
 14 18  1  0  0  0  0
 15 13  1  0  0  0  0
 17 16  1  0  0  0  0
 18 17  2  0  0  0  0
 19 15  1  0  0  0  0
 19 14  1  0  0  0  0
 21 24  1  0  0  0  0
 22 24  1  0  0  0  0
 23 27  1  6  0  0  0
 23 25  1  0  0  0  0
 23 28  1  0  0  0  0
 24 20  1  1  0  0  0
 25 26  1  0  0  0  0
 26 22  1  0  0  0  0
 28 21  1  0  0  0  0
M  END
>  <MODEL>
3

>  <REMARK>
 VINA RESULT:      -9.0      3.671      6.802
  Name = 
  4 active torsions:
  status: ('A' for Active; 'I' for Inactive)
    1  A    between atoms: C_1  and  O_2
    2  A    between atoms: O_2  and  C_3
    3  A    between atoms: C_10  and  C_13
    4  A    between atoms: C_10  and  C_25
                            x       y       z     vdW  Elec       q    Type
                         _______ _______ _______ _____ _____    ______ ____

>  <TORSDO>
F 4

$$$$
=
 OpenBabel10262420453D

 28 31  0  0  1  0  0  0  0  0999 V2000
  185.7810  177.9590  144.7820 C   0  0  0  0  0  0  0  0  0  0  0  0
  185.3610  178.2360  140.9960 C   0  0  0  0  0  2  0  0  0  0  0  0
  188.1930  178.0580  142.1510 C   0  0  0  0  0  2  0  0  0  0  0  0
  183.9460  178.9600  142.9090 C   0  0  0  0  0  3  0  0  0  0  0  0
  187.2920  177.1280  142.9550 C   0  0  0  0  0  2  0  0  0  0  0  0
  183.6900  179.0910  144.2730 C   0  0  0  0  0  3  0  0  0  0  0  0
  186.5270  179.0350  140.6440 N   0  0  0  0  0  2  0  0  0  0  0  0
  185.1100  178.3270  142.4680 C   0  0  0  0  0  0  0  0  0  0  0  0
  187.7020  178.1720  140.7120 C   0  0  1  0  0  3  0  0  0  0  0  0
  184.6010  178.5930  145.2030 C   0  0  0  0  0  3  0  0  0  0  0  0
  186.0370  177.8240  143.4050 C   0  0  0  0  0  0  0  0  0  0  0  0
  186.7100  177.4480  145.7060 O   0  0  0  0  0  0  0  0  0  0  0  0
  187.7940  178.1730  146.2930 C   0  0  1  0  0  3  0  0  0  0  0  0
  189.4990  177.8940  148.6670 C   0  0  0  0  0  2  0  0  0  0  0  0
  187.4160  178.7860  147.6510 C   0  0  0  0  0  2  0  0  0  0  0  0
  189.4850  176.8020  145.1070 F   0  0  0  0  0  0  0  0  0  0  0  0
  189.0940  177.3940  146.2640 C   0  0  0  0  0  0  0  0  0  0  0  0
  189.8500  177.2380  147.3620 C   0  0  0  0  0  3  0  0  0  0  0  0
  187.9890  177.9960  148.8240 C   0  0  0  0  0  2  0  0  0  0  0  0
  188.8190  178.7550  139.8530 C   0  0  0  0  0  2  0  0  0  0  0  0
  188.3590  176.8560  138.2480 C   0  0  0  0  0  2  0  0  0  0  0  0
  190.7430  176.7640  139.7020 S   0  0  0  0  0  0  0  0  0  0  0  0
  189.6850  174.8950  137.4550 C   0  0  2  0  0  3  0  0  0  0  0  0
  189.4300  177.7400  138.8870 C   0  0  2  0  0  3  0  0  0  0  0  0
  191.1910  175.1590  137.4730 C   0  0  0  0  0  2  0  0  0  0  0  0
  191.5980  176.4840  138.1200 C   0  0  0  0  0  2  0  0  0  0  0  0
  189.3940  173.7400  136.5210 C   0  0  0  0  0  1  0  0  0  0  0  0
  188.8780  176.1140  137.0240 C   0  0  0  0  0  2  0  0  0  0  0  0
  1 10  1  0  0  0  0
  1 12  1  0  0  0  0
  2  8  1  0  0  0  0
  3  5  1  0  0  0  0
  4  6  1  0  0  0  0
  5 11  1  0  0  0  0
  6 10  2  0  0  0  0
  7  9  1  0  0  0  0
  7  2  1  0  0  0  0
  8  4  2  0  0  0  0
  8 11  1  0  0  0  0
  9 20  1  6  0  0  0
  9  3  1  0  0  0  0
 11  1  2  0  0  0  0
 13 12  1  1  0  0  0
 13 15  1  0  0  0  0
 14 19  1  0  0  0  0
 15 19  1  0  0  0  0
 16 17  1  0  0  0  0
 17 13  1  0  0  0  0
 17 18  2  0  0  0  0
 18 14  1  0  0  0  0
 21 24  1  0  0  0  0
 23 27  1  6  0  0  0
 23 25  1  0  0  0  0
 24 22  1  0  0  0  0
 24 20  1  1  0  0  0
 25 26  1  0  0  0  0
 26 22  1  0  0  0  0
 28 23  1  0  0  0  0
 28 21  1  0  0  0  0
M  END
>  <MODEL>
4

>  <REMARK>
 VINA RESULT:      -8.9      3.402      6.875
  Name = 
  4 active torsions:
  status: ('A' for Active; 'I' for Inactive)
    1  A    between atoms: C_1  and  O_2
    2  A    between atoms: O_2  and  C_3
    3  A    between atoms: C_10  and  C_13
    4  A    between atoms: C_10  and  C_25
                            x       y       z     vdW  Elec       q    Type
                         _______ _______ _______ _____ _____    ______ ____

>  <TORSDO>
F 4

$$$$
=
 OpenBabel10262420453D

 28 31  0  0  1  0  0  0  0  0999 V2000
  188.6680  177.1310  146.2160 C   0  0  0  0  0  0  0  0  0  0  0  0
  185.2740  178.3310  144.9370 C   0  0  0  0  0  2  0  0  0  0  0  0
  187.4980  177.7760  142.9040 C   0  0  0  0  0  2  0  0  0  0  0  0
  186.4610  178.6220  147.1040 C   0  0  0  0  0  3  0  0  0  0  0  0
  187.5730  176.7120  143.9930 C   0  0  0  0  0  2  0  0  0  0  0  0
  187.5550  178.4280  147.9460 C   0  0  0  0  0  3  0  0  0  0  0  0
  185.6790  179.1480  143.8010 N   0  0  0  0  0  2  0  0  0  0  0  0
  186.4550  178.0730  145.8200 C   0  0  0  0  0  0  0  0  0  0  0  0
  186.0620  178.2530  142.7150 C   0  0  1  0  0  3  0  0  0  0  0  0
  188.6510  177.6860  147.5050 C   0  0  0  0  0  3  0  0  0  0  0  0
  187.5620  177.3240  145.3680 C   0  0  0  0  0  0  0  0  0  0  0  0
  189.7620  176.3780  145.7550 O   0  0  0  0  0  0  0  0  0  0  0  0
  190.9270  176.9000  145.1080 C   0  0  1  0  0  3  0  0  0  0  0  0
  191.6810  177.6520  142.3720 C   0  0  0  0  0  2  0  0  0  0  0  0
  191.5430  175.8940  144.1200 C   0  0  0  0  0  2  0  0  0  0  0  0
  190.1510  179.2380  145.3730 F   0  0  0  0  0  0  0  0  0  0  0  0
  190.7120  178.2990  144.5700 C   0  0  0  0  0  0  0  0  0  0  0  0
  191.0240  178.6280  143.3060 C   0  0  0  0  0  3  0  0  0  0  0  0
  191.2170  176.2330  142.6690 C   0  0  0  0  0  2  0  0  0  0  0  0
  185.9560  178.9850  141.3820 C   0  0  0  0  0  2  0  0  0  0  0  0
  183.6350  177.9930  141.5200 C   0  0  0  0  0  2  0  0  0  0  0  0
  184.5450  178.7930  139.0020 S   0  0  0  0  0  0  0  0  0  0  0  0
  181.7680  177.7120  139.8860 C   0  0  2  0  0  3  0  0  0  0  0  0
  184.5350  179.0080  140.8180 C   0  0  2  0  0  3  0  0  0  0  0  0
  181.7700  178.7900  138.8010 C   0  0  0  0  0  2  0  0  0  0  0  0
  182.9870  179.7160  138.8260 C   0  0  0  0  0  2  0  0  0  0  0  0
  180.3920  177.0840  139.9610 C   0  0  0  0  0  1  0  0  0  0  0  0
  182.1570  178.2530  141.2560 C   0  0  0  0  0  2  0  0  0  0  0  0
  1 10  1  0  0  0  0
  2  8  1  0  0  0  0
  3  5  1  0  0  0  0
  4  6  1  0  0  0  0
  5 11  1  0  0  0  0
  7  2  1  0  0  0  0
  8  4  2  0  0  0  0
  9 20  1  6  0  0  0
  9  3  1  0  0  0  0
  9  7  1  0  0  0  0
 10  6  2  0  0  0  0
 11  8  1  0  0  0  0
 11  1  2  0  0  0  0
 12  1  1  0  0  0  0
 13 12  1  6  0  0  0
 14 19  1  0  0  0  0
 14 18  1  0  0  0  0
 15 13  1  0  0  0  0
 17 13  1  0  0  0  0
 17 16  1  0  0  0  0
 18 17  2  0  0  0  0
 19 15  1  0  0  0  0
 22 24  1  0  0  0  0
 23 27  1  1  0  0  0
 23 28  1  0  0  0  0
 24 20  1  1  0  0  0
 24 21  1  0  0  0  0
 25 26  1  0  0  0  0
 25 23  1  0  0  0  0
 26 22  1  0  0  0  0
 28 21  1  0  0  0  0
M  END
>  <MODEL>
5

>  <REMARK>
 VINA RESULT:      -8.8      1.965      2.528
  Name = 
  4 active torsions:
  status: ('A' for Active; 'I' for Inactive)
    1  A    between atoms: C_1  and  O_2
    2  A    between atoms: O_2  and  C_3
    3  A    between atoms: C_10  and  C_13
    4  A    between atoms: C_10  and  C_25
                            x       y       z     vdW  Elec       q    Type
                         _______ _______ _______ _____ _____    ______ ____

>  <TORSDO>
F 4

$$$$
=
 OpenBabel10262420453D

 28 31  0  0  1  0  0  0  0  0999 V2000
  188.8550  177.2390  143.8810 C   0  0  0  0  0  0  0  0  0  0  0  0
  185.9290  177.8400  146.2620 C   0  0  0  0  0  2  0  0  0  0  0  0
  185.5060  178.3150  143.2650 C   0  0  0  0  0  2  0  0  0  0  0  0
  188.3970  177.9110  146.5680 C   0  0  0  0  0  3  0  0  0  0  0  0
  186.3880  177.0820  143.4320 C   0  0  0  0  0  2  0  0  0  0  0  0
  189.7020  177.8020  146.0900 C   0  0  0  0  0  3  0  0  0  0  0  0
  185.2710  178.9670  145.6140 N   0  0  0  0  0  2  0  0  0  0  0  0
  187.3130  177.6820  145.7170 C   0  0  0  0  0  0  0  0  0  0  0  0
  184.5550  178.4600  144.4480 C   0  0  1  0  0  3  0  0  0  0  0  0
  189.9290  177.4670  144.7560 C   0  0  0  0  0  3  0  0  0  0  0  0
  187.5380  177.3460  144.3650 C   0  0  0  0  0  0  0  0  0  0  0  0
  189.0650  176.8970  142.5340 O   0  0  0  0  0  0  0  0  0  0  0  0
  189.6580  177.7360  141.5380 C   0  0  1  0  0  3  0  0  0  0  0  0
  190.0200  177.6480  138.6260 C   0  0  0  0  0  2  0  0  0  0  0  0
  190.8860  177.0810  140.8830 C   0  0  0  0  0  2  0  0  0  0  0  0
  187.5100  178.8860  141.0830 F   0  0  0  0  0  0  0  0  0  0  0  0
  188.6340  178.3120  140.5820 C   0  0  0  0  0  0  0  0  0  0  0  0
  188.7870  178.2370  139.2510 C   0  0  0  0  0  3  0  0  0  0  0  0
  190.5770  176.5300  139.4940 C   0  0  0  0  0  2  0  0  0  0  0  0
  183.4390  179.4270  144.0680 C   0  0  0  0  0  2  0  0  0  0  0  0
  182.9150  178.8740  141.6570 C   0  0  0  0  0  2  0  0  0  0  0  0
  180.7790  179.6050  143.3040 S   0  0  0  0  0  0  0  0  0  0  0  0
  180.8000  178.6200  140.3550 C   0  0  2  0  0  3  0  0  0  0  0  0
  182.4200  178.8230  143.1020 C   0  0  2  0  0  3  0  0  0  0  0  0
  179.6290  178.1580  141.2240 C   0  0  0  0  0  2  0  0  0  0  0  0
  179.9290  178.1040  142.7220 C   0  0  0  0  0  2  0  0  0  0  0  0
  180.4910  178.3240  138.9030 C   0  0  0  0  0  1  0  0  0  0  0  0
  182.1160  177.9560  140.7400 C   0  0  0  0  0  2  0  0  0  0  0  0
  1 11  2  0  0  0  0
  1 10  1  0  0  0  0
  3  5  1  0  0  0  0
  3  9  1  0  0  0  0
  5 11  1  0  0  0  0
  6  4  1  0  0  0  0
  7  2  1  0  0  0  0
  8  2  1  0  0  0  0
  8  4  2  0  0  0  0
  9 20  1  6  0  0  0
  9  7  1  0  0  0  0
 10  6  2  0  0  0  0
 11  8  1  0  0  0  0
 12  1  1  0  0  0  0
 13 12  1  6  0  0  0
 14 18  1  0  0  0  0
 14 19  1  0  0  0  0
 15 13  1  0  0  0  0
 17 16  1  0  0  0  0
 17 13  1  0  0  0  0
 18 17  2  0  0  0  0
 19 15  1  0  0  0  0
 21 24  1  0  0  0  0
 23 27  1  6  0  0  0
 23 28  1  0  0  0  0
 23 25  1  0  0  0  0
 24 22  1  0  0  0  0
 24 20  1  1  0  0  0
 25 26  1  0  0  0  0
 26 22  1  0  0  0  0
 28 21  1  0  0  0  0
M  END
>  <MODEL>
6

>  <REMARK>
 VINA RESULT:      -8.5      1.094      1.525
  Name = 
  4 active torsions:
  status: ('A' for Active; 'I' for Inactive)
    1  A    between atoms: C_1  and  O_2
    2  A    between atoms: O_2  and  C_3
    3  A    between atoms: C_10  and  C_13
    4  A    between atoms: C_10  and  C_25
                            x       y       z     vdW  Elec       q    Type
                         _______ _______ _______ _____ _____    ______ ____

>  <TORSDO>
F 4

$$$$
=
 OpenBabel10262420453D

 28 31  0  0  1  0  0  0  0  0999 V2000
  186.6760  178.3910  145.0860 C   0  0  0  0  0  0  0  0  0  0  0  0
  183.7920  178.0880  142.5990 C   0  0  0  0  0  2  0  0  0  0  0  0
  186.5730  178.8210  141.5420 C   0  0  0  0  0  2  0  0  0  0  0  0
  183.8790  178.6290  145.0260 C   0  0  0  0  0  3  0  0  0  0  0  0
  186.7420  177.7860  142.6480 C   0  0  0  0  0  2  0  0  0  0  0  0
  184.5710  178.8490  146.2160 C   0  0  0  0  0  3  0  0  0  0  0  0
  184.1440  179.1240  141.6370 N   0  0  0  0  0  2  0  0  0  0  0  0
  184.5700  178.2850  143.8620 C   0  0  0  0  0  0  0  0  0  0  0  0
  185.2450  178.6250  140.8200 C   0  0  1  0  0  3  0  0  0  0  0  0
  185.9600  178.7300  146.2450 C   0  0  0  0  0  3  0  0  0  0  0  0
  185.9770  178.1670  143.8860 C   0  0  0  0  0  0  0  0  0  0  0  0
  188.0760  178.2640  145.0980 O   0  0  0  0  0  0  0  0  0  0  0  0
  188.8080  177.0860  145.4490 C   0  0  1  0  0  3  0  0  0  0  0  0
  191.5630  176.4540  146.2430 C   0  0  0  0  0  2  0  0  0  0  0  0
  189.9030  176.7550  144.4210 C   0  0  0  0  0  2  0  0  0  0  0  0
  188.3450  177.3960  147.8640 F   0  0  0  0  0  0  0  0  0  0  0  0
  189.2490  177.0890  146.8980 C   0  0  0  0  0  0  0  0  0  0  0  0
  190.5180  176.8360  147.2530 C   0  0  0  0  0  3  0  0  0  0  0  0
  191.2950  177.1400  144.9120 C   0  0  0  0  0  2  0  0  0  0  0  0
  185.2860  179.3800  139.4960 C   0  0  0  0  0  2  0  0  0  0  0  0
  184.1580  177.3970  138.4040 C   0  0  0  0  0  2  0  0  0  0  0  0
  186.8950  177.7330  137.9480 S   0  0  0  0  0  0  0  0  0  0  0  0
  184.8970  175.6680  136.7620 C   0  0  2  0  0  3  0  0  0  0  0  0
  185.2490  178.4600  138.2750 C   0  0  2  0  0  3  0  0  0  0  0  0
  185.9910  176.1790  135.8240 C   0  0  0  0  0  2  0  0  0  0  0  0
  186.5320  177.5660  136.1730 C   0  0  0  0  0  2  0  0  0  0  0  0
  184.2300  174.4610  136.1380 C   0  0  0  0  0  1  0  0  0  0  0  0
  183.8460  176.7260  137.0730 C   0  0  0  0  0  2  0  0  0  0  0  0
  1 12  1  0  0  0  0
  1 10  1  0  0  0  0
  2  8  1  0  0  0  0
  3  5  1  0  0  0  0
  4  6  1  0  0  0  0
  5 11  1  0  0  0  0
  6 10  2  0  0  0  0
  7  2  1  0  0  0  0
  8 11  1  0  0  0  0
  8  4  2  0  0  0  0
  9 20  1  6  0  0  0
  9  3  1  0  0  0  0
  9  7  1  0  0  0  0
 11  1  2  0  0  0  0
 13 12  1  6  0  0  0
 13 17  1  0  0  0  0
 14 18  1  0  0  0  0
 15 19  1  0  0  0  0
 15 13  1  0  0  0  0
 17 18  2  0  0  0  0
 17 16  1  0  0  0  0
 19 14  1  0  0  0  0
 22 24  1  0  0  0  0
 23 27  1  6  0  0  0
 23 28  1  0  0  0  0
 24 21  1  0  0  0  0
 24 20  1  1  0  0  0
 25 26  1  0  0  0  0
 25 23  1  0  0  0  0
 26 22  1  0  0  0  0
 28 21  1  0  0  0  0
M  END
>  <MODEL>
7

>  <REMARK>
 VINA RESULT:      -8.2      3.491      4.860
  Name = 
  4 active torsions:
  status: ('A' for Active; 'I' for Inactive)
    1  A    between atoms: C_1  and  O_2
    2  A    between atoms: O_2  and  C_3
    3  A    between atoms: C_10  and  C_13
    4  A    between atoms: C_10  and  C_25
                            x       y       z     vdW  Elec       q    Type
                         _______ _______ _______ _____ _____    ______ ____

>  <TORSDO>
F 4

$$$$
=
 OpenBabel10262420453D

 28 31  0  0  1  0  0  0  0  0999 V2000
  188.6730  178.0570  144.7540 C   0  0  0  0  0  0  0  0  0  0  0  0
  185.2830  177.5260  146.4330 C   0  0  0  0  0  2  0  0  0  0  0  0
  185.3700  178.9280  143.7110 C   0  0  0  0  0  2  0  0  0  0  0  0
  187.5940  177.7430  147.3270 C   0  0  0  0  0  3  0  0  0  0  0  0
  186.4040  177.8080  143.7030 C   0  0  0  0  0  2  0  0  0  0  0  0
  188.9650  177.9340  147.1660 C   0  0  0  0  0  3  0  0  0  0  0  0
  184.5750  178.7300  146.0190 N   0  0  0  0  0  2  0  0  0  0  0  0
  186.7520  177.7020  146.2130 C   0  0  0  0  0  0  0  0  0  0  0  0
  184.1980  178.5720  144.6180 C   0  0  1  0  0  3  0  0  0  0  0  0
  189.5000  178.0890  145.8870 C   0  0  0  0  0  3  0  0  0  0  0  0
  187.2890  177.8610  144.9180 C   0  0  0  0  0  0  0  0  0  0  0  0
  189.1950  178.2090  143.4580 O   0  0  0  0  0  0  0  0  0  0  0  0
  189.8930  177.2070  142.7130 C   0  0  1  0  0  3  0  0  0  0  0  0
  191.2670  177.0560  140.1230 C   0  0  0  0  0  2  0  0  0  0  0  0
  189.1580  176.8310  141.4140 C   0  0  0  0  0  2  0  0  0  0  0  0
  192.0810  177.8790  143.6620 F   0  0  0  0  0  0  0  0  0  0  0  0
  191.3680  177.5170  142.5650 C   0  0  0  0  0  0  0  0  0  0  0  0
  191.9830  177.4820  141.3730 C   0  0  0  0  0  3  0  0  0  0  0  0
  189.8020  177.4600  140.1820 C   0  0  0  0  0  2  0  0  0  0  0  0
  183.0250  179.4900  144.2940 C   0  0  0  0  0  2  0  0  0  0  0  0
  182.7560  178.9910  141.8300 C   0  0  0  0  0  2  0  0  0  0  0  0
  180.4710  179.7560  143.2450 S   0  0  0  0  0  0  0  0  0  0  0  0
  180.7910  178.8180  140.2990 C   0  0  2  0  0  3  0  0  0  0  0  0
  182.1020  178.9310  143.2100 C   0  0  2  0  0  3  0  0  0  0  0  0
  179.5190  178.3760  141.0240 C   0  0  0  0  0  2  0  0  0  0  0  0
  179.6510  178.2900  142.5450 C   0  0  0  0  0  2  0  0  0  0  0  0
  180.6360  178.5550  138.8160 C   0  0  0  0  0  1  0  0  0  0  0  0
  182.0390  178.1110  140.8140 C   0  0  0  0  0  2  0  0  0  0  0  0
  1 11  2  0  0  0  0
  1 10  1  0  0  0  0
  3  9  1  0  0  0  0
  5  3  1  0  0  0  0
  5 11  1  0  0  0  0
  6  4  1  0  0  0  0
  7  2  1  0  0  0  0
  8  2  1  0  0  0  0
  8  4  2  0  0  0  0
  9 20  1  6  0  0  0
  9  7  1  0  0  0  0
 10  6  2  0  0  0  0
 11  8  1  0  0  0  0
 12  1  1  0  0  0  0
 13 12  1  6  0  0  0
 14 19  1  0  0  0  0
 14 18  1  0  0  0  0
 15 13  1  0  0  0  0
 17 13  1  0  0  0  0
 17 16  1  0  0  0  0
 18 17  2  0  0  0  0
 19 15  1  0  0  0  0
 21 24  1  0  0  0  0
 23 27  1  6  0  0  0
 23 28  1  0  0  0  0
 23 25  1  0  0  0  0
 24 22  1  0  0  0  0
 24 20  1  1  0  0  0
 25 26  1  0  0  0  0
 26 22  1  0  0  0  0
 28 21  1  0  0  0  0
M  END
>  <MODEL>
8

>  <REMARK>
 VINA RESULT:      -8.2      1.129      1.491
  Name = 
  4 active torsions:
  status: ('A' for Active; 'I' for Inactive)
    1  A    between atoms: C_1  and  O_2
    2  A    between atoms: O_2  and  C_3
    3  A    between atoms: C_10  and  C_13
    4  A    between atoms: C_10  and  C_25
                            x       y       z     vdW  Elec       q    Type
                         _______ _______ _______ _____ _____    ______ ____

>  <TORSDO>
F 4

$$$$
=
 OpenBabel10262420453D

 28 31  0  0  1  0  0  0  0  0999 V2000
  188.9100  177.8190  143.5950 C   0  0  0  0  0  0  0  0  0  0  0  0
  191.5190  177.2440  140.8640 C   0  0  0  0  0  2  0  0  0  0  0  0
  188.6060  177.7120  140.0380 C   0  0  0  0  0  2  0  0  0  0  0  0
  191.3930  176.5540  143.2510 C   0  0  0  0  0  3  0  0  0  0  0  0
  188.9200  178.6280  141.2160 C   0  0  0  0  0  2  0  0  0  0  0  0
  190.7500  176.5020  144.4870 C   0  0  0  0  0  3  0  0  0  0  0  0
  190.7340  176.5110  139.8800 N   0  0  0  0  0  2  0  0  0  0  0  0
  190.8100  177.2390  142.1820 C   0  0  0  0  0  0  0  0  0  0  0  0
  189.8570  177.4610  139.2040 C   0  0  1  0  0  3  0  0  0  0  0  0
  189.5170  177.1310  144.6570 C   0  0  0  0  0  3  0  0  0  0  0  0
  189.5610  177.8750  142.3490 C   0  0  0  0  0  0  0  0  0  0  0  0
  187.6700  178.4620  143.7500 O   0  0  0  0  0  0  0  0  0  0  0  0
  186.4250  177.8220  144.0450 C   0  0  1  0  0  3  0  0  0  0  0  0
  183.7860  178.6570  145.0250 C   0  0  0  0  0  2  0  0  0  0  0  0
  186.0850  177.8760  145.5450 C   0  0  0  0  0  2  0  0  0  0  0  0
  185.5460  178.2530  141.7680 F   0  0  0  0  0  0  0  0  0  0  0  0
  185.3160  178.2510  143.1060 C   0  0  0  0  0  0  0  0  0  0  0  0
  184.1240  178.6670  143.5610 C   0  0  0  0  0  3  0  0  0  0  0  0
  185.0270  178.9290  145.8620 C   0  0  0  0  0  2  0  0  0  0  0  0
  189.4420  176.9030  137.8470 C   0  0  0  0  0  2  0  0  0  0  0  0
  187.5730  175.4070  137.0330 C   0  0  0  0  0  2  0  0  0  0  0  0
  187.1880  178.1680  136.8420 S   0  0  0  0  0  0  0  0  0  0  0  0
  185.2460  175.8180  136.2280 C   0  0  2  0  0  3  0  0  0  0  0  0
  187.9290  176.7340  137.7010 C   0  0  2  0  0  3  0  0  0  0  0  0
  184.6280  177.0770  136.8390 C   0  0  0  0  0  2  0  0  0  0  0  0
  185.5910  177.9170  137.6780 C   0  0  0  0  0  2  0  0  0  0  0  0
  184.1420  174.9240  135.7070 C   0  0  0  0  0  1  0  0  0  0  0  0
  186.1050  175.0430  137.2180 C   0  0  0  0  0  2  0  0  0  0  0  0
  1 12  1  0  0  0  0
  1 10  1  0  0  0  0
  2  8  1  0  0  0  0
  3  5  1  0  0  0  0
  4  6  1  0  0  0  0
  5 11  1  0  0  0  0
  6 10  2  0  0  0  0
  7  2  1  0  0  0  0
  8 11  1  0  0  0  0
  8  4  2  0  0  0  0
  9 20  1  6  0  0  0
  9  7  1  0  0  0  0
  9  3  1  0  0  0  0
 11  1  2  0  0  0  0
 13 12  1  1  0  0  0
 13 15  1  0  0  0  0
 14 19  1  0  0  0  0
 15 19  1  0  0  0  0
 16 17  1  0  0  0  0
 17 18  2  0  0  0  0
 17 13  1  0  0  0  0
 18 14  1  0  0  0  0
 21 28  1  0  0  0  0
 21 24  1  0  0  0  0
 22 26  1  0  0  0  0
 22 24  1  0  0  0  0
 23 27  1  1  0  0  0
 23 25  1  0  0  0  0
 23 28  1  0  0  0  0
 24 20  1  6  0  0  0
 25 26  1  0  0  0  0
M  END
>  <MODEL>
9

>  <REMARK>
 VINA RESULT:      -8.1      3.687      6.322
  Name = 
  4 active torsions:
  status: ('A' for Active; 'I' for Inactive)
    1  A    between atoms: C_1  and  O_2
    2  A    between atoms: O_2  and  C_3
    3  A    between atoms: C_10  and  C_13
    4  A    between atoms: C_10  and  C_25
                            x       y       z     vdW  Elec       q    Type
                         _______ _______ _______ _____ _____    ______ ____

>  <TORSDO>
F 4

$$$$
