=
 OpenBabel10262423183D

 34 38  0  0  1  0  0  0  0  0999 V2000
  183.2240  178.2890  139.6310 C   0  0  1  0  0  0  0  0  0  0  0  0
  184.6670  175.3630  137.3190 C   0  0  0  0  0  2  0  0  0  0  0  0
  182.6010  175.6290  138.5640 C   0  0  0  0  0  3  0  0  0  0  0  0
  183.2980  179.8080  139.4950 C   0  0  0  0  0  1  0  0  0  0  0  0
  180.7520  178.5190  140.3030 C   0  0  0  0  0  3  0  0  0  0  0  0
  179.2780  176.4900  140.2670 C   0  0  0  0  0  2  0  0  0  0  0  0
  179.6020  177.9180  140.6470 C   0  0  0  0  0  3  0  0  0  0  0  0
  181.6350  176.3200  139.4810 C   0  0  1  0  0  3  0  0  0  0  0  0
  181.7650  177.8440  139.4050 C   0  0  2  0  0  3  0  0  0  0  0  0
  180.1970  175.9310  139.1760 C   0  0  0  0  0  2  0  0  0  0  0  0
  185.1530  176.1280  136.0960 C   0  0  0  0  0  2  0  0  0  0  0  0
  186.4200  176.9070  136.4300 C   0  0  2  0  0  3  0  0  0  0  0  0
  186.1150  178.2080  137.1680 C   0  0  0  0  0  2  0  0  0  0  0  0
  183.7570  176.1920  138.1770 C   0  0  0  0  0  0  0  0  0  0  0  0
  185.5720  177.9510  138.5650 C   0  0  0  0  0  2  0  0  0  0  0  0
  184.0760  177.6480  138.5020 C   0  0  2  0  0  3  0  0  0  0  0  0
  187.1560  177.1970  135.2090 N   0  0  0  0  0  0  0  0  0  0  0  0
  188.0870  176.3080  134.7230 O   0  0  0  0  0  0  0  0  0  0  0  0
  186.9400  178.2620  134.5970 O   0  0  0  0  0  0  0  0  0  0  0  0
  183.6780  177.8440  141.0380 C   0  0  0  0  0  2  0  0  0  0  0  0
  183.8880  178.9870  142.0250 C   0  0  0  0  0  2  0  0  0  0  0  0
  185.4790  178.9560  145.4070 C   0  0  0  0  0  2  0  0  0  0  0  0
  185.9140  177.7840  142.8530 C   0  0  0  0  0  3  0  0  0  0  0  0
  188.7700  177.0090  145.8580 C   0  0  0  0  0  2  0  0  0  0  0  0
  187.7160  178.0970  146.0520 C   0  0  0  0  0  2  0  0  0  0  0  0
  186.4390  177.7720  145.2810 C   0  0  2  0  0  3  0  0  0  0  0  0
  187.9010  176.5360  143.5170 C   0  0  0  0  0  2  0  0  0  0  0  0
  186.7530  177.4440  143.8340 C   0  0  0  0  0  0  0  0  0  0  0  0
  189.1320  176.8390  144.3780 C   0  0  1  0  0  3  0  0  0  0  0  0
  184.7320  178.5480  143.1220 N   0  0  0  0  0  0  0  0  0  0  0  0
  184.2780  178.7540  144.4940 C   0  0  0  0  0  2  0  0  0  0  0  0
  189.9240  177.9940  143.8480 C   0  0  0  0  0  0  0  0  0  0  0  0
  190.8880  178.5190  144.5860 C   0  0  0  0  0  2  0  0  0  0  0  0
  189.6500  178.5300  142.5940 O   0  0  0  0  0  1  0  0  0  0  0  0
  1  4  1  6  0  0  0
  1 20  1  0  0  0  0
  2 14  1  0  0  0  0
  5  7  2  0  0  0  0
  6  7  1  0  0  0  0
  8  3  1  6  0  0  0
  9  8  1  0  0  0  0
  9  1  1  0  0  0  0
  9  5  1  1  0  0  0
 10  8  1  0  0  0  0
 10  6  1  0  0  0  0
 11 12  1  0  0  0  0
 11  2  1  0  0  0  0
 12 17  1  6  0  0  0
 12 13  1  0  0  0  0
 13 15  1  0  0  0  0
 14 16  1  0  0  0  0
 14  3  2  0  0  0  0
 16 15  1  1  0  0  0
 16  1  1  0  0  0  0
 18 17  2  0  0  0  0
 19 17  2  0  0  0  0
 20 21  1  0  0  0  0
 21 30  1  0  0  0  0
 23 30  1  0  0  0  0
 23 28  2  0  0  0  0
 24 25  1  0  0  0  0
 26 22  1  6  0  0  0
 26 25  1  0  0  0  0
 27 28  1  0  0  0  0
 27 29  1  0  0  0  0
 28 26  1  0  0  0  0
 29 32  1  6  0  0  0
 29 24  1  0  0  0  0
 30 31  1  0  0  0  0
 31 22  1  0  0  0  0
 32 33  2  0  0  0  0
 34 32  1  0  0  0  0
M  END
>  <MODEL>
1

>  <REMARK>
 VINA RESULT:      -8.3      0.000      0.000
  Name = 
  5 active torsions:
  status: ('A' for Active; 'I' for Inactive)
    1  A    between atoms: C_1  and  C_8
    2  A    between atoms: N_3  and  C_25
    3  A    between atoms: C_8  and  C_18
    4  A    between atoms: C_11  and  C_29
    5  A    between atoms: C_18  and  N_30
                            x       y       z     vdW  Elec       q    Type
                         _______ _______ _______ _____ _____    ______ ____

>  <TORSDO>
F 5

$$$$
=
 OpenBabel10262423183D

 34 38  0  0  1  0  0  0  0  0999 V2000
  188.9790  177.4440  138.4370 C   0  0  1  0  0  0  0  0  0  0  0  0
  190.8840  174.1300  137.2620 C   0  0  0  0  0  2  0  0  0  0  0  0
  188.5620  174.8310  137.1730 C   0  0  0  0  0  3  0  0  0  0  0  0
  189.3890  178.9140  138.3810 C   0  0  0  0  0  1  0  0  0  0  0  0
  186.6270  178.1210  137.6450 C   0  0  0  0  0  3  0  0  0  0  0  0
  185.0680  176.3550  136.7830 C   0  0  0  0  0  2  0  0  0  0  0  0
  185.3870  177.7430  137.2950 C   0  0  0  0  0  3  0  0  0  0  0  0
  187.3980  175.7450  137.4170 C   0  0  1  0  0  3  0  0  0  0  0  0
  187.8220  177.2170  137.4420 C   0  0  2  0  0  3  0  0  0  0  0  0
  186.3120  175.5620  136.3680 C   0  0  0  0  0  2  0  0  0  0  0  0
  192.0840  174.6960  136.5160 C   0  0  0  0  0  2  0  0  0  0  0  0
  193.0850  175.2930  137.4990 C   0  0  2  0  0  3  0  0  0  0  0  0
  192.6700  176.6860  137.9620 C   0  0  0  0  0  2  0  0  0  0  0  0
  189.8230  175.1670  137.4900 C   0  0  0  0  0  0  0  0  0  0  0  0
  191.4220  176.6450  138.8310 C   0  0  0  0  0  2  0  0  0  0  0  0
  190.1720  176.5780  137.9530 C   0  0  2  0  0  3  0  0  0  0  0  0
  194.4020  175.3520  136.8850 N   0  0  0  0  0  0  0  0  0  0  0  0
  194.8050  176.4730  136.1950 O   0  0  0  0  0  0  0  0  0  0  0  0
  195.1740  174.3780  136.9860 O   0  0  0  0  0  0  0  0  0  0  0  0
  188.5090  177.0610  139.8570 C   0  0  0  0  0  2  0  0  0  0  0  0
  188.6690  178.1680  140.8950 C   0  0  0  0  0  2  0  0  0  0  0  0
  185.4660  179.4890  142.2950 C   0  0  0  0  0  2  0  0  0  0  0  0
  187.4710  177.6050  143.0130 C   0  0  0  0  0  3  0  0  0  0  0  0
  184.3630  178.2850  145.7820 C   0  0  0  0  0  2  0  0  0  0  0  0
  184.5550  179.2170  144.5860 C   0  0  0  0  0  2  0  0  0  0  0  0
  185.1780  178.4780  143.4050 C   0  0  2  0  0  3  0  0  0  0  0  0
  186.4130  176.9410  145.1070 C   0  0  0  0  0  2  0  0  0  0  0  0
  186.4270  177.7330  143.8360 C   0  0  0  0  0  0  0  0  0  0  0  0
  185.6960  177.6830  146.2400 C   0  0  1  0  0  3  0  0  0  0  0  0
  187.4830  178.2420  141.7290 N   0  0  0  0  0  0  0  0  0  0  0  0
  186.2650  178.8280  141.1800 C   0  0  0  0  0  2  0  0  0  0  0  0
  186.5810  178.6940  146.9030 C   0  0  0  0  0  0  0  0  0  0  0  0
  187.8660  178.4260  147.0720 C   0  0  0  0  0  2  0  0  0  0  0  0
  186.0670  179.9040  147.3540 O   0  0  0  0  0  1  0  0  0  0  0  0
  1  4  1  6  0  0  0
  1 20  1  0  0  0  0
  2 14  1  0  0  0  0
  3  8  1  0  0  0  0
  3 14  2  0  0  0  0
  6  7  1  0  0  0  0
  7  5  2  0  0  0  0
  8 10  1  6  0  0  0
  8  9  1  0  0  0  0
  9  5  1  1  0  0  0
  9  1  1  0  0  0  0
 10  6  1  0  0  0  0
 11  2  1  0  0  0  0
 11 12  1  0  0  0  0
 12 17  1  6  0  0  0
 12 13  1  0  0  0  0
 13 15  1  0  0  0  0
 14 16  1  0  0  0  0
 16  1  1  0  0  0  0
 16 15  1  1  0  0  0
 17 19  2  0  0  0  0
 18 17  2  0  0  0  0
 20 21  1  0  0  0  0
 21 30  1  0  0  0  0
 23 28  2  0  0  0  0
 24 29  1  0  0  0  0
 25 24  1  0  0  0  0
 26 22  1  6  0  0  0
 26 28  1  0  0  0  0
 26 25  1  0  0  0  0
 27 29  1  0  0  0  0
 28 27  1  0  0  0  0
 29 32  1  6  0  0  0
 30 23  1  0  0  0  0
 31 30  1  0  0  0  0
 31 22  1  0  0  0  0
 32 33  2  0  0  0  0
 32 34  1  0  0  0  0
M  END
>  <MODEL>
2

>  <REMARK>
 VINA RESULT:      -8.2      3.871      5.644
  Name = 
  5 active torsions:
  status: ('A' for Active; 'I' for Inactive)
    1  A    between atoms: C_1  and  C_8
    2  A    between atoms: N_3  and  C_25
    3  A    between atoms: C_8  and  C_18
    4  A    between atoms: C_11  and  C_29
    5  A    between atoms: C_18  and  N_30
                            x       y       z     vdW  Elec       q    Type
                         _______ _______ _______ _____ _____    ______ ____

>  <TORSDO>
F 5

$$$$
=
 OpenBabel10262423183D

 34 38  0  0  1  0  0  0  0  0999 V2000
  188.9190  177.3030  137.6180 C   0  0  1  0  0  0  0  0  0  0  0  0
  190.8410  173.8320  137.1170 C   0  0  0  0  0  2  0  0  0  0  0  0
  188.5290  174.5080  136.8180 C   0  0  0  0  0  3  0  0  0  0  0  0
  189.3430  178.7390  137.3200 C   0  0  0  0  0  1  0  0  0  0  0  0
  186.6040  177.8330  136.6320 C   0  0  0  0  0  3  0  0  0  0  0  0
  185.0640  175.9440  136.0350 C   0  0  0  0  0  2  0  0  0  0  0  0
  185.3750  177.4000  136.3060 C   0  0  0  0  0  3  0  0  0  0  0  0
  187.3640  175.4530  136.8540 C   0  0  1  0  0  3  0  0  0  0  0  0
  187.7980  176.9050  136.6360 C   0  0  2  0  0  3  0  0  0  0  0  0
  186.3160  175.0900  135.8130 C   0  0  0  0  0  2  0  0  0  0  0  0
  192.0710  174.2550  136.3280 C   0  0  0  0  0  2  0  0  0  0  0  0
  193.0400  175.0150  137.2280 C   0  0  2  0  0  3  0  0  0  0  0  0
  192.6200  176.4680  137.4230 C   0  0  0  0  0  2  0  0  0  0  0  0
  189.7800  174.8930  137.1180 C   0  0  0  0  0  0  0  0  0  0  0  0
  191.3400  176.5830  138.2380 C   0  0  0  0  0  2  0  0  0  0  0  0
  190.1230  176.3630  137.3390 C   0  0  2  0  0  3  0  0  0  0  0  0
  194.3800  174.9630  136.6630 N   0  0  0  0  0  0  0  0  0  0  0  0
  195.4650  175.3900  137.3940 O   0  0  0  0  0  0  0  0  0  0  0  0
  194.5460  174.5270  135.5070 O   0  0  0  0  0  0  0  0  0  0  0  0
  188.3950  177.1770  139.0650 C   0  0  0  0  0  2  0  0  0  0  0  0
  188.3250  178.4950  139.8280 C   0  0  0  0  0  2  0  0  0  0  0  0
  185.8510  179.2640  142.5220 C   0  0  0  0  0  2  0  0  0  0  0  0
  188.0540  177.5130  142.1090 C   0  0  0  0  0  3  0  0  0  0  0  0
  186.2170  177.4610  145.9050 C   0  0  0  0  0  2  0  0  0  0  0  0
  185.8990  178.5710  144.9040 C   0  0  0  0  0  2  0  0  0  0  0  0
  186.0520  178.0780  143.4670 C   0  0  2  0  0  3  0  0  0  0  0  0
  187.9050  176.4480  144.2970 C   0  0  0  0  0  2  0  0  0  0  0  0
  187.4000  177.4120  143.2680 C   0  0  0  0  0  0  0  0  0  0  0  0
  187.6480  176.9410  145.7250 C   0  0  1  0  0  3  0  0  0  0  0  0
  187.5470  178.3250  141.0420 N   0  0  0  0  0  0  0  0  0  0  0  0
  186.1890  178.8560  141.0940 C   0  0  0  0  0  2  0  0  0  0  0  0
  188.6770  177.9310  146.1760 C   0  0  0  0  0  0  0  0  0  0  0  0
  188.6790  178.3450  147.4330 C   0  0  0  0  0  2  0  0  0  0  0  0
  189.6220  178.4310  145.2880 O   0  0  0  0  0  1  0  0  0  0  0  0
  1  4  1  6  0  0  0
  1 20  1  0  0  0  0
  2 14  1  0  0  0  0
  3  8  1  0  0  0  0
  3 14  2  0  0  0  0
  6  7  1  0  0  0  0
  7  5  2  0  0  0  0
  8 10  1  6  0  0  0
  9  5  1  1  0  0  0
  9  8  1  0  0  0  0
  9  1  1  0  0  0  0
 10  6  1  0  0  0  0
 11  2  1  0  0  0  0
 11 12  1  0  0  0  0
 12 17  1  6  0  0  0
 12 13  1  0  0  0  0
 13 15  1  0  0  0  0
 14 16  1  0  0  0  0
 16  1  1  0  0  0  0
 16 15  1  1  0  0  0
 17 18  2  0  0  0  0
 19 17  2  0  0  0  0
 20 21  1  0  0  0  0
 21 30  1  0  0  0  0
 23 28  2  0  0  0  0
 25 24  1  0  0  0  0
 26 22  1  6  0  0  0
 26 25  1  0  0  0  0
 27 29  1  0  0  0  0
 28 26  1  0  0  0  0
 28 27  1  0  0  0  0
 29 24  1  0  0  0  0
 29 32  1  6  0  0  0
 30 31  1  0  0  0  0
 30 23  1  0  0  0  0
 31 22  1  0  0  0  0
 32 33  2  0  0  0  0
 34 32  1  0  0  0  0
M  END
>  <MODEL>
3

>  <REMARK>
 VINA RESULT:      -8.1      3.740      5.532
  Name = 
  5 active torsions:
  status: ('A' for Active; 'I' for Inactive)
    1  A    between atoms: C_1  and  C_8
    2  A    between atoms: N_3  and  C_25
    3  A    between atoms: C_8  and  C_18
    4  A    between atoms: C_11  and  C_29
    5  A    between atoms: C_18  and  N_30
                            x       y       z     vdW  Elec       q    Type
                         _______ _______ _______ _____ _____    ______ ____

>  <TORSDO>
F 5

$$$$
=
 OpenBabel10262423183D

 34 38  0  0  1  0  0  0  0  0999 V2000
  183.3890  178.2760  141.4490 C   0  0  1  0  0  0  0  0  0  0  0  0
  184.9750  179.2370  144.9910 C   0  0  0  0  0  2  0  0  0  0  0  0
  182.7130  179.2940  144.1140 C   0  0  0  0  0  3  0  0  0  0  0  0
  183.6980  177.1310  140.4850 C   0  0  0  0  0  1  0  0  0  0  0  0
  180.8810  177.8750  141.0440 C   0  0  0  0  0  3  0  0  0  0  0  0
  179.2090  178.8850  142.6170 C   0  0  0  0  0  2  0  0  0  0  0  0
  179.6110  178.2100  141.3250 C   0  0  0  0  0  3  0  0  0  0  0  0
  181.6440  179.1380  143.0720 C   0  0  1  0  0  3  0  0  0  0  0  0
  181.9910  178.0450  142.0570 C   0  0  2  0  0  3  0  0  0  0  0  0
  180.2940  178.8220  143.6970 C   0  0  0  0  0  2  0  0  0  0  0  0
  185.8560  178.0320  145.2880 C   0  0  0  0  0  2  0  0  0  0  0  0
  187.0870  178.0440  144.3880 C   0  0  2  0  0  3  0  0  0  0  0  0
  186.7780  177.5200  142.9890 C   0  0  0  0  0  2  0  0  0  0  0  0
  183.9940  178.9600  143.8900 C   0  0  0  0  0  0  0  0  0  0  0  0
  185.8660  178.4630  142.2200 C   0  0  0  0  0  2  0  0  0  0  0  0
  184.4090  178.2270  142.6180 C   0  0  2  0  0  3  0  0  0  0  0  0
  188.1430  177.2450  144.9890 N   0  0  0  0  0  0  0  0  0  0  0  0
  189.0810  176.6170  144.2020 O   0  0  0  0  0  0  0  0  0  0  0  0
  188.1990  177.1280  146.2300 O   0  0  0  0  0  0  0  0  0  0  0  0
  183.4030  179.6310  140.7090 C   0  0  0  0  0  2  0  0  0  0  0  0
  183.6770  179.5310  139.2120 C   0  0  0  0  0  2  0  0  0  0  0  0
  181.1820  179.6480  136.4320 C   0  0  0  0  0  2  0  0  0  0  0  0
  181.9270  181.2300  138.6750 C   0  0  0  0  0  3  0  0  0  0  0  0
  178.9310  182.7580  136.1290 C   0  0  0  0  0  2  0  0  0  0  0  0
  179.7730  181.5560  135.7030 C   0  0  0  0  0  2  0  0  0  0  0  0
  180.2400  180.7520  136.9140 C   0  0  2  0  0  3  0  0  0  0  0  0
  180.2570  182.9650  138.2880 C   0  0  0  0  0  2  0  0  0  0  0  0
  180.8990  181.6570  137.9370 C   0  0  0  0  0  0  0  0  0  0  0  0
  179.7210  183.6930  137.0510 C   0  0  1  0  0  3  0  0  0  0  0  0
  182.4990  179.9330  138.4640 N   0  0  0  0  0  0  0  0  0  0  0  0
  181.8230  178.9500  137.6230 C   0  0  0  0  0  2  0  0  0  0  0  0
  180.7960  184.4390  136.3230 C   0  0  0  0  0  0  0  0  0  0  0  0
  180.6900  184.6290  135.0180 C   0  0  0  0  0  2  0  0  0  0  0  0
  181.9100  184.9230  136.9990 O   0  0  0  0  0  1  0  0  0  0  0  0
  1  4  1  6  0  0  0
  1  9  1  0  0  0  0
  1 16  1  0  0  0  0
  2 11  1  0  0  0  0
  5  7  2  0  0  0  0
  6 10  1  0  0  0  0
  7  6  1  0  0  0  0
  8 10  1  1  0  0  0
  8  3  1  0  0  0  0
  9  5  1  6  0  0  0
  9  8  1  0  0  0  0
 12 17  1  1  0  0  0
 12 11  1  0  0  0  0
 13 12  1  0  0  0  0
 14  3  2  0  0  0  0
 14  2  1  0  0  0  0
 15 13  1  0  0  0  0
 16 15  1  6  0  0  0
 16 14  1  0  0  0  0
 17 19  2  0  0  0  0
 18 17  2  0  0  0  0
 20  1  1  0  0  0  0
 21 20  1  0  0  0  0
 22 26  1  0  0  0  0
 22 31  1  0  0  0  0
 24 29  1  0  0  0  0
 25 24  1  0  0  0  0
 26 25  1  6  0  0  0
 26 28  1  0  0  0  0
 28 27  1  0  0  0  0
 28 23  2  0  0  0  0
 29 32  1  6  0  0  0
 29 27  1  0  0  0  0
 30 23  1  0  0  0  0
 30 21  1  0  0  0  0
 31 30  1  0  0  0  0
 32 34  1  0  0  0  0
 33 32  2  0  0  0  0
M  END
>  <MODEL>
4

>  <REMARK>
 VINA RESULT:      -8.1      3.612      8.570
  Name = 
  5 active torsions:
  status: ('A' for Active; 'I' for Inactive)
    1  A    between atoms: C_1  and  C_8
    2  A    between atoms: N_3  and  C_25
    3  A    between atoms: C_8  and  C_18
    4  A    between atoms: C_11  and  C_29
    5  A    between atoms: C_18  and  N_30
                            x       y       z     vdW  Elec       q    Type
                         _______ _______ _______ _____ _____    ______ ____

>  <TORSDO>
F 5

$$$$
=
 OpenBabel10262423183D

 34 38  0  0  1  0  0  0  0  0999 V2000
  187.8530  177.4860  143.8860 C   0  0  1  0  0  0  0  0  0  0  0  0
  189.6630  178.1780  147.3840 C   0  0  0  0  0  2  0  0  0  0  0  0
  187.4330  178.6460  146.5460 C   0  0  0  0  0  3  0  0  0  0  0  0
  187.9220  176.2930  142.9360 C   0  0  0  0  0  1  0  0  0  0  0  0
  185.3060  177.5560  143.5330 C   0  0  0  0  0  3  0  0  0  0  0  0
  183.8850  178.8810  145.1200 C   0  0  0  0  0  2  0  0  0  0  0  0
  184.1270  178.1260  143.8310 C   0  0  0  0  0  3  0  0  0  0  0  0
  186.3330  178.6800  145.5270 C   0  0  1  0  0  3  0  0  0  0  0  0
  186.4490  177.5280  144.5230 C   0  0  2  0  0  3  0  0  0  0  0  0
  184.9610  178.6290  146.1810 C   0  0  0  0  0  2  0  0  0  0  0  0
  190.3100  176.8330  147.6840 C   0  0  0  0  0  2  0  0  0  0  0  0
  191.5020  176.6040  146.7620 C   0  0  2  0  0  3  0  0  0  0  0  0
  191.0720  176.1290  145.3770 C   0  0  0  0  0  2  0  0  0  0  0  0
  188.6240  178.0750  146.3050 C   0  0  0  0  0  0  0  0  0  0  0  0
  190.3360  177.2170  144.6090 C   0  0  0  0  0  2  0  0  0  0  0  0
  188.8690  177.2630  145.0380 C   0  0  2  0  0  3  0  0  0  0  0  0
  192.4030  175.6280  147.3560 N   0  0  0  0  0  0  0  0  0  0  0  0
  192.8150  175.7590  148.6630 O   0  0  0  0  0  0  0  0  0  0  0  0
  192.8060  174.6640  146.6750 O   0  0  0  0  0  0  0  0  0  0  0  0
  188.1040  178.8060  143.1250 C   0  0  0  0  0  2  0  0  0  0  0  0
  188.7140  178.6290  141.7380 C   0  0  0  0  0  2  0  0  0  0  0  0
  185.2720  178.6160  140.2830 C   0  0  0  0  0  2  0  0  0  0  0  0
  187.9370  178.1300  139.4170 C   0  0  0  0  0  3  0  0  0  0  0  0
  184.8410  177.5020  136.6220 C   0  0  0  0  0  2  0  0  0  0  0  0
  184.5220  177.6980  138.1030 C   0  0  0  0  0  2  0  0  0  0  0  0
  185.5750  178.5690  138.7850 C   0  0  2  0  0  3  0  0  0  0  0  0
  187.3330  177.6320  137.1080 C   0  0  0  0  0  2  0  0  0  0  0  0
  186.9690  178.0450  138.5010 C   0  0  0  0  0  0  0  0  0  0  0  0
  186.2100  176.8400  136.4300 C   0  0  1  0  0  3  0  0  0  0  0  0
  187.6680  178.6380  140.7310 N   0  0  0  0  0  0  0  0  0  0  0  0
  186.4070  179.3100  141.0240 C   0  0  0  0  0  2  0  0  0  0  0  0
  186.2100  175.3980  136.8370 C   0  0  0  0  0  0  0  0  0  0  0  0
  187.3560  174.7980  137.1160 C   0  0  0  0  0  2  0  0  0  0  0  0
  185.0220  174.6800  136.9130 O   0  0  0  0  0  1  0  0  0  0  0  0
  1  4  1  6  0  0  0
  1  9  1  0  0  0  0
  1 16  1  0  0  0  0
  2 11  1  0  0  0  0
  5  7  2  0  0  0  0
  6 10  1  0  0  0  0
  7  6  1  0  0  0  0
  8 10  1  1  0  0  0
  8  3  1  0  0  0  0
  9  5  1  6  0  0  0
  9  8  1  0  0  0  0
 12 17  1  1  0  0  0
 12 11  1  0  0  0  0
 13 12  1  0  0  0  0
 14  3  2  0  0  0  0
 14  2  1  0  0  0  0
 15 13  1  0  0  0  0
 16 15  1  6  0  0  0
 16 14  1  0  0  0  0
 17 18  2  0  0  0  0
 19 17  2  0  0  0  0
 20  1  1  0  0  0  0
 21 20  1  0  0  0  0
 22 31  1  0  0  0  0
 23 30  1  0  0  0  0
 24 25  1  0  0  0  0
 26 25  1  6  0  0  0
 26 22  1  0  0  0  0
 27 28  1  0  0  0  0
 28 26  1  0  0  0  0
 28 23  2  0  0  0  0
 29 24  1  0  0  0  0
 29 32  1  1  0  0  0
 29 27  1  0  0  0  0
 30 31  1  0  0  0  0
 30 21  1  0  0  0  0
 32 34  1  0  0  0  0
 32 33  2  0  0  0  0
M  END
>  <MODEL>
5

>  <REMARK>
 VINA RESULT:      -7.6      2.977      8.612
  Name = 
  5 active torsions:
  status: ('A' for Active; 'I' for Inactive)
    1  A    between atoms: C_1  and  C_8
    2  A    between atoms: N_3  and  C_25
    3  A    between atoms: C_8  and  C_18
    4  A    between atoms: C_11  and  C_29
    5  A    between atoms: C_18  and  N_30
                            x       y       z     vdW  Elec       q    Type
                         _______ _______ _______ _____ _____    ______ ____

>  <TORSDO>
F 5

$$$$
=
 OpenBabel10262423183D

 34 38  0  0  1  0  0  0  0  0999 V2000
  187.8590  177.4940  143.8160 C   0  0  1  0  0  0  0  0  0  0  0  0
  189.5270  178.1740  147.3860 C   0  0  0  0  0  2  0  0  0  0  0  0
  187.3330  178.6440  146.4620 C   0  0  0  0  0  3  0  0  0  0  0  0
  187.9680  176.3050  142.8650 C   0  0  0  0  0  1  0  0  0  0  0  0
  185.3290  177.5650  143.3610 C   0  0  0  0  0  3  0  0  0  0  0  0
  183.8440  178.8830  144.8950 C   0  0  0  0  0  2  0  0  0  0  0  0
  184.1380  178.1330  143.6140 C   0  0  0  0  0  3  0  0  0  0  0  0
  186.2750  178.6810  145.3990 C   0  0  1  0  0  3  0  0  0  0  0  0
  186.4310  177.5330  144.3960 C   0  0  2  0  0  3  0  0  0  0  0  0
  184.8770  178.6270  145.9970 C   0  0  0  0  0  2  0  0  0  0  0  0
  190.1620  176.8280  147.7070 C   0  0  0  0  0  2  0  0  0  0  0  0
  191.3910  176.6030  146.8330 C   0  0  2  0  0  3  0  0  0  0  0  0
  191.0170  176.1330  145.4300 C   0  0  0  0  0  2  0  0  0  0  0  0
  188.5330  178.0750  146.2660 C   0  0  0  0  0  0  0  0  0  0  0  0
  190.3120  177.2230  144.6370 C   0  0  0  0  0  2  0  0  0  0  0  0
  188.8290  177.2670  145.0070 C   0  0  2  0  0  3  0  0  0  0  0  0
  192.2680  175.6260  147.4590 N   0  0  0  0  0  0  0  0  0  0  0  0
  192.9190  175.9200  148.6360 O   0  0  0  0  0  0  0  0  0  0  0  0
  192.4310  174.5100  146.9250 O   0  0  0  0  0  0  0  0  0  0  0  0
  188.1400  178.8170  143.0700 C   0  0  0  0  0  2  0  0  0  0  0  0
  189.0130  178.6690  141.8290 C   0  0  0  0  0  2  0  0  0  0  0  0
  185.9600  178.2240  139.7200 C   0  0  0  0  0  2  0  0  0  0  0  0
  188.7770  178.3750  139.3600 C   0  0  0  0  0  3  0  0  0  0  0  0
  186.4210  177.5910  135.9500 C   0  0  0  0  0  2  0  0  0  0  0  0
  185.8130  177.5070  137.3490 C   0  0  0  0  0  2  0  0  0  0  0  0
  186.5230  178.4510  138.3170 C   0  0  2  0  0  3  0  0  0  0  0  0
  188.7050  178.1130  136.9360 C   0  0  0  0  0  2  0  0  0  0  0  0
  188.0250  178.2440  138.2640 C   0  0  0  0  0  0  0  0  0  0  0  0
  187.9110  177.2310  135.9670 C   0  0  1  0  0  3  0  0  0  0  0  0
  188.1820  178.6290  140.6390 N   0  0  0  0  0  0  0  0  0  0  0  0
  186.7760  179.0030  140.7430 C   0  0  0  0  0  2  0  0  0  0  0  0
  188.1440  175.7710  136.2090 C   0  0  0  0  0  0  0  0  0  0  0  0
  187.5220  174.8770  135.4580 C   0  0  0  0  0  2  0  0  0  0  0  0
  188.9950  175.3440  137.2220 O   0  0  0  0  0  1  0  0  0  0  0  0
  1  4  1  6  0  0  0
  1  9  1  0  0  0  0
  1 16  1  0  0  0  0
  2 11  1  0  0  0  0
  5  7  2  0  0  0  0
  6 10  1  0  0  0  0
  7  6  1  0  0  0  0
  8 10  1  1  0  0  0
  8  3  1  0  0  0  0
  9  5  1  6  0  0  0
  9  8  1  0  0  0  0
 12 17  1  1  0  0  0
 12 11  1  0  0  0  0
 13 12  1  0  0  0  0
 14  3  2  0  0  0  0
 14  2  1  0  0  0  0
 15 13  1  0  0  0  0
 16 15  1  6  0  0  0
 16 14  1  0  0  0  0
 17 18  2  0  0  0  0
 19 17  2  0  0  0  0
 20  1  1  0  0  0  0
 21 20  1  0  0  0  0
 22 31  1  0  0  0  0
 23 30  1  0  0  0  0
 24 29  1  0  0  0  0
 24 25  1  0  0  0  0
 26 25  1  6  0  0  0
 26 22  1  0  0  0  0
 27 28  1  0  0  0  0
 28 26  1  0  0  0  0
 28 23  2  0  0  0  0
 29 32  1  1  0  0  0
 29 27  1  0  0  0  0
 30 31  1  0  0  0  0
 30 21  1  0  0  0  0
 32 34  1  0  0  0  0
 33 32  2  0  0  0  0
M  END
>  <MODEL>
6

>  <REMARK>
 VINA RESULT:      -7.4      3.253      8.653
  Name = 
  5 active torsions:
  status: ('A' for Active; 'I' for Inactive)
    1  A    between atoms: C_1  and  C_8
    2  A    between atoms: N_3  and  C_25
    3  A    between atoms: C_8  and  C_18
    4  A    between atoms: C_11  and  C_29
    5  A    between atoms: C_18  and  N_30
                            x       y       z     vdW  Elec       q    Type
                         _______ _______ _______ _____ _____    ______ ____

>  <TORSDO>
F 5

$$$$
=
 OpenBabel10262423183D

 34 38  0  0  1  0  0  0  0  0999 V2000
  187.9510  177.2570  143.9390 C   0  0  1  0  0  0  0  0  0  0  0  0
  191.4860  178.6850  142.7330 C   0  0  0  0  0  2  0  0  0  0  0  0
  190.3800  178.5980  144.8910 C   0  0  0  0  0  3  0  0  0  0  0  0
  187.1800  176.0040  143.5310 C   0  0  0  0  0  1  0  0  0  0  0  0
  187.3440  176.7730  146.3910 C   0  0  0  0  0  3  0  0  0  0  0  0
  188.5940  177.9520  148.2190 C   0  0  0  0  0  2  0  0  0  0  0  0
  187.4470  177.1230  147.6840 C   0  0  0  0  0  3  0  0  0  0  0  0
  189.2620  178.2950  145.8440 C   0  0  1  0  0  3  0  0  0  0  0  0
  188.4370  177.0860  145.3930 C   0  0  2  0  0  3  0  0  0  0  0  0
  189.7790  178.0420  147.2520 C   0  0  0  0  0  2  0  0  0  0  0  0
  192.0240  177.5400  141.8860 C   0  0  0  0  0  2  0  0  0  0  0  0
  191.2630  177.4540  140.5680 C   0  0  2  0  0  3  0  0  0  0  0  0
  189.9180  176.7510  140.7290 C   0  0  0  0  0  2  0  0  0  0  0  0
  190.3340  178.2550  143.5930 C   0  0  0  0  0  0  0  0  0  0  0  0
  188.9440  177.5760  141.5570 C   0  0  0  0  0  2  0  0  0  0  0  0
  189.2160  177.3730  143.0470 C   0  0  2  0  0  3  0  0  0  0  0  0
  192.0670  176.7530  139.5800 N   0  0  0  0  0  0  0  0  0  0  0  0
  193.4150  177.0070  139.4640 O   0  0  0  0  0  0  0  0  0  0  0  0
  191.5300  175.9130  138.8300 O   0  0  0  0  0  0  0  0  0  0  0  0
  187.0490  178.5080  143.8490 C   0  0  0  0  0  2  0  0  0  0  0  0
  186.2140  178.5940  142.5760 C   0  0  0  0  0  2  0  0  0  0  0  0
  183.0720  178.6260  144.5990 C   0  0  0  0  0  2  0  0  0  0  0  0
  183.8360  178.8810  141.8710 C   0  0  0  0  0  3  0  0  0  0  0  0
  179.7090  178.8930  142.7420 C   0  0  0  0  0  2  0  0  0  0  0  0
  180.7250  178.4810  143.8060 C   0  0  0  0  0  2  0  0  0  0  0  0
  182.0650  179.1790  143.5880 C   0  0  2  0  0  3  0  0  0  0  0  0
  181.5660  179.1900  141.0330 C   0  0  0  0  0  2  0  0  0  0  0  0
  182.5370  179.0030  142.1580 C   0  0  0  0  0  0  0  0  0  0  0  0
  180.2060  178.5510  141.3330 C   0  0  1  0  0  3  0  0  0  0  0  0
  184.8210  178.8240  142.9110 N   0  0  0  0  0  0  0  0  0  0  0  0
  184.4670  179.1530  144.2880 C   0  0  0  0  0  2  0  0  0  0  0  0
  180.2010  177.0770  141.0670 C   0  0  0  0  0  0  0  0  0  0  0  0
  181.0550  176.5690  140.1930 C   0  0  0  0  0  2  0  0  0  0  0  0
  179.3030  176.2390  141.7170 O   0  0  0  0  0  1  0  0  0  0  0  0
  1  4  1  6  0  0  0
  1  9  1  0  0  0  0
  2 14  1  0  0  0  0
  5  7  2  0  0  0  0
  7  6  1  0  0  0  0
  8  3  1  6  0  0  0
  8 10  1  0  0  0  0
  9  8  1  0  0  0  0
  9  5  1  1  0  0  0
 10  6  1  0  0  0  0
 11  2  1  0  0  0  0
 12 17  1  6  0  0  0
 12 13  1  0  0  0  0
 12 11  1  0  0  0  0
 13 15  1  0  0  0  0
 14  3  2  0  0  0  0
 16 15  1  6  0  0  0
 16 14  1  0  0  0  0
 16  1  1  0  0  0  0
 18 17  2  0  0  0  0
 19 17  2  0  0  0  0
 20  1  1  0  0  0  0
 21 30  1  0  0  0  0
 21 20  1  0  0  0  0
 23 28  2  0  0  0  0
 23 30  1  0  0  0  0
 24 25  1  0  0  0  0
 26 25  1  6  0  0  0
 26 22  1  0  0  0  0
 27 29  1  0  0  0  0
 27 28  1  0  0  0  0
 28 26  1  0  0  0  0
 29 32  1  1  0  0  0
 29 24  1  0  0  0  0
 30 31  1  0  0  0  0
 31 22  1  0  0  0  0
 32 34  1  0  0  0  0
 33 32  2  0  0  0  0
M  END
>  <MODEL>
7

>  <REMARK>
 VINA RESULT:      -7.3      3.152      7.914
  Name = 
  5 active torsions:
  status: ('A' for Active; 'I' for Inactive)
    1  A    between atoms: C_1  and  C_8
    2  A    between atoms: N_3  and  C_25
    3  A    between atoms: C_8  and  C_18
    4  A    between atoms: C_11  and  C_29
    5  A    between atoms: C_18  and  N_30
                            x       y       z     vdW  Elec       q    Type
                         _______ _______ _______ _____ _____    ______ ____

>  <TORSDO>
F 5

$$$$
=
 OpenBabel10262423183D

 34 38  0  0  1  0  0  0  0  0999 V2000
  187.8730  177.2450  144.1890 C   0  0  1  0  0  0  0  0  0  0  0  0
  191.2590  178.5400  142.5020 C   0  0  0  0  0  2  0  0  0  0  0  0
  190.4490  178.5110  144.7890 C   0  0  0  0  0  3  0  0  0  0  0  0
  187.0130  176.0150  143.9040 C   0  0  0  0  0  1  0  0  0  0  0  0
  187.5830  176.8040  146.7060 C   0  0  0  0  0  3  0  0  0  0  0  0
  189.1040  177.9580  148.3350 C   0  0  0  0  0  2  0  0  0  0  0  0
  187.8690  177.1630  147.9680 C   0  0  0  0  0  3  0  0  0  0  0  0
  189.4590  178.2560  145.8880 C   0  0  1  0  0  3  0  0  0  0  0  0
  188.5420  177.0710  145.5670 C   0  0  2  0  0  3  0  0  0  0  0  0
  190.1510  177.9980  147.2170 C   0  0  0  0  0  2  0  0  0  0  0  0
  191.6420  177.3700  141.6070 C   0  0  0  0  0  2  0  0  0  0  0  0
  190.7080  177.2980  140.4040 C   0  0  2  0  0  3  0  0  0  0  0  0
  189.3750  176.6430  140.7520 C   0  0  0  0  0  2  0  0  0  0  0  0
  190.2190  178.1580  143.5140 C   0  0  0  0  0  0  0  0  0  0  0  0
  188.5480  177.5080  141.6910 C   0  0  0  0  0  2  0  0  0  0  0  0
  189.0100  177.3090  143.1340 C   0  0  2  0  0  3  0  0  0  0  0  0
  191.3500  176.5600  139.3270 N   0  0  0  0  0  0  0  0  0  0  0  0
  190.6830  175.5480  138.6750 O   0  0  0  0  0  0  0  0  0  0  0  0
  192.5160  176.8490  138.9900 O   0  0  0  0  0  0  0  0  0  0  0  0
  187.0080  178.5250  144.2020 C   0  0  0  0  0  2  0  0  0  0  0  0
  185.6300  178.3490  144.8330 C   0  0  0  0  0  2  0  0  0  0  0  0
  182.2110  178.6900  143.3640 C   0  0  0  0  0  2  0  0  0  0  0  0
  184.9110  178.7200  142.4710 C   0  0  0  0  0  3  0  0  0  0  0  0
  181.8920  179.0190  139.5400 C   0  0  0  0  0  2  0  0  0  0  0  0
  181.5450  178.6230  140.9740 C   0  0  0  0  0  2  0  0  0  0  0  0
  182.5320  179.2300  141.9690 C   0  0  2  0  0  3  0  0  0  0  0  0
  184.3650  179.0980  140.1240 C   0  0  0  0  0  2  0  0  0  0  0  0
  183.9610  178.9330  141.5570 C   0  0  0  0  0  0  0  0  0  0  0  0
  183.3040  178.5580  139.1600 C   0  0  1  0  0  3  0  0  0  0  0  0
  184.5970  178.6790  143.8690 N   0  0  0  0  0  0  0  0  0  0  0  0
  183.2900  179.1170  144.3490 C   0  0  0  0  0  2  0  0  0  0  0  0
  183.3940  177.0720  138.9940 C   0  0  0  0  0  0  0  0  0  0  0  0
  184.1310  176.5670  138.0170 C   0  0  0  0  0  2  0  0  0  0  0  0
  182.7030  176.2170  139.8450 O   0  0  0  0  0  1  0  0  0  0  0  0
  1  4  1  6  0  0  0
  1 20  1  0  0  0  0
  1  9  1  0  0  0  0
  2 14  1  0  0  0  0
  5  7  2  0  0  0  0
  7  6  1  0  0  0  0
  8  3  1  6  0  0  0
  8 10  1  0  0  0  0
  9  8  1  0  0  0  0
  9  5  1  1  0  0  0
 10  6  1  0  0  0  0
 11  2  1  0  0  0  0
 12 17  1  6  0  0  0
 12 13  1  0  0  0  0
 12 11  1  0  0  0  0
 13 15  1  0  0  0  0
 14  3  2  0  0  0  0
 16 15  1  6  0  0  0
 16 14  1  0  0  0  0
 16  1  1  0  0  0  0
 18 17  2  0  0  0  0
 19 17  2  0  0  0  0
 20 21  1  0  0  0  0
 22 31  1  0  0  0  0
 23 30  1  0  0  0  0
 24 25  1  0  0  0  0
 26 25  1  6  0  0  0
 26 22  1  0  0  0  0
 27 28  1  0  0  0  0
 28 26  1  0  0  0  0
 28 23  2  0  0  0  0
 29 32  1  1  0  0  0
 29 24  1  0  0  0  0
 29 27  1  0  0  0  0
 30 31  1  0  0  0  0
 30 21  1  0  0  0  0
 32 34  1  0  0  0  0
 33 32  2  0  0  0  0
M  END
>  <MODEL>
8

>  <REMARK>
 VINA RESULT:      -7.2      2.512      7.602
  Name = 
  5 active torsions:
  status: ('A' for Active; 'I' for Inactive)
    1  A    between atoms: C_1  and  C_8
    2  A    between atoms: N_3  and  C_25
    3  A    between atoms: C_8  and  C_18
    4  A    between atoms: C_11  and  C_29
    5  A    between atoms: C_18  and  N_30
                            x       y       z     vdW  Elec       q    Type
                         _______ _______ _______ _____ _____    ______ ____

>  <TORSDO>
F 5

$$$$
=
 OpenBabel10262423183D

 34 38  0  0  1  0  0  0  0  0999 V2000
  189.1760  177.1390  138.0260 C   0  0  1  0  0  0  0  0  0  0  0  0
  191.0370  173.8070  136.8330 C   0  0  0  0  0  2  0  0  0  0  0  0
  188.7120  174.5020  136.8300 C   0  0  0  0  0  3  0  0  0  0  0  0
  189.5800  178.6090  137.9250 C   0  0  0  0  0  1  0  0  0  0  0  0
  186.7910  177.7980  137.3230 C   0  0  0  0  0  3  0  0  0  0  0  0
  185.2000  176.0140  136.5610 C   0  0  0  0  0  2  0  0  0  0  0  0
  185.5380  177.4110  137.0330 C   0  0  0  0  0  3  0  0  0  0  0  0
  187.5570  175.4190  137.1070 C   0  0  1  0  0  3  0  0  0  0  0  0
  187.9780  176.8920  137.0860 C   0  0  2  0  0  3  0  0  0  0  0  0
  186.4270  175.2150  136.1090 C   0  0  0  0  0  2  0  0  0  0  0  0
  192.2020  174.3600  136.0250 C   0  0  0  0  0  2  0  0  0  0  0  0
  193.2430  174.9770  136.9540 C   0  0  2  0  0  3  0  0  0  0  0  0
  192.8450  176.3780  137.4090 C   0  0  0  0  0  2  0  0  0  0  0  0
  189.9840  174.8460  137.0860 C   0  0  0  0  0  0  0  0  0  0  0  0
  191.6360  176.3520  138.3300 C   0  0  0  0  0  2  0  0  0  0  0  0
  190.3500  176.2660  137.5080 C   0  0  2  0  0  3  0  0  0  0  0  0
  194.5330  175.0260  136.2830 N   0  0  0  0  0  0  0  0  0  0  0  0
  194.7070  174.4330  135.0540 O   0  0  0  0  0  0  0  0  0  0  0  0
  195.4890  175.6130  136.8270 O   0  0  0  0  0  0  0  0  0  0  0  0
  188.7680  176.7830  139.4720 C   0  0  0  0  0  2  0  0  0  0  0  0
  188.8880  177.9350  140.4650 C   0  0  0  0  0  2  0  0  0  0  0  0
  190.6380  175.6330  142.8330 C   0  0  0  0  0  2  0  0  0  0  0  0
  189.5120  178.2450  142.8630 C   0  0  0  0  0  3  0  0  0  0  0  0
  191.0440  176.7470  146.4970 C   0  0  0  0  0  2  0  0  0  0  0  0
  190.8430  175.8200  145.2980 C   0  0  0  0  0  2  0  0  0  0  0  0
  190.9800  176.5820  143.9830 C   0  0  2  0  0  3  0  0  0  0  0  0
  190.0690  178.7000  145.1930 C   0  0  0  0  0  2  0  0  0  0  0  0
  190.1020  177.8180  143.9830 C   0  0  0  0  0  0  0  0  0  0  0  0
  190.0230  177.8910  146.4940 C   0  0  1  0  0  3  0  0  0  0  0  0
  189.6180  177.5010  141.6420 N   0  0  0  0  0  0  0  0  0  0  0  0
  190.5730  176.4040  141.5210 C   0  0  0  0  0  2  0  0  0  0  0  0
  188.6390  177.4230  146.8210 C   0  0  0  0  0  0  0  0  0  0  0  0
  188.3180  177.1630  148.0790 C   0  0  0  0  0  2  0  0  0  0  0  0
  187.6910  177.2470  145.8200 O   0  0  0  0  0  1  0  0  0  0  0  0
  1  4  1  6  0  0  0
  1 20  1  0  0  0  0
  2 14  1  0  0  0  0
  3 14  2  0  0  0  0
  3  8  1  0  0  0  0
  6  7  1  0  0  0  0
  7  5  2  0  0  0  0
  8 10  1  6  0  0  0
  9  8  1  0  0  0  0
  9  5  1  1  0  0  0
  9  1  1  0  0  0  0
 10  6  1  0  0  0  0
 11  2  1  0  0  0  0
 11 12  1  0  0  0  0
 12 17  1  6  0  0  0
 12 13  1  0  0  0  0
 13 15  1  0  0  0  0
 14 16  1  0  0  0  0
 16  1  1  0  0  0  0
 16 15  1  1  0  0  0
 17 19  2  0  0  0  0
 18 17  2  0  0  0  0
 20 21  1  0  0  0  0
 21 30  1  0  0  0  0
 23 28  2  0  0  0  0
 25 24  1  0  0  0  0
 26 22  1  6  0  0  0
 26 28  1  0  0  0  0
 26 25  1  0  0  0  0
 27 29  1  0  0  0  0
 28 27  1  0  0  0  0
 29 24  1  0  0  0  0
 29 32  1  6  0  0  0
 30 23  1  0  0  0  0
 31 30  1  0  0  0  0
 31 22  1  0  0  0  0
 32 33  2  0  0  0  0
 34 32  1  0  0  0  0
M  END
>  <MODEL>
9

>  <REMARK>
 VINA RESULT:      -7.2      4.220      6.023
  Name = 
  5 active torsions:
  status: ('A' for Active; 'I' for Inactive)
    1  A    between atoms: C_1  and  C_8
    2  A    between atoms: N_3  and  C_25
    3  A    between atoms: C_8  and  C_18
    4  A    between atoms: C_11  and  C_29
    5  A    between atoms: C_18  and  N_30
                            x       y       z     vdW  Elec       q    Type
                         _______ _______ _______ _____ _____    ______ ____

>  <TORSDO>
F 5

$$$$
