=
 OpenBabel10262421243D

 32 38  0  0  1  0  0  0  0  0999 V2000
  185.9980  178.6550  137.7630 O   0  0  0  0  0  0  0  0  0  0  0  0
  187.2580  178.0370  142.2110 C   0  0  0  0  0  0  0  0  0  0  0  0
  183.6690  179.0020  145.4270 C   0  0  0  0  0  3  0  0  0  0  0  0
  184.4580  178.5920  146.4320 C   0  0  0  0  0  3  0  0  0  0  0  0
  189.5050  177.2980  143.3440 C   0  0  2  0  0  3  0  0  0  0  0  0
  190.5380  178.3370  142.8250 C   0  0  2  0  0  3  0  0  0  0  0  0
  186.7080  177.9470  139.7880 C   0  0  1  0  0  3  0  0  0  0  0  0
  184.9500  178.6650  141.2770 C   0  0  0  0  0  2  0  0  0  0  0  0
  190.8010  177.4380  145.6560 C   0  0  2  0  0  3  0  0  0  0  0  0
  185.0630  179.0640  138.7470 C   0  0  0  0  0  2  0  0  0  0  0  0
  183.8870  178.5020  144.0210 C   0  0  0  0  0  2  0  0  0  0  0  0
  185.8780  178.3490  142.4420 C   0  0  0  0  0  0  0  0  0  0  0  0
  185.3510  178.2580  143.7510 C   0  0  0  0  0  0  0  0  0  0  0  0
  187.5190  177.5630  144.5610 C   0  0  0  0  0  0  0  0  0  0  0  0
  191.9300  178.0130  144.8310 C   0  0  0  0  0  2  0  0  0  0  0  0
  185.7720  179.0430  140.0580 C   0  0  2  0  0  3  0  0  0  0  0  0
  191.3390  179.0440  143.9030 C   0  0  0  0  0  2  0  0  0  0  0  0
  187.1080  178.1750  138.4180 N   0  0  0  0  0  0  0  0  0  0  0  0
  185.5850  177.6240  146.1840 C   0  0  0  0  0  2  0  0  0  0  0  0
  186.1760  177.8370  144.8170 C   0  0  0  0  0  0  0  0  0  0  0  0
  188.4240  176.9920  145.4850 N   0  0  0  0  0  2  0  0  0  0  0  0
  187.8360  178.0320  140.8060 C   0  0  0  0  0  2  0  0  0  0  0  0
  189.9890  179.2790  141.9780 F   0  0  0  0  0  0  0  0  0  0  0  0
  191.3520  176.4390  146.6520 C   0  0  0  0  0  1  0  0  0  0  0  0
  188.0690  177.7320  143.3170 C   0  0  0  0  0  0  0  0  0  0  0  0
  189.7020  176.7800  144.8120 C   0  0  1  0  0  3  0  0  0  0  0  0
  187.4140  176.8740  137.8370 C   0  0  0  0  0  2  0  0  0  0  0  0
  188.6290  176.9750  136.9260 C   0  0  0  0  0  2  0  0  0  0  0  0
  189.8520  177.4730  137.6820 C   0  0  0  0  0  2  0  0  0  0  0  0
  190.4170  176.3720  138.5620 C   0  0  0  0  0  3  0  0  0  0  0  0
  191.3680  176.9850  139.5700 C   0  0  0  0  0  2  0  0  0  0  0  0
  191.9130  176.2890  138.3430 C   0  0  0  0  0  2  0  0  0  0  0  0
  1 18  1  0  0  0  0
  1 10  1  0  0  0  0
  2 12  2  0  0  0  0
  2 25  1  0  0  0  0
  3  4  2  0  0  0  0
  5 25  1  1  0  0  0
  5 26  1  0  0  0  0
  6 23  1  1  0  0  0
  6  5  1  0  0  0  0
  6 17  1  0  0  0  0
  7 16  1  0  0  0  0
  7 22  1  1  0  0  0
  8 12  1  0  0  0  0
  9 24  1  1  0  0  0
 11  3  1  0  0  0  0
 12 13  1  0  0  0  0
 13 11  1  0  0  0  0
 13 20  2  0  0  0  0
 14 20  1  0  0  0  0
 14 21  1  0  0  0  0
 15  9  1  0  0  0  0
 16 10  1  6  0  0  0
 16  8  1  0  0  0  0
 17 15  1  0  0  0  0
 18  7  1  0  0  0  0
 19  4  1  0  0  0  0
 20 19  1  0  0  0  0
 22  2  1  0  0  0  0
 25 14  2  0  0  0  0
 26 21  1  1  0  0  0
 26  9  1  0  0  0  0
 27 18  1  0  0  0  0
 28 29  1  0  0  0  0
 28 27  1  0  0  0  0
 29 30  1  0  0  0  0
 30 31  1  0  0  0  0
 32 30  1  0  0  0  0
 32 31  1  0  0  0  0
M  END
>  <MODEL>
1

>  <REMARK>
 VINA RESULT:      -8.9      0.000      0.000
  Name = 
  4 active torsions:
  status: ('A' for Active; 'I' for Inactive)
    1  A    between atoms: C_1  and  C_10
    2  A    between atoms: C_10  and  C_19
    3  A    between atoms: C_19  and  C_24
    4  A    between atoms: N_23  and  C_24
                            x       y       z     vdW  Elec       q    Type
                         _______ _______ _______ _____ _____    ______ ____

>  <TORSDO>
F 4

$$$$
=
 OpenBabel10262421243D

 32 38  0  0  1  0  0  0  0  0999 V2000
  182.2040  178.9380  141.0040 O   0  0  0  0  0  0  0  0  0  0  0  0
  186.1630  177.9140  143.2490 C   0  0  0  0  0  0  0  0  0  0  0  0
  186.1030  179.1370  148.0080 C   0  0  0  0  0  3  0  0  0  0  0  0
  187.3100  178.5750  148.1690 C   0  0  0  0  0  3  0  0  0  0  0  0
  188.4260  176.8350  142.4760 C   0  0  2  0  0  3  0  0  0  0  0  0
  188.9020  177.7640  141.3240 C   0  0  2  0  0  3  0  0  0  0  0  0
  184.0460  178.0320  141.9500 C   0  0  1  0  0  3  0  0  0  0  0  0
  183.9860  178.8790  144.2090 C   0  0  0  0  0  2  0  0  0  0  0  0
  190.9850  176.6800  143.1630 C   0  0  2  0  0  3  0  0  0  0  0  0
  182.3130  179.4050  142.3390 C   0  0  0  0  0  2  0  0  0  0  0  0
  185.1860  178.6950  146.8950 C   0  0  0  0  0  2  0  0  0  0  0  0
  185.4150  178.3840  144.3780 C   0  0  0  0  0  0  0  0  0  0  0  0
  185.9720  178.2850  145.6740 C   0  0  0  0  0  0  0  0  0  0  0  0
  187.9560  177.2770  144.7300 C   0  0  0  0  0  0  0  0  0  0  0  0
  191.2500  177.1540  141.7510 C   0  0  0  0  0  2  0  0  0  0  0  0
  183.7330  179.2200  142.7520 C   0  0  2  0  0  3  0  0  0  0  0  0
  190.3130  178.3020  141.4720 C   0  0  0  0  0  2  0  0  0  0  0  0
  183.3750  178.2860  140.6950 N   0  0  0  0  0  0  0  0  0  0  0  0
  187.7860  177.4890  147.2410 C   0  0  0  0  0  2  0  0  0  0  0  0
  187.2470  177.7030  145.8520 C   0  0  0  0  0  0  0  0  0  0  0  0
  189.1650  176.5460  144.7600 N   0  0  0  0  0  2  0  0  0  0  0  0
  185.5600  177.9170  141.8540 C   0  0  0  0  0  2  0  0  0  0  0  0
  188.0410  178.8140  141.0760 F   0  0  0  0  0  0  0  0  0  0  0  0
  191.9460  175.5630  143.5160 C   0  0  0  0  0  1  0  0  0  0  0  0
  187.4710  177.4470  143.4590 C   0  0  0  0  0  0  0  0  0  0  0  0
  189.5400  176.2140  143.3880 C   0  0  1  0  0  3  0  0  0  0  0  0
  183.0050  176.9930  140.1360 C   0  0  0  0  0  2  0  0  0  0  0  0
  183.3000  176.9580  138.6430 C   0  0  0  0  0  2  0  0  0  0  0  0
  184.4050  177.9370  138.2720 C   0  0  0  0  0  2  0  0  0  0  0  0
  185.5880  177.2000  137.6720 C   0  0  0  0  0  3  0  0  0  0  0  0
  186.8700  177.8210  138.1880 C   0  0  0  0  0  2  0  0  0  0  0  0
  186.3730  178.1580  136.8000 C   0  0  0  0  0  2  0  0  0  0  0  0
  1 10  1  0  0  0  0
  2 25  2  0  0  0  0
  2 12  1  0  0  0  0
  3  4  2  0  0  0  0
  5 26  1  0  0  0  0
  5 25  1  1  0  0  0
  6 23  1  1  0  0  0
  6 17  1  0  0  0  0
  6  5  1  0  0  0  0
  7 22  1  6  0  0  0
  7 16  1  0  0  0  0
  8 12  1  0  0  0  0
  9 26  1  0  0  0  0
  9 24  1  6  0  0  0
 11  3  1  0  0  0  0
 12 13  2  0  0  0  0
 13 20  1  0  0  0  0
 13 11  1  0  0  0  0
 14 21  1  0  0  0  0
 14 20  2  0  0  0  0
 15  9  1  0  0  0  0
 16 10  1  1  0  0  0
 16  8  1  0  0  0  0
 17 15  1  0  0  0  0
 18  1  1  0  0  0  0
 18  7  1  0  0  0  0
 19  4  1  0  0  0  0
 20 19  1  0  0  0  0
 22  2  1  0  0  0  0
 25 14  1  0  0  0  0
 26 21  1  1  0  0  0
 27 18  1  0  0  0  0
 28 27  1  0  0  0  0
 29 28  1  0  0  0  0
 30 31  1  0  0  0  0
 30 29  1  0  0  0  0
 32 30  1  0  0  0  0
 32 31  1  0  0  0  0
M  END
>  <MODEL>
2

>  <REMARK>
 VINA RESULT:      -8.5      2.166      3.442
  Name = 
  4 active torsions:
  status: ('A' for Active; 'I' for Inactive)
    1  A    between atoms: C_1  and  C_10
    2  A    between atoms: C_10  and  C_19
    3  A    between atoms: C_19  and  C_24
    4  A    between atoms: N_23  and  C_24
                            x       y       z     vdW  Elec       q    Type
                         _______ _______ _______ _____ _____    ______ ____

>  <TORSDO>
F 4

$$$$
=
 OpenBabel10262421243D

 32 38  0  0  1  0  0  0  0  0999 V2000
  184.0030  179.2700  138.2290 O   0  0  0  0  0  0  0  0  0  0  0  0
  186.7010  177.9870  141.8110 C   0  0  0  0  0  0  0  0  0  0  0  0
  184.7650  179.0220  146.2070 C   0  0  0  0  0  3  0  0  0  0  0  0
  185.7910  178.4020  146.8070 C   0  0  0  0  0  3  0  0  0  0  0  0
  189.0570  176.8410  141.9510 C   0  0  2  0  0  3  0  0  0  0  0  0
  189.9780  177.7930  141.1370 C   0  0  2  0  0  3  0  0  0  0  0  0
  185.2880  178.2480  139.7830 C   0  0  1  0  0  3  0  0  0  0  0  0
  184.3460  179.0070  141.8710 C   0  0  0  0  0  2  0  0  0  0  0  0
  191.1200  176.5470  143.5940 C   0  0  2  0  0  3  0  0  0  0  0  0
  183.5780  179.6790  139.5190 C   0  0  0  0  0  2  0  0  0  0  0  0
  184.3620  178.6650  144.7980 C   0  0  0  0  0  2  0  0  0  0  0  0
  185.5750  178.4440  142.5700 C   0  0  0  0  0  0  0  0  0  0  0  0
  185.5620  178.2700  143.9730 C   0  0  0  0  0  0  0  0  0  0  0  0
  187.7330  177.2140  143.8490 C   0  0  0  0  0  0  0  0  0  0  0  0
  191.9410  177.0640  142.4340 C   0  0  0  0  0  2  0  0  0  0  0  0
  184.7080  179.4160  140.4550 C   0  0  2  0  0  3  0  0  0  0  0  0
  191.2230  178.2630  141.8650 C   0  0  0  0  0  2  0  0  0  0  0  0
  185.1830  178.5800  138.3790 N   0  0  0  0  0  0  0  0  0  0  0  0
  186.5740  177.3340  146.0900 C   0  0  0  0  0  2  0  0  0  0  0  0
  186.6430  177.6260  144.6150 C   0  0  0  0  0  0  0  0  0  0  0  0
  188.8100  176.4300  144.3200 N   0  0  0  0  0  2  0  0  0  0  0  0
  186.7100  178.0710  140.2940 C   0  0  0  0  0  2  0  0  0  0  0  0
  189.3150  178.8890  140.6220 F   0  0  0  0  0  0  0  0  0  0  0  0
  191.8310  175.3770  144.2420 C   0  0  0  0  0  1  0  0  0  0  0  0
  187.8040  177.4540  142.5020 C   0  0  0  0  0  0  0  0  0  0  0  0
  189.6960  176.1370  143.1980 C   0  0  1  0  0  3  0  0  0  0  0  0
  185.0380  177.3270  137.6510 C   0  0  0  0  0  2  0  0  0  0  0  0
  186.0580  177.2490  136.5240 C   0  0  0  0  0  2  0  0  0  0  0  0
  187.4220  176.8080  137.0380 C   0  0  0  0  0  2  0  0  0  0  0  0
  188.5220  177.6380  136.4020 C   0  0  0  0  0  3  0  0  0  0  0  0
  189.7650  177.5540  137.2660 C   0  0  0  0  0  2  0  0  0  0  0  0
  188.8780  178.7780  137.3340 C   0  0  0  0  0  2  0  0  0  0  0  0
  1 18  1  0  0  0  0
  1 10  1  0  0  0  0
  2 25  2  0  0  0  0
  2 12  1  0  0  0  0
  3  4  2  0  0  0  0
  5 25  1  1  0  0  0
  5 26  1  0  0  0  0
  6 23  1  1  0  0  0
  6 17  1  0  0  0  0
  6  5  1  0  0  0  0
  7 22  1  1  0  0  0
  7 16  1  0  0  0  0
  8 12  1  0  0  0  0
  9 24  1  6  0  0  0
 11  3  1  0  0  0  0
 12 13  2  0  0  0  0
 13 20  1  0  0  0  0
 13 11  1  0  0  0  0
 14 21  1  0  0  0  0
 14 20  2  0  0  0  0
 15  9  1  0  0  0  0
 16 10  1  6  0  0  0
 16  8  1  0  0  0  0
 17 15  1  0  0  0  0
 18  7  1  0  0  0  0
 19  4  1  0  0  0  0
 20 19  1  0  0  0  0
 22  2  1  0  0  0  0
 25 14  1  0  0  0  0
 26  9  1  0  0  0  0
 26 21  1  1  0  0  0
 27 18  1  0  0  0  0
 28 29  1  0  0  0  0
 28 27  1  0  0  0  0
 30 29  1  0  0  0  0
 30 31  1  0  0  0  0
 30 32  1  0  0  0  0
 31 32  1  0  0  0  0
M  END
>  <MODEL>
3

>  <REMARK>
 VINA RESULT:      -8.2      1.461      1.908
  Name = 
  4 active torsions:
  status: ('A' for Active; 'I' for Inactive)
    1  A    between atoms: C_1  and  C_10
    2  A    between atoms: C_10  and  C_19
    3  A    between atoms: C_19  and  C_24
    4  A    between atoms: N_23  and  C_24
                            x       y       z     vdW  Elec       q    Type
                         _______ _______ _______ _____ _____    ______ ____

>  <TORSDO>
F 4

$$$$
=
 OpenBabel10262421243D

 32 38  0  0  1  0  0  0  0  0999 V2000
  181.9310  178.8850  141.4160 O   0  0  0  0  0  0  0  0  0  0  0  0
  186.0540  177.8980  143.3630 C   0  0  0  0  0  0  0  0  0  0  0  0
  186.3620  179.1990  148.0910 C   0  0  0  0  0  3  0  0  0  0  0  0
  187.5790  178.6400  148.1670 C   0  0  0  0  0  3  0  0  0  0  0  0
  188.2500  176.8060  142.4340 C   0  0  2  0  0  3  0  0  0  0  0  0
  188.6350  177.7160  141.2330 C   0  0  2  0  0  3  0  0  0  0  0  0
  183.8420  177.9950  142.2310 C   0  0  1  0  0  3  0  0  0  0  0  0
  183.9570  178.8790  144.4730 C   0  0  0  0  0  2  0  0  0  0  0  0
  190.8550  176.6620  142.9220 C   0  0  2  0  0  3  0  0  0  0  0  0
  182.1430  179.3740  142.7310 C   0  0  0  0  0  2  0  0  0  0  0  0
  185.3630  178.7390  147.0600 C   0  0  0  0  0  2  0  0  0  0  0  0
  185.3960  178.3860  144.5390 C   0  0  0  0  0  0  0  0  0  0  0  0
  186.0520  178.3090  145.7890 C   0  0  0  0  0  0  0  0  0  0  0  0
  187.9570  177.2850  144.7100 C   0  0  0  0  0  0  0  0  0  0  0  0
  191.0090  177.1120  141.4860 C   0  0  0  0  0  2  0  0  0  0  0  0
  183.5910  179.1960  143.0350 C   0  0  2  0  0  3  0  0  0  0  0  0
  190.0520  178.2560  141.2620 C   0  0  0  0  0  2  0  0  0  0  0  0
  183.0740  178.2280  141.0280 N   0  0  0  0  0  0  0  0  0  0  0  0
  187.9820  177.5390  147.2220 C   0  0  0  0  0  2  0  0  0  0  0  0
  187.3370  177.7300  145.8770 C   0  0  0  0  0  0  0  0  0  0  0  0
  189.1660  176.5540  144.6570 N   0  0  0  0  0  2  0  0  0  0  0  0
  185.3440  177.8780  142.0190 C   0  0  0  0  0  2  0  0  0  0  0  0
  187.7550  178.7620  141.0360 F   0  0  0  0  0  0  0  0  0  0  0  0
  191.8420  175.5510  143.2180 C   0  0  0  0  0  1  0  0  0  0  0  0
  187.3750  177.4340  143.4780 C   0  0  0  0  0  0  0  0  0  0  0  0
  189.4330  176.2000  143.2660 C   0  0  1  0  0  3  0  0  0  0  0  0
  182.6640  176.9250  140.5210 C   0  0  0  0  0  2  0  0  0  0  0  0
  182.9880  176.8090  139.0380 C   0  0  0  0  0  2  0  0  0  0  0  0
  183.1390  178.1800  138.3930 C   0  0  0  0  0  2  0  0  0  0  0  0
  182.1310  178.3520  137.2710 C   0  0  0  0  0  3  0  0  0  0  0  0
  181.3640  179.6410  137.4910 C   0  0  0  0  0  2  0  0  0  0  0  0
  180.7340  178.3140  137.8560 C   0  0  0  0  0  2  0  0  0  0  0  0
  1 10  1  0  0  0  0
  2 25  2  0  0  0  0
  2 12  1  0  0  0  0
  3  4  2  0  0  0  0
  5 26  1  0  0  0  0
  5 25  1  1  0  0  0
  6 23  1  1  0  0  0
  6 17  1  0  0  0  0
  6  5  1  0  0  0  0
  7 22  1  6  0  0  0
  7 16  1  0  0  0  0
  8 12  1  0  0  0  0
  9 24  1  6  0  0  0
  9 26  1  0  0  0  0
 11  3  1  0  0  0  0
 12 13  2  0  0  0  0
 13 20  1  0  0  0  0
 13 11  1  0  0  0  0
 14 20  2  0  0  0  0
 15  9  1  0  0  0  0
 16 10  1  1  0  0  0
 16  8  1  0  0  0  0
 17 15  1  0  0  0  0
 18  1  1  0  0  0  0
 18  7  1  0  0  0  0
 19  4  1  0  0  0  0
 20 19  1  0  0  0  0
 21 14  1  0  0  0  0
 22  2  1  0  0  0  0
 25 14  1  0  0  0  0
 26 21  1  1  0  0  0
 27 18  1  0  0  0  0
 28 27  1  0  0  0  0
 29 28  1  0  0  0  0
 30 31  1  0  0  0  0
 30 32  1  0  0  0  0
 30 29  1  0  0  0  0
 31 32  1  0  0  0  0
M  END
>  <MODEL>
4

>  <REMARK>
 VINA RESULT:      -8.0      2.496      4.592
  Name = 
  4 active torsions:
  status: ('A' for Active; 'I' for Inactive)
    1  A    between atoms: C_1  and  C_10
    2  A    between atoms: C_10  and  C_19
    3  A    between atoms: C_19  and  C_24
    4  A    between atoms: N_23  and  C_24
                            x       y       z     vdW  Elec       q    Type
                         _______ _______ _______ _____ _____    ______ ____

>  <TORSDO>
F 4

$$$$
=
 OpenBabel10262421243D

 32 38  0  0  1  0  0  0  0  0999 V2000
  190.6490  176.7930  136.4130 O   0  0  0  0  0  0  0  0  0  0  0  0
  189.0880  177.3550  140.7720 C   0  0  0  0  0  0  0  0  0  0  0  0
  184.6630  179.4770  141.0230 C   0  0  0  0  0  3  0  0  0  0  0  0
  184.6540  179.3050  142.3530 C   0  0  0  0  0  3  0  0  0  0  0  0
  190.1080  176.7840  143.1210 C   0  0  2  0  0  3  0  0  0  0  0  0
  191.4630  177.5470  143.1290 C   0  0  2  0  0  3  0  0  0  0  0  0
  189.9500  176.6300  138.5560 C   0  0  1  0  0  3  0  0  0  0  0  0
  187.8860  177.8790  138.5660 C   0  0  0  0  0  2  0  0  0  0  0  0
  189.9190  177.4660  145.6790 C   0  0  2  0  0  3  0  0  0  0  0  0
  189.4520  177.5380  136.5640 C   0  0  0  0  0  2  0  0  0  0  0  0
  185.4920  178.5850  140.1330 C   0  0  0  0  0  2  0  0  0  0  0  0
  187.9230  177.8310  140.0860 C   0  0  0  0  0  0  0  0  0  0  0  0
  186.7620  178.1560  140.8250 C   0  0  0  0  0  0  0  0  0  0  0  0
  187.9050  177.5430  142.8640 C   0  0  0  0  0  0  0  0  0  0  0  0
  191.4120  177.6900  145.5880 C   0  0  0  0  0  2  0  0  0  0  0  0
  189.3010  177.8300  138.0180 C   0  0  2  0  0  3  0  0  0  0  0  0
  191.6800  178.4610  144.3200 C   0  0  0  0  0  2  0  0  0  0  0  0
  191.0730  176.4280  137.6680 N   0  0  0  0  0  0  0  0  0  0  0  0
  185.4740  178.2180  142.9960 C   0  0  0  0  0  2  0  0  0  0  0  0
  186.7470  177.9870  142.2270 C   0  0  0  0  0  0  0  0  0  0  0  0
  187.9970  177.1840  144.2290 N   0  0  0  0  0  2  0  0  0  0  0  0
  190.3210  176.9070  140.0050 C   0  0  0  0  0  2  0  0  0  0  0  0
  191.7000  178.2530  141.9670 F   0  0  0  0  0  0  0  0  0  0  0  0
  189.5880  176.7460  146.9700 C   0  0  0  0  0  1  0  0  0  0  0  0
  189.0660  177.3090  142.1770 C   0  0  0  0  0  0  0  0  0  0  0  0
  189.3450  176.6880  144.4880 C   0  0  1  0  0  3  0  0  0  0  0  0
  191.3380  174.9960  137.6280 C   0  0  0  0  0  2  0  0  0  0  0  0
  192.6740  174.7240  136.9520 C   0  0  0  0  0  2  0  0  0  0  0  0
  193.8410  175.0740  137.8650 C   0  0  0  0  0  2  0  0  0  0  0  0
  194.7670  173.8820  138.0230 C   0  0  0  0  0  3  0  0  0  0  0  0
  195.7940  174.1930  139.0940 C   0  0  0  0  0  2  0  0  0  0  0  0
  196.1710  174.2940  137.6320 C   0  0  0  0  0  2  0  0  0  0  0  0
  1 10  1  0  0  0  0
  1 18  1  0  0  0  0
  2 25  1  0  0  0  0
  3  4  2  0  0  0  0
  4 19  1  0  0  0  0
  5 25  1  6  0  0  0
  5  6  1  0  0  0  0
  5 26  1  0  0  0  0
  6 23  1  6  0  0  0
  6 17  1  0  0  0  0
  7 22  1  1  0  0  0
  8 12  1  0  0  0  0
  9 24  1  1  0  0  0
 11 13  1  0  0  0  0
 11  3  1  0  0  0  0
 12  2  2  0  0  0  0
 12 13  1  0  0  0  0
 13 20  2  0  0  0  0
 14 21  1  0  0  0  0
 15  9  1  0  0  0  0
 16 10  1  6  0  0  0
 16  7  1  0  0  0  0
 16  8  1  0  0  0  0
 17 15  1  0  0  0  0
 18  7  1  0  0  0  0
 20 14  1  0  0  0  0
 20 19  1  0  0  0  0
 22  2  1  0  0  0  0
 25 14  2  0  0  0  0
 26 21  1  6  0  0  0
 26  9  1  0  0  0  0
 27 18  1  0  0  0  0
 28 27  1  0  0  0  0
 28 29  1  0  0  0  0
 29 30  1  0  0  0  0
 30 31  1  0  0  0  0
 32 30  1  0  0  0  0
 32 31  1  0  0  0  0
M  END
>  <MODEL>
5

>  <REMARK>
 VINA RESULT:      -7.9      2.115      3.472
  Name = 
  4 active torsions:
  status: ('A' for Active; 'I' for Inactive)
    1  A    between atoms: C_1  and  C_10
    2  A    between atoms: C_10  and  C_19
    3  A    between atoms: C_19  and  C_24
    4  A    between atoms: N_23  and  C_24
                            x       y       z     vdW  Elec       q    Type
                         _______ _______ _______ _____ _____    ______ ____

>  <TORSDO>
F 4

$$$$
=
 OpenBabel10262421243D

 32 38  0  0  1  0  0  0  0  0999 V2000
  190.4670  177.0910  136.4740 O   0  0  0  0  0  0  0  0  0  0  0  0
  189.1140  177.4300  140.9250 C   0  0  0  0  0  0  0  0  0  0  0  0
  184.6820  179.4760  141.4870 C   0  0  0  0  0  3  0  0  0  0  0  0
  184.7390  179.2420  142.8060 C   0  0  0  0  0  3  0  0  0  0  0  0
  190.2540  176.7660  143.1920 C   0  0  2  0  0  3  0  0  0  0  0  0
  191.5980  177.5460  143.1710 C   0  0  2  0  0  3  0  0  0  0  0  0
  189.8750  176.8200  138.6380 C   0  0  1  0  0  3  0  0  0  0  0  0
  187.8000  178.0390  138.8050 C   0  0  0  0  0  2  0  0  0  0  0  0
  190.1810  177.3250  145.7860 C   0  0  2  0  0  3  0  0  0  0  0  0
  189.2700  177.8120  136.7170 C   0  0  0  0  0  2  0  0  0  0  0  0
  185.4770  178.6370  140.5170 C   0  0  0  0  0  2  0  0  0  0  0  0
  187.9120  177.9210  140.3180 C   0  0  0  0  0  0  0  0  0  0  0  0
  186.7840  178.1950  141.1260 C   0  0  0  0  0  0  0  0  0  0  0  0
  188.0320  177.5040  143.0780 C   0  0  0  0  0  0  0  0  0  0  0  0
  191.6650  177.5740  145.6330 C   0  0  0  0  0  2  0  0  0  0  0  0
  189.1870  178.0350  138.1890 C   0  0  2  0  0  3  0  0  0  0  0  0
  191.8620  178.4070  144.3910 C   0  0  0  0  0  2  0  0  0  0  0  0
  190.9570  176.6750  137.6890 N   0  0  0  0  0  0  0  0  0  0  0  0
  185.6030  178.1380  143.3570 C   0  0  0  0  0  2  0  0  0  0  0  0
  186.8390  177.9610  142.5180 C   0  0  0  0  0  0  0  0  0  0  0  0
  188.1940  177.0850  144.4180 N   0  0  0  0  0  2  0  0  0  0  0  0
  190.3130  177.0350  140.0790 C   0  0  0  0  0  2  0  0  0  0  0  0
  191.7700  178.3080  142.0330 F   0  0  0  0  0  0  0  0  0  0  0  0
  189.9220  176.5420  147.0560 C   0  0  0  0  0  1  0  0  0  0  0  0
  189.1610  177.3180  142.3250 C   0  0  0  0  0  0  0  0  0  0  0  0
  189.5590  176.5950  144.5880 C   0  0  1  0  0  3  0  0  0  0  0  0
  191.2360  175.2510  137.5690 C   0  0  0  0  0  2  0  0  0  0  0  0
  190.3810  174.6350  136.4700 C   0  0  0  0  0  2  0  0  0  0  0  0
  189.1600  173.9300  137.0450 C   0  0  0  0  0  2  0  0  0  0  0  0
  187.9180  174.2870  136.2490 C   0  0  0  0  0  3  0  0  0  0  0  0
  186.8070  174.6630  137.2090 C   0  0  0  0  0  2  0  0  0  0  0  0
  186.8240  173.2900  136.5720 C   0  0  0  0  0  2  0  0  0  0  0  0
  1 10  1  0  0  0  0
  1 18  1  0  0  0  0
  2 25  1  0  0  0  0
  3  4  2  0  0  0  0
  4 19  1  0  0  0  0
  5 25  1  6  0  0  0
  5 26  1  0  0  0  0
  6 23  1  6  0  0  0
  6  5  1  0  0  0  0
  6 17  1  0  0  0  0
  7 22  1  1  0  0  0
  8 12  1  0  0  0  0
  9 24  1  1  0  0  0
 11 13  1  0  0  0  0
 11  3  1  0  0  0  0
 12  2  2  0  0  0  0
 12 13  1  0  0  0  0
 13 20  2  0  0  0  0
 14 21  1  0  0  0  0
 15  9  1  0  0  0  0
 16 10  1  6  0  0  0
 16  7  1  0  0  0  0
 16  8  1  0  0  0  0
 17 15  1  0  0  0  0
 18  7  1  0  0  0  0
 20 14  1  0  0  0  0
 20 19  1  0  0  0  0
 22  2  1  0  0  0  0
 25 14  2  0  0  0  0
 26 21  1  6  0  0  0
 26  9  1  0  0  0  0
 27 18  1  0  0  0  0
 28 29  1  0  0  0  0
 28 27  1  0  0  0  0
 30 32  1  0  0  0  0
 30 29  1  0  0  0  0
 30 31  1  0  0  0  0
 32 31  1  0  0  0  0
M  END
>  <MODEL>
6

>  <REMARK>
 VINA RESULT:      -7.7      1.906      3.266
  Name = 
  4 active torsions:
  status: ('A' for Active; 'I' for Inactive)
    1  A    between atoms: C_1  and  C_10
    2  A    between atoms: C_10  and  C_19
    3  A    between atoms: C_19  and  C_24
    4  A    between atoms: N_23  and  C_24
                            x       y       z     vdW  Elec       q    Type
                         _______ _______ _______ _____ _____    ______ ____

>  <TORSDO>
F 4

$$$$
=
 OpenBabel10262421243D

 32 38  0  0  1  0  0  0  0  0999 V2000
  190.1300  177.5150  139.5490 O   0  0  0  0  0  0  0  0  0  0  0  0
  185.9690  178.1970  141.5440 C   0  0  0  0  0  0  0  0  0  0  0  0
  186.0370  177.7730  146.4400 C   0  0  0  0  0  3  0  0  0  0  0  0
  184.7490  178.1410  146.4910 C   0  0  0  0  0  3  0  0  0  0  0  0
  183.5930  178.7420  140.5760 C   0  0  2  0  0  3  0  0  0  0  0  0
  183.3230  177.5750  139.5850 C   0  0  2  0  0  3  0  0  0  0  0  0
  188.1270  178.2340  140.3100 C   0  0  1  0  0  3  0  0  0  0  0  0
  188.2340  177.7790  142.6780 C   0  0  0  0  0  2  0  0  0  0  0  0
  181.0170  178.5690  141.1940 C   0  0  2  0  0  3  0  0  0  0  0  0
  190.0460  177.2540  140.9410 C   0  0  0  0  0  2  0  0  0  0  0  0
  186.9120  178.1810  145.2810 C   0  0  0  0  0  2  0  0  0  0  0  0
  186.7370  178.0460  142.7450 C   0  0  0  0  0  0  0  0  0  0  0  0
  186.1200  178.2530  143.9990 C   0  0  0  0  0  0  0  0  0  0  0  0
  184.0370  178.7480  142.8780 C   0  0  0  0  0  0  0  0  0  0  0  0
  180.8910  177.8390  139.8760 C   0  0  0  0  0  2  0  0  0  0  0  0
  188.5980  177.2590  141.2990 C   0  0  2  0  0  3  0  0  0  0  0  0
  182.0150  176.8360  139.8000 C   0  0  0  0  0  2  0  0  0  0  0  0
  188.8810  177.9020  139.1230 N   0  0  0  0  0  0  0  0  0  0  0  0
  184.1380  178.9690  145.3910 C   0  0  0  0  0  2  0  0  0  0  0  0
  184.7610  178.6320  144.0640 C   0  0  0  0  0  0  0  0  0  0  0  0
  182.7240  179.2600  142.7720 N   0  0  0  0  0  2  0  0  0  0  0  0
  186.6200  178.0750  140.1770 C   0  0  0  0  0  2  0  0  0  0  0  0
  184.3550  176.6600  139.5230 F   0  0  0  0  0  0  0  0  0  0  0  0
  179.8720  179.5480  141.3480 C   0  0  0  0  0  1  0  0  0  0  0  0
  184.5940  178.4640  141.6580 C   0  0  0  0  0  0  0  0  0  0  0  0
  182.3550  179.3020  141.3590 C   0  0  1  0  0  3  0  0  0  0  0  0
  189.0550  179.1340  138.3650 C   0  0  0  0  0  2  0  0  0  0  0  0
  188.7350  178.9010  136.8950 C   0  0  0  0  0  2  0  0  0  0  0  0
  187.2350  178.7770  136.6660 C   0  0  0  0  0  2  0  0  0  0  0  0
  186.9190  177.5110  135.8910 C   0  0  0  0  0  3  0  0  0  0  0  0
  185.5250  177.0430  136.2550 C   0  0  0  0  0  2  0  0  0  0  0  0
  186.7320  176.3690  136.8690 C   0  0  0  0  0  2  0  0  0  0  0  0
  1 10  1  0  0  0  0
  2 25  2  0  0  0  0
  2 12  1  0  0  0  0
  3  4  2  0  0  0  0
  5 26  1  0  0  0  0
  5 25  1  1  0  0  0
  6 23  1  1  0  0  0
  6 17  1  0  0  0  0
  6  5  1  0  0  0  0
  7 22  1  6  0  0  0
  7 16  1  0  0  0  0
  8 12  1  0  0  0  0
  9 24  1  6  0  0  0
  9 26  1  0  0  0  0
 11  3  1  0  0  0  0
 12 13  2  0  0  0  0
 13 20  1  0  0  0  0
 13 11  1  0  0  0  0
 14 20  2  0  0  0  0
 15  9  1  0  0  0  0
 16 10  1  1  0  0  0
 16  8  1  0  0  0  0
 17 15  1  0  0  0  0
 18  1  1  0  0  0  0
 18  7  1  0  0  0  0
 19  4  1  0  0  0  0
 20 19  1  0  0  0  0
 21 14  1  0  0  0  0
 22  2  1  0  0  0  0
 25 14  1  0  0  0  0
 26 21  1  1  0  0  0
 27 18  1  0  0  0  0
 28 27  1  0  0  0  0
 29 28  1  0  0  0  0
 30 31  1  0  0  0  0
 30 29  1  0  0  0  0
 30 32  1  0  0  0  0
 31 32  1  0  0  0  0
M  END
>  <MODEL>
7

>  <REMARK>
 VINA RESULT:      -7.7      2.753      5.806
  Name = 
  4 active torsions:
  status: ('A' for Active; 'I' for Inactive)
    1  A    between atoms: C_1  and  C_10
    2  A    between atoms: C_10  and  C_19
    3  A    between atoms: C_19  and  C_24
    4  A    between atoms: N_23  and  C_24
                            x       y       z     vdW  Elec       q    Type
                         _______ _______ _______ _____ _____    ______ ____

>  <TORSDO>
F 4

$$$$
=
 OpenBabel10262421243D

 32 38  0  0  1  0  0  0  0  0999 V2000
  190.5280  178.1570  143.8560 O   0  0  0  0  0  0  0  0  0  0  0  0
  189.8750  176.8290  139.4320 C   0  0  0  0  0  0  0  0  0  0  0  0
  194.0550  176.1810  136.9320 C   0  0  0  0  0  3  0  0  0  0  0  0
  193.3570  175.7400  135.8750 C   0  0  0  0  0  3  0  0  0  0  0  0
  187.7220  176.3780  138.0030 C   0  0  2  0  0  3  0  0  0  0  0  0
  186.9350  177.7150  138.0910 C   0  0  2  0  0  3  0  0  0  0  0  0
  189.9870  177.1800  141.8910 C   0  0  1  0  0  3  0  0  0  0  0  0
  192.0870  177.1150  140.7040 C   0  0  0  0  0  2  0  0  0  0  0  0
  186.8970  176.2690  135.4830 C   0  0  2  0  0  3  0  0  0  0  0  0
  191.6830  178.1040  143.0350 C   0  0  0  0  0  2  0  0  0  0  0  0
  193.4910  176.0830  138.3270 C   0  0  0  0  0  2  0  0  0  0  0  0
  191.3060  176.7570  139.4470 C   0  0  0  0  0  0  0  0  0  0  0  0
  191.9910  176.2480  138.3200 C   0  0  0  0  0  0  0  0  0  0  0  0
  189.8740  175.8950  137.2090 C   0  0  0  0  0  0  0  0  0  0  0  0
  185.8450  177.2600  135.9290 C   0  0  0  0  0  2  0  0  0  0  0  0
  191.2130  177.9410  141.6290 C   0  0  2  0  0  3  0  0  0  0  0  0
  186.5350  178.3160  136.7560 C   0  0  0  0  0  2  0  0  0  0  0  0
  189.4490  177.8040  143.0790 N   0  0  0  0  0  0  0  0  0  0  0  0
  191.9880  175.1380  136.0520 C   0  0  0  0  0  2  0  0  0  0  0  0
  191.2650  175.7900  137.1990 C   0  0  0  0  0  0  0  0  0  0  0  0
  189.0090  175.3470  136.2350 N   0  0  0  0  0  2  0  0  0  0  0  0
  189.1000  177.2810  140.6590 C   0  0  0  0  0  2  0  0  0  0  0  0
  187.5740  178.6780  138.8470 F   0  0  0  0  0  0  0  0  0  0  0  0
  186.2650  175.2180  134.5940 C   0  0  0  0  0  1  0  0  0  0  0  0
  189.1980  176.4680  138.2550 C   0  0  0  0  0  0  0  0  0  0  0  0
  187.6300  175.5930  136.6480 C   0  0  1  0  0  3  0  0  0  0  0  0
  188.7190  176.7780  143.8100 C   0  0  0  0  0  2  0  0  0  0  0  0
  188.0820  177.3700  145.0600 C   0  0  0  0  0  2  0  0  0  0  0  0
  186.5730  177.5000  144.9070 C   0  0  0  0  0  2  0  0  0  0  0  0
  186.0620  178.7010  145.6820 C   0  0  0  0  0  3  0  0  0  0  0  0
  184.9320  178.2580  146.5900 C   0  0  0  0  0  2  0  0  0  0  0  0
  184.6240  178.9640  145.2880 C   0  0  0  0  0  2  0  0  0  0  0  0
  2 12  1  0  0  0  0
  2 22  1  0  0  0  0
  3 11  1  0  0  0  0
  4 19  1  0  0  0  0
  4  3  2  0  0  0  0
  5  6  1  0  0  0  0
  5 25  1  6  0  0  0
  6 23  1  6  0  0  0
  7 22  1  6  0  0  0
  7 18  1  0  0  0  0
  9 24  1  1  0  0  0
  9 15  1  0  0  0  0
  9 26  1  0  0  0  0
 10  1  1  0  0  0  0
 12  8  1  0  0  0  0
 13 11  1  0  0  0  0
 13 12  2  0  0  0  0
 14 25  1  0  0  0  0
 15 17  1  0  0  0  0
 16  8  1  6  0  0  0
 16  7  1  0  0  0  0
 16 10  1  0  0  0  0
 17  6  1  0  0  0  0
 18 27  1  0  0  0  0
 18  1  1  0  0  0  0
 19 20  1  0  0  0  0
 20 14  2  0  0  0  0
 20 13  1  0  0  0  0
 21 14  1  0  0  0  0
 25  2  2  0  0  0  0
 26 21  1  6  0  0  0
 26  5  1  0  0  0  0
 27 28  1  0  0  0  0
 29 28  1  0  0  0  0
 29 30  1  0  0  0  0
 30 31  1  0  0  0  0
 32 30  1  0  0  0  0
 32 31  1  0  0  0  0
M  END
>  <MODEL>
8

>  <REMARK>
 VINA RESULT:      -7.5      2.449      8.672
  Name = 
  4 active torsions:
  status: ('A' for Active; 'I' for Inactive)
    1  A    between atoms: C_1  and  C_10
    2  A    between atoms: C_10  and  C_19
    3  A    between atoms: C_19  and  C_24
    4  A    between atoms: N_23  and  C_24
                            x       y       z     vdW  Elec       q    Type
                         _______ _______ _______ _____ _____    ______ ____

>  <TORSDO>
F 4

$$$$
=
 OpenBabel10262421243D

 32 38  0  0  1  0  0  0  0  0999 V2000
  183.3750  179.3390  144.3800 O   0  0  0  0  0  0  0  0  0  0  0  0
  187.4920  177.7720  142.8470 C   0  0  0  0  0  0  0  0  0  0  0  0
  190.8190  177.1610  146.4110 C   0  0  0  0  0  3  0  0  0  0  0  0
  191.6790  176.6430  145.5220 C   0  0  0  0  0  3  0  0  0  0  0  0
  188.3960  177.1710  140.4590 C   0  0  2  0  0  3  0  0  0  0  0  0
  188.1920  178.4800  139.6470 C   0  0  2  0  0  3  0  0  0  0  0  0
  185.1330  178.2470  143.4730 C   0  0  1  0  0  3  0  0  0  0  0  0
  186.7480  178.2030  145.2660 C   0  0  0  0  0  2  0  0  0  0  0  0
  190.6690  176.9080  139.1130 C   0  0  2  0  0  3  0  0  0  0  0  0
  184.4260  179.2890  145.3310 C   0  0  0  0  0  2  0  0  0  0  0  0
  189.3320  177.1100  146.1690 C   0  0  0  0  0  2  0  0  0  0  0  0
  187.7880  177.7550  144.2490 C   0  0  0  0  0  0  0  0  0  0  0  0
  189.0170  177.2180  144.6970 C   0  0  0  0  0  0  0  0  0  0  0  0
  189.6220  176.7310  142.4080 C   0  0  0  0  0  0  0  0  0  0  0  0
  190.0430  177.8790  138.1370 C   0  0  0  0  0  2  0  0  0  0  0  0
  185.6870  179.0400  144.5750 C   0  0  2  0  0  3  0  0  0  0  0  0
  189.4290  179.0000  138.9390 C   0  0  0  0  0  2  0  0  0  0  0  0
  183.8820  178.9070  143.1770 N   0  0  0  0  0  0  0  0  0  0  0  0
  191.1830  175.9990  144.2540 C   0  0  0  0  0  2  0  0  0  0  0  0
  189.9330  176.6790  143.7670 C   0  0  0  0  0  0  0  0  0  0  0  0
  190.3610  176.1040  141.3790 N   0  0  0  0  0  2  0  0  0  0  0  0
  186.1450  178.2540  142.3360 C   0  0  0  0  0  2  0  0  0  0  0  0
  187.6320  179.5020  140.3890 F   0  0  0  0  0  0  0  0  0  0  0  0
  191.3550  175.7920  138.3530 C   0  0  0  0  0  1  0  0  0  0  0  0
  188.4780  177.3290  141.9490 C   0  0  0  0  0  0  0  0  0  0  0  0
  189.6660  176.3180  140.1130 C   0  0  1  0  0  3  0  0  0  0  0  0
  182.9680  177.8910  142.6720 C   0  0  0  0  0  2  0  0  0  0  0  0
  182.1400  178.4490  141.5230 C   0  0  0  0  0  2  0  0  0  0  0  0
  182.4710  177.7530  140.2100 C   0  0  0  0  0  2  0  0  0  0  0  0
  182.8370  178.7720  139.1460 C   0  0  0  0  0  3  0  0  0  0  0  0
  184.0840  178.3040  138.4230 C   0  0  0  0  0  2  0  0  0  0  0  0
  184.1840  179.3750  139.4870 C   0  0  0  0  0  2  0  0  0  0  0  0
  1 10  1  0  0  0  0
  2 12  1  0  0  0  0
  4  3  2  0  0  0  0
  5 25  1  1  0  0  0
  6 23  1  1  0  0  0
  6  5  1  0  0  0  0
  7 22  1  6  0  0  0
  7 16  1  0  0  0  0
  9 24  1  6  0  0  0
  9 26  1  0  0  0  0
 11  3  1  0  0  0  0
 12 13  2  0  0  0  0
 12  8  1  0  0  0  0
 13 11  1  0  0  0  0
 14 20  2  0  0  0  0
 15 17  1  0  0  0  0
 15  9  1  0  0  0  0
 16  8  1  1  0  0  0
 16 10  1  0  0  0  0
 17  6  1  0  0  0  0
 18  7  1  0  0  0  0
 18  1  1  0  0  0  0
 19  4  1  0  0  0  0
 20 19  1  0  0  0  0
 20 13  1  0  0  0  0
 21 14  1  0  0  0  0
 22  2  1  0  0  0  0
 25 14  1  0  0  0  0
 25  2  2  0  0  0  0
 26  5  1  0  0  0  0
 26 21  1  1  0  0  0
 27 18  1  0  0  0  0
 28 27  1  0  0  0  0
 29 28  1  0  0  0  0
 30 32  1  0  0  0  0
 30 29  1  0  0  0  0
 31 30  1  0  0  0  0
 31 32  1  0  0  0  0
M  END
>  <MODEL>
9

>  <REMARK>
 VINA RESULT:      -7.3      2.270      5.740
  Name = 
  4 active torsions:
  status: ('A' for Active; 'I' for Inactive)
    1  A    between atoms: C_1  and  C_10
    2  A    between atoms: C_10  and  C_19
    3  A    between atoms: C_19  and  C_24
    4  A    between atoms: N_23  and  C_24
                            x       y       z     vdW  Elec       q    Type
                         _______ _______ _______ _____ _____    ______ ____

>  <TORSDO>
F 4

$$$$
