=
 OpenBabel10262420463D

 28 31  0  0  1  0  0  0  0  0999 V2000
  188.7590  176.8890  145.0950 C   0  0  1  0  0  3  0  0  0  0  0  0
  187.6660  178.4620  148.9750 C   0  0  0  0  0  1  0  0  0  0  0  0
  185.1600  178.2420  144.4320 C   0  0  1  0  0  3  0  0  0  0  0  0
  186.8980  177.7850  146.5970 C   0  0  2  0  0  3  0  0  0  0  0  0
  186.5210  177.5940  144.1130 C   0  0  0  0  0  2  0  0  0  0  0  0
  189.2500  177.8840  147.2630 O   0  0  0  0  0  0  0  0  0  0  0  0
  185.8990  178.9460  146.7640 C   0  0  0  0  0  2  0  0  0  0  0  0
  187.9470  177.6340  147.7300 C   0  0  1  0  0  3  0  0  0  0  0  0
  185.2600  179.3950  145.4390 C   0  0  0  0  0  2  0  0  0  0  0  0
  189.5660  176.8150  146.4040 C   0  0  0  0  0  2  0  0  0  0  0  0
  187.5580  177.8380  145.2120 C   0  0  2  0  0  3  0  0  0  0  0  0
  185.3300  179.1980  142.1510 C   0  0  0  0  0  2  0  0  0  0  0  0
  182.3330  178.5290  141.7790 C   0  0  0  0  0  2  0  0  0  0  0  0
  184.0230  179.0830  139.9920 C   0  0  1  0  0  3  0  0  0  0  0  0
  184.4780  178.6650  143.2100 N   0  0  0  0  0  0  0  0  0  0  0  0
  182.3280  178.5920  144.1440 O   0  0  0  0  0  0  0  0  0  0  0  0
  182.8200  179.5810  140.7960 C   0  0  0  0  0  2  0  0  0  0  0  0
  183.0350  178.6270  143.1020 C   0  0  0  0  0  0  0  0  0  0  0  0
  184.5590  180.1420  139.2600 O   0  0  0  0  0  1  0  0  0  0  0  0
  185.1170  178.4400  140.8480 C   0  0  0  0  0  2  0  0  0  0  0  0
  189.6360  177.2440  143.9260 C   0  0  0  0  0  0  0  0  0  0  0  0
  190.4490  178.5100  144.0280 C   0  0  0  0  0  2  0  0  0  0  0  0
  190.6310  176.8440  141.7380 C   0  0  0  0  0  0  0  0  0  0  0  0
  191.8060  178.3500  143.3410 C   0  0  0  0  0  2  0  0  0  0  0  0
  188.9010  175.3910  142.6710 F   0  0  0  0  0  0  0  0  0  0  0  0
  189.6820  176.4940  142.8080 C   0  0  0  0  0  0  0  0  0  0  0  0
  190.5780  176.2700  140.6190 O   0  0  0  0  0  0  0  0  0  0  0  0
  191.6170  177.8500  141.9830 N   0  0  0  0  0  2  0  0  0  0  0  0
  1 21  1  6  0  0  0
  1 11  1  0  0  0  0
  1 10  1  0  0  0  0
  3 15  1  6  0  0  0
  3  9  1  0  0  0  0
  4  7  1  1  0  0  0
  4  8  1  0  0  0  0
  5  3  1  0  0  0  0
  6  8  1  0  0  0  0
  8  2  1  1  0  0  0
  9  7  1  0  0  0  0
 10  6  1  0  0  0  0
 11  5  1  6  0  0  0
 11  4  1  0  0  0  0
 12 15  1  0  0  0  0
 13 18  1  0  0  0  0
 14 19  1  1  0  0  0
 14 17  1  0  0  0  0
 14 20  1  0  0  0  0
 17 13  1  0  0  0  0
 18 15  1  0  0  0  0
 18 16  2  0  0  0  0
 20 12  1  0  0  0  0
 21 22  1  0  0  0  0
 23 28  1  0  0  0  0
 23 26  1  0  0  0  0
 24 22  1  0  0  0  0
 25 26  1  0  0  0  0
 26 21  2  0  0  0  0
 27 23  2  0  0  0  0
 28 24  1  0  0  0  0
M  END
>  <MODEL>
1

>  <REMARK>
 VINA RESULT:     -10.1      0.000      0.000
  Name = 
  2 active torsions:
  status: ('A' for Active; 'I' for Inactive)
    1  A    between atoms: C_1  and  C_2
    2  A    between atoms: C_10  and  N_13
                            x       y       z     vdW  Elec       q    Type
                         _______ _______ _______ _____ _____    ______ ____

>  <TORSDO>
F 2

$$$$
=
 OpenBabel10262420463D

 28 31  0  0  1  0  0  0  0  0999 V2000
  186.1870  177.4700  145.6430 C   0  0  1  0  0  3  0  0  0  0  0  0
  182.6920  179.6640  144.3420 C   0  0  0  0  0  1  0  0  0  0  0  0
  186.8630  177.8720  141.8220 C   0  0  1  0  0  3  0  0  0  0  0  0
  184.7890  178.3020  143.6740 C   0  0  2  0  0  3  0  0  0  0  0  0
  187.1310  177.4550  143.2810 C   0  0  0  0  0  2  0  0  0  0  0  0
  184.3440  179.0290  145.9670 O   0  0  0  0  0  0  0  0  0  0  0  0
  184.8150  179.2440  142.4540 C   0  0  0  0  0  2  0  0  0  0  0  0
  183.7350  178.6390  144.7610 C   0  0  1  0  0  3  0  0  0  0  0  0
  186.1540  179.2270  141.6990 C   0  0  0  0  0  2  0  0  0  0  0  0
  184.9600  177.8740  146.4820 C   0  0  0  0  0  2  0  0  0  0  0  0
  186.1970  178.1570  144.2710 C   0  0  2  0  0  3  0  0  0  0  0  0
  189.3420  177.8430  141.7910 C   0  0  0  0  0  2  0  0  0  0  0  0
  189.1770  177.3630  138.7390 C   0  0  0  0  0  2  0  0  0  0  0  0
  191.1650  177.0180  140.2480 C   0  0  1  0  0  3  0  0  0  0  0  0
  188.0940  177.8460  141.0330 N   0  0  0  0  0  0  0  0  0  0  0  0
  187.0390  178.3440  138.9980 O   0  0  0  0  0  0  0  0  0  0  0  0
  190.5320  177.8990  139.1700 C   0  0  0  0  0  2  0  0  0  0  0  0
  188.0620  177.9040  139.5870 C   0  0  0  0  0  0  0  0  0  0  0  0
  192.2980  177.6520  140.7570 O   0  0  0  0  0  1  0  0  0  0  0  0
  190.2150  176.6610  141.3940 C   0  0  0  0  0  2  0  0  0  0  0  0
  187.4690  177.7080  146.3920 C   0  0  0  0  0  0  0  0  0  0  0  0
  187.4120  178.6130  147.5970 C   0  0  0  0  0  2  0  0  0  0  0  0
  189.8420  177.3660  146.8290 C   0  0  0  0  0  0  0  0  0  0  0  0
  188.3720  178.1390  148.6890 C   0  0  0  0  0  2  0  0  0  0  0  0
  188.7240  176.4140  144.8750 F   0  0  0  0  0  0  0  0  0  0  0  0
  188.6420  177.1720  145.9990 C   0  0  0  0  0  0  0  0  0  0  0  0
  190.9780  177.0250  146.4050 O   0  0  0  0  0  0  0  0  0  0  0  0
  189.7050  177.9500  148.1270 N   0  0  0  0  0  2  0  0  0  0  0  0
  1 21  1  1  0  0  0
  1 10  1  0  0  0  0
  3 15  1  6  0  0  0
  3  5  1  0  0  0  0
  4  7  1  6  0  0  0
  4 11  1  0  0  0  0
  4  8  1  0  0  0  0
  6 10  1  0  0  0  0
  8  2  1  6  0  0  0
  8  6  1  0  0  0  0
  9  3  1  0  0  0  0
  9  7  1  0  0  0  0
 11  5  1  6  0  0  0
 11  1  1  0  0  0  0
 13 17  1  0  0  0  0
 13 18  1  0  0  0  0
 14 19  1  1  0  0  0
 14 20  1  0  0  0  0
 15 12  1  0  0  0  0
 16 18  2  0  0  0  0
 17 14  1  0  0  0  0
 18 15  1  0  0  0  0
 20 12  1  0  0  0  0
 21 22  1  0  0  0  0
 22 24  1  0  0  0  0
 23 28  1  0  0  0  0
 25 26  1  0  0  0  0
 26 21  2  0  0  0  0
 26 23  1  0  0  0  0
 27 23  2  0  0  0  0
 28 24  1  0  0  0  0
M  END
>  <MODEL>
2

>  <REMARK>
 VINA RESULT:      -9.0      2.255      5.298
  Name = 
  2 active torsions:
  status: ('A' for Active; 'I' for Inactive)
    1  A    between atoms: C_1  and  C_2
    2  A    between atoms: C_10  and  N_13
                            x       y       z     vdW  Elec       q    Type
                         _______ _______ _______ _____ _____    ______ ____

>  <TORSDO>
F 2

$$$$
=
 OpenBabel10262420463D

 28 31  0  0  1  0  0  0  0  0999 V2000
  188.4450  176.7400  145.1760 C   0  0  1  0  0  3  0  0  0  0  0  0
  187.4170  178.7270  148.8800 C   0  0  0  0  0  1  0  0  0  0  0  0
  185.0020  178.3520  144.2980 C   0  0  1  0  0  3  0  0  0  0  0  0
  186.6420  177.9240  146.5440 C   0  0  2  0  0  3  0  0  0  0  0  0
  186.3040  177.5590  144.0730 C   0  0  0  0  0  2  0  0  0  0  0  0
  188.9780  177.8660  147.2690 O   0  0  0  0  0  0  0  0  0  0  0  0
  185.7520  179.1810  146.5850 C   0  0  0  0  0  2  0  0  0  0  0  0
  187.6470  177.7740  147.7160 C   0  0  1  0  0  3  0  0  0  0  0  0
  185.1860  179.5720  145.2100 C   0  0  0  0  0  2  0  0  0  0  0  0
  189.2130  176.7040  146.5110 C   0  0  0  0  0  2  0  0  0  0  0  0
  187.3350  177.8000  145.1790 C   0  0  2  0  0  3  0  0  0  0  0  0
  185.2950  179.2590  142.0090 C   0  0  0  0  0  2  0  0  0  0  0  0
  182.3420  178.5120  141.4670 C   0  0  0  0  0  2  0  0  0  0  0  0
  184.1280  179.0630  139.7770 C   0  0  1  0  0  3  0  0  0  0  0  0
  184.3890  178.7310  143.0260 N   0  0  0  0  0  0  0  0  0  0  0  0
  182.1870  178.6300  143.8250 O   0  0  0  0  0  0  0  0  0  0  0  0
  182.8670  179.5520  140.4910 C   0  0  0  0  0  2  0  0  0  0  0  0
  182.9570  178.6580  142.8290 C   0  0  0  0  0  0  0  0  0  0  0  0
  184.6870  180.1160  139.0530 O   0  0  0  0  0  1  0  0  0  0  0  0
  185.1800  178.4660  140.7150 C   0  0  0  0  0  2  0  0  0  0  0  0
  189.3760  176.9150  144.0090 C   0  0  0  0  0  0  0  0  0  0  0  0
  189.2540  175.9350  142.8700 C   0  0  0  0  0  2  0  0  0  0  0  0
  191.1330  178.0580  142.7660 C   0  0  0  0  0  0  0  0  0  0  0  0
  189.5210  176.6150  141.5260 C   0  0  0  0  0  2  0  0  0  0  0  0
  190.4870  178.7270  145.0260 F   0  0  0  0  0  0  0  0  0  0  0  0
  190.3150  177.8810  143.9770 C   0  0  0  0  0  0  0  0  0  0  0  0
  192.1250  178.8330  142.7680 O   0  0  0  0  0  0  0  0  0  0  0  0
  190.7880  177.3360  141.5810 N   0  0  0  0  0  2  0  0  0  0  0  0
  1 21  1  6  0  0  0
  1 11  1  0  0  0  0
  1 10  1  0  0  0  0
  3 15  1  6  0  0  0
  3  9  1  0  0  0  0
  4  7  1  6  0  0  0
  4  8  1  0  0  0  0
  5  3  1  0  0  0  0
  6  8  1  0  0  0  0
  8  2  1  1  0  0  0
  9  7  1  0  0  0  0
 10  6  1  0  0  0  0
 11  5  1  6  0  0  0
 11  4  1  0  0  0  0
 12 15  1  0  0  0  0
 13 18  1  0  0  0  0
 14 19  1  1  0  0  0
 14 17  1  0  0  0  0
 14 20  1  0  0  0  0
 17 13  1  0  0  0  0
 18 15  1  0  0  0  0
 18 16  2  0  0  0  0
 20 12  1  0  0  0  0
 22 21  1  0  0  0  0
 23 27  2  0  0  0  0
 23 26  1  0  0  0  0
 24 28  1  0  0  0  0
 24 22  1  0  0  0  0
 26 21  2  0  0  0  0
 26 25  1  0  0  0  0
 28 23  1  0  0  0  0
M  END
>  <MODEL>
3

>  <REMARK>
 VINA RESULT:      -8.2      1.178      1.501
  Name = 
  2 active torsions:
  status: ('A' for Active; 'I' for Inactive)
    1  A    between atoms: C_1  and  C_2
    2  A    between atoms: C_10  and  N_13
                            x       y       z     vdW  Elec       q    Type
                         _______ _______ _______ _____ _____    ______ ____

>  <TORSDO>
F 2

$$$$
=
 OpenBabel10262420463D

 28 31  0  0  1  0  0  0  0  0999 V2000
  190.3710  176.3020  143.9280 C   0  0  1  0  0  3  0  0  0  0  0  0
  191.4960  177.1270  148.0230 C   0  0  0  0  0  1  0  0  0  0  0  0
  187.0180  177.6060  145.4380 C   0  0  1  0  0  3  0  0  0  0  0  0
  189.5870  176.8460  146.2970 C   0  0  2  0  0  3  0  0  0  0  0  0
  187.9880  177.0780  144.3630 C   0  0  0  0  0  2  0  0  0  0  0  0
  191.9520  176.9220  145.6730 O   0  0  0  0  0  0  0  0  0  0  0  0
  188.8800  177.9200  147.1450 C   0  0  0  0  0  2  0  0  0  0  0  0
  191.0570  176.5420  146.6900 C   0  0  1  0  0  3  0  0  0  0  0  0
  187.6810  178.5680  146.4320 C   0  0  0  0  0  2  0  0  0  0  0  0
  191.7270  176.0330  144.6060 C   0  0  0  0  0  2  0  0  0  0  0  0
  189.4520  177.1680  144.8010 C   0  0  2  0  0  3  0  0  0  0  0  0
  185.9110  178.4670  143.3940 C   0  0  0  0  0  2  0  0  0  0  0  0
  183.3090  178.7060  145.0510 C   0  0  0  0  0  2  0  0  0  0  0  0
  183.5480  178.7380  142.5420 C   0  0  1  0  0  3  0  0  0  0  0  0
  185.8340  178.2080  144.8290 N   0  0  0  0  0  0  0  0  0  0  0  0
  184.8220  178.7710  146.8690 O   0  0  0  0  0  0  0  0  0  0  0  0
  183.2830  179.5670  143.7990 C   0  0  0  0  0  2  0  0  0  0  0  0
  184.6900  178.5960  145.6280 C   0  0  0  0  0  0  0  0  0  0  0  0
  183.7180  179.5910  141.4530 O   0  0  0  0  0  1  0  0  0  0  0  0
  184.7550  177.8040  142.6590 C   0  0  0  0  0  2  0  0  0  0  0  0
  190.5490  176.8910  142.5560 C   0  0  0  0  0  0  0  0  0  0  0  0
  191.8680  177.5540  142.2500 C   0  0  0  0  0  2  0  0  0  0  0  0
  189.8370  177.3800  140.2770 C   0  0  0  0  0  0  0  0  0  0  0  0
  192.2750  177.3250  140.7930 C   0  0  0  0  0  2  0  0  0  0  0  0
  188.3480  176.3430  141.9150 F   0  0  0  0  0  0  0  0  0  0  0  0
  189.5670  176.8710  141.6320 C   0  0  0  0  0  0  0  0  0  0  0  0
  188.8990  177.5310  139.4500 O   0  0  0  0  0  0  0  0  0  0  0  0
  191.1790  177.7050  139.9090 N   0  0  0  0  0  2  0  0  0  0  0  0
  1 21  1  6  0  0  0
  1 10  1  0  0  0  0
  1 11  1  0  0  0  0
  3  5  1  6  0  0  0
  3  9  1  0  0  0  0
  4  8  1  0  0  0  0
  4  7  1  1  0  0  0
  6  8  1  0  0  0  0
  8  2  1  1  0  0  0
  9  7  1  0  0  0  0
 10  6  1  0  0  0  0
 11  5  1  6  0  0  0
 11  4  1  0  0  0  0
 12 15  1  0  0  0  0
 13 18  1  0  0  0  0
 14 19  1  6  0  0  0
 14 20  1  0  0  0  0
 14 17  1  0  0  0  0
 15  3  1  0  0  0  0
 15 18  1  0  0  0  0
 17 13  1  0  0  0  0
 18 16  2  0  0  0  0
 20 12  1  0  0  0  0
 22 21  1  0  0  0  0
 23 26  1  0  0  0  0
 24 22  1  0  0  0  0
 26 25  1  0  0  0  0
 26 21  2  0  0  0  0
 27 23  2  0  0  0  0
 28 23  1  0  0  0  0
 28 24  1  0  0  0  0
M  END
>  <MODEL>
4

>  <REMARK>
 VINA RESULT:      -8.1      1.792      2.611
  Name = 
  2 active torsions:
  status: ('A' for Active; 'I' for Inactive)
    1  A    between atoms: C_1  and  C_2
    2  A    between atoms: C_10  and  N_13
                            x       y       z     vdW  Elec       q    Type
                         _______ _______ _______ _____ _____    ______ ____

>  <TORSDO>
F 2

$$$$
=
 OpenBabel10262420463D

 28 31  0  0  1  0  0  0  0  0999 V2000
  188.1510  177.1300  144.7670 C   0  0  1  0  0  3  0  0  0  0  0  0
  186.0780  179.2280  147.9330 C   0  0  0  0  0  1  0  0  0  0  0  0
  184.7740  178.0550  143.0460 C   0  0  1  0  0  3  0  0  0  0  0  0
  185.9440  178.1060  145.6040 C   0  0  2  0  0  3  0  0  0  0  0  0
  186.1970  177.4770  143.1770 C   0  0  0  0  0  2  0  0  0  0  0  0
  188.0550  178.5070  146.7740 O   0  0  0  0  0  0  0  0  0  0  0  0
  184.8900  179.1930  145.3190 C   0  0  0  0  0  2  0  0  0  0  0  0
  186.6880  178.2310  146.9590 C   0  0  1  0  0  3  0  0  0  0  0  0
  184.5780  179.3620  143.8240 C   0  0  0  0  0  2  0  0  0  0  0  0
  188.6150  177.3400  146.2210 C   0  0  0  0  0  2  0  0  0  0  0  0
  186.9220  177.9840  144.4260 C   0  0  2  0  0  3  0  0  0  0  0  0
  183.1870  177.5110  141.2200 C   0  0  0  0  0  2  0  0  0  0  0  0
  184.6740  179.5880  139.4740 C   0  0  0  0  0  2  0  0  0  0  0  0
  182.3980  178.5830  139.0720 C   0  0  1  0  0  3  0  0  0  0  0  0
  184.3970  178.2120  141.6420 N   0  0  0  0  0  0  0  0  0  0  0  0
  186.4410  179.1590  140.9890 O   0  0  0  0  0  0  0  0  0  0  0  0
  183.8670  178.6040  138.6450 C   0  0  0  0  0  2  0  0  0  0  0  0
  185.2270  178.9550  140.7180 C   0  0  0  0  0  0  0  0  0  0  0  0
  181.7460  177.5290  138.4330 O   0  0  0  0  0  1  0  0  0  0  0  0
  182.1940  178.4750  140.5860 C   0  0  0  0  0  2  0  0  0  0  0  0
  189.2730  177.3590  143.7930 C   0  0  0  0  0  0  0  0  0  0  0  0
  190.1620  178.5540  144.0250 C   0  0  0  0  0  2  0  0  0  0  0  0
  190.6450  176.7810  141.8640 C   0  0  0  0  0  0  0  0  0  0  0  0
  191.6090  178.2500  143.6320 C   0  0  0  0  0  2  0  0  0  0  0  0
  188.6380  175.5210  142.4620 F   0  0  0  0  0  0  0  0  0  0  0  0
  189.4730  176.5590  142.7260 C   0  0  0  0  0  0  0  0  0  0  0  0
  190.7650  176.1640  140.7720 O   0  0  0  0  0  0  0  0  0  0  0  0
  191.6500  177.7090  142.2780 N   0  0  0  0  0  2  0  0  0  0  0  0
  1 21  1  6  0  0  0
  1 10  1  0  0  0  0
  3 15  1  6  0  0  0
  3  5  1  0  0  0  0
  3  9  1  0  0  0  0
  4  7  1  6  0  0  0
  4  8  1  0  0  0  0
  6  8  1  0  0  0  0
  8  2  1  1  0  0  0
  9  7  1  0  0  0  0
 10  6  1  0  0  0  0
 11  5  1  6  0  0  0
 11  1  1  0  0  0  0
 11  4  1  0  0  0  0
 12 15  1  0  0  0  0
 13 18  1  0  0  0  0
 14 19  1  6  0  0  0
 14 20  1  0  0  0  0
 17 14  1  0  0  0  0
 17 13  1  0  0  0  0
 18 16  2  0  0  0  0
 18 15  1  0  0  0  0
 20 12  1  0  0  0  0
 21 22  1  0  0  0  0
 23 28  1  0  0  0  0
 23 26  1  0  0  0  0
 24 22  1  0  0  0  0
 25 26  1  0  0  0  0
 26 21  2  0  0  0  0
 27 23  2  0  0  0  0
 28 24  1  0  0  0  0
M  END
>  <MODEL>
5

>  <REMARK>
 VINA RESULT:      -8.1      1.505      2.060
  Name = 
  2 active torsions:
  status: ('A' for Active; 'I' for Inactive)
    1  A    between atoms: C_1  and  C_2
    2  A    between atoms: C_10  and  N_13
                            x       y       z     vdW  Elec       q    Type
                         _______ _______ _______ _____ _____    ______ ____

>  <TORSDO>
F 2

$$$$
=
 OpenBabel10262420463D

 28 31  0  0  1  0  0  0  0  0999 V2000
  182.9260  178.7810  140.6260 C   0  0  1  0  0  3  0  0  0  0  0  0
  180.2010  179.2610  143.9530 C   0  0  0  0  0  1  0  0  0  0  0  0
  185.3510  178.6580  143.6800 C   0  0  1  0  0  3  0  0  0  0  0  0
  182.6540  179.2340  143.1250 C   0  0  2  0  0  3  0  0  0  0  0  0
  184.9140  178.6100  142.2020 C   0  0  0  0  0  2  0  0  0  0  0  0
  180.7640  178.5570  141.7260 O   0  0  0  0  0  0  0  0  0  0  0  0
  182.9490  178.6550  144.5220 C   0  0  0  0  0  2  0  0  0  0  0  0
  181.1520  179.4100  142.7750 C   0  0  1  0  0  3  0  0  0  0  0  0
  184.3390  178.0070  144.6310 C   0  0  0  0  0  2  0  0  0  0  0  0
  181.4090  179.0430  140.5730 C   0  0  0  0  0  2  0  0  0  0  0  0
  183.4020  178.4390  142.0450 C   0  0  2  0  0  3  0  0  0  0  0  0
  187.2710  177.4550  142.6740 C   0  0  0  0  0  2  0  0  0  0  0  0
  188.8310  178.0100  145.2870 C   0  0  0  0  0  2  0  0  0  0  0  0
  189.7640  177.2970  143.0570 C   0  0  1  0  0  3  0  0  0  0  0  0
  186.6850  178.0850  143.8530 N   0  0  0  0  0  0  0  0  0  0  0  0
  186.6560  178.2140  146.1950 O   0  0  0  0  0  0  0  0  0  0  0  0
  189.4290  176.8660  144.4860 C   0  0  0  0  0  2  0  0  0  0  0  0
  187.3390  178.0770  145.1450 C   0  0  0  0  0  0  0  0  0  0  0  0
  190.1120  176.1750  142.3060 O   0  0  0  0  0  1  0  0  0  0  0  0
  188.6340  178.0560  142.3570 C   0  0  0  0  0  2  0  0  0  0  0  0
  183.3390  177.7310  139.6330 C   0  0  0  0  0  0  0  0  0  0  0  0
  182.7210  176.3620  139.7720 C   0  0  0  0  0  2  0  0  0  0  0  0
  184.5410  176.9290  137.6710 C   0  0  0  0  0  0  0  0  0  0  0  0
  182.4860  175.7210  138.4040 C   0  0  0  0  0  2  0  0  0  0  0  0
  184.8700  179.1750  138.5750 F   0  0  0  0  0  0  0  0  0  0  0  0
  184.2500  177.9710  138.6700 C   0  0  0  0  0  0  0  0  0  0  0  0
  185.5030  177.0590  136.8690 O   0  0  0  0  0  0  0  0  0  0  0  0
  183.7180  175.7610  137.6220 N   0  0  0  0  0  2  0  0  0  0  0  0
  1 21  1  6  0  0  0
  1 11  1  0  0  0  0
  3  5  1  6  0  0  0
  3 15  1  0  0  0  0
  3  9  1  0  0  0  0
  4  7  1  1  0  0  0
  6  8  1  0  0  0  0
  7  9  1  0  0  0  0
  8  4  1  0  0  0  0
  8  2  1  1  0  0  0
 10  1  1  0  0  0  0
 10  6  1  0  0  0  0
 11  5  1  6  0  0  0
 11  4  1  0  0  0  0
 12 15  1  0  0  0  0
 14 19  1  6  0  0  0
 14 17  1  0  0  0  0
 15 18  1  0  0  0  0
 17 13  1  0  0  0  0
 18 13  1  0  0  0  0
 18 16  2  0  0  0  0
 20 12  1  0  0  0  0
 20 14  1  0  0  0  0
 21 22  1  0  0  0  0
 23 26  1  0  0  0  0
 24 22  1  0  0  0  0
 25 26  1  0  0  0  0
 26 21  2  0  0  0  0
 27 23  2  0  0  0  0
 28 23  1  0  0  0  0
 28 24  1  0  0  0  0
M  END
>  <MODEL>
6

>  <REMARK>
 VINA RESULT:      -7.6      2.670      6.908
  Name = 
  2 active torsions:
  status: ('A' for Active; 'I' for Inactive)
    1  A    between atoms: C_1  and  C_2
    2  A    between atoms: C_10  and  N_13
                            x       y       z     vdW  Elec       q    Type
                         _______ _______ _______ _____ _____    ______ ____

>  <TORSDO>
F 2

$$$$
=
 OpenBabel10262420463D

 28 31  0  0  1  0  0  0  0  0999 V2000
  183.2410  178.4350  140.2620 C   0  0  1  0  0  3  0  0  0  0  0  0
  181.5550  178.9900  144.2070 C   0  0  0  0  0  1  0  0  0  0  0  0
  186.4370  178.5410  142.4970 C   0  0  1  0  0  3  0  0  0  0  0  0
  183.6700  179.0010  142.7150 C   0  0  2  0  0  3  0  0  0  0  0  0
  185.6010  178.4060  141.2090 C   0  0  0  0  0  2  0  0  0  0  0  0
  181.4930  178.1950  141.9410 O   0  0  0  0  0  0  0  0  0  0  0  0
  184.3760  178.5020  143.9900 C   0  0  0  0  0  2  0  0  0  0  0  0
  182.1250  179.1100  142.8020 C   0  0  1  0  0  3  0  0  0  0  0  0
  185.7670  177.9060  143.7220 C   0  0  0  0  0  2  0  0  0  0  0  0
  181.7610  178.6440  140.6340 C   0  0  0  0  0  2  0  0  0  0  0  0
  184.1150  178.1780  141.4970 C   0  0  2  0  0  3  0  0  0  0  0  0
  188.4330  177.4520  143.4850 C   0  0  0  0  0  2  0  0  0  0  0  0
  189.5700  177.2110  140.6170 C   0  0  0  0  0  2  0  0  0  0  0  0
  190.3290  175.9860  142.6850 C   0  0  1  0  0  3  0  0  0  0  0  0
  187.7890  178.0210  142.3040 N   0  0  0  0  0  0  0  0  0  0  0  0
  188.0840  179.0030  140.1940 O   0  0  0  0  0  0  0  0  0  0  0  0
  190.6480  177.0950  141.6820 C   0  0  0  0  0  2  0  0  0  0  0  0
  188.4690  178.1440  141.0310 C   0  0  0  0  0  0  0  0  0  0  0  0
  191.2280  176.0520  143.7490 O   0  0  0  0  0  1  0  0  0  0  0  0
  188.8940  176.0260  143.2190 C   0  0  0  0  0  2  0  0  0  0  0  0
  183.4020  177.3500  139.2330 C   0  0  0  0  0  0  0  0  0  0  0  0
  182.6670  176.0550  139.4680 C   0  0  0  0  0  2  0  0  0  0  0  0
  184.2350  176.4330  137.1350 C   0  0  0  0  0  0  0  0  0  0  0  0
  182.1830  175.4480  138.1510 C   0  0  0  0  0  2  0  0  0  0  0  0
  184.9200  178.6280  137.9630 F   0  0  0  0  0  0  0  0  0  0  0  0
  184.1950  177.4960  138.1520 C   0  0  0  0  0  0  0  0  0  0  0  0
  185.0880  176.4630  136.2090 O   0  0  0  0  0  0  0  0  0  0  0  0
  183.2940  175.3600  137.2090 N   0  0  0  0  0  2  0  0  0  0  0  0
  1 21  1  6  0  0  0
  1 10  1  0  0  0  0
  1 11  1  0  0  0  0
  3  5  1  6  0  0  0
  3  9  1  0  0  0  0
  4  8  1  0  0  0  0
  4  7  1  1  0  0  0
  6  8  1  0  0  0  0
  8  2  1  1  0  0  0
  9  7  1  0  0  0  0
 10  6  1  0  0  0  0
 11  5  1  6  0  0  0
 11  4  1  0  0  0  0
 13 18  1  0  0  0  0
 13 17  1  0  0  0  0
 14 20  1  0  0  0  0
 14 19  1  1  0  0  0
 15  3  1  0  0  0  0
 15 12  1  0  0  0  0
 16 18  2  0  0  0  0
 17 14  1  0  0  0  0
 18 15  1  0  0  0  0
 20 12  1  0  0  0  0
 21 22  1  0  0  0  0
 23 28  1  0  0  0  0
 23 26  1  0  0  0  0
 24 22  1  0  0  0  0
 25 26  1  0  0  0  0
 26 21  2  0  0  0  0
 27 23  2  0  0  0  0
 28 24  1  0  0  0  0
M  END
>  <MODEL>
7

>  <REMARK>
 VINA RESULT:      -7.5      2.956      7.150
  Name = 
  2 active torsions:
  status: ('A' for Active; 'I' for Inactive)
    1  A    between atoms: C_1  and  C_2
    2  A    between atoms: C_10  and  N_13
                            x       y       z     vdW  Elec       q    Type
                         _______ _______ _______ _____ _____    ______ ____

>  <TORSDO>
F 2

$$$$
=
 OpenBabel10262420463D

 28 31  0  0  1  0  0  0  0  0999 V2000
  186.0560  179.0450  144.9120 C   0  0  1  0  0  3  0  0  0  0  0  0
  187.9310  177.1470  148.3200 C   0  0  0  0  0  1  0  0  0  0  0  0
  189.3920  177.7330  143.3710 C   0  0  1  0  0  3  0  0  0  0  0  0
  188.1790  178.0170  145.8940 C   0  0  2  0  0  3  0  0  0  0  0  0
  188.0100  178.4130  143.4110 C   0  0  0  0  0  2  0  0  0  0  0  0
  186.0260  177.8740  147.0480 O   0  0  0  0  0  0  0  0  0  0  0  0
  189.1620  176.8400  145.7440 C   0  0  0  0  0  2  0  0  0  0  0  0
  187.4050  178.0780  147.2370 C   0  0  1  0  0  3  0  0  0  0  0  0
  189.4870  176.5010  144.2800 C   0  0  0  0  0  2  0  0  0  0  0  0
  185.5550  179.0130  146.3690 C   0  0  0  0  0  2  0  0  0  0  0  0
  187.2310  178.0830  144.6870 C   0  0  2  0  0  3  0  0  0  0  0  0
  188.6900  177.1280  141.0720 C   0  0  0  0  0  2  0  0  0  0  0  0
  191.6360  177.5030  140.2040 C   0  0  0  0  0  2  0  0  0  0  0  0
  189.5960  177.3950  138.7280 C   0  0  1  0  0  3  0  0  0  0  0  0
  189.7820  177.4110  142.0000 N   0  0  0  0  0  0  0  0  0  0  0  0
  192.0530  177.1120  142.5000 O   0  0  0  0  0  0  0  0  0  0  0  0
  190.8430  176.6590  139.2210 C   0  0  0  0  0  2  0  0  0  0  0  0
  191.1740  177.3010  141.6180 C   0  0  0  0  0  0  0  0  0  0  0  0
  188.7980  176.5150  137.9970 O   0  0  0  0  0  1  0  0  0  0  0  0
  188.7690  178.0310  139.8490 C   0  0  0  0  0  2  0  0  0  0  0  0
  184.9380  178.7930  143.9390 C   0  0  0  0  0  0  0  0  0  0  0  0
  183.6440  178.2530  144.4940 C   0  0  0  0  0  2  0  0  0  0  0  0
  183.9150  178.8250  141.7280 C   0  0  0  0  0  0  0  0  0  0  0  0
  182.4410  178.8210  143.7390 C   0  0  0  0  0  2  0  0  0  0  0  0
  186.2580  179.4180  142.0910 F   0  0  0  0  0  0  0  0  0  0  0  0
  185.0770  179.0010  142.6150 C   0  0  0  0  0  0  0  0  0  0  0  0
  184.0540  178.8450  140.4770 O   0  0  0  0  0  0  0  0  0  0  0  0
  182.6220  178.6280  142.3040 N   0  0  0  0  0  2  0  0  0  0  0  0
  1 21  1  6  0  0  0
  1 10  1  0  0  0  0
  3 15  1  6  0  0  0
  3  5  1  0  0  0  0
  3  9  1  0  0  0  0
  4  7  1  1  0  0  0
  4  8  1  0  0  0  0
  6  8  1  0  0  0  0
  8  2  1  1  0  0  0
  9  7  1  0  0  0  0
 10  6  1  0  0  0  0
 11  5  1  6  0  0  0
 11  1  1  0  0  0  0
 11  4  1  0  0  0  0
 12 15  1  0  0  0  0
 13 18  1  0  0  0  0
 14 19  1  1  0  0  0
 14 17  1  0  0  0  0
 14 20  1  0  0  0  0
 17 13  1  0  0  0  0
 18 15  1  0  0  0  0
 18 16  2  0  0  0  0
 20 12  1  0  0  0  0
 21 22  1  0  0  0  0
 23 28  1  0  0  0  0
 23 26  1  0  0  0  0
 24 22  1  0  0  0  0
 25 26  1  0  0  0  0
 26 21  2  0  0  0  0
 27 23  2  0  0  0  0
 28 24  1  0  0  0  0
M  END
>  <MODEL>
8

>  <REMARK>
 VINA RESULT:      -7.5      1.993      5.889
  Name = 
  2 active torsions:
  status: ('A' for Active; 'I' for Inactive)
    1  A    between atoms: C_1  and  C_2
    2  A    between atoms: C_10  and  N_13
                            x       y       z     vdW  Elec       q    Type
                         _______ _______ _______ _____ _____    ______ ____

>  <TORSDO>
F 2

$$$$
=
 OpenBabel10262420463D

 28 31  0  0  1  0  0  0  0  0999 V2000
  188.7770  178.1480  145.8280 C   0  0  1  0  0  3  0  0  0  0  0  0
  192.0620  175.6620  147.1490 C   0  0  0  0  0  1  0  0  0  0  0  0
  190.5620  177.3140  142.4610 C   0  0  1  0  0  3  0  0  0  0  0  0
  190.9890  177.0230  145.2260 C   0  0  2  0  0  3  0  0  0  0  0  0
  189.5000  177.9170  143.4010 C   0  0  0  0  0  2  0  0  0  0  0  0
  189.8420  176.5610  147.3370 O   0  0  0  0  0  0  0  0  0  0  0  0
  191.6180  175.9420  144.3260 C   0  0  0  0  0  2  0  0  0  0  0  0
  191.1040  176.7750  146.7540 C   0  0  1  0  0  3  0  0  0  0  0  0
  191.0420  175.9250  142.9010 C   0  0  0  0  0  2  0  0  0  0  0  0
  189.1720  177.7970  147.2750 C   0  0  0  0  0  2  0  0  0  0  0  0
  189.5400  177.3000  144.8010 C   0  0  2  0  0  3  0  0  0  0  0  0
  188.6500  177.1590  140.8900 C   0  0  0  0  0  2  0  0  0  0  0  0
  190.6270  177.8420  138.6090 C   0  0  0  0  0  2  0  0  0  0  0  0
  188.1090  177.9420  138.5490 C   0  0  1  0  0  3  0  0  0  0  0  0
  190.0920  177.2980  141.0770 N   0  0  0  0  0  0  0  0  0  0  0  0
  192.2240  177.0100  140.1430 O   0  0  0  0  0  0  0  0  0  0  0  0
  189.3570  177.1800  138.1000 C   0  0  0  0  0  2  0  0  0  0  0  0
  191.0200  177.3340  139.9660 C   0  0  0  0  0  0  0  0  0  0  0  0
  186.9740  177.1940  138.2380 O   0  0  0  0  0  1  0  0  0  0  0  0
  188.1010  178.2960  140.0390 C   0  0  0  0  0  2  0  0  0  0  0  0
  187.2900  178.0600  145.6260 C   0  0  0  0  0  0  0  0  0  0  0  0
  186.4510  177.6510  146.8110 C   0  0  0  0  0  2  0  0  0  0  0  0
  185.2430  178.2860  144.3240 C   0  0  0  0  0  0  0  0  0  0  0  0
  185.1060  178.3780  146.8110 C   0  0  0  0  0  2  0  0  0  0  0  0
  187.4580  178.5960  143.3380 F   0  0  0  0  0  0  0  0  0  0  0  0
  186.7110  178.2980  144.4320 C   0  0  0  0  0  0  0  0  0  0  0  0
  184.6820  178.3350  143.1970 O   0  0  0  0  0  0  0  0  0  0  0  0
  184.4560  178.2170  145.5150 N   0  0  0  0  0  2  0  0  0  0  0  0
  1 21  1  1  0  0  0
  1 10  1  0  0  0  0
  3 15  1  6  0  0  0
  3  9  1  0  0  0  0
  3  5  1  0  0  0  0
  4  7  1  6  0  0  0
  4  8  1  0  0  0  0
  8  2  1  6  0  0  0
  8  6  1  0  0  0  0
  9  7  1  0  0  0  0
 10  6  1  0  0  0  0
 11  5  1  6  0  0  0
 11  4  1  0  0  0  0
 11  1  1  0  0  0  0
 12 15  1  0  0  0  0
 13 18  1  0  0  0  0
 14 19  1  1  0  0  0
 14 20  1  0  0  0  0
 17 14  1  0  0  0  0
 17 13  1  0  0  0  0
 18 16  2  0  0  0  0
 18 15  1  0  0  0  0
 20 12  1  0  0  0  0
 21 22  1  0  0  0  0
 22 24  1  0  0  0  0
 23 26  1  0  0  0  0
 23 28  1  0  0  0  0
 25 26  1  0  0  0  0
 26 21  2  0  0  0  0
 27 23  2  0  0  0  0
 28 24  1  0  0  0  0
M  END
>  <MODEL>
9

>  <REMARK>
 VINA RESULT:      -7.4      2.284      5.691
  Name = 
  2 active torsions:
  status: ('A' for Active; 'I' for Inactive)
    1  A    between atoms: C_1  and  C_2
    2  A    between atoms: C_10  and  N_13
                            x       y       z     vdW  Elec       q    Type
                         _______ _______ _______ _____ _____    ______ ____

>  <TORSDO>
F 2

$$$$
