=
 OpenBabel10252414513D

 34 39  0  0  1  0  0  0  0  0999 V2000
  189.4930  177.2710  146.4670 C   0  0  0  0  0  0  0  0  0  0  0  0
  191.3050  176.2920  145.2390 C   0  0  0  0  0  0  0  0  0  0  0  0
  189.1170  176.9260  143.9780 C   0  0  1  0  0  3  0  0  0  0  0  0
  188.7860  177.4440  141.7130 C   0  0  2  0  0  3  0  0  0  0  0  0
  191.5690  176.8890  147.5160 C   0  0  0  0  0  3  0  0  0  0  0  0
  192.0560  176.3500  146.3700 N   0  0  0  0  0  0  0  0  0  0  0  0
  190.9580  177.4890  142.3990 C   0  0  0  0  0  2  0  0  0  0  0  0
  190.0200  176.8780  145.2200 C   0  0  0  0  0  0  0  0  0  0  0  0
  189.5140  177.9590  140.4980 C   0  0  0  0  0  2  0  0  0  0  0  0
  190.2840  177.3170  147.5680 N   0  0  0  0  0  0  0  0  0  0  0  0
  187.7420  177.5480  144.3320 C   0  0  1  0  0  3  0  0  0  0  0  0
  188.0870  177.4930  146.5930 N   0  0  0  0  0  2  0  0  0  0  0  0
  191.7870  175.5270  144.1410 N   0  0  0  0  0  1  0  0  0  0  0  0
  187.3780  178.0040  141.8840 C   0  0  0  0  0  2  0  0  0  0  0  0
  186.7580  177.4100  143.1590 C   0  0  2  0  0  3  0  0  0  0  0  0
  190.9730  177.8530  140.9170 C   0  0  2  0  0  3  0  0  0  0  0  0
  189.6120  177.7690  142.8730 N   0  0  2  0  0  0  0  0  0  0  0  0
  187.2180  177.0340  145.5880 N   0  0  0  0  0  2  0  0  0  0  0  0
  183.2460  178.7500  142.6880 C   0  0  0  0  0  0  0  0  0  0  0  0
  182.9690  179.2790  143.9520 C   0  0  0  0  0  3  0  0  0  0  0  0
  185.4440  178.0660  143.4520 C   0  0  0  0  0  0  0  0  0  0  0  0
  183.9260  179.2050  144.9680 C   0  0  0  0  0  3  0  0  0  0  0  0
  184.4810  178.1440  142.4390 C   0  0  0  0  0  3  0  0  0  0  0  0
  185.1620  178.5990  144.7190 C   0  0  0  0  0  3  0  0  0  0  0  0
  182.0470  178.8430  141.4180 Cl  0  0  0  0  0  0  0  0  0  0  0  0
  191.7200  176.8800  140.1140 N   0  0  0  0  0  2  0  0  0  0  0  0
  190.9980  176.5320  138.8920 C   0  0  0  0  0  2  0  0  0  0  0  0
  190.2720  174.0770  137.6220 F   0  0  0  0  0  0  0  0  0  0  0  0
  191.9030  175.8020  137.9620 C   0  0  0  0  0  0  0  0  0  0  0  0
  191.4940  174.6040  137.3550 C   0  0  0  0  0  0  0  0  0  0  0  0
  193.6100  174.4760  136.1820 C   0  0  0  0  0  3  0  0  0  0  0  0
  194.0160  175.6720  136.7800 C   0  0  0  0  0  3  0  0  0  0  0  0
  193.1620  176.3350  137.6670 C   0  0  0  0  0  3  0  0  0  0  0  0
  192.3500  173.9430  136.4690 C   0  0  0  0  0  3  0  0  0  0  0  0
  1 12  1  0  0  0  0
  1 10  2  0  0  0  0
  2  6  1  0  0  0  0
  3 11  1  0  0  0  0
  3  8  1  1  0  0  0
  4  9  1  6  0  0  0
  4 14  1  0  0  0  0
  4 17  1  0  0  0  0
  5 10  1  0  0  0  0
  6  5  2  0  0  0  0
  8  2  2  0  0  0  0
  8  1  1  0  0  0  0
  9 16  1  0  0  0  0
 11 18  1  1  0  0  0
 13  2  1  0  0  0  0
 14 15  1  0  0  0  0
 15 21  1  1  0  0  0
 15 11  1  0  0  0  0
 16 26  1  6  0  0  0
 16  7  1  0  0  0  0
 17  7  1  6  0  0  0
 17  3  1  0  0  0  0
 18 12  1  0  0  0  0
 19 20  1  0  0  0  0
 20 22  2  0  0  0  0
 21 24  2  0  0  0  0
 23 19  2  0  0  0  0
 23 21  1  0  0  0  0
 24 22  1  0  0  0  0
 25 19  1  0  0  0  0
 27 26  1  0  0  0  0
 29 27  1  0  0  0  0
 30 28  1  0  0  0  0
 30 29  2  0  0  0  0
 31 34  2  0  0  0  0
 31 32  1  0  0  0  0
 32 33  2  0  0  0  0
 33 29  1  0  0  0  0
 34 30  1  0  0  0  0
M  END
>  <MODEL>
1

>  <REMARK>
 VINA RESULT:     -10.3      0.000      0.000
  Name = 
  4 active torsions:
  status: ('A' for Active; 'I' for Inactive)
    1  A    between atoms: C_3  and  C_13
    2  A    between atoms: C_3  and  N_17
    3  A    between atoms: C_12  and  C_28
    4  A    between atoms: N_17  and  C_29
                            x       y       z     vdW  Elec       q    Type
                         _______ _______ _______ _____ _____    ______ ____

>  <TORSDO>
F 4

$$$$
=
 OpenBabel10252414513D

 34 39  0  0  1  0  0  0  0  0999 V2000
  190.9910  177.3170  141.5080 C   0  0  0  0  0  0  0  0  0  0  0  0
  189.6010  177.0480  139.5740 C   0  0  0  0  0  0  0  0  0  0  0  0
  188.4860  177.2270  141.9200 C   0  0  1  0  0  3  0  0  0  0  0  0
  186.3280  177.9400  142.5060 C   0  0  2  0  0  3  0  0  0  0  0  0
  191.9350  177.3760  139.3490 C   0  0  0  0  0  3  0  0  0  0  0  0
  190.7140  177.1530  138.8020 N   0  0  0  0  0  0  0  0  0  0  0  0
  186.9750  178.4820  140.3910 C   0  0  0  0  0  2  0  0  0  0  0  0
  189.6900  177.2570  140.9680 C   0  0  0  0  0  0  0  0  0  0  0  0
  185.1900  178.7960  142.0130 C   0  0  0  0  0  2  0  0  0  0  0  0
  192.0730  177.4250  140.6970 N   0  0  0  0  0  0  0  0  0  0  0  0
  188.9520  177.3950  143.3890 C   0  0  1  0  0  3  0  0  0  0  0  0
  191.1740  177.1270  142.9130 N   0  0  0  0  0  2  0  0  0  0  0  0
  188.3930  176.6010  138.9680 N   0  0  0  0  0  1  0  0  0  0  0  0
  186.6050  178.0660  144.0010 C   0  0  0  0  0  2  0  0  0  0  0  0
  187.7890  177.1550  144.3650 C   0  0  2  0  0  3  0  0  0  0  0  0
  185.5620  179.0360  140.5580 C   0  0  2  0  0  3  0  0  0  0  0  0
  187.5090  178.3160  141.7330 N   0  0  2  0  0  0  0  0  0  0  0  0
  190.1280  176.5900  143.6830 N   0  0  0  0  0  2  0  0  0  0  0  0
  189.9090  177.2650  147.5030 C   0  0  0  0  0  0  0  0  0  0  0  0
  189.0130  177.7930  148.4370 C   0  0  0  0  0  3  0  0  0  0  0  0
  188.1990  177.3820  145.7880 C   0  0  0  0  0  0  0  0  0  0  0  0
  187.7080  178.1150  148.0510 C   0  0  0  0  0  3  0  0  0  0  0  0
  189.5030  177.0610  146.1820 C   0  0  0  0  0  3  0  0  0  0  0  0
  187.3020  177.9110  146.7290 C   0  0  0  0  0  3  0  0  0  0  0  0
  191.5410  176.8620  147.9880 Cl  0  0  0  0  0  0  0  0  0  0  0  0
  184.6110  178.4240  139.6250 N   0  0  0  0  0  2  0  0  0  0  0  0
  183.3690  178.0530  140.2990 C   0  0  0  0  0  2  0  0  0  0  0  0
  181.0650  178.4420  141.9450 F   0  0  0  0  0  0  0  0  0  0  0  0
  182.3100  179.0540  139.9900 C   0  0  0  0  0  0  0  0  0  0  0  0
  181.2020  179.2120  140.8380 C   0  0  0  0  0  0  0  0  0  0  0  0
  180.3600  180.9760  139.4050 C   0  0  0  0  0  3  0  0  0  0  0  0
  181.4650  180.8240  138.5640 C   0  0  0  0  0  3  0  0  0  0  0  0
  182.4400  179.8660  138.8580 C   0  0  0  0  0  3  0  0  0  0  0  0
  180.2290  180.1720  140.5410 C   0  0  0  0  0  3  0  0  0  0  0  0
  1 12  1  0  0  0  0
  2  8  2  0  0  0  0
  3  8  1  6  0  0  0
  3 11  1  0  0  0  0
  4  9  1  6  0  0  0
  4 14  1  0  0  0  0
  5 10  1  0  0  0  0
  6  5  2  0  0  0  0
  6  2  1  0  0  0  0
  7 16  1  0  0  0  0
  8  1  1  0  0  0  0
 10  1  2  0  0  0  0
 11 18  1  1  0  0  0
 11 15  1  0  0  0  0
 12 18  1  0  0  0  0
 13  2  1  0  0  0  0
 14 15  1  0  0  0  0
 15 21  1  1  0  0  0
 16 26  1  6  0  0  0
 16  9  1  0  0  0  0
 17  7  1  6  0  0  0
 17  3  1  0  0  0  0
 17  4  1  0  0  0  0
 19 25  1  0  0  0  0
 19 20  1  0  0  0  0
 21 23  1  0  0  0  0
 21 24  2  0  0  0  0
 22 20  2  0  0  0  0
 23 19  2  0  0  0  0
 24 22  1  0  0  0  0
 26 27  1  0  0  0  0
 29 27  1  0  0  0  0
 29 30  1  0  0  0  0
 30 28  1  0  0  0  0
 31 34  1  0  0  0  0
 32 33  1  0  0  0  0
 32 31  2  0  0  0  0
 33 29  2  0  0  0  0
 34 30  2  0  0  0  0
M  END
>  <MODEL>
2

>  <REMARK>
 VINA RESULT:      -9.9      3.688      7.705
  Name = 
  4 active torsions:
  status: ('A' for Active; 'I' for Inactive)
    1  A    between atoms: C_3  and  C_13
    2  A    between atoms: C_3  and  N_17
    3  A    between atoms: C_12  and  C_28
    4  A    between atoms: N_17  and  C_29
                            x       y       z     vdW  Elec       q    Type
                         _______ _______ _______ _____ _____    ______ ____

>  <TORSDO>
F 4

$$$$
=
 OpenBabel10252414513D

 34 39  0  0  1  0  0  0  0  0999 V2000
  187.7960  177.5860  138.7730 C   0  0  0  0  0  0  0  0  0  0  0  0
  189.0260  177.9700  140.7950 C   0  0  0  0  0  0  0  0  0  0  0  0
  186.5100  178.6310  140.6990 C   0  0  1  0  0  3  0  0  0  0  0  0
  184.9480  178.8490  142.4360 C   0  0  2  0  0  3  0  0  0  0  0  0
  190.0080  176.8010  138.9840 C   0  0  0  0  0  3  0  0  0  0  0  0
  190.0870  177.3370  140.2280 N   0  0  0  0  0  0  0  0  0  0  0  0
  186.8530  177.7340  142.9960 C   0  0  0  0  0  2  0  0  0  0  0  0
  187.7860  178.0020  140.1200 C   0  0  0  0  0  0  0  0  0  0  0  0
  184.6640  178.3750  143.8390 C   0  0  0  0  0  2  0  0  0  0  0  0
  188.8780  176.9550  138.2520 N   0  0  0  0  0  0  0  0  0  0  0  0
  185.3620  178.5820  139.6580 C   0  0  1  0  0  3  0  0  0  0  0  0
  186.7100  177.9550  137.9200 N   0  0  0  0  0  2  0  0  0  0  0  0
  189.2330  178.6950  142.0020 N   0  0  0  0  0  1  0  0  0  0  0  0
  183.7190  178.9100  141.5360 C   0  0  0  0  0  2  0  0  0  0  0  0
  184.1480  179.3930  140.1410 C   0  0  2  0  0  3  0  0  0  0  0  0
  185.9900  177.7560  144.2540 C   0  0  2  0  0  3  0  0  0  0  0  0
  185.9480  177.9430  141.8770 N   0  0  2  0  0  0  0  0  0  0  0  0
  185.8150  178.9590  138.3280 N   0  0  0  0  0  2  0  0  0  0  0  0
  181.4020  180.4200  137.7420 C   0  0  0  0  0  0  0  0  0  0  0  0
  180.8550  179.1840  137.3850 C   0  0  0  0  0  3  0  0  0  0  0  0
  182.9990  179.3020  139.1840 C   0  0  0  0  0  0  0  0  0  0  0  0
  181.3760  178.0050  137.9270 C   0  0  0  0  0  3  0  0  0  0  0  0
  182.4730  180.4790  138.6380 C   0  0  0  0  0  3  0  0  0  0  0  0
  182.4470  178.0640  138.8240 C   0  0  0  0  0  3  0  0  0  0  0  0
  180.7490  181.8940  137.0630 Cl  0  0  0  0  0  0  0  0  0  0  0  0
  186.6310  178.4820  145.3550 N   0  0  0  0  0  2  0  0  0  0  0  0
  186.9840  177.5830  146.4510 C   0  0  0  0  0  2  0  0  0  0  0  0
  188.5010  177.6080  148.8730 F   0  0  0  0  0  0  0  0  0  0  0  0
  188.4600  177.3870  146.4860 C   0  0  0  0  0  0  0  0  0  0  0  0
  189.1570  177.3980  147.7050 C   0  0  0  0  0  0  0  0  0  0  0  0
  191.2290  176.9690  146.5230 C   0  0  0  0  0  3  0  0  0  0  0  0
  190.5350  176.9510  145.3100 C   0  0  0  0  0  3  0  0  0  0  0  0
  189.1520  177.1570  145.2920 C   0  0  0  0  0  3  0  0  0  0  0  0
  190.5400  177.1920  147.7190 C   0  0  0  0  0  3  0  0  0  0  0  0
  1  8  1  0  0  0  0
  2 13  1  0  0  0  0
  3  8  1  6  0  0  0
  3 17  1  0  0  0  0
  4 14  1  6  0  0  0
  4  9  1  0  0  0  0
  5  6  2  0  0  0  0
  6  2  1  0  0  0  0
  7 16  1  0  0  0  0
  8  2  2  0  0  0  0
  9 16  1  0  0  0  0
 10  1  2  0  0  0  0
 10  5  1  0  0  0  0
 11 18  1  6  0  0  0
 11 15  1  0  0  0  0
 11  3  1  0  0  0  0
 12 18  1  0  0  0  0
 12  1  1  0  0  0  0
 15 21  1  6  0  0  0
 15 14  1  0  0  0  0
 16 26  1  1  0  0  0
 17  4  1  0  0  0  0
 17  7  1  1  0  0  0
 19 23  1  0  0  0  0
 20 19  2  0  0  0  0
 20 22  1  0  0  0  0
 22 24  2  0  0  0  0
 23 21  2  0  0  0  0
 24 21  1  0  0  0  0
 25 19  1  0  0  0  0
 26 27  1  0  0  0  0
 27 29  1  0  0  0  0
 29 30  1  0  0  0  0
 30 34  2  0  0  0  0
 30 28  1  0  0  0  0
 31 34  1  0  0  0  0
 32 31  2  0  0  0  0
 33 32  1  0  0  0  0
 33 29  2  0  0  0  0
M  END
>  <MODEL>
3

>  <REMARK>
 VINA RESULT:      -9.9      3.667      7.370
  Name = 
  4 active torsions:
  status: ('A' for Active; 'I' for Inactive)
    1  A    between atoms: C_3  and  C_13
    2  A    between atoms: C_3  and  N_17
    3  A    between atoms: C_12  and  C_28
    4  A    between atoms: N_17  and  C_29
                            x       y       z     vdW  Elec       q    Type
                         _______ _______ _______ _____ _____    ______ ____

>  <TORSDO>
F 4

$$$$
=
 OpenBabel10252414513D

 34 39  0  0  1  0  0  0  0  0999 V2000
  184.7640  178.9900  144.8970 C   0  0  0  0  0  0  0  0  0  0  0  0
  186.8080  177.7530  145.0940 C   0  0  0  0  0  0  0  0  0  0  0  0
  185.7430  178.0720  142.7400 C   0  0  1  0  0  3  0  0  0  0  0  0
  186.7500  178.0450  140.6210 C   0  0  2  0  0  3  0  0  0  0  0  0
  185.8820  178.8670  146.9680 C   0  0  0  0  0  3  0  0  0  0  0  0
  186.8340  178.0750  146.4140 N   0  0  0  0  0  0  0  0  0  0  0  0
  188.1980  178.2520  142.3670 C   0  0  0  0  0  2  0  0  0  0  0  0
  185.8220  178.3160  144.2540 C   0  0  0  0  0  0  0  0  0  0  0  0
  188.0760  178.2630  139.9370 C   0  0  0  0  0  2  0  0  0  0  0  0
  184.8370  179.2930  146.2170 N   0  0  0  0  0  0  0  0  0  0  0  0
  184.4860  178.7570  142.1460 C   0  0  1  0  0  3  0  0  0  0  0  0
  183.5520  179.2330  144.1790 N   0  0  0  0  0  2  0  0  0  0  0  0
  187.7030  176.7530  144.6200 N   0  0  0  0  0  1  0  0  0  0  0  0
  185.5570  178.6280  139.8720 C   0  0  0  0  0  2  0  0  0  0  0  0
  184.2790  178.3470  140.6790 C   0  0  2  0  0  3  0  0  0  0  0  0
  189.0530  178.2590  141.1030 C   0  0  2  0  0  3  0  0  0  0  0  0
  186.8570  178.6340  141.9530 N   0  0  2  0  0  0  0  0  0  0  0  0
  183.3090  178.5500  142.9750 N   0  0  0  0  0  2  0  0  0  0  0  0
  180.7080  179.3500  139.9030 C   0  0  0  0  0  0  0  0  0  0  0  0
  180.8930  180.3460  138.9400 C   0  0  0  0  0  3  0  0  0  0  0  0
  183.1100  179.0520  140.0610 C   0  0  0  0  0  0  0  0  0  0  0  0
  182.1840  180.6980  138.5340 C   0  0  0  0  0  3  0  0  0  0  0  0
  181.8150  178.7050  140.4630 C   0  0  0  0  0  3  0  0  0  0  0  0
  183.2910  180.0530  139.0940 C   0  0  0  0  0  3  0  0  0  0  0  0
  179.0920  178.9110  140.4090 Cl  0  0  0  0  0  0  0  0  0  0  0  0
  189.9830  177.1270  141.0550 N   0  0  0  0  0  2  0  0  0  0  0  0
  191.3060  177.5030  141.5500 C   0  0  0  0  0  2  0  0  0  0  0  0
  191.0840  179.4880  143.5940 F   0  0  0  0  0  0  0  0  0  0  0  0
  191.4080  177.1880  143.0020 C   0  0  0  0  0  0  0  0  0  0  0  0
  191.2820  178.2000  143.9670 C   0  0  0  0  0  0  0  0  0  0  0  0
  191.5600  176.5560  145.7260 C   0  0  0  0  0  3  0  0  0  0  0  0
  191.6800  175.5470  144.7670 C   0  0  0  0  0  3  0  0  0  0  0  0
  191.6020  175.8620  143.4060 C   0  0  0  0  0  3  0  0  0  0  0  0
  191.3610  177.8810  145.3260 C   0  0  0  0  0  3  0  0  0  0  0  0
  1 10  2  0  0  0  0
  2  6  1  0  0  0  0
  3  8  1  1  0  0  0
  4 14  1  6  0  0  0
  4 17  1  0  0  0  0
  6  5  2  0  0  0  0
  8  1  1  0  0  0  0
  8  2  2  0  0  0  0
  9  4  1  0  0  0  0
  9 16  1  0  0  0  0
 10  5  1  0  0  0  0
 11  3  1  0  0  0  0
 11 18  1  1  0  0  0
 12  1  1  0  0  0  0
 13  2  1  0  0  0  0
 14 15  1  0  0  0  0
 15 21  1  6  0  0  0
 15 11  1  0  0  0  0
 16 26  1  6  0  0  0
 16  7  1  0  0  0  0
 17  7  1  1  0  0  0
 17  3  1  0  0  0  0
 18 12  1  0  0  0  0
 19 25  1  0  0  0  0
 19 23  1  0  0  0  0
 20 19  2  0  0  0  0
 21 23  2  0  0  0  0
 22 20  1  0  0  0  0
 22 24  2  0  0  0  0
 24 21  1  0  0  0  0
 26 27  1  0  0  0  0
 27 29  1  0  0  0  0
 28 30  1  0  0  0  0
 29 33  2  0  0  0  0
 29 30  1  0  0  0  0
 30 34  2  0  0  0  0
 32 31  2  0  0  0  0
 33 32  1  0  0  0  0
 34 31  1  0  0  0  0
M  END
>  <MODEL>
4

>  <REMARK>
 VINA RESULT:      -9.9      3.237      5.303
  Name = 
  4 active torsions:
  status: ('A' for Active; 'I' for Inactive)
    1  A    between atoms: C_3  and  C_13
    2  A    between atoms: C_3  and  N_17
    3  A    between atoms: C_12  and  C_28
    4  A    between atoms: N_17  and  C_29
                            x       y       z     vdW  Elec       q    Type
                         _______ _______ _______ _____ _____    ______ ____

>  <TORSDO>
F 4

$$$$
=
 OpenBabel10252414513D

 34 39  0  0  1  0  0  0  0  0999 V2000
  188.5600  177.2420  139.0200 C   0  0  0  0  0  0  0  0  0  0  0  0
  189.9900  177.5450  140.9200 C   0  0  0  0  0  0  0  0  0  0  0  0
  187.4820  178.2220  141.1010 C   0  0  1  0  0  3  0  0  0  0  0  0
  186.1040  178.3830  142.9940 C   0  0  2  0  0  3  0  0  0  0  0  0
  190.7760  176.4390  138.9790 C   0  0  0  0  0  3  0  0  0  0  0  0
  190.9830  176.9280  140.2270 N   0  0  0  0  0  0  0  0  0  0  0  0
  188.0470  177.2390  143.3180 C   0  0  0  0  0  2  0  0  0  0  0  0
  188.6880  177.6080  140.3750 C   0  0  0  0  0  0  0  0  0  0  0  0
  185.9580  177.8600  144.4000 C   0  0  0  0  0  2  0  0  0  0  0  0
  189.5790  176.6250  138.3700 N   0  0  0  0  0  0  0  0  0  0  0  0
  186.2360  178.2170  140.1800 C   0  0  1  0  0  3  0  0  0  0  0  0
  187.3970  177.6470  138.2940 N   0  0  0  0  0  2  0  0  0  0  0  0
  190.3220  178.2240  142.1250 N   0  0  0  0  0  1  0  0  0  0  0  0
  184.7920  178.4830  142.2240 C   0  0  0  0  0  2  0  0  0  0  0  0
  185.0830  179.0150  140.8110 C   0  0  2  0  0  3  0  0  0  0  0  0
  187.3140  177.2200  144.6570 C   0  0  2  0  0  3  0  0  0  0  0  0
  187.0360  177.4940  142.3050 N   0  0  2  0  0  0  0  0  0  0  0  0
  186.5570  178.6390  138.8260 N   0  0  0  0  0  2  0  0  0  0  0  0
  181.8580  177.7650  139.2660 C   0  0  0  0  0  0  0  0  0  0  0  0
  181.5110  178.8280  138.4260 C   0  0  0  0  0  3  0  0  0  0  0  0
  183.8430  178.9650  139.9720 C   0  0  0  0  0  0  0  0  0  0  0  0
  182.3280  179.9610  138.3560 C   0  0  0  0  0  3  0  0  0  0  0  0
  183.0210  177.8350  140.0370 C   0  0  0  0  0  3  0  0  0  0  0  0
  183.4920  180.0300  139.1280 C   0  0  0  0  0  3  0  0  0  0  0  0
  180.8340  176.3490  139.3520 Cl  0  0  0  0  0  0  0  0  0  0  0  0
  188.0680  177.9020  145.7130 N   0  0  0  0  0  2  0  0  0  0  0  0
  189.4170  178.2440  145.2670 C   0  0  0  0  0  2  0  0  0  0  0  0
  189.8100  177.8790  148.0740 F   0  0  0  0  0  0  0  0  0  0  0  0
  190.3960  177.2730  145.8300 C   0  0  0  0  0  0  0  0  0  0  0  0
  190.5430  177.1250  147.2180 C   0  0  0  0  0  0  0  0  0  0  0  0
  192.2130  175.4060  146.8560 C   0  0  0  0  0  3  0  0  0  0  0  0
  192.0630  175.5480  145.4740 C   0  0  0  0  0  3  0  0  0  0  0  0
  191.1530  176.4790  144.9620 C   0  0  0  0  0  3  0  0  0  0  0  0
  191.4540  176.1930  147.7270 C   0  0  0  0  0  3  0  0  0  0  0  0
  1  8  1  0  0  0  0
  2 13  1  0  0  0  0
  3  8  1  6  0  0  0
  3 17  1  0  0  0  0
  4 14  1  6  0  0  0
  4  9  1  0  0  0  0
  5  6  2  0  0  0  0
  6  2  1  0  0  0  0
  7 16  1  0  0  0  0
  8  2  2  0  0  0  0
  9 16  1  0  0  0  0
 10  5  1  0  0  0  0
 10  1  2  0  0  0  0
 11 18  1  6  0  0  0
 11 15  1  0  0  0  0
 11  3  1  0  0  0  0
 12 18  1  0  0  0  0
 12  1  1  0  0  0  0
 15 21  1  6  0  0  0
 15 14  1  0  0  0  0
 16 26  1  1  0  0  0
 17  4  1  0  0  0  0
 17  7  1  1  0  0  0
 19 25  1  0  0  0  0
 19 23  1  0  0  0  0
 20 19  2  0  0  0  0
 21 23  2  0  0  0  0
 22 20  1  0  0  0  0
 22 24  2  0  0  0  0
 24 21  1  0  0  0  0
 27 26  1  0  0  0  0
 27 29  1  0  0  0  0
 29 30  1  0  0  0  0
 30 34  2  0  0  0  0
 30 28  1  0  0  0  0
 31 34  1  0  0  0  0
 32 31  2  0  0  0  0
 33 32  1  0  0  0  0
 33 29  2  0  0  0  0
M  END
>  <MODEL>
5

>  <REMARK>
 VINA RESULT:      -9.8      3.046      6.653
  Name = 
  4 active torsions:
  status: ('A' for Active; 'I' for Inactive)
    1  A    between atoms: C_3  and  C_13
    2  A    between atoms: C_3  and  N_17
    3  A    between atoms: C_12  and  C_28
    4  A    between atoms: N_17  and  C_29
                            x       y       z     vdW  Elec       q    Type
                         _______ _______ _______ _____ _____    ______ ____

>  <TORSDO>
F 4

$$$$
=
 OpenBabel10252414513D

 34 39  0  0  1  0  0  0  0  0999 V2000
  190.7040  177.3880  141.3790 C   0  0  0  0  0  0  0  0  0  0  0  0
  189.2110  177.1820  139.5150 C   0  0  0  0  0  0  0  0  0  0  0  0
  188.2220  177.3180  141.9190 C   0  0  1  0  0  3  0  0  0  0  0  0
  186.1080  178.0430  142.6330 C   0  0  2  0  0  3  0  0  0  0  0  0
  191.5350  177.4880  139.1760 C   0  0  0  0  0  3  0  0  0  0  0  0
  190.2850  177.2930  138.6880 N   0  0  0  0  0  0  0  0  0  0  0  0
  186.6500  178.6280  140.5000 C   0  0  0  0  0  2  0  0  0  0  0  0
  189.3760  177.3570  140.9060 C   0  0  0  0  0  0  0  0  0  0  0  0
  184.9570  178.9240  142.2210 C   0  0  0  0  0  2  0  0  0  0  0  0
  191.7430  177.5030  140.5150 N   0  0  0  0  0  0  0  0  0  0  0  0
  188.7660  177.4450  143.3650 C   0  0  1  0  0  3  0  0  0  0  0  0
  190.9560  177.1620  142.7680 N   0  0  0  0  0  2  0  0  0  0  0  0
  187.9680  176.7650  138.9620 N   0  0  0  0  0  1  0  0  0  0  0  0
  186.4630  178.1290  144.1140 C   0  0  0  0  0  2  0  0  0  0  0  0
  187.6520  177.1960  144.3940 C   0  0  2  0  0  3  0  0  0  0  0  0
  185.2560  179.1940  140.7540 C   0  0  2  0  0  3  0  0  0  0  0  0
  187.2510  178.4230  141.8080 N   0  0  2  0  0  0  0  0  0  0  0  0
  189.9450  176.6190  143.5780 N   0  0  0  0  0  2  0  0  0  0  0  0
  189.9310  177.1970  147.4210 C   0  0  0  0  0  0  0  0  0  0  0  0
  189.0930  177.7200  148.4110 C   0  0  0  0  0  3  0  0  0  0  0  0
  188.1380  177.3830  145.7990 C   0  0  0  0  0  0  0  0  0  0  0  0
  187.7780  178.0750  148.0990 C   0  0  0  0  0  3  0  0  0  0  0  0
  189.4540  177.0300  146.1180 C   0  0  0  0  0  3  0  0  0  0  0  0
  187.3010  177.9080  146.7960 C   0  0  0  0  0  3  0  0  0  0  0  0
  191.5770  176.7530  147.8130 Cl  0  0  0  0  0  0  0  0  0  0  0  0
  184.2500  178.6160  139.8580 N   0  0  0  0  0  2  0  0  0  0  0  0
  184.7280  178.5750  138.4780 C   0  0  0  0  0  2  0  0  0  0  0  0
  186.0640  177.5560  136.1660 F   0  0  0  0  0  0  0  0  0  0  0  0
  184.4090  177.2520  137.8730 C   0  0  0  0  0  0  0  0  0  0  0  0
  185.1030  176.7930  136.7430 C   0  0  0  0  0  0  0  0  0  0  0  0
  183.8160  174.7400  136.7880 C   0  0  0  0  0  3  0  0  0  0  0  0
  183.1290  175.1930  137.9170 C   0  0  0  0  0  3  0  0  0  0  0  0
  183.4270  176.4470  138.4610 C   0  0  0  0  0  3  0  0  0  0  0  0
  184.8020  175.5390  136.2020 C   0  0  0  0  0  3  0  0  0  0  0  0
  1 12  1  0  0  0  0
  2  8  2  0  0  0  0
  3  8  1  6  0  0  0
  3 11  1  0  0  0  0
  4  9  1  1  0  0  0
  4 14  1  0  0  0  0
  5 10  1  0  0  0  0
  6  5  2  0  0  0  0
  6  2  1  0  0  0  0
  7 16  1  0  0  0  0
  8  1  1  0  0  0  0
 10  1  2  0  0  0  0
 11 18  1  1  0  0  0
 11 15  1  0  0  0  0
 12 18  1  0  0  0  0
 13  2  1  0  0  0  0
 14 15  1  0  0  0  0
 15 21  1  1  0  0  0
 16 26  1  6  0  0  0
 16  9  1  0  0  0  0
 17  7  1  6  0  0  0
 17  3  1  0  0  0  0
 17  4  1  0  0  0  0
 19 25  1  0  0  0  0
 19 20  1  0  0  0  0
 21 23  1  0  0  0  0
 21 24  2  0  0  0  0
 22 20  2  0  0  0  0
 23 19  2  0  0  0  0
 24 22  1  0  0  0  0
 27 26  1  0  0  0  0
 28 30  1  0  0  0  0
 29 33  1  0  0  0  0
 29 27  1  0  0  0  0
 30 29  2  0  0  0  0
 31 32  1  0  0  0  0
 32 33  2  0  0  0  0
 34 30  1  0  0  0  0
 34 31  2  0  0  0  0
M  END
>  <MODEL>
6

>  <REMARK>
 VINA RESULT:      -9.7      3.773      6.472
  Name = 
  4 active torsions:
  status: ('A' for Active; 'I' for Inactive)
    1  A    between atoms: C_3  and  C_13
    2  A    between atoms: C_3  and  N_17
    3  A    between atoms: C_12  and  C_28
    4  A    between atoms: N_17  and  C_29
                            x       y       z     vdW  Elec       q    Type
                         _______ _______ _______ _____ _____    ______ ____

>  <TORSDO>
F 4

$$$$
=
 OpenBabel10252414513D

 34 39  0  0  1  0  0  0  0  0999 V2000
  192.1060  175.4430  136.8440 C   0  0  0  0  0  0  0  0  0  0  0  0
  193.2800  176.3860  138.7090 C   0  0  0  0  0  0  0  0  0  0  0  0
  190.7870  177.0300  138.3260 C   0  0  1  0  0  3  0  0  0  0  0  0
  189.1760  177.7760  139.8610 C   0  0  2  0  0  3  0  0  0  0  0  0
  194.2890  174.7190  137.3620 C   0  0  0  0  0  3  0  0  0  0  0  0
  194.3420  175.5970  138.3950 N   0  0  0  0  0  0  0  0  0  0  0  0
  191.0330  176.8450  140.7970 C   0  0  0  0  0  2  0  0  0  0  0  0
  192.0640  176.2380  138.0080 C   0  0  0  0  0  0  0  0  0  0  0  0
  188.8350  177.7420  141.3290 C   0  0  0  0  0  2  0  0  0  0  0  0
  193.1870  174.6690  136.5740 N   0  0  0  0  0  0  0  0  0  0  0  0
  189.6730  176.6950  137.3020 C   0  0  1  0  0  3  0  0  0  0  0  0
  191.0580  175.5600  135.8790 N   0  0  0  0  0  2  0  0  0  0  0  0
  193.4670  177.4310  139.6560 N   0  0  0  0  0  1  0  0  0  0  0  0
  187.9790  177.5880  138.9360 C   0  0  0  0  0  2  0  0  0  0  0  0
  188.4660  177.6310  137.4780 C   0  0  2  0  0  3  0  0  0  0  0  0
  190.1300  177.2520  141.9580 C   0  0  2  0  0  3  0  0  0  0  0  0
  190.1700  176.7300  139.6320 N   0  0  2  0  0  0  0  0  0  0  0  0
  190.1780  176.6540  135.9390 N   0  0  0  0  0  2  0  0  0  0  0  0
  185.5500  175.7730  135.9290 C   0  0  0  0  0  0  0  0  0  0  0  0
  185.2390  176.5870  134.8360 C   0  0  0  0  0  3  0  0  0  0  0  0
  187.3460  177.2810  136.5460 C   0  0  0  0  0  0  0  0  0  0  0  0
  185.9790  177.7470  134.5940 C   0  0  0  0  0  3  0  0  0  0  0  0
  186.6010  176.1200  136.7830 C   0  0  0  0  0  3  0  0  0  0  0  0
  187.0310  178.0950  135.4480 C   0  0  0  0  0  3  0  0  0  0  0  0
  184.6220  174.3200  136.2310 Cl  0  0  0  0  0  0  0  0  0  0  0  0
  190.7550  178.2600  142.8200 N   0  0  0  0  0  2  0  0  0  0  0  0
  191.5470  177.6370  143.8790 C   0  0  0  0  0  2  0  0  0  0  0  0
  192.4300  176.1840  146.1760 F   0  0  0  0  0  0  0  0  0  0  0  0
  190.7050  177.4480  145.0930 C   0  0  0  0  0  0  0  0  0  0  0  0
  191.1910  176.7340  146.1990 C   0  0  0  0  0  0  0  0  0  0  0  0
  189.1150  177.1490  147.3780 C   0  0  0  0  0  3  0  0  0  0  0  0
  188.6320  177.8660  146.2800 C   0  0  0  0  0  3  0  0  0  0  0  0
  189.4280  178.0180  145.1400 C   0  0  0  0  0  3  0  0  0  0  0  0
  190.3930  176.5840  147.3380 C   0  0  0  0  0  3  0  0  0  0  0  0
  1  8  1  0  0  0  0
  2 13  1  0  0  0  0
  3  8  1  6  0  0  0
  3 17  1  0  0  0  0
  4 14  1  6  0  0  0
  4  9  1  0  0  0  0
  5  6  2  0  0  0  0
  6  2  1  0  0  0  0
  7 16  1  0  0  0  0
  8  2  2  0  0  0  0
  9 16  1  0  0  0  0
 10  1  2  0  0  0  0
 10  5  1  0  0  0  0
 11 18  1  6  0  0  0
 11 15  1  0  0  0  0
 11  3  1  0  0  0  0
 12 18  1  0  0  0  0
 12  1  1  0  0  0  0
 15 21  1  6  0  0  0
 15 14  1  0  0  0  0
 16 26  1  6  0  0  0
 17  4  1  0  0  0  0
 17  7  1  1  0  0  0
 19 25  1  0  0  0  0
 19 23  1  0  0  0  0
 20 19  2  0  0  0  0
 21 23  2  0  0  0  0
 22 20  1  0  0  0  0
 22 24  2  0  0  0  0
 24 21  1  0  0  0  0
 26 27  1  0  0  0  0
 27 29  1  0  0  0  0
 28 30  1  0  0  0  0
 29 33  2  0  0  0  0
 29 30  1  0  0  0  0
 30 34  2  0  0  0  0
 32 31  2  0  0  0  0
 33 32  1  0  0  0  0
 34 31  1  0  0  0  0
M  END
>  <MODEL>
7

>  <REMARK>
 VINA RESULT:      -9.6      3.669      8.004
  Name = 
  4 active torsions:
  status: ('A' for Active; 'I' for Inactive)
    1  A    between atoms: C_3  and  C_13
    2  A    between atoms: C_3  and  N_17
    3  A    between atoms: C_12  and  C_28
    4  A    between atoms: N_17  and  C_29
                            x       y       z     vdW  Elec       q    Type
                         _______ _______ _______ _____ _____    ______ ____

>  <TORSDO>
F 4

$$$$
=
 OpenBabel10252414513D

 34 39  0  0  1  0  0  0  0  0999 V2000
  188.1980  178.6350  139.8730 C   0  0  0  0  0  0  0  0  0  0  0  0
  186.7340  178.2790  138.0090 C   0  0  0  0  0  0  0  0  0  0  0  0
  185.7560  178.1990  140.4200 C   0  0  1  0  0  3  0  0  0  0  0  0
  183.5670  178.5950  141.1660 C   0  0  2  0  0  3  0  0  0  0  0  0
  188.9880  178.9210  137.6700 C   0  0  0  0  0  3  0  0  0  0  0  0
  187.7740  178.5660  137.1820 N   0  0  0  0  0  0  0  0  0  0  0  0
  184.0030  179.3170  139.0510 C   0  0  0  0  0  2  0  0  0  0  0  0
  186.8840  178.4320  139.4050 C   0  0  0  0  0  0  0  0  0  0  0  0
  182.2990  179.3170  140.7870 C   0  0  0  0  0  2  0  0  0  0  0  0
  189.2040  178.9230  139.0090 N   0  0  0  0  0  0  0  0  0  0  0  0
  186.2890  178.3560  141.8670 C   0  0  1  0  0  3  0  0  0  0  0  0
  188.4920  178.4040  141.2520 N   0  0  0  0  0  2  0  0  0  0  0  0
  185.5570  177.7080  137.4480 N   0  0  0  0  0  1  0  0  0  0  0  0
  183.9190  178.6840  142.6470 C   0  0  0  0  0  2  0  0  0  0  0  0
  185.2300  177.9200  142.8930 C   0  0  2  0  0  3  0  0  0  0  0  0
  182.5450  179.6730  139.3290 C   0  0  2  0  0  3  0  0  0  0  0  0
  184.6380  179.1590  140.3490 N   0  0  2  0  0  0  0  0  0  0  0  0
  187.5740  177.6980  142.0490 N   0  0  0  0  0  2  0  0  0  0  0  0
  187.3580  177.7300  146.0220 C   0  0  0  0  0  0  0  0  0  0  0  0
  186.6130  178.4980  146.9220 C   0  0  0  0  0  3  0  0  0  0  0  0
  185.6970  178.1290  144.3010 C   0  0  0  0  0  0  0  0  0  0  0  0
  185.4100  179.0820  146.5170 C   0  0  0  0  0  3  0  0  0  0  0  0
  186.9000  177.5470  144.7140 C   0  0  0  0  0  3  0  0  0  0  0  0
  184.9520  178.8990  145.2080 C   0  0  0  0  0  3  0  0  0  0  0  0
  188.8630  176.9990  146.5320 Cl  0  0  0  0  0  0  0  0  0  0  0  0
  181.6230  178.9870  138.4180 N   0  0  0  0  0  2  0  0  0  0  0  0
  180.3750  179.7330  138.2640 C   0  0  0  0  0  2  0  0  0  0  0  0
  180.4100  182.5740  138.5700 F   0  0  0  0  0  0  0  0  0  0  0  0
  180.4880  180.6710  137.1140 C   0  0  0  0  0  0  0  0  0  0  0  0
  180.5110  182.0600  137.3190 C   0  0  0  0  0  0  0  0  0  0  0  0
  180.7470  182.4080  134.9320 C   0  0  0  0  0  3  0  0  0  0  0  0
  180.7300  181.0260  134.7270 C   0  0  0  0  0  3  0  0  0  0  0  0
  180.6040  180.1580  135.8170 C   0  0  0  0  0  3  0  0  0  0  0  0
  180.6370  182.9240  136.2270 C   0  0  0  0  0  3  0  0  0  0  0  0
  1 12  1  0  0  0  0
  2  8  2  0  0  0  0
  3  8  1  6  0  0  0
  3 11  1  0  0  0  0
  4  9  1  1  0  0  0
  4 14  1  0  0  0  0
  5 10  1  0  0  0  0
  6  5  2  0  0  0  0
  6  2  1  0  0  0  0
  7 16  1  0  0  0  0
  8  1  1  0  0  0  0
 10  1  2  0  0  0  0
 11 18  1  6  0  0  0
 11 15  1  0  0  0  0
 12 18  1  0  0  0  0
 13  2  1  0  0  0  0
 14 15  1  0  0  0  0
 15 21  1  1  0  0  0
 16 26  1  6  0  0  0
 16  9  1  0  0  0  0
 17  7  1  6  0  0  0
 17  3  1  0  0  0  0
 17  4  1  0  0  0  0
 19 25  1  0  0  0  0
 19 20  1  0  0  0  0
 21 23  1  0  0  0  0
 21 24  2  0  0  0  0
 22 20  2  0  0  0  0
 23 19  2  0  0  0  0
 24 22  1  0  0  0  0
 27 26  1  0  0  0  0
 29 30  1  0  0  0  0
 29 27  1  0  0  0  0
 30 28  1  0  0  0  0
 31 34  1  0  0  0  0
 32 31  2  0  0  0  0
 32 33  1  0  0  0  0
 33 29  2  0  0  0  0
 34 30  2  0  0  0  0
M  END
>  <MODEL>
8

>  <REMARK>
 VINA RESULT:      -9.4      5.261      8.764
  Name = 
  4 active torsions:
  status: ('A' for Active; 'I' for Inactive)
    1  A    between atoms: C_3  and  C_13
    2  A    between atoms: C_3  and  N_17
    3  A    between atoms: C_12  and  C_28
    4  A    between atoms: N_17  and  C_29
                            x       y       z     vdW  Elec       q    Type
                         _______ _______ _______ _____ _____    ______ ____

>  <TORSDO>
F 4

$$$$
=
 OpenBabel10252414513D

 34 39  0  0  1  0  0  0  0  0999 V2000
  188.4420  177.2090  138.4710 C   0  0  0  0  0  0  0  0  0  0  0  0
  189.9240  177.4810  140.3360 C   0  0  0  0  0  0  0  0  0  0  0  0
  187.4440  178.2390  140.5680 C   0  0  1  0  0  3  0  0  0  0  0  0
  186.1160  178.4590  142.4900 C   0  0  2  0  0  3  0  0  0  0  0  0
  190.6290  176.3340  138.3870 C   0  0  0  0  0  3  0  0  0  0  0  0
  190.8810  176.8270  139.6250 N   0  0  0  0  0  0  0  0  0  0  0  0
  188.0280  177.2560  142.7800 C   0  0  0  0  0  2  0  0  0  0  0  0
  188.6130  177.5820  139.8200 C   0  0  0  0  0  0  0  0  0  0  0  0
  185.9860  177.9520  143.9040 C   0  0  0  0  0  2  0  0  0  0  0  0
  189.4250  176.5550  137.8040 N   0  0  0  0  0  0  0  0  0  0  0  0
  186.1770  178.2670  139.6760 C   0  0  1  0  0  3  0  0  0  0  0  0
  187.2760  177.6450  137.7690 N   0  0  0  0  0  2  0  0  0  0  0  0
  190.3060  178.1580  141.5270 N   0  0  0  0  0  1  0  0  0  0  0  0
  184.7900  178.5960  141.7500 C   0  0  0  0  0  2  0  0  0  0  0  0
  185.0660  179.1070  140.3260 C   0  0  2  0  0  3  0  0  0  0  0  0
  187.3260  177.2710  144.1350 C   0  0  2  0  0  3  0  0  0  0  0  0
  187.0030  177.5360  141.7880 N   0  0  2  0  0  0  0  0  0  0  0  0
  186.4800  178.6680  138.3110 N   0  0  0  0  0  2  0  0  0  0  0  0
  182.0590  180.3160  138.3640 C   0  0  0  0  0  0  0  0  0  0  0  0
  181.4540  179.1110  137.9950 C   0  0  0  0  0  3  0  0  0  0  0  0
  183.8060  179.0900  139.5160 C   0  0  0  0  0  0  0  0  0  0  0  0
  182.0200  177.8940  138.3850 C   0  0  0  0  0  3  0  0  0  0  0  0
  183.2330  180.3050  139.1220 C   0  0  0  0  0  3  0  0  0  0  0  0
  183.1950  177.8830  139.1440 C   0  0  0  0  0  3  0  0  0  0  0  0
  181.3490  181.8380  137.8740 Cl  0  0  0  0  0  0  0  0  0  0  0  0
  188.1260  177.9370  145.1680 N   0  0  0  0  0  2  0  0  0  0  0  0
  189.5200  178.0770  144.7530 C   0  0  0  0  0  2  0  0  0  0  0  0
  191.5290  176.3070  143.7530 F   0  0  0  0  0  0  0  0  0  0  0  0
  190.3950  177.2590  145.6380 C   0  0  0  0  0  0  0  0  0  0  0  0
  191.3740  176.4120  145.0960 C   0  0  0  0  0  0  0  0  0  0  0  0
  192.0540  175.7690  147.3310 C   0  0  0  0  0  3  0  0  0  0  0  0
  191.0830  176.6160  147.8730 C   0  0  0  0  0  3  0  0  0  0  0  0
  190.2570  177.3620  147.0270 C   0  0  0  0  0  3  0  0  0  0  0  0
  192.1990  175.6670  145.9450 C   0  0  0  0  0  3  0  0  0  0  0  0
  1  8  1  0  0  0  0
  2 13  1  0  0  0  0
  3  8  1  6  0  0  0
  3 17  1  0  0  0  0
  4 14  1  6  0  0  0
  4  9  1  0  0  0  0
  5  6  2  0  0  0  0
  6  2  1  0  0  0  0
  7 16  1  0  0  0  0
  8  2  2  0  0  0  0
  9 16  1  0  0  0  0
 10  5  1  0  0  0  0
 10  1  2  0  0  0  0
 11 18  1  6  0  0  0
 11 15  1  0  0  0  0
 11  3  1  0  0  0  0
 12 18  1  0  0  0  0
 12  1  1  0  0  0  0
 15 21  1  6  0  0  0
 15 14  1  0  0  0  0
 16 26  1  1  0  0  0
 17  4  1  0  0  0  0
 17  7  1  1  0  0  0
 19 23  1  0  0  0  0
 20 19  2  0  0  0  0
 20 22  1  0  0  0  0
 22 24  2  0  0  0  0
 23 21  2  0  0  0  0
 24 21  1  0  0  0  0
 25 19  1  0  0  0  0
 27 26  1  0  0  0  0
 27 29  1  0  0  0  0
 28 30  1  0  0  0  0
 29 33  1  0  0  0  0
 30 29  2  0  0  0  0
 30 34  1  0  0  0  0
 31 32  1  0  0  0  0
 33 32  2  0  0  0  0
 34 31  2  0  0  0  0
M  END
>  <MODEL>
9

>  <REMARK>
 VINA RESULT:      -9.3      2.908      6.733
  Name = 
  4 active torsions:
  status: ('A' for Active; 'I' for Inactive)
    1  A    between atoms: C_3  and  C_13
    2  A    between atoms: C_3  and  N_17
    3  A    between atoms: C_12  and  C_28
    4  A    between atoms: N_17  and  C_29
                            x       y       z     vdW  Elec       q    Type
                         _______ _______ _______ _____ _____    ______ ____

>  <TORSDO>
F 4

$$$$
