=
 OpenBabel10262422003D

 30 32  0  0  1  0  0  0  0  0999 V2000
  186.2010  177.8650  143.0530 C   0  0  0  0  0  0  0  0  0  0  0  0
  184.1790  178.6860  141.9000 C   0  0  0  0  0  2  0  0  0  0  0  0
  185.5000  176.6020  137.5670 C   0  0  0  0  0  2  0  0  0  0  0  0
  187.6640  175.5380  137.0640 C   0  0  0  0  0  2  0  0  0  0  0  0
  187.5760  177.4720  142.9940 N   0  0  0  0  0  2  0  0  0  0  0  0
  189.7580  176.9500  141.7840 C   0  0  2  0  0  3  0  0  0  0  0  0
  188.2620  179.0520  140.9540 S   0  0  0  0  0  0  0  0  0  0  0  0
  189.2430  177.4630  137.4280 C   0  0  1  0  0  0  0  0  0  0  0  0
  189.1110  178.8170  137.2050 C   0  0  0  0  0  0  0  0  0  0  0  0
  188.4600  177.7150  141.8890 C   0  0  0  0  0  0  0  0  0  0  0  0
  189.9790  176.3810  140.3830 C   0  0  0  0  0  2  0  0  0  0  0  0
  183.7050  178.8460  140.4700 C   0  0  0  0  0  2  0  0  0  0  0  0
  190.6080  177.0680  138.0030 C   0  0  1  0  0  3  0  0  0  0  0  0
  185.5840  177.7900  144.1500 O   0  0  0  0  0  0  0  0  0  0  0  0
  184.9820  177.8410  137.9500 O   0  0  0  0  0  0  0  0  0  0  0  0
  183.5490  177.4770  139.8330 C   0  0  0  0  0  2  0  0  0  0  0  0
  185.5370  178.2730  141.8950 O   0  0  0  0  0  0  0  0  0  0  0  0
  187.9550  176.7640  137.9110 C   0  0  1  0  0  3  0  0  0  0  0  0
  188.9610  180.0000  137.6060 O   0  0  0  0  0  0  0  0  0  0  0  0
  189.2870  177.8100  136.1040 O   0  0  0  0  0  0  0  0  0  0  0  0
  192.2170  177.4000  139.9060 C   0  0  0  0  0  1  0  0  0  0  0  0
  183.6600  177.5770  138.3200 C   0  0  0  0  0  2  0  0  0  0  0  0
  186.8360  176.7890  136.8780 C   0  0  2  0  0  3  0  0  0  0  0  0
  190.7520  177.3610  139.5050 C   0  0  2  0  0  3  0  0  0  0  0  0
  190.7620  174.7070  138.2430 O   0  0  0  0  0  0  0  0  0  0  0  0
  191.8840  175.5350  136.3560 C   0  0  0  0  0  1  0  0  0  0  0  0
  191.0600  175.6930  137.5850 C   0  0  0  0  0  0  0  0  0  0  0  0
  189.9170  175.8570  142.8450 C   0  0  0  0  0  2  0  0  0  0  0  0
  191.6060  177.4320  143.7460 C   0  0  0  0  0  1  0  0  0  0  0  0
  191.2280  175.9720  143.6130 C   0  0  0  0  0  2  0  0  0  0  0  0
  1 14  2  0  0  0  0
  3 15  1  0  0  0  0
  5  1  1  0  0  0  0
  6 10  1  0  0  0  0
  6 28  1  1  0  0  0
  7 10  2  0  0  0  0
  8 20  1  6  0  0  0
  8 18  1  0  0  0  0
  8 13  1  0  0  0  0
  9  8  1  0  0  0  0
  9 19  2  0  0  0  0
 10  5  1  0  0  0  0
 11  6  1  0  0  0  0
 12  2  1  0  0  0  0
 13 27  1  1  0  0  0
 13 24  1  0  0  0  0
 15 22  1  0  0  0  0
 16 12  1  0  0  0  0
 17  2  1  0  0  0  0
 17  1  1  0  0  0  0
 18  4  1  6  0  0  0
 20  9  1  0  0  0  0
 22 16  1  0  0  0  0
 23  4  1  6  0  0  0
 23  3  1  0  0  0  0
 23 18  1  0  0  0  0
 24 21  1  1  0  0  0
 24 11  1  0  0  0  0
 26 27  1  0  0  0  0
 27 25  2  0  0  0  0
 28 30  1  0  0  0  0
 30 29  1  0  0  0  0
M  END
>  <MODEL>
1

>  <REMARK>
 VINA RESULT:      -7.6      0.000      0.000
  Name = 
  3 active torsions:
  status: ('A' for Active; 'I' for Inactive)
    1  A    between atoms: C_6  and  C_8
    2  A    between atoms: C_6  and  C_21
    3  A    between atoms: C_15  and  C_26
                            x       y       z     vdW  Elec       q    Type
                         _______ _______ _______ _____ _____    ______ ____

>  <TORSDO>
F 3

$$$$
=
 OpenBabel10262422003D

 30 32  0  0  1  0  0  0  0  0999 V2000
  186.8310  178.7400  140.9810 C   0  0  0  0  0  0  0  0  0  0  0  0
  184.7510  179.0670  139.6920 C   0  0  0  0  0  2  0  0  0  0  0  0
  185.7540  175.2610  136.6310 C   0  0  0  0  0  2  0  0  0  0  0  0
  187.8640  173.9930  136.5280 C   0  0  0  0  0  2  0  0  0  0  0  0
  188.1920  178.3010  141.0270 N   0  0  0  0  0  2  0  0  0  0  0  0
  190.2830  177.2160  140.0520 C   0  0  2  0  0  3  0  0  0  0  0  0
  188.7690  178.8140  138.4710 S   0  0  0  0  0  0  0  0  0  0  0  0
  189.4930  175.8180  135.9380 C   0  0  1  0  0  0  0  0  0  0  0  0
  189.3690  176.9470  135.1570 C   0  0  0  0  0  0  0  0  0  0  0  0
  189.0060  178.0060  139.8820 C   0  0  0  0  0  0  0  0  0  0  0  0
  190.4030  176.0880  139.0270 C   0  0  0  0  0  2  0  0  0  0  0  0
  184.1880  178.6130  138.3610 C   0  0  0  0  0  2  0  0  0  0  0  0
  190.8870  175.6530  136.5560 C   0  0  1  0  0  3  0  0  0  0  0  0
  186.2860  179.1730  142.0320 O   0  0  0  0  0  0  0  0  0  0  0  0
  185.2820  176.5650  136.4640 O   0  0  0  0  0  0  0  0  0  0  0  0
  183.9690  177.1120  138.3900 C   0  0  0  0  0  2  0  0  0  0  0  0
  186.1000  178.6360  139.7970 O   0  0  0  0  0  0  0  0  0  0  0  0
  188.2280  175.4520  136.7430 C   0  0  1  0  0  3  0  0  0  0  0  0
  189.2640  178.1930  135.0120 O   0  0  0  0  0  0  0  0  0  0  0  0
  189.4560  175.5560  134.5940 O   0  0  0  0  0  0  0  0  0  0  0  0
  192.6210  176.7050  138.0400 C   0  0  0  0  0  1  0  0  0  0  0  0
  183.9830  176.5440  136.9810 C   0  0  0  0  0  2  0  0  0  0  0  0
  187.0450  175.0760  135.8600 C   0  0  2  0  0  3  0  0  0  0  0  0
  191.1320  176.5600  137.7720 C   0  0  2  0  0  3  0  0  0  0  0  0
  190.7610  173.5270  137.6150 O   0  0  0  0  0  0  0  0  0  0  0  0
  192.3460  173.6240  135.8880 C   0  0  0  0  0  1  0  0  0  0  0  0
  191.2880  174.2140  136.7530 C   0  0  0  0  0  0  0  0  0  0  0  0
  190.4940  176.6830  141.4730 C   0  0  0  0  0  2  0  0  0  0  0  0
  191.2210  178.2500  143.2490 C   0  0  0  0  0  1  0  0  0  0  0  0
  191.6980  177.3110  142.1610 C   0  0  0  0  0  2  0  0  0  0  0  0
  1  5  1  0  0  0  0
  1 14  2  0  0  0  0
  2 17  1  0  0  0  0
  6 28  1  1  0  0  0
  7 10  2  0  0  0  0
  8 20  1  6  0  0  0
  8 13  1  0  0  0  0
  8 18  1  0  0  0  0
  9  8  1  0  0  0  0
 10  6  1  0  0  0  0
 10  5  1  0  0  0  0
 11  6  1  0  0  0  0
 12 16  1  0  0  0  0
 12  2  1  0  0  0  0
 13 27  1  1  0  0  0
 13 24  1  0  0  0  0
 15  3  1  0  0  0  0
 15 22  1  0  0  0  0
 17  1  1  0  0  0  0
 18  4  1  1  0  0  0
 19  9  2  0  0  0  0
 20  9  1  0  0  0  0
 22 16  1  0  0  0  0
 23  4  1  1  0  0  0
 23  3  1  0  0  0  0
 23 18  1  0  0  0  0
 24 21  1  1  0  0  0
 24 11  1  0  0  0  0
 26 27  1  0  0  0  0
 27 25  2  0  0  0  0
 28 30  1  0  0  0  0
 30 29  1  0  0  0  0
M  END
>  <MODEL>
2

>  <REMARK>
 VINA RESULT:      -6.3      1.780      2.079
  Name = 
  3 active torsions:
  status: ('A' for Active; 'I' for Inactive)
    1  A    between atoms: C_6  and  C_8
    2  A    between atoms: C_6  and  C_21
    3  A    between atoms: C_15  and  C_26
                            x       y       z     vdW  Elec       q    Type
                         _______ _______ _______ _____ _____    ______ ____

>  <TORSDO>
F 3

$$$$
=
 OpenBabel10262422003D

 30 32  0  0  1  0  0  0  0  0999 V2000
  185.6510  178.9810  140.7350 C   0  0  0  0  0  0  0  0  0  0  0  0
  183.2490  178.7330  140.2200 C   0  0  0  0  0  2  0  0  0  0  0  0
  183.9270  174.3240  137.9900 C   0  0  0  0  0  2  0  0  0  0  0  0
  186.0950  173.2830  137.4540 C   0  0  0  0  0  2  0  0  0  0  0  0
  187.0140  178.7030  140.4010 N   0  0  0  0  0  2  0  0  0  0  0  0
  188.8570  177.5860  139.0390 C   0  0  2  0  0  3  0  0  0  0  0  0
  186.6560  178.5200  137.7610 S   0  0  0  0  0  0  0  0  0  0  0  0
  187.0910  175.0080  135.9170 C   0  0  1  0  0  0  0  0  0  0  0  0
  186.5220  175.8530  134.9880 C   0  0  0  0  0  0  0  0  0  0  0  0
  187.4680  178.1720  139.1470 C   0  0  0  0  0  0  0  0  0  0  0  0
  188.8560  176.2300  138.3340 C   0  0  0  0  0  2  0  0  0  0  0  0
  182.3920  177.8680  139.3190 C   0  0  0  0  0  2  0  0  0  0  0  0
  188.6130  175.1570  136.0270 C   0  0  1  0  0  3  0  0  0  0  0  0
  185.3920  179.6420  141.7770 O   0  0  0  0  0  0  0  0  0  0  0  0
  183.1940  175.4770  137.6980 O   0  0  0  0  0  0  0  0  0  0  0  0
  182.4740  176.4230  139.7750 C   0  0  0  0  0  2  0  0  0  0  0  0
  184.6180  178.4770  139.9430 O   0  0  0  0  0  0  0  0  0  0  0  0
  186.2320  174.7700  137.1770 C   0  0  1  0  0  3  0  0  0  0  0  0
  186.1490  176.9900  134.6000 O   0  0  0  0  0  0  0  0  0  0  0  0
  186.6840  174.3740  134.7740 O   0  0  0  0  0  0  0  0  0  0  0  0
  190.4990  176.7450  136.5140 C   0  0  0  0  0  1  0  0  0  0  0  0
  182.1500  175.4820  138.6270 C   0  0  0  0  0  2  0  0  0  0  0  0
  184.9230  174.0490  136.8820 C   0  0  2  0  0  3  0  0  0  0  0  0
  189.0550  176.3910  136.8290 C   0  0  2  0  0  3  0  0  0  0  0  0
  189.4580  173.5610  137.5740 O   0  0  0  0  0  0  0  0  0  0  0  0
  189.8430  172.9900  135.3320 C   0  0  0  0  0  1  0  0  0  0  0  0
  189.3140  173.8780  136.4040 C   0  0  0  0  0  0  0  0  0  0  0  0
  189.5960  177.5010  140.3770 C   0  0  0  0  0  2  0  0  0  0  0  0
  192.0680  177.5310  140.5610 C   0  0  0  0  0  1  0  0  0  0  0  0
  190.8610  176.6560  140.2960 C   0  0  0  0  0  2  0  0  0  0  0  0
  1 14  2  0  0  0  0
  5  1  1  0  0  0  0
  6 10  1  0  0  0  0
  6 28  1  1  0  0  0
  7 10  2  0  0  0  0
  8 20  1  6  0  0  0
  8 13  1  0  0  0  0
  8 18  1  0  0  0  0
  9  8  1  0  0  0  0
 10  5  1  0  0  0  0
 11  6  1  0  0  0  0
 12 16  1  0  0  0  0
 12  2  1  0  0  0  0
 13 27  1  1  0  0  0
 13 24  1  0  0  0  0
 15  3  1  0  0  0  0
 15 22  1  0  0  0  0
 17  2  1  0  0  0  0
 17  1  1  0  0  0  0
 18  4  1  1  0  0  0
 19  9  2  0  0  0  0
 20  9  1  0  0  0  0
 22 16  1  0  0  0  0
 23 18  1  0  0  0  0
 23  4  1  1  0  0  0
 23  3  1  0  0  0  0
 24 21  1  1  0  0  0
 24 11  1  0  0  0  0
 26 27  1  0  0  0  0
 27 25  2  0  0  0  0
 30 28  1  0  0  0  0
 30 29  1  0  0  0  0
M  END
>  <MODEL>
3

>  <REMARK>
 VINA RESULT:      -5.9      2.304      3.141
  Name = 
  3 active torsions:
  status: ('A' for Active; 'I' for Inactive)
    1  A    between atoms: C_6  and  C_8
    2  A    between atoms: C_6  and  C_21
    3  A    between atoms: C_15  and  C_26
                            x       y       z     vdW  Elec       q    Type
                         _______ _______ _______ _____ _____    ______ ____

>  <TORSDO>
F 3

$$$$
=
 OpenBabel10262422003D

 30 32  0  0  1  0  0  0  0  0999 V2000
  188.6990  176.3140  138.3720 C   0  0  0  0  0  0  0  0  0  0  0  0
  189.4600  177.5160  140.3890 C   0  0  0  0  0  2  0  0  0  0  0  0
  184.8500  177.7910  142.2700 C   0  0  0  0  0  2  0  0  0  0  0  0
  182.7670  177.1680  141.1120 C   0  0  0  0  0  2  0  0  0  0  0  0
  187.6660  176.0430  137.4190 N   0  0  0  0  0  2  0  0  0  0  0  0
  185.3000  176.2330  136.4900 C   0  0  2  0  0  3  0  0  0  0  0  0
  186.4710  178.4260  137.5710 S   0  0  0  0  0  0  0  0  0  0  0  0
  182.8190  178.7400  139.1480 C   0  0  1  0  0  0  0  0  0  0  0  0
  183.2820  180.0320  139.0140 C   0  0  0  0  0  0  0  0  0  0  0  0
  186.4650  176.8120  137.2580 C   0  0  0  0  0  0  0  0  0  0  0  0
  183.9760  176.4070  137.2340 C   0  0  0  0  0  2  0  0  0  0  0  0
  188.8270  178.3210  141.5050 C   0  0  0  0  0  2  0  0  0  0  0  0
  182.2290  178.1660  137.8550 C   0  0  1  0  0  3  0  0  0  0  0  0
  189.7990  175.7050  138.2800 O   0  0  0  0  0  0  0  0  0  0  0  0
  185.9200  178.6800  142.1410 O   0  0  0  0  0  0  0  0  0  0  0  0
  187.9420  177.4170  142.3430 C   0  0  0  0  0  2  0  0  0  0  0  0
  188.4670  177.2020  139.4240 O   0  0  0  0  0  0  0  0  0  0  0  0
  183.6580  177.8530  140.0910 C   0  0  1  0  0  3  0  0  0  0  0  0
  184.1180  180.8760  138.5980 O   0  0  0  0  0  0  0  0  0  0  0  0
  182.0190  179.6770  139.7470 O   0  0  0  0  0  0  0  0  0  0  0  0
  182.6900  177.6060  135.4490 C   0  0  0  0  0  1  0  0  0  0  0  0
  186.8740  178.2280  143.0570 C   0  0  0  0  0  2  0  0  0  0  0  0
  183.6380  178.3290  141.5380 C   0  0  2  0  0  3  0  0  0  0  0  0
  183.2910  177.7130  136.8410 C   0  0  2  0  0  3  0  0  0  0  0  0
  181.3670  175.9850  138.2570 O   0  0  0  0  0  0  0  0  0  0  0  0
  179.7090  177.6410  138.1230 C   0  0  0  0  0  1  0  0  0  0  0  0
  181.1220  177.1710  138.0930 C   0  0  0  0  0  0  0  0  0  0  0  0
  185.5000  174.7730  136.0730 C   0  0  0  0  0  2  0  0  0  0  0  0
  185.3430  172.9670  137.7630 C   0  0  0  0  0  1  0  0  0  0  0  0
  184.5540  173.8230  136.7940 C   0  0  0  0  0  2  0  0  0  0  0  0
  1 17  1  0  0  0  0
  2 12  1  0  0  0  0
  5  1  1  0  0  0  0
  6 28  1  1  0  0  0
  6 11  1  0  0  0  0
  6 10  1  0  0  0  0
  8  9  1  6  0  0  0
  8 20  1  0  0  0  0
  8 18  1  0  0  0  0
  9 20  1  0  0  0  0
 10  5  1  0  0  0  0
 10  7  2  0  0  0  0
 12 16  1  0  0  0  0
 13 27  1  1  0  0  0
 13  8  1  0  0  0  0
 14  1  2  0  0  0  0
 15  3  1  0  0  0  0
 15 22  1  0  0  0  0
 16 22  1  0  0  0  0
 17  2  1  0  0  0  0
 18  4  1  1  0  0  0
 18 23  1  0  0  0  0
 19  9  2  0  0  0  0
 23  4  1  1  0  0  0
 23  3  1  0  0  0  0
 24 21  1  6  0  0  0
 24 11  1  0  0  0  0
 24 13  1  0  0  0  0
 27 26  1  0  0  0  0
 27 25  2  0  0  0  0
 28 30  1  0  0  0  0
 30 29  1  0  0  0  0
M  END
>  <MODEL>
4

>  <REMARK>
 VINA RESULT:      -5.3      2.497      7.218
  Name = 
  3 active torsions:
  status: ('A' for Active; 'I' for Inactive)
    1  A    between atoms: C_6  and  C_8
    2  A    between atoms: C_6  and  C_21
    3  A    between atoms: C_15  and  C_26
                            x       y       z     vdW  Elec       q    Type
                         _______ _______ _______ _____ _____    ______ ____

>  <TORSDO>
F 3

$$$$
=
 OpenBabel10262422003D

 30 32  0  0  1  0  0  0  0  0999 V2000
  183.7880  178.4050  141.1620 C   0  0  0  0  0  0  0  0  0  0  0  0
  181.6510  177.5400  140.2790 C   0  0  0  0  0  2  0  0  0  0  0  0
  183.9140  174.0560  137.5210 C   0  0  0  0  0  2  0  0  0  0  0  0
  186.3400  173.8450  137.1460 C   0  0  0  0  0  2  0  0  0  0  0  0
  185.1910  178.6240  140.9880 N   0  0  0  0  0  2  0  0  0  0  0  0
  187.4070  178.4010  139.7470 C   0  0  2  0  0  3  0  0  0  0  0  0
  185.1420  178.8460  138.3270 S   0  0  0  0  0  0  0  0  0  0  0  0
  186.8510  176.0510  136.0490 C   0  0  1  0  0  0  0  0  0  0  0  0
  186.1210  176.8430  135.1880 C   0  0  0  0  0  0  0  0  0  0  0  0
  185.9000  178.5050  139.7450 C   0  0  0  0  0  0  0  0  0  0  0  0
  187.9080  177.2700  138.8500 C   0  0  0  0  0  2  0  0  0  0  0  0
  181.2020  176.6440  139.1430 C   0  0  0  0  0  2  0  0  0  0  0  0
  188.2260  176.6330  136.3950 C   0  0  1  0  0  3  0  0  0  0  0  0
  183.2400  178.7450  142.2450 O   0  0  0  0  0  0  0  0  0  0  0  0
  182.8750  174.9640  137.3070 O   0  0  0  0  0  0  0  0  0  0  0  0
  181.7090  175.2330  139.3810 C   0  0  0  0  0  2  0  0  0  0  0  0
  183.0470  177.7700  140.1630 O   0  0  0  0  0  0  0  0  0  0  0  0
  186.0110  175.3280  137.1220 C   0  0  1  0  0  3  0  0  0  0  0  0
  185.4340  177.8650  134.9290 O   0  0  0  0  0  0  0  0  0  0  0  0
  186.7720  175.5520  134.7760 O   0  0  0  0  0  0  0  0  0  0  0  0
  189.4450  178.5970  137.3840 C   0  0  0  0  0  1  0  0  0  0  0  0
  181.8090  174.4740  138.0680 C   0  0  0  0  0  2  0  0  0  0  0  0
  185.0370  174.3130  136.5370 C   0  0  2  0  0  3  0  0  0  0  0  0
  188.1730  177.7670  137.4320 C   0  0  2  0  0  3  0  0  0  0  0  0
  189.5280  175.2320  137.8100 O   0  0  0  0  0  0  0  0  0  0  0  0
  190.0000  174.9610  135.5280 C   0  0  0  0  0  1  0  0  0  0  0  0
  189.2700  175.5800  136.6680 C   0  0  0  0  0  0  0  0  0  0  0  0
  188.0150  178.2930  141.1480 C   0  0  0  0  0  2  0  0  0  0  0  0
  189.1670  176.6380  142.5900 C   0  0  0  0  0  1  0  0  0  0  0  0
  189.1490  177.2780  141.2180 C   0  0  0  0  0  2  0  0  0  0  0  0
  1 14  2  0  0  0  0
  5  1  1  0  0  0  0
  6 28  1  1  0  0  0
  7 10  2  0  0  0  0
  8 20  1  6  0  0  0
  8 13  1  0  0  0  0
  8 18  1  0  0  0  0
  9  8  1  0  0  0  0
 10  6  1  0  0  0  0
 10  5  1  0  0  0  0
 11  6  1  0  0  0  0
 12 16  1  0  0  0  0
 12  2  1  0  0  0  0
 13 27  1  1  0  0  0
 13 24  1  0  0  0  0
 15  3  1  0  0  0  0
 15 22  1  0  0  0  0
 17  2  1  0  0  0  0
 17  1  1  0  0  0  0
 18  4  1  1  0  0  0
 19  9  2  0  0  0  0
 20  9  1  0  0  0  0
 22 16  1  0  0  0  0
 23 18  1  0  0  0  0
 23  4  1  1  0  0  0
 23  3  1  0  0  0  0
 24 21  1  1  0  0  0
 24 11  1  0  0  0  0
 26 27  1  0  0  0  0
 27 25  2  0  0  0  0
 28 30  1  0  0  0  0
 30 29  1  0  0  0  0
M  END
>  <MODEL>
5

>  <REMARK>
 VINA RESULT:      -4.8      2.351      3.252
  Name = 
  3 active torsions:
  status: ('A' for Active; 'I' for Inactive)
    1  A    between atoms: C_6  and  C_8
    2  A    between atoms: C_6  and  C_21
    3  A    between atoms: C_15  and  C_26
                            x       y       z     vdW  Elec       q    Type
                         _______ _______ _______ _____ _____    ______ ____

>  <TORSDO>
F 3

$$$$
=
 OpenBabel10262422003D

 30 32  0  0  1  0  0  0  0  0999 V2000
  182.3020  178.6280  141.4140 C   0  0  0  0  0  0  0  0  0  0  0  0
  180.0700  177.6780  140.9570 C   0  0  0  0  0  2  0  0  0  0  0  0
  181.9150  174.1350  137.9710 C   0  0  0  0  0  2  0  0  0  0  0  0
  184.2410  173.9660  137.1790 C   0  0  0  0  0  2  0  0  0  0  0  0
  183.6450  178.8730  140.9850 N   0  0  0  0  0  2  0  0  0  0  0  0
  185.6120  178.6500  139.3800 C   0  0  2  0  0  3  0  0  0  0  0  0
  183.1190  178.9830  138.3690 S   0  0  0  0  0  0  0  0  0  0  0  0
  184.4830  176.1360  135.9280 C   0  0  1  0  0  0  0  0  0  0  0  0
  183.5890  176.8740  135.1820 C   0  0  0  0  0  0  0  0  0  0  0  0
  184.1260  178.7180  139.6410 C   0  0  0  0  0  0  0  0  0  0  0  0
  185.9810  177.4940  138.4500 C   0  0  0  0  0  2  0  0  0  0  0  0
  179.4550  176.7240  139.9530 C   0  0  0  0  0  2  0  0  0  0  0  0
  185.8800  176.7630  136.0030 C   0  0  1  0  0  3  0  0  0  0  0  0
  181.9440  179.0000  142.5640 O   0  0  0  0  0  0  0  0  0  0  0  0
  180.8270  175.0090  137.9120 O   0  0  0  0  0  0  0  0  0  0  0  0
  180.0380  175.3370  140.1480 C   0  0  0  0  0  2  0  0  0  0  0  0
  181.4160  177.9350  140.5870 O   0  0  0  0  0  0  0  0  0  0  0  0
  183.8680  175.4380  137.1590 C   0  0  1  0  0  3  0  0  0  0  0  0
  182.8360  177.8670  135.0120 O   0  0  0  0  0  0  0  0  0  0  0  0
  184.1960  175.5820  134.7090 O   0  0  0  0  0  0  0  0  0  0  0  0
  187.1940  178.7940  136.6860 C   0  0  0  0  0  1  0  0  0  0  0  0
  179.9280  174.5270  138.8680 C   0  0  0  0  0  2  0  0  0  0  0  0
  182.8380  174.3770  136.7950 C   0  0  2  0  0  3  0  0  0  0  0  0
  185.9760  177.9370  136.9900 C   0  0  2  0  0  3  0  0  0  0  0  0
  187.3410  175.3320  137.2170 O   0  0  0  0  0  0  0  0  0  0  0  0
  187.6610  175.2490  134.8940 C   0  0  0  0  0  1  0  0  0  0  0  0
  186.9870  175.7480  136.1250 C   0  0  0  0  0  0  0  0  0  0  0  0
  186.4620  178.6140  140.6530 C   0  0  0  0  0  2  0  0  0  0  0  0
  188.6440  178.0630  141.6910 C   0  0  0  0  0  1  0  0  0  0  0  0
  187.9160  178.2540  140.3780 C   0  0  0  0  0  2  0  0  0  0  0  0
  1 14  2  0  0  0  0
  5  1  1  0  0  0  0
  6 10  1  0  0  0  0
  6 28  1  1  0  0  0
  7 10  2  0  0  0  0
  8 20  1  6  0  0  0
  8 13  1  0  0  0  0
  8 18  1  0  0  0  0
  9  8  1  0  0  0  0
 10  5  1  0  0  0  0
 11  6  1  0  0  0  0
 12 16  1  0  0  0  0
 12  2  1  0  0  0  0
 13 27  1  1  0  0  0
 13 24  1  0  0  0  0
 15  3  1  0  0  0  0
 15 22  1  0  0  0  0
 17  2  1  0  0  0  0
 17  1  1  0  0  0  0
 18  4  1  6  0  0  0
 19  9  2  0  0  0  0
 20  9  1  0  0  0  0
 22 16  1  0  0  0  0
 23 18  1  0  0  0  0
 23  4  1  1  0  0  0
 23  3  1  0  0  0  0
 24 21  1  6  0  0  0
 24 11  1  0  0  0  0
 26 27  1  0  0  0  0
 27 25  2  0  0  0  0
 30 28  1  0  0  0  0
 30 29  1  0  0  0  0
M  END
>  <MODEL>
6

>  <REMARK>
 VINA RESULT:      -4.6      3.221      4.895
  Name = 
  3 active torsions:
  status: ('A' for Active; 'I' for Inactive)
    1  A    between atoms: C_6  and  C_8
    2  A    between atoms: C_6  and  C_21
    3  A    between atoms: C_15  and  C_26
                            x       y       z     vdW  Elec       q    Type
                         _______ _______ _______ _____ _____    ______ ____

>  <TORSDO>
F 3

$$$$
