=
 OpenBabel10262420023D

 27 31  0  0  1  0  0  0  0  0999 V2000
  188.9330  176.8530  140.9220 C   0  0  2  0  0  3  0  0  0  0  0  0
  188.0060  178.5900  142.9570 C   0  0  2  0  0  3  0  0  0  0  0  0
  188.1450  178.0770  140.4140 C   0  0  1  0  0  3  0  0  0  0  0  0
  183.8020  178.0380  142.3340 C   0  0  0  0  0  3  0  0  0  0  0  0
  181.7570  178.3960  141.0490 N   0  0  0  0  0  1  0  0  0  0  0  0
  187.2950  177.4010  143.6060 C   0  0  0  0  0  2  0  0  0  0  0  0
  191.6690  176.7060  144.6260 O   0  0  0  0  0  0  0  0  0  0  0  0
  185.3030  179.2320  140.3020 C   0  0  0  0  0  3  0  0  0  0  0  0
  189.9600  177.1870  142.0220 C   0  0  1  0  0  3  0  0  0  0  0  0
  189.1310  179.5280  137.2450 O   0  0  0  0  0  1  0  0  0  0  0  0
  190.1400  178.5020  144.3120 C   0  0  0  0  0  2  0  0  0  0  0  0
  183.9180  179.1130  140.1700 C   0  0  0  0  0  3  0  0  0  0  0  0
  190.1390  176.7910  136.8270 F   0  0  0  0  0  0  0  0  0  0  0  0
  187.4540  178.8670  141.5410 C   0  0  1  0  0  3  0  0  0  0  0  0
  189.5220  178.3860  142.9120 C   0  0  2  0  0  3  0  0  0  0  0  0
  183.1690  178.5120  141.1830 C   0  0  0  0  0  0  0  0  0  0  0  0
  185.1900  178.1420  142.4710 C   0  0  0  0  0  0  0  0  0  0  0  0
  189.5320  176.0090  139.7900 C   0  0  0  0  0  2  0  0  0  0  0  0
  185.9510  178.7510  141.4480 C   0  0  0  0  0  0  0  0  0  0  0  0
  189.0980  178.4720  138.1540 C   0  0  1  0  0  3  0  0  0  0  0  0
  185.8130  177.7080  143.7650 C   0  0  0  0  0  2  0  0  0  0  0  0
  190.3280  177.5830  137.9440 C   0  0  1  0  0  3  0  0  0  0  0  0
  191.6000  178.0760  144.3490 C   0  0  0  0  0  2  0  0  0  0  0  0
  190.7210  176.7080  139.1370 C   0  0  0  0  0  2  0  0  0  0  0  0
  191.7150  176.0550  143.3870 C   0  0  0  0  0  2  0  0  0  0  0  0
  188.9890  179.0240  139.5680 C   0  0  0  0  0  2  0  0  0  0  0  0
  190.3140  175.9220  142.8030 C   0  0  0  0  0  2  0  0  0  0  0  0
  1 18  1  6  0  0  0
  1  9  1  0  0  0  0
  2  6  1  6  0  0  0
  3 26  1  1  0  0  0
  3  1  1  0  0  0  0
  3 14  1  0  0  0  0
  4 17  1  0  0  0  0
  5 16  1  0  0  0  0
  6 21  1  0  0  0  0
  8 19  1  0  0  0  0
  9 27  1  1  0  0  0
  9 15  1  0  0  0  0
 11 23  1  0  0  0  0
 12  8  2  0  0  0  0
 12 16  1  0  0  0  0
 14 19  1  1  0  0  0
 14  2  1  0  0  0  0
 15  2  1  0  0  0  0
 15 11  1  1  0  0  0
 16  4  2  0  0  0  0
 17 21  1  0  0  0  0
 19 17  2  0  0  0  0
 20 10  1  6  0  0  0
 20 26  1  0  0  0  0
 22 13  1  6  0  0  0
 22 20  1  0  0  0  0
 22 24  1  0  0  0  0
 23  7  1  0  0  0  0
 24 18  1  0  0  0  0
 25  7  1  0  0  0  0
 27 25  1  0  0  0  0
M  END
>  <MODEL>
1

>  <REMARK>
 VINA RESULT:      -7.5      0.000      0.000
  Name = 
  0 active torsions:
  status: ('A' for Active; 'I' for Inactive)
                            x       y       z     vdW  Elec       q    Type
                         _______ _______ _______ _____ _____    ______ ____

>  <TORSDO>
F 0

$$$$
=
 OpenBabel10262420023D

 27 31  0  0  1  0  0  0  0  0999 V2000
  189.0880  176.2910  138.2280 C   0  0  2  0  0  3  0  0  0  0  0  0
  190.5570  177.4730  140.3400 C   0  0  2  0  0  3  0  0  0  0  0  0
  188.5120  177.6240  138.7450 C   0  0  1  0  0  3  0  0  0  0  0  0
  187.5430  177.2090  143.3750 C   0  0  0  0  0  3  0  0  0  0  0  0
  185.4420  177.9370  144.3830 N   0  0  0  0  0  1  0  0  0  0  0  0
  190.3970  176.1760  141.1360 C   0  0  0  0  0  2  0  0  0  0  0  0
  193.5420  175.1290  138.0260 O   0  0  0  0  0  0  0  0  0  0  0  0
  187.0620  178.8430  141.1600 C   0  0  0  0  0  3  0  0  0  0  0  0
  190.6180  176.3040  138.0390 C   0  0  1  0  0  3  0  0  0  0  0  0
  186.8960  179.8110  136.3520 O   0  0  0  0  0  1  0  0  0  0  0  0
  192.8250  176.9850  139.3320 C   0  0  0  0  0  2  0  0  0  0  0  0
  186.1410  178.7990  142.2090 C   0  0  0  0  0  3  0  0  0  0  0  0
  186.5260  177.2470  134.9490 F   0  0  0  0  0  0  0  0  0  0  0  0
  189.1860  178.1170  140.0390 C   0  0  1  0  0  3  0  0  0  0  0  0
  191.3400  177.2470  139.0440 C   0  0  2  0  0  3  0  0  0  0  0  0
  186.3790  177.9780  143.3130 C   0  0  0  0  0  0  0  0  0  0  0  0
  188.4670  177.2380  142.3250 C   0  0  0  0  0  0  0  0  0  0  0  0
  188.3450  175.7490  137.0000 C   0  0  0  0  0  2  0  0  0  0  0  0
  188.2290  178.0690  141.2060 C   0  0  0  0  0  0  0  0  0  0  0  0
  187.3580  178.5590  136.7540 C   0  0  1  0  0  3  0  0  0  0  0  0
  189.7460  176.4710  142.4790 C   0  0  0  0  0  2  0  0  0  0  0  0
  187.6940  177.7210  135.5150 C   0  0  1  0  0  3  0  0  0  0  0  0
  193.5910  176.5260  138.1000 C   0  0  0  0  0  2  0  0  0  0  0  0
  188.6650  176.5600  135.7470 C   0  0  0  0  0  2  0  0  0  0  0  0
  192.4430  174.8160  137.2170 C   0  0  0  0  0  2  0  0  0  0  0  0
  188.5370  178.7330  137.6990 C   0  0  0  0  0  2  0  0  0  0  0  0
  191.1520  174.8730  138.0250 C   0  0  0  0  0  2  0  0  0  0  0  0
  1 18  1  6  0  0  0
  1  3  1  0  0  0  0
  2  6  1  6  0  0  0
  3 26  1  6  0  0  0
  3 14  1  0  0  0  0
  6 21  1  0  0  0  0
  7 23  1  0  0  0  0
  8 19  2  0  0  0  0
  8 12  1  0  0  0  0
  9 27  1  1  0  0  0
  9  1  1  0  0  0  0
  9 15  1  0  0  0  0
 12 16  2  0  0  0  0
 14  2  1  0  0  0  0
 14 19  1  1  0  0  0
 15 11  1  1  0  0  0
 15  2  1  0  0  0  0
 16  4  1  0  0  0  0
 16  5  1  0  0  0  0
 17 21  1  0  0  0  0
 17  4  2  0  0  0  0
 19 17  1  0  0  0  0
 20 10  1  6  0  0  0
 20 26  1  0  0  0  0
 22 13  1  1  0  0  0
 22 24  1  0  0  0  0
 22 20  1  0  0  0  0
 23 11  1  0  0  0  0
 24 18  1  0  0  0  0
 25 27  1  0  0  0  0
 25  7  1  0  0  0  0
M  END
>  <MODEL>
2

>  <REMARK>
 VINA RESULT:      -7.1      2.489      4.097
  Name = 
  0 active torsions:
  status: ('A' for Active; 'I' for Inactive)
                            x       y       z     vdW  Elec       q    Type
                         _______ _______ _______ _____ _____    ______ ____

>  <TORSDO>
F 0

$$$$
=
 OpenBabel10262420023D

 27 31  0  0  1  0  0  0  0  0999 V2000
  186.7220  177.2170  143.6190 C   0  0  2  0  0  3  0  0  0  0  0  0
  184.9910  179.3290  144.3680 C   0  0  2  0  0  3  0  0  0  0  0  0
  186.4270  178.2350  142.5000 C   0  0  1  0  0  3  0  0  0  0  0  0
  181.7420  178.3930  141.7350 C   0  0  0  0  0  3  0  0  0  0  0  0
  180.7370  178.3110  139.5110 N   0  0  0  0  0  1  0  0  0  0  0  0
  183.9530  178.2880  144.7890 C   0  0  0  0  0  2  0  0  0  0  0  0
  187.0330  178.1190  148.1260 O   0  0  0  0  0  0  0  0  0  0  0  0
  184.1860  179.1570  140.6150 C   0  0  0  0  0  3  0  0  0  0  0  0
  187.0240  177.8630  144.9860 C   0  0  1  0  0  3  0  0  0  0  0  0
  189.0640  178.9480  140.1220 O   0  0  0  0  0  1  0  0  0  0  0  0
  186.0550  179.6940  146.6340 C   0  0  0  0  0  2  0  0  0  0  0  0
  183.0820  178.9280  139.7910 C   0  0  0  0  0  3  0  0  0  0  0  0
  189.9210  176.2560  140.9600 F   0  0  0  0  0  0  0  0  0  0  0  0
  185.3050  179.2270  142.8600 C   0  0  1  0  0  3  0  0  0  0  0  0
  186.2750  179.2110  145.1940 C   0  0  2  0  0  3  0  0  0  0  0  0
  181.8620  178.5410  140.3510 C   0  0  0  0  0  0  0  0  0  0  0  0
  182.8460  178.6100  142.5670 C   0  0  0  0  0  0  0  0  0  0  0  0
  187.7640  176.1650  143.2190 C   0  0  0  0  0  2  0  0  0  0  0  0
  184.0810  179.0030  142.0040 C   0  0  0  0  0  0  0  0  0  0  0  0
  188.4670  178.1380  141.0870 C   0  0  1  0  0  3  0  0  0  0  0  0
  182.6450  178.5340  144.0510 C   0  0  0  0  0  2  0  0  0  0  0  0
  189.5450  177.3000  141.7830 C   0  0  1  0  0  3  0  0  0  0  0  0
  187.2310  179.3780  147.5460 C   0  0  0  0  0  2  0  0  0  0  0  0
  189.1700  176.7590  143.1650 C   0  0  0  0  0  2  0  0  0  0  0  0
  187.6820  177.1970  147.2980 C   0  0  0  0  0  2  0  0  0  0  0  0
  187.6640  179.0030  142.0470 C   0  0  0  0  0  2  0  0  0  0  0  0
  186.8050  176.8440  146.1020 C   0  0  0  0  0  2  0  0  0  0  0  0
  1 18  1  6  0  0  0
  1  9  1  0  0  0  0
  2  6  1  1  0  0  0
  2 15  1  0  0  0  0
  3 26  1  1  0  0  0
  3 14  1  0  0  0  0
  3  1  1  0  0  0  0
  4 17  1  0  0  0  0
  5 16  1  0  0  0  0
  8 19  1  0  0  0  0
  9 15  1  0  0  0  0
  9 27  1  1  0  0  0
 11 23  1  0  0  0  0
 12 16  1  0  0  0  0
 12  8  2  0  0  0  0
 14 19  1  6  0  0  0
 14  2  1  0  0  0  0
 15 11  1  1  0  0  0
 16  4  2  0  0  0  0
 17 21  1  0  0  0  0
 19 17  2  0  0  0  0
 20 10  1  6  0  0  0
 20 22  1  0  0  0  0
 20 26  1  0  0  0  0
 21  6  1  0  0  0  0
 22 13  1  6  0  0  0
 22 24  1  0  0  0  0
 23  7  1  0  0  0  0
 24 18  1  0  0  0  0
 25  7  1  0  0  0  0
 27 25  1  0  0  0  0
M  END
>  <MODEL>
3

>  <REMARK>
 VINA RESULT:      -6.9      2.385      3.640
  Name = 
  0 active torsions:
  status: ('A' for Active; 'I' for Inactive)
                            x       y       z     vdW  Elec       q    Type
                         _______ _______ _______ _____ _____    ______ ____

>  <TORSDO>
F 0

$$$$
=
 OpenBabel10262420023D

 27 31  0  0  1  0  0  0  0  0999 V2000
  187.6240  178.5680  142.6200 C   0  0  2  0  0  3  0  0  0  0  0  0
  185.4580  177.6980  144.2210 C   0  0  2  0  0  3  0  0  0  0  0  0
  187.9720  177.4440  143.6170 C   0  0  1  0  0  3  0  0  0  0  0  0
  187.0050  178.9240  148.0250 C   0  0  0  0  0  3  0  0  0  0  0  0
  188.5430  178.6610  149.9020 N   0  0  0  0  0  1  0  0  0  0  0  0
  185.2620  179.1420  144.6870 C   0  0  0  0  0  2  0  0  0  0  0  0
  183.6000  179.1590  140.4570 O   0  0  0  0  0  0  0  0  0  0  0  0
  188.3600  176.9270  146.6170 C   0  0  0  0  0  3  0  0  0  0  0  0
  186.2970  178.3450  141.8670 C   0  0  1  0  0  3  0  0  0  0  0  0
  190.4480  174.9980  142.6170 O   0  0  0  0  0  1  0  0  0  0  0  0
  183.7710  177.7090  142.3360 C   0  0  0  0  0  2  0  0  0  0  0  0
  188.7860  177.2910  147.8970 C   0  0  0  0  0  3  0  0  0  0  0  0
  191.2990  177.2370  140.9000 F   0  0  0  0  0  0  0  0  0  0  0  0
  186.8470  177.1610  144.6300 C   0  0  1  0  0  3  0  0  0  0  0  0
  185.2520  177.5590  142.7100 C   0  0  2  0  0  3  0  0  0  0  0  0
  188.1120  178.2930  148.5970 C   0  0  0  0  0  0  0  0  0  0  0  0
  186.5780  178.5730  146.7400 C   0  0  0  0  0  0  0  0  0  0  0  0
  188.7850  178.9190  141.6800 C   0  0  0  0  0  2  0  0  0  0  0  0
  187.2570  177.5590  146.0280 C   0  0  0  0  0  0  0  0  0  0  0  0
  189.8410  176.2480  142.5020 C   0  0  1  0  0  3  0  0  0  0  0  0
  185.3280  179.2090  146.2050 C   0  0  0  0  0  2  0  0  0  0  0  0
  190.0110  176.7650  141.0700 C   0  0  1  0  0  3  0  0  0  0  0  0
  183.5510  177.8120  140.8340 C   0  0  0  0  0  2  0  0  0  0  0  0
  189.0070  177.8340  140.6300 C   0  0  0  0  0  2  0  0  0  0  0  0
  184.9240  179.4160  140.0820 C   0  0  0  0  0  2  0  0  0  0  0  0
  188.3860  176.1450  142.9360 C   0  0  0  0  0  2  0  0  0  0  0  0
  185.7860  179.6730  141.3120 C   0  0  0  0  0  2  0  0  0  0  0  0
  1 18  1  6  0  0  0
  1  3  1  0  0  0  0
  2 14  1  0  0  0  0
  2  6  1  6  0  0  0
  3 26  1  6  0  0  0
  3 14  1  0  0  0  0
  4 16  1  0  0  0  0
  6 21  1  0  0  0  0
  7 23  1  0  0  0  0
  8 12  1  0  0  0  0
  9 27  1  1  0  0  0
  9  1  1  0  0  0  0
  9 15  1  0  0  0  0
 12 16  2  0  0  0  0
 14 19  1  1  0  0  0
 15 11  1  1  0  0  0
 15  2  1  0  0  0  0
 16  5  1  0  0  0  0
 17  4  2  0  0  0  0
 19  8  2  0  0  0  0
 19 17  1  0  0  0  0
 20 10  1  6  0  0  0
 20 26  1  0  0  0  0
 21 17  1  0  0  0  0
 22 13  1  1  0  0  0
 22 20  1  0  0  0  0
 23 11  1  0  0  0  0
 24 22  1  0  0  0  0
 24 18  1  0  0  0  0
 25  7  1  0  0  0  0
 25 27  1  0  0  0  0
M  END
>  <MODEL>
4

>  <REMARK>
 VINA RESULT:      -6.8      3.348      6.033
  Name = 
  0 active torsions:
  status: ('A' for Active; 'I' for Inactive)
                            x       y       z     vdW  Elec       q    Type
                         _______ _______ _______ _____ _____    ______ ____

>  <TORSDO>
F 0

$$$$
=
 OpenBabel10262420023D

 27 31  0  0  1  0  0  0  0  0999 V2000
  188.9630  175.2890  137.4580 C   0  0  2  0  0  3  0  0  0  0  0  0
  190.5360  177.2330  138.7860 C   0  0  2  0  0  3  0  0  0  0  0  0
  188.2760  176.6570  137.6420 C   0  0  1  0  0  3  0  0  0  0  0  0
  188.0890  177.6930  142.2730 C   0  0  0  0  0  3  0  0  0  0  0  0
  186.0770  178.5070  143.3910 N   0  0  0  0  0  1  0  0  0  0  0  0
  190.6970  176.2600  139.9550 C   0  0  0  0  0  2  0  0  0  0  0  0
  193.4600  174.5560  136.7750 O   0  0  0  0  0  0  0  0  0  0  0  0
  187.0380  178.4560  139.7990 C   0  0  0  0  0  3  0  0  0  0  0  0
  190.4280  175.3860  136.9860 C   0  0  1  0  0  3  0  0  0  0  0  0
  186.0070  177.7730  135.0500 O   0  0  0  0  0  1  0  0  0  0  0  0
  192.6750  176.6600  137.5620 C   0  0  0  0  0  2  0  0  0  0  0  0
  186.3020  178.6710  140.9660 C   0  0  0  0  0  3  0  0  0  0  0  0
  185.8230  174.8680  134.5960 F   0  0  0  0  0  0  0  0  0  0  0  0
  189.0540  177.6080  138.5690 C   0  0  1  0  0  3  0  0  0  0  0  0
  191.1420  176.6700  137.4970 C   0  0  2  0  0  3  0  0  0  0  0  0
  186.8250  178.2850  142.2020 C   0  0  0  0  0  0  0  0  0  0  0  0
  188.8280  177.4640  141.1080 C   0  0  0  0  0  0  0  0  0  0  0  0
  188.1360  174.3060  136.6210 C   0  0  0  0  0  2  0  0  0  0  0  0
  188.3020  177.8550  139.8560 C   0  0  0  0  0  0  0  0  0  0  0  0
  186.7080  176.7720  135.7190 C   0  0  1  0  0  3  0  0  0  0  0  0
  190.2180  176.9160  141.2420 C   0  0  0  0  0  2  0  0  0  0  0  0
  186.9770  175.6100  134.7560 C   0  0  1  0  0  3  0  0  0  0  0  0
  193.3080  175.8980  136.4070 C   0  0  0  0  0  2  0  0  0  0  0  0
  188.1360  174.6880  135.1420 C   0  0  0  0  0  2  0  0  0  0  0  0
  192.3130  173.8910  136.3260 C   0  0  0  0  0  2  0  0  0  0  0  0
  187.9760  177.3590  136.3230 C   0  0  0  0  0  2  0  0  0  0  0  0
  191.1640  174.0870  137.3090 C   0  0  0  0  0  2  0  0  0  0  0  0
  1 18  1  6  0  0  0
  1  3  1  0  0  0  0
  2  6  1  1  0  0  0
  3 26  1  6  0  0  0
  3 14  1  0  0  0  0
  6 21  1  0  0  0  0
  8 19  2  0  0  0  0
  8 12  1  0  0  0  0
  9 27  1  1  0  0  0
  9  1  1  0  0  0  0
  9 15  1  0  0  0  0
 12 16  2  0  0  0  0
 14  2  1  0  0  0  0
 14 19  1  1  0  0  0
 15 11  1  1  0  0  0
 15  2  1  0  0  0  0
 16  4  1  0  0  0  0
 16  5  1  0  0  0  0
 17 21  1  0  0  0  0
 17  4  2  0  0  0  0
 19 17  1  0  0  0  0
 20 10  1  6  0  0  0
 20 26  1  0  0  0  0
 22 13  1  1  0  0  0
 22 24  1  0  0  0  0
 22 20  1  0  0  0  0
 23  7  1  0  0  0  0
 23 11  1  0  0  0  0
 24 18  1  0  0  0  0
 25  7  1  0  0  0  0
 25 27  1  0  0  0  0
M  END
>  <MODEL>
5

>  <REMARK>
 VINA RESULT:      -6.2      3.155      5.079
  Name = 
  0 active torsions:
  status: ('A' for Active; 'I' for Inactive)
                            x       y       z     vdW  Elec       q    Type
                         _______ _______ _______ _____ _____    ______ ____

>  <TORSDO>
F 0

$$$$
=
 OpenBabel10262420023D

 27 31  0  0  1  0  0  0  0  0999 V2000
  187.2610  174.7960  137.0390 C   0  0  2  0  0  3  0  0  0  0  0  0
  188.7260  177.2130  137.2050 C   0  0  2  0  0  3  0  0  0  0  0  0
  186.4020  176.0750  136.9780 C   0  0  1  0  0  3  0  0  0  0  0  0
  187.1220  178.6220  140.9200 C   0  0  0  0  0  3  0  0  0  0  0  0
  185.3160  179.5860  142.2500 N   0  0  0  0  0  1  0  0  0  0  0  0
  189.3280  176.7220  138.5220 C   0  0  0  0  0  2  0  0  0  0  0  0
  191.5290  174.2850  135.3810 O   0  0  0  0  0  0  0  0  0  0  0  0
  185.4010  178.3870  138.7310 C   0  0  0  0  0  3  0  0  0  0  0  0
  188.5320  174.8570  136.1680 C   0  0  1  0  0  3  0  0  0  0  0  0
  183.4260  176.0180  134.9140 O   0  0  0  0  0  1  0  0  0  0  0  0
  190.5860  176.4510  135.6680 C   0  0  0  0  0  2  0  0  0  0  0  0
  184.9330  178.9230  139.9330 C   0  0  0  0  0  3  0  0  0  0  0  0
  183.6660  173.1300  135.4490 F   0  0  0  0  0  0  0  0  0  0  0  0
  187.1920  177.3540  137.3090 C   0  0  1  0  0  3  0  0  0  0  0  0
  189.1030  176.2980  136.0360 C   0  0  2  0  0  3  0  0  0  0  0  0
  185.7920  179.0360  141.0280 C   0  0  0  0  0  0  0  0  0  0  0  0
  187.5970  178.0740  139.7240 C   0  0  0  0  0  0  0  0  0  0  0  0
  186.4500  173.5140  136.8130 C   0  0  0  0  0  2  0  0  0  0  0  0
  186.7310  177.9600  138.6130 C   0  0  0  0  0  0  0  0  0  0  0  0
  184.4330  175.3770  135.6340 C   0  0  1  0  0  3  0  0  0  0  0  0
  189.0550  177.7350  139.6250 C   0  0  0  0  0  2  0  0  0  0  0  0
  184.6730  173.9840  135.0410 C   0  0  1  0  0  3  0  0  0  0  0  0
  191.0560  175.3980  134.6760 C   0  0  0  0  0  2  0  0  0  0  0  0
  186.0360  173.3610  135.3510 C   0  0  0  0  0  2  0  0  0  0  0  0
  190.4470  173.4050  135.5000 C   0  0  0  0  0  2  0  0  0  0  0  0
  185.6800  176.2490  135.6460 C   0  0  0  0  0  2  0  0  0  0  0  0
  189.5450  173.8220  136.6550 C   0  0  0  0  0  2  0  0  0  0  0  0
  1 18  1  6  0  0  0
  2 14  1  0  0  0  0
  2  6  1  1  0  0  0
  3 26  1  6  0  0  0
  3  1  1  0  0  0  0
  3 14  1  0  0  0  0
  4 16  1  0  0  0  0
  6 21  1  0  0  0  0
  7 25  1  0  0  0  0
  8 12  1  0  0  0  0
  9 27  1  1  0  0  0
  9  1  1  0  0  0  0
 12 16  2  0  0  0  0
 14 19  1  1  0  0  0
 15 11  1  1  0  0  0
 15  9  1  0  0  0  0
 15  2  1  0  0  0  0
 16  5  1  0  0  0  0
 17  4  2  0  0  0  0
 19  8  2  0  0  0  0
 19 17  1  0  0  0  0
 20 10  1  6  0  0  0
 20 26  1  0  0  0  0
 21 17  1  0  0  0  0
 22 24  1  0  0  0  0
 22 13  1  1  0  0  0
 22 20  1  0  0  0  0
 23  7  1  0  0  0  0
 23 11  1  0  0  0  0
 24 18  1  0  0  0  0
 25 27  1  0  0  0  0
M  END
>  <MODEL>
6

>  <REMARK>
 VINA RESULT:      -6.0      4.139      6.089
  Name = 
  0 active torsions:
  status: ('A' for Active; 'I' for Inactive)
                            x       y       z     vdW  Elec       q    Type
                         _______ _______ _______ _____ _____    ______ ____

>  <TORSDO>
F 0

$$$$
=
 OpenBabel10262420023D

 27 31  0  0  1  0  0  0  0  0999 V2000
  185.2360  177.3020  138.8330 C   0  0  2  0  0  3  0  0  0  0  0  0
  187.5000  178.6220  139.9060 C   0  0  2  0  0  3  0  0  0  0  0  0
  184.9090  178.4710  139.7850 C   0  0  1  0  0  3  0  0  0  0  0  0
  186.8720  177.6200  144.0250 C   0  0  0  0  0  3  0  0  0  0  0  0
  185.6780  177.8770  146.1380 N   0  0  0  0  0  1  0  0  0  0  0  0
  187.9930  177.2760  140.4400 C   0  0  0  0  0  2  0  0  0  0  0  0
  188.8440  177.0230  135.9820 O   0  0  0  0  0  0  0  0  0  0  0  0
  184.9970  179.2540  142.7520 C   0  0  0  0  0  3  0  0  0  0  0  0
  186.3560  177.6180  137.8210 C   0  0  1  0  0  3  0  0  0  0  0  0
  181.9500  180.4420  139.0920 O   0  0  0  0  0  1  0  0  0  0  0  0
  188.7990  178.6320  137.7350 C   0  0  0  0  0  2  0  0  0  0  0  0
  184.8710  178.9770  144.1150 C   0  0  0  0  0  3  0  0  0  0  0  0
  181.1520  177.9370  137.7610 F   0  0  0  0  0  0  0  0  0  0  0  0
  186.1430  179.0090  140.5330 C   0  0  1  0  0  3  0  0  0  0  0  0
  187.4050  178.6220  138.3780 C   0  0  2  0  0  3  0  0  0  0  0  0
  185.8050  178.1560  144.7490 C   0  0  0  0  0  0  0  0  0  0  0  0
  187.0010  177.8830  142.6570 C   0  0  0  0  0  0  0  0  0  0  0  0
  183.9920  176.6990  138.1700 C   0  0  0  0  0  2  0  0  0  0  0  0
  186.0580  178.7140  142.0120 C   0  0  0  0  0  0  0  0  0  0  0  0
  182.7090  179.2790  138.9630 C   0  0  1  0  0  3  0  0  0  0  0  0
  188.2150  177.3660  141.9420 C   0  0  0  0  0  2  0  0  0  0  0  0
  182.3630  178.5920  137.6380 C   0  0  1  0  0  3  0  0  0  0  0  0
  188.7550  178.3970  136.2320 C   0  0  0  0  0  2  0  0  0  0  0  0
  183.4200  177.6250  137.0990 C   0  0  0  0  0  2  0  0  0  0  0  0
  187.5290  176.5520  135.8950 C   0  0  0  0  0  2  0  0  0  0  0  0
  184.1860  179.6220  139.0950 C   0  0  0  0  0  2  0  0  0  0  0  0
  186.9530  176.3180  137.2860 C   0  0  0  0  0  2  0  0  0  0  0  0
  1 18  1  6  0  0  0
  1  3  1  0  0  0  0
  2  6  1  1  0  0  0
  2 14  1  0  0  0  0
  3 26  1  6  0  0  0
  3 14  1  0  0  0  0
  4 16  1  0  0  0  0
  6 21  1  0  0  0  0
  7 23  1  0  0  0  0
  8 12  1  0  0  0  0
  9 27  1  1  0  0  0
  9 15  1  0  0  0  0
  9  1  1  0  0  0  0
 12 16  2  0  0  0  0
 14 19  1  1  0  0  0
 15 11  1  6  0  0  0
 15  2  1  0  0  0  0
 16  5  1  0  0  0  0
 17  4  2  0  0  0  0
 19 17  1  0  0  0  0
 19  8  2  0  0  0  0
 20 10  1  6  0  0  0
 20 26  1  0  0  0  0
 21 17  1  0  0  0  0
 22 13  1  1  0  0  0
 22 20  1  0  0  0  0
 23 11  1  0  0  0  0
 24 22  1  0  0  0  0
 24 18  1  0  0  0  0
 25  7  1  0  0  0  0
 25 27  1  0  0  0  0
M  END
>  <MODEL>
7

>  <REMARK>
 VINA RESULT:      -5.7      3.405      5.761
  Name = 
  0 active torsions:
  status: ('A' for Active; 'I' for Inactive)
                            x       y       z     vdW  Elec       q    Type
                         _______ _______ _______ _____ _____    ______ ____

>  <TORSDO>
F 0

$$$$
=
 OpenBabel10262420023D

 27 31  0  0  1  0  0  0  0  0999 V2000
  182.5310  177.6840  140.8180 C   0  0  2  0  0  3  0  0  0  0  0  0
  180.3160  177.6780  139.0540 C   0  0  2  0  0  3  0  0  0  0  0  0
  182.8830  177.4030  139.3430 C   0  0  1  0  0  3  0  0  0  0  0  0
  180.5070  173.5610  137.8800 C   0  0  0  0  0  3  0  0  0  0  0  0
  181.5410  171.7270  136.6430 N   0  0  0  0  0  1  0  0  0  0  0  0
  179.6600  176.6100  139.9320 C   0  0  0  0  0  2  0  0  0  0  0  0
  179.1610  180.4240  142.3530 O   0  0  0  0  0  0  0  0  0  0  0  0
  182.6220  175.2450  137.1760 C   0  0  0  0  0  3  0  0  0  0  0  0
  181.5330  178.8420  141.0100 C   0  0  1  0  0  3  0  0  0  0  0  0
  186.0560  178.6280  138.0970 O   0  0  0  0  0  1  0  0  0  0  0  0
  179.2070  179.7040  140.0850 C   0  0  0  0  0  2  0  0  0  0  0  0
  182.6090  173.9190  136.7370 C   0  0  0  0  0  3  0  0  0  0  0  0
  186.7310  178.4420  140.9600 F   0  0  0  0  0  0  0  0  0  0  0  0
  181.6460  177.1700  138.4560 C   0  0  1  0  0  3  0  0  0  0  0  0
  180.5360  178.9830  139.8240 C   0  0  2  0  0  3  0  0  0  0  0  0
  181.5550  173.0760  137.0940 C   0  0  0  0  0  0  0  0  0  0  0  0
  180.5160  174.8840  138.3330 C   0  0  0  0  0  0  0  0  0  0  0  0
  183.7660  177.8110  141.7180 C   0  0  0  0  0  2  0  0  0  0  0  0
  181.5810  175.7400  137.9730 C   0  0  0  0  0  0  0  0  0  0  0  0
  185.2080  178.2530  139.1380 C   0  0  1  0  0  3  0  0  0  0  0  0
  179.3240  175.3860  139.0930 C   0  0  0  0  0  2  0  0  0  0  0  0
  185.5990  179.0140  140.4100 C   0  0  1  0  0  3  0  0  0  0  0  0
  179.3530  180.8780  141.0430 C   0  0  0  0  0  2  0  0  0  0  0  0
  184.5060  179.1250  141.4760 C   0  0  0  0  0  2  0  0  0  0  0  0
  180.4300  180.1120  142.8530 C   0  0  0  0  0  2  0  0  0  0  0  0
  183.7630  178.4820  138.7210 C   0  0  0  0  0  2  0  0  0  0  0  0
  180.8660  178.7310  142.3800 C   0  0  0  0  0  2  0  0  0  0  0  0
  1  9  1  0  0  0  0
  1 18  1  1  0  0  0
  2 15  1  0  0  0  0
  2  6  1  1  0  0  0
  3 26  1  6  0  0  0
  3  1  1  0  0  0  0
  4 17  1  0  0  0  0
  5 16  1  0  0  0  0
  7 25  1  0  0  0  0
  8 19  1  0  0  0  0
  9 27  1  1  0  0  0
 11 23  1  0  0  0  0
 12 16  1  0  0  0  0
 12  8  2  0  0  0  0
 14 19  1  1  0  0  0
 14  2  1  0  0  0  0
 14  3  1  0  0  0  0
 15 11  1  1  0  0  0
 15  9  1  0  0  0  0
 16  4  2  0  0  0  0
 17 21  1  0  0  0  0
 19 17  2  0  0  0  0
 20 10  1  6  0  0  0
 20 22  1  0  0  0  0
 21  6  1  0  0  0  0
 22 13  1  1  0  0  0
 22 24  1  0  0  0  0
 23  7  1  0  0  0  0
 24 18  1  0  0  0  0
 26 20  1  0  0  0  0
 27 25  1  0  0  0  0
M  END
>  <MODEL>
8

>  <REMARK>
 VINA RESULT:      -5.7      4.704      8.070
  Name = 
  0 active torsions:
  status: ('A' for Active; 'I' for Inactive)
                            x       y       z     vdW  Elec       q    Type
                         _______ _______ _______ _____ _____    ______ ____

>  <TORSDO>
F 0

$$$$
=
 OpenBabel10262420023D

 27 31  0  0  1  0  0  0  0  0999 V2000
  184.5490  176.0260  137.9950 C   0  0  2  0  0  3  0  0  0  0  0  0
  185.5900  178.6090  138.5080 C   0  0  2  0  0  3  0  0  0  0  0  0
  183.5000  177.0680  138.4300 C   0  0  1  0  0  3  0  0  0  0  0  0
  184.6890  178.7880  142.6940 C   0  0  0  0  0  3  0  0  0  0  0  0
  183.1100  179.0190  144.5410 N   0  0  0  0  0  1  0  0  0  0  0  0
  186.5570  177.9850  139.5160 C   0  0  0  0  0  2  0  0  0  0  0  0
  188.3340  176.8330  135.4950 O   0  0  0  0  0  0  0  0  0  0  0  0
  182.5680  178.6660  140.8790 C   0  0  0  0  0  3  0  0  0  0  0  0
  185.5530  176.5510  136.9490 C   0  0  1  0  0  3  0  0  0  0  0  0
  180.1750  176.8130  137.0160 O   0  0  0  0  0  1  0  0  0  0  0  0
  187.1380  178.6240  136.5070 C   0  0  0  0  0  2  0  0  0  0  0  0
  182.3120  178.8110  142.2450 C   0  0  0  0  0  3  0  0  0  0  0  0
  181.0100  174.0030  136.7260 F   0  0  0  0  0  0  0  0  0  0  0  0
  184.1210  178.3850  138.9290 C   0  0  1  0  0  3  0  0  0  0  0  0
  185.8300  178.0750  137.0930 C   0  0  2  0  0  3  0  0  0  0  0  0
  183.3720  178.8670  143.1510 C   0  0  0  0  0  0  0  0  0  0  0  0
  184.9550  178.6310  141.3290 C   0  0  0  0  0  0  0  0  0  0  0  0
  183.9330  174.6780  137.5990 C   0  0  0  0  0  2  0  0  0  0  0  0
  183.8840  178.5760  140.4090 C   0  0  0  0  0  0  0  0  0  0  0  0
  181.4150  176.2670  137.3430 C   0  0  1  0  0  3  0  0  0  0  0  0
  186.3850  178.6490  140.8750 C   0  0  0  0  0  2  0  0  0  0  0  0
  181.7370  175.1240  136.3740 C   0  0  1  0  0  3  0  0  0  0  0  0
  187.5310  177.9420  135.2050 C   0  0  0  0  0  2  0  0  0  0  0  0
  183.2190  174.7610  136.2520 C   0  0  0  0  0  2  0  0  0  0  0  0
  187.4720  175.7340  135.5810 C   0  0  0  0  0  2  0  0  0  0  0  0
  182.4670  177.3660  137.3490 C   0  0  0  0  0  2  0  0  0  0  0  0
  186.8090  175.6820  136.9520 C   0  0  0  0  0  2  0  0  0  0  0  0
  1 18  1  6  0  0  0
  1  3  1  0  0  0  0
  2 14  1  0  0  0  0
  2  6  1  1  0  0  0
  3 26  1  6  0  0  0
  3 14  1  0  0  0  0
  4 16  1  0  0  0  0
  6 21  1  0  0  0  0
  7 25  1  0  0  0  0
  8 12  1  0  0  0  0
  9 27  1  1  0  0  0
  9 15  1  0  0  0  0
  9  1  1  0  0  0  0
 12 16  2  0  0  0  0
 14 19  1  1  0  0  0
 15 11  1  1  0  0  0
 15  2  1  0  0  0  0
 16  5  1  0  0  0  0
 17  4  2  0  0  0  0
 19  8  2  0  0  0  0
 19 17  1  0  0  0  0
 20 10  1  6  0  0  0
 20 26  1  0  0  0  0
 21 17  1  0  0  0  0
 22 13  1  1  0  0  0
 22 20  1  0  0  0  0
 23  7  1  0  0  0  0
 23 11  1  0  0  0  0
 24 22  1  0  0  0  0
 24 18  1  0  0  0  0
 25 27  1  0  0  0  0
M  END
>  <MODEL>
9

>  <REMARK>
 VINA RESULT:      -5.7      4.185      6.479
  Name = 
  0 active torsions:
  status: ('A' for Active; 'I' for Inactive)
                            x       y       z     vdW  Elec       q    Type
                         _______ _______ _______ _____ _____    ______ ____

>  <TORSDO>
F 0

$$$$
