=
 OpenBabel10262421353D

 32 35  0  0  1  0  0  0  0  0999 V2000
  188.8490  177.7690  144.6430 C   0  0  0  0  0  0  0  0  0  0  0  0
  191.6680  177.0200  140.5510 C   0  0  0  0  0  0  0  0  0  0  0  0
  190.9480  177.4550  142.8100 C   0  0  0  0  0  0  0  0  0  0  0  0
  189.3340  177.0820  141.0730 N   0  0  0  0  0  0  0  0  0  0  0  0
  188.5680  177.4970  143.2980 C   0  0  0  0  0  3  0  0  0  0  0  0
  190.3290  176.9200  140.1550 C   0  0  0  0  0  0  0  0  0  0  0  0
  190.0190  176.6960  138.7280 C   0  0  0  0  0  0  0  0  0  0  0  0
  192.4430  176.2980  138.3150 C   0  0  2  0  0  3  0  0  0  0  0  0
  190.1850  177.8860  145.0630 C   0  0  0  0  0  3  0  0  0  0  0  0
  189.6090  177.3390  142.3800 C   0  0  0  0  0  0  0  0  0  0  0  0
  191.2310  177.7290  144.1490 C   0  0  0  0  0  3  0  0  0  0  0  0
  190.7070  176.2310  136.4720 N   0  0  0  0  0  1  0  0  0  0  0  0
  191.0130  176.4720  137.8460 C   0  0  0  0  0  0  0  0  0  0  0  0
  191.9780  177.2970  141.8830 C   0  0  0  0  0  3  0  0  0  0  0  0
  192.6820  176.8670  139.6070 O   0  0  0  0  0  0  0  0  0  0  0  0
  186.4680  178.0590  145.1800 C   0  0  0  0  0  3  0  0  0  0  0  0
  187.7290  177.9270  145.5810 C   0  0  0  0  0  3  0  0  0  0  0  0
  183.8390  179.0130  145.2340 C   0  0  0  0  0  1  0  0  0  0  0  0
  185.0920  178.2520  146.3830 P   0  0  2  0  0  0  0  0  0  0  0  0
  185.6420  179.7460  147.0750 O   0  0  0  0  0  1  0  0  0  0  0  0
  188.5890  176.7320  138.2720 C   0  0  0  0  0  2  0  0  0  0  0  0
  188.1490  178.1590  137.9760 C   0  0  0  0  0  2  0  0  0  0  0  0
  187.0080  178.4730  138.7150 O   0  0  0  0  0  1  0  0  0  0  0  0
  193.4290  176.8850  137.3150 C   0  0  0  0  0  2  0  0  0  0  0  0
  194.4690  175.9080  137.0090 N   0  0  0  0  0  0  0  0  0  0  0  0
  195.9050  175.7520  135.0000 C   0  0  1  0  0  3  0  0  0  0  0  0
  196.8410  176.0550  135.9760 F   0  0  0  0  0  0  0  0  0  0  0  0
  194.4870  175.6740  135.5650 C   0  0  2  0  0  3  0  0  0  0  0  0
  194.9580  176.9210  134.8380 C   0  0  0  0  0  2  0  0  0  0  0  0
  194.1800  174.6520  137.7130 C   0  0  0  0  0  2  0  0  0  0  0  0
  195.5880  174.0320  138.7100 S   0  0  0  0  0  0  0  0  0  0  0  0
  195.4070  172.3550  138.0420 C   0  0  0  0  0  1  0  0  0  0  0  0
  1  9  1  0  0  0  0
  1 17  1  0  0  0  0
  2 14  1  0  0  0  0
  3 11  1  0  0  0  0
  4 10  2  0  0  0  0
  5  1  2  0  0  0  0
  6  2  2  0  0  0  0
  6  4  1  0  0  0  0
  7  6  1  0  0  0  0
  8 24  1  6  0  0  0
  8 15  1  0  0  0  0
 10  3  1  0  0  0  0
 10  5  1  0  0  0  0
 11  9  2  0  0  0  0
 12 13  1  0  0  0  0
 13  8  1  0  0  0  0
 13  7  2  0  0  0  0
 14  3  2  0  0  0  0
 15  2  1  0  0  0  0
 16 17  2  0  0  0  0
 16 19  1  0  0  0  0
 19 18  1  6  0  0  0
 19 20  1  0  0  0  0
 21  7  1  0  0  0  0
 22 21  1  0  0  0  0
 22 23  1  0  0  0  0
 25 24  1  0  0  0  0
 25 30  1  0  0  0  0
 26 28  1  0  0  0  0
 26 27  1  1  0  0  0
 28 25  1  1  0  0  0
 29 26  1  0  0  0  0
 29 28  1  0  0  0  0
 30 31  1  0  0  0  0
 32 31  1  0  0  0  0
M  END
>  <MODEL>
1

>  <REMARK>
 VINA RESULT:      -7.3      0.000      0.000
  Name = 
  9 active torsions:
  status: ('A' for Active; 'I' for Inactive)
    1  A    between atoms: C_2  and  C_24
    2  A    between atoms: C_4  and  C_13
    3  A    between atoms: S_6  and  C_7
    4  A    between atoms: C_7  and  N_32
    5  A    between atoms: C_10  and  P_17
    6  A    between atoms: C_13  and  C_15
    7  A    between atoms: C_16  and  C_27
    8  A    between atoms: C_22  and  N_32
    9  A    between atoms: C_27  and  N_32
                            x       y       z     vdW  Elec       q    Type
                         _______ _______ _______ _____ _____    ______ ____

>  <TORSDO>
F 9

$$$$
=
 OpenBabel10262421353D

 32 35  0  0  1  0  0  0  0  0999 V2000
  182.2960  178.7580  141.8530 C   0  0  0  0  0  0  0  0  0  0  0  0
  186.6160  178.0020  144.3030 C   0  0  0  0  0  0  0  0  0  0  0  0
  184.3260  178.5340  143.7740 C   0  0  0  0  0  0  0  0  0  0  0  0
  185.8430  177.8450  142.0450 N   0  0  0  0  0  0  0  0  0  0  0  0
  183.5780  178.3490  141.4690 C   0  0  0  0  0  3  0  0  0  0  0  0
  186.8530  177.7220  142.9520 C   0  0  0  0  0  0  0  0  0  0  0  0
  188.2170  177.3510  142.5250 C   0  0  0  0  0  0  0  0  0  0  0  0
  188.8710  177.1940  144.9240 C   0  0  2  0  0  3  0  0  0  0  0  0
  182.0360  179.0560  143.2020 C   0  0  0  0  0  3  0  0  0  0  0  0
  184.5950  178.2350  142.4210 C   0  0  0  0  0  0  0  0  0  0  0  0
  183.0480  178.9440  144.1590 C   0  0  0  0  0  3  0  0  0  0  0  0
  190.5000  176.7860  143.0270 N   0  0  0  0  0  1  0  0  0  0  0  0
  189.1880  177.1690  143.4420 C   0  0  0  0  0  0  0  0  0  0  0  0
  185.3490  178.4170  144.7140 C   0  0  0  0  0  3  0  0  0  0  0  0
  187.6550  177.8870  145.2260 O   0  0  0  0  0  0  0  0  0  0  0  0
  181.4210  179.5440  139.6950 C   0  0  0  0  0  3  0  0  0  0  0  0
  181.2510  178.8650  140.8260 C   0  0  0  0  0  3  0  0  0  0  0  0
  180.0660  177.8630  137.9160 C   0  0  0  0  0  1  0  0  0  0  0  0
  180.0910  179.6540  138.4300 P   0  0  2  0  0  0  0  0  0  0  0  0
  181.0980  180.2080  137.1310 O   0  0  0  0  0  1  0  0  0  0  0  0
  188.5120  177.1920  141.0620 C   0  0  0  0  0  2  0  0  0  0  0  0
  188.6140  178.5470  140.3770 C   0  0  0  0  0  2  0  0  0  0  0  0
  187.7160  178.6170  139.3120 O   0  0  0  0  0  1  0  0  0  0  0  0
  190.0130  177.8050  145.7240 C   0  0  0  0  0  2  0  0  0  0  0  0
  190.1120  177.1540  147.0270 N   0  0  0  0  0  0  0  0  0  0  0  0
  192.0280  175.7360  147.6910 C   0  0  1  0  0  3  0  0  0  0  0  0
  192.2980  176.8990  148.3940 F   0  0  0  0  0  0  0  0  0  0  0  0
  190.7540  175.8500  146.8550 C   0  0  2  0  0  3  0  0  0  0  0  0
  192.1170  176.0190  146.2070 C   0  0  0  0  0  2  0  0  0  0  0  0
  188.7660  176.9750  147.5860 C   0  0  0  0  0  2  0  0  0  0  0  0
  188.3380  178.2120  148.8690 S   0  0  0  0  0  0  0  0  0  0  0  0
  186.7760  178.6230  148.0440 C   0  0  0  0  0  1  0  0  0  0  0  0
  1  9  1  0  0  0  0
  2 14  1  0  0  0  0
  2 15  1  0  0  0  0
  3 11  1  0  0  0  0
  3 14  2  0  0  0  0
  4 10  2  0  0  0  0
  4  6  1  0  0  0  0
  5  1  2  0  0  0  0
  5 10  1  0  0  0  0
  6  2  2  0  0  0  0
  7  6  1  0  0  0  0
  7 13  2  0  0  0  0
  8 15  1  0  0  0  0
  8 24  1  1  0  0  0
  9 11  2  0  0  0  0
 10  3  1  0  0  0  0
 12 13  1  0  0  0  0
 13  8  1  0  0  0  0
 16 17  2  0  0  0  0
 17  1  1  0  0  0  0
 19 18  1  6  0  0  0
 19 16  1  0  0  0  0
 20 19  1  0  0  0  0
 21  7  1  0  0  0  0
 22 21  1  0  0  0  0
 23 22  1  0  0  0  0
 24 25  1  0  0  0  0
 25 30  1  0  0  0  0
 26 27  1  1  0  0  0
 28 25  1  1  0  0  0
 28 26  1  0  0  0  0
 29 28  1  0  0  0  0
 29 26  1  0  0  0  0
 30 31  1  0  0  0  0
 32 31  1  0  0  0  0
M  END
>  <MODEL>
2

>  <REMARK>
 VINA RESULT:      -7.0      5.800      8.667
  Name = 
  9 active torsions:
  status: ('A' for Active; 'I' for Inactive)
    1  A    between atoms: C_2  and  C_24
    2  A    between atoms: C_4  and  C_13
    3  A    between atoms: S_6  and  C_7
    4  A    between atoms: C_7  and  N_32
    5  A    between atoms: C_10  and  P_17
    6  A    between atoms: C_13  and  C_15
    7  A    between atoms: C_16  and  C_27
    8  A    between atoms: C_22  and  N_32
    9  A    between atoms: C_27  and  N_32
                            x       y       z     vdW  Elec       q    Type
                         _______ _______ _______ _____ _____    ______ ____

>  <TORSDO>
F 9

$$$$
=
 OpenBabel10262421353D

 32 35  0  0  1  0  0  0  0  0999 V2000
  181.9250  178.7330  141.3370 C   0  0  0  0  0  0  0  0  0  0  0  0
  186.1220  178.1960  144.0460 C   0  0  0  0  0  0  0  0  0  0  0  0
  183.8440  178.6080  143.3780 C   0  0  0  0  0  0  0  0  0  0  0  0
  185.4980  178.0100  141.7450 N   0  0  0  0  0  0  0  0  0  0  0  0
  183.2490  178.3950  141.0310 C   0  0  0  0  0  3  0  0  0  0  0  0
  186.4560  177.9370  142.7120 C   0  0  0  0  0  0  0  0  0  0  0  0
  187.8610  177.6410  142.3690 C   0  0  0  0  0  0  0  0  0  0  0  0
  188.3750  177.5060  144.8020 C   0  0  2  0  0  3  0  0  0  0  0  0
  181.5680  179.0100  142.6680 C   0  0  0  0  0  3  0  0  0  0  0  0
  184.2100  178.3310  142.0440 C   0  0  0  0  0  0  0  0  0  0  0  0
  182.5240  178.9470  143.6860 C   0  0  0  0  0  3  0  0  0  0  0  0
  190.1360  177.1960  143.0090 N   0  0  0  0  0  1  0  0  0  0  0  0
  188.7820  177.5060  143.3430 C   0  0  0  0  0  0  0  0  0  0  0  0
  184.8120  178.5410  144.3790 C   0  0  0  0  0  3  0  0  0  0  0  0
  187.1070  178.1320  145.0310 O   0  0  0  0  0  0  0  0  0  0  0  0
  181.2810  179.0170  138.9820 C   0  0  0  0  0  3  0  0  0  0  0  0
  180.9410  178.7890  140.2470 C   0  0  0  0  0  3  0  0  0  0  0  0
  181.0560  178.3580  136.2730 C   0  0  0  0  0  1  0  0  0  0  0  0
  180.0220  179.0780  137.6440 P   0  0  2  0  0  0  0  0  0  0  0  0
  180.2710  180.7400  137.2130 O   0  0  0  0  0  1  0  0  0  0  0  0
  188.2530  177.5050  140.9260 C   0  0  0  0  0  2  0  0  0  0  0  0
  188.6640  178.8510  140.3450 C   0  0  0  0  0  2  0  0  0  0  0  0
  188.6000  178.8130  138.9520 O   0  0  0  0  0  1  0  0  0  0  0  0
  189.4310  178.1730  145.6730 C   0  0  0  0  0  2  0  0  0  0  0  0
  189.8460  177.2640  146.7370 N   0  0  0  0  0  0  0  0  0  0  0  0
  188.3470  177.2950  148.7050 C   0  0  1  0  0  3  0  0  0  0  0  0
  187.7510  176.3140  147.9300 F   0  0  0  0  0  0  0  0  0  0  0  0
  189.5780  177.8970  148.0280 C   0  0  2  0  0  3  0  0  0  0  0  0
  188.2460  178.6250  147.9900 C   0  0  0  0  0  2  0  0  0  0  0  0
  191.2820  176.9850  146.6070 C   0  0  0  0  0  2  0  0  0  0  0  0
  191.7520  175.3010  147.1540 S   0  0  0  0  0  0  0  0  0  0  0  0
  192.8130  175.9540  148.4720 C   0  0  0  0  0  1  0  0  0  0  0  0
  1  9  1  0  0  0  0
  2 14  1  0  0  0  0
  2 15  1  0  0  0  0
  3 11  1  0  0  0  0
  3 14  2  0  0  0  0
  4 10  2  0  0  0  0
  4  6  1  0  0  0  0
  5  1  2  0  0  0  0
  5 10  1  0  0  0  0
  6  2  2  0  0  0  0
  7  6  1  0  0  0  0
  7 13  2  0  0  0  0
  8 15  1  0  0  0  0
  8 24  1  1  0  0  0
  9 11  2  0  0  0  0
 10  3  1  0  0  0  0
 12 13  1  0  0  0  0
 13  8  1  0  0  0  0
 16 17  2  0  0  0  0
 17  1  1  0  0  0  0
 19 18  1  6  0  0  0
 19 16  1  0  0  0  0
 20 19  1  0  0  0  0
 21  7  1  0  0  0  0
 22 21  1  0  0  0  0
 23 22  1  0  0  0  0
 24 25  1  0  0  0  0
 26 27  1  6  0  0  0
 28 25  1  6  0  0  0
 28 26  1  0  0  0  0
 29 28  1  0  0  0  0
 29 26  1  0  0  0  0
 30 25  1  0  0  0  0
 30 31  1  0  0  0  0
 31 32  1  0  0  0  0
M  END
>  <MODEL>
3

>  <REMARK>
 VINA RESULT:      -6.7      5.790      8.958
  Name = 
  9 active torsions:
  status: ('A' for Active; 'I' for Inactive)
    1  A    between atoms: C_2  and  C_24
    2  A    between atoms: C_4  and  C_13
    3  A    between atoms: S_6  and  C_7
    4  A    between atoms: C_7  and  N_32
    5  A    between atoms: C_10  and  P_17
    6  A    between atoms: C_13  and  C_15
    7  A    between atoms: C_16  and  C_27
    8  A    between atoms: C_22  and  N_32
    9  A    between atoms: C_27  and  N_32
                            x       y       z     vdW  Elec       q    Type
                         _______ _______ _______ _____ _____    ______ ____

>  <TORSDO>
F 9

$$$$
=
 OpenBabel10262421353D

 32 35  0  0  1  0  0  0  0  0999 V2000
  192.0260  175.9750  137.0440 C   0  0  0  0  0  0  0  0  0  0  0  0
  188.3100  177.7390  139.9300 C   0  0  0  0  0  0  0  0  0  0  0  0
  189.6760  177.1390  138.0370 C   0  0  0  0  0  0  0  0  0  0  0  0
  190.4100  176.6450  140.2680 N   0  0  0  0  0  0  0  0  0  0  0  0
  191.7970  176.0180  138.4250 C   0  0  0  0  0  3  0  0  0  0  0  0
  189.2780  177.2010  140.7860 C   0  0  0  0  0  0  0  0  0  0  0  0
  189.0770  177.2970  142.2460 C   0  0  0  0  0  0  0  0  0  0  0  0
  186.7600  178.1100  141.8230 C   0  0  2  0  0  3  0  0  0  0  0  0
  191.0740  176.5190  136.1640 C   0  0  0  0  0  3  0  0  0  0  0  0
  190.6280  176.5970  138.9260 C   0  0  0  0  0  0  0  0  0  0  0  0
  189.9030  177.1000  136.6600 C   0  0  0  0  0  3  0  0  0  0  0  0
  187.7220  177.8570  144.1520 N   0  0  0  0  0  1  0  0  0  0  0  0
  187.9230  177.7880  142.7390 C   0  0  0  0  0  0  0  0  0  0  0  0
  188.5140  177.7150  138.5500 C   0  0  0  0  0  3  0  0  0  0  0  0
  187.1590  178.3180  140.4630 O   0  0  0  0  0  0  0  0  0  0  0  0
  194.2170  174.9090  137.3670 C   0  0  0  0  0  3  0  0  0  0  0  0
  193.2640  175.3560  136.5530 C   0  0  0  0  0  3  0  0  0  0  0  0
  196.5910  173.7980  138.3440 C   0  0  0  0  0  1  0  0  0  0  0  0
  195.7540  174.1380  136.7150 P   0  0  2  0  0  0  0  0  0  0  0  0
  196.5920  175.6210  136.3800 O   0  0  0  0  0  1  0  0  0  0  0  0
  190.1740  176.8540  143.1700 C   0  0  0  0  0  2  0  0  0  0  0  0
  191.1940  177.9650  143.3740 C   0  0  0  0  0  2  0  0  0  0  0  0
  191.5630  178.0390  144.7170 O   0  0  0  0  0  1  0  0  0  0  0  0
  185.9880  179.3260  142.3130 C   0  0  0  0  0  2  0  0  0  0  0  0
  184.5780  178.9870  142.4810 N   0  0  0  0  0  0  0  0  0  0  0  0
  183.1930  178.8890  144.5290 C   0  0  1  0  0  3  0  0  0  0  0  0
  182.5630  179.9030  143.8260 F   0  0  0  0  0  0  0  0  0  0  0  0
  184.4020  178.3320  143.7770 C   0  0  2  0  0  3  0  0  0  0  0  0
  184.5900  179.3350  144.9020 C   0  0  0  0  0  2  0  0  0  0  0  0
  184.1640  178.0790  141.4040 C   0  0  0  0  0  2  0  0  0  0  0  0
  182.8130  178.7490  140.3620 S   0  0  0  0  0  0  0  0  0  0  0  0
  183.9860  179.3700  139.1270 C   0  0  0  0  0  1  0  0  0  0  0  0
  1  5  1  0  0  0  0
  2 15  1  0  0  0  0
  2  6  1  0  0  0  0
  3 14  1  0  0  0  0
  3 10  1  0  0  0  0
  4  6  2  0  0  0  0
  5 10  2  0  0  0  0
  6  7  1  0  0  0  0
  7 13  2  0  0  0  0
  7 21  1  0  0  0  0
  8 24  1  1  0  0  0
  8 13  1  0  0  0  0
  9 11  1  0  0  0  0
  9  1  2  0  0  0  0
 10  4  1  0  0  0  0
 11  3  2  0  0  0  0
 13 12  1  0  0  0  0
 14  2  2  0  0  0  0
 15  8  1  0  0  0  0
 17  1  1  0  0  0  0
 17 16  2  0  0  0  0
 19 16  1  0  0  0  0
 19 18  1  1  0  0  0
 20 19  1  0  0  0  0
 21 22  1  0  0  0  0
 22 23  1  0  0  0  0
 24 25  1  0  0  0  0
 26 27  1  6  0  0  0
 26 29  1  0  0  0  0
 28 25  1  6  0  0  0
 28 26  1  0  0  0  0
 28 29  1  0  0  0  0
 30 25  1  0  0  0  0
 31 30  1  0  0  0  0
 32 31  1  0  0  0  0
M  END
>  <MODEL>
4

>  <REMARK>
 VINA RESULT:      -6.6      5.231     10.095
  Name = 
  9 active torsions:
  status: ('A' for Active; 'I' for Inactive)
    1  A    between atoms: C_2  and  C_24
    2  A    between atoms: C_4  and  C_13
    3  A    between atoms: S_6  and  C_7
    4  A    between atoms: C_7  and  N_32
    5  A    between atoms: C_10  and  P_17
    6  A    between atoms: C_13  and  C_15
    7  A    between atoms: C_16  and  C_27
    8  A    between atoms: C_22  and  N_32
    9  A    between atoms: C_27  and  N_32
                            x       y       z     vdW  Elec       q    Type
                         _______ _______ _______ _____ _____    ______ ____

>  <TORSDO>
F 9

$$$$
=
 OpenBabel10262421353D

 32 35  0  0  1  0  0  0  0  0999 V2000
  193.1580  175.8260  136.8580 C   0  0  0  0  0  0  0  0  0  0  0  0
  189.2170  177.3130  139.5960 C   0  0  0  0  0  0  0  0  0  0  0  0
  190.6360  176.6510  137.7650 C   0  0  0  0  0  0  0  0  0  0  0  0
  191.5100  176.7640  139.9970 N   0  0  0  0  0  0  0  0  0  0  0  0
  192.9570  176.0900  138.2180 C   0  0  0  0  0  3  0  0  0  0  0  0
  190.2970  177.1640  140.4740 C   0  0  0  0  0  0  0  0  0  0  0  0
  190.1140  177.5000  141.9000 C   0  0  0  0  0  0  0  0  0  0  0  0
  187.6680  177.7180  141.4830 C   0  0  2  0  0  3  0  0  0  0  0  0
  192.0920  175.9790  135.9550 C   0  0  0  0  0  3  0  0  0  0  0  0
  191.7030  176.5010  138.6770 C   0  0  0  0  0  0  0  0  0  0  0  0
  190.8340  176.3900  136.4070 C   0  0  0  0  0  3  0  0  0  0  0  0
  188.7150  178.1300  143.7520 N   0  0  0  0  0  1  0  0  0  0  0  0
  188.8930  177.8290  142.3670 C   0  0  0  0  0  0  0  0  0  0  0  0
  189.3890  177.0620  138.2350 C   0  0  0  0  0  3  0  0  0  0  0  0
  187.9810  177.7340  140.0860 O   0  0  0  0  0  0  0  0  0  0  0  0
  195.4320  174.9810  137.2550 C   0  0  0  0  0  3  0  0  0  0  0  0
  194.4890  175.3930  136.4120 C   0  0  0  0  0  3  0  0  0  0  0  0
  197.9780  174.4710  138.2950 C   0  0  0  0  0  1  0  0  0  0  0  0
  197.0860  174.4450  136.6600 P   0  0  2  0  0  0  0  0  0  0  0  0
  197.6230  176.0080  136.1300 O   0  0  0  0  0  1  0  0  0  0  0  0
  191.3020  177.4830  142.8180 C   0  0  0  0  0  2  0  0  0  0  0  0
  191.3850  176.1650  143.5740 C   0  0  0  0  0  2  0  0  0  0  0  0
  191.6800  176.3990  144.9180 O   0  0  0  0  0  1  0  0  0  0  0  0
  186.6640  178.8210  141.7870 C   0  0  0  0  0  2  0  0  0  0  0  0
  185.3280  178.2510  141.9340 N   0  0  0  0  0  0  0  0  0  0  0  0
  183.2650  178.3890  140.5730 C   0  0  1  0  0  3  0  0  0  0  0  0
  183.4590  177.0190  140.6280 F   0  0  0  0  0  0  0  0  0  0  0  0
  184.3580  179.1570  141.3170 C   0  0  2  0  0  3  0  0  0  0  0  0
  184.4050  179.0230  139.8050 C   0  0  0  0  0  2  0  0  0  0  0  0
  185.0200  178.0900  143.3610 C   0  0  0  0  0  2  0  0  0  0  0  0
  184.7110  179.6760  144.2250 S   0  0  0  0  0  0  0  0  0  0  0  0
  185.2980  179.0050  145.8040 C   0  0  0  0  0  1  0  0  0  0  0  0
  1  5  1  0  0  0  0
  2 15  1  0  0  0  0
  2  6  1  0  0  0  0
  3 14  1  0  0  0  0
  3 10  1  0  0  0  0
  4  6  2  0  0  0  0
  5 10  2  0  0  0  0
  6  7  1  0  0  0  0
  7 13  2  0  0  0  0
  7 21  1  0  0  0  0
  8 24  1  6  0  0  0
  8 13  1  0  0  0  0
  9 11  1  0  0  0  0
  9  1  2  0  0  0  0
 10  4  1  0  0  0  0
 11  3  2  0  0  0  0
 13 12  1  0  0  0  0
 14  2  2  0  0  0  0
 15  8  1  0  0  0  0
 17  1  1  0  0  0  0
 17 16  2  0  0  0  0
 19 16  1  0  0  0  0
 19 18  1  1  0  0  0
 20 19  1  0  0  0  0
 21 22  1  0  0  0  0
 22 23  1  0  0  0  0
 24 25  1  0  0  0  0
 25 30  1  0  0  0  0
 26 27  1  1  0  0  0
 26 28  1  0  0  0  0
 28 25  1  1  0  0  0
 29 26  1  0  0  0  0
 29 28  1  0  0  0  0
 30 31  1  0  0  0  0
 31 32  1  0  0  0  0
M  END
>  <MODEL>
5

>  <REMARK>
 VINA RESULT:      -6.3      5.133      9.887
  Name = 
  9 active torsions:
  status: ('A' for Active; 'I' for Inactive)
    1  A    between atoms: C_2  and  C_24
    2  A    between atoms: C_4  and  C_13
    3  A    between atoms: S_6  and  C_7
    4  A    between atoms: C_7  and  N_32
    5  A    between atoms: C_10  and  P_17
    6  A    between atoms: C_13  and  C_15
    7  A    between atoms: C_16  and  C_27
    8  A    between atoms: C_22  and  N_32
    9  A    between atoms: C_27  and  N_32
                            x       y       z     vdW  Elec       q    Type
                         _______ _______ _______ _____ _____    ______ ____

>  <TORSDO>
F 9

$$$$
=
 OpenBabel10262421353D

 32 35  0  0  1  0  0  0  0  0999 V2000
  187.9450  177.5180  145.6680 C   0  0  0  0  0  0  0  0  0  0  0  0
  185.0220  178.7290  141.7660 C   0  0  0  0  0  0  0  0  0  0  0  0
  185.8490  178.3350  143.9950 C   0  0  0  0  0  0  0  0  0  0  0  0
  187.2460  177.9120  142.0900 N   0  0  0  0  0  0  0  0  0  0  0  0
  188.1190  177.5150  144.2790 C   0  0  0  0  0  3  0  0  0  0  0  0
  186.2500  178.3050  141.2460 C   0  0  0  0  0  0  0  0  0  0  0  0
  186.4240  178.2380  139.7810 C   0  0  0  0  0  0  0  0  0  0  0  0
  184.2430  179.4130  139.5190 C   0  0  2  0  0  3  0  0  0  0  0  0
  186.7170  177.9290  146.2150 C   0  0  0  0  0  3  0  0  0  0  0  0
  187.0790  177.9210  143.4390 C   0  0  0  0  0  0  0  0  0  0  0  0
  185.6720  178.3360  145.3800 C   0  0  0  0  0  3  0  0  0  0  0  0
  185.6370  178.6500  137.5460 N   0  0  0  0  0  1  0  0  0  0  0  0
  185.4550  178.6940  138.9620 C   0  0  0  0  0  0  0  0  0  0  0  0
  184.8180  178.7370  143.1460 C   0  0  0  0  0  3  0  0  0  0  0  0
  184.0020  179.1190  140.8990 O   0  0  0  0  0  0  0  0  0  0  0  0
  190.2970  176.9170  146.0570 C   0  0  0  0  0  3  0  0  0  0  0  0
  189.0620  177.0870  146.5210 C   0  0  0  0  0  3  0  0  0  0  0  0
  192.4340  175.1130  146.0210 C   0  0  0  0  0  1  0  0  0  0  0  0
  191.6700  176.3780  147.1540 P   0  0  2  0  0  0  0  0  0  0  0  0
  190.7430  175.2520  148.0940 O   0  0  0  0  0  1  0  0  0  0  0  0
  187.6840  177.6480  139.2160 C   0  0  0  0  0  2  0  0  0  0  0  0
  188.8420  178.6280  139.3320 C   0  0  0  0  0  2  0  0  0  0  0  0
  188.9590  179.3760  138.1600 O   0  0  0  0  0  1  0  0  0  0  0  0
  182.9930  179.0980  138.7100 C   0  0  0  0  0  2  0  0  0  0  0  0
  181.8170  179.1390  139.5740 N   0  0  0  0  0  0  0  0  0  0  0  0
  180.5290  177.2870  140.5930 C   0  0  1  0  0  3  0  0  0  0  0  0
  181.0230  177.9230  141.7200 F   0  0  0  0  0  0  0  0  0  0  0  0
  180.9900  177.9630  139.3020 C   0  0  2  0  0  3  0  0  0  0  0  0
  181.6820  176.7080  139.8030 C   0  0  0  0  0  2  0  0  0  0  0  0
  181.0510  180.3600  139.2980 C   0  0  0  0  0  2  0  0  0  0  0  0
  180.9260  180.7570  137.5130 S   0  0  0  0  0  0  0  0  0  0  0  0
  181.1390  182.5310  137.8250 C   0  0  0  0  0  1  0  0  0  0  0  0
  1  9  1  0  0  0  0
  1 17  1  0  0  0  0
  2 14  1  0  0  0  0
  3 11  1  0  0  0  0
  4 10  2  0  0  0  0
  5  1  2  0  0  0  0
  6  2  2  0  0  0  0
  6  4  1  0  0  0  0
  7  6  1  0  0  0  0
  8 24  1  6  0  0  0
  8 15  1  0  0  0  0
 10  3  1  0  0  0  0
 10  5  1  0  0  0  0
 11  9  2  0  0  0  0
 12 13  1  0  0  0  0
 13  8  1  0  0  0  0
 13  7  2  0  0  0  0
 14  3  2  0  0  0  0
 15  2  1  0  0  0  0
 16 17  2  0  0  0  0
 16 19  1  0  0  0  0
 19 18  1  6  0  0  0
 19 20  1  0  0  0  0
 21 22  1  0  0  0  0
 21  7  1  0  0  0  0
 23 22  1  0  0  0  0
 24 25  1  0  0  0  0
 26 27  1  1  0  0  0
 28 25  1  1  0  0  0
 28 29  1  0  0  0  0
 28 26  1  0  0  0  0
 29 26  1  0  0  0  0
 30 25  1  0  0  0  0
 31 32  1  0  0  0  0
 31 30  1  0  0  0  0
M  END
>  <MODEL>
6

>  <REMARK>
 VINA RESULT:      -6.3      6.223      9.192
  Name = 
  9 active torsions:
  status: ('A' for Active; 'I' for Inactive)
    1  A    between atoms: C_2  and  C_24
    2  A    between atoms: C_4  and  C_13
    3  A    between atoms: S_6  and  C_7
    4  A    between atoms: C_7  and  N_32
    5  A    between atoms: C_10  and  P_17
    6  A    between atoms: C_13  and  C_15
    7  A    between atoms: C_16  and  C_27
    8  A    between atoms: C_22  and  N_32
    9  A    between atoms: C_27  and  N_32
                            x       y       z     vdW  Elec       q    Type
                         _______ _______ _______ _____ _____    ______ ____

>  <TORSDO>
F 9

$$$$
=
 OpenBabel10262421353D

 32 35  0  0  1  0  0  0  0  0999 V2000
  188.0180  177.6280  144.4120 C   0  0  0  0  0  0  0  0  0  0  0  0
  183.7040  178.6270  142.0390 C   0  0  0  0  0  0  0  0  0  0  0  0
  185.3440  178.1300  143.7330 C   0  0  0  0  0  0  0  0  0  0  0  0
  186.0020  178.3530  141.4360 N   0  0  0  0  0  0  0  0  0  0  0  0
  187.6710  177.8720  143.0780 C   0  0  0  0  0  3  0  0  0  0  0  0
  184.7130  178.6040  141.0690 C   0  0  0  0  0  0  0  0  0  0  0  0
  184.3490  178.7980  139.6520 C   0  0  0  0  0  0  0  0  0  0  0  0
  182.0480  179.4150  140.3780 C   0  0  2  0  0  3  0  0  0  0  0  0
  187.0210  177.6340  145.4030 C   0  0  0  0  0  3  0  0  0  0  0  0
  186.3400  178.1230  142.7330 C   0  0  0  0  0  0  0  0  0  0  0  0
  185.6880  177.8840  145.0640 C   0  0  0  0  0  3  0  0  0  0  0  0
  182.7390  179.3230  137.9430 N   0  0  0  0  0  1  0  0  0  0  0  0
  183.0820  179.1110  139.3140 C   0  0  0  0  0  0  0  0  0  0  0  0
  184.0200  178.3810  143.3760 C   0  0  0  0  0  3  0  0  0  0  0  0
  182.3850  178.8720  141.6600 O   0  0  0  0  0  0  0  0  0  0  0  0
  189.8380  177.0730  145.9680 C   0  0  0  0  0  3  0  0  0  0  0  0
  189.4270  177.3700  144.7380 C   0  0  0  0  0  3  0  0  0  0  0  0
  191.9860  175.6340  144.8990 C   0  0  0  0  0  1  0  0  0  0  0  0
  191.6100  176.7550  146.3390 P   0  0  2  0  0  0  0  0  0  0  0  0
  191.3470  175.4890  147.4970 O   0  0  0  0  0  1  0  0  0  0  0  0
  185.4000  178.6310  138.5930 C   0  0  0  0  0  2  0  0  0  0  0  0
  185.2650  177.2820  137.9020 C   0  0  0  0  0  2  0  0  0  0  0  0
  186.5250  176.7920  137.5550 O   0  0  0  0  0  1  0  0  0  0  0  0
  180.6680  178.9200  139.9670 C   0  0  0  0  0  2  0  0  0  0  0  0
  180.2660  177.8040  140.8180 N   0  0  0  0  0  0  0  0  0  0  0  0
  180.9130  175.7180  139.6550 C   0  0  1  0  0  3  0  0  0  0  0  0
  182.1200  176.0970  140.2190 F   0  0  0  0  0  0  0  0  0  0  0  0
  179.7930  176.7100  139.9690 C   0  0  2  0  0  3  0  0  0  0  0  0
  180.4990  176.7470  138.6250 C   0  0  0  0  0  2  0  0  0  0  0  0
  179.1880  178.2390  141.7150 C   0  0  0  0  0  2  0  0  0  0  0  0
  179.7480  178.5580  143.4310 S   0  0  0  0  0  0  0  0  0  0  0  0
  179.5910  180.3520  143.2180 C   0  0  0  0  0  1  0  0  0  0  0  0
  1 17  1  0  0  0  0
  1  9  1  0  0  0  0
  2 14  1  0  0  0  0
  3 11  1  0  0  0  0
  4 10  2  0  0  0  0
  5  1  2  0  0  0  0
  6  4  1  0  0  0  0
  6  2  2  0  0  0  0
  7  6  1  0  0  0  0
  8 24  1  6  0  0  0
  8 15  1  0  0  0  0
 10  5  1  0  0  0  0
 10  3  1  0  0  0  0
 11  9  2  0  0  0  0
 12 13  1  0  0  0  0
 13  7  2  0  0  0  0
 13  8  1  0  0  0  0
 14  3  2  0  0  0  0
 15  2  1  0  0  0  0
 16 19  1  0  0  0  0
 17 16  2  0  0  0  0
 19 18  1  6  0  0  0
 19 20  1  0  0  0  0
 21  7  1  0  0  0  0
 22 21  1  0  0  0  0
 23 22  1  0  0  0  0
 24 25  1  0  0  0  0
 25 30  1  0  0  0  0
 26 28  1  0  0  0  0
 26 27  1  1  0  0  0
 28 25  1  1  0  0  0
 29 26  1  0  0  0  0
 29 28  1  0  0  0  0
 30 31  1  0  0  0  0
 32 31  1  0  0  0  0
M  END
>  <MODEL>
7

>  <REMARK>
 VINA RESULT:      -6.3      6.873      9.894
  Name = 
  9 active torsions:
  status: ('A' for Active; 'I' for Inactive)
    1  A    between atoms: C_2  and  C_24
    2  A    between atoms: C_4  and  C_13
    3  A    between atoms: S_6  and  C_7
    4  A    between atoms: C_7  and  N_32
    5  A    between atoms: C_10  and  P_17
    6  A    between atoms: C_13  and  C_15
    7  A    between atoms: C_16  and  C_27
    8  A    between atoms: C_22  and  N_32
    9  A    between atoms: C_27  and  N_32
                            x       y       z     vdW  Elec       q    Type
                         _______ _______ _______ _____ _____    ______ ____

>  <TORSDO>
F 9

$$$$
=
 OpenBabel10262421353D

 32 35  0  0  1  0  0  0  0  0999 V2000
  189.0660  177.5670  143.4600 C   0  0  0  0  0  0  0  0  0  0  0  0
  188.6880  177.4490  138.4510 C   0  0  0  0  0  0  0  0  0  0  0  0
  188.2350  177.7990  140.7920 C   0  0  0  0  0  0  0  0  0  0  0  0
  190.2910  176.7760  140.0940 N   0  0  0  0  0  0  0  0  0  0  0  0
  189.8960  177.1120  142.4280 C   0  0  0  0  0  3  0  0  0  0  0  0
  189.9210  176.8760  138.7860 C   0  0  0  0  0  0  0  0  0  0  0  0
  190.7760  176.3360  137.7100 C   0  0  0  0  0  0  0  0  0  0  0  0
  189.2410  177.3650  136.0410 C   0  0  2  0  0  3  0  0  0  0  0  0
  187.8190  178.1350  143.1500 C   0  0  0  0  0  3  0  0  0  0  0  0
  189.4880  177.2250  141.0960 C   0  0  0  0  0  0  0  0  0  0  0  0
  187.4040  178.2510  141.8200 C   0  0  0  0  0  3  0  0  0  0  0  0
  191.2690  176.0000  135.3800 N   0  0  0  0  0  1  0  0  0  0  0  0
  190.4270  176.5020  136.4190 C   0  0  0  0  0  0  0  0  0  0  0  0
  187.8390  177.9050  139.4590 C   0  0  0  0  0  3  0  0  0  0  0  0
  188.3070  177.5370  137.1130 O   0  0  0  0  0  0  0  0  0  0  0  0
  188.8190  177.8630  145.8870 C   0  0  0  0  0  3  0  0  0  0  0  0
  189.5290  177.4340  144.8480 C   0  0  0  0  0  3  0  0  0  0  0  0
  190.8540  176.5290  147.2660 C   0  0  0  0  0  1  0  0  0  0  0  0
  189.4300  177.6790  147.6110 P   0  0  2  0  0  0  0  0  0  0  0  0
  188.3060  176.4460  148.0890 O   0  0  0  0  0  1  0  0  0  0  0  0
  192.0290  175.5920  138.0700 C   0  0  0  0  0  2  0  0  0  0  0  0
  193.1780  176.5560  138.3320 C   0  0  0  0  0  2  0  0  0  0  0  0
  194.0050  176.6330  137.2110 O   0  0  0  0  0  1  0  0  0  0  0  0
  188.5150  176.8070  134.8250 C   0  0  0  0  0  2  0  0  0  0  0  0
  187.1820  176.3510  135.2060 N   0  0  0  0  0  0  0  0  0  0  0  0
  186.8980  173.9920  135.8970 C   0  0  1  0  0  3  0  0  0  0  0  0
  187.0310  174.6180  137.1260 F   0  0  0  0  0  0  0  0  0  0  0  0
  187.0010  174.9780  134.7340 C   0  0  2  0  0  3  0  0  0  0  0  0
  188.1940  174.1260  135.1270 C   0  0  0  0  0  2  0  0  0  0  0  0
  186.1740  177.2250  134.5940 C   0  0  0  0  0  2  0  0  0  0  0  0
  184.4570  176.8210  135.0910 S   0  0  0  0  0  0  0  0  0  0  0  0
  184.8220  177.1290  136.8410 C   0  0  0  0  0  1  0  0  0  0  0  0
  1 17  1  0  0  0  0
  2  6  2  0  0  0  0
  2 14  1  0  0  0  0
  3 10  1  0  0  0  0
  3 11  1  0  0  0  0
  4 10  2  0  0  0  0
  5  1  2  0  0  0  0
  6  4  1  0  0  0  0
  7 21  1  0  0  0  0
  7  6  1  0  0  0  0
  8 24  1  6  0  0  0
  8 13  1  0  0  0  0
  8 15  1  0  0  0  0
  9  1  1  0  0  0  0
 10  5  1  0  0  0  0
 11  9  2  0  0  0  0
 12 13  1  0  0  0  0
 13  7  2  0  0  0  0
 14  3  2  0  0  0  0
 15  2  1  0  0  0  0
 16 19  1  0  0  0  0
 17 16  2  0  0  0  0
 19 18  1  6  0  0  0
 19 20  1  0  0  0  0
 21 22  1  0  0  0  0
 23 22  1  0  0  0  0
 24 25  1  0  0  0  0
 26 27  1  1  0  0  0
 28 29  1  0  0  0  0
 28 25  1  1  0  0  0
 28 26  1  0  0  0  0
 29 26  1  0  0  0  0
 30 31  1  0  0  0  0
 30 25  1  0  0  0  0
 31 32  1  0  0  0  0
M  END
>  <MODEL>
8

>  <REMARK>
 VINA RESULT:      -6.3      3.708      5.823
  Name = 
  9 active torsions:
  status: ('A' for Active; 'I' for Inactive)
    1  A    between atoms: C_2  and  C_24
    2  A    between atoms: C_4  and  C_13
    3  A    between atoms: S_6  and  C_7
    4  A    between atoms: C_7  and  N_32
    5  A    between atoms: C_10  and  P_17
    6  A    between atoms: C_13  and  C_15
    7  A    between atoms: C_16  and  C_27
    8  A    between atoms: C_22  and  N_32
    9  A    between atoms: C_27  and  N_32
                            x       y       z     vdW  Elec       q    Type
                         _______ _______ _______ _____ _____    ______ ____

>  <TORSDO>
F 9

$$$$
=
 OpenBabel10262421353D

 32 35  0  0  1  0  0  0  0  0999 V2000
  187.2770  177.8720  144.4630 C   0  0  0  0  0  0  0  0  0  0  0  0
  183.8250  178.9590  140.9780 C   0  0  0  0  0  0  0  0  0  0  0  0
  185.9020  178.4430  142.0870 C   0  0  0  0  0  0  0  0  0  0  0  0
  183.8680  178.6370  143.3480 N   0  0  0  0  0  0  0  0  0  0  0  0
  185.8980  178.1110  144.4950 C   0  0  0  0  0  3  0  0  0  0  0  0
  183.1660  178.9150  142.2120 C   0  0  0  0  0  0  0  0  0  0  0  0
  181.7240  179.2280  142.2670 C   0  0  0  0  0  0  0  0  0  0  0  0
  181.6760  179.2050  139.7760 C   0  0  2  0  0  3  0  0  0  0  0  0
  187.9630  177.9220  143.2370 C   0  0  0  0  0  3  0  0  0  0  0  0
  185.2060  178.3970  143.3150 C   0  0  0  0  0  0  0  0  0  0  0  0
  187.2770  178.2070  142.0530 C   0  0  0  0  0  3  0  0  0  0  0  0
  179.6320  179.7120  141.1840 N   0  0  0  0  0  1  0  0  0  0  0  0
  181.0330  179.4340  141.1290 C   0  0  0  0  0  0  0  0  0  0  0  0
  185.2000  178.7290  140.9170 C   0  0  0  0  0  3  0  0  0  0  0  0
  183.1070  179.2550  139.8210 O   0  0  0  0  0  0  0  0  0  0  0  0
  189.2220  177.1230  145.7660 C   0  0  0  0  0  3  0  0  0  0  0  0
  187.9710  177.5730  145.7230 C   0  0  0  0  0  3  0  0  0  0  0  0
  189.4330  178.2260  148.3280 C   0  0  0  0  0  1  0  0  0  0  0  0
  190.0590  176.7610  147.3630 P   0  0  2  0  0  0  0  0  0  0  0  0
  191.5930  177.4550  146.9440 O   0  0  0  0  0  1  0  0  0  0  0  0
  181.0430  179.3250  143.6010 C   0  0  0  0  0  2  0  0  0  0  0  0
  180.3270  178.0260  143.9410 C   0  0  0  0  0  2  0  0  0  0  0  0
  178.9850  178.2770  144.2290 O   0  0  0  0  0  1  0  0  0  0  0  0
  181.1680  180.2030  138.7460 C   0  0  0  0  0  2  0  0  0  0  0  0
  180.8680  179.5170  137.4930 N   0  0  0  0  0  0  0  0  0  0  0  0
  180.1880  180.5480  135.3490 C   0  0  1  0  0  3  0  0  0  0  0  0
  181.4580  180.0920  135.0370 F   0  0  0  0  0  0  0  0  0  0  0  0
  179.8070  180.2450  136.7980 C   0  0  2  0  0  3  0  0  0  0  0  0
  180.2930  181.6290  136.4030 C   0  0  0  0  0  2  0  0  0  0  0  0
  180.4240  178.1470  137.7820 C   0  0  0  0  0  2  0  0  0  0  0  0
  180.9090  176.9350  136.4970 S   0  0  0  0  0  0  0  0  0  0  0  0
  182.6530  177.4250  136.5990 C   0  0  0  0  0  1  0  0  0  0  0  0
  1  5  1  0  0  0  0
  1 17  1  0  0  0  0
  2  6  1  0  0  0  0
  3 10  1  0  0  0  0
  6  7  1  0  0  0  0
  6  4  2  0  0  0  0
  7 21  1  0  0  0  0
  8 24  1  6  0  0  0
  8 15  1  0  0  0  0
  8 13  1  0  0  0  0
  9  1  2  0  0  0  0
 10  4  1  0  0  0  0
 10  5  2  0  0  0  0
 11  3  2  0  0  0  0
 11  9  1  0  0  0  0
 13 12  1  0  0  0  0
 13  7  2  0  0  0  0
 14  2  2  0  0  0  0
 14  3  1  0  0  0  0
 15  2  1  0  0  0  0
 16 19  1  0  0  0  0
 17 16  2  0  0  0  0
 19 18  1  1  0  0  0
 20 19  1  0  0  0  0
 21 22  1  0  0  0  0
 22 23  1  0  0  0  0
 25 30  1  0  0  0  0
 25 24  1  0  0  0  0
 26 27  1  1  0  0  0
 26 29  1  0  0  0  0
 26 28  1  0  0  0  0
 28 25  1  1  0  0  0
 29 28  1  0  0  0  0
 31 32  1  0  0  0  0
 31 30  1  0  0  0  0
M  END
>  <MODEL>
9

>  <REMARK>
 VINA RESULT:      -6.2      7.374     10.115
  Name = 
  9 active torsions:
  status: ('A' for Active; 'I' for Inactive)
    1  A    between atoms: C_2  and  C_24
    2  A    between atoms: C_4  and  C_13
    3  A    between atoms: S_6  and  C_7
    4  A    between atoms: C_7  and  N_32
    5  A    between atoms: C_10  and  P_17
    6  A    between atoms: C_13  and  C_15
    7  A    between atoms: C_16  and  C_27
    8  A    between atoms: C_22  and  N_32
    9  A    between atoms: C_27  and  N_32
                            x       y       z     vdW  Elec       q    Type
                         _______ _______ _______ _____ _____    ______ ____

>  <TORSDO>
F 9

$$$$
