=
 OpenBabel10262421563D

 30 32  0  0  1  0  0  0  0  0999 V2000
  187.2230  178.0840  142.4790 C   0  0  0  0  0  2  0  0  0  0  0  0
  185.2630  179.3690  141.4270 N   0  0  0  0  0  0  0  0  0  0  0  0
  188.6980  177.1850  138.4620 C   0  0  0  0  0  2  0  0  0  0  0  0
  188.7280  177.8320  142.2920 C   0  0  2  0  0  3  0  0  0  0  0  0
  190.2160  176.9960  138.3810 C   0  0  0  0  0  2  0  0  0  0  0  0
  184.3070  178.5100  140.7280 C   0  0  0  0  0  2  0  0  0  0  0  0
  184.8380  179.4800  142.8160 C   0  0  0  0  0  1  0  0  0  0  0  0
  188.3830  177.9260  139.7600 C   0  0  2  0  0  3  0  0  0  0  0  0
  184.5750  178.5230  139.2090 C   0  0  0  0  0  2  0  0  0  0  0  0
  186.6620  178.8680  141.2870 C   0  0  2  0  0  3  0  0  0  0  0  0
  189.0120  177.1530  140.9310 C   0  0  1  0  0  3  0  0  0  0  0  0
  190.6700  176.2230  139.4690 O   0  0  0  0  0  0  0  0  0  0  0  0
  190.5040  177.0000  140.6330 C   0  0  0  0  0  2  0  0  0  0  0  0
  186.0680  178.6400  138.8720 C   0  0  0  0  0  2  0  0  0  0  0  0
  186.8840  178.0450  140.0120 C   0  0  1  0  0  3  0  0  0  0  0  0
  189.2610  177.0680  143.5200 C   0  0  1  0  0  3  0  0  0  0  0  0
  190.8840  178.8200  143.8180 O   0  0  0  0  0  0  0  0  0  0  0  0
  190.5560  177.6260  144.0590 C   0  0  0  0  0  0  0  0  0  0  0  0
  191.9000  175.6980  144.3220 O   0  0  0  0  0  0  0  0  0  0  0  0
  191.4710  176.7710  144.8270 C   0  0  0  0  0  0  0  0  0  0  0  0
  191.8600  177.1470  146.1190 O   0  0  0  0  0  0  0  0  0  0  0  0
  192.5200  175.6980  147.9270 C   0  0  0  0  0  1  0  0  0  0  0  0
  191.3840  176.4670  147.2730 C   0  0  0  0  0  2  0  0  0  0  0  0
  188.2050  176.9530  144.6160 C   0  0  0  0  0  2  0  0  0  0  0  0
  188.4200  177.9210  145.6080 O   0  0  0  0  0  0  0  0  0  0  0  0
  187.5820  177.5630  146.6690 C   0  0  0  0  0  2  0  0  0  0  0  0
  186.2160  177.6150  146.2680 O   0  0  0  0  0  0  0  0  0  0  0  0
  185.8250  179.7210  147.4110 O   0  0  0  0  0  1  0  0  0  0  0  0
  185.3660  178.6690  146.6260 C   0  0  0  0  0  0  0  0  0  0  0  0
  184.1770  178.6770  146.2120 O   0  0  0  0  0  0  0  0  0  0  0  0
  2  7  1  0  0  0  0
  4  1  1  0  0  0  0
  4 16  1  1  0  0  0
  5  3  1  0  0  0  0
  5 12  1  0  0  0  0
  6  2  1  0  0  0  0
  8  3  1  6  0  0  0
  8 15  1  0  0  0  0
  8 11  1  0  0  0  0
  9  6  1  0  0  0  0
 10  2  1  0  0  0  0
 10  1  1  1  0  0  0
 11 13  1  6  0  0  0
 11  4  1  0  0  0  0
 12 13  1  0  0  0  0
 14  9  1  0  0  0  0
 15 14  1  6  0  0  0
 15 10  1  0  0  0  0
 16 18  1  0  0  0  0
 16 24  1  1  0  0  0
 17 18  2  0  0  0  0
 18 20  1  0  0  0  0
 19 20  2  0  0  0  0
 20 21  1  0  0  0  0
 21 23  1  0  0  0  0
 23 22  1  0  0  0  0
 24 25  1  0  0  0  0
 25 26  1  0  0  0  0
 27 29  1  0  0  0  0
 27 26  1  0  0  0  0
 29 28  1  0  0  0  0
 30 29  2  0  0  0  0
M  END
>  <MODEL>
1

>  <REMARK>
 VINA RESULT:      -7.9      0.000      0.000
  Name = 
  10 active torsions:
  status: ('A' for Active; 'I' for Inactive)
    1  A    between atoms: C_4  and  C_13
    2  A    between atoms: O_5  and  C_12
    3  A    between atoms: O_5  and  C_21
    4  A    between atoms: O_7  and  C_15
    5  A    between atoms: O_7  and  C_16
    6  A    between atoms: C_8  and  C_12
    7  A    between atoms: C_8  and  C_13
    8  A    between atoms: C_13  and  C_27
    9  A    between atoms: C_16  and  O_30
   10  A    between atoms: C_27  and  O_30
                            x       y       z     vdW  Elec       q    Type
                         _______ _______ _______ _____ _____    ______ ____

>  <TORSDO>
F 10

$$$$
=
 OpenBabel10262421563D

 30 32  0  0  1  0  0  0  0  0999 V2000
  186.6850  177.8370  142.8400 C   0  0  0  0  0  2  0  0  0  0  0  0
  184.1340  178.1270  142.8910 N   0  0  0  0  0  0  0  0  0  0  0  0
  186.7600  178.3510  147.1820 C   0  0  0  0  0  2  0  0  0  0  0  0
  187.8340  177.1930  143.6330 C   0  0  2  0  0  3  0  0  0  0  0  0
  187.9190  177.6310  147.8770 C   0  0  0  0  0  2  0  0  0  0  0  0
  183.7040  179.4820  143.2380 C   0  0  0  0  0  2  0  0  0  0  0  0
  184.2870  178.0590  141.4430 C   0  0  0  0  0  1  0  0  0  0  0  0
  186.5820  177.7320  145.7960 C   0  0  2  0  0  3  0  0  0  0  0  0
  183.3160  179.5630  144.7290 C   0  0  0  0  0  2  0  0  0  0  0  0
  185.3720  177.7340  143.6250 C   0  0  2  0  0  3  0  0  0  0  0  0
  187.9280  177.7910  145.0570 C   0  0  1  0  0  3  0  0  0  0  0  0
  189.1110  177.8050  147.1440 O   0  0  0  0  0  0  0  0  0  0  0  0
  188.9680  177.0920  145.9360 C   0  0  0  0  0  2  0  0  0  0  0  0
  184.1790  178.6560  145.6160 C   0  0  0  0  0  2  0  0  0  0  0  0
  185.5420  178.4690  144.9610 C   0  0  1  0  0  3  0  0  0  0  0  0
  189.1290  177.2910  142.8030 C   0  0  1  0  0  3  0  0  0  0  0  0
  189.6670  174.9440  142.7900 O   0  0  0  0  0  0  0  0  0  0  0  0
  190.0630  176.1220  143.0080 C   0  0  0  0  0  0  0  0  0  0  0  0
  192.0470  175.3950  144.0690 O   0  0  0  0  0  0  0  0  0  0  0  0
  191.4260  176.3400  143.5100 C   0  0  0  0  0  0  0  0  0  0  0  0
  192.0300  177.5960  143.3710 O   0  0  0  0  0  0  0  0  0  0  0  0
  191.0690  179.6920  144.0710 C   0  0  0  0  0  1  0  0  0  0  0  0
  192.0140  178.5550  144.4210 C   0  0  0  0  0  2  0  0  0  0  0  0
  188.8340  177.5160  141.3220 C   0  0  0  0  0  2  0  0  0  0  0  0
  190.0190  177.7940  140.6230 O   0  0  0  0  0  0  0  0  0  0  0  0
  189.8360  177.2510  139.3470 C   0  0  0  0  0  2  0  0  0  0  0  0
  188.5030  177.4720  138.8950 O   0  0  0  0  0  0  0  0  0  0  0  0
  186.8730  178.6460  137.5310 O   0  0  0  0  0  0  0  0  0  0  0  0
  188.1660  178.5160  138.0230 C   0  0  0  0  0  0  0  0  0  0  0  0
  189.0400  179.3620  137.7000 O   0  0  0  0  0  1  0  0  0  0  0  0
  1  4  1  0  0  0  0
  2  6  1  0  0  0  0
  2 10  1  0  0  0  0
  3  5  1  0  0  0  0
  4 16  1  6  0  0  0
  4 11  1  0  0  0  0
  6  9  1  0  0  0  0
  7  2  1  0  0  0  0
  8  3  1  1  0  0  0
  9 14  1  0  0  0  0
 10  1  1  6  0  0  0
 10 15  1  0  0  0  0
 11  8  1  0  0  0  0
 11 13  1  1  0  0  0
 12  5  1  0  0  0  0
 13 12  1  0  0  0  0
 15 14  1  1  0  0  0
 15  8  1  0  0  0  0
 16 24  1  6  0  0  0
 16 18  1  0  0  0  0
 17 18  2  0  0  0  0
 18 20  1  0  0  0  0
 20 19  2  0  0  0  0
 21 20  1  0  0  0  0
 21 23  1  0  0  0  0
 22 23  1  0  0  0  0
 25 24  1  0  0  0  0
 26 25  1  0  0  0  0
 27 26  1  0  0  0  0
 28 29  2  0  0  0  0
 29 27  1  0  0  0  0
 30 29  1  0  0  0  0
M  END
>  <MODEL>
2

>  <REMARK>
 VINA RESULT:      -7.7      2.163      5.716
  Name = 
  10 active torsions:
  status: ('A' for Active; 'I' for Inactive)
    1  A    between atoms: C_4  and  C_13
    2  A    between atoms: O_5  and  C_12
    3  A    between atoms: O_5  and  C_21
    4  A    between atoms: O_7  and  C_15
    5  A    between atoms: O_7  and  C_16
    6  A    between atoms: C_8  and  C_12
    7  A    between atoms: C_8  and  C_13
    8  A    between atoms: C_13  and  C_27
    9  A    between atoms: C_16  and  O_30
   10  A    between atoms: C_27  and  O_30
                            x       y       z     vdW  Elec       q    Type
                         _______ _______ _______ _____ _____    ______ ____

>  <TORSDO>
F 10

$$$$
=
 OpenBabel10262421563D

 30 32  0  0  1  0  0  0  0  0999 V2000
  187.4880  178.0690  143.3850 C   0  0  0  0  0  2  0  0  0  0  0  0
  185.3160  177.9460  144.7520 N   0  0  0  0  0  0  0  0  0  0  0  0
  189.7600  177.4790  147.0750 C   0  0  0  0  0  2  0  0  0  0  0  0
  188.8820  177.4280  143.2910 C   0  0  2  0  0  3  0  0  0  0  0  0
  191.1140  176.7930  146.8730 C   0  0  0  0  0  2  0  0  0  0  0  0
  185.1190  179.0880  145.6440 C   0  0  0  0  0  2  0  0  0  0  0  0
  184.7120  178.2680  143.4650 C   0  0  0  0  0  1  0  0  0  0  0  0
  188.9040  177.2100  145.8390 C   0  0  2  0  0  3  0  0  0  0  0  0
  185.5440  178.7330  147.0840 C   0  0  0  0  0  2  0  0  0  0  0  0
  186.7570  177.5740  144.6390 C   0  0  2  0  0  3  0  0  0  0  0  0
  189.6860  177.6560  144.5930 C   0  0  1  0  0  3  0  0  0  0  0  0
  191.7660  177.3240  145.7410 O   0  0  0  0  0  0  0  0  0  0  0  0
  191.0300  176.9250  144.6070 C   0  0  0  0  0  2  0  0  0  0  0  0
  186.7410  177.7730  147.1290 C   0  0  0  0  0  2  0  0  0  0  0  0
  187.5810  177.9660  145.8730 C   0  0  1  0  0  3  0  0  0  0  0  0
  189.5740  177.9270  142.0080 C   0  0  1  0  0  3  0  0  0  0  0  0
  190.3330  175.6650  141.6850 O   0  0  0  0  0  0  0  0  0  0  0  0
  190.4210  176.8740  141.3340 C   0  0  0  0  0  0  0  0  0  0  0  0
  192.5620  177.5880  140.6280 O   0  0  0  0  0  0  0  0  0  0  0  0
  191.3910  177.2520  140.2980 C   0  0  0  0  0  0  0  0  0  0  0  0
  191.0130  177.2430  138.9500 O   0  0  0  0  0  0  0  0  0  0  0  0
  189.8300  176.3190  137.0660 C   0  0  0  0  0  1  0  0  0  0  0  0
  190.7240  176.0340  138.2610 C   0  0  0  0  0  2  0  0  0  0  0  0
  188.5760  178.5470  141.0330 C   0  0  0  0  0  2  0  0  0  0  0  0
  188.1240  177.5860  140.1160 O   0  0  0  0  0  0  0  0  0  0  0  0
  187.1910  178.2460  139.3110 C   0  0  0  0  0  2  0  0  0  0  0  0
  186.1980  178.8800  140.1130 O   0  0  0  0  0  0  0  0  0  0  0  0
  183.9560  177.9700  139.9110 O   0  0  0  0  0  1  0  0  0  0  0  0
  184.8640  179.0020  139.7030 C   0  0  0  0  0  0  0  0  0  0  0  0
  184.4760  180.0690  139.1600 O   0  0  0  0  0  0  0  0  0  0  0  0
  2  6  1  0  0  0  0
  4 16  1  6  0  0  0
  4  1  1  0  0  0  0
  4 11  1  0  0  0  0
  5  3  1  0  0  0  0
  6  9  1  0  0  0  0
  7  2  1  0  0  0  0
  8 15  1  0  0  0  0
  8  3  1  1  0  0  0
  9 14  1  0  0  0  0
 10  1  1  6  0  0  0
 10  2  1  0  0  0  0
 10 15  1  0  0  0  0
 11 13  1  6  0  0  0
 11  8  1  0  0  0  0
 12  5  1  0  0  0  0
 13 12  1  0  0  0  0
 15 14  1  1  0  0  0
 16 24  1  6  0  0  0
 18 17  2  0  0  0  0
 18 16  1  0  0  0  0
 20 19  2  0  0  0  0
 20 18  1  0  0  0  0
 21 20  1  0  0  0  0
 22 23  1  0  0  0  0
 23 21  1  0  0  0  0
 25 24  1  0  0  0  0
 26 27  1  0  0  0  0
 26 25  1  0  0  0  0
 29 28  1  0  0  0  0
 29 27  1  0  0  0  0
 30 29  2  0  0  0  0
M  END
>  <MODEL>
3

>  <REMARK>
 VINA RESULT:      -7.7      2.474      6.075
  Name = 
  10 active torsions:
  status: ('A' for Active; 'I' for Inactive)
    1  A    between atoms: C_4  and  C_13
    2  A    between atoms: O_5  and  C_12
    3  A    between atoms: O_5  and  C_21
    4  A    between atoms: O_7  and  C_15
    5  A    between atoms: O_7  and  C_16
    6  A    between atoms: C_8  and  C_12
    7  A    between atoms: C_8  and  C_13
    8  A    between atoms: C_13  and  C_27
    9  A    between atoms: C_16  and  O_30
   10  A    between atoms: C_27  and  O_30
                            x       y       z     vdW  Elec       q    Type
                         _______ _______ _______ _____ _____    ______ ____

>  <TORSDO>
F 10

$$$$
=
 OpenBabel10262421563D

 30 32  0  0  1  0  0  0  0  0999 V2000
  186.6730  177.9530  142.7780 C   0  0  0  0  0  2  0  0  0  0  0  0
  184.1130  178.1200  142.6440 N   0  0  0  0  0  0  0  0  0  0  0  0
  186.4090  178.4580  147.1140 C   0  0  0  0  0  2  0  0  0  0  0  0
  187.7900  177.3610  143.6520 C   0  0  2  0  0  3  0  0  0  0  0  0
  187.5480  177.7920  147.8920 C   0  0  0  0  0  2  0  0  0  0  0  0
  183.5960  179.4520  142.9580 C   0  0  0  0  0  2  0  0  0  0  0  0
  184.3740  178.0630  141.2120 C   0  0  0  0  0  1  0  0  0  0  0  0
  186.3620  177.8350  145.7200 C   0  0  2  0  0  3  0  0  0  0  0  0
  183.0980  179.5110  144.4170 C   0  0  0  0  0  2  0  0  0  0  0  0
  185.3130  177.7850  143.4670 C   0  0  2  0  0  3  0  0  0  0  0  0
  187.7530  177.9590  145.0790 C   0  0  1  0  0  3  0  0  0  0  0  0
  188.7800  178.0240  147.2460 O   0  0  0  0  0  0  0  0  0  0  0  0
  188.7580  177.3090  146.0320 C   0  0  0  0  0  2  0  0  0  0  0  0
  183.9370  178.6440  145.3650 C   0  0  0  0  0  2  0  0  0  0  0  0
  185.3500  178.5240  144.8100 C   0  0  1  0  0  3  0  0  0  0  0  0
  189.1360  177.5230  142.9190 C   0  0  1  0  0  3  0  0  0  0  0  0
  189.9010  175.2410  142.9200 O   0  0  0  0  0  0  0  0  0  0  0  0
  190.1320  176.4370  143.2460 C   0  0  0  0  0  0  0  0  0  0  0  0
  192.0470  177.7600  143.6660 O   0  0  0  0  0  0  0  0  0  0  0  0
  191.3580  176.7540  143.9910 C   0  0  0  0  0  0  0  0  0  0  0  0
  191.7600  175.9380  145.0560 O   0  0  0  0  0  0  0  0  0  0  0  0
  191.7250  175.4330  147.4110 C   0  0  0  0  0  1  0  0  0  0  0  0
  192.0360  176.4700  146.3450 C   0  0  0  0  0  2  0  0  0  0  0  0
  188.9420  177.6660  141.4110 C   0  0  0  0  0  2  0  0  0  0  0  0
  190.1840  177.7400  140.7610 O   0  0  0  0  0  0  0  0  0  0  0  0
  189.9680  177.2210  139.4810 C   0  0  0  0  0  2  0  0  0  0  0  0
  190.5870  175.9460  139.3460 O   0  0  0  0  0  0  0  0  0  0  0  0
  192.0560  176.4820  137.4880 O   0  0  0  0  0  0  0  0  0  0  0  0
  191.2830  175.5650  138.1910 C   0  0  0  0  0  0  0  0  0  0  0  0
  191.2270  174.3710  137.7970 O   0  0  0  0  0  1  0  0  0  0  0  0
  1  4  1  0  0  0  0
  2  6  1  0  0  0  0
  2 10  1  0  0  0  0
  3  5  1  0  0  0  0
  4 16  1  6  0  0  0
  4 11  1  0  0  0  0
  6  9  1  0  0  0  0
  7  2  1  0  0  0  0
  8  3  1  1  0  0  0
  9 14  1  0  0  0  0
 10  1  1  6  0  0  0
 10 15  1  0  0  0  0
 11  8  1  0  0  0  0
 11 13  1  1  0  0  0
 12  5  1  0  0  0  0
 13 12  1  0  0  0  0
 15 14  1  1  0  0  0
 15  8  1  0  0  0  0
 16 24  1  6  0  0  0
 16 18  1  0  0  0  0
 17 18  2  0  0  0  0
 18 20  1  0  0  0  0
 19 20  2  0  0  0  0
 20 21  1  0  0  0  0
 21 23  1  0  0  0  0
 23 22  1  0  0  0  0
 25 24  1  0  0  0  0
 26 25  1  0  0  0  0
 27 26  1  0  0  0  0
 28 29  2  0  0  0  0
 29 27  1  0  0  0  0
 30 29  1  0  0  0  0
M  END
>  <MODEL>
4

>  <REMARK>
 VINA RESULT:      -7.6      1.814      5.954
  Name = 
  10 active torsions:
  status: ('A' for Active; 'I' for Inactive)
    1  A    between atoms: C_4  and  C_13
    2  A    between atoms: O_5  and  C_12
    3  A    between atoms: O_5  and  C_21
    4  A    between atoms: O_7  and  C_15
    5  A    between atoms: O_7  and  C_16
    6  A    between atoms: C_8  and  C_12
    7  A    between atoms: C_8  and  C_13
    8  A    between atoms: C_13  and  C_27
    9  A    between atoms: C_16  and  O_30
   10  A    between atoms: C_27  and  O_30
                            x       y       z     vdW  Elec       q    Type
                         _______ _______ _______ _____ _____    ______ ____

>  <TORSDO>
F 10

$$$$
=
 OpenBabel10262421563D

 30 32  0  0  1  0  0  0  0  0999 V2000
  187.5250  178.0540  143.3850 C   0  0  0  0  0  2  0  0  0  0  0  0
  185.3280  177.9340  144.7090 N   0  0  0  0  0  0  0  0  0  0  0  0
  189.7250  177.4700  147.1190 C   0  0  0  0  0  2  0  0  0  0  0  0
  188.9210  177.4120  143.3190 C   0  0  2  0  0  3  0  0  0  0  0  0
  191.0830  176.7820  146.9450 C   0  0  0  0  0  2  0  0  0  0  0  0
  185.1140  179.0780  145.5960 C   0  0  0  0  0  2  0  0  0  0  0  0
  184.7490  178.2540  143.4110 C   0  0  0  0  0  1  0  0  0  0  0  0
  188.8930  177.1980  145.8670 C   0  0  2  0  0  3  0  0  0  0  0  0
  185.5100  178.7250  147.0440 C   0  0  0  0  0  2  0  0  0  0  0  0
  186.7710  177.5610  144.6260 C   0  0  2  0  0  3  0  0  0  0  0  0
  189.7000  177.6420  144.6360 C   0  0  1  0  0  3  0  0  0  0  0  0
  191.7570  177.3110  145.8250 O   0  0  0  0  0  0  0  0  0  0  0  0
  191.0430  176.9100  144.6780 C   0  0  0  0  0  2  0  0  0  0  0  0
  186.7060  177.7650  147.1140 C   0  0  0  0  0  2  0  0  0  0  0  0
  187.5700  177.9560  145.8740 C   0  0  1  0  0  3  0  0  0  0  0  0
  189.6380  177.9080  142.0490 C   0  0  1  0  0  3  0  0  0  0  0  0
  190.4420  175.6540  141.7840 O   0  0  0  0  0  0  0  0  0  0  0  0
  190.4950  176.8520  141.3920 C   0  0  0  0  0  0  0  0  0  0  0  0
  192.5640  177.6980  140.6200 O   0  0  0  0  0  0  0  0  0  0  0  0
  191.4350  177.2180  140.3240 C   0  0  0  0  0  0  0  0  0  0  0  0
  191.0750  177.0370  138.9830 O   0  0  0  0  0  0  0  0  0  0  0  0
  192.5950  176.2510  137.2870 C   0  0  0  0  0  1  0  0  0  0  0  0
  191.4750  175.8870  138.2490 C   0  0  0  0  0  2  0  0  0  0  0  0
  188.6600  178.5290  141.0550 C   0  0  0  0  0  2  0  0  0  0  0  0
  188.1170  177.5420  140.2180 O   0  0  0  0  0  0  0  0  0  0  0  0
  187.4540  178.2370  139.2020 C   0  0  0  0  0  2  0  0  0  0  0  0
  187.8830  177.7820  137.9220 O   0  0  0  0  0  0  0  0  0  0  0  0
  189.2320  178.0100  135.9150 O   0  0  0  0  0  0  0  0  0  0  0  0
  188.7150  178.5440  137.0910 C   0  0  0  0  0  0  0  0  0  0  0  0
  188.9780  179.7350  137.3990 O   0  0  0  0  0  1  0  0  0  0  0  0
  2  6  1  0  0  0  0
  4 16  1  6  0  0  0
  4  1  1  0  0  0  0
  4 11  1  0  0  0  0
  5  3  1  0  0  0  0
  6  9  1  0  0  0  0
  7  2  1  0  0  0  0
  8 15  1  0  0  0  0
  8  3  1  1  0  0  0
  9 14  1  0  0  0  0
 10  1  1  6  0  0  0
 10  2  1  0  0  0  0
 10 15  1  0  0  0  0
 11 13  1  6  0  0  0
 11  8  1  0  0  0  0
 12  5  1  0  0  0  0
 13 12  1  0  0  0  0
 15 14  1  1  0  0  0
 16 24  1  6  0  0  0
 18 17  2  0  0  0  0
 18 16  1  0  0  0  0
 20 19  2  0  0  0  0
 20 18  1  0  0  0  0
 21 20  1  0  0  0  0
 22 23  1  0  0  0  0
 23 21  1  0  0  0  0
 25 24  1  0  0  0  0
 26 25  1  0  0  0  0
 27 26  1  0  0  0  0
 28 29  2  0  0  0  0
 29 30  1  0  0  0  0
 29 27  1  0  0  0  0
M  END
>  <MODEL>
5

>  <REMARK>
 VINA RESULT:      -7.6      2.650      6.627
  Name = 
  10 active torsions:
  status: ('A' for Active; 'I' for Inactive)
    1  A    between atoms: C_4  and  C_13
    2  A    between atoms: O_5  and  C_12
    3  A    between atoms: O_5  and  C_21
    4  A    between atoms: O_7  and  C_15
    5  A    between atoms: O_7  and  C_16
    6  A    between atoms: C_8  and  C_12
    7  A    between atoms: C_8  and  C_13
    8  A    between atoms: C_13  and  C_27
    9  A    between atoms: C_16  and  O_30
   10  A    between atoms: C_27  and  O_30
                            x       y       z     vdW  Elec       q    Type
                         _______ _______ _______ _____ _____    ______ ____

>  <TORSDO>
F 10

$$$$
=
 OpenBabel10262421563D

 30 32  0  0  1  0  0  0  0  0999 V2000
  187.4110  177.7740  143.4740 C   0  0  0  0  0  2  0  0  0  0  0  0
  184.9170  178.1380  142.9840 N   0  0  0  0  0  0  0  0  0  0  0  0
  186.5990  178.4220  147.7220 C   0  0  0  0  0  2  0  0  0  0  0  0
  188.3470  177.1220  144.5060 C   0  0  2  0  0  3  0  0  0  0  0  0
  187.5630  177.6920  148.6620 C   0  0  0  0  0  2  0  0  0  0  0  0
  184.4720  179.5150  143.2000 C   0  0  0  0  0  2  0  0  0  0  0  0
  185.3650  178.0200  141.6030 C   0  0  0  0  0  1  0  0  0  0  0  0
  186.6920  177.7660  146.3460 C   0  0  2  0  0  3  0  0  0  0  0  0
  183.7850  179.6550  144.5740 C   0  0  0  0  0  2  0  0  0  0  0  0
  185.9610  177.7340  143.9710 C   0  0  2  0  0  3  0  0  0  0  0  0
  188.1640  177.7620  145.9030 C   0  0  1  0  0  3  0  0  0  0  0  0
  188.8860  177.8080  148.1890 O   0  0  0  0  0  0  0  0  0  0  0  0
  188.9730  177.0620  146.9970 C   0  0  0  0  0  2  0  0  0  0  0  0
  184.4130  178.7520  145.6450 C   0  0  0  0  0  2  0  0  0  0  0  0
  185.8740  178.5050  145.2930 C   0  0  1  0  0  3  0  0  0  0  0  0
  189.7890  177.1560  143.9630 C   0  0  1  0  0  3  0  0  0  0  0  0
  189.8330  175.2350  142.5120 O   0  0  0  0  0  0  0  0  0  0  0  0
  189.9400  176.4880  142.6170 C   0  0  0  0  0  0  0  0  0  0  0  0
  191.4570  177.3600  141.0270 O   0  0  0  0  0  0  0  0  0  0  0  0
  190.2630  177.2840  141.4260 C   0  0  0  0  0  0  0  0  0  0  0  0
  189.2450  177.9590  140.7390 O   0  0  0  0  0  0  0  0  0  0  0  0
  189.2780  178.3170  138.3560 C   0  0  0  0  0  1  0  0  0  0  0  0
  188.7330  177.4810  139.5020 C   0  0  0  0  0  2  0  0  0  0  0  0
  190.3510  178.5760  143.9460 C   0  0  0  0  0  2  0  0  0  0  0  0
  191.5030  178.6570  144.7440 O   0  0  0  0  0  0  0  0  0  0  0  0
  191.8760  177.3330  144.9970 C   0  0  0  0  0  2  0  0  0  0  0  0
  192.0650  177.1230  146.3930 O   0  0  0  0  0  0  0  0  0  0  0  0
  192.5870  175.7050  148.2940 O   0  0  0  0  0  1  0  0  0  0  0  0
  192.3250  175.8580  146.9370 C   0  0  0  0  0  0  0  0  0  0  0  0
  192.2980  174.8440  146.1920 O   0  0  0  0  0  0  0  0  0  0  0  0
  1  4  1  0  0  0  0
  2  6  1  0  0  0  0
  2 10  1  0  0  0  0
  3  5  1  0  0  0  0
  4 16  1  6  0  0  0
  4 11  1  0  0  0  0
  6  9  1  0  0  0  0
  7  2  1  0  0  0  0
  8  3  1  1  0  0  0
  9 14  1  0  0  0  0
 10  1  1  6  0  0  0
 10 15  1  0  0  0  0
 11  8  1  0  0  0  0
 11 13  1  1  0  0  0
 12  5  1  0  0  0  0
 13 12  1  0  0  0  0
 15 14  1  1  0  0  0
 15  8  1  0  0  0  0
 16 24  1  6  0  0  0
 17 18  2  0  0  0  0
 18 16  1  0  0  0  0
 19 20  2  0  0  0  0
 20 18  1  0  0  0  0
 21 20  1  0  0  0  0
 22 23  1  0  0  0  0
 23 21  1  0  0  0  0
 24 25  1  0  0  0  0
 25 26  1  0  0  0  0
 26 27  1  0  0  0  0
 27 29  1  0  0  0  0
 29 28  1  0  0  0  0
 30 29  2  0  0  0  0
M  END
>  <MODEL>
6

>  <REMARK>
 VINA RESULT:      -7.6      1.953      5.988
  Name = 
  10 active torsions:
  status: ('A' for Active; 'I' for Inactive)
    1  A    between atoms: C_4  and  C_13
    2  A    between atoms: O_5  and  C_12
    3  A    between atoms: O_5  and  C_21
    4  A    between atoms: O_7  and  C_15
    5  A    between atoms: O_7  and  C_16
    6  A    between atoms: C_8  and  C_12
    7  A    between atoms: C_8  and  C_13
    8  A    between atoms: C_13  and  C_27
    9  A    between atoms: C_16  and  O_30
   10  A    between atoms: C_27  and  O_30
                            x       y       z     vdW  Elec       q    Type
                         _______ _______ _______ _____ _____    ______ ____

>  <TORSDO>
F 10

$$$$
=
 OpenBabel10262421563D

 30 32  0  0  1  0  0  0  0  0999 V2000
  186.5670  178.0420  144.4820 C   0  0  0  0  0  2  0  0  0  0  0  0
  186.2520  177.8280  147.0220 N   0  0  0  0  0  0  0  0  0  0  0  0
  190.7340  176.8070  144.9650 C   0  0  0  0  0  2  0  0  0  0  0  0
  187.2670  177.3530  143.2990 C   0  0  2  0  0  3  0  0  0  0  0  0
  191.3200  176.0910  143.7440 C   0  0  0  0  0  2  0  0  0  0  0  0
  186.9830  178.8360  147.7900 C   0  0  0  0  0  2  0  0  0  0  0  0
  184.9330  178.3640  146.7130 C   0  0  0  0  0  1  0  0  0  0  0  0
  189.2110  176.7640  144.8530 C   0  0  2  0  0  3  0  0  0  0  0  0
  188.3040  178.2530  148.3340 C   0  0  0  0  0  2  0  0  0  0  0  0
  187.0070  177.4060  145.8060 C   0  0  2  0  0  3  0  0  0  0  0  0
  188.8020  177.3480  143.4910 C   0  0  1  0  0  3  0  0  0  0  0  0
  190.9300  176.7490  142.5590 O   0  0  0  0  0  0  0  0  0  0  0  0
  189.5420  176.5570  142.4100 C   0  0  0  0  0  2  0  0  0  0  0  0
  188.9430  177.2400  147.3750 C   0  0  0  0  0  2  0  0  0  0  0  0
  188.5250  177.5720  145.9480 C   0  0  1  0  0  3  0  0  0  0  0  0
  186.7810  177.9990  141.9870 C   0  0  1  0  0  3  0  0  0  0  0  0
  185.7420  180.1170  142.4670 O   0  0  0  0  0  0  0  0  0  0  0  0
  185.5850  178.9010  142.1690 C   0  0  0  0  0  0  0  0  0  0  0  0
  183.5080  178.2310  143.0810 O   0  0  0  0  0  0  0  0  0  0  0  0
  184.2230  178.3620  142.0500 C   0  0  0  0  0  0  0  0  0  0  0  0
  183.7260  177.9890  140.7950 O   0  0  0  0  0  0  0  0  0  0  0  0
  183.4510  179.6670  139.0880 C   0  0  0  0  0  1  0  0  0  0  0  0
  184.2810  178.4970  139.5880 C   0  0  0  0  0  2  0  0  0  0  0  0
  187.9150  178.7180  141.2590 C   0  0  0  0  0  2  0  0  0  0  0  0
  187.7390  178.6320  139.8700 O   0  0  0  0  0  0  0  0  0  0  0  0
  189.0290  178.5810  139.3320 C   0  0  0  0  0  2  0  0  0  0  0  0
  189.0930  179.3150  138.1130 O   0  0  0  0  0  0  0  0  0  0  0  0
  187.1160  179.1980  136.7090 O   0  0  0  0  0  1  0  0  0  0  0  0
  188.4510  178.8900  136.9420 C   0  0  0  0  0  0  0  0  0  0  0  0
  189.0980  178.2410  136.0800 O   0  0  0  0  0  0  0  0  0  0  0  0
  2  6  1  0  0  0  0
  4 16  1  6  0  0  0
  4 11  1  0  0  0  0
  4  1  1  0  0  0  0
  5  3  1  0  0  0  0
  6  9  1  0  0  0  0
  7  2  1  0  0  0  0
  8  3  1  1  0  0  0
  8 15  1  0  0  0  0
 10  1  1  6  0  0  0
 10 15  1  0  0  0  0
 10  2  1  0  0  0  0
 11 13  1  6  0  0  0
 11  8  1  0  0  0  0
 12  5  1  0  0  0  0
 13 12  1  0  0  0  0
 14  9  1  0  0  0  0
 15 14  1  1  0  0  0
 16 24  1  1  0  0  0
 16 18  1  0  0  0  0
 18 17  2  0  0  0  0
 20 18  1  0  0  0  0
 20 19  2  0  0  0  0
 21 20  1  0  0  0  0
 22 23  1  0  0  0  0
 23 21  1  0  0  0  0
 25 24  1  0  0  0  0
 26 25  1  0  0  0  0
 27 26  1  0  0  0  0
 28 29  1  0  0  0  0
 29 27  1  0  0  0  0
 30 29  2  0  0  0  0
M  END
>  <MODEL>
7

>  <REMARK>
 VINA RESULT:      -7.1      2.653      7.321
  Name = 
  10 active torsions:
  status: ('A' for Active; 'I' for Inactive)
    1  A    between atoms: C_4  and  C_13
    2  A    between atoms: O_5  and  C_12
    3  A    between atoms: O_5  and  C_21
    4  A    between atoms: O_7  and  C_15
    5  A    between atoms: O_7  and  C_16
    6  A    between atoms: C_8  and  C_12
    7  A    between atoms: C_8  and  C_13
    8  A    between atoms: C_13  and  C_27
    9  A    between atoms: C_16  and  O_30
   10  A    between atoms: C_27  and  O_30
                            x       y       z     vdW  Elec       q    Type
                         _______ _______ _______ _____ _____    ______ ____

>  <TORSDO>
F 10

$$$$
=
 OpenBabel10262421563D

 30 32  0  0  1  0  0  0  0  0999 V2000
  187.8970  177.5830  142.9760 C   0  0  0  0  0  2  0  0  0  0  0  0
  190.3870  177.3240  142.4030 N   0  0  0  0  0  0  0  0  0  0  0  0
  188.9240  177.3770  147.2210 C   0  0  0  0  0  2  0  0  0  0  0  0
  186.9660  178.2710  143.9880 C   0  0  2  0  0  3  0  0  0  0  0  0
  187.9550  178.1320  148.1370 C   0  0  0  0  0  2  0  0  0  0  0  0
  190.9270  176.0020  142.7200 C   0  0  0  0  0  2  0  0  0  0  0  0
  189.8750  177.2890  141.0390 C   0  0  0  0  0  1  0  0  0  0  0  0
  188.7320  177.8980  145.7980 C   0  0  2  0  0  3  0  0  0  0  0  0
  191.6770  176.0290  144.0670 C   0  0  0  0  0  2  0  0  0  0  0  0
  189.3610  177.7550  143.3980 C   0  0  2  0  0  3  0  0  0  0  0  0
  187.2460  177.7740  145.4260 C   0  0  1  0  0  3  0  0  0  0  0  0
  186.6230  177.8950  147.7390 O   0  0  0  0  0  0  0  0  0  0  0  0
  186.4410  178.5220  146.4900 C   0  0  0  0  0  2  0  0  0  0  0  0
  191.0380  176.9880  145.0810 C   0  0  0  0  0  2  0  0  0  0  0  0
  189.5510  177.1140  144.7780 C   0  0  1  0  0  3  0  0  0  0  0  0
  185.5070  178.1020  143.5180 C   0  0  1  0  0  3  0  0  0  0  0  0
  184.9660  180.4250  143.8400 O   0  0  0  0  0  0  0  0  0  0  0  0
  184.6000  179.2240  143.9610 C   0  0  0  0  0  0  0  0  0  0  0  0
  183.1760  179.0060  145.8370 O   0  0  0  0  0  0  0  0  0  0  0  0
  183.3030  178.9280  144.5840 C   0  0  0  0  0  0  0  0  0  0  0  0
  182.2130  178.5560  143.7870 O   0  0  0  0  0  0  0  0  0  0  0  0
  181.7250  178.6040  141.4280 C   0  0  0  0  0  1  0  0  0  0  0  0
  181.7400  179.3840  142.7320 C   0  0  0  0  0  2  0  0  0  0  0  0
  185.4230  177.8790  142.0100 C   0  0  0  0  0  2  0  0  0  0  0  0
  185.3210  179.1070  141.3380 O   0  0  0  0  0  0  0  0  0  0  0  0
  185.4350  178.7990  139.9790 C   0  0  0  0  0  2  0  0  0  0  0  0
  186.8030  178.6270  139.6170 O   0  0  0  0  0  0  0  0  0  0  0  0
  187.1590  179.0050  137.2450 O   0  0  0  0  0  0  0  0  0  0  0  0
  187.1960  178.1660  138.3540 C   0  0  0  0  0  0  0  0  0  0  0  0
  187.6100  176.9850  138.2240 O   0  0  0  0  0  1  0  0  0  0  0  0
  1  4  1  0  0  0  0
  2  6  1  0  0  0  0
  2 10  1  0  0  0  0
  3  5  1  0  0  0  0
  4 16  1  6  0  0  0
  4 11  1  0  0  0  0
  6  9  1  0  0  0  0
  7  2  1  0  0  0  0
  8  3  1  1  0  0  0
  9 14  1  0  0  0  0
 10  1  1  6  0  0  0
 10 15  1  0  0  0  0
 11  8  1  0  0  0  0
 11 13  1  1  0  0  0
 12  5  1  0  0  0  0
 13 12  1  0  0  0  0
 15 14  1  1  0  0  0
 15  8  1  0  0  0  0
 16 24  1  6  0  0  0
 16 18  1  0  0  0  0
 17 18  2  0  0  0  0
 18 20  1  0  0  0  0
 20 19  2  0  0  0  0
 21 20  1  0  0  0  0
 22 23  1  0  0  0  0
 23 21  1  0  0  0  0
 25 24  1  0  0  0  0
 26 25  1  0  0  0  0
 27 26  1  0  0  0  0
 28 29  2  0  0  0  0
 29 27  1  0  0  0  0
 30 29  1  0  0  0  0
M  END
>  <MODEL>
8

>  <REMARK>
 VINA RESULT:      -7.1      2.719      7.602
  Name = 
  10 active torsions:
  status: ('A' for Active; 'I' for Inactive)
    1  A    between atoms: C_4  and  C_13
    2  A    between atoms: O_5  and  C_12
    3  A    between atoms: O_5  and  C_21
    4  A    between atoms: O_7  and  C_15
    5  A    between atoms: O_7  and  C_16
    6  A    between atoms: C_8  and  C_12
    7  A    between atoms: C_8  and  C_13
    8  A    between atoms: C_13  and  C_27
    9  A    between atoms: C_16  and  O_30
   10  A    between atoms: C_27  and  O_30
                            x       y       z     vdW  Elec       q    Type
                         _______ _______ _______ _____ _____    ______ ____

>  <TORSDO>
F 10

$$$$
=
 OpenBabel10262421563D

 30 32  0  0  1  0  0  0  0  0999 V2000
  189.2140  177.2810  143.9650 C   0  0  0  0  0  2  0  0  0  0  0  0
  190.0540  177.5100  146.3810 N   0  0  0  0  0  0  0  0  0  0  0  0
  185.1720  178.2030  145.3570 C   0  0  0  0  0  2  0  0  0  0  0  0
  188.2270  177.9200  142.9740 C   0  0  2  0  0  3  0  0  0  0  0  0
  184.2860  178.8770  144.3040 C   0  0  0  0  0  2  0  0  0  0  0  0
  189.5810  176.4480  147.2690 C   0  0  0  0  0  2  0  0  0  0  0  0
  191.3100  177.0740  145.7850 C   0  0  0  0  0  1  0  0  0  0  0  0
  186.6280  178.3590  144.9200 C   0  0  2  0  0  3  0  0  0  0  0  0
  188.3700  176.9300  148.0950 C   0  0  0  0  0  2  0  0  0  0  0  0
  189.0260  177.8790  145.3640 C   0  0  2  0  0  3  0  0  0  0  0  0
  186.7730  177.8110  143.4910 C   0  0  1  0  0  3  0  0  0  0  0  0
  184.4570  178.2540  143.0510 O   0  0  0  0  0  0  0  0  0  0  0  0
  185.7630  178.5490  142.6100 C   0  0  0  0  0  2  0  0  0  0  0  0
  187.4680  177.8960  147.3160 C   0  0  0  0  0  2  0  0  0  0  0  0
  187.5900  177.6000  145.8270 C   0  0  1  0  0  3  0  0  0  0  0  0
  188.4630  177.3160  141.5760 C   0  0  1  0  0  3  0  0  0  0  0  0
  188.6010  179.4930  140.5580 O   0  0  0  0  0  0  0  0  0  0  0  0
  188.2230  178.2940  140.4510 C   0  0  0  0  0  0  0  0  0  0  0  0
  186.3530  178.3320  139.0040 O   0  0  0  0  0  0  0  0  0  0  0  0
  187.5040  177.8720  139.2410 C   0  0  0  0  0  0  0  0  0  0  0  0
  188.0950  176.9600  138.3590 O   0  0  0  0  0  0  0  0  0  0  0  0
  189.0560  178.6230  136.9050 C   0  0  0  0  0  1  0  0  0  0  0  0
  188.3400  177.2860  136.9970 C   0  0  0  0  0  2  0  0  0  0  0  0
  189.8410  176.6680  141.4660 C   0  0  0  0  0  2  0  0  0  0  0  0
  190.6270  177.3430  140.5200 O   0  0  0  0  0  0  0  0  0  0  0  0
  191.9460  177.2040  140.9620 C   0  0  0  0  0  2  0  0  0  0  0  0
  192.8610  177.5040  139.9120 O   0  0  0  0  0  0  0  0  0  0  0  0
  191.9600  176.7530  137.7860 O   0  0  0  0  0  0  0  0  0  0  0  0
  192.9600  176.7250  138.7520 C   0  0  0  0  0  0  0  0  0  0  0  0
  193.9780  176.0070  138.5700 O   0  0  0  0  0  1  0  0  0  0  0  0
  2  6  1  0  0  0  0
  4 16  1  6  0  0  0
  4 11  1  0  0  0  0
  4  1  1  0  0  0  0
  5  3  1  0  0  0  0
  6  9  1  0  0  0  0
  7  2  1  0  0  0  0
  8  3  1  1  0  0  0
  8 15  1  0  0  0  0
 10  1  1  6  0  0  0
 10 15  1  0  0  0  0
 10  2  1  0  0  0  0
 11 13  1  6  0  0  0
 11  8  1  0  0  0  0
 12  5  1  0  0  0  0
 13 12  1  0  0  0  0
 14  9  1  0  0  0  0
 15 14  1  1  0  0  0
 16 24  1  1  0  0  0
 18 17  2  0  0  0  0
 18 16  1  0  0  0  0
 19 20  2  0  0  0  0
 20 18  1  0  0  0  0
 21 20  1  0  0  0  0
 22 23  1  0  0  0  0
 23 21  1  0  0  0  0
 25 26  1  0  0  0  0
 25 24  1  0  0  0  0
 27 26  1  0  0  0  0
 28 29  2  0  0  0  0
 29 27  1  0  0  0  0
 30 29  1  0  0  0  0
M  END
>  <MODEL>
9

>  <REMARK>
 VINA RESULT:      -7.0      2.832      7.678
  Name = 
  10 active torsions:
  status: ('A' for Active; 'I' for Inactive)
    1  A    between atoms: C_4  and  C_13
    2  A    between atoms: O_5  and  C_12
    3  A    between atoms: O_5  and  C_21
    4  A    between atoms: O_7  and  C_15
    5  A    between atoms: O_7  and  C_16
    6  A    between atoms: C_8  and  C_12
    7  A    between atoms: C_8  and  C_13
    8  A    between atoms: C_13  and  C_27
    9  A    between atoms: C_16  and  O_30
   10  A    between atoms: C_27  and  O_30
                            x       y       z     vdW  Elec       q    Type
                         _______ _______ _______ _____ _____    ______ ____

>  <TORSDO>
F 10

$$$$
