=
 OpenBabel10262423323D

 34 40  0  0  1  0  0  0  0  0999 V2000
  191.0410  174.7170  137.7710 C   0  0  1  0  0  3  0  0  0  0  0  0
  193.9540  173.7120  135.6250 C   0  0  0  0  0  3  0  0  0  0  0  0
  188.7220  177.8350  141.3410 C   0  0  0  0  0  2  0  0  0  0  0  0
  191.6450  172.9670  135.4690 C   0  0  0  0  0  2  0  0  0  0  0  0
  187.3600  178.3000  138.6870 C   0  0  0  0  0  2  0  0  0  0  0  0
  185.1960  178.7470  142.3960 C   0  0  0  0  0  0  0  0  0  0  0  0
  189.2850  176.5980  138.1350 C   0  0  2  0  0  0  0  0  0  0  0  0
  190.5120  175.8430  138.6920 C   0  0  0  0  0  2  0  0  0  0  0  0
  188.6750  174.7310  136.6810 C   0  0  0  0  0  0  0  0  0  0  0  0
  188.0260  174.0550  135.5230 C   0  0  0  0  0  3  0  0  0  0  0  0
  186.5560  178.4140  142.4290 C   0  0  0  0  0  3  0  0  0  0  0  0
  187.2840  178.2630  141.2450 C   0  0  0  0  0  0  0  0  0  0  0  0
  188.3100  175.8800  137.2360 C   0  0  0  0  0  2  0  0  0  0  0  0
  189.6430  177.9800  137.6090 C   0  0  0  0  0  2  0  0  0  0  0  0
  190.2490  173.3960  135.8240 C   0  0  0  0  0  0  0  0  0  0  0  0
  189.9930  174.1780  136.8510 C   0  0  1  0  0  3  0  0  0  0  0  0
  189.1160  173.2460  134.9710 N   0  0  0  0  0  0  0  0  0  0  0  0
  195.1150  174.4790  136.1610 C   0  0  0  0  0  2  0  0  0  0  0  0
  195.0260  175.9280  135.8040 C   0  0  0  0  0  0  0  0  0  0  0  0
  185.2760  178.7540  139.9690 C   0  0  0  0  0  3  0  0  0  0  0  0
  194.0340  176.6930  136.2710 C   0  0  0  0  0  3  0  0  0  0  0  0
  186.6320  178.4190  139.9990 C   0  0  0  0  0  0  0  0  0  0  0  0
  184.5610  178.9160  141.1590 C   0  0  0  0  0  3  0  0  0  0  0  0
  188.8080  177.8440  138.8680 C   0  0  1  0  0  0  0  0  0  0  0  0
  189.5330  178.2800  140.1310 C   0  0  0  0  0  2  0  0  0  0  0  0
  192.6910  173.9340  135.9930 C   0  0  0  0  0  0  0  0  0  0  0  0
  192.8680  176.2150  137.0410 C   0  0  0  0  0  3  0  0  0  0  0  0
  192.2930  175.0010  136.9740 C   0  0  0  0  0  0  0  0  0  0  0  0
  196.1100  176.5350  135.0120 C   0  0  0  0  0  0  0  0  0  0  0  0
  196.0830  177.8930  134.7210 O   0  0  0  0  0  1  0  0  0  0  0  0
  197.0710  175.8340  134.5950 O   0  0  0  0  0  0  0  0  0  0  0  0
  184.4610  178.9090  143.6140 N   0  0  0  0  0  0  0  0  0  0  0  0
  183.1090  178.8220  143.6170 O   0  0  0  0  0  0  0  0  0  0  0  0
  185.1070  179.1510  144.7800 O   0  0  0  0  0  0  0  0  0  0  0  0
  1  8  1  6  0  0  0
  2 26  2  0  0  0  0
  2 18  1  0  0  0  0
  4 15  1  0  0  0  0
  4 26  1  0  0  0  0
  5 24  1  0  0  0  0
  5 22  1  0  0  0  0
  6 11  1  0  0  0  0
  6 32  1  0  0  0  0
  7 13  1  6  0  0  0
  7  8  1  0  0  0  0
  7 24  1  0  0  0  0
  9 16  1  0  0  0  0
  9 13  1  0  0  0  0
 10  9  2  0  0  0  0
 12  3  1  0  0  0  0
 12 11  2  0  0  0  0
 14  7  1  0  0  0  0
 16 15  1  6  0  0  0
 16  1  1  0  0  0  0
 17 10  1  0  0  0  0
 17 15  2  0  0  0  0
 19 18  1  0  0  0  0
 19 21  2  0  0  0  0
 20 22  2  0  0  0  0
 20 23  1  0  0  0  0
 21 27  1  0  0  0  0
 22 12  1  0  0  0  0
 23  6  2  0  0  0  0
 24 14  1  6  0  0  0
 24 25  1  0  0  0  0
 25  3  1  0  0  0  0
 26 28  1  0  0  0  0
 28 27  2  0  0  0  0
 28  1  1  0  0  0  0
 29 19  1  0  0  0  0
 30 29  1  0  0  0  0
 31 29  2  0  0  0  0
 32 33  2  0  0  0  0
 32 34  2  0  0  0  0
M  END
>  <MODEL>
1

>  <REMARK>
 VINA RESULT:      -7.3      0.000      0.000
  Name = 
  2 active torsions:
  status: ('A' for Active; 'I' for Inactive)
    1  A    between atoms: C_3  and  C_25
    2  A    between atoms: C_7  and  N_11
                            x       y       z     vdW  Elec       q    Type
                         _______ _______ _______ _____ _____    ______ ____

>  <TORSDO>
F 2

$$$$
=
 OpenBabel10262423323D

 34 40  0  0  1  0  0  0  0  0999 V2000
  189.2570  176.3720  143.1950 C   0  0  1  0  0  3  0  0  0  0  0  0
  186.8390  177.5630  145.8100 C   0  0  0  0  0  3  0  0  0  0  0  0
  190.4510  174.8050  138.3000 C   0  0  0  0  0  2  0  0  0  0  0  0
  189.2680  177.5800  145.8910 C   0  0  0  0  0  2  0  0  0  0  0  0
  191.7390  177.4990  138.7470 C   0  0  0  0  0  2  0  0  0  0  0  0
  193.5290  174.5990  136.0970 C   0  0  0  0  0  0  0  0  0  0  0  0
  190.3960  177.0510  140.9610 C   0  0  2  0  0  0  0  0  0  0  0  0
  189.4080  176.1050  141.6780 C   0  0  0  0  0  2  0  0  0  0  0  0
  191.5680  177.5640  143.0440 C   0  0  0  0  0  0  0  0  0  0  0  0
  192.4310  178.3510  143.9690 C   0  0  0  0  0  2  0  0  0  0  0  0
  192.3180  174.2960  136.7300 C   0  0  0  0  0  3  0  0  0  0  0  0
  191.7130  175.2140  137.5940 C   0  0  0  0  0  0  0  0  0  0  0  0
  191.5710  177.6190  141.7170 C   0  0  0  0  0  2  0  0  0  0  0  0
  189.6870  178.1050  140.1240 C   0  0  0  0  0  2  0  0  0  0  0  0
  190.4710  177.5840  144.9900 C   0  0  0  0  0  0  0  0  0  0  0  0
  190.4530  177.0440  143.7900 C   0  0  0  0  0  0  0  0  0  0  0  0
  191.6370  178.3790  145.2010 N   0  0  0  0  0  0  0  0  0  0  0  0
  185.4870  177.3240  145.2280 C   0  0  0  0  0  2  0  0  0  0  0  0
  185.1810  178.2990  144.1360 C   0  0  0  0  0  0  0  0  0  0  0  0
  193.5550  176.7530  137.2170 C   0  0  0  0  0  3  0  0  0  0  0  0
  185.8960  178.3160  143.0080 C   0  0  0  0  0  3  0  0  0  0  0  0
  192.3480  176.4520  137.8530 C   0  0  0  0  0  0  0  0  0  0  0  0
  194.1440  175.8330  136.3460 C   0  0  0  0  0  3  0  0  0  0  0  0
  190.4720  177.0020  139.4410 C   0  0  1  0  0  0  0  0  0  0  0  0
  189.6000  176.0060  138.6920 C   0  0  0  0  0  2  0  0  0  0  0  0
  187.9720  177.4510  145.1140 C   0  0  0  0  0  0  0  0  0  0  0  0
  187.1160  177.5250  142.7490 C   0  0  0  0  0  3  0  0  0  0  0  0
  188.0110  177.0930  143.6540 C   0  0  0  0  0  0  0  0  0  0  0  0
  184.0050  179.1750  144.2740 C   0  0  0  0  0  0  0  0  0  0  0  0
  183.4300  179.3780  145.5220 O   0  0  0  0  0  1  0  0  0  0  0  0
  183.5120  179.7520  143.2670 O   0  0  0  0  0  0  0  0  0  0  0  0
  194.1370  173.6550  135.2070 N   0  0  0  0  0  0  0  0  0  0  0  0
  193.4850  172.5190  134.8620 O   0  0  0  0  0  0  0  0  0  0  0  0
  195.3710  173.8860  134.6990 O   0  0  0  0  0  0  0  0  0  0  0  0
  1  8  1  6  0  0  0
  1 28  1  0  0  0  0
  1 16  1  0  0  0  0
  3 25  1  0  0  0  0
  5 24  1  0  0  0  0
  6 23  2  0  0  0  0
  6 11  1  0  0  0  0
  7 14  1  1  0  0  0
  7  8  1  0  0  0  0
  7 13  1  0  0  0  0
  9 16  2  0  0  0  0
  9 10  1  0  0  0  0
 10 17  1  0  0  0  0
 11 12  2  0  0  0  0
 12 22  1  0  0  0  0
 12  3  1  0  0  0  0
 13  9  1  0  0  0  0
 15 17  2  0  0  0  0
 15  4  1  0  0  0  0
 16 15  1  0  0  0  0
 18  2  1  0  0  0  0
 19 29  1  0  0  0  0
 19 18  1  0  0  0  0
 20 22  2  0  0  0  0
 21 19  2  0  0  0  0
 22  5  1  0  0  0  0
 23 20  1  0  0  0  0
 24 25  1  6  0  0  0
 24 14  1  0  0  0  0
 24  7  1  0  0  0  0
 26  2  2  0  0  0  0
 26  4  1  0  0  0  0
 27 21  1  0  0  0  0
 27 28  2  0  0  0  0
 28 26  1  0  0  0  0
 29 30  1  0  0  0  0
 31 29  2  0  0  0  0
 32  6  1  0  0  0  0
 33 32  2  0  0  0  0
 34 32  2  0  0  0  0
M  END
>  <MODEL>
2

>  <REMARK>
 VINA RESULT:      -7.2      2.835     10.255
  Name = 
  2 active torsions:
  status: ('A' for Active; 'I' for Inactive)
    1  A    between atoms: C_3  and  C_25
    2  A    between atoms: C_7  and  N_11
                            x       y       z     vdW  Elec       q    Type
                         _______ _______ _______ _____ _____    ______ ____

>  <TORSDO>
F 2

$$$$
=
 OpenBabel10262423323D

 34 40  0  0  1  0  0  0  0  0999 V2000
  185.8330  179.4500  143.2940 C   0  0  1  0  0  3  0  0  0  0  0  0
  188.6860  178.0480  145.2930 C   0  0  0  0  0  3  0  0  0  0  0  0
  183.4530  180.6200  138.7320 C   0  0  0  0  0  2  0  0  0  0  0  0
  186.4580  178.6400  146.0650 C   0  0  0  0  0  2  0  0  0  0  0  0
  181.8810  178.4060  140.0530 C   0  0  0  0  0  2  0  0  0  0  0  0
  179.9300  181.2910  137.5020 C   0  0  0  0  0  0  0  0  0  0  0  0
  183.9260  178.7900  141.6580 C   0  0  2  0  0  0  0  0  0  0  0  0
  185.2560  179.5490  141.8610 C   0  0  0  0  0  2  0  0  0  0  0  0
  183.4120  178.8540  144.0460 C   0  0  0  0  0  0  0  0  0  0  0  0
  182.7590  178.4290  145.3160 C   0  0  0  0  0  2  0  0  0  0  0  0
  181.3150  181.3660  137.6900 C   0  0  0  0  0  3  0  0  0  0  0  0
  181.9760  180.4460  138.5100 C   0  0  0  0  0  0  0  0  0  0  0  0
  182.9710  178.6310  142.8140 C   0  0  0  0  0  2  0  0  0  0  0  0
  184.1090  177.4960  140.8800 C   0  0  0  0  0  2  0  0  0  0  0  0
  185.0520  178.8150  145.5630 C   0  0  0  0  0  0  0  0  0  0  0  0
  184.7870  179.1750  144.3250 C   0  0  0  0  0  0  0  0  0  0  0  0
  183.8860  178.3650  146.2510 N   0  0  0  0  0  0  0  0  0  0  0  0
  189.7970  177.8700  144.3150 C   0  0  0  0  0  2  0  0  0  0  0  0
  189.5400  176.7180  143.3970 C   0  0  0  0  0  0  0  0  0  0  0  0
  179.8500  179.3720  138.9870 C   0  0  0  0  0  3  0  0  0  0  0  0
  188.5090  176.7320  142.5460 C   0  0  0  0  0  3  0  0  0  0  0  0
  181.2320  179.4460  139.1800 C   0  0  0  0  0  0  0  0  0  0  0  0
  179.2020  180.2890  138.1550 C   0  0  0  0  0  3  0  0  0  0  0  0
  183.3750  178.6610  140.2440 C   0  0  1  0  0  0  0  0  0  0  0  0
  184.1340  179.3070  139.0950 C   0  0  0  0  0  2  0  0  0  0  0  0
  187.4330  178.3440  144.9410 C   0  0  0  0  0  0  0  0  0  0  0  0
  187.4500  177.7590  142.4940 C   0  0  0  0  0  3  0  0  0  0  0  0
  186.9960  178.5100  143.5130 C   0  0  0  0  0  0  0  0  0  0  0  0
  190.5040  175.6040  143.3650 C   0  0  0  0  0  0  0  0  0  0  0  0
  191.7690  175.7630  143.9160 O   0  0  0  0  0  1  0  0  0  0  0  0
  190.1920  174.4990  142.8450 O   0  0  0  0  0  0  0  0  0  0  0  0
  179.2630  182.2330  136.6530 N   0  0  0  0  0  0  0  0  0  0  0  0
  178.9460  181.9030  135.3780 O   0  0  0  0  0  0  0  0  0  0  0  0
  178.9420  183.4650  137.1140 O   0  0  0  0  0  0  0  0  0  0  0  0
  1  8  1  6  0  0  0
  1 28  1  0  0  0  0
  1 16  1  0  0  0  0
  3 25  1  0  0  0  0
  5 24  1  0  0  0  0
  6 11  2  0  0  0  0
  6 23  1  0  0  0  0
  7 14  1  1  0  0  0
  7  8  1  0  0  0  0
  7 13  1  0  0  0  0
  9 16  2  0  0  0  0
  9 10  1  0  0  0  0
 10 17  1  0  0  0  0
 11 12  1  0  0  0  0
 12  3  1  0  0  0  0
 12 22  2  0  0  0  0
 13  9  1  0  0  0  0
 15  4  1  0  0  0  0
 15 17  2  0  0  0  0
 16 15  1  0  0  0  0
 18  2  1  0  0  0  0
 19 18  1  0  0  0  0
 20 22  1  0  0  0  0
 21 19  2  0  0  0  0
 22  5  1  0  0  0  0
 23 20  2  0  0  0  0
 24 25  1  6  0  0  0
 24 14  1  0  0  0  0
 24  7  1  0  0  0  0
 26  2  2  0  0  0  0
 26  4  1  0  0  0  0
 27 21  1  0  0  0  0
 27 28  2  0  0  0  0
 28 26  1  0  0  0  0
 29 19  1  0  0  0  0
 29 30  1  0  0  0  0
 31 29  2  0  0  0  0
 32 34  2  0  0  0  0
 32  6  1  0  0  0  0
 33 32  2  0  0  0  0
M  END
>  <MODEL>
3

>  <REMARK>
 VINA RESULT:      -7.0      6.693      9.132
  Name = 
  2 active torsions:
  status: ('A' for Active; 'I' for Inactive)
    1  A    between atoms: C_3  and  C_25
    2  A    between atoms: C_7  and  N_11
                            x       y       z     vdW  Elec       q    Type
                         _______ _______ _______ _____ _____    ______ ____

>  <TORSDO>
F 2

$$$$
=
 OpenBabel10262423323D

 34 40  0  0  1  0  0  0  0  0999 V2000
  181.9300  177.7500  141.1600 C   0  0  1  0  0  3  0  0  0  0  0  0
  179.5560  178.6550  138.3950 C   0  0  0  0  0  3  0  0  0  0  0  0
  186.7500  177.5270  143.2960 C   0  0  0  0  0  2  0  0  0  0  0  0
  179.0270  178.0150  140.6790 C   0  0  0  0  0  2  0  0  0  0  0  0
  185.1270  179.5180  144.8840 C   0  0  0  0  0  2  0  0  0  0  0  0
  188.2700  177.2250  146.7560 C   0  0  0  0  0  0  0  0  0  0  0  0
  183.5150  178.7700  142.9490 C   0  0  2  0  0  0  0  0  0  0  0  0
  183.3850  177.9380  141.6540 C   0  0  0  0  0  2  0  0  0  0  0  0
  181.2100  178.2880  143.6050 C   0  0  0  0  0  0  0  0  0  0  0  0
  179.9210  178.4970  144.3200 C   0  0  0  0  0  2  0  0  0  0  0  0
  188.0240  177.0650  145.3870 C   0  0  0  0  0  3  0  0  0  0  0  0
  187.0140  177.7940  144.7520 C   0  0  0  0  0  0  0  0  0  0  0  0
  182.4020  178.7500  143.9660 C   0  0  0  0  0  2  0  0  0  0  0  0
  184.0290  180.1770  142.6850 C   0  0  0  0  0  2  0  0  0  0  0  0
  179.6270  177.9870  142.0570 C   0  0  0  0  0  0  0  0  0  0  0  0
  180.9230  177.8700  142.2580 C   0  0  0  0  0  0  0  0  0  0  0  0
  178.9310  178.3470  143.2490 N   0  0  0  0  0  0  0  0  0  0  0  0
  180.4240  178.9670  137.2230 C   0  0  0  0  0  2  0  0  0  0  0  0
  181.1240  180.2770  137.3940 C   0  0  0  0  0  0  0  0  0  0  0  0
  186.4610  178.8400  146.8730 C   0  0  0  0  0  3  0  0  0  0  0  0
  182.0170  180.4580  138.3720 C   0  0  0  0  0  3  0  0  0  0  0  0
  186.2110  178.6810  145.5080 C   0  0  0  0  0  0  0  0  0  0  0  0
  187.4810  178.1170  147.4950 C   0  0  0  0  0  3  0  0  0  0  0  0
  184.9080  179.1770  143.4110 C   0  0  1  0  0  0  0  0  0  0  0  0
  186.1140  178.7250  142.6020 C   0  0  0  0  0  2  0  0  0  0  0  0
  180.0230  178.4750  139.6310 C   0  0  0  0  0  0  0  0  0  0  0  0
  182.3150  179.4980  139.4540 C   0  0  0  0  0  3  0  0  0  0  0  0
  181.4790  178.5900  139.9870 C   0  0  0  0  0  0  0  0  0  0  0  0
  180.8980  181.3410  136.4010 C   0  0  0  0  0  0  0  0  0  0  0  0
  180.8030  182.6650  136.8080 O   0  0  0  0  0  1  0  0  0  0  0  0
  180.7930  181.0640  135.1750 O   0  0  0  0  0  0  0  0  0  0  0  0
  189.3130  176.4810  147.3970 N   0  0  0  0  0  0  0  0  0  0  0  0
  189.0160  175.4070  148.1660 O   0  0  0  0  0  0  0  0  0  0  0  0
  190.6090  176.8420  147.2410 O   0  0  0  0  0  0  0  0  0  0  0  0
  1  8  1  1  0  0  0
  1 16  1  0  0  0  0
  2 26  2  0  0  0  0
  3 12  1  0  0  0  0
  4 15  1  0  0  0  0
  5 22  1  0  0  0  0
  6 32  1  0  0  0  0
  6 23  1  0  0  0  0
  7  8  1  6  0  0  0
  7 24  1  0  0  0  0
  7 13  1  0  0  0  0
  9 13  1  0  0  0  0
  9 10  1  0  0  0  0
 11  6  2  0  0  0  0
 12 11  1  0  0  0  0
 12 22  2  0  0  0  0
 14  7  1  0  0  0  0
 14 24  1  0  0  0  0
 15 16  1  0  0  0  0
 15 17  2  0  0  0  0
 16  9  2  0  0  0  0
 17 10  1  0  0  0  0
 18 19  1  0  0  0  0
 18  2  1  0  0  0  0
 19 21  2  0  0  0  0
 20 23  2  0  0  0  0
 21 27  1  0  0  0  0
 22 20  1  0  0  0  0
 24 25  1  6  0  0  0
 24  5  1  0  0  0  0
 25  3  1  0  0  0  0
 26 28  1  0  0  0  0
 26  4  1  0  0  0  0
 27 28  2  0  0  0  0
 28  1  1  0  0  0  0
 29 30  1  0  0  0  0
 29 19  1  0  0  0  0
 31 29  2  0  0  0  0
 32 33  2  0  0  0  0
 34 32  2  0  0  0  0
M  END
>  <MODEL>
4

>  <REMARK>
 VINA RESULT:      -7.0      8.175     10.762
  Name = 
  2 active torsions:
  status: ('A' for Active; 'I' for Inactive)
    1  A    between atoms: C_3  and  C_25
    2  A    between atoms: C_7  and  N_11
                            x       y       z     vdW  Elec       q    Type
                         _______ _______ _______ _____ _____    ______ ____

>  <TORSDO>
F 2

$$$$
=
 OpenBabel10262423323D

 34 40  0  0  1  0  0  0  0  0999 V2000
  182.5740  178.1700  139.9950 C   0  0  1  0  0  3  0  0  0  0  0  0
  179.4900  180.2160  140.6300 C   0  0  0  0  0  3  0  0  0  0  0  0
  186.3860  176.3130  136.8550 C   0  0  0  0  0  2  0  0  0  0  0  0
  181.0020  179.2330  142.2590 C   0  0  0  0  0  2  0  0  0  0  0  0
  187.6540  178.2350  138.8080 C   0  0  0  0  0  2  0  0  0  0  0  0
  189.8800  174.8900  137.2310 C   0  0  0  0  0  0  0  0  0  0  0  0
  185.0880  178.3510  139.3640 C   0  0  2  0  0  0  0  0  0  0  0  0
  183.6760  177.8840  138.9460 C   0  0  0  0  0  2  0  0  0  0  0  0
  184.5060  178.3110  141.7370 C   0  0  0  0  0  0  0  0  0  0  0  0
  184.6240  178.6630  143.1800 C   0  0  0  0  0  2  0  0  0  0  0  0
  188.5640  175.1030  136.8040 C   0  0  0  0  0  3  0  0  0  0  0  0
  187.8170  176.1770  137.2950 C   0  0  0  0  0  0  0  0  0  0  0  0
  185.4660  178.3770  140.8230 C   0  0  0  0  0  2  0  0  0  0  0  0
  185.5210  179.6130  138.6340 C   0  0  0  0  0  2  0  0  0  0  0  0
  182.4200  178.7550  142.4030 C   0  0  0  0  0  0  0  0  0  0  0  0
  183.1100  178.2850  141.3860 C   0  0  0  0  0  0  0  0  0  0  0  0
  183.2440  179.0000  143.5420 N   0  0  0  0  0  0  0  0  0  0  0  0
  178.9650  180.5600  139.2770 C   0  0  0  0  0  2  0  0  0  0  0  0
  179.8170  181.5880  138.6050 C   0  0  0  0  0  0  0  0  0  0  0  0
  189.7030  176.8300  138.6810 C   0  0  0  0  0  3  0  0  0  0  0  0
  181.0860  181.3250  138.2780 C   0  0  0  0  0  3  0  0  0  0  0  0
  188.3890  177.0430  138.2590 C   0  0  0  0  0  0  0  0  0  0  0  0
  190.4450  175.7600  138.1730 C   0  0  0  0  0  3  0  0  0  0  0  0
  186.2040  178.2930  138.3290 C   0  0  1  0  0  0  0  0  0  0  0  0
  185.8960  177.7530  136.9420 C   0  0  0  0  0  2  0  0  0  0  0  0
  180.6830  179.6580  140.8380 C   0  0  0  0  0  0  0  0  0  0  0  0
  181.8350  180.1060  138.6460 C   0  0  0  0  0  3  0  0  0  0  0  0
  181.6460  179.3340  139.7300 C   0  0  0  0  0  0  0  0  0  0  0  0
  179.2070  182.8680  138.2050 C   0  0  0  0  0  0  0  0  0  0  0  0
  178.9330  183.8370  139.1630 O   0  0  0  0  0  1  0  0  0  0  0  0
  178.9310  183.1000  136.9970 O   0  0  0  0  0  0  0  0  0  0  0  0
  190.6410  173.7910  136.7140 N   0  0  0  0  0  0  0  0  0  0  0  0
  190.0870  172.9300  135.8290 O   0  0  0  0  0  0  0  0  0  0  0  0
  191.9240  173.6000  137.1050 O   0  0  0  0  0  0  0  0  0  0  0  0
  1  8  1  6  0  0  0
  1 16  1  0  0  0  0
  2 26  2  0  0  0  0
  3 25  1  0  0  0  0
  3 12  1  0  0  0  0
  4 15  1  0  0  0  0
  6 23  1  0  0  0  0
  7 14  1  6  0  0  0
  7 13  1  0  0  0  0
  8  7  1  0  0  0  0
  9 10  1  0  0  0  0
 10 17  1  0  0  0  0
 11  6  2  0  0  0  0
 11 12  1  0  0  0  0
 12 22  2  0  0  0  0
 13  9  1  0  0  0  0
 15 17  2  0  0  0  0
 16  9  2  0  0  0  0
 16 15  1  0  0  0  0
 18  2  1  0  0  0  0
 19 18  1  0  0  0  0
 21 19  2  0  0  0  0
 21 27  1  0  0  0  0
 22 20  1  0  0  0  0
 22  5  1  0  0  0  0
 23 20  2  0  0  0  0
 24 25  1  6  0  0  0
 24 14  1  0  0  0  0
 24  5  1  0  0  0  0
 24  7  1  0  0  0  0
 26  4  1  0  0  0  0
 27 28  2  0  0  0  0
 28  1  1  0  0  0  0
 28 26  1  0  0  0  0
 29 19  1  0  0  0  0
 29 30  1  0  0  0  0
 31 29  2  0  0  0  0
 32 34  2  0  0  0  0
 32  6  1  0  0  0  0
 33 32  2  0  0  0  0
M  END
>  <MODEL>
5

>  <REMARK>
 VINA RESULT:      -6.2      3.913     11.092
  Name = 
  2 active torsions:
  status: ('A' for Active; 'I' for Inactive)
    1  A    between atoms: C_3  and  C_25
    2  A    between atoms: C_7  and  N_11
                            x       y       z     vdW  Elec       q    Type
                         _______ _______ _______ _____ _____    ______ ____

>  <TORSDO>
F 2

$$$$
=
 OpenBabel10262423323D

 34 40  0  0  1  0  0  0  0  0999 V2000
  188.3060  176.4610  142.9920 C   0  0  1  0  0  3  0  0  0  0  0  0
  191.0770  176.1620  145.5090 C   0  0  0  0  0  3  0  0  0  0  0  0
  183.2870  177.3910  141.6540 C   0  0  0  0  0  2  0  0  0  0  0  0
  191.2540  176.2980  143.0890 C   0  0  0  0  0  2  0  0  0  0  0  0
  184.9650  179.6580  140.5770 C   0  0  0  0  0  2  0  0  0  0  0  0
  181.3580  178.4180  138.5560 C   0  0  0  0  0  0  0  0  0  0  0  0
  186.6750  178.1600  141.8950 C   0  0  2  0  0  0  0  0  0  0  0  0
  186.8410  176.9290  142.8130 C   0  0  0  0  0  2  0  0  0  0  0  0
  188.8070  177.7380  140.7780 C   0  0  0  0  0  0  0  0  0  0  0  0
  190.0230  178.0680  139.9830 C   0  0  0  0  0  3  0  0  0  0  0  0
  181.7340  177.7800  139.7440 C   0  0  0  0  0  3  0  0  0  0  0  0
  182.8960  178.1600  140.4230 C   0  0  0  0  0  0  0  0  0  0  0  0
  187.6540  178.3940  140.7720 C   0  0  0  0  0  2  0  0  0  0  0  0
  186.3830  179.4320  142.6780 C   0  0  0  0  0  2  0  0  0  0  0  0
  190.5030  176.7930  141.8840 C   0  0  0  0  0  0  0  0  0  0  0  0
  189.1890  176.8630  141.8540 C   0  0  1  0  0  3  0  0  0  0  0  0
  191.1000  177.4770  140.7840 N   0  0  0  0  0  0  0  0  0  0  0  0
  190.3960  176.1290  146.8360 C   0  0  0  0  0  2  0  0  0  0  0  0
  189.8580  177.4730  147.2090 C   0  0  0  0  0  0  0  0  0  0  0  0
  183.3370  179.8160  138.7010 C   0  0  0  0  0  3  0  0  0  0  0  0
  188.8910  178.0520  146.4900 C   0  0  0  0  0  3  0  0  0  0  0  0
  183.7170  179.1800  139.8860 C   0  0  0  0  0  0  0  0  0  0  0  0
  182.1670  179.4380  138.0390 C   0  0  0  0  0  3  0  0  0  0  0  0
  185.3040  178.8170  141.8070 C   0  0  1  0  0  0  0  0  0  0  0  0
  184.1490  178.2210  142.5960 C   0  0  0  0  0  2  0  0  0  0  0  0
  190.4520  176.4560  144.3670 C   0  0  0  0  0  0  0  0  0  0  0  0
  188.3490  177.5480  145.2120 C   0  0  0  0  0  3  0  0  0  0  0  0
  188.9930  176.8090  144.2920 C   0  0  0  0  0  0  0  0  0  0  0  0
  190.3330  178.1100  148.4490 C   0  0  0  0  0  0  0  0  0  0  0  0
  191.6710  178.0150  148.8130 O   0  0  0  0  0  0  0  0  0  0  0  0
  189.5370  178.7500  149.1890 O   0  0  0  0  0  1  0  0  0  0  0  0
  180.1600  178.0280  137.8730 N   0  0  0  0  0  0  0  0  0  0  0  0
  179.8190  178.6110  136.7000 O   0  0  0  0  0  0  0  0  0  0  0  0
  179.3530  177.0720  138.3930 O   0  0  0  0  0  0  0  0  0  0  0  0
  1  8  1  6  0  0  0
  1 28  1  0  0  0  0
  2 18  1  0  0  0  0
  3 25  1  0  0  0  0
  4 26  1  0  0  0  0
  6 11  1  0  0  0  0
  7 13  1  6  0  0  0
  7 14  1  0  0  0  0
  7  8  1  0  0  0  0
 10  9  2  0  0  0  0
 10 17  1  0  0  0  0
 11 12  2  0  0  0  0
 12  3  1  0  0  0  0
 13  9  1  0  0  0  0
 15  4  1  0  0  0  0
 16  9  1  1  0  0  0
 16 15  1  0  0  0  0
 16  1  1  0  0  0  0
 17 15  2  0  0  0  0
 18 19  1  0  0  0  0
 19 29  1  0  0  0  0
 20 22  2  0  0  0  0
 21 19  2  0  0  0  0
 22 12  1  0  0  0  0
 22  5  1  0  0  0  0
 23  6  2  0  0  0  0
 23 20  1  0  0  0  0
 24  5  1  6  0  0  0
 24  7  1  0  0  0  0
 24 25  1  0  0  0  0
 24 14  1  0  0  0  0
 26  2  2  0  0  0  0
 27 21  1  0  0  0  0
 28 26  1  0  0  0  0
 28 27  2  0  0  0  0
 29 30  2  0  0  0  0
 29 31  1  0  0  0  0
 32 34  2  0  0  0  0
 32  6  1  0  0  0  0
 33 32  2  0  0  0  0
M  END
>  <MODEL>
6

>  <REMARK>
 VINA RESULT:      -6.1      5.991      8.251
  Name = 
  2 active torsions:
  status: ('A' for Active; 'I' for Inactive)
    1  A    between atoms: C_3  and  C_25
    2  A    between atoms: C_7  and  N_11
                            x       y       z     vdW  Elec       q    Type
                         _______ _______ _______ _____ _____    ______ ____

>  <TORSDO>
F 2

$$$$
=
 OpenBabel10262423323D

 34 40  0  0  1  0  0  0  0  0999 V2000
  190.9440  174.4440  137.1740 C   0  0  1  0  0  3  0  0  0  0  0  0
  194.5170  173.5610  136.4300 C   0  0  0  0  0  3  0  0  0  0  0  0
  187.1660  177.8510  138.5740 C   0  0  0  0  0  2  0  0  0  0  0  0
  192.5160  172.2730  135.9350 C   0  0  0  0  0  2  0  0  0  0  0  0
  186.7380  177.1400  135.6710 C   0  0  0  0  0  2  0  0  0  0  0  0
  183.4050  178.1680  138.2150 C   0  0  0  0  0  0  0  0  0  0  0  0
  188.9400  175.8660  136.3290 C   0  0  2  0  0  0  0  0  0  0  0  0
  189.9920  175.6370  137.4370 C   0  0  0  0  0  2  0  0  0  0  0  0
  189.1090  173.5540  135.5550 C   0  0  0  0  0  0  0  0  0  0  0  0
  188.9840  172.4210  134.5960 C   0  0  0  0  0  3  0  0  0  0  0  0
  184.7030  178.1980  138.7370 C   0  0  0  0  0  3  0  0  0  0  0  0
  185.8030  177.8710  137.9390 C   0  0  0  0  0  0  0  0  0  0  0  0
  188.4310  174.6950  135.5270 C   0  0  0  0  0  2  0  0  0  0  0  0
  189.2720  177.0640  135.4520 C   0  0  0  0  0  2  0  0  0  0  0  0
  191.0390  172.4410  135.7120 C   0  0  0  0  0  0  0  0  0  0  0  0
  190.3500  173.4140  136.2690 C   0  0  1  0  0  3  0  0  0  0  0  0
  190.2930  171.7680  134.6990 N   0  0  0  0  0  0  0  0  0  0  0  0
  195.3170  174.7110  136.9410 C   0  0  0  0  0  2  0  0  0  0  0  0
  195.1660  175.9150  136.0680 C   0  0  0  0  0  0  0  0  0  0  0  0
  184.3020  177.4490  136.0760 C   0  0  0  0  0  3  0  0  0  0  0  0
  193.9840  176.5240  135.9320 C   0  0  0  0  0  3  0  0  0  0  0  0
  185.5980  177.4760  136.5950 C   0  0  0  0  0  0  0  0  0  0  0  0
  183.2110  177.7910  136.8790 C   0  0  0  0  0  3  0  0  0  0  0  0
  188.0840  177.1240  136.3930 C   0  0  1  0  0  0  0  0  0  0  0  0
  188.2740  178.0860  137.5550 C   0  0  0  0  0  2  0  0  0  0  0  0
  193.1860  173.5750  136.3300 C   0  0  0  0  0  0  0  0  0  0  0  0
  192.6990  176.0390  136.4740 C   0  0  0  0  0  3  0  0  0  0  0  0
  192.3440  174.7630  136.7030 C   0  0  0  0  0  0  0  0  0  0  0  0
  196.3660  176.4920  135.4370 C   0  0  0  0  0  0  0  0  0  0  0  0
  196.2490  177.5910  134.5950 O   0  0  0  0  0  0  0  0  0  0  0  0
  197.5060  176.0010  135.6560 O   0  0  0  0  0  1  0  0  0  0  0  0
  182.2840  178.5130  139.0380 N   0  0  0  0  0  0  0  0  0  0  0  0
  182.1000  179.7910  139.4450 O   0  0  0  0  0  0  0  0  0  0  0  0
  181.3950  177.5650  139.4210 O   0  0  0  0  0  0  0  0  0  0  0  0
  1  8  1  6  0  0  0
  2 18  1  0  0  0  0
  4 26  1  0  0  0  0
  5 24  1  0  0  0  0
  5 22  1  0  0  0  0
  6 11  1  0  0  0  0
  6 32  1  0  0  0  0
  7 14  1  6  0  0  0
  7 24  1  0  0  0  0
  7  8  1  0  0  0  0
 10 17  1  0  0  0  0
 10  9  2  0  0  0  0
 12  3  1  0  0  0  0
 12 11  2  0  0  0  0
 13  9  1  0  0  0  0
 13  7  1  0  0  0  0
 15  4  1  0  0  0  0
 15 16  1  0  0  0  0
 16  9  1  6  0  0  0
 16  1  1  0  0  0  0
 17 15  2  0  0  0  0
 19 18  1  0  0  0  0
 20 22  2  0  0  0  0
 20 23  1  0  0  0  0
 21 19  2  0  0  0  0
 21 27  1  0  0  0  0
 22 12  1  0  0  0  0
 23  6  2  0  0  0  0
 24 14  1  6  0  0  0
 24 25  1  0  0  0  0
 25  3  1  0  0  0  0
 26  2  2  0  0  0  0
 26 28  1  0  0  0  0
 27 28  2  0  0  0  0
 28  1  1  0  0  0  0
 29 31  1  0  0  0  0
 29 19  1  0  0  0  0
 30 29  2  0  0  0  0
 32 34  2  0  0  0  0
 32 33  2  0  0  0  0
M  END
>  <MODEL>
7

>  <REMARK>
 VINA RESULT:      -5.6      2.245      2.800
  Name = 
  2 active torsions:
  status: ('A' for Active; 'I' for Inactive)
    1  A    between atoms: C_3  and  C_25
    2  A    between atoms: C_7  and  N_11
                            x       y       z     vdW  Elec       q    Type
                         _______ _______ _______ _____ _____    ______ ____

>  <TORSDO>
F 2

$$$$
=
 OpenBabel10262423323D

 34 40  0  0  1  0  0  0  0  0999 V2000
  190.2550  176.6770  136.7600 C   0  0  1  0  0  3  0  0  0  0  0  0
  193.6980  175.2140  137.0840 C   0  0  0  0  0  3  0  0  0  0  0  0
  185.4450  176.8740  134.6000 C   0  0  0  0  0  2  0  0  0  0  0  0
  192.5660  176.7400  138.5990 C   0  0  0  0  0  2  0  0  0  0  0  0
  185.1390  175.9220  137.4480 C   0  0  0  0  0  2  0  0  0  0  0  0
  182.0110  178.1900  135.5210 C   0  0  0  0  0  0  0  0  0  0  0  0
  187.7360  176.1510  137.1210 C   0  0  2  0  0  0  0  0  0  0  0  0
  188.8680  176.4470  136.1120 C   0  0  0  0  0  2  0  0  0  0  0  0
  188.9540  177.2200  138.9500 C   0  0  0  0  0  0  0  0  0  0  0  0
  189.3140  177.5130  140.3650 C   0  0  0  0  0  2  0  0  0  0  0  0
  183.1670  177.8650  134.8020 C   0  0  0  0  0  3  0  0  0  0  0  0
  184.1980  177.1310  135.3980 C   0  0  0  0  0  0  0  0  0  0  0  0
  187.7990  176.7350  138.5090 C   0  0  0  0  0  2  0  0  0  0  0  0
  187.3380  174.6820  137.1320 C   0  0  0  0  0  2  0  0  0  0  0  0
  191.1870  177.1810  139.0050 C   0  0  0  0  0  0  0  0  0  0  0  0
  190.1650  177.1460  138.1770 C   0  0  0  0  0  0  0  0  0  0  0  0
  190.7770  177.4150  140.3510 N   0  0  0  0  0  0  0  0  0  0  0  0
  193.8670  174.3450  135.8840 C   0  0  0  0  0  2  0  0  0  0  0  0
  193.0500  173.0980  135.9910 C   0  0  0  0  0  0  0  0  0  0  0  0
  182.9270  177.0620  137.4670 C   0  0  0  0  0  3  0  0  0  0  0  0
  191.7150  173.1490  136.0280 C   0  0  0  0  0  3  0  0  0  0  0  0
  184.0830  176.7380  136.7530 C   0  0  0  0  0  0  0  0  0  0  0  0
  181.8970  177.7840  136.8580 C   0  0  0  0  0  3  0  0  0  0  0  0
  186.3790  175.7200  136.5800 C   0  0  1  0  0  0  0  0  0  0  0  0
  186.1810  175.6280  135.0750 C   0  0  0  0  0  2  0  0  0  0  0  0
  192.5350  175.7620  137.4400 C   0  0  0  0  0  0  0  0  0  0  0  0
  190.9030  174.3790  136.1140 C   0  0  0  0  0  3  0  0  0  0  0  0
  191.2560  175.5470  136.6810 C   0  0  0  0  0  0  0  0  0  0  0  0
  193.7340  171.7930  135.9470 C   0  0  0  0  0  0  0  0  0  0  0  0
  195.0860  171.7050  136.2560 O   0  0  0  0  0  1  0  0  0  0  0  0
  193.1030  170.7470  135.6350 O   0  0  0  0  0  0  0  0  0  0  0  0
  180.9570  178.9340  134.9000 N   0  0  0  0  0  0  0  0  0  0  0  0
  179.7760  178.3390  134.6090 O   0  0  0  0  0  0  0  0  0  0  0  0
  181.1280  180.2430  134.5940 O   0  0  0  0  0  0  0  0  0  0  0  0
  1  8  1  1  0  0  0
  1 16  1  0  0  0  0
  2 26  2  0  0  0  0
  3 25  1  0  0  0  0
  3 12  1  0  0  0  0
  4 15  1  0  0  0  0
  6 23  1  0  0  0  0
  7  8  1  6  0  0  0
  7 14  1  0  0  0  0
  7 13  1  0  0  0  0
  9 10  1  0  0  0  0
 11 12  1  0  0  0  0
 11  6  2  0  0  0  0
 12 22  2  0  0  0  0
 13  9  1  0  0  0  0
 15 17  2  0  0  0  0
 16  9  2  0  0  0  0
 16 15  1  0  0  0  0
 17 10  1  0  0  0  0
 18 19  1  0  0  0  0
 18  2  1  0  0  0  0
 19 21  2  0  0  0  0
 21 27  1  0  0  0  0
 22  5  1  0  0  0  0
 22 20  1  0  0  0  0
 23 20  2  0  0  0  0
 24 25  1  6  0  0  0
 24  7  1  0  0  0  0
 24 14  1  0  0  0  0
 24  5  1  0  0  0  0
 26  4  1  0  0  0  0
 27 28  2  0  0  0  0
 28  1  1  0  0  0  0
 28 26  1  0  0  0  0
 29 19  1  0  0  0  0
 29 30  1  0  0  0  0
 31 29  2  0  0  0  0
 32  6  1  0  0  0  0
 33 32  2  0  0  0  0
 34 32  2  0  0  0  0
M  END
>  <MODEL>
8

>  <REMARK>
 VINA RESULT:      -5.3      4.144      5.490
  Name = 
  2 active torsions:
  status: ('A' for Active; 'I' for Inactive)
    1  A    between atoms: C_3  and  C_25
    2  A    between atoms: C_7  and  N_11
                            x       y       z     vdW  Elec       q    Type
                         _______ _______ _______ _____ _____    ______ ____

>  <TORSDO>
F 2

$$$$
=
 OpenBabel10262423323D

 34 40  0  0  1  0  0  0  0  0999 V2000
  189.4340  174.6770  137.6270 C   0  0  1  0  0  3  0  0  0  0  0  0
  192.7700  173.5990  136.2800 C   0  0  0  0  0  3  0  0  0  0  0  0
  186.3260  177.9930  140.3080 C   0  0  0  0  0  2  0  0  0  0  0  0
  190.5670  172.7680  135.6780 C   0  0  0  0  0  2  0  0  0  0  0  0
  185.5910  178.1970  137.3870 C   0  0  0  0  0  2  0  0  0  0  0  0
  182.6410  178.8700  140.4660 C   0  0  0  0  0  0  0  0  0  0  0  0
  187.6150  176.5210  137.4270 C   0  0  2  0  0  0  0  0  0  0  0  0
  188.6960  175.8560  138.3070 C   0  0  0  0  0  2  0  0  0  0  0  0
  187.3750  174.5230  136.0400 C   0  0  0  0  0  0  0  0  0  0  0  0
  187.0120  173.7350  134.8290 C   0  0  0  0  0  3  0  0  0  0  0  0
  183.9630  178.5870  140.8310 C   0  0  0  0  0  3  0  0  0  0  0  0
  184.9410  178.3650  139.8570 C   0  0  0  0  0  0  0  0  0  0  0  0
  186.8780  175.7010  136.3980 C   0  0  0  0  0  2  0  0  0  0  0  0
  188.0620  177.8670  136.8770 C   0  0  0  0  0  2  0  0  0  0  0  0
  189.1200  173.1770  135.6740 C   0  0  0  0  0  0  0  0  0  0  0  0
  188.6280  174.0300  136.5470 C   0  0  1  0  0  3  0  0  0  0  0  0
  188.2100  172.9200  134.6060 N   0  0  0  0  0  0  0  0  0  0  0  0
  193.7700  174.4460  136.9930 C   0  0  0  0  0  2  0  0  0  0  0  0
  193.7420  175.8570  136.5020 C   0  0  0  0  0  0  0  0  0  0  0  0
  183.2650  178.6830  138.1270 C   0  0  0  0  0  3  0  0  0  0  0  0
  192.6600  176.6230  136.6690 C   0  0  0  0  0  3  0  0  0  0  0  0
  184.5840  178.3980  138.4870 C   0  0  0  0  0  0  0  0  0  0  0  0
  182.2990  178.9170  139.1090 C   0  0  0  0  0  3  0  0  0  0  0  0
  186.9670  177.8060  137.9240 C   0  0  1  0  0  0  0  0  0  0  0  0
  187.3830  178.3660  139.2760 C   0  0  0  0  0  2  0  0  0  0  0  0
  191.4530  173.8080  136.3360 C   0  0  0  0  0  0  0  0  0  0  0  0
  191.3570  176.1710  137.1970 C   0  0  0  0  0  3  0  0  0  0  0  0
  190.8300  174.9370  137.1080 C   0  0  0  0  0  0  0  0  0  0  0  0
  194.9680  176.4340  135.9230 C   0  0  0  0  0  0  0  0  0  0  0  0
  196.1630  175.7270  135.9780 O   0  0  0  0  0  1  0  0  0  0  0  0
  194.9460  177.5660  135.3690 O   0  0  0  0  0  0  0  0  0  0  0  0
  181.6480  179.1050  141.4710 N   0  0  0  0  0  0  0  0  0  0  0  0
  180.3370  179.1720  141.1380 O   0  0  0  0  0  0  0  0  0  0  0  0
  182.0070  179.2640  142.7680 O   0  0  0  0  0  0  0  0  0  0  0  0
  1  8  1  6  0  0  0
  2 26  2  0  0  0  0
  2 18  1  0  0  0  0
  4 26  1  0  0  0  0
  5 24  1  0  0  0  0
  5 22  1  0  0  0  0
  6 11  1  0  0  0  0
  6 32  1  0  0  0  0
  7 13  1  6  0  0  0
  7 24  1  0  0  0  0
  7  8  1  0  0  0  0
  9 13  1  0  0  0  0
  9 16  1  0  0  0  0
 10  9  2  0  0  0  0
 12  3  1  0  0  0  0
 12 11  2  0  0  0  0
 14  7  1  0  0  0  0
 15  4  1  0  0  0  0
 16 15  1  6  0  0  0
 16  1  1  0  0  0  0
 17 10  1  0  0  0  0
 17 15  2  0  0  0  0
 19 21  2  0  0  0  0
 19 18  1  0  0  0  0
 20 22  2  0  0  0  0
 20 23  1  0  0  0  0
 21 27  1  0  0  0  0
 22 12  1  0  0  0  0
 23  6  2  0  0  0  0
 24 14  1  6  0  0  0
 24 25  1  0  0  0  0
 25  3  1  0  0  0  0
 26 28  1  0  0  0  0
 28 27  2  0  0  0  0
 28  1  1  0  0  0  0
 29 30  1  0  0  0  0
 29 19  1  0  0  0  0
 31 29  2  0  0  0  0
 32 34  2  0  0  0  0
 33 32  2  0  0  0  0
M  END
>  <MODEL>
9

>  <REMARK>
 VINA RESULT:      -4.9      1.604      2.219
  Name = 
  2 active torsions:
  status: ('A' for Active; 'I' for Inactive)
    1  A    between atoms: C_3  and  C_25
    2  A    between atoms: C_7  and  N_11
                            x       y       z     vdW  Elec       q    Type
                         _______ _______ _______ _____ _____    ______ ____

>  <TORSDO>
F 2

$$$$
