=
 OpenBabel10262419563D

 25 28  0  0  1  0  0  0  0  0999 V2000
  187.6320  177.6240  146.0530 C   0  0  0  0  0  0  0  0  0  0  0  0
  187.1120  177.8180  144.7560 C   0  0  0  0  0  0  0  0  0  0  0  0
  185.7690  178.7470  147.0760 C   0  0  0  0  0  3  0  0  0  0  0  0
  188.9060  176.9500  146.4410 C   0  0  2  0  0  3  0  0  0  0  0  0
  187.9140  177.6400  142.3480 C   0  0  0  0  0  0  0  0  0  0  0  0
  185.2180  178.9540  145.8110 C   0  0  0  0  0  3  0  0  0  0  0  0
  188.9600  177.0380  147.9850 C   0  0  1  0  0  3  0  0  0  0  0  0
  189.0160  178.4720  148.5000 C   0  0  0  0  0  2  0  0  0  0  0  0
  185.1210  178.7450  143.3610 C   0  0  0  0  0  0  0  0  0  0  0  0
  184.0280  179.3750  143.3850 O   0  0  0  0  0  0  0  0  0  0  0  0
  187.9290  177.2870  143.6340 C   0  0  0  0  0  3  0  0  0  0  0  0
  186.9790  178.0740  147.1710 C   0  0  0  0  0  0  0  0  0  0  0  0
  187.6800  177.7540  148.4390 C   0  0  1  0  0  3  0  0  0  0  0  0
  185.5900  178.2610  142.0340 C   0  0  0  0  0  2  0  0  0  0  0  0
  187.0160  178.6950  141.8110 C   0  0  0  0  0  2  0  0  0  0  0  0
  185.8540  178.4990  144.6360 C   0  0  0  0  0  0  0  0  0  0  0  0
  188.8480  176.9560  141.4040 C   0  0  0  0  0  2  0  0  0  0  0  0
  190.2980  175.5190  142.6800 N   0  0  0  0  0  2  0  0  0  0  0  0
  190.1550  176.6470  142.0670 C   0  0  0  0  0  0  0  0  0  0  0  0
  191.3000  177.5600  141.9350 C   0  0  0  0  0  0  0  0  0  0  0  0
  192.0680  177.5540  140.7750 O   0  0  0  0  0  0  0  0  0  0  0  0
  191.6000  178.3470  142.8690 O   0  0  0  0  0  1  0  0  0  0  0  0
  190.1230  177.6160  145.8060 C   0  0  0  0  0  2  0  0  0  0  0  0
  192.0470  176.9020  147.0190 O   0  0  0  0  0  1  0  0  0  0  0  0
  191.3200  176.6820  145.8500 C   0  0  0  0  0  2  0  0  0  0  0  0
  1  4  1  0  0  0  0
  1 12  1  0  0  0  0
  2  1  2  0  0  0  0
  3 12  2  0  0  0  0
  4 23  1  6  0  0  0
  4  7  1  0  0  0  0
  5 11  2  0  0  0  0
  6  3  1  0  0  0  0
  7 13  1  0  0  0  0
  7  8  1  6  0  0  0
  9 10  2  0  0  0  0
  9 16  1  0  0  0  0
 11  2  1  0  0  0  0
 12 13  1  0  0  0  0
 13  8  1  6  0  0  0
 14  9  1  0  0  0  0
 15 14  1  0  0  0  0
 15  5  1  0  0  0  0
 16  2  1  0  0  0  0
 16  6  2  0  0  0  0
 17 19  1  0  0  0  0
 17  5  1  0  0  0  0
 19 18  2  0  0  0  0
 20 19  1  0  0  0  0
 20 22  1  0  0  0  0
 21 20  2  0  0  0  0
 23 25  1  0  0  0  0
 25 24  1  0  0  0  0
M  END
>  <MODEL>
1

>  <REMARK>
 VINA RESULT:     -10.1      0.000      0.000
  Name = 
  5 active torsions:
  status: ('A' for Active; 'I' for Inactive)
    1  A    between atoms: C_2  and  CA_25
    2  A    between atoms: C_5  and  C_22
    3  A    between atoms: C_6  and  C_15
    4  A    between atoms: C_15  and  CA_25
    5  A    between atoms: C_17  and  C_22
                            x       y       z     vdW  Elec       q    Type
                         _______ _______ _______ _____ _____    ______ ____

>  <TORSDO>
F 5

$$$$
=
 OpenBabel10262419563D

 25 28  0  0  1  0  0  0  0  0999 V2000
  188.4190  177.1860  144.2950 C   0  0  0  0  0  0  0  0  0  0  0  0
  187.1090  177.6580  144.5230 C   0  0  0  0  0  0  0  0  0  0  0  0
  189.0810  177.6320  146.5630 C   0  0  0  0  0  3  0  0  0  0  0  0
  188.9970  176.6540  143.0260 C   0  0  2  0  0  3  0  0  0  0  0  0
  185.0720  178.3250  143.1520 C   0  0  0  0  0  0  0  0  0  0  0  0
  187.7940  178.1010  146.8300 C   0  0  0  0  0  3  0  0  0  0  0  0
  190.4650  176.2980  143.3640 C   0  0  1  0  0  3  0  0  0  0  0  0
  191.2920  177.5080  143.7810 C   0  0  0  0  0  2  0  0  0  0  0  0
  185.4460  178.5990  146.2880 C   0  0  0  0  0  0  0  0  0  0  0  0
  185.2930  179.0020  147.4740 O   0  0  0  0  0  0  0  0  0  0  0  0
  186.1870  177.6220  143.3590 C   0  0  0  0  0  3  0  0  0  0  0  0
  189.3690  177.1750  145.2840 C   0  0  0  0  0  0  0  0  0  0  0  0
  190.6750  176.6240  144.8490 C   0  0  1  0  0  3  0  0  0  0  0  0
  184.2420  178.6080  145.4130 C   0  0  0  0  0  2  0  0  0  0  0  0
  184.5550  179.3230  144.1240 C   0  0  0  0  0  2  0  0  0  0  0  0
  186.7860  178.1220  145.8420 C   0  0  0  0  0  0  0  0  0  0  0  0
  184.3130  178.1130  141.8830 C   0  0  0  0  0  2  0  0  0  0  0  0
  186.0160  179.4430  140.8220 N   0  0  0  0  0  2  0  0  0  0  0  0
  184.7880  179.0400  140.8080 C   0  0  0  0  0  0  0  0  0  0  0  0
  183.9100  179.4070  139.6870 C   0  0  0  0  0  0  0  0  0  0  0  0
  182.7660  178.6610  139.4220 O   0  0  0  0  0  1  0  0  0  0  0  0
  184.1870  180.3910  138.9540 O   0  0  0  0  0  0  0  0  0  0  0  0
  188.9220  177.6720  141.8910 C   0  0  0  0  0  2  0  0  0  0  0  0
  189.4680  178.0400  139.6000 O   0  0  0  0  0  1  0  0  0  0  0  0
  189.5430  177.1010  140.6280 C   0  0  0  0  0  2  0  0  0  0  0  0
  1  2  2  0  0  0  0
  1 12  1  0  0  0  0
  2 16  1  0  0  0  0
  3  6  1  0  0  0  0
  4 23  1  6  0  0  0
  4  7  1  0  0  0  0
  4  1  1  0  0  0  0
  5 11  2  0  0  0  0
  5 15  1  0  0  0  0
  7  8  1  6  0  0  0
  7 13  1  0  0  0  0
  9 10  2  0  0  0  0
 11  2  1  0  0  0  0
 12  3  2  0  0  0  0
 13  8  1  6  0  0  0
 13 12  1  0  0  0  0
 14  9  1  0  0  0  0
 15 14  1  0  0  0  0
 16  9  1  0  0  0  0
 16  6  2  0  0  0  0
 17  5  1  0  0  0  0
 19 18  2  0  0  0  0
 19 17  1  0  0  0  0
 20 19  1  0  0  0  0
 21 20  1  0  0  0  0
 22 20  2  0  0  0  0
 24 25  1  0  0  0  0
 25 23  1  0  0  0  0
M  END
>  <MODEL>
2

>  <REMARK>
 VINA RESULT:      -9.8      2.534      4.990
  Name = 
  5 active torsions:
  status: ('A' for Active; 'I' for Inactive)
    1  A    between atoms: C_2  and  CA_25
    2  A    between atoms: C_5  and  C_22
    3  A    between atoms: C_6  and  C_15
    4  A    between atoms: C_15  and  CA_25
    5  A    between atoms: C_17  and  C_22
                            x       y       z     vdW  Elec       q    Type
                         _______ _______ _______ _____ _____    ______ ____

>  <TORSDO>
F 5

$$$$
=
 OpenBabel10262419563D

 25 28  0  0  1  0  0  0  0  0999 V2000
  187.4770  177.6290  145.7280 C   0  0  0  0  0  0  0  0  0  0  0  0
  186.8480  177.8600  144.4860 C   0  0  0  0  0  0  0  0  0  0  0  0
  185.5960  178.4900  146.9520 C   0  0  0  0  0  3  0  0  0  0  0  0
  188.8330  177.0580  145.9800 C   0  0  2  0  0  3  0  0  0  0  0  0
  187.4870  177.9270  142.0240 C   0  0  0  0  0  0  0  0  0  0  0  0
  184.9380  178.7290  145.7450 C   0  0  0  0  0  3  0  0  0  0  0  0
  188.9900  177.0450  147.5200 C   0  0  1  0  0  3  0  0  0  0  0  0
  188.9480  178.4380  148.1360 C   0  0  0  0  0  2  0  0  0  0  0  0
  184.6840  178.6810  143.2980 C   0  0  0  0  0  0  0  0  0  0  0  0
  183.5420  179.1980  143.4400 O   0  0  0  0  0  0  0  0  0  0  0  0
  187.6280  177.4900  143.2770 C   0  0  0  0  0  3  0  0  0  0  0  0
  186.8670  177.9350  146.9170 C   0  0  0  0  0  0  0  0  0  0  0  0
  187.6850  177.5990  148.1090 C   0  0  1  0  0  3  0  0  0  0  0  0
  185.1000  178.3370  141.9110 C   0  0  0  0  0  2  0  0  0  0  0  0
  186.4590  178.9230  141.6280 C   0  0  0  0  0  2  0  0  0  0  0  0
  185.5270  178.4210  144.5000 C   0  0  0  0  0  0  0  0  0  0  0  0
  188.4100  177.4050  140.9720 C   0  0  0  0  0  2  0  0  0  0  0  0
  189.0440  179.2130  139.5130 N   0  0  0  0  0  2  0  0  0  0  0  0
  188.2790  178.1880  139.7020 C   0  0  0  0  0  0  0  0  0  0  0  0
  187.3750  177.7410  138.6320 C   0  0  0  0  0  0  0  0  0  0  0  0
  187.6180  176.5450  137.9650 O   0  0  0  0  0  0  0  0  0  0  0  0
  186.3790  178.4380  138.3060 O   0  0  0  0  0  1  0  0  0  0  0  0
  189.9330  177.8830  145.3190 C   0  0  0  0  0  2  0  0  0  0  0  0
  191.9730  176.9770  146.1570 O   0  0  0  0  0  1  0  0  0  0  0  0
  191.1460  177.0140  145.0350 C   0  0  0  0  0  2  0  0  0  0  0  0
  1  4  1  0  0  0  0
  1 12  1  0  0  0  0
  2 16  1  0  0  0  0
  2  1  2  0  0  0  0
  4 23  1  6  0  0  0
  4  7  1  0  0  0  0
  5 11  2  0  0  0  0
  6  3  1  0  0  0  0
  7 13  1  0  0  0  0
  7  8  1  6  0  0  0
  9 10  2  0  0  0  0
  9 16  1  0  0  0  0
 11  2  1  0  0  0  0
 12  3  2  0  0  0  0
 12 13  1  0  0  0  0
 13  8  1  6  0  0  0
 14  9  1  0  0  0  0
 15 14  1  0  0  0  0
 15  5  1  0  0  0  0
 16  6  2  0  0  0  0
 17  5  1  0  0  0  0
 18 19  2  0  0  0  0
 19 17  1  0  0  0  0
 20 19  1  0  0  0  0
 21 20  2  0  0  0  0
 22 20  1  0  0  0  0
 25 23  1  0  0  0  0
 25 24  1  0  0  0  0
M  END
>  <MODEL>
3

>  <REMARK>
 VINA RESULT:      -9.6      2.070      2.413
  Name = 
  5 active torsions:
  status: ('A' for Active; 'I' for Inactive)
    1  A    between atoms: C_2  and  CA_25
    2  A    between atoms: C_5  and  C_22
    3  A    between atoms: C_6  and  C_15
    4  A    between atoms: C_15  and  CA_25
    5  A    between atoms: C_17  and  C_22
                            x       y       z     vdW  Elec       q    Type
                         _______ _______ _______ _____ _____    ______ ____

>  <TORSDO>
F 5

$$$$
=
 OpenBabel10262419563D

 25 28  0  0  1  0  0  0  0  0999 V2000
  186.3210  177.9820  144.6540 C   0  0  0  0  0  0  0  0  0  0  0  0
  186.6780  178.0090  143.2890 C   0  0  0  0  0  0  0  0  0  0  0  0
  184.3760  179.3440  144.2750 C   0  0  0  0  0  3  0  0  0  0  0  0
  187.0340  177.3060  145.7780 C   0  0  2  0  0  3  0  0  0  0  0  0
  188.6930  177.4320  141.8470 C   0  0  0  0  0  0  0  0  0  0  0  0
  184.6920  179.3900  142.9160 C   0  0  0  0  0  3  0  0  0  0  0  0
  186.1960  177.6200  147.0400 C   0  0  1  0  0  3  0  0  0  0  0  0
  186.1310  179.1090  147.3590 C   0  0  0  0  0  2  0  0  0  0  0  0
  186.0030  178.8240  140.9130 C   0  0  0  0  0  0  0  0  0  0  0  0
  185.1930  179.5090  140.2300 O   0  0  0  0  0  0  0  0  0  0  0  0
  187.9150  177.2740  142.9200 C   0  0  0  0  0  3  0  0  0  0  0  0
  185.2080  178.6290  145.1260 C   0  0  0  0  0  0  0  0  0  0  0  0
  184.9970  178.4630  146.5850 C   0  0  1  0  0  3  0  0  0  0  0  0
  187.0860  178.1230  140.1690 C   0  0  0  0  0  2  0  0  0  0  0  0
  188.4200  178.4410  140.7930 C   0  0  0  0  0  2  0  0  0  0  0  0
  185.8240  178.7310  142.3900 C   0  0  0  0  0  0  0  0  0  0  0  0
  189.9010  176.5650  141.7030 C   0  0  0  0  0  2  0  0  0  0  0  0
  191.9680  177.6370  141.0840 N   0  0  0  0  0  2  0  0  0  0  0  0
  191.1510  177.3220  142.0350 C   0  0  0  0  0  0  0  0  0  0  0  0
  191.4010  177.7990  143.4030 C   0  0  0  0  0  0  0  0  0  0  0  0
  191.3330  179.1570  143.6930 O   0  0  0  0  0  0  0  0  0  0  0  0
  191.6860  176.9860  144.3200 O   0  0  0  0  0  1  0  0  0  0  0  0
  188.4690  177.8040  145.9280 C   0  0  0  0  0  2  0  0  0  0  0  0
  189.5320  177.7860  148.0610 O   0  0  0  0  0  1  0  0  0  0  0  0
  189.2070  176.9810  146.9700 C   0  0  0  0  0  2  0  0  0  0  0  0
  1 12  1  0  0  0  0
  1  4  1  0  0  0  0
  2  1  2  0  0  0  0
  3 12  2  0  0  0  0
  4 23  1  1  0  0  0
  4  7  1  0  0  0  0
  5 11  2  0  0  0  0
  6  3  1  0  0  0  0
  7  8  1  1  0  0  0
  9 16  1  0  0  0  0
 10  9  2  0  0  0  0
 11  2  1  0  0  0  0
 12 13  1  0  0  0  0
 13  7  1  0  0  0  0
 13  8  1  1  0  0  0
 14 15  1  0  0  0  0
 14  9  1  0  0  0  0
 15  5  1  0  0  0  0
 16  6  2  0  0  0  0
 16  2  1  0  0  0  0
 17  5  1  0  0  0  0
 17 19  1  0  0  0  0
 18 19  2  0  0  0  0
 19 20  1  0  0  0  0
 20 21  2  0  0  0  0
 20 22  1  0  0  0  0
 23 25  1  0  0  0  0
 25 24  1  0  0  0  0
M  END
>  <MODEL>
4

>  <REMARK>
 VINA RESULT:      -9.6      1.653      2.429
  Name = 
  5 active torsions:
  status: ('A' for Active; 'I' for Inactive)
    1  A    between atoms: C_2  and  CA_25
    2  A    between atoms: C_5  and  C_22
    3  A    between atoms: C_6  and  C_15
    4  A    between atoms: C_15  and  CA_25
    5  A    between atoms: C_17  and  C_22
                            x       y       z     vdW  Elec       q    Type
                         _______ _______ _______ _____ _____    ______ ____

>  <TORSDO>
F 5

$$$$
=
 OpenBabel10262419563D

 25 28  0  0  1  0  0  0  0  0999 V2000
  189.2830  176.9360  144.2770 C   0  0  0  0  0  0  0  0  0  0  0  0
  188.2440  177.3190  145.1510 C   0  0  0  0  0  0  0  0  0  0  0  0
  190.9050  176.9260  146.0520 C   0  0  0  0  0  3  0  0  0  0  0  0
  189.2060  176.6880  142.8080 C   0  0  2  0  0  3  0  0  0  0  0  0
  185.8620  178.2020  144.9880 C   0  0  0  0  0  0  0  0  0  0  0  0
  189.9030  177.3000  146.9500 C   0  0  0  0  0  3  0  0  0  0  0  0
  190.6430  176.3070  142.3810 C   0  0  1  0  0  3  0  0  0  0  0  0
  191.6510  177.4260  142.6120 C   0  0  0  0  0  2  0  0  0  0  0  0
  187.5970  177.8410  147.6160 C   0  0  0  0  0  0  0  0  0  0  0  0
  188.0100  177.9890  148.7990 O   0  0  0  0  0  0  0  0  0  0  0  0
  186.9030  177.4980  144.5360 C   0  0  0  0  0  3  0  0  0  0  0  0
  190.5680  176.7470  144.7180 C   0  0  0  0  0  0  0  0  0  0  0  0
  191.5080  176.3280  143.6490 C   0  0  1  0  0  3  0  0  0  0  0  0
  186.1340  177.9980  147.3890 C   0  0  0  0  0  2  0  0  0  0  0  0
  185.8970  178.9670  146.2600 C   0  0  0  0  0  2  0  0  0  0  0  0
  188.5670  177.4960  146.5380 C   0  0  0  0  0  0  0  0  0  0  0  0
  184.6100  178.2340  144.1750 C   0  0  0  0  0  2  0  0  0  0  0  0
  184.9980  180.4490  143.3140 N   0  0  0  0  0  2  0  0  0  0  0  0
  184.7220  179.2150  143.0480 C   0  0  0  0  0  0  0  0  0  0  0  0
  184.6280  178.7700  141.6510 C   0  0  0  0  0  0  0  0  0  0  0  0
  185.3470  179.4270  140.6580 O   0  0  0  0  0  0  0  0  0  0  0  0
  183.8930  177.7970  141.3380 O   0  0  0  0  0  1  0  0  0  0  0  0
  188.7090  177.9130  142.0460 C   0  0  0  0  0  2  0  0  0  0  0  0
  189.2260  178.4030  139.7710 O   0  0  0  0  0  1  0  0  0  0  0  0
  188.4670  177.5660  140.5870 C   0  0  0  0  0  2  0  0  0  0  0  0
  1 12  2  0  0  0  0
  1  2  1  0  0  0  0
  2 16  2  0  0  0  0
  3  6  2  0  0  0  0
  4 23  1  6  0  0  0
  4  1  1  0  0  0  0
  5 15  1  0  0  0  0
  7  8  1  6  0  0  0
  7  4  1  0  0  0  0
  7 13  1  0  0  0  0
  9 10  2  0  0  0  0
 11  5  2  0  0  0  0
 11  2  1  0  0  0  0
 12  3  1  0  0  0  0
 13  8  1  6  0  0  0
 13 12  1  0  0  0  0
 14  9  1  0  0  0  0
 15 14  1  0  0  0  0
 16  6  1  0  0  0  0
 16  9  1  0  0  0  0
 17  5  1  0  0  0  0
 19 18  2  0  0  0  0
 19 17  1  0  0  0  0
 20 19  1  0  0  0  0
 21 20  2  0  0  0  0
 22 20  1  0  0  0  0
 24 25  1  0  0  0  0
 25 23  1  0  0  0  0
M  END
>  <MODEL>
5

>  <REMARK>
 VINA RESULT:      -9.3      2.252      5.488
  Name = 
  5 active torsions:
  status: ('A' for Active; 'I' for Inactive)
    1  A    between atoms: C_2  and  CA_25
    2  A    between atoms: C_5  and  C_22
    3  A    between atoms: C_6  and  C_15
    4  A    between atoms: C_15  and  CA_25
    5  A    between atoms: C_17  and  C_22
                            x       y       z     vdW  Elec       q    Type
                         _______ _______ _______ _____ _____    ______ ____

>  <TORSDO>
F 5

$$$$
=
 OpenBabel10262419563D

 25 28  0  0  1  0  0  0  0  0999 V2000
  188.4140  177.3580  144.5870 C   0  0  0  0  0  0  0  0  0  0  0  0
  187.1180  177.8060  144.2550 C   0  0  0  0  0  0  0  0  0  0  0  0
  188.0310  177.6820  146.9380 C   0  0  0  0  0  3  0  0  0  0  0  0
  189.4940  176.9020  143.6630 C   0  0  2  0  0  3  0  0  0  0  0  0
  185.8400  178.5310  142.1770 C   0  0  0  0  0  0  0  0  0  0  0  0
  186.7390  178.1260  146.6510 C   0  0  0  0  0  3  0  0  0  0  0  0
  190.6880  176.5390  144.5790 C   0  0  1  0  0  3  0  0  0  0  0  0
  191.2200  177.7310  145.3660 C   0  0  0  0  0  2  0  0  0  0  0  0
  184.8330  178.6340  145.1810 C   0  0  0  0  0  0  0  0  0  0  0  0
  184.1760  178.9690  146.2050 O   0  0  0  0  0  0  0  0  0  0  0  0
  186.7810  177.8270  142.8080 C   0  0  0  0  0  3  0  0  0  0  0  0
  188.8510  177.3000  145.8850 C   0  0  0  0  0  0  0  0  0  0  0  0
  190.2350  176.7840  146.0250 C   0  0  1  0  0  3  0  0  0  0  0  0
  184.1170  178.6820  143.8770 C   0  0  0  0  0  2  0  0  0  0  0  0
  184.9280  179.4690  142.8810 C   0  0  0  0  0  2  0  0  0  0  0  0
  186.2490  178.1930  145.3290 C   0  0  0  0  0  0  0  0  0  0  0  0
  185.7010  178.3840  140.6980 C   0  0  0  0  0  2  0  0  0  0  0  0
  184.3310  179.9900  139.5400 N   0  0  0  0  0  2  0  0  0  0  0  0
  184.3750  178.8960  140.2260 C   0  0  0  0  0  0  0  0  0  0  0  0
  183.1480  178.1150  140.4400 C   0  0  0  0  0  0  0  0  0  0  0  0
  182.0090  178.7290  140.9520 O   0  0  0  0  0  1  0  0  0  0  0  0
  183.1170  176.8870  140.1700 O   0  0  0  0  0  0  0  0  0  0  0  0
  189.8780  177.9800  142.6540 C   0  0  0  0  0  2  0  0  0  0  0  0
  191.7540  177.4630  141.2770 O   0  0  0  0  0  1  0  0  0  0  0  0
  190.3680  177.3460  141.3640 C   0  0  0  0  0  2  0  0  0  0  0  0
  1 12  1  0  0  0  0
  2  1  2  0  0  0  0
  2 16  1  0  0  0  0
  4 23  1  6  0  0  0
  4  7  1  0  0  0  0
  4  1  1  0  0  0  0
  5 11  2  0  0  0  0
  5 15  1  0  0  0  0
  6  3  1  0  0  0  0
  7  8  1  6  0  0  0
  7 13  1  0  0  0  0
  9 16  1  0  0  0  0
  9 10  2  0  0  0  0
 11  2  1  0  0  0  0
 12 13  1  0  0  0  0
 12  3  2  0  0  0  0
 13  8  1  6  0  0  0
 14  9  1  0  0  0  0
 15 14  1  0  0  0  0
 16  6  2  0  0  0  0
 17  5  1  0  0  0  0
 18 19  2  0  0  0  0
 19 20  1  0  0  0  0
 19 17  1  0  0  0  0
 20 21  1  0  0  0  0
 22 20  2  0  0  0  0
 24 25  1  0  0  0  0
 25 23  1  0  0  0  0
M  END
>  <MODEL>
6

>  <REMARK>
 VINA RESULT:      -9.2      2.334      4.645
  Name = 
  5 active torsions:
  status: ('A' for Active; 'I' for Inactive)
    1  A    between atoms: C_2  and  CA_25
    2  A    between atoms: C_5  and  C_22
    3  A    between atoms: C_6  and  C_15
    4  A    between atoms: C_15  and  CA_25
    5  A    between atoms: C_17  and  C_22
                            x       y       z     vdW  Elec       q    Type
                         _______ _______ _______ _____ _____    ______ ____

>  <TORSDO>
F 5

$$$$
=
 OpenBabel10262419563D

 25 28  0  0  1  0  0  0  0  0999 V2000
  186.7780  177.7810  144.2940 C   0  0  0  0  0  0  0  0  0  0  0  0
  187.7930  177.5740  143.3360 C   0  0  0  0  0  0  0  0  0  0  0  0
  185.3600  178.8870  142.6990 C   0  0  0  0  0  3  0  0  0  0  0  0
  186.7800  177.3900  145.7350 C   0  0  2  0  0  3  0  0  0  0  0  0
  190.2440  176.8910  143.2920 C   0  0  0  0  0  0  0  0  0  0  0  0
  186.3380  178.6970  141.7210 C   0  0  0  0  0  3  0  0  0  0  0  0
  185.4180  177.8730  146.2900 C   0  0  1  0  0  3  0  0  0  0  0  0
  185.2470  179.3860  146.2180 C   0  0  0  0  0  2  0  0  0  0  0  0
  188.4800  177.8630  140.8440 C   0  0  0  0  0  0  0  0  0  0  0  0
  188.1660  178.3400  139.7190 O   0  0  0  0  0  0  0  0  0  0  0  0
  189.0170  176.8810  143.8160 C   0  0  0  0  0  3  0  0  0  0  0  0
  185.6040  178.4160  143.9810 C   0  0  0  0  0  0  0  0  0  0  0  0
  184.6600  178.5160  145.1210 C   0  0  1  0  0  3  0  0  0  0  0  0
  189.7670  177.1210  140.9250 C   0  0  0  0  0  2  0  0  0  0  0  0
  190.5920  177.6560  142.0670 C   0  0  0  0  0  2  0  0  0  0  0  0
  187.5560  178.0410  142.0000 C   0  0  0  0  0  0  0  0  0  0  0  0
  191.3220  176.1110  143.9700 C   0  0  0  0  0  2  0  0  0  0  0  0
  191.6540  178.0330  145.3840 N   0  0  0  0  0  2  0  0  0  0  0  0
  191.7120  176.7470  145.2700 C   0  0  0  0  0  0  0  0  0  0  0  0
  192.0520  175.9220  146.4380 C   0  0  0  0  0  0  0  0  0  0  0  0
  192.0120  176.4700  147.7160 O   0  0  0  0  0  1  0  0  0  0  0  0
  192.3890  174.7180  146.2940 O   0  0  0  0  0  0  0  0  0  0  0  0
  187.9430  178.0180  146.4970 C   0  0  0  0  0  2  0  0  0  0  0  0
  188.3320  177.8640  148.8440 O   0  0  0  0  0  1  0  0  0  0  0  0
  188.3540  177.1300  147.6580 C   0  0  0  0  0  2  0  0  0  0  0  0
  1  4  1  0  0  0  0
  2 11  1  0  0  0  0
  2  1  2  0  0  0  0
  3 12  2  0  0  0  0
  4  7  1  0  0  0  0
  4 23  1  1  0  0  0
  5 11  2  0  0  0  0
  5 17  1  0  0  0  0
  6 16  2  0  0  0  0
  6  3  1  0  0  0  0
  7  8  1  1  0  0  0
  9 14  1  0  0  0  0
  9 16  1  0  0  0  0
 10  9  2  0  0  0  0
 12  1  1  0  0  0  0
 12 13  1  0  0  0  0
 13  8  1  1  0  0  0
 13  7  1  0  0  0  0
 14 15  1  0  0  0  0
 15  5  1  0  0  0  0
 16  2  1  0  0  0  0
 17 19  1  0  0  0  0
 19 18  2  0  0  0  0
 19 20  1  0  0  0  0
 20 21  1  0  0  0  0
 22 20  2  0  0  0  0
 23 25  1  0  0  0  0
 25 24  1  0  0  0  0
M  END
>  <MODEL>
7

>  <REMARK>
 VINA RESULT:      -9.2      2.068      3.981
  Name = 
  5 active torsions:
  status: ('A' for Active; 'I' for Inactive)
    1  A    between atoms: C_2  and  CA_25
    2  A    between atoms: C_5  and  C_22
    3  A    between atoms: C_6  and  C_15
    4  A    between atoms: C_15  and  CA_25
    5  A    between atoms: C_17  and  C_22
                            x       y       z     vdW  Elec       q    Type
                         _______ _______ _______ _____ _____    ______ ____

>  <TORSDO>
F 5

$$$$
=
 OpenBabel10262419563D

 25 28  0  0  1  0  0  0  0  0999 V2000
  186.4020  177.9220  144.5940 C   0  0  0  0  0  0  0  0  0  0  0  0
  186.7240  177.9800  143.2220 C   0  0  0  0  0  0  0  0  0  0  0  0
  184.4470  179.2890  144.2950 C   0  0  0  0  0  3  0  0  0  0  0  0
  187.1430  177.2220  145.6850 C   0  0  2  0  0  3  0  0  0  0  0  0
  188.7030  177.4370  141.7170 C   0  0  0  0  0  0  0  0  0  0  0  0
  184.7280  179.3660  142.9300 C   0  0  0  0  0  3  0  0  0  0  0  0
  186.3370  177.5060  146.9740 C   0  0  1  0  0  3  0  0  0  0  0  0
  186.2790  178.9880  147.3280 C   0  0  0  0  0  2  0  0  0  0  0  0
  185.9890  178.8470  140.8820 C   0  0  0  0  0  0  0  0  0  0  0  0
  185.1610  179.5460  140.2360 O   0  0  0  0  0  0  0  0  0  0  0  0
  187.9510  177.2550  142.8050 C   0  0  0  0  0  3  0  0  0  0  0  0
  185.3000  178.5560  145.1080 C   0  0  0  0  0  0  0  0  0  0  0  0
  185.1260  178.3580  146.5680 C   0  0  1  0  0  3  0  0  0  0  0  0
  187.0520  178.1640  140.0950 C   0  0  0  0  0  2  0  0  0  0  0  0
  188.4010  178.4700  140.6930 C   0  0  0  0  0  2  0  0  0  0  0  0
  185.8470  178.7210  142.3610 C   0  0  0  0  0  0  0  0  0  0  0  0
  189.9070  176.5760  141.5230 C   0  0  0  0  0  2  0  0  0  0  0  0
  191.7500  177.8830  140.6880 N   0  0  0  0  0  2  0  0  0  0  0  0
  190.7660  177.0930  140.4090 C   0  0  0  0  0  0  0  0  0  0  0  0
  190.5680  176.6270  139.0290 C   0  0  0  0  0  0  0  0  0  0  0  0
  190.1550  177.5180  138.0430 O   0  0  0  0  0  0  0  0  0  0  0  0
  190.7630  175.4210  138.7270 O   0  0  0  0  0  1  0  0  0  0  0  0
  188.5810  177.7180  145.8090 C   0  0  0  0  0  2  0  0  0  0  0  0
  189.7630  177.6930  147.8790 O   0  0  0  0  0  1  0  0  0  0  0  0
  189.3410  176.8840  146.8260 C   0  0  0  0  0  2  0  0  0  0  0  0
  1 12  1  0  0  0  0
  1  4  1  0  0  0  0
  2  1  2  0  0  0  0
  3 12  2  0  0  0  0
  4 23  1  1  0  0  0
  4  7  1  0  0  0  0
  5 11  2  0  0  0  0
  6  3  1  0  0  0  0
  7  8  1  1  0  0  0
  9 16  1  0  0  0  0
 10  9  2  0  0  0  0
 11  2  1  0  0  0  0
 12 13  1  0  0  0  0
 13  7  1  0  0  0  0
 13  8  1  1  0  0  0
 14 15  1  0  0  0  0
 14  9  1  0  0  0  0
 15  5  1  0  0  0  0
 16  6  2  0  0  0  0
 16  2  1  0  0  0  0
 17  5  1  0  0  0  0
 19 18  2  0  0  0  0
 19 17  1  0  0  0  0
 20 19  1  0  0  0  0
 21 20  2  0  0  0  0
 22 20  1  0  0  0  0
 23 25  1  0  0  0  0
 25 24  1  0  0  0  0
M  END
>  <MODEL>
8

>  <REMARK>
 VINA RESULT:      -8.9      1.951      2.648
  Name = 
  5 active torsions:
  status: ('A' for Active; 'I' for Inactive)
    1  A    between atoms: C_2  and  CA_25
    2  A    between atoms: C_5  and  C_22
    3  A    between atoms: C_6  and  C_15
    4  A    between atoms: C_15  and  CA_25
    5  A    between atoms: C_17  and  C_22
                            x       y       z     vdW  Elec       q    Type
                         _______ _______ _______ _____ _____    ______ ____

>  <TORSDO>
F 5

$$$$
=
 OpenBabel10262419563D

 25 28  0  0  1  0  0  0  0  0999 V2000
  187.5960  178.0460  145.4700 C   0  0  0  0  0  0  0  0  0  0  0  0
  188.7820  177.5040  144.9310 C   0  0  0  0  0  0  0  0  0  0  0  0
  188.3300  177.6640  147.7270 C   0  0  0  0  0  3  0  0  0  0  0  0
  186.4190  178.5970  144.7350 C   0  0  2  0  0  3  0  0  0  0  0  0
  189.6440  176.7080  142.6730 C   0  0  0  0  0  0  0  0  0  0  0  0
  189.5190  177.1250  147.2330 C   0  0  0  0  0  3  0  0  0  0  0  0
  185.4230  179.0390  145.8330 C   0  0  1  0  0  3  0  0  0  0  0  0
  184.9340  177.8820  146.6970 C   0  0  0  0  0  2  0  0  0  0  0  0
  191.1150  176.4900  145.4720 C   0  0  0  0  0  0  0  0  0  0  0  0
  191.9010  176.0920  146.3750 O   0  0  0  0  0  0  0  0  0  0  0  0
  188.8760  177.4750  143.4480 C   0  0  0  0  0  3  0  0  0  0  0  0
  187.3830  178.1220  146.8220 C   0  0  0  0  0  0  0  0  0  0  0  0
  186.0850  178.7410  147.1860 C   0  0  1  0  0  3  0  0  0  0  0  0
  191.6040  176.4030  144.0680 C   0  0  0  0  0  2  0  0  0  0  0  0
  190.5820  175.6930  143.2180 C   0  0  0  0  0  2  0  0  0  0  0  0
  189.7810  177.0370  145.8490 C   0  0  0  0  0  0  0  0  0  0  0  0
  189.5510  176.8630  141.1900 C   0  0  0  0  0  2  0  0  0  0  0  0
  191.7340  177.8780  141.2370 N   0  0  0  0  0  2  0  0  0  0  0  0
  190.8960  177.1360  140.5900 C   0  0  0  0  0  0  0  0  0  0  0  0
  191.3070  176.4870  139.3370 C   0  0  0  0  0  0  0  0  0  0  0  0
  190.4690  175.5650  138.7200 O   0  0  0  0  0  0  0  0  0  0  0  0
  192.4210  176.7530  138.8160 O   0  0  0  0  0  1  0  0  0  0  0  0
  185.7930  177.5640  143.8020 C   0  0  0  0  0  2  0  0  0  0  0  0
  186.0250  179.0420  141.9460 O   0  0  0  0  0  1  0  0  0  0  0  0
  185.1050  178.2530  142.6370 C   0  0  0  0  0  2  0  0  0  0  0  0
  1 12  1  0  0  0  0
  2  1  2  0  0  0  0
  2 16  1  0  0  0  0
  4 23  1  6  0  0  0
  4  1  1  0  0  0  0
  4  7  1  0  0  0  0
  5 15  1  0  0  0  0
  5 11  2  0  0  0  0
  6  3  1  0  0  0  0
  7  8  1  6  0  0  0
  7 13  1  0  0  0  0
  9 16  1  0  0  0  0
  9 10  2  0  0  0  0
 11  2  1  0  0  0  0
 12 13  1  0  0  0  0
 12  3  2  0  0  0  0
 13  8  1  1  0  0  0
 14  9  1  0  0  0  0
 15 14  1  0  0  0  0
 16  6  2  0  0  0  0
 17  5  1  0  0  0  0
 19 17  1  0  0  0  0
 19 18  2  0  0  0  0
 20 19  1  0  0  0  0
 21 20  2  0  0  0  0
 22 20  1  0  0  0  0
 24 25  1  0  0  0  0
 25 23  1  0  0  0  0
M  END
>  <MODEL>
9

>  <REMARK>
 VINA RESULT:      -8.7      1.552      4.494
  Name = 
  5 active torsions:
  status: ('A' for Active; 'I' for Inactive)
    1  A    between atoms: C_2  and  CA_25
    2  A    between atoms: C_5  and  C_22
    3  A    between atoms: C_6  and  C_15
    4  A    between atoms: C_15  and  CA_25
    5  A    between atoms: C_17  and  C_22
                            x       y       z     vdW  Elec       q    Type
                         _______ _______ _______ _____ _____    ______ ____

>  <TORSDO>
F 5

$$$$
