=
 OpenBabel10262419133D

 34 39  0  0  1  0  0  0  0  0999 V2000
  191.1740  176.7660  145.3230 C   0  0  0  0  0  0  0  0  0  0  0  0
  189.5960  177.1540  147.0070 C   0  0  2  0  0  3  0  0  0  0  0  0
  188.9700  177.3560  144.4450 C   0  0  0  0  0  0  0  0  0  0  0  0
  186.8220  177.9420  143.4410 C   0  0  1  0  0  3  0  0  0  0  0  0
  191.9290  176.4780  146.5650 C   0  0  1  0  0  3  0  0  0  0  0  0
  190.9120  176.7240  147.6790 C   0  0  2  0  0  3  0  0  0  0  0  0
  186.9250  177.3710  145.9360 C   0  0  0  0  0  3  0  0  0  0  0  0
  189.8570  177.1040  145.5350 C   0  0  0  0  0  0  0  0  0  0  0  0
  185.5500  177.9790  145.9870 C   0  0  0  0  0  3  0  0  0  0  0  0
  185.5420  178.2890  143.5660 C   0  0  0  0  0  3  0  0  0  0  0  0
  191.3060  175.3060  147.3070 C   0  0  0  0  0  2  0  0  0  0  0  0
  189.5330  177.3360  143.1200 C   0  0  0  0  0  0  0  0  0  0  0  0
  191.7210  176.7400  144.0500 C   0  0  0  0  0  3  0  0  0  0  0  0
  189.3110  178.5850  147.4360 C   0  0  0  0  0  1  0  0  0  0  0  0
  187.4150  177.9280  142.1870 O   0  0  0  0  0  0  0  0  0  0  0  0
  188.7650  177.5970  142.0230 C   0  0  0  0  0  0  0  0  0  0  0  0
  184.8930  178.3530  144.8850 C   0  0  0  0  0  0  0  0  0  0  0  0
  187.6410  177.5960  144.6210 C   0  0  0  0  0  0  0  0  0  0  0  0
  190.9030  177.0360  142.9640 C   0  0  0  0  0  3  0  0  0  0  0  0
  189.1340  178.4400  138.3550 C   0  0  0  0  0  0  0  0  0  0  0  0
  190.0830  177.5060  137.9330 C   0  0  0  0  0  3  0  0  0  0  0  0
  189.2660  177.5690  140.6230 C   0  0  0  0  0  0  0  0  0  0  0  0
  190.6170  176.5950  138.8470 C   0  0  0  0  0  3  0  0  0  0  0  0
  188.7240  178.4660  139.6910 C   0  0  0  0  0  3  0  0  0  0  0  0
  190.2060  176.6220  140.1820 C   0  0  0  0  0  3  0  0  0  0  0  0
  188.6090  179.3200  137.4690 F   0  0  0  0  0  0  0  0  0  0  0  0
  183.5230  178.9200  145.0030 C   0  0  0  0  0  2  0  0  0  0  0  0
  183.1330  179.6170  143.7100 C   0  0  0  0  0  2  0  0  0  0  0  0
  182.4370  178.6170  141.5340 C   0  0  0  0  0  1  0  0  0  0  0  0
  182.0500  178.8310  142.9870 C   0  0  2  0  0  3  0  0  0  0  0  0
  180.6690  179.4870  143.1040 C   0  0  0  0  0  2  0  0  0  0  0  0
  179.2730  177.4980  142.5190 O   0  0  0  0  0  0  0  0  0  0  0  0
  179.5790  178.5120  143.4180 C   0  0  0  0  0  0  0  0  0  0  0  0
  178.9520  178.5960  144.5060 O   0  0  0  0  0  1  0  0  0  0  0  0
  1  8  2  0  0  0  0
  1  5  1  0  0  0  0
  2 14  1  1  0  0  0
  2  6  1  0  0  0  0
  3 18  2  0  0  0  0
  3  8  1  0  0  0  0
  4 10  1  1  0  0  0
  4 18  1  0  0  0  0
  5 11  1  6  0  0  0
  5  6  1  0  0  0  0
  6 11  1  6  0  0  0
  7  9  2  0  0  0  0
  8  2  1  0  0  0  0
 10 17  2  0  0  0  0
 12  3  1  0  0  0  0
 13  1  1  0  0  0  0
 15  4  1  0  0  0  0
 16 15  1  0  0  0  0
 16 12  2  0  0  0  0
 17 27  1  0  0  0  0
 17  9  1  0  0  0  0
 18  7  1  0  0  0  0
 19 12  1  0  0  0  0
 19 13  2  0  0  0  0
 20 24  1  0  0  0  0
 21 20  2  0  0  0  0
 21 23  1  0  0  0  0
 22 16  1  0  0  0  0
 23 25  2  0  0  0  0
 24 22  2  0  0  0  0
 25 22  1  0  0  0  0
 26 20  1  0  0  0  0
 28 27  1  0  0  0  0
 30 29  1  6  0  0  0
 30 31  1  0  0  0  0
 30 28  1  0  0  0  0
 31 33  1  0  0  0  0
 32 33  2  0  0  0  0
 33 34  1  0  0  0  0
M  END
>  <MODEL>
1

>  <REMARK>
 VINA RESULT:     -11.0      0.000      0.000
  Name = 
  6 active torsions:
  status: ('A' for Active; 'I' for Inactive)
    1  A    between atoms: C_3  and  C_13
    2  A    between atoms: C_3  and  C_29
    3  A    between atoms: C_12  and  C_28
    4  A    between atoms: C_13  and  C_33
    5  A    between atoms: C_20  and  C_22
    6  A    between atoms: C_22  and  C_33
                            x       y       z     vdW  Elec       q    Type
                         _______ _______ _______ _____ _____    ______ ____

>  <TORSDO>
F 6

$$$$
=
 OpenBabel10262419133D

 34 39  0  0  1  0  0  0  0  0999 V2000
  188.8240  177.7160  146.2420 C   0  0  0  0  0  0  0  0  0  0  0  0
  186.7590  178.2380  147.2140 C   0  0  2  0  0  3  0  0  0  0  0  0
  187.0520  178.0510  144.5920 C   0  0  0  0  0  0  0  0  0  0  0  0
  185.3760  178.3670  142.8440 C   0  0  1  0  0  3  0  0  0  0  0  0
  189.1080  177.6460  147.6950 C   0  0  1  0  0  3  0  0  0  0  0  0
  187.7680  177.9810  148.3490 C   0  0  2  0  0  3  0  0  0  0  0  0
  184.6190  178.1500  145.2810 C   0  0  0  0  0  3  0  0  0  0  0  0
  187.5110  178.0020  145.9420 C   0  0  0  0  0  0  0  0  0  0  0  0
  183.3050  178.6770  144.7720 C   0  0  0  0  0  3  0  0  0  0  0  0
  184.1280  178.6520  142.4740 C   0  0  0  0  0  3  0  0  0  0  0  0
  188.2770  176.5510  148.3470 C   0  0  0  0  0  2  0  0  0  0  0  0
  188.0370  177.8830  143.5550 C   0  0  0  0  0  0  0  0  0  0  0  0
  189.7760  177.5490  145.2490 C   0  0  0  0  0  3  0  0  0  0  0  0
  186.3320  179.6940  147.3040 C   0  0  0  0  0  1  0  0  0  0  0  0
  186.3640  178.2170  141.8820 O   0  0  0  0  0  0  0  0  0  0  0  0
  187.6910  177.9470  142.2360 C   0  0  0  0  0  0  0  0  0  0  0  0
  183.0640  178.8580  143.4700 C   0  0  0  0  0  0  0  0  0  0  0  0
  185.7420  178.2340  144.2690 C   0  0  0  0  0  0  0  0  0  0  0  0
  189.3790  177.6450  143.9190 C   0  0  0  0  0  3  0  0  0  0  0  0
  189.3110  178.3260  138.8410 C   0  0  0  0  0  0  0  0  0  0  0  0
  190.3360  177.3800  138.8970 C   0  0  0  0  0  3  0  0  0  0  0  0
  188.6430  177.7570  141.1100 C   0  0  0  0  0  0  0  0  0  0  0  0
  190.5110  176.6110  140.0500 C   0  0  0  0  0  3  0  0  0  0  0  0
  188.4660  178.5090  139.9390 C   0  0  0  0  0  3  0  0  0  0  0  0
  189.6660  176.7940  141.1470 C   0  0  0  0  0  3  0  0  0  0  0  0
  189.1330  179.0670  137.7200 F   0  0  0  0  0  0  0  0  0  0  0  0
  181.7330  179.3550  143.0310 C   0  0  0  0  0  2  0  0  0  0  0  0
  181.2270  178.5280  141.8600 C   0  0  0  0  0  2  0  0  0  0  0  0
  179.6310  179.3640  140.1360 C   0  0  0  0  0  1  0  0  0  0  0  0
  181.0700  179.3990  140.6220 C   0  0  2  0  0  3  0  0  0  0  0  0
  182.0440  179.0140  139.5040 C   0  0  0  0  0  2  0  0  0  0  0  0
  184.2280  180.1720  139.1310 O   0  0  0  0  0  1  0  0  0  0  0  0
  182.8460  180.1710  138.9970 C   0  0  0  0  0  0  0  0  0  0  0  0
  182.2700  181.1350  138.4280 O   0  0  0  0  0  0  0  0  0  0  0  0
  1  5  1  0  0  0  0
  2 14  1  6  0  0  0
  2  6  1  0  0  0  0
  3  8  1  0  0  0  0
  4 10  1  1  0  0  0
  4 18  1  0  0  0  0
  5 11  1  1  0  0  0
  5  6  1  0  0  0  0
  6 11  1  6  0  0  0
  8  1  2  0  0  0  0
  8  2  1  0  0  0  0
  9  7  2  0  0  0  0
 10 17  2  0  0  0  0
 12 19  1  0  0  0  0
 12  3  1  0  0  0  0
 13  1  1  0  0  0  0
 15 16  1  0  0  0  0
 15  4  1  0  0  0  0
 16 12  2  0  0  0  0
 17  9  1  0  0  0  0
 18  3  2  0  0  0  0
 18  7  1  0  0  0  0
 19 13  2  0  0  0  0
 20 21  2  0  0  0  0
 20 24  1  0  0  0  0
 21 23  1  0  0  0  0
 22 25  1  0  0  0  0
 22 16  1  0  0  0  0
 23 25  2  0  0  0  0
 24 22  2  0  0  0  0
 26 20  1  0  0  0  0
 27 17  1  0  0  0  0
 28 27  1  0  0  0  0
 30 29  1  6  0  0  0
 30 28  1  0  0  0  0
 31 30  1  0  0  0  0
 33 32  1  0  0  0  0
 33 31  1  0  0  0  0
 34 33  2  0  0  0  0
M  END
>  <MODEL>
2

>  <REMARK>
 VINA RESULT:     -10.9      2.103      2.966
  Name = 
  6 active torsions:
  status: ('A' for Active; 'I' for Inactive)
    1  A    between atoms: C_3  and  C_13
    2  A    between atoms: C_3  and  C_29
    3  A    between atoms: C_12  and  C_28
    4  A    between atoms: C_13  and  C_33
    5  A    between atoms: C_20  and  C_22
    6  A    between atoms: C_22  and  C_33
                            x       y       z     vdW  Elec       q    Type
                         _______ _______ _______ _____ _____    ______ ____

>  <TORSDO>
F 6

$$$$
=
 OpenBabel10262419133D

 34 39  0  0  1  0  0  0  0  0999 V2000
  189.4350  176.9180  146.1280 C   0  0  0  0  0  0  0  0  0  0  0  0
  191.2750  176.5270  144.7350 C   0  0  2  0  0  3  0  0  0  0  0  0
  188.9600  177.3720  143.7740 C   0  0  0  0  0  0  0  0  0  0  0  0
  188.3550  177.8540  141.4570 C   0  0  1  0  0  3  0  0  0  0  0  0
  190.5040  176.5340  147.0810 C   0  0  1  0  0  3  0  0  0  0  0  0
  191.7170  176.2770  146.1880 C   0  0  2  0  0  3  0  0  0  0  0  0
  190.8210  177.5250  142.0650 C   0  0  0  0  0  3  0  0  0  0  0  0
  189.8460  176.9650  144.8150 C   0  0  0  0  0  0  0  0  0  0  0  0
  191.0240  177.4020  140.5800 C   0  0  0  0  0  3  0  0  0  0  0  0
  188.6730  177.9100  140.1650 C   0  0  0  0  0  3  0  0  0  0  0  0
  191.6450  177.5380  147.0310 C   0  0  0  0  0  2  0  0  0  0  0  0
  187.5930  177.6400  144.1400 C   0  0  0  0  0  0  0  0  0  0  0  0
  188.1220  177.1780  146.4880 C   0  0  0  0  0  3  0  0  0  0  0  0
  191.3720  175.2030  143.9940 C   0  0  0  0  0  1  0  0  0  0  0  0
  187.0460  178.0840  141.8570 O   0  0  0  0  0  0  0  0  0  0  0  0
  186.6700  178.0040  143.2030 C   0  0  0  0  0  0  0  0  0  0  0  0
  190.0430  177.6320  139.7040 C   0  0  0  0  0  0  0  0  0  0  0  0
  189.3650  177.5230  142.4830 C   0  0  0  0  0  0  0  0  0  0  0  0
  187.2120  177.5240  145.4930 C   0  0  0  0  0  3  0  0  0  0  0  0
  182.9870  178.6880  142.6880 C   0  0  0  0  0  0  0  0  0  0  0  0
  182.5670  179.0210  143.9780 C   0  0  0  0  0  3  0  0  0  0  0  0
  185.2490  178.3220  143.5050 C   0  0  0  0  0  0  0  0  0  0  0  0
  183.4850  179.0180  145.0310 C   0  0  0  0  0  3  0  0  0  0  0  0
  184.3220  178.3480  142.4530 C   0  0  0  0  0  3  0  0  0  0  0  0
  184.8190  178.6770  144.7940 C   0  0  0  0  0  3  0  0  0  0  0  0
  182.1010  178.6980  141.6640 F   0  0  0  0  0  0  0  0  0  0  0  0
  190.3190  177.5210  138.2460 C   0  0  0  0  0  2  0  0  0  0  0  0
  189.4170  178.4680  137.4710 C   0  0  0  0  0  2  0  0  0  0  0  0
  189.1930  177.4770  135.1930 C   0  0  0  0  0  1  0  0  0  0  0  0
  188.5080  177.6900  136.5320 C   0  0  2  0  0  3  0  0  0  0  0  0
  187.1370  178.3530  136.3570 C   0  0  0  0  0  2  0  0  0  0  0  0
  185.7770  178.8130  138.4040 O   0  0  0  0  0  1  0  0  0  0  0  0
  186.1430  177.9330  137.3930 C   0  0  0  0  0  0  0  0  0  0  0  0
  185.6200  176.7890  137.3370 O   0  0  0  0  0  0  0  0  0  0  0  0
  1 13  1  0  0  0  0
  1  5  1  0  0  0  0
  2 14  1  6  0  0  0
  2  8  1  0  0  0  0
  2  6  1  0  0  0  0
  3 12  1  0  0  0  0
  3  8  1  0  0  0  0
  4 10  1  6  0  0  0
  4 15  1  0  0  0  0
  4 18  1  0  0  0  0
  5 11  1  1  0  0  0
  6 11  1  1  0  0  0
  6  5  1  0  0  0  0
  7 18  1  0  0  0  0
  8  1  2  0  0  0  0
  9  7  2  0  0  0  0
 12 19  1  0  0  0  0
 15 16  1  0  0  0  0
 16 22  1  0  0  0  0
 16 12  2  0  0  0  0
 17 10  2  0  0  0  0
 17  9  1  0  0  0  0
 18  3  2  0  0  0  0
 19 13  2  0  0  0  0
 20 21  1  0  0  0  0
 21 23  2  0  0  0  0
 22 25  2  0  0  0  0
 24 20  2  0  0  0  0
 24 22  1  0  0  0  0
 25 23  1  0  0  0  0
 26 20  1  0  0  0  0
 27 17  1  0  0  0  0
 28 27  1  0  0  0  0
 30 29  1  6  0  0  0
 30 28  1  0  0  0  0
 31 30  1  0  0  0  0
 31 33  1  0  0  0  0
 33 32  1  0  0  0  0
 34 33  2  0  0  0  0
M  END
>  <MODEL>
3

>  <REMARK>
 VINA RESULT:     -10.4      2.614      6.343
  Name = 
  6 active torsions:
  status: ('A' for Active; 'I' for Inactive)
    1  A    between atoms: C_3  and  C_13
    2  A    between atoms: C_3  and  C_29
    3  A    between atoms: C_12  and  C_28
    4  A    between atoms: C_13  and  C_33
    5  A    between atoms: C_20  and  C_22
    6  A    between atoms: C_22  and  C_33
                            x       y       z     vdW  Elec       q    Type
                         _______ _______ _______ _____ _____    ______ ____

>  <TORSDO>
F 6

$$$$
=
 OpenBabel10262419133D

 34 39  0  0  1  0  0  0  0  0999 V2000
  189.5020  176.8690  146.3820 C   0  0  0  0  0  0  0  0  0  0  0  0
  191.3920  176.4480  145.0670 C   0  0  2  0  0  3  0  0  0  0  0  0
  189.1230  177.2970  144.0060 C   0  0  0  0  0  0  0  0  0  0  0  0
  188.6130  177.7540  141.6620 C   0  0  1  0  0  3  0  0  0  0  0  0
  190.5300  176.4890  147.3800 C   0  0  1  0  0  3  0  0  0  0  0  0
  191.7760  176.2130  146.5390 C   0  0  2  0  0  3  0  0  0  0  0  0
  191.0510  177.4160  142.3700 C   0  0  0  0  0  3  0  0  0  0  0  0
  189.9650  176.8960  145.0860 C   0  0  0  0  0  0  0  0  0  0  0  0
  191.3110  177.2740  140.8950 C   0  0  0  0  0  3  0  0  0  0  0  0
  188.9820  177.7920  140.3820 C   0  0  0  0  0  3  0  0  0  0  0  0
  191.6800  177.4840  147.3640 C   0  0  0  0  0  2  0  0  0  0  0  0
  187.7450  177.5790  144.3140 C   0  0  0  0  0  0  0  0  0  0  0  0
  188.1790  177.1420  146.6860 C   0  0  0  0  0  3  0  0  0  0  0  0
  191.5090  175.1150  144.3460 C   0  0  0  0  0  1  0  0  0  0  0  0
  187.2910  177.9980  142.0060 O   0  0  0  0  0  0  0  0  0  0  0  0
  186.8630  177.9370  143.3370 C   0  0  0  0  0  0  0  0  0  0  0  0
  190.3670  177.4990  139.9780 C   0  0  0  0  0  0  0  0  0  0  0  0
  189.5800  177.4290  142.7300 C   0  0  0  0  0  0  0  0  0  0  0  0
  187.3100  177.4820  145.6530 C   0  0  0  0  0  3  0  0  0  0  0  0
  183.2050  178.6290  142.6720 C   0  0  0  0  0  0  0  0  0  0  0  0
  182.7390  178.9900  143.9380 C   0  0  0  0  0  3  0  0  0  0  0  0
  185.4330  178.2690  143.5800 C   0  0  0  0  0  0  0  0  0  0  0  0
  183.6170  179.0050  145.0240 C   0  0  0  0  0  3  0  0  0  0  0  0
  184.5460  178.2770  142.4940 C   0  0  0  0  0  3  0  0  0  0  0  0
  184.9570  178.6530  144.8450 C   0  0  0  0  0  3  0  0  0  0  0  0
  182.3570  178.6220  141.6150 F   0  0  0  0  0  0  0  0  0  0  0  0
  190.6990  177.3690  138.5340 C   0  0  0  0  0  2  0  0  0  0  0  0
  190.4030  175.9570  138.0560 C   0  0  0  0  0  2  0  0  0  0  0  0
  190.7160  174.7520  135.8950 C   0  0  0  0  0  1  0  0  0  0  0  0
  191.4110  175.5300  136.9990 C   0  0  2  0  0  3  0  0  0  0  0  0
  192.5800  174.7340  137.5900 C   0  0  0  0  0  2  0  0  0  0  0  0
  193.9320  176.7710  137.0710 O   0  0  0  0  0  0  0  0  0  0  0  0
  193.8450  175.5270  137.6830 C   0  0  0  0  0  0  0  0  0  0  0  0
  194.8230  175.0790  138.3350 O   0  0  0  0  0  1  0  0  0  0  0  0
  1 13  1  0  0  0  0
  1  5  1  0  0  0  0
  2 14  1  6  0  0  0
  2  8  1  0  0  0  0
  2  6  1  0  0  0  0
  3 12  1  0  0  0  0
  3  8  1  0  0  0  0
  4 10  1  6  0  0  0
  4 15  1  0  0  0  0
  4 18  1  0  0  0  0
  5 11  1  1  0  0  0
  6 11  1  1  0  0  0
  6  5  1  0  0  0  0
  7 18  1  0  0  0  0
  8  1  2  0  0  0  0
  9  7  2  0  0  0  0
 12 19  1  0  0  0  0
 15 16  1  0  0  0  0
 16 22  1  0  0  0  0
 16 12  2  0  0  0  0
 17 10  2  0  0  0  0
 17  9  1  0  0  0  0
 18  3  2  0  0  0  0
 19 13  2  0  0  0  0
 20 21  1  0  0  0  0
 21 23  2  0  0  0  0
 22 25  2  0  0  0  0
 24 20  2  0  0  0  0
 24 22  1  0  0  0  0
 25 23  1  0  0  0  0
 26 20  1  0  0  0  0
 27 17  1  0  0  0  0
 28 27  1  0  0  0  0
 30 29  1  6  0  0  0
 30 31  1  0  0  0  0
 30 28  1  0  0  0  0
 31 33  1  0  0  0  0
 32 33  2  0  0  0  0
 33 34  1  0  0  0  0
M  END
>  <MODEL>
4

>  <REMARK>
 VINA RESULT:     -10.2      2.776      7.874
  Name = 
  6 active torsions:
  status: ('A' for Active; 'I' for Inactive)
    1  A    between atoms: C_3  and  C_13
    2  A    between atoms: C_3  and  C_29
    3  A    between atoms: C_12  and  C_28
    4  A    between atoms: C_13  and  C_33
    5  A    between atoms: C_20  and  C_22
    6  A    between atoms: C_22  and  C_33
                            x       y       z     vdW  Elec       q    Type
                         _______ _______ _______ _____ _____    ______ ____

>  <TORSDO>
F 6

$$$$
=
 OpenBabel10262419133D

 34 39  0  0  1  0  0  0  0  0999 V2000
  187.6050  177.8840  147.1080 C   0  0  0  0  0  0  0  0  0  0  0  0
  189.8070  177.4240  146.4630 C   0  0  2  0  0  3  0  0  0  0  0  0
  187.9030  177.8680  144.6830 C   0  0  0  0  0  0  0  0  0  0  0  0
  188.0640  177.8740  142.2460 C   0  0  1  0  0  3  0  0  0  0  0  0
  188.3200  177.7750  148.4020 C   0  0  1  0  0  3  0  0  0  0  0  0
  189.7640  177.4780  148.0010 C   0  0  2  0  0  3  0  0  0  0  0  0
  190.2100  177.8870  143.6430 C   0  0  0  0  0  3  0  0  0  0  0  0
  188.4160  177.7350  146.0070 C   0  0  0  0  0  0  0  0  0  0  0  0
  190.8860  177.5220  142.3500 C   0  0  0  0  0  3  0  0  0  0  0  0
  188.7810  177.7290  141.1320 C   0  0  0  0  0  3  0  0  0  0  0  0
  189.3840  178.8560  148.5140 C   0  0  0  0  0  2  0  0  0  0  0  0
  186.4830  178.0700  144.5440 C   0  0  0  0  0  0  0  0  0  0  0  0
  186.2390  178.0820  146.9830 C   0  0  0  0  0  3  0  0  0  0  0  0
  190.1790  176.0050  146.0660 C   0  0  0  0  0  1  0  0  0  0  0  0
  186.6900  178.0490  142.1640 O   0  0  0  0  0  0  0  0  0  0  0  0
  185.9020  178.1750  143.3140 C   0  0  0  0  0  0  0  0  0  0  0  0
  190.2340  177.5020  141.1850 C   0  0  0  0  0  0  0  0  0  0  0  0
  188.6980  177.8240  143.5790 C   0  0  0  0  0  0  0  0  0  0  0  0
  185.6890  178.1600  145.7070 C   0  0  0  0  0  3  0  0  0  0  0  0
  182.5850  178.5270  141.5330 C   0  0  0  0  0  0  0  0  0  0  0  0
  181.7400  178.9390  142.5650 C   0  0  0  0  0  3  0  0  0  0  0  0
  184.4510  178.4090  143.0900 C   0  0  0  0  0  0  0  0  0  0  0  0
  182.2460  179.0990  143.8570 C   0  0  0  0  0  3  0  0  0  0  0  0
  183.9340  178.2700  141.7930 C   0  0  0  0  0  3  0  0  0  0  0  0
  183.5950  178.8420  144.1160 C   0  0  0  0  0  3  0  0  0  0  0  0
  182.0990  178.3790  140.2770 F   0  0  0  0  0  0  0  0  0  0  0  0
  190.9700  177.1610  139.9370 C   0  0  0  0  0  2  0  0  0  0  0  0
  190.1520  176.1940  139.0970 C   0  0  0  0  0  2  0  0  0  0  0  0
  191.9590  176.3810  137.3890 C   0  0  0  0  0  1  0  0  0  0  0  0
  190.4570  176.3820  137.6180 C   0  0  2  0  0  3  0  0  0  0  0  0
  189.8060  177.6430  137.0390 C   0  0  0  0  0  2  0  0  0  0  0  0
  187.7060  178.6300  137.9680 O   0  0  0  0  0  1  0  0  0  0  0  0
  188.3170  177.6580  137.1870 C   0  0  0  0  0  0  0  0  0  0  0  0
  187.6160  176.8040  136.5850 O   0  0  0  0  0  0  0  0  0  0  0  0
  1  5  1  0  0  0  0
  2 14  1  1  0  0  0
  2  6  1  0  0  0  0
  3  8  1  0  0  0  0
  4 10  1  1  0  0  0
  4 18  1  0  0  0  0
  5 11  1  6  0  0  0
  6  5  1  0  0  0  0
  6 11  1  6  0  0  0
  8  2  1  0  0  0  0
  8  1  2  0  0  0  0
  9  7  2  0  0  0  0
 10 17  2  0  0  0  0
 12  3  1  0  0  0  0
 12 19  1  0  0  0  0
 13  1  1  0  0  0  0
 15  4  1  0  0  0  0
 15 16  1  0  0  0  0
 16 12  2  0  0  0  0
 17  9  1  0  0  0  0
 18  7  1  0  0  0  0
 18  3  2  0  0  0  0
 19 13  2  0  0  0  0
 20 24  2  0  0  0  0
 20 21  1  0  0  0  0
 21 23  2  0  0  0  0
 22 16  1  0  0  0  0
 22 25  2  0  0  0  0
 23 25  1  0  0  0  0
 24 22  1  0  0  0  0
 26 20  1  0  0  0  0
 27 17  1  0  0  0  0
 28 27  1  0  0  0  0
 30 29  1  1  0  0  0
 30 28  1  0  0  0  0
 31 33  1  0  0  0  0
 31 30  1  0  0  0  0
 33 32  1  0  0  0  0
 34 33  2  0  0  0  0
M  END
>  <MODEL>
5

>  <REMARK>
 VINA RESULT:     -10.0      2.519      6.795
  Name = 
  6 active torsions:
  status: ('A' for Active; 'I' for Inactive)
    1  A    between atoms: C_3  and  C_13
    2  A    between atoms: C_3  and  C_29
    3  A    between atoms: C_12  and  C_28
    4  A    between atoms: C_13  and  C_33
    5  A    between atoms: C_20  and  C_22
    6  A    between atoms: C_22  and  C_33
                            x       y       z     vdW  Elec       q    Type
                         _______ _______ _______ _____ _____    ______ ____

>  <TORSDO>
F 6

$$$$
=
 OpenBabel10262419133D

 34 39  0  0  1  0  0  0  0  0999 V2000
  181.4520  178.7410  142.4750 C   0  0  0  0  0  0  0  0  0  0  0  0
  181.6160  178.8120  140.1410 C   0  0  2  0  0  3  0  0  0  0  0  0
  183.7530  178.5390  141.6760 C   0  0  0  0  0  0  0  0  0  0  0  0
  186.0930  178.3350  141.0100 C   0  0  0  0  0  0  0  0  0  0  0  0
  180.0380  178.8310  142.0390 C   0  0  1  0  0  3  0  0  0  0  0  0
  180.1240  178.8760  140.5150 C   0  0  2  0  0  3  0  0  0  0  0  0
  184.2610  178.0940  139.2370 C   0  0  0  0  0  2  0  0  0  0  0  0
  182.3540  178.6860  141.4370 C   0  0  0  0  0  0  0  0  0  0  0  0
  185.3880  178.2580  138.2540 C   0  0  0  0  0  3  0  0  0  0  0  0
  187.0280  178.2890  140.0620 C   0  0  0  0  0  3  0  0  0  0  0  0
  179.6570  177.6120  141.2140 C   0  0  0  0  0  2  0  0  0  0  0  0
  184.1910  178.5470  143.0490 C   0  0  0  0  0  0  0  0  0  0  0  0
  181.8650  178.7460  143.7970 C   0  0  0  0  0  3  0  0  0  0  0  0
  181.9740  180.1260  139.4660 C   0  0  0  0  0  1  0  0  0  0  0  0
  186.4670  178.3670  142.3460 O   0  0  0  0  0  0  0  0  0  0  0  0
  185.5130  178.4450  143.3680 C   0  0  0  0  0  0  0  0  0  0  0  0
  186.6680  178.2950  138.6350 C   0  0  0  0  0  0  0  0  0  0  0  0
  184.6570  178.3820  140.6700 C   0  0  0  0  0  0  0  0  0  0  0  0
  183.2270  178.6620  144.0730 C   0  0  0  0  0  3  0  0  0  0  0  0
  187.6810  177.5660  146.3390 C   0  0  0  0  0  0  0  0  0  0  0  0
  187.0350  178.2350  147.3810 C   0  0  0  0  0  3  0  0  0  0  0  0
  186.0400  178.4200  144.7580 C   0  0  0  0  0  0  0  0  0  0  0  0
  185.8860  178.9860  147.1210 C   0  0  0  0  0  3  0  0  0  0  0  0
  187.1810  177.6540  145.0360 C   0  0  0  0  0  3  0  0  0  0  0  0
  185.3880  179.0720  145.8180 C   0  0  0  0  0  3  0  0  0  0  0  0
  188.7900  176.8310  146.5900 F   0  0  0  0  0  0  0  0  0  0  0  0
  187.7360  178.4310  137.6080 C   0  0  0  0  0  2  0  0  0  0  0  0
  189.0810  178.6490  138.2800 C   0  0  0  0  0  2  0  0  0  0  0  0
  189.6870  176.9580  136.5510 C   0  0  0  0  0  1  0  0  0  0  0  0
  190.0510  177.5380  137.9070 C   0  0  2  0  0  3  0  0  0  0  0  0
  190.1310  176.4430  138.9770 C   0  0  0  0  0  2  0  0  0  0  0  0
  191.9320  177.5060  140.3470 O   0  0  0  0  0  0  0  0  0  0  0  0
  190.6670  176.9360  140.2840 C   0  0  0  0  0  0  0  0  0  0  0  0
  189.9630  176.8550  141.3240 O   0  0  0  0  0  1  0  0  0  0  0  0
  1 13  1  0  0  0  0
  2 14  1  1  0  0  0
  2  6  1  0  0  0  0
  2  8  1  0  0  0  0
  3 12  1  0  0  0  0
  4 15  1  0  0  0  0
  5 11  1  6  0  0  0
  5  1  1  0  0  0  0
  6 11  1  6  0  0  0
  6  5  1  0  0  0  0
  7 18  1  0  0  0  0
  8  3  1  0  0  0  0
  8  1  2  0  0  0  0
  9 17  2  0  0  0  0
  9  7  1  0  0  0  0
 10  4  2  0  0  0  0
 12 16  2  0  0  0  0
 12 19  1  0  0  0  0
 13 19  2  0  0  0  0
 15 16  1  0  0  0  0
 16 22  1  0  0  0  0
 17 10  1  0  0  0  0
 18  4  1  0  0  0  0
 18  3  2  0  0  0  0
 20 26  1  0  0  0  0
 20 21  1  0  0  0  0
 22 24  1  0  0  0  0
 22 25  2  0  0  0  0
 23 21  2  0  0  0  0
 24 20  2  0  0  0  0
 25 23  1  0  0  0  0
 27 28  1  0  0  0  0
 27 17  1  0  0  0  0
 30 29  1  6  0  0  0
 30 28  1  0  0  0  0
 30 31  1  0  0  0  0
 31 33  1  0  0  0  0
 33 32  2  0  0  0  0
 33 34  1  0  0  0  0
M  END
>  <MODEL>
6

>  <REMARK>
 VINA RESULT:      -9.5      3.183      8.931
  Name = 
  6 active torsions:
  status: ('A' for Active; 'I' for Inactive)
    1  A    between atoms: C_3  and  C_13
    2  A    between atoms: C_3  and  C_29
    3  A    between atoms: C_12  and  C_28
    4  A    between atoms: C_13  and  C_33
    5  A    between atoms: C_20  and  C_22
    6  A    between atoms: C_22  and  C_33
                            x       y       z     vdW  Elec       q    Type
                         _______ _______ _______ _____ _____    ______ ____

>  <TORSDO>
F 6

$$$$
=
 OpenBabel10262419133D

 34 39  0  0  1  0  0  0  0  0999 V2000
  188.1860  177.3300  145.2270 C   0  0  0  0  0  0  0  0  0  0  0  0
  190.0850  177.0070  143.8970 C   0  0  2  0  0  3  0  0  0  0  0  0
  187.7730  177.7590  142.8560 C   0  0  0  0  0  0  0  0  0  0  0  0
  187.2270  178.2100  140.5190 C   0  0  1  0  0  3  0  0  0  0  0  0
  189.2360  176.9900  146.2160 C   0  0  1  0  0  3  0  0  0  0  0  0
  190.4880  176.7780  145.3650 C   0  0  2  0  0  3  0  0  0  0  0  0
  189.6820  177.9790  141.2100 C   0  0  0  0  0  3  0  0  0  0  0  0
  188.6380  177.3890  143.9280 C   0  0  0  0  0  0  0  0  0  0  0  0
  189.9400  177.8600  139.7330 C   0  0  0  0  0  3  0  0  0  0  0  0
  187.5860  178.2750  139.2380 C   0  0  0  0  0  3  0  0  0  0  0  0
  190.3390  178.0380  146.2010 C   0  0  0  0  0  2  0  0  0  0  0  0
  186.3840  177.9750  143.1750 C   0  0  0  0  0  0  0  0  0  0  0  0
  186.8530  177.5400  145.5410 C   0  0  0  0  0  3  0  0  0  0  0  0
  190.2580  175.6860  143.1650 C   0  0  0  0  0  1  0  0  0  0  0  0
  185.8980  178.3900  140.8730 O   0  0  0  0  0  0  0  0  0  0  0  0
  185.4810  178.3000  142.2060 C   0  0  0  0  0  0  0  0  0  0  0  0
  188.9800  178.0490  138.8230 C   0  0  0  0  0  0  0  0  0  0  0  0
  188.2150  177.9210  141.5790 C   0  0  0  0  0  0  0  0  0  0  0  0
  185.9640  177.8470  144.5160 C   0  0  0  0  0  3  0  0  0  0  0  0
  181.7820  178.7700  141.5760 C   0  0  0  0  0  0  0  0  0  0  0  0
  181.3160  179.1520  142.8350 C   0  0  0  0  0  3  0  0  0  0  0  0
  184.0390  178.5630  142.4600 C   0  0  0  0  0  0  0  0  0  0  0  0
  182.2070  179.2550  143.9060 C   0  0  0  0  0  3  0  0  0  0  0  0
  183.1370  178.4830  141.3880 C   0  0  0  0  0  3  0  0  0  0  0  0
  183.5620  178.9680  143.7170 C   0  0  0  0  0  3  0  0  0  0  0  0
  180.9210  178.6780  140.5340 F   0  0  0  0  0  0  0  0  0  0  0  0
  189.3090  177.9450  137.3760 C   0  0  0  0  0  2  0  0  0  0  0  0
  189.6720  176.5120  137.0240 C   0  0  0  0  0  2  0  0  0  0  0  0
  190.4170  176.0420  134.6920 C   0  0  0  0  0  1  0  0  0  0  0  0
  190.8610  176.4800  136.0770 C   0  0  2  0  0  3  0  0  0  0  0  0
  192.0050  175.6030  136.5980 C   0  0  0  0  0  2  0  0  0  0  0  0
  194.2510  176.7000  136.6340 O   0  0  0  0  0  0  0  0  0  0  0  0
  193.0730  176.3820  137.2980 C   0  0  0  0  0  0  0  0  0  0  0  0
  192.8970  176.7710  138.4820 O   0  0  0  0  0  1  0  0  0  0  0  0
  1 13  1  0  0  0  0
  1  5  1  0  0  0  0
  2 14  1  6  0  0  0
  2  8  1  0  0  0  0
  2  6  1  0  0  0  0
  3 12  1  0  0  0  0
  3  8  1  0  0  0  0
  4 10  1  6  0  0  0
  4 15  1  0  0  0  0
  4 18  1  0  0  0  0
  5 11  1  1  0  0  0
  6 11  1  1  0  0  0
  6  5  1  0  0  0  0
  7 18  1  0  0  0  0
  8  1  2  0  0  0  0
  9  7  2  0  0  0  0
 12 19  1  0  0  0  0
 15 16  1  0  0  0  0
 16 22  1  0  0  0  0
 16 12  2  0  0  0  0
 17 10  2  0  0  0  0
 17  9  1  0  0  0  0
 18  3  2  0  0  0  0
 19 13  2  0  0  0  0
 20 21  1  0  0  0  0
 21 23  2  0  0  0  0
 22 25  2  0  0  0  0
 24 20  2  0  0  0  0
 24 22  1  0  0  0  0
 25 23  1  0  0  0  0
 26 20  1  0  0  0  0
 27 17  1  0  0  0  0
 28 27  1  0  0  0  0
 30 29  1  6  0  0  0
 30 31  1  0  0  0  0
 30 28  1  0  0  0  0
 31 33  1  0  0  0  0
 32 33  2  0  0  0  0
 33 34  1  0  0  0  0
M  END
>  <MODEL>
7

>  <REMARK>
 VINA RESULT:      -9.5      2.771      7.954
  Name = 
  6 active torsions:
  status: ('A' for Active; 'I' for Inactive)
    1  A    between atoms: C_3  and  C_13
    2  A    between atoms: C_3  and  C_29
    3  A    between atoms: C_12  and  C_28
    4  A    between atoms: C_13  and  C_33
    5  A    between atoms: C_20  and  C_22
    6  A    between atoms: C_22  and  C_33
                            x       y       z     vdW  Elec       q    Type
                         _______ _______ _______ _____ _____    ______ ____

>  <TORSDO>
F 6

$$$$
=
 OpenBabel10262419133D

 34 39  0  0  1  0  0  0  0  0999 V2000
  180.2930  179.2660  140.7960 C   0  0  0  0  0  0  0  0  0  0  0  0
  180.4400  179.4390  143.1260 C   0  0  2  0  0  3  0  0  0  0  0  0
  182.5360  178.7970  141.6460 C   0  0  0  0  0  0  0  0  0  0  0  0
  184.8160  178.2990  142.3650 C   0  0  1  0  0  3  0  0  0  0  0  0
  178.9320  179.7030  141.1890 C   0  0  1  0  0  3  0  0  0  0  0  0
  179.0090  179.8250  142.7100 C   0  0  2  0  0  3  0  0  0  0  0  0
  183.1800  179.3520  144.0300 C   0  0  0  0  0  3  0  0  0  0  0  0
  181.1700  179.1510  141.8510 C   0  0  0  0  0  0  0  0  0  0  0  0
  184.1940  178.9510  145.0650 C   0  0  0  0  0  3  0  0  0  0  0  0
  185.7190  178.1530  143.3340 C   0  0  0  0  0  3  0  0  0  0  0  0
  178.9830  181.0740  141.8460 C   0  0  0  0  0  2  0  0  0  0  0  0
  182.9380  178.4720  140.3010 C   0  0  0  0  0  0  0  0  0  0  0  0
  180.6730  178.9590  139.5000 C   0  0  0  0  0  3  0  0  0  0  0  0
  180.3460  178.1770  143.9670 C   0  0  0  0  0  1  0  0  0  0  0  0
  185.1490  177.9780  141.0570 O   0  0  0  0  0  0  0  0  0  0  0  0
  184.2170  178.0910  140.0190 C   0  0  0  0  0  0  0  0  0  0  0  0
  185.3870  178.4460  144.7380 C   0  0  0  0  0  0  0  0  0  0  0  0
  183.4480  178.7720  142.6570 C   0  0  0  0  0  0  0  0  0  0  0  0
  181.9840  178.5540  139.2650 C   0  0  0  0  0  3  0  0  0  0  0  0
  186.3070  178.2020  136.8700 C   0  0  0  0  0  0  0  0  0  0  0  0
  185.6480  177.2840  136.0480 C   0  0  0  0  0  3  0  0  0  0  0  0
  184.7130  177.7650  138.6560 C   0  0  0  0  0  0  0  0  0  0  0  0
  184.5160  176.6150  136.5190 C   0  0  0  0  0  3  0  0  0  0  0  0
  185.8370  178.4450  138.1640 C   0  0  0  0  0  3  0  0  0  0  0  0
  184.0480  176.8590  137.8130 C   0  0  0  0  0  3  0  0  0  0  0  0
  187.4000  178.8580  136.4120 F   0  0  0  0  0  0  0  0  0  0  0  0
  186.3560  178.0960  145.8100 C   0  0  0  0  0  2  0  0  0  0  0  0
  187.5450  177.3550  145.2190 C   0  0  0  0  0  2  0  0  0  0  0  0
  188.2480  177.8900  147.5500 C   0  0  0  0  0  1  0  0  0  0  0  0
  188.6680  177.2480  146.2390 C   0  0  2  0  0  3  0  0  0  0  0  0
  189.9860  177.8390  145.7270 C   0  0  0  0  0  2  0  0  0  0  0  0
  191.6560  176.8400  147.2970 O   0  0  0  0  0  1  0  0  0  0  0  0
  191.1690  176.9650  146.0020 C   0  0  0  0  0  0  0  0  0  0  0  0
  191.7100  176.3230  145.0640 O   0  0  0  0  0  0  0  0  0  0  0  0
  1  5  1  0  0  0  0
  1  8  2  0  0  0  0
  2 14  1  1  0  0  0
  3  8  1  0  0  0  0
  3 18  2  0  0  0  0
  4 18  1  0  0  0  0
  4 10  1  1  0  0  0
  5 11  1  6  0  0  0
  5  6  1  0  0  0  0
  6 11  1  6  0  0  0
  6  2  1  0  0  0  0
  7  9  2  0  0  0  0
  8  2  1  0  0  0  0
 10 17  2  0  0  0  0
 12  3  1  0  0  0  0
 13  1  1  0  0  0  0
 15  4  1  0  0  0  0
 16 12  2  0  0  0  0
 16 15  1  0  0  0  0
 17  9  1  0  0  0  0
 17 27  1  0  0  0  0
 18  7  1  0  0  0  0
 19 13  2  0  0  0  0
 19 12  1  0  0  0  0
 20 24  1  0  0  0  0
 21 23  1  0  0  0  0
 21 20  2  0  0  0  0
 22 16  1  0  0  0  0
 23 25  2  0  0  0  0
 24 22  2  0  0  0  0
 25 22  1  0  0  0  0
 26 20  1  0  0  0  0
 28 27  1  0  0  0  0
 28 30  1  0  0  0  0
 30 29  1  1  0  0  0
 31 33  1  0  0  0  0
 31 30  1  0  0  0  0
 33 32  1  0  0  0  0
 34 33  2  0  0  0  0
M  END
>  <MODEL>
8

>  <REMARK>
 VINA RESULT:      -9.4      2.756      8.354
  Name = 
  6 active torsions:
  status: ('A' for Active; 'I' for Inactive)
    1  A    between atoms: C_3  and  C_13
    2  A    between atoms: C_3  and  C_29
    3  A    between atoms: C_12  and  C_28
    4  A    between atoms: C_13  and  C_33
    5  A    between atoms: C_20  and  C_22
    6  A    between atoms: C_22  and  C_33
                            x       y       z     vdW  Elec       q    Type
                         _______ _______ _______ _____ _____    ______ ____

>  <TORSDO>
F 6

$$$$
=
 OpenBabel10262419133D

 34 39  0  0  1  0  0  0  0  0999 V2000
  184.8960  178.3910  144.2660 C   0  0  0  0  0  0  0  0  0  0  0  0
  187.1390  177.8450  144.6560 C   0  0  2  0  0  3  0  0  0  0  0  0
  186.2300  178.3270  142.2190 C   0  0  0  0  0  0  0  0  0  0  0  0
  187.4470  178.2900  140.1020 C   0  0  1  0  0  3  0  0  0  0  0  0
  184.9640  178.2770  145.7430 C   0  0  1  0  0  3  0  0  0  0  0  0
  186.4250  177.9230  146.0170 C   0  0  2  0  0  3  0  0  0  0  0  0
  188.7580  178.2510  142.3010 C   0  0  0  0  0  3  0  0  0  0  0  0
  186.1030  178.1970  143.6340 C   0  0  0  0  0  0  0  0  0  0  0  0
  189.9200  177.8430  141.4370 C   0  0  0  0  0  3  0  0  0  0  0  0
  188.5740  178.1040  139.4180 C   0  0  0  0  0  3  0  0  0  0  0  0
  185.9120  179.3210  146.3130 C   0  0  0  0  0  2  0  0  0  0  0  0
  185.0240  178.5750  141.4700 C   0  0  0  0  0  0  0  0  0  0  0  0
  183.7340  178.6330  143.5530 C   0  0  0  0  0  3  0  0  0  0  0  0
  187.5940  176.4080  144.4610 C   0  0  0  0  0  1  0  0  0  0  0  0
  186.2560  178.5110  139.4240 O   0  0  0  0  0  0  0  0  0  0  0  0
  185.0490  178.6820  140.1100 C   0  0  0  0  0  0  0  0  0  0  0  0
  189.8470  177.8270  140.1040 C   0  0  0  0  0  0  0  0  0  0  0  0
  187.4280  178.2390  141.5780 C   0  0  0  0  0  0  0  0  0  0  0  0
  183.8040  178.7120  142.1650 C   0  0  0  0  0  3  0  0  0  0  0  0
  182.3000  180.5950  138.3540 C   0  0  0  0  0  0  0  0  0  0  0  0
  181.5430  179.5670  137.7870 C   0  0  0  0  0  3  0  0  0  0  0  0
  183.8540  178.9630  139.2710 C   0  0  0  0  0  0  0  0  0  0  0  0
  181.9280  178.2370  137.9690 C   0  0  0  0  0  3  0  0  0  0  0  0
  183.4450  180.2930  139.0970 C   0  0  0  0  0  3  0  0  0  0  0  0
  183.0730  177.9370  138.7120 C   0  0  0  0  0  3  0  0  0  0  0  0
  181.9230  181.8850  138.1860 F   0  0  0  0  0  0  0  0  0  0  0  0
  191.0430  177.4410  139.3070 C   0  0  0  0  0  2  0  0  0  0  0  0
  190.8480  176.0570  138.7100 C   0  0  0  0  0  2  0  0  0  0  0  0
  189.6240  175.7350  136.5620 C   0  0  0  0  0  1  0  0  0  0  0  0
  190.9530  176.1110  137.1930 C   0  0  2  0  0  3  0  0  0  0  0  0
  192.0930  175.2410  136.6510 C   0  0  0  0  0  2  0  0  0  0  0  0
  194.1330  174.6840  137.9850 O   0  0  0  0  0  1  0  0  0  0  0  0
  193.4300  175.6030  137.2170 C   0  0  0  0  0  0  0  0  0  0  0  0
  193.9290  176.7340  136.9800 O   0  0  0  0  0  0  0  0  0  0  0  0
  1  5  1  0  0  0  0
  2 14  1  6  0  0  0
  2  6  1  0  0  0  0
  3  8  1  0  0  0  0
  4 10  1  6  0  0  0
  4 18  1  0  0  0  0
  5  6  1  0  0  0  0
  5 11  1  1  0  0  0
  6 11  1  1  0  0  0
  8  1  2  0  0  0  0
  8  2  1  0  0  0  0
  9  7  2  0  0  0  0
 10 17  2  0  0  0  0
 12 19  1  0  0  0  0
 12  3  1  0  0  0  0
 13  1  1  0  0  0  0
 15  4  1  0  0  0  0
 15 16  1  0  0  0  0
 16 12  2  0  0  0  0
 17  9  1  0  0  0  0
 18  3  2  0  0  0  0
 18  7  1  0  0  0  0
 19 13  2  0  0  0  0
 20 24  1  0  0  0  0
 21 23  1  0  0  0  0
 21 20  2  0  0  0  0
 22 16  1  0  0  0  0
 23 25  2  0  0  0  0
 24 22  2  0  0  0  0
 25 22  1  0  0  0  0
 26 20  1  0  0  0  0
 27 17  1  0  0  0  0
 28 27  1  0  0  0  0
 30 29  1  6  0  0  0
 30 28  1  0  0  0  0
 31 30  1  0  0  0  0
 31 33  1  0  0  0  0
 33 32  1  0  0  0  0
 34 33  2  0  0  0  0
M  END
>  <MODEL>
9

>  <REMARK>
 VINA RESULT:      -9.3      3.330      8.204
  Name = 
  6 active torsions:
  status: ('A' for Active; 'I' for Inactive)
    1  A    between atoms: C_3  and  C_13
    2  A    between atoms: C_3  and  C_29
    3  A    between atoms: C_12  and  C_28
    4  A    between atoms: C_13  and  C_33
    5  A    between atoms: C_20  and  C_22
    6  A    between atoms: C_22  and  C_33
                            x       y       z     vdW  Elec       q    Type
                         _______ _______ _______ _____ _____    ______ ____

>  <TORSDO>
F 6

$$$$
