=
 OpenBabel10262421083D

 32 38  0  0  1  0  0  0  0  0999 V2000
  187.4120  178.4520  141.6690 C   0  0  0  0  0  0  0  0  0  0  0  0
  188.2760  177.7750  139.4800 C   0  0  0  0  0  0  0  0  0  0  0  0
  186.3520  178.9470  142.4430 C   0  0  0  0  0  3  0  0  0  0  0  0
  187.2230  178.2610  140.2790 C   0  0  0  0  0  0  0  0  0  0  0  0
  188.1290  177.7130  137.9690 C   0  0  1  0  0  3  0  0  0  0  0  0
  193.0150  176.6710  138.5820 C   0  0  0  0  0  2  0  0  0  0  0  0
  189.5010  177.4130  140.0830 C   0  0  0  0  0  0  0  0  0  0  0  0
  191.2300  175.6480  137.0870 C   0  0  0  0  0  2  0  0  0  0  0  0
  190.3460  176.6900  137.7790 C   0  0  1  0  0  3  0  0  0  0  0  0
  185.9660  178.5170  139.7030 C   0  0  0  0  0  0  0  0  0  0  0  0
  188.8820  176.5090  137.4150 C   0  0  0  0  0  2  0  0  0  0  0  0
  185.7240  178.2350  138.2820 C   0  0  0  0  0  3  0  0  0  0  0  0
  184.9200  179.0020  140.4930 C   0  0  0  0  0  3  0  0  0  0  0  0
  189.6640  177.5760  141.4620 C   0  0  0  0  0  3  0  0  0  0  0  0
  188.6490  178.1240  142.2570 C   0  0  0  0  0  0  0  0  0  0  0  0
  190.5540  176.6570  139.3000 C   0  0  1  0  0  3  0  0  0  0  0  0
  186.6970  177.8200  137.4670 C   0  0  0  0  0  0  0  0  0  0  0  0
  185.1140  179.2260  141.8570 C   0  0  0  0  0  3  0  0  0  0  0  0
  192.5700  175.4250  137.8100 C   0  0  0  0  0  2  0  0  0  0  0  0
  191.9900  177.0790  139.6530 C   0  0  0  0  0  2  0  0  0  0  0  0
  190.3920  177.6640  145.5060 N   0  0  0  0  0  0  0  0  0  0  0  0
  191.6300  176.9120  145.6530 C   0  0  0  0  0  1  0  0  0  0  0  0
  189.2980  176.7240  145.7400 C   0  0  2  0  0  3  0  0  0  0  0  0
  188.8730  178.3000  143.7350 C   0  0  1  0  0  3  0  0  0  0  0  0
  187.8690  177.1420  144.6900 S   0  0  0  0  0  0  0  0  0  0  0  0
  190.3240  178.0920  144.1150 C   0  0  1  0  0  3  0  0  0  0  0  0
  191.0820  179.3970  143.9330 C   0  0  0  0  0  1  0  0  0  0  0  0
  188.9760  178.1930  147.7150 C   0  0  0  0  0  2  0  0  0  0  0  0
  188.8740  176.7700  147.2010 C   0  0  0  0  0  3  0  0  0  0  0  0
  187.6260  177.6200  147.3440 C   0  0  0  0  0  2  0  0  0  0  0  0
  186.3720  177.6620  136.0810 N   0  0  0  0  0  2  0  0  0  0  0  0
  185.2610  176.8640  135.5890 C   0  0  0  0  0  1  0  0  0  0  0  0
  1 15  1  0  0  0  0
  1  3  2  0  0  0  0
  2  7  2  0  0  0  0
  2  4  1  0  0  0  0
  4  1  1  0  0  0  0
  5 11  1  1  0  0  0
  5  2  1  0  0  0  0
  6 20  1  0  0  0  0
  7 14  1  0  0  0  0
  8 19  1  0  0  0  0
  9  8  1  6  0  0  0
  9 16  1  0  0  0  0
 10  4  2  0  0  0  0
 10 13  1  0  0  0  0
 11  9  1  0  0  0  0
 12 10  1  0  0  0  0
 13 18  2  0  0  0  0
 14 15  2  0  0  0  0
 16 20  1  6  0  0  0
 16  7  1  0  0  0  0
 17  5  1  0  0  0  0
 17 12  2  0  0  0  0
 18  3  1  0  0  0  0
 19  6  1  0  0  0  0
 21 22  1  0  0  0  0
 21 23  1  0  0  0  0
 23 29  1  1  0  0  0
 24 15  1  6  0  0  0
 24 26  1  0  0  0  0
 24 25  1  0  0  0  0
 25 23  1  0  0  0  0
 26 27  1  1  0  0  0
 26 21  1  0  0  0  0
 29 30  1  0  0  0  0
 29 28  1  0  0  0  0
 30 28  1  0  0  0  0
 31 17  1  0  0  0  0
 32 31  1  0  0  0  0
M  END
>  <MODEL>
1

>  <REMARK>
 VINA RESULT:     -10.8      0.000      0.000
  Name = 
  3 active torsions:
  status: ('A' for Active; 'I' for Inactive)
    1  A    between atoms: N_13  and  C_29
    2  A    between atoms: C_15  and  C_19
    3  A    between atoms: C_16  and  C_27
                            x       y       z     vdW  Elec       q    Type
                         _______ _______ _______ _____ _____    ______ ____

>  <TORSDO>
F 3

$$$$
=
 OpenBabel10262421083D

 32 38  0  0  1  0  0  0  0  0999 V2000
  184.9790  178.5270  143.3550 C   0  0  0  0  0  0  0  0  0  0  0  0
  187.3060  177.8930  143.7800 C   0  0  0  0  0  0  0  0  0  0  0  0
  183.7050  178.8330  143.8570 C   0  0  0  0  0  3  0  0  0  0  0  0
  186.0220  178.2140  144.2610 C   0  0  1  0  0  3  0  0  0  0  0  0
  188.3860  177.4090  144.7330 C   0  0  0  0  0  0  0  0  0  0  0  0
  190.5270  176.6090  140.2490 C   0  0  0  0  0  2  0  0  0  0  0  0
  187.5690  177.9540  142.3930 C   0  0  0  0  0  0  0  0  0  0  0  0
  191.4330  177.5700  142.4220 C   0  0  0  0  0  2  0  0  0  0  0  0
  189.9970  177.3200  142.8920 C   0  0  1  0  0  3  0  0  0  0  0  0
  185.7840  178.2660  145.6450 C   0  0  0  0  0  0  0  0  0  0  0  0
  189.7530  177.9000  144.2750 C   0  0  0  0  0  2  0  0  0  0  0  0
  186.8770  178.0370  146.6000 C   0  0  0  0  0  3  0  0  0  0  0  0
  184.5100  178.5810  146.1250 C   0  0  0  0  0  3  0  0  0  0  0  0
  186.5380  178.2960  141.5120 C   0  0  0  0  0  3  0  0  0  0  0  0
  185.2390  178.5490  141.9710 C   0  0  0  0  0  0  0  0  0  0  0  0
  188.9870  177.8640  141.8700 C   0  0  1  0  0  3  0  0  0  0  0  0
  188.1010  177.6820  146.2030 C   0  0  0  0  0  0  0  0  0  0  0  0
  183.4710  178.8540  145.2340 C   0  0  0  0  0  3  0  0  0  0  0  0
  191.5800  177.5170  140.8910 C   0  0  0  0  0  2  0  0  0  0  0  0
  189.0970  177.0910  140.5460 C   0  0  0  0  0  2  0  0  0  0  0  0
  182.3040  177.9030  139.7860 N   0  0  0  0  0  0  0  0  0  0  0  0
  181.6380  176.6120  139.6980 C   0  0  0  0  0  1  0  0  0  0  0  0
  183.3230  177.9240  138.7390 C   0  0  2  0  0  3  0  0  0  0  0  0
  184.1550  178.8950  140.9870 C   0  0  1  0  0  3  0  0  0  0  0  0
  184.7800  178.8670  139.2920 S   0  0  0  0  0  0  0  0  0  0  0  0
  182.9860  177.9370  141.0730 C   0  0  1  0  0  3  0  0  0  0  0  0
  182.0300  178.4080  142.1580 C   0  0  0  0  0  1  0  0  0  0  0  0
  182.9550  177.6300  136.3010 C   0  0  0  0  0  2  0  0  0  0  0  0
  182.7630  178.5670  137.4780 C   0  0  0  0  0  3  0  0  0  0  0  0
  181.5990  177.7450  136.9590 C   0  0  0  0  0  2  0  0  0  0  0  0
  189.0670  177.3960  147.2220 N   0  0  0  0  0  2  0  0  0  0  0  0
  189.2460  178.1950  148.4230 C   0  0  0  0  0  1  0  0  0  0  0  0
  1  3  2  0  0  0  0
  2  4  1  0  0  0  0
  2  5  1  0  0  0  0
  3 18  1  0  0  0  0
  4  1  1  1  0  0  0
  4 10  1  0  0  0  0
  5 17  2  0  0  0  0
  6 20  1  0  0  0  0
  6 19  1  0  0  0  0
  7  2  2  0  0  0  0
  9  8  1  6  0  0  0
  9 11  1  0  0  0  0
 10 13  1  0  0  0  0
 10 12  2  0  0  0  0
 11  5  1  0  0  0  0
 14 15  2  0  0  0  0
 14  7  1  0  0  0  0
 15  1  1  0  0  0  0
 16 20  1  6  0  0  0
 16  7  1  0  0  0  0
 16  9  1  0  0  0  0
 17 12  1  0  0  0  0
 17 31  1  0  0  0  0
 18 13  2  0  0  0  0
 19  8  1  0  0  0  0
 21 26  1  0  0  0  0
 22 21  1  0  0  0  0
 23 29  1  6  0  0  0
 23 25  1  0  0  0  0
 23 21  1  0  0  0  0
 24 26  1  0  0  0  0
 24 15  1  1  0  0  0
 25 24  1  0  0  0  0
 26 27  1  1  0  0  0
 28 30  1  0  0  0  0
 28 29  1  0  0  0  0
 30 29  1  0  0  0  0
 31 32  1  0  0  0  0
M  END
>  <MODEL>
2

>  <REMARK>
 VINA RESULT:     -10.8      2.589      7.532
  Name = 
  3 active torsions:
  status: ('A' for Active; 'I' for Inactive)
    1  A    between atoms: N_13  and  C_29
    2  A    between atoms: C_15  and  C_19
    3  A    between atoms: C_16  and  C_27
                            x       y       z     vdW  Elec       q    Type
                         _______ _______ _______ _____ _____    ______ ____

>  <TORSDO>
F 3

$$$$
=
 OpenBabel10262421083D

 32 38  0  0  1  0  0  0  0  0999 V2000
  188.1380  177.8910  141.2250 C   0  0  0  0  0  0  0  0  0  0  0  0
  188.2570  177.4630  143.6330 C   0  0  0  0  0  0  0  0  0  0  0  0
  187.3870  178.2960  140.1110 C   0  0  0  0  0  3  0  0  0  0  0  0
  187.5270  177.8770  142.5030 C   0  0  1  0  0  3  0  0  0  0  0  0
  187.5670  177.2990  144.9770 C   0  0  0  0  0  0  0  0  0  0  0  0
  192.0950  175.2980  145.8860 C   0  0  0  0  0  2  0  0  0  0  0  0
  189.6230  177.1290  143.5000 C   0  0  0  0  0  0  0  0  0  0  0  0
  190.6220  176.8650  147.2430 C   0  0  0  0  0  2  0  0  0  0  0  0
  189.7040  176.7250  146.0240 C   0  0  1  0  0  3  0  0  0  0  0  0
  186.1990  178.3170  142.6470 C   0  0  0  0  0  0  0  0  0  0  0  0
  188.5180  177.6710  146.1070 C   0  0  0  0  0  2  0  0  0  0  0  0
  185.5810  178.3990  143.9760 C   0  0  0  0  0  3  0  0  0  0  0  0
  185.4720  178.7250  141.5260 C   0  0  0  0  0  3  0  0  0  0  0  0
  190.2230  177.1780  142.2370 C   0  0  0  0  0  3  0  0  0  0  0  0
  189.4900  177.5200  141.0930 C   0  0  0  0  0  0  0  0  0  0  0  0
  190.4930  176.9280  144.7220 C   0  0  1  0  0  3  0  0  0  0  0  0
  186.2080  177.9760  145.0760 C   0  0  0  0  0  0  0  0  0  0  0  0
  186.0600  178.7060  140.2600 C   0  0  0  0  0  3  0  0  0  0  0  0
  192.0560  176.3780  146.9710 C   0  0  0  0  0  2  0  0  0  0  0  0
  191.5340  175.8100  144.5480 C   0  0  0  0  0  2  0  0  0  0  0  0
  190.8090  176.0830  137.9320 N   0  0  0  0  0  0  0  0  0  0  0  0
  190.6730  174.6800  137.5690 C   0  0  0  0  0  1  0  0  0  0  0  0
  192.0860  176.2150  138.6300 C   0  0  2  0  0  3  0  0  0  0  0  0
  190.1700  177.5420  139.7510 C   0  0  1  0  0  3  0  0  0  0  0  0
  191.9670  177.4860  139.9300 S   0  0  0  0  0  0  0  0  0  0  0  0
  189.7460  176.3760  138.8830 C   0  0  1  0  0  3  0  0  0  0  0  0
  188.4690  176.7400  138.1440 C   0  0  0  0  0  1  0  0  0  0  0  0
  194.2240  175.5100  137.5830 C   0  0  0  0  0  2  0  0  0  0  0  0
  193.1810  176.6090  137.6480 C   0  0  0  0  0  3  0  0  0  0  0  0
  193.1950  175.6380  136.4830 C   0  0  0  0  0  2  0  0  0  0  0  0
  185.4770  178.0180  146.3080 N   0  0  0  0  0  2  0  0  0  0  0  0
  185.6810  179.0170  147.3430 C   0  0  0  0  0  1  0  0  0  0  0  0
  2  5  2  0  0  0  0
  3 18  2  0  0  0  0
  3  1  1  0  0  0  0
  4  1  1  1  0  0  0
  4 10  1  0  0  0  0
  4  2  1  0  0  0  0
  5 17  1  0  0  0  0
  5 11  1  0  0  0  0
  6 19  1  0  0  0  0
  7  2  1  0  0  0  0
  7 16  1  0  0  0  0
  9 11  1  1  0  0  0
  9  8  1  0  0  0  0
 10 12  1  0  0  0  0
 12 17  2  0  0  0  0
 13 10  2  0  0  0  0
 14  7  2  0  0  0  0
 15  1  2  0  0  0  0
 15 14  1  0  0  0  0
 16 20  1  6  0  0  0
 16  9  1  0  0  0  0
 17 31  1  0  0  0  0
 18 13  1  0  0  0  0
 19  8  1  0  0  0  0
 20  6  1  0  0  0  0
 21 23  1  0  0  0  0
 21 26  1  0  0  0  0
 22 21  1  0  0  0  0
 23 29  1  6  0  0  0
 23 25  1  0  0  0  0
 24 25  1  0  0  0  0
 24 15  1  1  0  0  0
 26 27  1  6  0  0  0
 26 24  1  0  0  0  0
 28 29  1  0  0  0  0
 30 28  1  0  0  0  0
 30 29  1  0  0  0  0
 31 32  1  0  0  0  0
M  END
>  <MODEL>
3

>  <REMARK>
 VINA RESULT:     -10.8      2.189      7.117
  Name = 
  3 active torsions:
  status: ('A' for Active; 'I' for Inactive)
    1  A    between atoms: N_13  and  C_29
    2  A    between atoms: C_15  and  C_19
    3  A    between atoms: C_16  and  C_27
                            x       y       z     vdW  Elec       q    Type
                         _______ _______ _______ _____ _____    ______ ____

>  <TORSDO>
F 3

$$$$
=
 OpenBabel10262421083D

 32 38  0  0  1  0  0  0  0  0999 V2000
  183.5290  178.7900  142.1060 C   0  0  0  0  0  0  0  0  0  0  0  0
  185.9080  178.2730  141.8470 C   0  0  0  0  0  0  0  0  0  0  0  0
  182.4250  178.9860  142.9510 C   0  0  0  0  0  3  0  0  0  0  0  0
  184.7900  178.4850  142.6750 C   0  0  0  0  0  0  0  0  0  0  0  0
  187.2240  177.7970  142.4400 C   0  0  1  0  0  3  0  0  0  0  0  0
  188.1090  177.4110  137.5000 C   0  0  0  0  0  2  0  0  0  0  0  0
  185.7850  178.4360  140.4500 C   0  0  0  0  0  0  0  0  0  0  0  0
  189.5260  178.2880  139.4200 C   0  0  0  0  0  2  0  0  0  0  0  0
  188.2820  177.9210  140.2340 C   0  0  1  0  0  3  0  0  0  0  0  0
  184.9310  178.4350  144.0740 C   0  0  0  0  0  0  0  0  0  0  0  0
  188.3960  178.3980  141.6730 C   0  0  0  0  0  2  0  0  0  0  0  0
  186.2490  178.2130  144.6830 C   0  0  0  0  0  3  0  0  0  0  0  0
  183.8220  178.6410  144.8970 C   0  0  0  0  0  3  0  0  0  0  0  0
  184.5420  178.7700  139.9030 C   0  0  0  0  0  3  0  0  0  0  0  0
  183.4050  178.9140  140.7090 C   0  0  0  0  0  0  0  0  0  0  0  0
  187.0120  178.4660  139.5630 C   0  0  1  0  0  3  0  0  0  0  0  0
  187.3350  177.9600  143.9480 C   0  0  0  0  0  0  0  0  0  0  0  0
  182.5700  178.9060  144.3380 C   0  0  0  0  0  3  0  0  0  0  0  0
  189.2570  178.3400  137.9070 C   0  0  0  0  0  2  0  0  0  0  0  0
  186.7930  177.7860  138.2020 C   0  0  0  0  0  2  0  0  0  0  0  0
  180.6070  178.5640  138.2900 N   0  0  0  0  0  0  0  0  0  0  0  0
  180.5520  177.5260  137.2710 C   0  0  0  0  0  1  0  0  0  0  0  0
  181.2490  179.7240  137.6750 C   0  0  2  0  0  3  0  0  0  0  0  0
  182.0820  179.2550  140.0780 C   0  0  1  0  0  3  0  0  0  0  0  0
  182.2510  180.6190  138.9060 S   0  0  0  0  0  0  0  0  0  0  0  0
  181.4860  178.0730  139.3430 C   0  0  1  0  0  3  0  0  0  0  0  0
  180.6980  177.2180  140.3230 C   0  0  0  0  0  1  0  0  0  0  0  0
  180.7290  181.3370  135.8610 C   0  0  0  0  0  2  0  0  0  0  0  0
  180.1950  180.6660  137.1110 C   0  0  0  0  0  3  0  0  0  0  0  0
  179.7590  180.1840  135.7410 C   0  0  0  0  0  2  0  0  0  0  0  0
  188.5500  177.6690  144.6490 N   0  0  0  0  0  2  0  0  0  0  0  0
  188.6560  177.5770  146.0950 C   0  0  0  0  0  1  0  0  0  0  0  0
  1  4  1  0  0  0  0
  1  3  2  0  0  0  0
  2  5  1  0  0  0  0
  2  4  1  0  0  0  0
  3 18  1  0  0  0  0
  4 10  2  0  0  0  0
  5 11  1  6  0  0  0
  5 17  1  0  0  0  0
  6 19  1  0  0  0  0
  6 20  1  0  0  0  0
  7  2  2  0  0  0  0
  9  8  1  6  0  0  0
  9 11  1  0  0  0  0
 10 12  1  0  0  0  0
 10 13  1  0  0  0  0
 14  7  1  0  0  0  0
 14 15  2  0  0  0  0
 15  1  1  0  0  0  0
 16 20  1  6  0  0  0
 16  9  1  0  0  0  0
 16  7  1  0  0  0  0
 17 31  1  0  0  0  0
 17 12  2  0  0  0  0
 18 13  2  0  0  0  0
 19  8  1  0  0  0  0
 21 26  1  0  0  0  0
 22 21  1  0  0  0  0
 23 29  1  1  0  0  0
 23 21  1  0  0  0  0
 23 25  1  0  0  0  0
 24 15  1  6  0  0  0
 25 24  1  0  0  0  0
 26 24  1  0  0  0  0
 26 27  1  1  0  0  0
 28 29  1  0  0  0  0
 30 28  1  0  0  0  0
 30 29  1  0  0  0  0
 31 32  1  0  0  0  0
M  END
>  <MODEL>
4

>  <REMARK>
 VINA RESULT:     -10.8      3.495      8.076
  Name = 
  3 active torsions:
  status: ('A' for Active; 'I' for Inactive)
    1  A    between atoms: N_13  and  C_29
    2  A    between atoms: C_15  and  C_19
    3  A    between atoms: C_16  and  C_27
                            x       y       z     vdW  Elec       q    Type
                         _______ _______ _______ _____ _____    ______ ____

>  <TORSDO>
F 3

$$$$
=
 OpenBabel10262421083D

 32 38  0  0  1  0  0  0  0  0999 V2000
  189.7500  177.5160  142.3220 C   0  0  0  0  0  0  0  0  0  0  0  0
  188.1390  177.8040  144.1450 C   0  0  0  0  0  0  0  0  0  0  0  0
  191.0470  177.1810  141.9050 C   0  0  0  0  0  3  0  0  0  0  0  0
  189.4310  177.4620  143.7020 C   0  0  1  0  0  3  0  0  0  0  0  0
  187.8350  177.8960  145.6310 C   0  0  0  0  0  0  0  0  0  0  0  0
  183.6460  179.8030  143.5930 C   0  0  0  0  0  2  0  0  0  0  0  0
  187.1410  178.1330  143.2010 C   0  0  0  0  0  0  0  0  0  0  0  0
  184.0190  178.1740  145.5100 C   0  0  0  0  0  2  0  0  0  0  0  0
  185.4880  178.3910  145.1370 C   0  0  1  0  0  3  0  0  0  0  0  0
  190.3970  177.0250  144.6250 C   0  0  0  0  0  0  0  0  0  0  0  0
  186.4030  177.4520  145.9040 C   0  0  0  0  0  2  0  0  0  0  0  0
  190.0560  176.8720  146.0460 C   0  0  0  0  0  3  0  0  0  0  0  0
  191.6800  176.6880  144.1880 C   0  0  0  0  0  3  0  0  0  0  0  0
  187.4600  178.1520  141.8400 C   0  0  0  0  0  3  0  0  0  0  0  0
  188.7590  177.8820  141.3910 C   0  0  0  0  0  0  0  0  0  0  0  0
  185.6910  178.2560  143.6200 C   0  0  1  0  0  3  0  0  0  0  0  0
  188.8630  177.2260  146.5290 C   0  0  0  0  0  0  0  0  0  0  0  0
  192.0080  176.7750  142.8340 C   0  0  0  0  0  3  0  0  0  0  0  0
  183.0470  178.6630  144.4220 C   0  0  0  0  0  2  0  0  0  0  0  0
  184.9380  179.3740  142.8790 C   0  0  0  0  0  2  0  0  0  0  0  0
  188.5700  176.7860  137.8460 N   0  0  0  0  0  0  0  0  0  0  0  0
  187.7500  175.6720  137.3920 C   0  0  0  0  0  1  0  0  0  0  0  0
  189.8930  176.2400  138.1460 C   0  0  2  0  0  3  0  0  0  0  0  0
  189.0640  177.9310  139.9180 C   0  0  1  0  0  3  0  0  0  0  0  0
  190.6390  177.1280  139.5510 S   0  0  0  0  0  0  0  0  0  0  0  0
  187.9870  177.2560  139.0950 C   0  0  1  0  0  3  0  0  0  0  0  0
  186.8750  178.2530  138.8090 C   0  0  0  0  0  1  0  0  0  0  0  0
  191.9880  175.4430  137.0790 C   0  0  0  0  0  2  0  0  0  0  0  0
  190.8010  176.3760  136.9320 C   0  0  0  0  0  3  0  0  0  0  0  0
  190.8390  175.0630  136.1730 C   0  0  0  0  0  2  0  0  0  0  0  0
  188.6690  177.1200  147.9450 N   0  0  0  0  0  2  0  0  0  0  0  0
  188.4220  178.2530  148.8220 C   0  0  0  0  0  1  0  0  0  0  0  0
  2  5  1  0  0  0  0
  3  1  2  0  0  0  0
  3 18  1  0  0  0  0
  4  1  1  6  0  0  0
  4  2  1  0  0  0  0
  4 10  1  0  0  0  0
  5 11  1  0  0  0  0
  5 17  2  0  0  0  0
  6 19  1  0  0  0  0
  7 16  1  0  0  0  0
  7  2  2  0  0  0  0
  9  8  1  6  0  0  0
  9 11  1  0  0  0  0
 10 12  2  0  0  0  0
 12 17  1  0  0  0  0
 13 10  1  0  0  0  0
 14  7  1  0  0  0  0
 15 14  2  0  0  0  0
 15  1  1  0  0  0  0
 16 20  1  6  0  0  0
 16  9  1  0  0  0  0
 17 31  1  0  0  0  0
 18 13  2  0  0  0  0
 19  8  1  0  0  0  0
 20  6  1  0  0  0  0
 21 23  1  0  0  0  0
 21 26  1  0  0  0  0
 22 21  1  0  0  0  0
 23 29  1  6  0  0  0
 23 25  1  0  0  0  0
 24 15  1  1  0  0  0
 25 24  1  0  0  0  0
 26 27  1  6  0  0  0
 26 24  1  0  0  0  0
 29 28  1  0  0  0  0
 30 29  1  0  0  0  0
 30 28  1  0  0  0  0
 31 32  1  0  0  0  0
M  END
>  <MODEL>
5

>  <REMARK>
 VINA RESULT:     -10.7      2.022      8.287
  Name = 
  3 active torsions:
  status: ('A' for Active; 'I' for Inactive)
    1  A    between atoms: N_13  and  C_29
    2  A    between atoms: C_15  and  C_19
    3  A    between atoms: C_16  and  C_27
                            x       y       z     vdW  Elec       q    Type
                         _______ _______ _______ _____ _____    ______ ____

>  <TORSDO>
F 3

$$$$
=
 OpenBabel10262421083D

 32 38  0  0  1  0  0  0  0  0999 V2000
  189.0580  177.8840  141.5060 C   0  0  0  0  0  0  0  0  0  0  0  0
  186.7430  178.3170  142.1800 C   0  0  0  0  0  0  0  0  0  0  0  0
  190.3820  177.5940  141.8680 C   0  0  0  0  0  3  0  0  0  0  0  0
  188.0760  178.0160  142.5190 C   0  0  1  0  0  3  0  0  0  0  0  0
  185.7210  178.6100  143.2650 C   0  0  0  0  0  0  0  0  0  0  0  0
  183.1880  179.8420  139.0940 C   0  0  0  0  0  2  0  0  0  0  0  0
  186.3730  178.4170  140.8200 C   0  0  0  0  0  0  0  0  0  0  0  0
  182.5100  178.5600  141.1820 C   0  0  0  0  0  2  0  0  0  0  0  0
  183.9640  178.8350  141.5740 C   0  0  1  0  0  3  0  0  0  0  0  0
  188.4280  177.8040  143.8630 C   0  0  0  0  0  0  0  0  0  0  0  0
  184.3470  178.0990  142.8480 C   0  0  0  0  0  2  0  0  0  0  0  0
  187.4050  177.8430  144.9170 C   0  0  0  0  0  3  0  0  0  0  0  0
  189.7500  177.5080  144.2030 C   0  0  0  0  0  3  0  0  0  0  0  0
  187.3450  178.2530  139.8290 C   0  0  0  0  0  3  0  0  0  0  0  0
  188.6880  178.0220  140.1540 C   0  0  0  0  0  0  0  0  0  0  0  0
  184.9150  178.4860  140.4190 C   0  0  1  0  0  3  0  0  0  0  0  0
  186.1370  178.1700  144.6610 C   0  0  0  0  0  0  0  0  0  0  0  0
  190.7270  177.4130  143.2100 C   0  0  0  0  0  3  0  0  0  0  0  0
  182.2380  178.7970  139.6870 C   0  0  0  0  0  2  0  0  0  0  0  0
  184.6590  179.4130  139.2190 C   0  0  0  0  0  2  0  0  0  0  0  0
  189.9040  177.1920  136.7430 N   0  0  0  0  0  0  0  0  0  0  0  0
  189.0310  176.7460  135.6660 C   0  0  0  0  0  1  0  0  0  0  0  0
  190.3880  175.9900  137.4170 C   0  0  2  0  0  3  0  0  0  0  0  0
  189.7060  177.8700  139.0560 C   0  0  1  0  0  3  0  0  0  0  0  0
  190.5930  176.3040  139.2000 S   0  0  0  0  0  0  0  0  0  0  0  0
  189.0680  177.9270  137.6830 C   0  0  1  0  0  3  0  0  0  0  0  0
  188.9430  179.3780  137.2470 C   0  0  0  0  0  1  0  0  0  0  0  0
  191.9970  174.1130  137.1800 C   0  0  0  0  0  2  0  0  0  0  0  0
  191.7260  175.5640  136.8300 C   0  0  0  0  0  3  0  0  0  0  0  0
  191.5080  174.4760  135.7960 C   0  0  0  0  0  2  0  0  0  0  0  0
  185.2430  178.2670  145.7770 N   0  0  0  0  0  2  0  0  0  0  0  0
  185.6560  178.6280  147.1230 C   0  0  0  0  0  1  0  0  0  0  0  0
  1  3  2  0  0  0  0
  2  4  1  0  0  0  0
  2  5  1  0  0  0  0
  3 18  1  0  0  0  0
  4  1  1  6  0  0  0
  4 10  1  0  0  0  0
  5 17  2  0  0  0  0
  6 20  1  0  0  0  0
  6 19  1  0  0  0  0
  7  2  2  0  0  0  0
  9  8  1  6  0  0  0
  9 11  1  0  0  0  0
 10 13  1  0  0  0  0
 10 12  2  0  0  0  0
 11  5  1  0  0  0  0
 14 15  2  0  0  0  0
 14  7  1  0  0  0  0
 15  1  1  0  0  0  0
 16 20  1  6  0  0  0
 16  7  1  0  0  0  0
 16  9  1  0  0  0  0
 17 12  1  0  0  0  0
 17 31  1  0  0  0  0
 18 13  2  0  0  0  0
 19  8  1  0  0  0  0
 21 23  1  0  0  0  0
 21 26  1  0  0  0  0
 22 21  1  0  0  0  0
 23 29  1  6  0  0  0
 23 25  1  0  0  0  0
 24 25  1  0  0  0  0
 24 15  1  1  0  0  0
 26 27  1  6  0  0  0
 26 24  1  0  0  0  0
 29 28  1  0  0  0  0
 30 29  1  0  0  0  0
 30 28  1  0  0  0  0
 31 32  1  0  0  0  0
M  END
>  <MODEL>
6

>  <REMARK>
 VINA RESULT:     -10.5      2.291      7.676
  Name = 
  3 active torsions:
  status: ('A' for Active; 'I' for Inactive)
    1  A    between atoms: N_13  and  C_29
    2  A    between atoms: C_15  and  C_19
    3  A    between atoms: C_16  and  C_27
                            x       y       z     vdW  Elec       q    Type
                         _______ _______ _______ _____ _____    ______ ____

>  <TORSDO>
F 3

$$$$
=
 OpenBabel10262421083D

 32 38  0  0  1  0  0  0  0  0999 V2000
  189.0800  177.8850  140.5920 C   0  0  0  0  0  0  0  0  0  0  0  0
  188.8630  177.8570  143.0310 C   0  0  0  0  0  0  0  0  0  0  0  0
  189.8970  177.7750  139.4560 C   0  0  0  0  0  3  0  0  0  0  0  0
  189.6600  177.7400  141.8770 C   0  0  1  0  0  3  0  0  0  0  0  0
  189.5010  177.8560  144.4100 C   0  0  0  0  0  0  0  0  0  0  0  0
  184.7470  179.1230  145.4690 C   0  0  0  0  0  2  0  0  0  0  0  0
  187.4690  178.0490  142.9020 C   0  0  0  0  0  0  0  0  0  0  0  0
  186.3720  177.5200  146.5890 C   0  0  0  0  0  2  0  0  0  0  0  0
  187.2900  177.9820  145.4540 C   0  0  1  0  0  3  0  0  0  0  0  0
  191.0280  177.4380  141.9950 C   0  0  0  0  0  0  0  0  0  0  0  0
  188.5800  177.1800  145.4180 C   0  0  0  0  0  2  0  0  0  0  0  0
  191.6260  177.1920  143.3140 C   0  0  0  0  0  3  0  0  0  0  0  0
  191.8220  177.3250  140.8520 C   0  0  0  0  0  3  0  0  0  0  0  0
  186.9050  178.1570  141.6280 C   0  0  0  0  0  3  0  0  0  0  0  0
  187.6960  178.1130  140.4730 C   0  0  0  0  0  0  0  0  0  0  0  0
  186.5570  177.9250  144.1050 C   0  0  1  0  0  3  0  0  0  0  0  0
  190.9300  177.3350  144.4450 C   0  0  0  0  0  0  0  0  0  0  0  0
  191.2610  177.5020  139.5860 C   0  0  0  0  0  3  0  0  0  0  0  0
  184.8960  177.8780  146.3490 C   0  0  0  0  0  2  0  0  0  0  0  0
  185.3920  178.9280  144.0870 C   0  0  0  0  0  2  0  0  0  0  0  0
  185.0750  177.5920  137.8920 N   0  0  0  0  0  0  0  0  0  0  0  0
  183.8430  176.8560  138.1360 C   0  0  0  0  0  1  0  0  0  0  0  0
  186.0460  176.6300  137.3760 C   0  0  2  0  0  3  0  0  0  0  0  0
  187.0500  178.2530  139.1210 C   0  0  1  0  0  3  0  0  0  0  0  0
  187.7220  177.0540  137.9490 S   0  0  0  0  0  0  0  0  0  0  0  0
  185.5500  178.0570  139.1880 C   0  0  1  0  0  3  0  0  0  0  0  0
  184.8870  179.3770  139.5450 C   0  0  0  0  0  1  0  0  0  0  0  0
  186.5940  175.3230  135.3370 C   0  0  0  0  0  2  0  0  0  0  0  0
  186.0240  176.6300  135.8540 C   0  0  0  0  0  3  0  0  0  0  0  0
  185.0970  175.5390  135.3560 C   0  0  0  0  0  2  0  0  0  0  0  0
  191.6360  177.1590  145.6790 N   0  0  0  0  0  2  0  0  0  0  0  0
  192.0410  175.8670  146.2090 C   0  0  0  0  0  1  0  0  0  0  0  0
  2  5  2  0  0  0  0
  3 18  2  0  0  0  0
  3  1  1  0  0  0  0
  4  1  1  6  0  0  0
  4 10  1  0  0  0  0
  4  2  1  0  0  0  0
  5 17  1  0  0  0  0
  5 11  1  0  0  0  0
  6 19  1  0  0  0  0
  7  2  1  0  0  0  0
  7 16  1  0  0  0  0
  9 11  1  6  0  0  0
  9  8  1  0  0  0  0
 10 12  1  0  0  0  0
 12 17  2  0  0  0  0
 13 10  2  0  0  0  0
 14  7  2  0  0  0  0
 15  1  2  0  0  0  0
 15 14  1  0  0  0  0
 16 20  1  1  0  0  0
 16  9  1  0  0  0  0
 17 31  1  0  0  0  0
 18 13  1  0  0  0  0
 19  8  1  0  0  0  0
 20  6  1  0  0  0  0
 21 22  1  0  0  0  0
 21 26  1  0  0  0  0
 23 29  1  6  0  0  0
 23 21  1  0  0  0  0
 23 25  1  0  0  0  0
 24 26  1  0  0  0  0
 24 15  1  1  0  0  0
 25 24  1  0  0  0  0
 26 27  1  6  0  0  0
 28 30  1  0  0  0  0
 28 29  1  0  0  0  0
 30 29  1  0  0  0  0
 31 32  1  0  0  0  0
M  END
>  <MODEL>
7

>  <REMARK>
 VINA RESULT:     -10.4      1.992      8.271
  Name = 
  3 active torsions:
  status: ('A' for Active; 'I' for Inactive)
    1  A    between atoms: N_13  and  C_29
    2  A    between atoms: C_15  and  C_19
    3  A    between atoms: C_16  and  C_27
                            x       y       z     vdW  Elec       q    Type
                         _______ _______ _______ _____ _____    ______ ____

>  <TORSDO>
F 3

$$$$
=
 OpenBabel10262421083D

 32 38  0  0  1  0  0  0  0  0999 V2000
  184.6530  178.5570  142.9800 C   0  0  0  0  0  0  0  0  0  0  0  0
  186.7630  178.0760  144.1280 C   0  0  0  0  0  0  0  0  0  0  0  0
  183.2920  178.8890  143.0540 C   0  0  0  0  0  3  0  0  0  0  0  0
  185.3980  178.4190  144.1770 C   0  0  1  0  0  3  0  0  0  0  0  0
  187.5270  177.7770  145.4060 C   0  0  0  0  0  0  0  0  0  0  0  0
  190.8350  176.3980  141.8720 C   0  0  0  0  0  2  0  0  0  0  0  0
  187.4050  177.9400  142.8770 C   0  0  0  0  0  0  0  0  0  0  0  0
  191.1020  177.7020  144.0390 C   0  0  0  0  0  2  0  0  0  0  0  0
  189.5900  177.4730  144.1230 C   0  0  1  0  0  3  0  0  0  0  0  0
  184.7800  178.6660  145.4160 C   0  0  0  0  0  0  0  0  0  0  0  0
  188.9720  178.2420  145.2780 C   0  0  0  0  0  2  0  0  0  0  0  0
  185.5590  178.6200  146.6600 C   0  0  0  0  0  3  0  0  0  0  0  0
  183.4260  179.0030  145.4680 C   0  0  0  0  0  3  0  0  0  0  0  0
  186.6660  178.1110  141.7020 C   0  0  0  0  0  3  0  0  0  0  0  0
  185.2920  178.3830  141.7370 C   0  0  0  0  0  0  0  0  0  0  0  0
  188.9120  177.8240  142.7900 C   0  0  1  0  0  3  0  0  0  0  0  0
  186.8430  178.2540  146.6790 C   0  0  0  0  0  0  0  0  0  0  0  0
  182.6800  179.1050  144.2910 C   0  0  0  0  0  3  0  0  0  0  0  0
  191.6720  177.4280  142.6370 C   0  0  0  0  0  2  0  0  0  0  0  0
  189.3830  176.8680  141.6820 C   0  0  0  0  0  2  0  0  0  0  0  0
  183.2570  177.2650  138.8370 N   0  0  0  0  0  0  0  0  0  0  0  0
  182.7950  175.8960  138.6600 C   0  0  0  0  0  1  0  0  0  0  0  0
  184.5390  177.3700  138.1430 C   0  0  2  0  0  3  0  0  0  0  0  0
  184.5310  178.5410  140.4490 C   0  0  1  0  0  3  0  0  0  0  0  0
  185.6440  178.5180  139.0260 S   0  0  0  0  0  0  0  0  0  0  0  0
  183.5030  177.4450  140.2610 C   0  0  1  0  0  3  0  0  0  0  0  0
  182.2150  177.8380  140.9680 C   0  0  0  0  0  1  0  0  0  0  0  0
  185.2460  177.1350  135.7750 C   0  0  0  0  0  2  0  0  0  0  0  0
  184.3250  177.8770  136.7240 C   0  0  0  0  0  3  0  0  0  0  0  0
  183.7840  176.7570  135.8570 C   0  0  0  0  0  2  0  0  0  0  0  0
  187.4810  178.1560  147.9580 N   0  0  0  0  0  2  0  0  0  0  0  0
  188.3050  177.0330  148.3740 C   0  0  0  0  0  1  0  0  0  0  0  0
  1  3  2  0  0  0  0
  2  4  1  0  0  0  0
  2  5  1  0  0  0  0
  3 18  1  0  0  0  0
  4  1  1  6  0  0  0
  4 10  1  0  0  0  0
  5 17  2  0  0  0  0
  6 19  1  0  0  0  0
  7  2  2  0  0  0  0
  9  8  1  6  0  0  0
  9 11  1  0  0  0  0
 10 13  1  0  0  0  0
 10 12  2  0  0  0  0
 11  5  1  0  0  0  0
 12 17  1  0  0  0  0
 14 15  2  0  0  0  0
 14  7  1  0  0  0  0
 15  1  1  0  0  0  0
 16 20  1  6  0  0  0
 16  7  1  0  0  0  0
 16  9  1  0  0  0  0
 17 31  1  0  0  0  0
 18 13  2  0  0  0  0
 19  8  1  0  0  0  0
 20  6  1  0  0  0  0
 21 26  1  0  0  0  0
 22 21  1  0  0  0  0
 23 29  1  6  0  0  0
 23 21  1  0  0  0  0
 23 25  1  0  0  0  0
 24 15  1  1  0  0  0
 25 24  1  0  0  0  0
 26 24  1  0  0  0  0
 26 27  1  1  0  0  0
 28 30  1  0  0  0  0
 28 29  1  0  0  0  0
 30 29  1  0  0  0  0
 31 32  1  0  0  0  0
M  END
>  <MODEL>
8

>  <REMARK>
 VINA RESULT:     -10.4      2.697      7.676
  Name = 
  3 active torsions:
  status: ('A' for Active; 'I' for Inactive)
    1  A    between atoms: N_13  and  C_29
    2  A    between atoms: C_15  and  C_19
    3  A    between atoms: C_16  and  C_27
                            x       y       z     vdW  Elec       q    Type
                         _______ _______ _______ _____ _____    ______ ____

>  <TORSDO>
F 3

$$$$
=
 OpenBabel10262421083D

 32 38  0  0  1  0  0  0  0  0999 V2000
  185.4380  178.3750  139.6800 C   0  0  0  0  0  0  0  0  0  0  0  0
  186.9390  178.2280  141.6100 C   0  0  0  0  0  0  0  0  0  0  0  0
  185.2680  178.3890  138.2870 C   0  0  0  0  0  3  0  0  0  0  0  0
  186.7420  178.2330  140.2160 C   0  0  1  0  0  3  0  0  0  0  0  0
  188.3440  178.2300  142.1880 C   0  0  0  0  0  0  0  0  0  0  0  0
  185.5320  179.0030  146.2900 C   0  0  0  0  0  2  0  0  0  0  0  0
  185.8230  178.2940  142.4740 C   0  0  0  0  0  0  0  0  0  0  0  0
  187.5490  177.5150  145.8640 C   0  0  0  0  0  2  0  0  0  0  0  0
  187.4300  178.1060  144.4560 C   0  0  1  0  0  3  0  0  0  0  0  0
  187.8360  178.0550  139.3510 C   0  0  0  0  0  0  0  0  0  0  0  0
  188.3820  177.4300  143.4840 C   0  0  0  0  0  2  0  0  0  0  0  0
  189.1810  177.8120  139.8900 C   0  0  0  0  0  3  0  0  0  0  0  0
  187.6440  178.0640  137.9680 C   0  0  0  0  0  3  0  0  0  0  0  0
  184.5390  178.4010  141.9320 C   0  0  0  0  0  3  0  0  0  0  0  0
  184.3340  178.4780  140.5480 C   0  0  0  0  0  0  0  0  0  0  0  0
  185.9780  178.0360  143.9580 C   0  0  1  0  0  3  0  0  0  0  0  0
  189.4350  177.8440  141.2010 C   0  0  0  0  0  0  0  0  0  0  0  0
  186.3650  178.2400  137.4360 C   0  0  0  0  0  3  0  0  0  0  0  0
  186.2900  177.7430  146.7180 C   0  0  0  0  0  2  0  0  0  0  0  0
  185.0720  178.9260  144.8250 C   0  0  0  0  0  2  0  0  0  0  0  0
  181.5780  177.9960  138.1040 N   0  0  0  0  0  0  0  0  0  0  0  0
  181.7210  177.2330  136.8720 C   0  0  0  0  0  1  0  0  0  0  0  0
  181.8850  179.3870  137.7750 C   0  0  2  0  0  3  0  0  0  0  0  0
  182.9360  178.6120  140.0080 C   0  0  1  0  0  3  0  0  0  0  0  0
  182.7050  180.2020  139.1830 S   0  0  0  0  0  0  0  0  0  0  0  0
  182.6050  177.5150  139.0180 C   0  0  1  0  0  3  0  0  0  0  0  0
  182.1030  176.2940  139.7720 C   0  0  0  0  0  1  0  0  0  0  0  0
  180.9510  181.4690  136.7970 C   0  0  0  0  0  2  0  0  0  0  0  0
  180.6050  180.1400  137.4410 C   0  0  0  0  0  3  0  0  0  0  0  0
  180.4910  180.3110  135.9380 C   0  0  0  0  0  2  0  0  0  0  0  0
  190.7980  177.6840  141.6110 N   0  0  0  0  0  2  0  0  0  0  0  0
  191.9070  177.4780  140.6940 C   0  0  0  0  0  1  0  0  0  0  0  0
  1  4  1  0  0  0  0
  1 15  2  0  0  0  0
  2  5  2  0  0  0  0
  2  7  1  0  0  0  0
  3  1  1  0  0  0  0
  4 10  1  1  0  0  0
  4  2  1  0  0  0  0
  5 11  1  0  0  0  0
  6 19  1  0  0  0  0
  7 16  1  0  0  0  0
  8 19  1  0  0  0  0
  9 11  1  6  0  0  0
  9  8  1  0  0  0  0
 10 12  1  0  0  0  0
 12 17  2  0  0  0  0
 13 10  2  0  0  0  0
 14  7  2  0  0  0  0
 15 14  1  0  0  0  0
 16  9  1  0  0  0  0
 16 20  1  1  0  0  0
 17 31  1  0  0  0  0
 17  5  1  0  0  0  0
 18 13  1  0  0  0  0
 18  3  2  0  0  0  0
 20  6  1  0  0  0  0
 21 26  1  0  0  0  0
 22 21  1  0  0  0  0
 23 29  1  1  0  0  0
 23 21  1  0  0  0  0
 23 25  1  0  0  0  0
 24 15  1  6  0  0  0
 25 24  1  0  0  0  0
 26 27  1  1  0  0  0
 26 24  1  0  0  0  0
 28 29  1  0  0  0  0
 30 28  1  0  0  0  0
 30 29  1  0  0  0  0
 32 31  1  0  0  0  0
M  END
>  <MODEL>
9

>  <REMARK>
 VINA RESULT:     -10.3      3.067      8.240
  Name = 
  3 active torsions:
  status: ('A' for Active; 'I' for Inactive)
    1  A    between atoms: N_13  and  C_29
    2  A    between atoms: C_15  and  C_19
    3  A    between atoms: C_16  and  C_27
                            x       y       z     vdW  Elec       q    Type
                         _______ _______ _______ _____ _____    ______ ____

>  <TORSDO>
F 3

$$$$
