=
 OpenBabel10262422493D

 37 42  0  0  1  0  0  0  0  0999 V2000
  187.4320  172.9080  136.1540 C   0  0  0  0  0  0  0  0  0  0  0  0
  188.4480  175.9050  136.9890 C   0  0  0  0  0  0  0  0  0  0  0  0
  189.5290  173.8440  135.2860 O   0  0  0  0  0  0  0  0  0  0  0  0
  187.8730  176.5870  137.9910 C   0  0  0  0  0  3  0  0  0  0  0  0
  187.5900  175.3470  135.8490 C   0  0  2  0  0  3  0  0  0  0  0  0
  188.5850  177.3620  139.0620 C   0  0  1  0  0  3  0  0  0  0  0  0
  190.0590  174.9430  134.5940 C   0  0  0  0  0  2  0  0  0  0  0  0
  186.1450  174.9560  136.1770 C   0  0  1  0  0  3  0  0  0  0  0  0
  188.3200  172.3620  137.2620 C   0  0  0  0  0  1  0  0  0  0  0  0
  190.6720  175.2660  137.9670 C   0  0  0  0  0  2  0  0  0  0  0  0
  190.5550  175.9890  135.5920 C   0  0  0  0  0  2  0  0  0  0  0  0
  186.2150  173.5670  136.7870 C   0  0  0  0  0  2  0  0  0  0  0  0
  189.8870  175.8530  136.8860 N   0  0  0  0  0  0  0  0  0  0  0  0
  188.1250  173.9990  135.3210 C   0  0  2  0  0  3  0  0  0  0  0  0
  189.5790  176.5000  139.8490 C   0  0  1  0  0  3  0  0  0  0  0  0
  186.9920  171.7750  135.2510 C   0  0  0  0  0  1  0  0  0  0  0  0
  190.8840  176.2550  139.0980 C   0  0  0  0  0  2  0  0  0  0  0  0
  184.0150  175.3050  137.6030 C   0  0  0  0  0  2  0  0  0  0  0  0
  182.9420  174.6630  136.6730 C   0  0  1  0  0  3  0  0  0  0  0  0
  182.5270  177.0400  135.8310 C   0  0  2  0  0  0  0  0  0  0  0  0
  181.9700  175.6320  135.9510 C   0  0  0  0  0  2  0  0  0  0  0  0
  182.8410  177.8760  134.6050 C   0  0  0  0  0  2  0  0  0  0  0  0
  184.9490  177.2140  136.0810 C   0  0  0  0  0  2  0  0  0  0  0  0
  183.8600  176.8690  135.0880 C   0  0  1  0  0  3  0  0  0  0  0  0
  182.5650  177.7850  137.0190 O   0  0  0  0  0  1  0  0  0  0  0  0
  185.2570  175.9610  136.9280 C   0  0  2  0  0  3  0  0  0  0  0  0
  183.5150  173.7750  135.7600 O   0  0  0  0  0  0  0  0  0  0  0  0
  182.8500  172.6510  135.9250 O   0  0  0  0  0  1  0  0  0  0  0  0
  191.0930  177.5050  141.6120 C   0  0  0  0  0  3  0  0  0  0  0  0
  189.8220  177.0540  141.2200 C   0  0  0  0  0  0  0  0  0  0  0  0
  188.7500  177.1510  142.1130 C   0  0  0  0  0  3  0  0  0  0  0  0
  187.5980  177.7990  144.5030 Cl  0  0  0  0  0  0  0  0  0  0  0  0
  190.2130  178.1230  143.7810 C   0  0  0  0  0  3  0  0  0  0  0  0
  188.9450  177.6830  143.3920 C   0  0  0  0  0  0  0  0  0  0  0  0
  191.2860  178.0350  142.8920 C   0  0  0  0  0  3  0  0  0  0  0  0
  189.2010  178.6490  138.5130 C   0  0  0  0  0  2  0  0  0  0  0  0
  188.4850  179.0820  137.2470 C   0  0  0  0  0  1  0  0  0  0  0  0
  1 12  1  0  0  0  0
  1  9  1  0  0  0  0
  2  4  2  0  0  0  0
  4  6  1  0  0  0  0
  5  8  1  0  0  0  0
  5  2  1  1  0  0  0
  6 36  1  6  0  0  0
  6 15  1  0  0  0  0
  7  3  1  0  0  0  0
  7 11  1  0  0  0  0
  8 12  1  1  0  0  0
  8 26  1  0  0  0  0
 10 17  1  0  0  0  0
 11 13  1  0  0  0  0
 13  2  1  0  0  0  0
 13 10  1  0  0  0  0
 14  3  1  1  0  0  0
 14  5  1  0  0  0  0
 14  1  1  0  0  0  0
 15 30  1  1  0  0  0
 16  1  1  0  0  0  0
 17 15  1  0  0  0  0
 19 27  1  6  0  0  0
 19 18  1  0  0  0  0
 20 21  1  0  0  0  0
 20 25  1  1  0  0  0
 21 19  1  0  0  0  0
 22 20  1  0  0  0  0
 24 22  1  6  0  0  0
 24 20  1  0  0  0  0
 24 23  1  0  0  0  0
 26 23  1  6  0  0  0
 26 18  1  0  0  0  0
 27 28  1  0  0  0  0
 29 35  1  0  0  0  0
 30 29  2  0  0  0  0
 30 31  1  0  0  0  0
 31 34  2  0  0  0  0
 34 33  1  0  0  0  0
 34 32  1  0  0  0  0
 35 33  2  0  0  0  0
 37 36  1  0  0  0  0
M  END
>  <MODEL>
1

>  <REMARK>
 VINA RESULT:      -6.7      0.000      0.000
  Name = 
  4 active torsions:
  status: ('A' for Active; 'I' for Inactive)
    1  A    between atoms: C_5  and  O_12
    2  A    between atoms: C_6  and  C_31
    3  A    between atoms: C_7  and  C_14
    4  A    between atoms: C_20  and  C_36
                            x       y       z     vdW  Elec       q    Type
                         _______ _______ _______ _____ _____    ______ ____

>  <TORSDO>
F 4

$$$$
=
 OpenBabel10262422493D

 37 42  0  0  1  0  0  0  0  0999 V2000
  183.7560  175.4710  135.3920 C   0  0  0  0  0  0  0  0  0  0  0  0
  183.0920  177.2940  138.0270 C   0  0  0  0  0  0  0  0  0  0  0  0
  182.2880  174.6550  137.1830 O   0  0  0  0  0  0  0  0  0  0  0  0
  183.4100  178.5950  138.0780 C   0  0  0  0  0  3  0  0  0  0  0  0
  184.1650  176.2530  137.6910 C   0  0  2  0  0  3  0  0  0  0  0  0
  182.5350  179.7050  138.5850 C   0  0  1  0  0  3  0  0  0  0  0  0
  182.2370  174.4230  138.5650 C   0  0  0  0  0  2  0  0  0  0  0  0
  185.3160  176.6940  136.7790 C   0  0  1  0  0  3  0  0  0  0  0  0
  182.4610  175.9850  134.7820 C   0  0  0  0  0  1  0  0  0  0  0  0
  180.5910  177.3490  137.7980 C   0  0  0  0  0  2  0  0  0  0  0  0
  181.6350  175.6400  139.2690 C   0  0  0  0  0  2  0  0  0  0  0  0
  184.7870  176.5900  135.3590 C   0  0  0  0  0  2  0  0  0  0  0  0
  181.7890  176.8530  138.4670 N   0  0  0  0  0  0  0  0  0  0  0  0
  183.6010  175.0750  136.8690 C   0  0  2  0  0  3  0  0  0  0  0  0
  181.1920  179.7780  137.8490 C   0  0  1  0  0  3  0  0  0  0  0  0
  184.2580  174.2850  134.5940 C   0  0  0  0  0  1  0  0  0  0  0  0
  180.1960  178.7210  138.3150 C   0  0  0  0  0  2  0  0  0  0  0  0
  187.0190  178.4630  135.9670 C   0  0  0  0  0  2  0  0  0  0  0  0
  188.2320  177.5490  135.6150 C   0  0  1  0  0  3  0  0  0  0  0  0
  189.0790  178.1000  137.9630 C   0  0  2  0  0  0  0  0  0  0  0  0
  189.4480  177.5990  136.5770 C   0  0  0  0  0  2  0  0  0  0  0  0
  189.1810  177.4220  139.3160 C   0  0  0  0  0  2  0  0  0  0  0  0
  186.7050  177.9590  138.5120 C   0  0  0  0  0  2  0  0  0  0  0  0
  187.9790  177.1430  138.4430 C   0  0  1  0  0  3  0  0  0  0  0  0
  188.8030  179.4710  138.0640 O   0  0  0  0  0  1  0  0  0  0  0  0
  186.0670  177.9930  137.1070 C   0  0  2  0  0  3  0  0  0  0  0  0
  187.8360  176.2280  135.3950 O   0  0  0  0  0  0  0  0  0  0  0  0
  188.9520  175.5320  135.4530 O   0  0  0  0  0  1  0  0  0  0  0  0
  179.6390  181.5010  138.8640 C   0  0  0  0  0  3  0  0  0  0  0  0
  180.6070  181.1560  137.9060 C   0  0  0  0  0  0  0  0  0  0  0  0
  181.0600  182.1240  137.0040 C   0  0  0  0  0  3  0  0  0  0  0  0
  181.1180  184.6280  135.9150 Cl  0  0  0  0  0  0  0  0  0  0  0  0
  179.5780  183.7620  137.9970 C   0  0  0  0  0  3  0  0  0  0  0  0
  180.5460  183.4240  137.0480 C   0  0  0  0  0  0  0  0  0  0  0  0
  179.1250  182.8010  138.9060 C   0  0  0  0  0  3  0  0  0  0  0  0
  182.3900  179.6610  140.1060 C   0  0  0  0  0  2  0  0  0  0  0  0
  183.6420  179.0840  140.7410 C   0  0  0  0  0  1  0  0  0  0  0  0
  1 14  1  0  0  0  0
  2  4  2  0  0  0  0
  2 13  1  0  0  0  0
  3  7  1  0  0  0  0
  4  6  1  0  0  0  0
  5  2  1  6  0  0  0
  6 36  1  1  0  0  0
  7 11  1  0  0  0  0
  8 12  1  6  0  0  0
  8 26  1  0  0  0  0
  8  5  1  0  0  0  0
  9  1  1  0  0  0  0
 10 17  1  0  0  0  0
 10 13  1  0  0  0  0
 12  1  1  0  0  0  0
 13 11  1  0  0  0  0
 14  3  1  1  0  0  0
 14  5  1  0  0  0  0
 15 30  1  1  0  0  0
 15 17  1  0  0  0  0
 15  6  1  0  0  0  0
 16  1  1  0  0  0  0
 19 27  1  1  0  0  0
 19 18  1  0  0  0  0
 19 21  1  0  0  0  0
 20 25  1  1  0  0  0
 20 24  1  0  0  0  0
 20 22  1  0  0  0  0
 21 20  1  0  0  0  0
 24 23  1  1  0  0  0
 24 22  1  0  0  0  0
 26 18  1  6  0  0  0
 26 23  1  0  0  0  0
 27 28  1  0  0  0  0
 29 35  1  0  0  0  0
 30 29  2  0  0  0  0
 31 34  2  0  0  0  0
 31 30  1  0  0  0  0
 32 34  1  0  0  0  0
 33 35  2  0  0  0  0
 34 33  1  0  0  0  0
 36 37  1  0  0  0  0
M  END
>  <MODEL>
2

>  <REMARK>
 VINA RESULT:      -5.9      4.315      8.008
  Name = 
  4 active torsions:
  status: ('A' for Active; 'I' for Inactive)
    1  A    between atoms: C_5  and  O_12
    2  A    between atoms: C_6  and  C_31
    3  A    between atoms: C_7  and  C_14
    4  A    between atoms: C_20  and  C_36
                            x       y       z     vdW  Elec       q    Type
                         _______ _______ _______ _____ _____    ______ ____

>  <TORSDO>
F 4

$$$$
=
 OpenBabel10262422493D

 37 42  0  0  1  0  0  0  0  0999 V2000
  189.5650  173.2100  135.7310 C   0  0  0  0  0  0  0  0  0  0  0  0
  188.9300  176.0510  137.2280 C   0  0  0  0  0  0  0  0  0  0  0  0
  190.6300  175.3050  135.0200 O   0  0  0  0  0  0  0  0  0  0  0  0
  188.2660  176.0960  138.3920 C   0  0  0  0  0  3  0  0  0  0  0  0
  188.3230  175.3160  136.0270 C   0  0  2  0  0  3  0  0  0  0  0  0
  188.6240  176.9350  139.5860 C   0  0  1  0  0  3  0  0  0  0  0  0
  190.3480  176.6120  134.5950 C   0  0  0  0  0  2  0  0  0  0  0  0
  187.4040  174.1240  136.3180 C   0  0  1  0  0  3  0  0  0  0  0  0
  190.7870  173.0790  136.6260 C   0  0  0  0  0  1  0  0  0  0  0  0
  191.2780  176.6240  137.9100 C   0  0  0  0  0  2  0  0  0  0  0  0
  190.3690  177.5590  135.7950 C   0  0  0  0  0  2  0  0  0  0  0  0
  188.3210  172.9390  136.5640 C   0  0  0  0  0  2  0  0  0  0  0  0
  190.1230  176.8430  137.0470 N   0  0  0  0  0  0  0  0  0  0  0  0
  189.3970  174.6270  135.1590 C   0  0  2  0  0  3  0  0  0  0  0  0
  190.0460  176.6660  140.0890 C   0  0  1  0  0  3  0  0  0  0  0  0
  189.6550  172.2080  134.5990 C   0  0  0  0  0  1  0  0  0  0  0  0
  191.1190  177.3410  139.2390 C   0  0  0  0  0  2  0  0  0  0  0  0
  185.5750  172.9550  137.7260 C   0  0  0  0  0  2  0  0  0  0  0  0
  184.8070  172.1860  136.6100 C   0  0  1  0  0  3  0  0  0  0  0  0
  183.2240  174.1930  136.5840 C   0  0  2  0  0  0  0  0  0  0  0  0
  183.4060  172.7280  136.2220 C   0  0  0  0  0  2  0  0  0  0  0  0
  182.9410  175.3980  135.7090 C   0  0  0  0  0  2  0  0  0  0  0  0
  185.2960  175.4320  136.9390 C   0  0  0  0  0  2  0  0  0  0  0  0
  184.3660  174.9180  135.8600 C   0  0  1  0  0  3  0  0  0  0  0  0
  183.0750  174.4690  137.9510 O   0  0  0  0  0  1  0  0  0  0  0  0
  186.2650  174.2970  137.3350 C   0  0  2  0  0  3  0  0  0  0  0  0
  185.5940  172.0050  135.4710 O   0  0  0  0  0  0  0  0  0  0  0  0
  185.6990  170.7000  135.3410 O   0  0  0  0  0  1  0  0  0  0  0  0
  191.4090  177.4700  142.0650 C   0  0  0  0  0  3  0  0  0  0  0  0
  190.1910  177.0080  141.5400 C   0  0  0  0  0  0  0  0  0  0  0  0
  189.0780  176.8920  142.3800 C   0  0  0  0  0  3  0  0  0  0  0  0
  187.7820  177.0750  144.7760 Cl  0  0  0  0  0  0  0  0  0  0  0  0
  190.3950  177.6770  144.2550 C   0  0  0  0  0  3  0  0  0  0  0  0
  189.1790  177.2240  143.7340 C   0  0  0  0  0  0  0  0  0  0  0  0
  191.5090  177.8010  143.4210 C   0  0  0  0  0  3  0  0  0  0  0  0
  188.3370  178.4170  139.3410 C   0  0  0  0  0  2  0  0  0  0  0  0
  187.0720  178.5840  138.5210 C   0  0  0  0  0  1  0  0  0  0  0  0
  1 12  1  0  0  0  0
  1  9  1  0  0  0  0
  2  4  2  0  0  0  0
  4  6  1  0  0  0  0
  5  8  1  0  0  0  0
  5  2  1  1  0  0  0
  6 36  1  6  0  0  0
  6 15  1  0  0  0  0
  7  3  1  0  0  0  0
  7 11  1  0  0  0  0
  8 12  1  1  0  0  0
  8 26  1  0  0  0  0
 10 17  1  0  0  0  0
 11 13  1  0  0  0  0
 13  2  1  0  0  0  0
 13 10  1  0  0  0  0
 14  3  1  1  0  0  0
 14  1  1  0  0  0  0
 14  5  1  0  0  0  0
 15 30  1  1  0  0  0
 16  1  1  0  0  0  0
 17 15  1  0  0  0  0
 19 27  1  6  0  0  0
 19 18  1  0  0  0  0
 20 25  1  1  0  0  0
 21 20  1  0  0  0  0
 21 19  1  0  0  0  0
 22 20  1  0  0  0  0
 24 22  1  1  0  0  0
 24 20  1  0  0  0  0
 24 23  1  0  0  0  0
 26 23  1  6  0  0  0
 26 18  1  0  0  0  0
 28 27  1  0  0  0  0
 29 35  1  0  0  0  0
 30 29  2  0  0  0  0
 30 31  1  0  0  0  0
 31 34  2  0  0  0  0
 34 33  1  0  0  0  0
 34 32  1  0  0  0  0
 35 33  2  0  0  0  0
 37 36  1  0  0  0  0
M  END
>  <MODEL>
3

>  <REMARK>
 VINA RESULT:      -5.9      1.474      1.956
  Name = 
  4 active torsions:
  status: ('A' for Active; 'I' for Inactive)
    1  A    between atoms: C_5  and  O_12
    2  A    between atoms: C_6  and  C_31
    3  A    between atoms: C_7  and  C_14
    4  A    between atoms: C_20  and  C_36
                            x       y       z     vdW  Elec       q    Type
                         _______ _______ _______ _____ _____    ______ ____

>  <TORSDO>
F 4

$$$$
=
 OpenBabel10262422493D

 37 42  0  0  1  0  0  0  0  0999 V2000
  185.8700  174.5770  136.1060 C   0  0  0  0  0  0  0  0  0  0  0  0
  184.9920  177.4110  137.4880 C   0  0  0  0  0  0  0  0  0  0  0  0
  187.1490  176.6390  135.7350 O   0  0  0  0  0  0  0  0  0  0  0  0
  184.0680  177.4610  138.4580 C   0  0  0  0  0  3  0  0  0  0  0  0
  184.6690  176.7270  136.1550 C   0  0  2  0  0  3  0  0  0  0  0  0
  184.1560  178.2610  139.7270 C   0  0  1  0  0  3  0  0  0  0  0  0
  187.0260  177.9640  135.2930 C   0  0  0  0  0  2  0  0  0  0  0  0
  183.6640  175.5690  136.1800 C   0  0  1  0  0  3  0  0  0  0  0  0
  186.8330  174.3760  137.2660 C   0  0  0  0  0  1  0  0  0  0  0  0
  187.1240  177.8720  138.7340 C   0  0  0  0  0  2  0  0  0  0  0  0
  186.7890  178.8860  136.4900 C   0  0  0  0  0  2  0  0  0  0  0  0
  184.4510  174.3410  136.6060 C   0  0  0  0  0  2  0  0  0  0  0  0
  186.2210  178.1560  137.6230 N   0  0  0  0  0  0  0  0  0  0  0  0
  185.8960  176.0100  135.5520 C   0  0  2  0  0  3  0  0  0  0  0  0
  185.4030  177.9220  140.5500 C   0  0  1  0  0  3  0  0  0  0  0  0
  186.1950  173.5940  135.0000 C   0  0  0  0  0  1  0  0  0  0  0  0
  186.6740  178.5680  140.0050 C   0  0  0  0  0  2  0  0  0  0  0  0
  181.4720  174.4650  136.9970 C   0  0  0  0  0  2  0  0  0  0  0  0
  180.9620  173.8290  135.6690 C   0  0  1  0  0  3  0  0  0  0  0  0
  179.5640  175.9540  135.4160 C   0  0  2  0  0  0  0  0  0  0  0  0
  179.7400  174.5050  134.9930 C   0  0  0  0  0  2  0  0  0  0  0  0
  179.5850  177.2310  134.5960 C   0  0  0  0  0  2  0  0  0  0  0  0
  181.5540  177.0000  136.3660 C   0  0  0  0  0  2  0  0  0  0  0  0
  180.8940  176.6300  135.0540 C   0  0  1  0  0  3  0  0  0  0  0  0
  179.0940  176.1570  136.7210 O   0  0  0  0  0  1  0  0  0  0  0  0
  182.3200  175.7690  136.8960 C   0  0  2  0  0  3  0  0  0  0  0  0
  181.9970  173.6570  134.7480 O   0  0  0  0  0  0  0  0  0  0  0  0
  182.1800  172.3550  134.6900 O   0  0  0  0  0  1  0  0  0  0  0  0
  183.9920  178.7520  142.4810 C   0  0  0  0  0  3  0  0  0  0  0  0
  185.2040  178.2290  142.0030 C   0  0  0  0  0  0  0  0  0  0  0  0
  186.2400  177.9570  142.9030 C   0  0  0  0  0  3  0  0  0  0  0  0
  187.3760  177.8720  145.3850 Cl  0  0  0  0  0  0  0  0  0  0  0  0
  184.8690  178.7420  144.7380 C   0  0  0  0  0  3  0  0  0  0  0  0
  186.0740  178.2140  144.2670 C   0  0  0  0  0  0  0  0  0  0  0  0
  183.8270  179.0100  143.8460 C   0  0  0  0  0  3  0  0  0  0  0  0
  183.9900  179.7570  139.4640 C   0  0  0  0  0  2  0  0  0  0  0  0
  182.6770  180.0300  138.7550 C   0  0  0  0  0  1  0  0  0  0  0  0
  1 12  1  0  0  0  0
  1  9  1  0  0  0  0
  2 13  1  0  0  0  0
  2  4  2  0  0  0  0
  4  6  1  0  0  0  0
  5  8  1  0  0  0  0
  5  2  1  1  0  0  0
  6 36  1  6  0  0  0
  6 15  1  0  0  0  0
  7  3  1  0  0  0  0
  7 11  1  0  0  0  0
  8 12  1  1  0  0  0
  8 26  1  0  0  0  0
 10 17  1  0  0  0  0
 11 13  1  0  0  0  0
 13 10  1  0  0  0  0
 14  3  1  1  0  0  0
 14  1  1  0  0  0  0
 14  5  1  0  0  0  0
 15 30  1  1  0  0  0
 16  1  1  0  0  0  0
 17 15  1  0  0  0  0
 19 27  1  6  0  0  0
 19 18  1  0  0  0  0
 20 25  1  1  0  0  0
 21 20  1  0  0  0  0
 21 19  1  0  0  0  0
 22 20  1  0  0  0  0
 24 22  1  6  0  0  0
 24 20  1  0  0  0  0
 24 23  1  0  0  0  0
 26 23  1  6  0  0  0
 26 18  1  0  0  0  0
 28 27  1  0  0  0  0
 29 35  1  0  0  0  0
 30 29  2  0  0  0  0
 30 31  1  0  0  0  0
 31 34  2  0  0  0  0
 34 33  1  0  0  0  0
 34 32  1  0  0  0  0
 35 33  2  0  0  0  0
 37 36  1  0  0  0  0
M  END
>  <MODEL>
4

>  <REMARK>
 VINA RESULT:      -5.6      2.800      3.936
  Name = 
  4 active torsions:
  status: ('A' for Active; 'I' for Inactive)
    1  A    between atoms: C_5  and  O_12
    2  A    between atoms: C_6  and  C_31
    3  A    between atoms: C_7  and  C_14
    4  A    between atoms: C_20  and  C_36
                            x       y       z     vdW  Elec       q    Type
                         _______ _______ _______ _____ _____    ______ ____

>  <TORSDO>
F 4

$$$$
=
 OpenBabel10262422493D

 37 42  0  0  1  0  0  0  0  0999 V2000
  187.9660  175.2750  136.2930 C   0  0  0  0  0  0  0  0  0  0  0  0
  187.4680  177.6420  138.4980 C   0  0  0  0  0  0  0  0  0  0  0  0
  189.2510  177.3660  136.2470 O   0  0  0  0  0  0  0  0  0  0  0  0
  186.7300  177.4320  139.5970 C   0  0  0  0  0  3  0  0  0  0  0  0
  186.8880  177.3320  137.1130 C   0  0  2  0  0  3  0  0  0  0  0  0
  187.0720  177.8700  140.9930 C   0  0  1  0  0  3  0  0  0  0  0  0
  189.1120  178.7610  136.1940 C   0  0  0  0  0  2  0  0  0  0  0  0
  185.8530  176.2050  137.0170 C   0  0  1  0  0  3  0  0  0  0  0  0
  189.1060  174.7790  137.1690 C   0  0  0  0  0  1  0  0  0  0  0  0
  189.8020  177.7660  139.4180 C   0  0  0  0  0  2  0  0  0  0  0  0
  189.1280  179.3340  137.6120 C   0  0  0  0  0  2  0  0  0  0  0  0
  186.6470  174.9120  136.9610 C   0  0  0  0  0  2  0  0  0  0  0  0
  188.7340  178.3290  138.6000 N   0  0  0  0  0  0  0  0  0  0  0  0
  187.9590  176.8040  136.1360 C   0  0  2  0  0  3  0  0  0  0  0  0
  188.4270  177.3300  141.4630 C   0  0  1  0  0  3  0  0  0  0  0  0
  188.0500  174.6190  134.9310 C   0  0  0  0  0  1  0  0  0  0  0  0
  189.6110  178.1010  140.8860 C   0  0  0  0  0  2  0  0  0  0  0  0
  183.7550  174.9460  137.8560 C   0  0  0  0  0  2  0  0  0  0  0  0
  182.9880  174.7470  136.5150 C   0  0  1  0  0  3  0  0  0  0  0  0
  181.7200  176.8740  137.1470 C   0  0  2  0  0  0  0  0  0  0  0  0
  181.7220  175.6150  136.2960 C   0  0  0  0  0  2  0  0  0  0  0  0
  181.6940  178.3370  136.7450 C   0  0  0  0  0  2  0  0  0  0  0  0
  183.9090  177.5530  137.9870 C   0  0  0  0  0  2  0  0  0  0  0  0
  183.0160  177.6030  136.7660 C   0  0  1  0  0  3  0  0  0  0  0  0
  181.4890  176.6850  138.5170 O   0  0  0  0  0  1  0  0  0  0  0  0
  184.6640  176.2060  137.9890 C   0  0  2  0  0  3  0  0  0  0  0  0
  183.8410  174.8400  135.4130 O   0  0  0  0  0  0  0  0  0  0  0  0
  184.0270  173.5950  135.0280 O   0  0  0  0  0  1  0  0  0  0  0  0
  187.3350  177.1760  143.7420 C   0  0  0  0  0  3  0  0  0  0  0  0
  188.4970  177.2430  142.9570 C   0  0  0  0  0  0  0  0  0  0  0  0
  189.7510  177.1960  143.5770 C   0  0  0  0  0  3  0  0  0  0  0  0
  191.4180  177.0370  145.7340 Cl  0  0  0  0  0  0  0  0  0  0  0  0
  188.6860  177.0340  145.7460 C   0  0  0  0  0  3  0  0  0  0  0  0
  189.8460  177.0940  144.9680 C   0  0  0  0  0  0  0  0  0  0  0  0
  187.4310  177.0740  145.1330 C   0  0  0  0  0  3  0  0  0  0  0  0
  186.9290  179.3820  141.1620 C   0  0  0  0  0  2  0  0  0  0  0  0
  185.6710  179.7130  141.9420 C   0  0  0  0  0  1  0  0  0  0  0  0
  1 12  1  0  0  0  0
  1  9  1  0  0  0  0
  2 13  1  0  0  0  0
  2  4  2  0  0  0  0
  4  6  1  0  0  0  0
  5  2  1  1  0  0  0
  6 36  1  6  0  0  0
  6 15  1  0  0  0  0
  7  3  1  0  0  0  0
  7 11  1  0  0  0  0
  8 12  1  1  0  0  0
  8  5  1  0  0  0  0
  8 26  1  0  0  0  0
 10 17  1  0  0  0  0
 11 13  1  0  0  0  0
 13 10  1  0  0  0  0
 14  3  1  1  0  0  0
 14  1  1  0  0  0  0
 14  5  1  0  0  0  0
 15 30  1  1  0  0  0
 16  1  1  0  0  0  0
 17 15  1  0  0  0  0
 19 27  1  6  0  0  0
 19 18  1  0  0  0  0
 20 25  1  1  0  0  0
 21 19  1  0  0  0  0
 21 20  1  0  0  0  0
 22 20  1  0  0  0  0
 23 26  1  0  0  0  0
 24 22  1  1  0  0  0
 24 20  1  0  0  0  0
 24 23  1  0  0  0  0
 26 18  1  6  0  0  0
 28 27  1  0  0  0  0
 29 35  1  0  0  0  0
 30 31  1  0  0  0  0
 30 29  2  0  0  0  0
 31 34  2  0  0  0  0
 34 32  1  0  0  0  0
 34 33  1  0  0  0  0
 35 33  2  0  0  0  0
 36 37  1  0  0  0  0
M  END
>  <MODEL>
5

>  <REMARK>
 VINA RESULT:      -5.2      1.865      2.779
  Name = 
  4 active torsions:
  status: ('A' for Active; 'I' for Inactive)
    1  A    between atoms: C_5  and  O_12
    2  A    between atoms: C_6  and  C_31
    3  A    between atoms: C_7  and  C_14
    4  A    between atoms: C_20  and  C_36
                            x       y       z     vdW  Elec       q    Type
                         _______ _______ _______ _____ _____    ______ ____

>  <TORSDO>
F 4

$$$$
=
 OpenBabel10262422493D

 37 42  0  0  1  0  0  0  0  0999 V2000
  186.7090  174.0690  136.2970 C   0  0  0  0  0  0  0  0  0  0  0  0
  184.3020  176.1760  136.9890 C   0  0  0  0  0  0  0  0  0  0  0  0
  186.6650  176.3300  135.3410 O   0  0  0  0  0  0  0  0  0  0  0  0
  183.4270  175.9400  137.9770 C   0  0  0  0  0  3  0  0  0  0  0  0
  184.5230  175.1280  135.8930 C   0  0  2  0  0  3  0  0  0  0  0  0
  182.9520  176.9340  138.9990 C   0  0  1  0  0  3  0  0  0  0  0  0
  185.8680  177.2100  134.5940 C   0  0  0  0  0  2  0  0  0  0  0  0
  184.3250  173.6560  136.2720 C   0  0  1  0  0  3  0  0  0  0  0  0
  187.5220  174.7250  137.4030 C   0  0  0  0  0  1  0  0  0  0  0  0
  185.7120  178.0270  137.9350 C   0  0  0  0  0  2  0  0  0  0  0  0
  185.0630  178.1040  135.5380 C   0  0  0  0  0  2  0  0  0  0  0  0
  185.6200  173.2180  136.9340 C   0  0  0  0  0  2  0  0  0  0  0  0
  184.9000  177.4830  136.8530 N   0  0  0  0  0  0  0  0  0  0  0  0
  185.9870  175.0910  135.4050 C   0  0  2  0  0  3  0  0  0  0  0  0
  184.1050  177.5550  139.7940 C   0  0  1  0  0  3  0  0  0  0  0  0
  187.6140  173.1980  135.4500 C   0  0  0  0  0  1  0  0  0  0  0  0
  184.8480  178.6410  139.0220 C   0  0  0  0  0  2  0  0  0  0  0  0
  182.9530  171.7160  137.2930 C   0  0  0  0  0  2  0  0  0  0  0  0
  182.8690  170.7530  136.0700 C   0  0  1  0  0  3  0  0  0  0  0  0
  180.6050  171.8480  135.6100 C   0  0  2  0  0  0  0  0  0  0  0  0
  181.4940  170.6410  135.3600 C   0  0  0  0  0  2  0  0  0  0  0  0
  180.0120  172.8530  134.6420 C   0  0  0  0  0  2  0  0  0  0  0  0
  181.7780  173.8550  136.3560 C   0  0  0  0  0  2  0  0  0  0  0  0
  181.4310  173.0470  135.1230 C   0  0  1  0  0  3  0  0  0  0  0  0
  180.0580  171.9480  136.8970 O   0  0  0  0  0  1  0  0  0  0  0  0
  183.0400  173.2450  137.0050 C   0  0  2  0  0  3  0  0  0  0  0  0
  183.8790  171.0090  135.1410 O   0  0  0  0  0  0  0  0  0  0  0  0
  184.7650  170.0560  135.3400 O   0  0  0  0  0  1  0  0  0  0  0  0
  184.5540  178.2330  142.1920 C   0  0  0  0  0  3  0  0  0  0  0  0
  183.6490  178.0420  141.1360 C   0  0  0  0  0  0  0  0  0  0  0  0
  182.2960  178.3420  141.3250 C   0  0  0  0  0  3  0  0  0  0  0  0
  180.1510  179.1890  142.7890 Cl  0  0  0  0  0  0  0  0  0  0  0  0
  182.7490  178.9990  143.6120 C   0  0  0  0  0  3  0  0  0  0  0  0
  181.8450  178.8180  142.5610 C   0  0  0  0  0  0  0  0  0  0  0  0
  184.1030  178.7080  143.4280 C   0  0  0  0  0  3  0  0  0  0  0  0
  182.0110  177.9700  138.3850 C   0  0  0  0  0  2  0  0  0  0  0  0
  180.8430  177.2860  137.7000 C   0  0  0  0  0  1  0  0  0  0  0  0
  1 12  1  0  0  0  0
  1  9  1  0  0  0  0
  2  4  2  0  0  0  0
  4  6  1  0  0  0  0
  5  8  1  0  0  0  0
  5  2  1  1  0  0  0
  6 36  1  6  0  0  0
  6 15  1  0  0  0  0
  7  3  1  0  0  0  0
  7 11  1  0  0  0  0
  8 12  1  1  0  0  0
  8 26  1  0  0  0  0
 10 17  1  0  0  0  0
 11 13  1  0  0  0  0
 13  2  1  0  0  0  0
 13 10  1  0  0  0  0
 14  3  1  1  0  0  0
 14  5  1  0  0  0  0
 14  1  1  0  0  0  0
 15 30  1  1  0  0  0
 16  1  1  0  0  0  0
 17 15  1  0  0  0  0
 19 27  1  6  0  0  0
 19 18  1  0  0  0  0
 20 25  1  1  0  0  0
 21 20  1  0  0  0  0
 21 19  1  0  0  0  0
 22 20  1  0  0  0  0
 24 22  1  6  0  0  0
 24 20  1  0  0  0  0
 24 23  1  0  0  0  0
 26 23  1  6  0  0  0
 26 18  1  0  0  0  0
 27 28  1  0  0  0  0
 29 35  1  0  0  0  0
 30 31  1  0  0  0  0
 30 29  2  0  0  0  0
 31 34  2  0  0  0  0
 34 32  1  0  0  0  0
 34 33  1  0  0  0  0
 35 33  2  0  0  0  0
 37 36  1  0  0  0  0
M  END
>  <MODEL>
6

>  <REMARK>
 VINA RESULT:      -5.1      3.518      5.199
  Name = 
  4 active torsions:
  status: ('A' for Active; 'I' for Inactive)
    1  A    between atoms: C_5  and  O_12
    2  A    between atoms: C_6  and  C_31
    3  A    between atoms: C_7  and  C_14
    4  A    between atoms: C_20  and  C_36
                            x       y       z     vdW  Elec       q    Type
                         _______ _______ _______ _____ _____    ______ ____

>  <TORSDO>
F 4

$$$$
=
 OpenBabel10262422493D

 37 42  0  0  1  0  0  0  0  0999 V2000
  180.3410  175.4870  138.7070 C   0  0  0  0  0  0  0  0  0  0  0  0
  182.5440  176.4030  136.4660 C   0  0  0  0  0  0  0  0  0  0  0  0
  180.4630  174.4060  136.5070 O   0  0  0  0  0  0  0  0  0  0  0  0
  183.5650  177.2140  136.7780 C   0  0  0  0  0  3  0  0  0  0  0  0
  181.1050  176.8230  136.7840 C   0  0  2  0  0  3  0  0  0  0  0  0
  184.9960  177.0430  136.3560 C   0  0  1  0  0  3  0  0  0  0  0  0
  180.4290  174.6700  135.1300 C   0  0  0  0  0  2  0  0  0  0  0  0
  180.8860  177.7350  137.9980 C   0  0  1  0  0  3  0  0  0  0  0  0
  181.3070  174.3890  139.1240 C   0  0  0  0  0  1  0  0  0  0  0  0
  183.6790  174.1840  136.1590 C   0  0  0  0  0  2  0  0  0  0  0  0
  181.8550  174.8360  134.6030 C   0  0  0  0  0  2  0  0  0  0  0  0
  180.8740  176.8210  139.2110 C   0  0  0  0  0  2  0  0  0  0  0  0
  182.7780  175.2220  135.6700 N   0  0  0  0  0  0  0  0  0  0  0  0
  180.2180  175.6240  137.1810 C   0  0  2  0  0  3  0  0  0  0  0  0
  185.5770  175.6900  136.7830 C   0  0  1  0  0  3  0  0  0  0  0  0
  178.9770  175.2190  139.3090 C   0  0  0  0  0  1  0  0  0  0  0  0
  185.1300  174.5370  135.8890 C   0  0  0  0  0  2  0  0  0  0  0  0
  181.7060  179.6200  139.5670 C   0  0  0  0  0  2  0  0  0  0  0  0
  180.3440  180.1760  140.0790 C   0  0  1  0  0  3  0  0  0  0  0  0
  180.5680  181.9060  138.2110 C   0  0  2  0  0  0  0  0  0  0  0  0
  179.9010  181.5580  139.5310 C   0  0  0  0  0  2  0  0  0  0  0  0
  179.9700  182.1780  136.8440 C   0  0  0  0  0  2  0  0  0  0  0  0
  181.4930  180.0050  136.9910 C   0  0  0  0  0  2  0  0  0  0  0  0
  180.2040  180.7470  137.2720 C   0  0  1  0  0  3  0  0  0  0  0  0
  181.9270  182.2470  138.2850 O   0  0  0  0  0  1  0  0  0  0  0  0
  181.7440  179.0020  138.1370 C   0  0  2  0  0  3  0  0  0  0  0  0
  179.3170  179.2410  139.9350 O   0  0  0  0  0  0  0  0  0  0  0  0
  178.9310  178.9770  141.1660 O   0  0  0  0  0  1  0  0  0  0  0  0
  187.9010  174.8960  136.1670 C   0  0  0  0  0  3  0  0  0  0  0  0
  187.0690  175.7480  136.9110 C   0  0  0  0  0  0  0  0  0  0  0  0
  187.6410  176.6930  137.7680 C   0  0  0  0  0  3  0  0  0  0  0  0
  189.7370  177.9680  138.9680 Cl  0  0  0  0  0  0  0  0  0  0  0  0
  189.8550  175.9280  137.1550 C   0  0  0  0  0  3  0  0  0  0  0  0
  189.0310  176.7830  137.8920 C   0  0  0  0  0  0  0  0  0  0  0  0
  189.2910  174.9850  136.2920 C   0  0  0  0  0  3  0  0  0  0  0  0
  185.1860  177.3410  134.8690 C   0  0  0  0  0  2  0  0  0  0  0  0
  186.4960  178.0710  134.6370 C   0  0  0  0  0  1  0  0  0  0  0  0
  1  9  1  0  0  0  0
  1 12  1  0  0  0  0
  1 16  1  0  0  0  0
  2  4  2  0  0  0  0
  5  2  1  1  0  0  0
  5 14  1  0  0  0  0
  5  8  1  0  0  0  0
  6 36  1  6  0  0  0
  6  4  1  0  0  0  0
  6 15  1  0  0  0  0
  7  3  1  0  0  0  0
  8 26  1  0  0  0  0
  8 12  1  1  0  0  0
 11  7  1  0  0  0  0
 11 13  1  0  0  0  0
 13 10  1  0  0  0  0
 13  2  1  0  0  0  0
 14  3  1  6  0  0  0
 14  1  1  0  0  0  0
 15 30  1  6  0  0  0
 17 10  1  0  0  0  0
 17 15  1  0  0  0  0
 18 19  1  0  0  0  0
 19 27  1  6  0  0  0
 20 25  1  1  0  0  0
 20 21  1  0  0  0  0
 21 19  1  0  0  0  0
 22 20  1  0  0  0  0
 23 24  1  0  0  0  0
 24 22  1  6  0  0  0
 24 20  1  0  0  0  0
 26 23  1  6  0  0  0
 26 18  1  0  0  0  0
 27 28  1  0  0  0  0
 29 35  2  0  0  0  0
 29 30  1  0  0  0  0
 30 31  2  0  0  0  0
 31 34  1  0  0  0  0
 33 34  2  0  0  0  0
 34 32  1  0  0  0  0
 35 33  1  0  0  0  0
 37 36  1  0  0  0  0
M  END
>  <MODEL>
7

>  <REMARK>
 VINA RESULT:      -4.7      3.555      6.717
  Name = 
  4 active torsions:
  status: ('A' for Active; 'I' for Inactive)
    1  A    between atoms: C_5  and  O_12
    2  A    between atoms: C_6  and  C_31
    3  A    between atoms: C_7  and  C_14
    4  A    between atoms: C_20  and  C_36
                            x       y       z     vdW  Elec       q    Type
                         _______ _______ _______ _____ _____    ______ ____

>  <TORSDO>
F 4

$$$$
=
 OpenBabel10262422493D

 37 42  0  0  1  0  0  0  0  0999 V2000
  185.1090  177.1930  137.6920 C   0  0  0  0  0  0  0  0  0  0  0  0
  182.2880  178.5690  138.6200 C   0  0  0  0  0  0  0  0  0  0  0  0
  182.9440  176.1480  137.1960 O   0  0  0  0  0  0  0  0  0  0  0  0
  182.2400  179.8280  139.0780 C   0  0  0  0  0  3  0  0  0  0  0  0
  183.2450  177.5560  139.2600 C   0  0  2  0  0  3  0  0  0  0  0  0
  181.2270  180.8710  138.7010 C   0  0  1  0  0  3  0  0  0  0  0  0
  181.7640  175.6870  137.7960 C   0  0  0  0  0  2  0  0  0  0  0  0
  184.5460  178.0970  139.8640 C   0  0  1  0  0  3  0  0  0  0  0  0
  184.9200  177.8570  136.3370 C   0  0  0  0  0  1  0  0  0  0  0  0
  181.2280  178.7660  136.3520 C   0  0  0  0  0  2  0  0  0  0  0  0
  180.7060  176.7900  137.7650 C   0  0  0  0  0  2  0  0  0  0  0  0
  185.5120  178.2580  138.7030 C   0  0  0  0  0  2  0  0  0  0  0  0
  181.3170  178.1140  137.6540 N   0  0  0  0  0  0  0  0  0  0  0  0
  183.8160  176.5590  138.2290 C   0  0  2  0  0  3  0  0  0  0  0  0
  181.1770  181.1240  137.1900 C   0  0  1  0  0  3  0  0  0  0  0  0
  186.1940  176.1400  137.5950 C   0  0  0  0  0  1  0  0  0  0  0  0
  180.4140  180.0450  136.4270 C   0  0  0  0  0  2  0  0  0  0  0  0
  185.8710  179.7530  141.3450 C   0  0  0  0  0  2  0  0  0  0  0  0
  186.6840  178.7580  142.2270 C   0  0  1  0  0  3  0  0  0  0  0  0
  184.8050  179.0410  143.9370 C   0  0  2  0  0  0  0  0  0  0  0  0
  186.2460  178.6160  143.7080 C   0  0  0  0  0  2  0  0  0  0  0  0
  183.6140  178.2540  144.4490 C   0  0  0  0  0  2  0  0  0  0  0  0
  183.4130  179.0850  141.9330 C   0  0  0  0  0  2  0  0  0  0  0  0
  183.9840  178.1590  142.9860 C   0  0  1  0  0  3  0  0  0  0  0  0
  184.5590  180.4200  143.8800 O   0  0  0  0  0  1  0  0  0  0  0  0
  184.4750  179.2890  140.8300 C   0  0  2  0  0  3  0  0  0  0  0  0
  186.7880  177.5020  141.6260 O   0  0  0  0  0  0  0  0  0  0  0  0
  187.9930  177.4830  141.0970 O   0  0  0  0  0  1  0  0  0  0  0  0
  180.5340  182.9460  135.5530 C   0  0  0  0  0  3  0  0  0  0  0  0
  180.6620  182.4950  136.8770 C   0  0  0  0  0  0  0  0  0  0  0  0
  180.2700  183.3290  137.9300 C   0  0  0  0  0  3  0  0  0  0  0  0
  179.2790  185.6430  138.9890 Cl  0  0  0  0  0  0  0  0  0  0  0  0
  179.6470  185.0540  136.3470 C   0  0  0  0  0  3  0  0  0  0  0  0
  179.7650  184.6070  137.6660 C   0  0  0  0  0  0  0  0  0  0  0  0
  180.0310  184.2240  135.2910 C   0  0  0  0  0  3  0  0  0  0  0  0
  179.8570  180.5750  139.3110 C   0  0  0  0  0  2  0  0  0  0  0  0
  179.9710  180.4060  140.8140 C   0  0  0  0  0  1  0  0  0  0  0  0
  1 14  1  0  0  0  0
  1 12  1  0  0  0  0
  2  4  2  0  0  0  0
  3  7  1  0  0  0  0
  5  2  1  6  0  0  0
  5  8  1  0  0  0  0
  6  4  1  0  0  0  0
  6 36  1  6  0  0  0
  8 12  1  6  0  0  0
  8 26  1  0  0  0  0
  9  1  1  0  0  0  0
 10 17  1  0  0  0  0
 10 13  1  0  0  0  0
 11  7  1  0  0  0  0
 13 11  1  0  0  0  0
 13  2  1  0  0  0  0
 14  3  1  6  0  0  0
 14  5  1  0  0  0  0
 15 30  1  1  0  0  0
 15  6  1  0  0  0  0
 16  1  1  0  0  0  0
 17 15  1  0  0  0  0
 18 19  1  0  0  0  0
 19 27  1  6  0  0  0
 19 21  1  0  0  0  0
 20 25  1  6  0  0  0
 20 22  1  0  0  0  0
 21 20  1  0  0  0  0
 24 23  1  6  0  0  0
 24 20  1  0  0  0  0
 24 22  1  0  0  0  0
 26 18  1  1  0  0  0
 26 23  1  0  0  0  0
 28 27  1  0  0  0  0
 29 30  1  0  0  0  0
 30 31  2  0  0  0  0
 33 34  2  0  0  0  0
 34 31  1  0  0  0  0
 34 32  1  0  0  0  0
 35 29  2  0  0  0  0
 35 33  1  0  0  0  0
 36 37  1  0  0  0  0
M  END
>  <MODEL>
8

>  <REMARK>
 VINA RESULT:      -4.7      5.319      9.130
  Name = 
  4 active torsions:
  status: ('A' for Active; 'I' for Inactive)
    1  A    between atoms: C_5  and  O_12
    2  A    between atoms: C_6  and  C_31
    3  A    between atoms: C_7  and  C_14
    4  A    between atoms: C_20  and  C_36
                            x       y       z     vdW  Elec       q    Type
                         _______ _______ _______ _____ _____    ______ ____

>  <TORSDO>
F 4

$$$$
=
 OpenBabel10262422493D

 37 42  0  0  1  0  0  0  0  0999 V2000
  186.4400  176.4720  135.4640 C   0  0  0  0  0  0  0  0  0  0  0  0
  184.5430  177.0840  138.0600 C   0  0  0  0  0  0  0  0  0  0  0  0
  184.7010  174.8970  136.1850 O   0  0  0  0  0  0  0  0  0  0  0  0
  184.5140  178.2930  138.6380 C   0  0  0  0  0  3  0  0  0  0  0  0
  185.8790  176.3610  137.8600 C   0  0  2  0  0  3  0  0  0  0  0  0
  183.2870  179.0350  139.0850 C   0  0  1  0  0  3  0  0  0  0  0  0
  184.2560  174.1540  137.2890 C   0  0  0  0  0  2  0  0  0  0  0  0
  187.1280  177.2270  137.6570 C   0  0  1  0  0  3  0  0  0  0  0  0
  185.3340  177.0480  134.5940 C   0  0  0  0  0  1  0  0  0  0  0  0
  182.3160  176.9730  136.9050 C   0  0  0  0  0  2  0  0  0  0  0  0
  183.1890  174.9470  138.0460 C   0  0  0  0  0  2  0  0  0  0  0  0
  187.1330  177.6170  136.1900 C   0  0  0  0  0  2  0  0  0  0  0  0
  183.3100  176.3820  137.7940 N   0  0  0  0  0  0  0  0  0  0  0  0
  185.9070  175.5330  136.5570 C   0  0  2  0  0  3  0  0  0  0  0  0
  182.2820  179.2480  137.9470 C   0  0  1  0  0  3  0  0  0  0  0  0
  187.4380  175.7340  134.5960 C   0  0  0  0  0  1  0  0  0  0  0  0
  181.4640  177.9990  137.6300 C   0  0  0  0  0  2  0  0  0  0  0  0
  188.8300  178.9840  138.4970 C   0  0  0  0  0  2  0  0  0  0  0  0
  190.0480  178.0680  138.8230 C   0  0  1  0  0  3  0  0  0  0  0  0
  189.1620  178.0710  141.2200 C   0  0  2  0  0  0  0  0  0  0  0  0
  190.3640  177.8300  140.3220 C   0  0  0  0  0  2  0  0  0  0  0  0
  188.4240  177.1310  142.1540 C   0  0  0  0  0  2  0  0  0  0  0  0
  187.0010  178.0080  140.0880 C   0  0  0  0  0  2  0  0  0  0  0  0
  188.0790  177.1260  140.6830 C   0  0  1  0  0  3  0  0  0  0  0  0
  188.7910  179.4120  141.3970 O   0  0  0  0  0  1  0  0  0  0  0  0
  187.4050  178.3720  138.6430 C   0  0  2  0  0  3  0  0  0  0  0  0
  189.9760  176.8520  138.1390 O   0  0  0  0  0  0  0  0  0  0  0  0
  190.6470  176.0060  138.8920 O   0  0  0  0  0  1  0  0  0  0  0  0
  180.2010  180.3170  138.9160 C   0  0  0  0  0  3  0  0  0  0  0  0
  181.4050  180.4360  138.2020 C   0  0  0  0  0  0  0  0  0  0  0  0
  181.8140  181.6930  137.7450 C   0  0  0  0  0  3  0  0  0  0  0  0
  181.5450  184.3890  137.4090 Cl  0  0  0  0  0  0  0  0  0  0  0  0
  179.8250  182.6990  138.6910 C   0  0  0  0  0  3  0  0  0  0  0  0
  181.0250  182.8220  137.9860 C   0  0  0  0  0  0  0  0  0  0  0  0
  179.4130  181.4470  139.1570 C   0  0  0  0  0  3  0  0  0  0  0  0
  182.6670  178.4030  140.3310 C   0  0  0  0  0  2  0  0  0  0  0  0
  183.5880  178.5720  141.5250 C   0  0  0  0  0  1  0  0  0  0  0  0
  1 12  1  0  0  0  0
  1 14  1  0  0  0  0
  2  4  2  0  0  0  0
  3  7  1  0  0  0  0
  4  6  1  0  0  0  0
  5  2  1  6  0  0  0
  6 36  1  1  0  0  0
  7 11  1  0  0  0  0
  8 12  1  6  0  0  0
  8  5  1  0  0  0  0
  8 26  1  0  0  0  0
  9  1  1  0  0  0  0
 10 17  1  0  0  0  0
 10 13  1  0  0  0  0
 13 11  1  0  0  0  0
 13  2  1  0  0  0  0
 14  3  1  6  0  0  0
 14  5  1  0  0  0  0
 15 30  1  1  0  0  0
 15  6  1  0  0  0  0
 16  1  1  0  0  0  0
 17 15  1  0  0  0  0
 18 19  1  0  0  0  0
 19 27  1  6  0  0  0
 19 21  1  0  0  0  0
 20 25  1  1  0  0  0
 20 22  1  0  0  0  0
 21 20  1  0  0  0  0
 24 23  1  1  0  0  0
 24 20  1  0  0  0  0
 24 22  1  0  0  0  0
 26 18  1  1  0  0  0
 26 23  1  0  0  0  0
 27 28  1  0  0  0  0
 29 35  1  0  0  0  0
 30 29  2  0  0  0  0
 31 34  2  0  0  0  0
 31 30  1  0  0  0  0
 32 34  1  0  0  0  0
 33 35  2  0  0  0  0
 34 33  1  0  0  0  0
 36 37  1  0  0  0  0
M  END
>  <MODEL>
9

>  <REMARK>
 VINA RESULT:      -4.5      3.990      7.701
  Name = 
  4 active torsions:
  status: ('A' for Active; 'I' for Inactive)
    1  A    between atoms: C_5  and  O_12
    2  A    between atoms: C_6  and  C_31
    3  A    between atoms: C_7  and  C_14
    4  A    between atoms: C_20  and  C_36
                            x       y       z     vdW  Elec       q    Type
                         _______ _______ _______ _____ _____    ______ ____

>  <TORSDO>
F 4

$$$$
