=
 OpenBabel10262421203D

 32 37  0  0  1  0  0  0  0  0999 V2000
  188.4860  177.8820  141.3950 C   0  0  2  0  0  3  0  0  0  0  0  0
  188.7270  177.6190  139.9430 C   0  0  0  0  0  0  0  0  0  0  0  0
  187.7180  177.9470  139.0080 C   0  0  0  0  0  3  0  0  0  0  0  0
  190.7600  176.3480  136.2060 C   0  0  0  0  0  0  0  0  0  0  0  0
  189.9440  177.0520  139.5030 C   0  0  0  0  0  3  0  0  0  0  0  0
  189.5180  176.8560  135.9970 N   0  0  0  0  0  2  0  0  0  0  0  0
  189.1220  177.1580  137.2400 C   0  0  0  0  0  0  0  0  0  0  0  0
  187.9090  177.7160  137.6340 C   0  0  0  0  0  3  0  0  0  0  0  0
  191.1580  176.3180  137.5040 N   0  0  0  0  0  2  0  0  0  0  0  0
  191.7080  175.8170  134.9870 S   0  0  0  0  0  0  0  0  0  0  0  0
  190.0970  176.8390  138.1370 C   0  0  0  0  0  0  0  0  0  0  0  0
  188.3650  176.6720  142.0890 O   0  0  0  0  0  0  0  0  0  0  0  0
  189.4570  176.6230  142.9610 C   0  0  1  0  0  3  0  0  0  0  0  0
  190.3620  175.6650  142.4960 O   0  0  0  0  0  1  0  0  0  0  0  0
  190.5070  178.4440  144.4710 C   0  0  2  0  0  3  0  0  0  0  0  0
  190.1040  178.0160  143.0450 C   0  0  1  0  0  3  0  0  0  0  0  0
  191.5570  177.9610  143.4830 C   0  0  0  0  0  2  0  0  0  0  0  0
  190.2360  177.4180  145.4820 N   0  0  0  0  0  0  0  0  0  0  0  0
  189.3500  178.0220  146.4740 C   0  0  1  0  0  3  0  0  0  0  0  0
  187.9010  177.7600  146.1110 C   0  0  0  0  0  2  0  0  0  0  0  0
  188.5620  176.9360  147.1900 C   0  0  2  0  0  3  0  0  0  0  0  0
  188.1350  177.4550  148.5470 C   0  0  0  0  0  1  0  0  0  0  0  0
  191.4940  177.1450  146.1710 C   0  0  0  0  0  2  0  0  0  0  0  0
  192.0050  175.9180  145.7450 O   0  0  0  0  0  0  0  0  0  0  0  0
  192.4750  176.0190  148.0710 C   0  0  0  0  0  1  0  0  0  0  0  0
  192.0680  175.1450  146.9040 C   0  0  0  0  0  2  0  0  0  0  0  0
  187.2370  178.7320  141.5820 C   0  0  0  0  0  2  0  0  0  0  0  0
  186.3170  178.0920  142.6030 C   0  0  0  0  0  2  0  0  0  0  0  0
  185.3310  179.1220  143.1120 C   0  0  1  0  0  3  0  0  0  0  0  0
  183.9340  178.5310  143.1080 C   0  0  2  0  0  3  0  0  0  0  0  0
  183.2250  178.9740  144.3730 C   0  0  0  0  0  2  0  0  0  0  0  0
  184.7010  178.6270  144.4000 C   0  0  2  0  0  3  0  0  0  0  0  0
  1 27  1  6  0  0  0
  1 12  1  0  0  0  0
  2  1  1  0  0  0  0
  3  2  2  0  0  0  0
  4  9  1  0  0  0  0
  5  2  1  0  0  0  0
  6  4  1  0  0  0  0
  6  7  1  0  0  0  0
  7  8  2  0  0  0  0
  7 11  1  0  0  0  0
  8  3  1  0  0  0  0
  9 11  1  0  0  0  0
 10  4  2  0  0  0  0
 11  5  2  0  0  0  0
 12 13  1  0  0  0  0
 13 14  1  6  0  0  0
 15 18  1  1  0  0  0
 16 13  1  1  0  0  0
 16 17  1  0  0  0  0
 16 15  1  0  0  0  0
 17 15  1  0  0  0  0
 18 23  1  0  0  0  0
 19 18  1  6  0  0  0
 19 21  1  0  0  0  0
 20 19  1  0  0  0  0
 20 21  1  0  0  0  0
 21 22  1  1  0  0  0
 24 23  1  0  0  0  0
 24 26  1  0  0  0  0
 26 25  1  0  0  0  0
 27 28  1  0  0  0  0
 29 28  1  6  0  0  0
 29 32  1  0  0  0  0
 30 29  1  0  0  0  0
 30 31  1  1  0  0  0
 30 32  1  0  0  0  0
 32 31  1  1  0  0  0
M  END
>  <MODEL>
1

>  <REMARK>
 VINA RESULT:      -7.8      0.000      0.000
  Name = 
  12 active torsions:
  status: ('A' for Active; 'I' for Inactive)
    1  A    between atoms: O_1  and  C_4
    2  A    between atoms: O_1  and  C_5
    3  A    between atoms: C_2  and  C_5
    4  A    between atoms: C_3  and  N_20
    5  A    between atoms: C_4  and  C_24
    6  A    between atoms: C_5  and  C_14
    7  A    between atoms: C_13  and  C_30
    8  A    between atoms: C_14  and  C_30
    9  A    between atoms: C_15  and  N_20
   10  A    between atoms: C_15  and  O_26
   11  A    between atoms: C_16  and  N_20
   12  A    between atoms: C_19  and  O_26
                            x       y       z     vdW  Elec       q    Type
                         _______ _______ _______ _____ _____    ______ ____

>  <TORSDO>
F 12

$$$$
=
 OpenBabel10262421203D

 32 37  0  0  1  0  0  0  0  0999 V2000
  186.1090  178.3510  144.6130 C   0  0  2  0  0  3  0  0  0  0  0  0
  184.8800  178.4720  143.7720 C   0  0  0  0  0  0  0  0  0  0  0  0
  183.6670  178.8690  144.3800 C   0  0  0  0  0  3  0  0  0  0  0  0
  182.2280  178.4090  140.2110 C   0  0  0  0  0  0  0  0  0  0  0  0
  184.9220  178.1980  142.3870 C   0  0  0  0  0  3  0  0  0  0  0  0
  181.5890  178.7760  141.3520 N   0  0  0  0  0  2  0  0  0  0  0  0
  182.5730  178.7190  142.2590 C   0  0  0  0  0  0  0  0  0  0  0  0
  182.4900  178.9970  143.6210 C   0  0  0  0  0  3  0  0  0  0  0  0
  183.5490  178.1300  140.3570 N   0  0  0  0  0  2  0  0  0  0  0  0
  181.4670  178.3150  138.7700 S   0  0  0  0  0  0  0  0  0  0  0  0
  183.7380  178.3360  141.6680 C   0  0  0  0  0  0  0  0  0  0  0  0
  186.4120  177.0010  144.8310 O   0  0  0  0  0  0  0  0  0  0  0  0
  187.6660  176.7940  144.2500 C   0  0  1  0  0  3  0  0  0  0  0  0
  187.5110  175.9910  143.1160 O   0  0  0  0  0  1  0  0  0  0  0  0
  189.7840  178.0830  143.5060 C   0  0  2  0  0  3  0  0  0  0  0  0
  188.2940  178.1540  143.8960 C   0  0  1  0  0  3  0  0  0  0  0  0
  188.7130  178.2440  142.4390 C   0  0  0  0  0  2  0  0  0  0  0  0
  190.3180  176.7170  143.5030 N   0  0  0  0  0  0  0  0  0  0  0  0
  191.4730  176.7100  144.3980 C   0  0  1  0  0  3  0  0  0  0  0  0
  191.3860  177.8650  145.3760 C   0  0  0  0  0  2  0  0  0  0  0  0
  191.0150  176.4720  145.8290 C   0  0  2  0  0  3  0  0  0  0  0  0
  192.1640  175.8820  146.6180 C   0  0  0  0  0  1  0  0  0  0  0  0
  190.8370  176.4570  142.1640 C   0  0  0  0  0  2  0  0  0  0  0  0
  191.9910  177.2140  141.9530 O   0  0  0  0  0  0  0  0  0  0  0  0
  190.8260  176.7620  139.9340 C   0  0  0  0  0  1  0  0  0  0  0  0
  191.9930  177.4750  140.5840 C   0  0  0  0  0  2  0  0  0  0  0  0
  185.9210  179.0760  145.9390 C   0  0  0  0  0  2  0  0  0  0  0  0
  186.0580  178.1010  147.0920 C   0  0  0  0  0  2  0  0  0  0  0  0
  187.0560  178.6410  148.0950 C   0  0  1  0  0  3  0  0  0  0  0  0
  187.9920  177.5270  148.5280 C   0  0  2  0  0  3  0  0  0  0  0  0
  189.3950  178.0930  148.6200 C   0  0  0  0  0  2  0  0  0  0  0  0
  188.4560  178.5420  147.5180 C   0  0  2  0  0  3  0  0  0  0  0  0
  1 12  1  0  0  0  0
  1 27  1  1  0  0  0
  2  3  1  0  0  0  0
  2  1  1  0  0  0  0
  4  9  1  0  0  0  0
  4  6  1  0  0  0  0
  5  2  2  0  0  0  0
  6  7  1  0  0  0  0
  7  8  1  0  0  0  0
  8  3  2  0  0  0  0
  9 11  1  0  0  0  0
 10  4  2  0  0  0  0
 11  7  2  0  0  0  0
 11  5  1  0  0  0  0
 13 14  1  6  0  0  0
 13 12  1  0  0  0  0
 15 18  1  6  0  0  0
 15 16  1  0  0  0  0
 16 13  1  6  0  0  0
 17 15  1  0  0  0  0
 17 16  1  0  0  0  0
 19 18  1  6  0  0  0
 19 20  1  0  0  0  0
 19 21  1  0  0  0  0
 20 21  1  0  0  0  0
 21 22  1  1  0  0  0
 23 18  1  0  0  0  0
 24 23  1  0  0  0  0
 25 26  1  0  0  0  0
 26 24  1  0  0  0  0
 27 28  1  0  0  0  0
 29 28  1  6  0  0  0
 29 30  1  0  0  0  0
 30 31  1  1  0  0  0
 32 29  1  0  0  0  0
 32 30  1  0  0  0  0
 32 31  1  1  0  0  0
M  END
>  <MODEL>
2

>  <REMARK>
 VINA RESULT:      -7.4      3.354      5.983
  Name = 
  12 active torsions:
  status: ('A' for Active; 'I' for Inactive)
    1  A    between atoms: O_1  and  C_4
    2  A    between atoms: O_1  and  C_5
    3  A    between atoms: C_2  and  C_5
    4  A    between atoms: C_3  and  N_20
    5  A    between atoms: C_4  and  C_24
    6  A    between atoms: C_5  and  C_14
    7  A    between atoms: C_13  and  C_30
    8  A    between atoms: C_14  and  C_30
    9  A    between atoms: C_15  and  N_20
   10  A    between atoms: C_15  and  O_26
   11  A    between atoms: C_16  and  N_20
   12  A    between atoms: C_19  and  O_26
                            x       y       z     vdW  Elec       q    Type
                         _______ _______ _______ _____ _____    ______ ____

>  <TORSDO>
F 12

$$$$
=
 OpenBabel10262421203D

 32 37  0  0  1  0  0  0  0  0999 V2000
  184.7460  179.3400  143.5420 C   0  0  2  0  0  3  0  0  0  0  0  0
  185.0380  179.0430  142.1060 C   0  0  0  0  0  0  0  0  0  0  0  0
  183.9630  178.9140  141.1980 C   0  0  0  0  0  3  0  0  0  0  0  0
  187.3220  178.2150  138.3890 C   0  0  0  0  0  0  0  0  0  0  0  0
  186.3690  178.8950  141.6550 C   0  0  0  0  0  3  0  0  0  0  0  0
  185.9770  178.2400  138.2010 N   0  0  0  0  0  2  0  0  0  0  0  0
  185.5220  178.5000  139.4340 C   0  0  0  0  0  0  0  0  0  0  0  0
  184.1980  178.6370  139.8390 C   0  0  0  0  0  3  0  0  0  0  0  0
  187.7280  178.4460  139.6650 N   0  0  0  0  0  2  0  0  0  0  0  0
  188.3730  177.9350  137.1720 S   0  0  0  0  0  0  0  0  0  0  0  0
  186.5620  178.6230  140.3040 C   0  0  0  0  0  0  0  0  0  0  0  0
  184.9930  178.2070  144.3270 O   0  0  0  0  0  0  0  0  0  0  0  0
  185.9730  178.5880  145.2480 C   0  0  1  0  0  3  0  0  0  0  0  0
  185.5300  179.7230  145.9340 O   0  0  0  0  0  1  0  0  0  0  0  0
  187.6950  176.8830  146.1570 C   0  0  2  0  0  3  0  0  0  0  0  0
  186.2500  177.4200  146.2100 C   0  0  1  0  0  3  0  0  0  0  0  0
  187.2460  177.7820  147.2980 C   0  0  0  0  0  2  0  0  0  0  0  0
  188.5530  177.6190  145.2240 N   0  0  0  0  0  0  0  0  0  0  0  0
  189.0780  176.6450  144.2700 C   0  0  1  0  0  3  0  0  0  0  0  0
  187.9990  176.2460  143.2820 C   0  0  0  0  0  2  0  0  0  0  0  0
  189.0620  177.2360  142.8690 C   0  0  2  0  0  3  0  0  0  0  0  0
  190.1040  176.5290  142.0280 C   0  0  0  0  0  1  0  0  0  0  0  0
  189.7010  178.1070  145.9830 C   0  0  0  0  0  2  0  0  0  0  0  0
  190.7330  177.1680  145.9270 O   0  0  0  0  0  0  0  0  0  0  0  0
  192.1030  175.8340  147.3350 C   0  0  0  0  0  1  0  0  0  0  0  0
  191.0580  176.9280  147.2610 C   0  0  0  0  0  2  0  0  0  0  0  0
  183.3050  179.8010  143.7080 C   0  0  0  0  0  2  0  0  0  0  0  0
  182.4700  178.6940  144.3230 C   0  0  0  0  0  2  0  0  0  0  0  0
  181.2610  178.4280  143.4510 C   0  0  1  0  0  3  0  0  0  0  0  0
  179.9990  178.5410  144.2860 C   0  0  2  0  0  3  0  0  0  0  0  0
  178.9460  179.2590  143.4650 C   0  0  0  0  0  2  0  0  0  0  0  0
  180.4020  179.6770  143.3840 C   0  0  2  0  0  3  0  0  0  0  0  0
  1 27  1  6  0  0  0
  1 12  1  0  0  0  0
  2  1  1  0  0  0  0
  3  2  2  0  0  0  0
  4  9  1  0  0  0  0
  5  2  1  0  0  0  0
  6  4  1  0  0  0  0
  6  7  1  0  0  0  0
  7  8  2  0  0  0  0
  7 11  1  0  0  0  0
  8  3  1  0  0  0  0
  9 11  1  0  0  0  0
 10  4  2  0  0  0  0
 11  5  2  0  0  0  0
 12 13  1  0  0  0  0
 13 14  1  1  0  0  0
 15 18  1  6  0  0  0
 15 16  1  0  0  0  0
 15 17  1  0  0  0  0
 16 13  1  6  0  0  0
 16 17  1  0  0  0  0
 18 23  1  0  0  0  0
 19 18  1  1  0  0  0
 20 19  1  0  0  0  0
 21 22  1  6  0  0  0
 21 20  1  0  0  0  0
 21 19  1  0  0  0  0
 24 23  1  0  0  0  0
 24 26  1  0  0  0  0
 26 25  1  0  0  0  0
 27 28  1  0  0  0  0
 29 30  1  0  0  0  0
 29 28  1  1  0  0  0
 30 31  1  6  0  0  0
 32 29  1  0  0  0  0
 32 31  1  6  0  0  0
 32 30  1  0  0  0  0
M  END
>  <MODEL>
3

>  <REMARK>
 VINA RESULT:      -7.3      2.521      4.319
  Name = 
  12 active torsions:
  status: ('A' for Active; 'I' for Inactive)
    1  A    between atoms: O_1  and  C_4
    2  A    between atoms: O_1  and  C_5
    3  A    between atoms: C_2  and  C_5
    4  A    between atoms: C_3  and  N_20
    5  A    between atoms: C_4  and  C_24
    6  A    between atoms: C_5  and  C_14
    7  A    between atoms: C_13  and  C_30
    8  A    between atoms: C_14  and  C_30
    9  A    between atoms: C_15  and  N_20
   10  A    between atoms: C_15  and  O_26
   11  A    between atoms: C_16  and  N_20
   12  A    between atoms: C_19  and  O_26
                            x       y       z     vdW  Elec       q    Type
                         _______ _______ _______ _____ _____    ______ ____

>  <TORSDO>
F 12

$$$$
=
 OpenBabel10262421203D

 32 37  0  0  1  0  0  0  0  0999 V2000
  184.9990  178.5940  142.0970 C   0  0  2  0  0  3  0  0  0  0  0  0
  186.4470  178.2230  142.0650 C   0  0  0  0  0  0  0  0  0  0  0  0
  187.2330  178.6170  140.9590 C   0  0  0  0  0  3  0  0  0  0  0  0
  190.3510  176.5080  143.3030 C   0  0  0  0  0  0  0  0  0  0  0  0
  187.0280  177.4890  143.1230 C   0  0  0  0  0  3  0  0  0  0  0  0
  190.4000  177.1500  142.1070 N   0  0  0  0  0  2  0  0  0  0  0  0
  189.1360  177.5670  141.9570 C   0  0  0  0  0  0  0  0  0  0  0  0
  188.5990  178.2890  140.8940 C   0  0  0  0  0  3  0  0  0  0  0  0
  189.1330  176.5030  143.9030 N   0  0  0  0  0  2  0  0  0  0  0  0
  191.6600  175.7990  143.9730 S   0  0  0  0  0  0  0  0  0  0  0  0
  188.3820  177.1830  143.0240 C   0  0  0  0  0  0  0  0  0  0  0  0
  184.6510  179.2740  140.9230 O   0  0  0  0  0  0  0  0  0  0  0  0
  183.9410  178.3530  140.1470 C   0  0  1  0  0  3  0  0  0  0  0  0
  182.8940  177.8320  140.9120 O   0  0  0  0  0  1  0  0  0  0  0  0
  183.7510  178.3110  137.5660 C   0  0  2  0  0  3  0  0  0  0  0  0
  183.4190  179.0500  138.8780 C   0  0  1  0  0  3  0  0  0  0  0  0
  182.3540  178.2410  138.1620 C   0  0  0  0  0  2  0  0  0  0  0  0
  184.4680  177.0500  137.7760 N   0  0  0  0  0  0  0  0  0  0  0  0
  185.6280  177.0680  136.8890 C   0  0  1  0  0  3  0  0  0  0  0  0
  186.5560  178.2070  137.2610 C   0  0  0  0  0  2  0  0  0  0  0  0
  186.8930  176.7990  137.6890 C   0  0  2  0  0  3  0  0  0  0  0  0
  187.9480  176.2350  136.7610 C   0  0  0  0  0  1  0  0  0  0  0  0
  183.6040  175.9750  137.2980 C   0  0  0  0  0  2  0  0  0  0  0  0
  183.6650  174.8970  138.1830 O   0  0  0  0  0  0  0  0  0  0  0  0
  185.2420  173.1830  137.7190 C   0  0  0  0  0  1  0  0  0  0  0  0
  183.9000  173.7900  137.3680 C   0  0  0  0  0  2  0  0  0  0  0  0
  184.6960  179.4500  143.3190 C   0  0  0  0  0  2  0  0  0  0  0  0
  183.7460  178.7180  144.2470 C   0  0  0  0  0  2  0  0  0  0  0  0
  184.0800  179.0590  145.6840 C   0  0  1  0  0  3  0  0  0  0  0  0
  184.9790  177.9840  146.2640 C   0  0  2  0  0  3  0  0  0  0  0  0
  186.0430  178.6570  147.1090 C   0  0  0  0  0  2  0  0  0  0  0  0
  185.5730  179.2920  145.8150 C   0  0  2  0  0  3  0  0  0  0  0  0
  1 27  1  1  0  0  0
  2  1  1  0  0  0  0
  2  5  1  0  0  0  0
  3  2  2  0  0  0  0
  4  9  1  0  0  0  0
  4 10  2  0  0  0  0
  6  4  1  0  0  0  0
  7  6  1  0  0  0  0
  7 11  1  0  0  0  0
  8  3  1  0  0  0  0
  8  7  2  0  0  0  0
 11  5  2  0  0  0  0
 11  9  1  0  0  0  0
 12  1  1  0  0  0  0
 13 14  1  1  0  0  0
 13 12  1  0  0  0  0
 15 18  1  1  0  0  0
 15 17  1  0  0  0  0
 15 16  1  0  0  0  0
 16 13  1  1  0  0  0
 17 16  1  0  0  0  0
 19 20  1  0  0  0  0
 19 21  1  0  0  0  0
 19 18  1  1  0  0  0
 20 21  1  0  0  0  0
 21 22  1  6  0  0  0
 23 18  1  0  0  0  0
 23 24  1  0  0  0  0
 26 25  1  0  0  0  0
 26 24  1  0  0  0  0
 27 28  1  0  0  0  0
 29 28  1  6  0  0  0
 29 32  1  0  0  0  0
 29 30  1  0  0  0  0
 30 31  1  1  0  0  0
 32 30  1  0  0  0  0
 32 31  1  1  0  0  0
M  END
>  <MODEL>
4

>  <REMARK>
 VINA RESULT:      -7.1      3.669      7.683
  Name = 
  12 active torsions:
  status: ('A' for Active; 'I' for Inactive)
    1  A    between atoms: O_1  and  C_4
    2  A    between atoms: O_1  and  C_5
    3  A    between atoms: C_2  and  C_5
    4  A    between atoms: C_3  and  N_20
    5  A    between atoms: C_4  and  C_24
    6  A    between atoms: C_5  and  C_14
    7  A    between atoms: C_13  and  C_30
    8  A    between atoms: C_14  and  C_30
    9  A    between atoms: C_15  and  N_20
   10  A    between atoms: C_15  and  O_26
   11  A    between atoms: C_16  and  N_20
   12  A    between atoms: C_19  and  O_26
                            x       y       z     vdW  Elec       q    Type
                         _______ _______ _______ _____ _____    ______ ____

>  <TORSDO>
F 12

$$$$
=
 OpenBabel10262421203D

 32 37  0  0  1  0  0  0  0  0999 V2000
  185.5630  178.6090  141.8460 C   0  0  2  0  0  3  0  0  0  0  0  0
  186.9660  178.2120  142.1760 C   0  0  0  0  0  0  0  0  0  0  0  0
  187.9440  178.2320  141.1550 C   0  0  0  0  0  3  0  0  0  0  0  0
  190.4890  176.8660  144.5200 C   0  0  0  0  0  0  0  0  0  0  0  0
  187.3180  177.8220  143.4870 C   0  0  0  0  0  3  0  0  0  0  0  0
  190.7720  177.1110  143.2150 N   0  0  0  0  0  2  0  0  0  0  0  0
  189.5820  177.4920  142.7330 C   0  0  0  0  0  0  0  0  0  0  0  0
  189.2750  177.8670  141.4280 C   0  0  0  0  0  3  0  0  0  0  0  0
  189.1940  177.0730  144.8760 N   0  0  0  0  0  2  0  0  0  0  0  0
  191.6190  176.3640  145.5860 S   0  0  0  0  0  0  0  0  0  0  0  0
  188.6430  177.4690  143.7190 C   0  0  0  0  0  0  0  0  0  0  0  0
  185.5400  179.3520  140.6600 O   0  0  0  0  0  0  0  0  0  0  0  0
  184.1970  179.4130  140.2760 C   0  0  1  0  0  3  0  0  0  0  0  0
  184.1000  180.1390  139.0860 O   0  0  0  0  0  1  0  0  0  0  0  0
  182.1300  177.8570  140.3430 C   0  0  2  0  0  3  0  0  0  0  0  0
  183.6490  177.9850  140.1110 C   0  0  1  0  0  3  0  0  0  0  0  0
  182.6990  177.8540  138.9340 C   0  0  0  0  0  2  0  0  0  0  0  0
  181.4780  179.1370  140.6380 N   0  0  0  0  0  0  0  0  0  0  0  0
  180.4050  178.8590  141.5880 C   0  0  1  0  0  3  0  0  0  0  0  0
  180.9770  178.3080  142.8800 C   0  0  0  0  0  2  0  0  0  0  0  0
  180.5510  179.7560  142.8080 C   0  0  2  0  0  3  0  0  0  0  0  0
  179.1970  179.9110  143.4670 C   0  0  0  0  0  1  0  0  0  0  0  0
  180.8300  179.5860  139.4090 C   0  0  0  0  0  2  0  0  0  0  0  0
  180.6640  180.9710  139.4470 O   0  0  0  0  0  0  0  0  0  0  0  0
  180.8030  181.7850  137.2200 C   0  0  0  0  0  1  0  0  0  0  0  0
  179.9000  181.2620  138.3180 C   0  0  0  0  0  2  0  0  0  0  0  0
  184.9530  179.4080  142.9890 C   0  0  0  0  0  2  0  0  0  0  0  0
  184.1220  178.5020  143.8760 C   0  0  0  0  0  2  0  0  0  0  0  0
  184.1240  179.0390  145.2920 C   0  0  1  0  0  3  0  0  0  0  0  0
  184.8490  178.0640  146.2010 C   0  0  2  0  0  3  0  0  0  0  0  0
  185.7040  178.8600  147.1680 C   0  0  0  0  0  2  0  0  0  0  0  0
  185.5530  179.3080  145.7280 C   0  0  2  0  0  3  0  0  0  0  0  0
  1  2  1  0  0  0  0
  1 27  1  1  0  0  0
  2  5  1  0  0  0  0
  3  8  1  0  0  0  0
  3  2  2  0  0  0  0
  4  9  1  0  0  0  0
  4 10  2  0  0  0  0
  5 11  2  0  0  0  0
  6  4  1  0  0  0  0
  7  6  1  0  0  0  0
  7 11  1  0  0  0  0
  8  7  2  0  0  0  0
 11  9  1  0  0  0  0
 12  1  1  0  0  0  0
 13 14  1  6  0  0  0
 13 12  1  0  0  0  0
 15 18  1  6  0  0  0
 16 13  1  6  0  0  0
 16 15  1  0  0  0  0
 17 16  1  0  0  0  0
 17 15  1  0  0  0  0
 19 18  1  6  0  0  0
 19 21  1  0  0  0  0
 19 20  1  0  0  0  0
 21 20  1  0  0  0  0
 21 22  1  1  0  0  0
 23 24  1  0  0  0  0
 23 18  1  0  0  0  0
 25 26  1  0  0  0  0
 26 24  1  0  0  0  0
 27 28  1  0  0  0  0
 29 28  1  6  0  0  0
 29 32  1  0  0  0  0
 29 30  1  0  0  0  0
 30 31  1  1  0  0  0
 32 30  1  0  0  0  0
 32 31  1  1  0  0  0
M  END
>  <MODEL>
5

>  <REMARK>
 VINA RESULT:      -7.1      4.345      8.314
  Name = 
  12 active torsions:
  status: ('A' for Active; 'I' for Inactive)
    1  A    between atoms: O_1  and  C_4
    2  A    between atoms: O_1  and  C_5
    3  A    between atoms: C_2  and  C_5
    4  A    between atoms: C_3  and  N_20
    5  A    between atoms: C_4  and  C_24
    6  A    between atoms: C_5  and  C_14
    7  A    between atoms: C_13  and  C_30
    8  A    between atoms: C_14  and  C_30
    9  A    between atoms: C_15  and  N_20
   10  A    between atoms: C_15  and  O_26
   11  A    between atoms: C_16  and  N_20
   12  A    between atoms: C_19  and  O_26
                            x       y       z     vdW  Elec       q    Type
                         _______ _______ _______ _____ _____    ______ ____

>  <TORSDO>
F 12

$$$$
=
 OpenBabel10262421203D

 32 37  0  0  1  0  0  0  0  0999 V2000
  188.3310  178.0970  141.5000 C   0  0  2  0  0  3  0  0  0  0  0  0
  188.3390  177.8950  140.0180 C   0  0  0  0  0  0  0  0  0  0  0  0
  189.4370  178.3710  139.2660 C   0  0  0  0  0  3  0  0  0  0  0  0
  187.0410  176.6330  135.9640 C   0  0  0  0  0  0  0  0  0  0  0  0
  187.2690  177.2370  139.3730 C   0  0  0  0  0  3  0  0  0  0  0  0
  188.2410  177.2690  135.9720 N   0  0  0  0  0  2  0  0  0  0  0  0
  188.4090  177.5430  137.2720 C   0  0  0  0  0  0  0  0  0  0  0  0
  189.4820  178.1980  137.8710 C   0  0  0  0  0  3  0  0  0  0  0  0
  186.4560  176.4960  137.1820 N   0  0  0  0  0  2  0  0  0  0  0  0
  186.3540  176.0700  134.5940 S   0  0  0  0  0  0  0  0  0  0  0  0
  187.3480  177.0840  137.9920 C   0  0  0  0  0  0  0  0  0  0  0  0
  188.2170  176.8640  142.1530 O   0  0  0  0  0  0  0  0  0  0  0  0
  189.4390  176.6620  142.8010 C   0  0  1  0  0  3  0  0  0  0  0  0
  190.1890  175.7350  142.0730 O   0  0  0  0  0  1  0  0  0  0  0  0
  190.6800  178.3230  144.3510 C   0  0  2  0  0  3  0  0  0  0  0  0
  190.1760  178.0070  142.9290 C   0  0  1  0  0  3  0  0  0  0  0  0
  191.6430  177.8400  143.2790 C   0  0  0  0  0  2  0  0  0  0  0  0
  190.3990  177.2550  145.3160 N   0  0  0  0  0  0  0  0  0  0  0  0
  189.6490  177.8600  146.4140 C   0  0  1  0  0  3  0  0  0  0  0  0
  188.2550  178.2370  145.9520 C   0  0  0  0  0  2  0  0  0  0  0  0
  188.4590  176.9830  146.7700 C   0  0  2  0  0  3  0  0  0  0  0  0
  188.0630  177.2540  148.2060 C   0  0  0  0  0  1  0  0  0  0  0  0
  191.6780  176.8330  145.8790 C   0  0  0  0  0  2  0  0  0  0  0  0
  191.5970  176.8230  147.2720 O   0  0  0  0  0  0  0  0  0  0  0  0
  193.1580  175.8900  148.7990 C   0  0  0  0  0  1  0  0  0  0  0  0
  192.2080  175.6290  147.6500 C   0  0  0  0  0  2  0  0  0  0  0  0
  187.1930  179.0230  141.9050 C   0  0  0  0  0  2  0  0  0  0  0  0
  186.1580  178.2590  142.7080 C   0  0  0  0  0  2  0  0  0  0  0  0
  185.2020  179.2340  143.3600 C   0  0  1  0  0  3  0  0  0  0  0  0
  183.8130  178.6250  143.4110 C   0  0  2  0  0  3  0  0  0  0  0  0
  183.1920  178.9630  144.7520 C   0  0  0  0  0  2  0  0  0  0  0  0
  184.6690  178.6360  144.6490 C   0  0  2  0  0  3  0  0  0  0  0  0
  1 27  1  6  0  0  0
  1 12  1  0  0  0  0
  2  1  1  0  0  0  0
  3  2  2  0  0  0  0
  4  6  1  0  0  0  0
  4  9  1  0  0  0  0
  5  2  1  0  0  0  0
  6  7  1  0  0  0  0
  7  8  2  0  0  0  0
  7 11  1  0  0  0  0
  8  3  1  0  0  0  0
  9 11  1  0  0  0  0
 10  4  2  0  0  0  0
 11  5  2  0  0  0  0
 12 13  1  0  0  0  0
 13 14  1  6  0  0  0
 15 18  1  1  0  0  0
 16 13  1  1  0  0  0
 16 17  1  0  0  0  0
 16 15  1  0  0  0  0
 17 15  1  0  0  0  0
 18 23  1  0  0  0  0
 19 18  1  6  0  0  0
 19 21  1  0  0  0  0
 20 19  1  0  0  0  0
 20 21  1  0  0  0  0
 21 22  1  1  0  0  0
 23 24  1  0  0  0  0
 24 26  1  0  0  0  0
 26 25  1  0  0  0  0
 27 28  1  0  0  0  0
 29 28  1  6  0  0  0
 29 30  1  0  0  0  0
 29 32  1  0  0  0  0
 30 32  1  0  0  0  0
 30 31  1  1  0  0  0
 32 31  1  1  0  0  0
M  END
>  <MODEL>
6

>  <REMARK>
 VINA RESULT:      -7.0      1.410      1.733
  Name = 
  12 active torsions:
  status: ('A' for Active; 'I' for Inactive)
    1  A    between atoms: O_1  and  C_4
    2  A    between atoms: O_1  and  C_5
    3  A    between atoms: C_2  and  C_5
    4  A    between atoms: C_3  and  N_20
    5  A    between atoms: C_4  and  C_24
    6  A    between atoms: C_5  and  C_14
    7  A    between atoms: C_13  and  C_30
    8  A    between atoms: C_14  and  C_30
    9  A    between atoms: C_15  and  N_20
   10  A    between atoms: C_15  and  O_26
   11  A    between atoms: C_16  and  N_20
   12  A    between atoms: C_19  and  O_26
                            x       y       z     vdW  Elec       q    Type
                         _______ _______ _______ _____ _____    ______ ____

>  <TORSDO>
F 12

$$$$
=
 OpenBabel10262421203D

 32 37  0  0  1  0  0  0  0  0999 V2000
  185.2510  178.8440  141.9270 C   0  0  2  0  0  3  0  0  0  0  0  0
  186.6350  178.2790  141.9500 C   0  0  0  0  0  0  0  0  0  0  0  0
  187.0430  177.5030  143.0590 C   0  0  0  0  0  3  0  0  0  0  0  0
  190.7790  177.3170  140.6780 C   0  0  0  0  0  0  0  0  0  0  0  0
  187.5290  178.5130  140.8810 C   0  0  0  0  0  3  0  0  0  0  0  0
  190.4480  176.7830  141.8810 N   0  0  0  0  0  2  0  0  0  0  0  0
  189.1860  177.2040  142.0410 C   0  0  0  0  0  0  0  0  0  0  0  0
  188.3360  176.9530  143.1150 C   0  0  0  0  0  3  0  0  0  0  0  0
  189.7980  178.0430  140.0810 N   0  0  0  0  0  2  0  0  0  0  0  0
  192.2460  177.1000  139.9950 S   0  0  0  0  0  0  0  0  0  0  0  0
  188.7990  177.9520  140.9710 C   0  0  0  0  0  0  0  0  0  0  0  0
  185.1200  179.7530  140.8700 O   0  0  0  0  0  0  0  0  0  0  0  0
  184.0640  179.2750  140.0880 C   0  0  1  0  0  3  0  0  0  0  0  0
  184.4340  179.3390  138.7420 O   0  0  0  0  0  1  0  0  0  0  0  0
  182.2170  177.5290  140.5800 C   0  0  2  0  0  3  0  0  0  0  0  0
  183.7270  177.8340  140.5120 C   0  0  1  0  0  3  0  0  0  0  0  0
  183.0520  177.0420  139.4070 C   0  0  0  0  0  2  0  0  0  0  0  0
  181.3780  178.6630  140.1840 N   0  0  0  0  0  0  0  0  0  0  0  0
  180.2660  178.7200  141.1290 C   0  0  1  0  0  3  0  0  0  0  0  0
  180.7840  178.6700  142.5530 C   0  0  0  0  0  2  0  0  0  0  0  0
  180.3570  179.9920  141.9580 C   0  0  2  0  0  3  0  0  0  0  0  0
  178.9760  180.3450  142.4660 C   0  0  0  0  0  1  0  0  0  0  0  0
  180.7950  178.3390  138.8850 C   0  0  0  0  0  2  0  0  0  0  0  0
  181.2630  179.2360  137.9240 O   0  0  0  0  0  0  0  0  0  0  0  0
  181.4870  181.5630  138.3430 C   0  0  0  0  0  1  0  0  0  0  0  0
  180.5340  180.4020  138.1510 C   0  0  0  0  0  2  0  0  0  0  0  0
  184.9300  179.5200  143.2540 C   0  0  0  0  0  2  0  0  0  0  0  0
  184.0360  178.6270  144.0920 C   0  0  0  0  0  2  0  0  0  0  0  0
  184.2060  178.9720  145.5560 C   0  0  1  0  0  3  0  0  0  0  0  0
  185.1180  177.9530  146.2140 C   0  0  2  0  0  3  0  0  0  0  0  0
  186.0470  178.6870  147.1620 C   0  0  0  0  0  2  0  0  0  0  0  0
  185.6600  179.3050  145.8320 C   0  0  2  0  0  3  0  0  0  0  0  0
  1  2  1  0  0  0  0
  1 27  1  1  0  0  0
  2  3  1  0  0  0  0
  3  8  2  0  0  0  0
  4  6  1  0  0  0  0
  5 11  1  0  0  0  0
  5  2  2  0  0  0  0
  6  7  1  0  0  0  0
  7  8  1  0  0  0  0
  9  4  1  0  0  0  0
  9 11  1  0  0  0  0
 10  4  2  0  0  0  0
 11  7  2  0  0  0  0
 12  1  1  0  0  0  0
 13 14  1  6  0  0  0
 13 12  1  0  0  0  0
 15 18  1  6  0  0  0
 16 13  1  6  0  0  0
 16 15  1  0  0  0  0
 17 16  1  0  0  0  0
 17 15  1  0  0  0  0
 19 18  1  6  0  0  0
 19 21  1  0  0  0  0
 19 20  1  0  0  0  0
 21 22  1  1  0  0  0
 21 20  1  0  0  0  0
 23 18  1  0  0  0  0
 24 26  1  0  0  0  0
 24 23  1  0  0  0  0
 26 25  1  0  0  0  0
 27 28  1  0  0  0  0
 29 28  1  6  0  0  0
 29 32  1  0  0  0  0
 29 30  1  0  0  0  0
 30 31  1  1  0  0  0
 32 30  1  0  0  0  0
 32 31  1  1  0  0  0
M  END
>  <MODEL>
7

>  <REMARK>
 VINA RESULT:      -6.9      3.982      7.843
  Name = 
  12 active torsions:
  status: ('A' for Active; 'I' for Inactive)
    1  A    between atoms: O_1  and  C_4
    2  A    between atoms: O_1  and  C_5
    3  A    between atoms: C_2  and  C_5
    4  A    between atoms: C_3  and  N_20
    5  A    between atoms: C_4  and  C_24
    6  A    between atoms: C_5  and  C_14
    7  A    between atoms: C_13  and  C_30
    8  A    between atoms: C_14  and  C_30
    9  A    between atoms: C_15  and  N_20
   10  A    between atoms: C_15  and  O_26
   11  A    between atoms: C_16  and  N_20
   12  A    between atoms: C_19  and  O_26
                            x       y       z     vdW  Elec       q    Type
                         _______ _______ _______ _____ _____    ______ ____

>  <TORSDO>
F 12

$$$$
=
 OpenBabel10262421203D

 32 37  0  0  1  0  0  0  0  0999 V2000
  185.1390  179.0430  141.3250 C   0  0  2  0  0  3  0  0  0  0  0  0
  186.0740  178.5690  140.2590 C   0  0  0  0  0  0  0  0  0  0  0  0
  185.5840  178.3930  138.9450 C   0  0  0  0  0  3  0  0  0  0  0  0
  189.8030  177.2030  138.2740 C   0  0  0  0  0  0  0  0  0  0  0  0
  187.4290  178.3010  140.5530 C   0  0  0  0  0  3  0  0  0  0  0  0
  188.7400  177.2760  137.4310 N   0  0  0  0  0  2  0  0  0  0  0  0
  187.7630  177.6990  138.2440 C   0  0  0  0  0  0  0  0  0  0  0  0
  186.4330  177.9510  137.9140 C   0  0  0  0  0  3  0  0  0  0  0  0
  189.5430  177.5560  139.5590 N   0  0  0  0  0  2  0  0  0  0  0  0
  191.2850  176.7300  137.7780 S   0  0  0  0  0  0  0  0  0  0  0  0
  188.2390  177.8660  139.5090 C   0  0  0  0  0  0  0  0  0  0  0  0
  185.0650  178.0970  142.3560 O   0  0  0  0  0  0  0  0  0  0  0  0
  185.6050  178.7220  143.4840 C   0  0  1  0  0  3  0  0  0  0  0  0
  185.0710  180.0100  143.5840 O   0  0  0  0  0  1  0  0  0  0  0  0
  186.5310  177.3890  145.5000 C   0  0  2  0  0  3  0  0  0  0  0  0
  185.2870  177.8810  144.7330 C   0  0  1  0  0  3  0  0  0  0  0  0
  185.7150  178.5610  146.0210 C   0  0  0  0  0  2  0  0  0  0  0  0
  187.7930  177.8530  144.9170 N   0  0  0  0  0  0  0  0  0  0  0  0
  188.5320  176.6640  144.5000 C   0  0  1  0  0  3  0  0  0  0  0  0
  187.9950  176.1490  143.1790 C   0  0  0  0  0  2  0  0  0  0  0  0
  189.2770  176.9480  143.2050 C   0  0  2  0  0  3  0  0  0  0  0  0
  190.4550  176.0030  143.1010 C   0  0  0  0  0  1  0  0  0  0  0  0
  188.5700  178.4610  145.9930 C   0  0  0  0  0  2  0  0  0  0  0  0
  189.1170  177.4600  146.7990 O   0  0  0  0  0  0  0  0  0  0  0  0
  188.0800  177.9330  148.8820 C   0  0  0  0  0  1  0  0  0  0  0  0
  189.3240  178.0780  148.0310 C   0  0  0  0  0  2  0  0  0  0  0  0
  183.7570  179.3070  140.7430 C   0  0  0  0  0  2  0  0  0  0  0  0
  182.7490  178.3370  141.3300 C   0  0  0  0  0  2  0  0  0  0  0  0
  181.6310  179.1110  141.9940 C   0  0  1  0  0  3  0  0  0  0  0  0
  180.6620  178.1410  142.6460 C   0  0  2  0  0  3  0  0  0  0  0  0
  180.2470  178.7120  143.9880 C   0  0  0  0  0  2  0  0  0  0  0  0
  181.6710  178.8710  143.4920 C   0  0  2  0  0  3  0  0  0  0  0  0
  1 27  1  6  0  0  0
  1 12  1  0  0  0  0
  2  5  1  0  0  0  0
  2  1  1  0  0  0  0
  3  2  2  0  0  0  0
  4  9  1  0  0  0  0
  6  7  1  0  0  0  0
  6  4  1  0  0  0  0
  7 11  1  0  0  0  0
  8  7  2  0  0  0  0
  8  3  1  0  0  0  0
 10  4  2  0  0  0  0
 11  9  1  0  0  0  0
 11  5  2  0  0  0  0
 12 13  1  0  0  0  0
 13 14  1  1  0  0  0
 15 18  1  6  0  0  0
 15 17  1  0  0  0  0
 16 13  1  6  0  0  0
 16 15  1  0  0  0  0
 16 17  1  0  0  0  0
 18 23  1  0  0  0  0
 19 18  1  6  0  0  0
 20 21  1  0  0  0  0
 20 19  1  0  0  0  0
 21 22  1  1  0  0  0
 21 19  1  0  0  0  0
 23 24  1  0  0  0  0
 24 26  1  0  0  0  0
 26 25  1  0  0  0  0
 27 28  1  0  0  0  0
 29 28  1  6  0  0  0
 29 30  1  0  0  0  0
 29 32  1  0  0  0  0
 30 32  1  0  0  0  0
 30 31  1  1  0  0  0
 32 31  1  1  0  0  0
M  END
>  <MODEL>
8

>  <REMARK>
 VINA RESULT:      -6.8      2.196      3.755
  Name = 
  12 active torsions:
  status: ('A' for Active; 'I' for Inactive)
    1  A    between atoms: O_1  and  C_4
    2  A    between atoms: O_1  and  C_5
    3  A    between atoms: C_2  and  C_5
    4  A    between atoms: C_3  and  N_20
    5  A    between atoms: C_4  and  C_24
    6  A    between atoms: C_5  and  C_14
    7  A    between atoms: C_13  and  C_30
    8  A    between atoms: C_14  and  C_30
    9  A    between atoms: C_15  and  N_20
   10  A    between atoms: C_15  and  O_26
   11  A    between atoms: C_16  and  N_20
   12  A    between atoms: C_19  and  O_26
                            x       y       z     vdW  Elec       q    Type
                         _______ _______ _______ _____ _____    ______ ____

>  <TORSDO>
F 12

$$$$
=
 OpenBabel10262421203D

 32 37  0  0  1  0  0  0  0  0999 V2000
  187.5250  177.9580  141.5520 C   0  0  2  0  0  3  0  0  0  0  0  0
  186.2340  178.2120  142.2600 C   0  0  0  0  0  0  0  0  0  0  0  0
  186.2210  178.2500  143.6740 C   0  0  0  0  0  3  0  0  0  0  0  0
  181.9210  179.0310  142.9250 C   0  0  0  0  0  0  0  0  0  0  0  0
  185.0390  178.4160  141.5350 C   0  0  0  0  0  3  0  0  0  0  0  0
  182.6330  178.9290  144.0770 N   0  0  0  0  0  2  0  0  0  0  0  0
  183.8700  178.6860  143.6250 C   0  0  0  0  0  0  0  0  0  0  0  0
  185.0260  178.4890  144.3760 C   0  0  0  0  0  3  0  0  0  0  0  0
  182.6430  178.8680  141.7860 N   0  0  0  0  0  2  0  0  0  0  0  0
  180.3160  179.3330  142.9090 S   0  0  0  0  0  0  0  0  0  0  0  0
  183.8770  178.6500  142.2630 C   0  0  0  0  0  0  0  0  0  0  0  0
  188.5400  178.7520  142.1010 O   0  0  0  0  0  0  0  0  0  0  0  0
  189.2200  177.9280  143.0030 C   0  0  1  0  0  3  0  0  0  0  0  0
  189.4140  176.6760  142.4130 O   0  0  0  0  0  1  0  0  0  0  0  0
  191.0900  178.1840  144.7740 C   0  0  2  0  0  3  0  0  0  0  0  0
  190.5580  178.5850  143.3840 C   0  0  1  0  0  3  0  0  0  0  0  0
  191.6880  177.5790  143.5140 C   0  0  0  0  0  2  0  0  0  0  0  0
  190.2370  177.2100  145.4620 N   0  0  0  0  0  0  0  0  0  0  0  0
  189.6420  177.8970  146.6050 C   0  0  1  0  0  3  0  0  0  0  0  0
  188.2140  178.2980  146.2910 C   0  0  0  0  0  2  0  0  0  0  0  0
  188.4780  177.0830  147.1480 C   0  0  2  0  0  3  0  0  0  0  0  0
  188.2650  177.4430  148.6030 C   0  0  0  0  0  1  0  0  0  0  0  0
  191.1130  176.1800  146.0150 C   0  0  0  0  0  2  0  0  0  0  0  0
  191.8920  176.7270  147.0350 O   0  0  0  0  0  0  0  0  0  0  0  0
  193.1840  176.0760  148.9180 C   0  0  0  0  0  1  0  0  0  0  0  0
  192.4700  175.6240  147.6620 C   0  0  0  0  0  2  0  0  0  0  0  0
  187.3790  178.2350  140.0620 C   0  0  0  0  0  2  0  0  0  0  0  0
  188.7450  178.3400  139.4130 C   0  0  0  0  0  2  0  0  0  0  0  0
  189.1890  176.9710  138.9450 C   0  0  1  0  0  3  0  0  0  0  0  0
  190.2650  177.1220  137.8850 C   0  0  2  0  0  3  0  0  0  0  0  0
  191.3290  176.0700  138.1310 C   0  0  0  0  0  2  0  0  0  0  0  0
  190.6510  176.7660  139.2960 C   0  0  2  0  0  3  0  0  0  0  0  0
  1 27  1  6  0  0  0
  1 12  1  0  0  0  0
  1  2  1  0  0  0  0
  2  3  1  0  0  0  0
  3  8  2  0  0  0  0
  4  6  1  0  0  0  0
  5  2  2  0  0  0  0
  5 11  1  0  0  0  0
  7  6  1  0  0  0  0
  7  8  1  0  0  0  0
  9 11  1  0  0  0  0
  9  4  1  0  0  0  0
 10  4  2  0  0  0  0
 11  7  2  0  0  0  0
 12 13  1  0  0  0  0
 13 14  1  6  0  0  0
 15 18  1  1  0  0  0
 16 13  1  1  0  0  0
 16 17  1  0  0  0  0
 16 15  1  0  0  0  0
 17 15  1  0  0  0  0
 18 23  1  0  0  0  0
 19 18  1  6  0  0  0
 19 21  1  0  0  0  0
 20 19  1  0  0  0  0
 20 21  1  0  0  0  0
 21 22  1  1  0  0  0
 23 24  1  0  0  0  0
 24 26  1  0  0  0  0
 26 25  1  0  0  0  0
 28 27  1  0  0  0  0
 29 32  1  0  0  0  0
 29 28  1  1  0  0  0
 30 31  1  6  0  0  0
 30 29  1  0  0  0  0
 30 32  1  0  0  0  0
 32 31  1  6  0  0  0
M  END
>  <MODEL>
9

>  <REMARK>
 VINA RESULT:      -6.8      3.462      5.914
  Name = 
  12 active torsions:
  status: ('A' for Active; 'I' for Inactive)
    1  A    between atoms: O_1  and  C_4
    2  A    between atoms: O_1  and  C_5
    3  A    between atoms: C_2  and  C_5
    4  A    between atoms: C_3  and  N_20
    5  A    between atoms: C_4  and  C_24
    6  A    between atoms: C_5  and  C_14
    7  A    between atoms: C_13  and  C_30
    8  A    between atoms: C_14  and  C_30
    9  A    between atoms: C_15  and  N_20
   10  A    between atoms: C_15  and  O_26
   11  A    between atoms: C_16  and  N_20
   12  A    between atoms: C_19  and  O_26
                            x       y       z     vdW  Elec       q    Type
                         _______ _______ _______ _____ _____    ______ ____

>  <TORSDO>
F 12

$$$$
