=
 OpenBabel10252415013D

 34 38  0  0  1  0  0  0  0  0999 V2000
  188.9560  177.1100  146.3980 C   0  0  0  0  0  0  0  0  0  0  0  0
  190.9370  177.1110  144.9740 C   0  0  0  0  0  0  0  0  0  0  0  0
  188.6760  177.5650  144.0260 C   0  0  0  0  0  0  0  0  0  0  0  0
  188.3620  178.0160  141.7070 C   0  0  0  0  0  0  0  0  0  0  0  0
  191.1370  176.6650  147.3500 C   0  0  0  0  0  3  0  0  0  0  0  0
  191.7200  176.8130  146.0920 C   0  0  0  0  0  3  0  0  0  0  0  0
  189.5340  177.2640  145.1110 C   0  0  0  0  0  0  0  0  0  0  0  0
  189.7600  176.8120  147.5010 C   0  0  0  0  0  3  0  0  0  0  0  0
  187.2850  177.7010  144.2490 C   0  0  0  0  0  0  0  0  0  0  0  0
  187.6170  177.2500  146.5740 N   0  0  0  0  0  0  0  0  0  0  0  0
  191.5720  177.2440  143.7440 O   0  0  0  0  0  1  0  0  0  0  0  0
  186.9880  178.1580  141.8890 C   0  0  0  0  0  3  0  0  0  0  0  0
  186.4360  178.0020  143.1660 C   0  0  0  0  0  0  0  0  0  0  0  0
  189.1640  177.7300  142.7650 N   0  0  0  0  0  0  0  0  0  0  0  0
  186.7840  177.5370  145.5440 C   0  0  0  0  0  3  0  0  0  0  0  0
  182.6950  178.3040  142.2580 C   0  0  2  0  0  3  0  0  0  0  0  0
  182.3530  178.8420  143.5270 O   0  0  0  0  0  0  0  0  0  0  0  0
  184.9540  178.1500  143.3610 C   0  0  2  0  0  3  0  0  0  0  0  0
  183.2110  179.9210  143.8210 C   0  0  0  0  0  2  0  0  0  0  0  0
  184.2050  178.1100  142.0290 C   0  0  0  0  0  2  0  0  0  0  0  0
  184.6140  179.4120  144.1630 C   0  0  0  0  0  2  0  0  0  0  0  0
  182.0720  179.1090  141.1290 C   0  0  0  0  0  1  0  0  0  0  0  0
  188.9580  178.2110  140.3550 C   0  0  0  0  0  2  0  0  0  0  0  0
  191.2570  177.2880  140.1060 C   0  0  0  0  0  1  0  0  0  0  0  0
  189.7780  176.9910  139.9480 C   0  0  2  0  0  3  0  0  0  0  0  0
  188.3360  176.8120  138.0810 C   0  0  0  0  0  3  0  0  0  0  0  0
  189.5090  176.6490  138.5760 N   0  0  0  0  0  0  0  0  0  0  0  0
  187.2380  178.7030  136.1890 O   0  0  0  0  0  1  0  0  0  0  0  0
  188.0530  176.4630  136.6480 C   0  0  2  0  0  3  0  0  0  0  0  0
  186.9600  177.3450  136.0210 C   0  0  1  0  0  3  0  0  0  0  0  0
  185.2780  175.6000  136.3590 N   0  0  0  0  0  2  0  0  0  0  0  0
  186.2370  174.7750  137.0910 C   0  0  0  0  0  2  0  0  0  0  0  0
  187.6500  174.9910  136.5420 C   0  0  0  0  0  2  0  0  0  0  0  0
  185.5880  177.0080  136.6040 C   0  0  0  0  0  2  0  0  0  0  0  0
  1 10  1  0  0  0  0
  1  8  2  0  0  0  0
  2  7  2  0  0  0  0
  2  6  1  0  0  0  0
  3  9  1  0  0  0  0
  3  7  1  0  0  0  0
  4 12  2  0  0  0  0
  4 14  1  0  0  0  0
  5  8  1  0  0  0  0
  6  5  2  0  0  0  0
  7  1  1  0  0  0  0
  9 15  1  0  0  0  0
 11  2  1  0  0  0  0
 12 13  1  0  0  0  0
 13  9  2  0  0  0  0
 14  3  2  0  0  0  0
 15 10  2  0  0  0  0
 16 22  1  6  0  0  0
 16 17  1  0  0  0  0
 17 19  1  0  0  0  0
 18 13  1  6  0  0  0
 18 21  1  0  0  0  0
 19 21  1  0  0  0  0
 20 16  1  0  0  0  0
 20 18  1  0  0  0  0
 23  4  1  0  0  0  0
 25 24  1  6  0  0  0
 25 23  1  0  0  0  0
 26 27  2  0  0  0  0
 27 25  1  0  0  0  0
 29 26  1  1  0  0  0
 30 28  1  1  0  0  0
 30 34  1  0  0  0  0
 30 29  1  0  0  0  0
 31 34  1  0  0  0  0
 31 32  1  0  0  0  0
 33 29  1  0  0  0  0
 33 32  1  0  0  0  0
M  END
>  <MODEL>
1

>  <REMARK>
 VINA RESULT:      -9.6      0.000      0.000
  Name = 
  5 active torsions:
  status: ('A' for Active; 'I' for Inactive)
    1  A    between atoms: C_3  and  C_13
    2  A    between atoms: C_5  and  C_18
    3  A    between atoms: C_12  and  C_28
    4  A    between atoms: N_17  and  C_29
    5  A    between atoms: C_18  and  C_29
                            x       y       z     vdW  Elec       q    Type
                         _______ _______ _______ _____ _____    ______ ____

>  <TORSDO>
F 5

$$$$
=
 OpenBabel10252415013D

 34 38  0  0  1  0  0  0  0  0999 V2000
  191.0970  177.0000  145.0160 C   0  0  0  0  0  0  0  0  0  0  0  0
  189.1290  177.0380  146.4560 C   0  0  0  0  0  0  0  0  0  0  0  0
  188.9230  177.3740  143.9940 C   0  0  0  0  0  0  0  0  0  0  0  0
  186.8090  177.7420  142.9570 C   0  0  0  0  0  0  0  0  0  0  0  0
  191.3320  176.6710  147.4030 C   0  0  0  0  0  3  0  0  0  0  0  0
  189.9530  176.8060  147.5610 C   0  0  0  0  0  3  0  0  0  0  0  0
  189.6930  177.1400  145.1590 C   0  0  0  0  0  0  0  0  0  0  0  0
  191.9010  176.7680  146.1350 C   0  0  0  0  0  3  0  0  0  0  0  0
  189.5650  177.4620  142.7360 C   0  0  0  0  0  0  0  0  0  0  0  0
  191.6780  177.0890  143.7920 N   0  0  0  0  0  0  0  0  0  0  0  0
  187.7610  177.1670  146.6730 O   0  0  0  0  0  1  0  0  0  0  0  0
  187.4070  177.8340  141.7010 C   0  0  0  0  0  3  0  0  0  0  0  0
  188.7950  177.6940  141.5800 C   0  0  0  0  0  0  0  0  0  0  0  0
  187.5700  177.5130  144.0590 N   0  0  0  0  0  0  0  0  0  0  0  0
  190.9540  177.3140  142.6680 C   0  0  0  0  0  3  0  0  0  0  0  0
  189.2120  178.5920  137.8470 C   0  0  2  0  0  3  0  0  0  0  0  0
  190.2770  177.6710  137.6670 O   0  0  0  0  0  0  0  0  0  0  0  0
  189.4390  177.7990  140.2270 C   0  0  2  0  0  3  0  0  0  0  0  0
  189.8900  176.4100  138.1650 C   0  0  0  0  0  2  0  0  0  0  0  0
  188.5420  178.5360  139.2320 C   0  0  0  0  0  2  0  0  0  0  0  0
  189.8610  176.4240  139.6950 C   0  0  0  0  0  2  0  0  0  0  0  0
  188.1800  178.4700  136.7390 C   0  0  0  0  0  1  0  0  0  0  0  0
  185.3290  177.8610  143.0870 C   0  0  0  0  0  2  0  0  0  0  0  0
  183.8900  179.6650  144.0210 C   0  0  0  0  0  1  0  0  0  0  0  0
  184.8920  179.3140  142.9370 C   0  0  2  0  0  3  0  0  0  0  0  0
  183.4940  178.6330  141.1530 C   0  0  0  0  0  3  0  0  0  0  0  0
  184.2840  179.5150  141.6480 N   0  0  0  0  0  0  0  0  0  0  0  0
  181.2110  177.1080  140.2450 O   0  0  0  0  0  1  0  0  0  0  0  0
  182.8520  178.8430  139.8120 C   0  0  2  0  0  3  0  0  0  0  0  0
  182.1140  177.5950  139.2970 C   0  0  1  0  0  3  0  0  0  0  0  0
  184.0010  177.0040  137.8560 N   0  0  0  0  0  2  0  0  0  0  0  0
  184.8050  178.0910  138.4100 C   0  0  0  0  0  2  0  0  0  0  0  0
  183.9100  179.2720  138.7930 C   0  0  0  0  0  2  0  0  0  0  0  0
  183.1060  176.5030  138.8980 C   0  0  0  0  0  2  0  0  0  0  0  0
  1  7  1  0  0  0  0
  1  8  2  0  0  0  0
  2 11  1  0  0  0  0
  2  6  1  0  0  0  0
  3 14  1  0  0  0  0
  3  7  1  0  0  0  0
  4 23  1  0  0  0  0
  4 14  2  0  0  0  0
  5  6  2  0  0  0  0
  7  2  2  0  0  0  0
  8  5  1  0  0  0  0
  9  3  2  0  0  0  0
 10  1  1  0  0  0  0
 12  4  1  0  0  0  0
 13 12  2  0  0  0  0
 13  9  1  0  0  0  0
 15  9  1  0  0  0  0
 15 10  2  0  0  0  0
 16 22  1  6  0  0  0
 16 20  1  0  0  0  0
 17 16  1  0  0  0  0
 17 19  1  0  0  0  0
 18 13  1  1  0  0  0
 19 21  1  0  0  0  0
 20 18  1  0  0  0  0
 21 18  1  0  0  0  0
 25 23  1  0  0  0  0
 25 24  1  1  0  0  0
 26 27  2  0  0  0  0
 27 25  1  0  0  0  0
 29 26  1  1  0  0  0
 30 29  1  0  0  0  0
 30 28  1  1  0  0  0
 31 32  1  0  0  0  0
 31 34  1  0  0  0  0
 32 33  1  0  0  0  0
 33 29  1  0  0  0  0
 34 30  1  0  0  0  0
M  END
>  <MODEL>
2

>  <REMARK>
 VINA RESULT:      -9.3      2.157      5.309
  Name = 
  5 active torsions:
  status: ('A' for Active; 'I' for Inactive)
    1  A    between atoms: C_3  and  C_13
    2  A    between atoms: C_5  and  C_18
    3  A    between atoms: C_12  and  C_28
    4  A    between atoms: N_17  and  C_29
    5  A    between atoms: C_18  and  C_29
                            x       y       z     vdW  Elec       q    Type
                         _______ _______ _______ _____ _____    ______ ____

>  <TORSDO>
F 5

$$$$
=
 OpenBabel10252415013D

 34 38  0  0  1  0  0  0  0  0999 V2000
  186.6860  178.0940  138.4460 C   0  0  0  0  0  0  0  0  0  0  0  0
  186.5970  178.6080  140.8280 C   0  0  0  0  0  0  0  0  0  0  0  0
  188.6830  177.7270  139.7840 C   0  0  0  0  0  0  0  0  0  0  0  0
  190.6590  177.3560  141.0630 C   0  0  0  0  0  0  0  0  0  0  0  0
  184.6450  178.9470  139.4290 C   0  0  0  0  0  3  0  0  0  0  0  0
  185.2650  179.0030  140.6770 C   0  0  0  0  0  3  0  0  0  0  0  0
  187.3310  178.1440  139.7080 C   0  0  0  0  0  0  0  0  0  0  0  0
  185.3540  178.4940  138.3180 C   0  0  0  0  0  3  0  0  0  0  0  0
  189.3440  177.2770  138.6160 C   0  0  0  0  0  0  0  0  0  0  0  0
  187.3530  177.6580  137.3460 N   0  0  0  0  0  0  0  0  0  0  0  0
  187.1630  178.6810  142.0960 O   0  0  0  0  0  1  0  0  0  0  0  0
  191.3420  176.9070  139.9340 C   0  0  0  0  0  3  0  0  0  0  0  0
  190.6880  176.8640  138.6970 C   0  0  0  0  0  0  0  0  0  0  0  0
  189.3640  177.7540  140.9630 N   0  0  0  0  0  0  0  0  0  0  0  0
  188.6470  177.2540  137.4040 C   0  0  0  0  0  3  0  0  0  0  0  0
  191.8820  174.4360  135.9410 C   0  0  2  0  0  3  0  0  0  0  0  0
  192.9960  175.2490  135.6030 O   0  0  0  0  0  0  0  0  0  0  0  0
  191.4230  176.3760  137.4810 C   0  0  2  0  0  3  0  0  0  0  0  0
  193.7110  175.5680  136.7750 C   0  0  0  0  0  2  0  0  0  0  0  0
  191.0840  174.9190  137.1660 C   0  0  0  0  0  2  0  0  0  0  0  0
  192.9360  176.5870  137.6150 C   0  0  0  0  0  2  0  0  0  0  0  0
  192.2850  172.9800  136.0940 C   0  0  0  0  0  1  0  0  0  0  0  0
  191.3600  177.4310  142.3760 C   0  0  0  0  0  2  0  0  0  0  0  0
  191.4920  179.2130  144.1100 C   0  0  0  0  0  1  0  0  0  0  0  0
  190.5620  178.2770  143.3630 C   0  0  2  0  0  3  0  0  0  0  0  0
  188.9750  177.9000  145.0780 C   0  0  0  0  0  3  0  0  0  0  0  0
  189.8870  177.4270  144.3080 N   0  0  0  0  0  0  0  0  0  0  0  0
  186.0940  177.7110  145.2280 O   0  0  0  0  0  1  0  0  0  0  0  0
  188.2640  177.0150  146.0610 C   0  0  2  0  0  3  0  0  0  0  0  0
  186.8430  177.5010  146.3880 C   0  0  1  0  0  3  0  0  0  0  0  0
  187.6120  178.5230  148.4740 N   0  0  0  0  0  2  0  0  0  0  0  0
  189.0020  178.2130  148.1500 C   0  0  0  0  0  2  0  0  0  0  0  0
  189.0820  176.9100  147.3500 C   0  0  0  0  0  2  0  0  0  0  0  0
  186.8850  178.7760  147.2310 C   0  0  0  0  0  2  0  0  0  0  0  0
  1  7  1  0  0  0  0
  2 11  1  0  0  0  0
  3 14  1  0  0  0  0
  4 23  1  0  0  0  0
  5  6  2  0  0  0  0
  6  2  1  0  0  0  0
  7  3  1  0  0  0  0
  7  2  2  0  0  0  0
  8  1  2  0  0  0  0
  8  5  1  0  0  0  0
  9 13  1  0  0  0  0
  9  3  2  0  0  0  0
 10 15  2  0  0  0  0
 10  1  1  0  0  0  0
 12  4  1  0  0  0  0
 13 12  2  0  0  0  0
 14  4  2  0  0  0  0
 15  9  1  0  0  0  0
 16 22  1  1  0  0  0
 16 20  1  0  0  0  0
 17 16  1  0  0  0  0
 17 19  1  0  0  0  0
 18 21  1  0  0  0  0
 18 13  1  1  0  0  0
 19 21  1  0  0  0  0
 20 18  1  0  0  0  0
 23 25  1  0  0  0  0
 25 24  1  1  0  0  0
 25 27  1  0  0  0  0
 27 26  2  0  0  0  0
 29 26  1  6  0  0  0
 29 30  1  0  0  0  0
 29 33  1  0  0  0  0
 30 28  1  6  0  0  0
 30 34  1  0  0  0  0
 32 31  1  0  0  0  0
 33 32  1  0  0  0  0
 34 31  1  0  0  0  0
M  END
>  <MODEL>
3

>  <REMARK>
 VINA RESULT:      -9.2      2.750      8.826
  Name = 
  5 active torsions:
  status: ('A' for Active; 'I' for Inactive)
    1  A    between atoms: C_3  and  C_13
    2  A    between atoms: C_5  and  C_18
    3  A    between atoms: C_12  and  C_28
    4  A    between atoms: N_17  and  C_29
    5  A    between atoms: C_18  and  C_29
                            x       y       z     vdW  Elec       q    Type
                         _______ _______ _______ _____ _____    ______ ____

>  <TORSDO>
F 5

$$$$
=
 OpenBabel10252415013D

 34 38  0  0  1  0  0  0  0  0999 V2000
  190.3180  176.8180  140.1060 C   0  0  0  0  0  0  0  0  0  0  0  0
  188.6690  177.8550  138.6380 C   0  0  0  0  0  0  0  0  0  0  0  0
  188.2560  177.6500  141.0880 C   0  0  0  0  0  0  0  0  0  0  0  0
  186.2470  178.4550  142.0880 C   0  0  0  0  0  0  0  0  0  0  0  0
  190.7500  177.0010  137.7310 C   0  0  0  0  0  3  0  0  0  0  0  0
  189.5160  177.6260  137.5510 C   0  0  0  0  0  3  0  0  0  0  0  0
  189.0600  177.4510  139.9400 C   0  0  0  0  0  0  0  0  0  0  0  0
  191.1480  176.5990  139.0040 C   0  0  0  0  0  3  0  0  0  0  0  0
  188.7210  177.2160  142.3530 C   0  0  0  0  0  0  0  0  0  0  0  0
  190.7320  176.4170  141.3360 N   0  0  0  0  0  0  0  0  0  0  0  0
  187.4490  178.4790  138.4000 O   0  0  0  0  0  1  0  0  0  0  0  0
  186.6730  178.0410  143.3490 C   0  0  0  0  0  3  0  0  0  0  0  0
  187.9180  177.4170  143.4930 C   0  0  0  0  0  0  0  0  0  0  0  0
  187.0390  178.2560  141.0020 N   0  0  0  0  0  0  0  0  0  0  0  0
  189.9720  176.5990  142.4430 C   0  0  0  0  0  3  0  0  0  0  0  0
  188.0390  177.1360  147.3420 C   0  0  2  0  0  3  0  0  0  0  0  0
  189.3520  176.5960  147.3360 O   0  0  0  0  0  0  0  0  0  0  0  0
  188.3730  176.9670  144.8510 C   0  0  2  0  0  3  0  0  0  0  0  0
  190.1890  177.4150  146.5510 C   0  0  0  0  0  2  0  0  0  0  0  0
  187.5240  177.5840  145.9620 C   0  0  0  0  0  2  0  0  0  0  0  0
  189.8670  177.2410  145.0640 C   0  0  0  0  0  2  0  0  0  0  0  0
  187.9050  178.2540  148.3620 C   0  0  0  0  0  1  0  0  0  0  0  0
  184.9360  179.1460  141.9340 C   0  0  0  0  0  2  0  0  0  0  0  0
  184.1450  179.4230  139.5890 C   0  0  0  0  0  1  0  0  0  0  0  0
  184.1260  178.5170  140.8050 C   0  0  2  0  0  3  0  0  0  0  0  0
  181.7880  178.7050  140.4850 C   0  0  0  0  0  3  0  0  0  0  0  0
  182.7640  178.3210  141.2260 N   0  0  0  0  0  0  0  0  0  0  0  0
  179.5220  179.6070  138.9320 O   0  0  0  0  0  1  0  0  0  0  0  0
  180.3660  178.4950  140.9180 C   0  0  2  0  0  3  0  0  0  0  0  0
  179.3980  179.5310  140.3220 C   0  0  1  0  0  3  0  0  0  0  0  0
  179.4170  180.8280  142.3960 N   0  0  0  0  0  2  0  0  0  0  0  0
  180.4440  179.9590  142.9660 C   0  0  0  0  0  2  0  0  0  0  0  0
  180.2780  178.5290  142.4460 C   0  0  0  0  0  2  0  0  0  0  0  0
  179.6190  180.9070  140.9500 C   0  0  0  0  0  2  0  0  0  0  0  0
  1 10  1  0  0  0  0
  2  7  1  0  0  0  0
  3  9  1  0  0  0  0
  4 12  2  0  0  0  0
  5  8  2  0  0  0  0
  6  5  1  0  0  0  0
  6  2  2  0  0  0  0
  7  1  2  0  0  0  0
  7  3  1  0  0  0  0
  8  1  1  0  0  0  0
  9 15  1  0  0  0  0
  9 13  2  0  0  0  0
 10 15  2  0  0  0  0
 11  2  1  0  0  0  0
 12 13  1  0  0  0  0
 14  3  2  0  0  0  0
 14  4  1  0  0  0  0
 16 22  1  1  0  0  0
 17 16  1  0  0  0  0
 18 13  1  6  0  0  0
 18 21  1  0  0  0  0
 18 20  1  0  0  0  0
 19 17  1  0  0  0  0
 20 16  1  0  0  0  0
 21 19  1  0  0  0  0
 23  4  1  0  0  0  0
 25 24  1  6  0  0  0
 25 27  1  0  0  0  0
 25 23  1  0  0  0  0
 26 27  2  0  0  0  0
 29 26  1  1  0  0  0
 29 33  1  0  0  0  0
 30 28  1  6  0  0  0
 30 29  1  0  0  0  0
 30 34  1  0  0  0  0
 31 32  1  0  0  0  0
 33 32  1  0  0  0  0
 34 31  1  0  0  0  0
M  END
>  <MODEL>
4

>  <REMARK>
 VINA RESULT:      -9.1      2.858      6.984
  Name = 
  5 active torsions:
  status: ('A' for Active; 'I' for Inactive)
    1  A    between atoms: C_3  and  C_13
    2  A    between atoms: C_5  and  C_18
    3  A    between atoms: C_12  and  C_28
    4  A    between atoms: N_17  and  C_29
    5  A    between atoms: C_18  and  C_29
                            x       y       z     vdW  Elec       q    Type
                         _______ _______ _______ _____ _____    ______ ____

>  <TORSDO>
F 5

$$$$
=
 OpenBabel10252415013D

 34 38  0  0  1  0  0  0  0  0999 V2000
  190.3950  177.3380  144.9470 C   0  0  0  0  0  0  0  0  0  0  0  0
  188.4370  177.3140  146.4010 C   0  0  0  0  0  0  0  0  0  0  0  0
  188.2080  177.7060  143.9490 C   0  0  0  0  0  0  0  0  0  0  0  0
  186.0830  178.0690  142.9350 C   0  0  0  0  0  0  0  0  0  0  0  0
  190.6510  176.9550  147.3240 C   0  0  0  0  0  3  0  0  0  0  0  0
  189.2720  177.0670  147.4940 C   0  0  0  0  0  3  0  0  0  0  0  0
  188.9900  177.4550  145.1030 C   0  0  0  0  0  0  0  0  0  0  0  0
  191.2100  177.0910  146.0540 C   0  0  0  0  0  3  0  0  0  0  0  0
  188.8410  177.8330  142.6890 C   0  0  0  0  0  0  0  0  0  0  0  0
  190.9660  177.4640  143.7210 N   0  0  0  0  0  0  0  0  0  0  0  0
  187.0690  177.4190  146.6300 O   0  0  0  0  0  1  0  0  0  0  0  0
  186.6700  178.1990  141.6780 C   0  0  0  0  0  3  0  0  0  0  0  0
  188.0590  178.0820  141.5440 C   0  0  0  0  0  0  0  0  0  0  0  0
  186.8540  177.8240  144.0260 N   0  0  0  0  0  0  0  0  0  0  0  0
  190.2310  177.7060  142.6080 C   0  0  0  0  0  3  0  0  0  0  0  0
  188.3230  178.3680  137.7020 C   0  0  2  0  0  3  0  0  0  0  0  0
  189.7050  178.0440  137.6980 O   0  0  0  0  0  0  0  0  0  0  0  0
  188.6920  178.2280  140.1900 C   0  0  2  0  0  3  0  0  0  0  0  0
  189.9080  176.8650  138.4440 C   0  0  0  0  0  2  0  0  0  0  0  0
  187.6430  178.2580  139.0790 C   0  0  0  0  0  2  0  0  0  0  0  0
  189.7480  177.1450  139.9410 C   0  0  0  0  0  2  0  0  0  0  0  0
  187.5640  177.5720  136.6550 C   0  0  0  0  0  1  0  0  0  0  0  0
  184.6020  178.1630  143.0790 C   0  0  0  0  0  2  0  0  0  0  0  0
  184.2710  179.0020  145.3990 C   0  0  0  0  0  1  0  0  0  0  0  0
  184.2210  179.3710  143.9290 C   0  0  2  0  0  3  0  0  0  0  0  0
  182.0560  179.0030  143.0470 C   0  0  0  0  0  3  0  0  0  0  0  0
  182.8910  179.8090  143.5960 N   0  0  0  0  0  0  0  0  0  0  0  0
  179.6840  177.7180  144.0890 O   0  0  0  0  0  1  0  0  0  0  0  0
  180.6650  179.4540  142.7050 C   0  0  2  0  0  3  0  0  0  0  0  0
  179.6210  178.3330  142.8360 C   0  0  1  0  0  3  0  0  0  0  0  0
  179.6570  177.9390  140.4220 N   0  0  0  0  0  2  0  0  0  0  0  0
  180.7500  178.8930  140.2510 C   0  0  0  0  0  2  0  0  0  0  0  0
  180.6380  180.0190  141.2830 C   0  0  0  0  0  2  0  0  0  0  0  0
  179.7950  177.2950  141.7270 C   0  0  0  0  0  2  0  0  0  0  0  0
  1  7  1  0  0  0  0
  1  8  2  0  0  0  0
  2 11  1  0  0  0  0
  2  6  1  0  0  0  0
  3 14  1  0  0  0  0
  3  7  1  0  0  0  0
  4 23  1  0  0  0  0
  4 14  2  0  0  0  0
  5  6  2  0  0  0  0
  7  2  2  0  0  0  0
  8  5  1  0  0  0  0
  9  3  2  0  0  0  0
 10  1  1  0  0  0  0
 12  4  1  0  0  0  0
 13 12  2  0  0  0  0
 13  9  1  0  0  0  0
 15  9  1  0  0  0  0
 15 10  2  0  0  0  0
 16 22  1  6  0  0  0
 16 20  1  0  0  0  0
 17 16  1  0  0  0  0
 17 19  1  0  0  0  0
 18 13  1  1  0  0  0
 19 21  1  0  0  0  0
 20 18  1  0  0  0  0
 21 18  1  0  0  0  0
 23 25  1  0  0  0  0
 25 24  1  1  0  0  0
 26 27  2  0  0  0  0
 27 25  1  0  0  0  0
 29 30  1  0  0  0  0
 29 26  1  6  0  0  0
 30 28  1  1  0  0  0
 31 34  1  0  0  0  0
 32 31  1  0  0  0  0
 32 33  1  0  0  0  0
 33 29  1  0  0  0  0
 34 30  1  0  0  0  0
M  END
>  <MODEL>
5

>  <REMARK>
 VINA RESULT:      -9.0      2.415      6.382
  Name = 
  5 active torsions:
  status: ('A' for Active; 'I' for Inactive)
    1  A    between atoms: C_3  and  C_13
    2  A    between atoms: C_5  and  C_18
    3  A    between atoms: C_12  and  C_28
    4  A    between atoms: N_17  and  C_29
    5  A    between atoms: C_18  and  C_29
                            x       y       z     vdW  Elec       q    Type
                         _______ _______ _______ _____ _____    ______ ____

>  <TORSDO>
F 5

$$$$
=
 OpenBabel10252415013D

 34 38  0  0  1  0  0  0  0  0999 V2000
  184.6480  178.6000  144.5760 C   0  0  0  0  0  0  0  0  0  0  0  0
  184.4000  178.7010  142.1510 C   0  0  0  0  0  0  0  0  0  0  0  0
  186.6260  178.2880  143.1960 C   0  0  0  0  0  0  0  0  0  0  0  0
  188.5860  177.9770  141.8770 C   0  0  0  0  0  0  0  0  0  0  0  0
  182.4730  179.0030  143.5930 C   0  0  0  0  0  3  0  0  0  0  0  0
  183.0320  178.9360  142.3180 C   0  0  0  0  0  3  0  0  0  0  0  0
  185.2330  178.5290  143.2850 C   0  0  0  0  0  0  0  0  0  0  0  0
  183.2790  178.8360  144.7170 C   0  0  0  0  0  3  0  0  0  0  0  0
  187.3860  178.1280  144.3790 C   0  0  0  0  0  0  0  0  0  0  0  0
  185.4100  178.4400  145.6890 N   0  0  0  0  0  0  0  0  0  0  0  0
  184.9040  178.6470  140.8570 O   0  0  0  0  0  1  0  0  0  0  0  0
  189.3670  177.8140  143.0200 C   0  0  0  0  0  3  0  0  0  0  0  0
  188.7710  177.8880  144.2850 C   0  0  0  0  0  0  0  0  0  0  0  0
  187.2510  178.2040  141.9900 N   0  0  0  0  0  0  0  0  0  0  0  0
  186.7440  178.2100  145.6180 C   0  0  0  0  0  3  0  0  0  0  0  0
  191.6810  176.6880  146.5220 C   0  0  2  0  0  3  0  0  0  0  0  0
  190.9750  176.9690  147.7210 O   0  0  0  0  0  0  0  0  0  0  0  0
  189.6140  177.7170  145.5170 C   0  0  2  0  0  3  0  0  0  0  0  0
  189.6970  176.3770  147.6580 C   0  0  0  0  0  2  0  0  0  0  0  0
  190.8600  176.8780  145.2340 C   0  0  0  0  0  2  0  0  0  0  0  0
  188.8000  177.1440  146.6830 C   0  0  0  0  0  2  0  0  0  0  0  0
  192.3160  175.3080  146.5640 C   0  0  0  0  0  1  0  0  0  0  0  0
  189.2100  177.8690  140.5280 C   0  0  0  0  0  2  0  0  0  0  0  0
  191.6720  177.5030  140.4970 C   0  0  0  0  0  1  0  0  0  0  0  0
  190.3180  176.8210  140.5310 C   0  0  2  0  0  3  0  0  0  0  0  0
  189.5850  176.3760  138.3250 C   0  0  0  0  0  3  0  0  0  0  0  0
  190.1910  175.9660  139.3800 N   0  0  0  0  0  0  0  0  0  0  0  0
  191.5000  176.3780  136.1590 O   0  0  0  0  0  1  0  0  0  0  0  0
  189.4570  175.4890  137.1200 C   0  0  2  0  0  3  0  0  0  0  0  0
  190.1700  176.0540  135.8800 C   0  0  1  0  0  3  0  0  0  0  0  0
  188.0600  176.9040  134.9820 N   0  0  0  0  0  2  0  0  0  0  0  0
  187.3500  176.5170  136.1990 C   0  0  0  0  0  2  0  0  0  0  0  0
  187.9780  175.2570  136.8010 C   0  0  0  0  0  2  0  0  0  0  0  0
  189.4300  177.2740  135.3350 C   0  0  0  0  0  2  0  0  0  0  0  0
  1  8  1  0  0  0  0
  1 10  1  0  0  0  0
  2  6  2  0  0  0  0
  2  7  1  0  0  0  0
  3  7  1  0  0  0  0
  3  9  1  0  0  0  0
  4 14  1  0  0  0  0
  4 12  2  0  0  0  0
  5  8  2  0  0  0  0
  6  5  1  0  0  0  0
  7  1  2  0  0  0  0
  9 15  1  0  0  0  0
 11  2  1  0  0  0  0
 12 13  1  0  0  0  0
 13  9  2  0  0  0  0
 14  3  2  0  0  0  0
 15 10  2  0  0  0  0
 16 22  1  1  0  0  0
 16 17  1  0  0  0  0
 18 13  1  6  0  0  0
 18 21  1  0  0  0  0
 19 17  1  0  0  0  0
 20 18  1  0  0  0  0
 20 16  1  0  0  0  0
 21 19  1  0  0  0  0
 23 25  1  0  0  0  0
 23  4  1  0  0  0  0
 25 24  1  6  0  0  0
 26 27  2  0  0  0  0
 27 25  1  0  0  0  0
 29 26  1  1  0  0  0
 30 28  1  1  0  0  0
 30 29  1  0  0  0  0
 31 34  1  0  0  0  0
 31 32  1  0  0  0  0
 32 33  1  0  0  0  0
 33 29  1  0  0  0  0
 34 30  1  0  0  0  0
M  END
>  <MODEL>
6

>  <REMARK>
 VINA RESULT:      -9.0      1.770      5.512
  Name = 
  5 active torsions:
  status: ('A' for Active; 'I' for Inactive)
    1  A    between atoms: C_3  and  C_13
    2  A    between atoms: C_5  and  C_18
    3  A    between atoms: C_12  and  C_28
    4  A    between atoms: N_17  and  C_29
    5  A    between atoms: C_18  and  C_29
                            x       y       z     vdW  Elec       q    Type
                         _______ _______ _______ _____ _____    ______ ____

>  <TORSDO>
F 5

$$$$
=
 OpenBabel10252415013D

 34 38  0  0  1  0  0  0  0  0999 V2000
  186.4430  177.5350  136.3600 C   0  0  0  0  0  0  0  0  0  0  0  0
  188.1990  178.4660  137.7720 C   0  0  0  0  0  0  0  0  0  0  0  0
  185.8770  178.1810  138.6350 C   0  0  0  0  0  0  0  0  0  0  0  0
  185.2860  178.8020  140.8580 C   0  0  0  0  0  0  0  0  0  0  0  0
  188.6870  177.7990  135.4920 C   0  0  0  0  0  3  0  0  0  0  0  0
  189.1010  178.3270  136.7140 C   0  0  0  0  0  3  0  0  0  0  0  0
  186.8480  178.0710  137.6090 C   0  0  0  0  0  0  0  0  0  0  0  0
  187.3620  177.4050  135.3160 C   0  0  0  0  0  3  0  0  0  0  0  0
  184.5480  177.7620  138.3890 C   0  0  0  0  0  0  0  0  0  0  0  0
  185.1580  177.1410  136.1620 N   0  0  0  0  0  0  0  0  0  0  0  0
  188.6670  179.0020  138.9670 O   0  0  0  0  0  1  0  0  0  0  0  0
  183.9680  178.3990  140.6530 C   0  0  0  0  0  3  0  0  0  0  0  0
  183.5860  177.8740  139.4120 C   0  0  0  0  0  0  0  0  0  0  0  0
  186.1990  178.6820  139.8590 N   0  0  0  0  0  0  0  0  0  0  0  0
  184.2180  177.2430  137.1330 C   0  0  0  0  0  3  0  0  0  0  0  0
  179.7440  177.7970  139.7940 C   0  0  2  0  0  3  0  0  0  0  0  0
  179.6390  176.5000  139.2240 O   0  0  0  0  0  0  0  0  0  0  0  0
  182.1640  177.4440  139.1900 C   0  0  2  0  0  3  0  0  0  0  0  0
  180.5400  175.6330  139.8730 C   0  0  0  0  0  2  0  0  0  0  0  0
  181.1880  178.2850  140.0120 C   0  0  0  0  0  2  0  0  0  0  0  0
  181.9800  175.9450  139.4540 C   0  0  0  0  0  2  0  0  0  0  0  0
  178.9330  177.9070  141.0730 C   0  0  0  0  0  1  0  0  0  0  0  0
  185.7040  179.3340  142.1860 C   0  0  0  0  0  2  0  0  0  0  0  0
  185.2110  179.0170  144.6060 C   0  0  0  0  0  1  0  0  0  0  0  0
  185.4380  178.3090  143.2830 C   0  0  2  0  0  3  0  0  0  0  0  0
  187.5340  177.7020  144.2020 C   0  0  0  0  0  3  0  0  0  0  0  0
  186.5630  177.4200  143.4100 N   0  0  0  0  0  0  0  0  0  0  0  0
  189.4280  177.8770  146.3780 O   0  0  0  0  0  1  0  0  0  0  0  0
  188.7050  176.7730  144.3410 C   0  0  2  0  0  3  0  0  0  0  0  0
  189.8640  177.3860  145.1450 C   0  0  1  0  0  3  0  0  0  0  0  0
  191.0670  177.9490  143.0910 N   0  0  0  0  0  2  0  0  0  0  0  0
  189.9380  177.5120  142.2730 C   0  0  0  0  0  2  0  0  0  0  0  0
  189.2040  176.3550  142.9560 C   0  0  0  0  0  2  0  0  0  0  0  0
  190.5540  178.4920  144.3480 C   0  0  0  0  0  2  0  0  0  0  0  0
  1  7  1  0  0  0  0
  2 11  1  0  0  0  0
  3 14  1  0  0  0  0
  4 23  1  0  0  0  0
  5  6  1  0  0  0  0
  6  2  2  0  0  0  0
  7  2  1  0  0  0  0
  7  3  2  0  0  0  0
  8  5  2  0  0  0  0
  8  1  1  0  0  0  0
  9  3  1  0  0  0  0
  9 13  1  0  0  0  0
 10  1  2  0  0  0  0
 10 15  1  0  0  0  0
 12  4  1  0  0  0  0
 13 12  2  0  0  0  0
 14  4  2  0  0  0  0
 15  9  2  0  0  0  0
 16 20  1  0  0  0  0
 16 22  1  1  0  0  0
 17 16  1  0  0  0  0
 17 19  1  0  0  0  0
 18 13  1  1  0  0  0
 18 21  1  0  0  0  0
 18 20  1  0  0  0  0
 21 19  1  0  0  0  0
 23 25  1  0  0  0  0
 25 27  1  0  0  0  0
 25 24  1  1  0  0  0
 27 26  2  0  0  0  0
 29 26  1  6  0  0  0
 29 30  1  0  0  0  0
 30 28  1  1  0  0  0
 31 34  1  0  0  0  0
 32 33  1  0  0  0  0
 32 31  1  0  0  0  0
 33 29  1  0  0  0  0
 34 30  1  0  0  0  0
M  END
>  <MODEL>
7

>  <REMARK>
 VINA RESULT:      -8.8      2.392      7.439
  Name = 
  5 active torsions:
  status: ('A' for Active; 'I' for Inactive)
    1  A    between atoms: C_3  and  C_13
    2  A    between atoms: C_5  and  C_18
    3  A    between atoms: C_12  and  C_28
    4  A    between atoms: N_17  and  C_29
    5  A    between atoms: C_18  and  C_29
                            x       y       z     vdW  Elec       q    Type
                         _______ _______ _______ _____ _____    ______ ____

>  <TORSDO>
F 5

$$$$
=
 OpenBabel10252415013D

 34 38  0  0  1  0  0  0  0  0999 V2000
  186.6150  177.9150  145.2540 C   0  0  0  0  0  0  0  0  0  0  0  0
  188.9780  177.6110  144.7310 C   0  0  0  0  0  0  0  0  0  0  0  0
  187.3210  178.1130  142.9360 C   0  0  0  0  0  0  0  0  0  0  0  0
  187.9760  178.3150  140.6530 C   0  0  0  0  0  0  0  0  0  0  0  0
  188.1980  177.4280  147.0200 C   0  0  0  0  0  3  0  0  0  0  0  0
  189.2330  177.3890  146.0870 C   0  0  0  0  0  3  0  0  0  0  0  0
  187.6560  177.8780  144.2920 C   0  0  0  0  0  0  0  0  0  0  0  0
  186.8940  177.6900  146.6040 C   0  0  0  0  0  3  0  0  0  0  0  0
  185.9760  178.3720  142.5820 C   0  0  0  0  0  0  0  0  0  0  0  0
  185.3350  178.1700  144.8770 N   0  0  0  0  0  0  0  0  0  0  0  0
  190.0470  177.5570  143.8440 O   0  0  0  0  0  1  0  0  0  0  0  0
  186.6620  178.5740  140.2680 C   0  0  0  0  0  3  0  0  0  0  0  0
  185.6470  178.6060  141.2320 C   0  0  0  0  0  0  0  0  0  0  0  0
  188.2720  178.0970  141.9610 N   0  0  0  0  0  0  0  0  0  0  0  0
  185.0000  178.3940  143.5830 C   0  0  0  0  0  3  0  0  0  0  0  0
  181.9630  177.9080  140.3110 C   0  0  2  0  0  3  0  0  0  0  0  0
  181.8080  179.1640  139.6660 O   0  0  0  0  0  0  0  0  0  0  0  0
  184.2310  178.8810  140.8150 C   0  0  2  0  0  3  0  0  0  0  0  0
  182.8590  179.3460  138.7450 C   0  0  0  0  0  2  0  0  0  0  0  0
  183.3960  177.6010  140.7790 C   0  0  0  0  0  2  0  0  0  0  0  0
  184.1720  179.6310  139.4790 C   0  0  0  0  0  2  0  0  0  0  0  0
  181.4140  176.7770  139.4580 C   0  0  0  0  0  1  0  0  0  0  0  0
  189.0640  178.3090  139.6350 C   0  0  0  0  0  2  0  0  0  0  0  0
  191.2310  177.1280  139.9630 C   0  0  0  0  0  1  0  0  0  0  0  0
  189.7670  176.9560  139.6070 C   0  0  2  0  0  3  0  0  0  0  0  0
  188.5500  176.3880  137.6580 C   0  0  0  0  0  3  0  0  0  0  0  0
  189.6650  176.3750  138.2940 N   0  0  0  0  0  0  0  0  0  0  0  0
  189.4300  177.7590  135.2690 O   0  0  0  0  0  1  0  0  0  0  0  0
  188.4430  175.7890  136.2850 C   0  0  2  0  0  3  0  0  0  0  0  0
  188.3760  176.8470  135.1710 C   0  0  1  0  0  3  0  0  0  0  0  0
  185.9450  176.6230  135.0240 N   0  0  0  0  0  2  0  0  0  0  0  0
  185.9270  175.7190  136.1720 C   0  0  0  0  0  2  0  0  0  0  0  0
  187.2110  174.8840  136.2090 C   0  0  0  0  0  2  0  0  0  0  0  0
  187.0360  177.5810  135.1970 C   0  0  0  0  0  2  0  0  0  0  0  0
  1  8  2  0  0  0  0
  2  6  1  0  0  0  0
  3  7  1  0  0  0  0
  4 14  1  0  0  0  0
  6  5  2  0  0  0  0
  7  2  2  0  0  0  0
  7  1  1  0  0  0  0
  8  5  1  0  0  0  0
  9  3  1  0  0  0  0
  9 15  1  0  0  0  0
 10  1  1  0  0  0  0
 11  2  1  0  0  0  0
 12  4  2  0  0  0  0
 12 13  1  0  0  0  0
 13  9  2  0  0  0  0
 14  3  2  0  0  0  0
 15 10  2  0  0  0  0
 16 22  1  6  0  0  0
 16 20  1  0  0  0  0
 17 16  1  0  0  0  0
 18 13  1  6  0  0  0
 19 21  1  0  0  0  0
 19 17  1  0  0  0  0
 20 18  1  0  0  0  0
 21 18  1  0  0  0  0
 23  4  1  0  0  0  0
 25 23  1  0  0  0  0
 25 24  1  6  0  0  0
 26 27  2  0  0  0  0
 27 25  1  0  0  0  0
 29 26  1  1  0  0  0
 30 34  1  0  0  0  0
 30 28  1  1  0  0  0
 30 29  1  0  0  0  0
 31 34  1  0  0  0  0
 31 32  1  0  0  0  0
 32 33  1  0  0  0  0
 33 29  1  0  0  0  0
M  END
>  <MODEL>
8

>  <REMARK>
 VINA RESULT:      -8.8      1.591      2.351
  Name = 
  5 active torsions:
  status: ('A' for Active; 'I' for Inactive)
    1  A    between atoms: C_3  and  C_13
    2  A    between atoms: C_5  and  C_18
    3  A    between atoms: C_12  and  C_28
    4  A    between atoms: N_17  and  C_29
    5  A    between atoms: C_18  and  C_29
                            x       y       z     vdW  Elec       q    Type
                         _______ _______ _______ _____ _____    ______ ____

>  <TORSDO>
F 5

$$$$
=
 OpenBabel10252415013D

 34 38  0  0  1  0  0  0  0  0999 V2000
  184.4310  178.3240  143.7570 C   0  0  0  0  0  0  0  0  0  0  0  0
  184.5100  178.9560  141.4020 C   0  0  0  0  0  0  0  0  0  0  0  0
  186.5550  178.1580  142.5840 C   0  0  0  0  0  0  0  0  0  0  0  0
  188.6540  177.9820  141.4690 C   0  0  0  0  0  0  0  0  0  0  0  0
  182.4280  179.0950  142.6380 C   0  0  0  0  0  3  0  0  0  0  0  0
  183.1460  179.2560  141.4540 C   0  0  0  0  0  3  0  0  0  0  0  0
  185.1770  178.4830  142.5600 C   0  0  0  0  0  0  0  0  0  0  0  0
  183.0690  178.6310  143.7850 C   0  0  0  0  0  3  0  0  0  0  0  0
  187.1440  177.6930  143.7840 C   0  0  0  0  0  0  0  0  0  0  0  0
  185.0310  177.8730  144.8890 N   0  0  0  0  0  0  0  0  0  0  0  0
  185.1770  179.1380  140.1960 O   0  0  0  0  0  1  0  0  0  0  0  0
  189.2680  177.5190  142.6320 C   0  0  0  0  0  3  0  0  0  0  0  0
  188.5160  177.3700  143.8030 C   0  0  0  0  0  0  0  0  0  0  0  0
  187.3290  178.2830  141.4710 N   0  0  0  0  0  0  0  0  0  0  0  0
  186.3500  177.5590  144.9270 C   0  0  0  0  0  3  0  0  0  0  0  0
  189.4200  177.1410  147.5500 C   0  0  2  0  0  3  0  0  0  0  0  0
  190.6020  176.3960  147.2960 O   0  0  0  0  0  0  0  0  0  0  0  0
  189.1790  176.8770  145.0570 C   0  0  2  0  0  3  0  0  0  0  0  0
  191.3650  177.0560  146.3120 C   0  0  0  0  0  2  0  0  0  0  0  0
  188.6950  177.6420  146.2880 C   0  0  0  0  0  2  0  0  0  0  0  0
  190.7070  176.9090  144.9370 C   0  0  0  0  0  2  0  0  0  0  0  0
  189.6830  178.2840  148.5160 C   0  0  0  0  0  1  0  0  0  0  0  0
  189.4430  178.1140  140.2120 C   0  0  0  0  0  2  0  0  0  0  0  0
  191.7170  177.1280  139.9740 C   0  0  0  0  0  1  0  0  0  0  0  0
  190.2290  176.8360  139.9340 C   0  0  2  0  0  3  0  0  0  0  0  0
  188.7340  176.5620  138.1200 C   0  0  0  0  0  3  0  0  0  0  0  0
  189.8840  176.3170  138.6370 N   0  0  0  0  0  0  0  0  0  0  0  0
  189.2600  178.0050  135.6700 O   0  0  0  0  0  1  0  0  0  0  0  0
  188.3730  176.0280  136.7630 C   0  0  2  0  0  3  0  0  0  0  0  0
  188.1670  177.1360  135.7170 C   0  0  1  0  0  3  0  0  0  0  0  0
  185.7370  177.0050  135.9740 N   0  0  0  0  0  2  0  0  0  0  0  0
  185.8740  176.0520  137.0740 C   0  0  0  0  0  2  0  0  0  0  0  0
  187.1090  175.1720  136.8630 C   0  0  0  0  0  2  0  0  0  0  0  0
  186.8820  177.9150  135.9970 C   0  0  0  0  0  2  0  0  0  0  0  0
  1  8  1  0  0  0  0
  1 10  1  0  0  0  0
  2  6  2  0  0  0  0
  2  7  1  0  0  0  0
  3  9  1  0  0  0  0
  4 14  1  0  0  0  0
  4 12  2  0  0  0  0
  5  8  2  0  0  0  0
  6  5  1  0  0  0  0
  7  3  1  0  0  0  0
  7  1  2  0  0  0  0
  9 13  2  0  0  0  0
  9 15  1  0  0  0  0
 10 15  2  0  0  0  0
 11  2  1  0  0  0  0
 12 13  1  0  0  0  0
 14  3  2  0  0  0  0
 16 22  1  1  0  0  0
 17 16  1  0  0  0  0
 18 13  1  6  0  0  0
 18 20  1  0  0  0  0
 19 17  1  0  0  0  0
 20 16  1  0  0  0  0
 21 18  1  0  0  0  0
 21 19  1  0  0  0  0
 23  4  1  0  0  0  0
 25 24  1  6  0  0  0
 25 23  1  0  0  0  0
 26 27  2  0  0  0  0
 27 25  1  0  0  0  0
 29 33  1  0  0  0  0
 29 26  1  1  0  0  0
 30 28  1  1  0  0  0
 30 34  1  0  0  0  0
 30 29  1  0  0  0  0
 31 34  1  0  0  0  0
 31 32  1  0  0  0  0
 33 32  1  0  0  0  0
M  END
>  <MODEL>
9

>  <REMARK>
 VINA RESULT:      -8.7      1.483      5.283
  Name = 
  5 active torsions:
  status: ('A' for Active; 'I' for Inactive)
    1  A    between atoms: C_3  and  C_13
    2  A    between atoms: C_5  and  C_18
    3  A    between atoms: C_12  and  C_28
    4  A    between atoms: N_17  and  C_29
    5  A    between atoms: C_18  and  C_29
                            x       y       z     vdW  Elec       q    Type
                         _______ _______ _______ _____ _____    ______ ____

>  <TORSDO>
F 5

$$$$
