=
 OpenBabel10262423373D

 34 34  0  0  1  0  0  0  0  0999 V2000
  189.9160  177.8110  144.9150 C   0  0  1  0  0  3  0  0  0  0  0  0
  190.0370  179.0930  144.3670 O   0  0  0  0  0  1  0  0  0  0  0  0
  188.0120  178.9230  145.9050 O   0  0  0  0  0  1  0  0  0  0  0  0
  188.5320  177.6580  145.6210 C   0  0  2  0  0  0  0  0  0  0  0  0
  188.6980  176.8920  146.9430 C   0  0  0  0  0  2  0  0  0  0  0  0
  188.1300  177.8390  149.0580 O   0  0  0  0  0  1  0  0  0  0  0  0
  189.1510  177.7600  148.1110 C   0  0  0  0  0  2  0  0  0  0  0  0
  187.4870  176.9270  144.7560 C   0  0  0  0  0  2  0  0  0  0  0  0
  183.7880  179.0210  144.0170 C   0  0  0  0  0  0  0  0  0  0  0  0
  184.1940  178.7800  145.3310 C   0  0  0  0  0  3  0  0  0  0  0  0
  185.3810  178.0920  145.5820 C   0  0  0  0  0  3  0  0  0  0  0  0
  185.7720  177.8770  143.2110 C   0  0  0  0  0  3  0  0  0  0  0  0
  186.1630  177.6070  144.5240 C   0  0  0  0  0  0  0  0  0  0  0  0
  184.5900  178.5760  142.9550 C   0  0  0  0  0  3  0  0  0  0  0  0
  182.5900  179.7050  143.7920 O   0  0  0  0  0  0  0  0  0  0  0  0
  180.4910  178.5680  143.9270 C   0  0  0  0  0  1  0  0  0  0  0  0
  181.5320  179.1620  143.0130 C   0  0  0  0  0  2  0  0  0  0  0  0
  190.3540  176.7450  143.8690 C   0  0  2  0  0  0  0  0  0  0  0  0
  189.2920  175.8640  143.6390 O   0  0  0  0  0  1  0  0  0  0  0  0
  192.0220  176.0720  145.6890 N   0  0  0  0  0  1  0  0  0  0  0  0
  191.5260  175.9260  144.3590 C   0  0  0  0  0  0  0  0  0  0  0  0
  192.0610  175.0810  143.5940 O   0  0  0  0  0  0  0  0  0  0  0  0
  190.7110  177.4330  142.5430 C   0  0  0  0  0  2  0  0  0  0  0  0
  189.8750  177.0380  141.3120 C   0  0  1  0  0  3  0  0  0  0  0  0
  189.1820  178.2580  140.6880 C   0  0  2  0  0  3  0  0  0  0  0  0
  188.5880  179.0280  141.6740 F   0  0  0  0  0  0  0  0  0  0  0  0
  188.1130  177.8740  139.6630 C   0  0  1  0  0  3  0  0  0  0  0  0
  186.8540  178.5540  139.9310 N   0  0  0  0  0  2  0  0  0  0  0  0
  186.1830  178.6220  138.7570 O   0  0  0  0  0  1  0  0  0  0  0  0
  188.5430  178.1590  138.3640 O   0  0  0  0  0  0  0  0  0  0  0  0
  189.9070  176.8750  136.9200 C   0  0  0  0  0  1  0  0  0  0  0  0
  188.6510  176.9140  137.7450 C   0  0  0  0  0  2  0  0  0  0  0  0
  190.6550  176.3700  140.3630 O   0  0  0  0  0  0  0  0  0  0  0  0
  191.7520  177.2020  140.1360 C   0  0  0  0  0  1  0  0  0  0  0  0
  1  2  1  6  0  0  0
  1  4  1  0  0  0  0
  4  3  1  1  0  0  0
  4  5  1  0  0  0  0
  5  7  1  0  0  0  0
  7  6  1  0  0  0  0
  8  4  1  0  0  0  0
  9 10  1  0  0  0  0
 10 11  2  0  0  0  0
 12 13  2  0  0  0  0
 13  8  1  0  0  0  0
 13 11  1  0  0  0  0
 14 12  1  0  0  0  0
 14  9  2  0  0  0  0
 15  9  1  0  0  0  0
 17 15  1  0  0  0  0
 17 16  1  0  0  0  0
 18 19  1  6  0  0  0
 18 21  1  0  0  0  0
 18  1  1  0  0  0  0
 21 20  1  0  0  0  0
 22 21  2  0  0  0  0
 23 18  1  0  0  0  0
 24 23  1  1  0  0  0
 25 24  1  0  0  0  0
 25 26  1  1  0  0  0
 27 30  1  6  0  0  0
 27 28  1  0  0  0  0
 27 25  1  0  0  0  0
 29 28  1  0  0  0  0
 31 32  1  0  0  0  0
 32 30  1  0  0  0  0
 33 24  1  0  0  0  0
 34 33  1  0  0  0  0
M  END
>  <MODEL>
1

>  <REMARK>
 VINA RESULT:      -6.4      0.000      0.000
  Name = 
  17 active torsions:
  status: ('A' for Active; 'I' for Inactive)
    1  A    between atoms: C_1  and  C_18
    2  A    between atoms: C_1  and  C_20
    3  A    between atoms: C_2  and  C_25
    4  A    between atoms: C_2  and  C_32
    5  A    between atoms: O_3  and  C_24
    6  A    between atoms: O_3  and  C_25
    7  A    between atoms: C_5  and  C_20
    8  A    between atoms: C_5  and  C_32
    9  A    between atoms: C_6  and  C_18
   10  A    between atoms: C_6  and  C_28
   11  A    between atoms: C_7  and  O_11
   12  A    between atoms: O_11  and  C_21
   13  A    between atoms: C_12  and  C_20
   14  A    between atoms: C_18  and  C_30
   15  A    between atoms: O_19  and  C_32
   16  A    between atoms: C_25  and  N_27
   17  A    between atoms: C_30  and  C_31
                            x       y       z     vdW  Elec       q    Type
                         _______ _______ _______ _____ _____    ______ ____

>  <TORSDO>
F 17

$$$$
=
 OpenBabel10262423373D

 34 34  0  0  1  0  0  0  0  0999 V2000
  189.2780  176.5030  145.0930 C   0  0  1  0  0  3  0  0  0  0  0  0
  188.5820  176.0280  143.9760 O   0  0  0  0  0  1  0  0  0  0  0  0
  191.2860  175.7680  143.9660 O   0  0  0  0  0  1  0  0  0  0  0  0
  190.7550  176.8280  144.7060 C   0  0  2  0  0  0  0  0  0  0  0  0
  191.6030  177.0080  145.9740 C   0  0  0  0  0  2  0  0  0  0  0  0
  192.8360  175.9590  147.7270 O   0  0  0  0  0  1  0  0  0  0  0  0
  191.9450  175.7040  146.6840 C   0  0  0  0  0  2  0  0  0  0  0  0
  190.8910  178.0940  143.8370 C   0  0  0  0  0  2  0  0  0  0  0  0
  190.2890  177.5300  139.6020 C   0  0  0  0  0  0  0  0  0  0  0  0
  191.5570  177.3300  140.1520 C   0  0  0  0  0  3  0  0  0  0  0  0
  191.7670  177.5230  141.5180 C   0  0  0  0  0  3  0  0  0  0  0  0
  189.4470  178.1170  141.8020 C   0  0  0  0  0  3  0  0  0  0  0  0
  190.7210  177.9490  142.3480 C   0  0  0  0  0  0  0  0  0  0  0  0
  189.2290  177.9150  140.4370 C   0  0  0  0  0  3  0  0  0  0  0  0
  190.1080  177.3400  138.2290 O   0  0  0  0  0  0  0  0  0  0  0  0
  188.6580  178.3480  136.6170 C   0  0  0  0  0  1  0  0  0  0  0  0
  188.8210  177.2460  137.6330 C   0  0  0  0  0  2  0  0  0  0  0  0
  188.4310  177.5870  145.8220 C   0  0  2  0  0  0  0  0  0  0  0  0
  188.7890  178.8500  145.3400 O   0  0  0  0  0  1  0  0  0  0  0  0
  188.4820  176.4010  148.0880 N   0  0  0  0  0  1  0  0  0  0  0  0
  188.6780  177.5820  147.3130 C   0  0  0  0  0  0  0  0  0  0  0  0
  189.0890  178.6280  147.8820 O   0  0  0  0  0  0  0  0  0  0  0  0
  186.9390  177.3620  145.5350 C   0  0  0  0  0  2  0  0  0  0  0  0
  186.1810  178.5230  144.8670 C   0  0  1  0  0  3  0  0  0  0  0  0
  185.4590  178.0630  143.5920 C   0  0  2  0  0  3  0  0  0  0  0  0
  186.3200  177.3290  142.7910 F   0  0  0  0  0  0  0  0  0  0  0  0
  184.9070  179.2290  142.7680 C   0  0  1  0  0  3  0  0  0  0  0  0
  185.8370  179.6230  141.7200 N   0  0  0  0  0  2  0  0  0  0  0  0
  185.1530  179.5910  140.5510 O   0  0  0  0  0  1  0  0  0  0  0  0
  183.6680  178.9010  142.2100 O   0  0  0  0  0  0  0  0  0  0  0  0
  181.3680  178.9190  142.7620 C   0  0  0  0  0  1  0  0  0  0  0  0
  182.7780  178.9270  143.2830 C   0  0  0  0  0  2  0  0  0  0  0  0
  185.2830  179.1210  145.7570 O   0  0  0  0  0  0  0  0  0  0  0  0
  185.3870  178.3830  146.9360 C   0  0  0  0  0  1  0  0  0  0  0  0
  1  2  1  6  0  0  0
  1 18  1  0  0  0  0
  4  3  1  6  0  0  0
  4  1  1  0  0  0  0
  4  5  1  0  0  0  0
  5  7  1  0  0  0  0
  7  6  1  0  0  0  0
  8  4  1  0  0  0  0
  9 10  2  0  0  0  0
  9 14  1  0  0  0  0
 10 11  1  0  0  0  0
 11 13  2  0  0  0  0
 12 13  1  0  0  0  0
 13  8  1  0  0  0  0
 14 12  2  0  0  0  0
 15  9  1  0  0  0  0
 16 17  1  0  0  0  0
 17 15  1  0  0  0  0
 18 19  1  6  0  0  0
 18 21  1  0  0  0  0
 21 22  2  0  0  0  0
 21 20  1  0  0  0  0
 23 18  1  0  0  0  0
 24 23  1  1  0  0  0
 24 33  1  0  0  0  0
 25 26  1  6  0  0  0
 25 24  1  0  0  0  0
 27 28  1  6  0  0  0
 27 25  1  0  0  0  0
 29 28  1  0  0  0  0
 30 27  1  0  0  0  0
 30 32  1  0  0  0  0
 31 32  1  0  0  0  0
 33 34  1  0  0  0  0
M  END
>  <MODEL>
2

>  <REMARK>
 VINA RESULT:      -6.1      1.791      6.111
  Name = 
  17 active torsions:
  status: ('A' for Active; 'I' for Inactive)
    1  A    between atoms: C_1  and  C_18
    2  A    between atoms: C_1  and  C_20
    3  A    between atoms: C_2  and  C_25
    4  A    between atoms: C_2  and  C_32
    5  A    between atoms: O_3  and  C_24
    6  A    between atoms: O_3  and  C_25
    7  A    between atoms: C_5  and  C_20
    8  A    between atoms: C_5  and  C_32
    9  A    between atoms: C_6  and  C_18
   10  A    between atoms: C_6  and  C_28
   11  A    between atoms: C_7  and  O_11
   12  A    between atoms: O_11  and  C_21
   13  A    between atoms: C_12  and  C_20
   14  A    between atoms: C_18  and  C_30
   15  A    between atoms: O_19  and  C_32
   16  A    between atoms: C_25  and  N_27
   17  A    between atoms: C_30  and  C_31
                            x       y       z     vdW  Elec       q    Type
                         _______ _______ _______ _____ _____    ______ ____

>  <TORSDO>
F 17

$$$$
=
 OpenBabel10262423373D

 34 34  0  0  1  0  0  0  0  0999 V2000
  190.4750  176.5880  142.5960 C   0  0  1  0  0  3  0  0  0  0  0  0
  189.6850  175.4350  142.6710 O   0  0  0  0  0  1  0  0  0  0  0  0
  190.2980  176.0960  140.2360 O   0  0  0  0  0  1  0  0  0  0  0  0
  190.4700  177.1480  141.1390 C   0  0  2  0  0  0  0  0  0  0  0  0
  191.8100  177.8350  140.8350 C   0  0  0  0  0  2  0  0  0  0  0  0
  193.2740  177.2140  139.0570 O   0  0  0  0  0  1  0  0  0  0  0  0
  192.9030  176.8850  140.3610 C   0  0  0  0  0  2  0  0  0  0  0  0
  189.3300  178.1520  140.8790 C   0  0  0  0  0  2  0  0  0  0  0  0
  187.6870  178.2050  136.8900 C   0  0  0  0  0  0  0  0  0  0  0  0
  189.0380  178.4970  137.0840 C   0  0  0  0  0  3  0  0  0  0  0  0
  189.5780  178.4980  138.3710 C   0  0  0  0  0  3  0  0  0  0  0  0
  187.4240  177.9110  139.2860 C   0  0  0  0  0  3  0  0  0  0  0  0
  188.7680  178.2360  139.4850 C   0  0  0  0  0  0  0  0  0  0  0  0
  186.8820  177.8990  137.9990 C   0  0  0  0  0  3  0  0  0  0  0  0
  187.1690  178.2210  135.5920 O   0  0  0  0  0  0  0  0  0  0  0  0
  187.4330  175.9740  134.8170 C   0  0  0  0  0  1  0  0  0  0  0  0
  186.4720  177.1160  135.0320 C   0  0  0  0  0  2  0  0  0  0  0  0
  190.1310  177.5430  143.7750 C   0  0  2  0  0  0  0  0  0  0  0  0
  189.5700  178.7190  143.2650 O   0  0  0  0  0  1  0  0  0  0  0  0
  191.8070  177.1430  145.6660 N   0  0  0  0  0  1  0  0  0  0  0  0
  191.3620  177.9290  144.5620 C   0  0  0  0  0  0  0  0  0  0  0  0
  192.0250  178.9470  144.2260 O   0  0  0  0  0  0  0  0  0  0  0  0
  189.1020  176.8770  144.7020 C   0  0  0  0  0  2  0  0  0  0  0  0
  188.0770  177.8050  145.3770 C   0  0  1  0  0  3  0  0  0  0  0  0
  186.7070  177.1240  145.5140 C   0  0  2  0  0  3  0  0  0  0  0  0
  186.4920  176.2610  144.4510 F   0  0  0  0  0  0  0  0  0  0  0  0
  185.5490  178.1230  145.5690 C   0  0  1  0  0  3  0  0  0  0  0  0
  185.2010  178.4530  146.9430 N   0  0  0  0  0  2  0  0  0  0  0  0
  185.7250  179.6740  147.2020 O   0  0  0  0  0  1  0  0  0  0  0  0
  185.8620  179.2880  144.8620 O   0  0  0  0  0  0  0  0  0  0  0  0
  185.4800  178.9260  142.5560 C   0  0  0  0  0  1  0  0  0  0  0  0
  184.8900  179.3690  143.8660 C   0  0  0  0  0  2  0  0  0  0  0  0
  188.5360  178.2490  146.6210 O   0  0  0  0  0  0  0  0  0  0  0  0
  188.5980  177.1070  147.4200 C   0  0  0  0  0  1  0  0  0  0  0  0
  1  2  1  6  0  0  0
  1 18  1  0  0  0  0
  4  3  1  6  0  0  0
  4  1  1  0  0  0  0
  5  4  1  0  0  0  0
  6  7  1  0  0  0  0
  7  5  1  0  0  0  0
  8  4  1  0  0  0  0
  9 10  2  0  0  0  0
  9 14  1  0  0  0  0
 10 11  1  0  0  0  0
 11 13  2  0  0  0  0
 12 13  1  0  0  0  0
 13  8  1  0  0  0  0
 14 12  2  0  0  0  0
 15  9  1  0  0  0  0
 16 17  1  0  0  0  0
 17 15  1  0  0  0  0
 18 19  1  6  0  0  0
 18 21  1  0  0  0  0
 18 23  1  0  0  0  0
 21 20  1  0  0  0  0
 22 21  2  0  0  0  0
 24 23  1  1  0  0  0
 24 25  1  0  0  0  0
 24 33  1  0  0  0  0
 25 26  1  6  0  0  0
 25 27  1  0  0  0  0
 27 30  1  6  0  0  0
 27 28  1  0  0  0  0
 28 29  1  0  0  0  0
 31 32  1  0  0  0  0
 32 30  1  0  0  0  0
 33 34  1  0  0  0  0
M  END
>  <MODEL>
3

>  <REMARK>
 VINA RESULT:      -6.0      2.309      6.731
  Name = 
  17 active torsions:
  status: ('A' for Active; 'I' for Inactive)
    1  A    between atoms: C_1  and  C_18
    2  A    between atoms: C_1  and  C_20
    3  A    between atoms: C_2  and  C_25
    4  A    between atoms: C_2  and  C_32
    5  A    between atoms: O_3  and  C_24
    6  A    between atoms: O_3  and  C_25
    7  A    between atoms: C_5  and  C_20
    8  A    between atoms: C_5  and  C_32
    9  A    between atoms: C_6  and  C_18
   10  A    between atoms: C_6  and  C_28
   11  A    between atoms: C_7  and  O_11
   12  A    between atoms: O_11  and  C_21
   13  A    between atoms: C_12  and  C_20
   14  A    between atoms: C_18  and  C_30
   15  A    between atoms: O_19  and  C_32
   16  A    between atoms: C_25  and  N_27
   17  A    between atoms: C_30  and  C_31
                            x       y       z     vdW  Elec       q    Type
                         _______ _______ _______ _____ _____    ______ ____

>  <TORSDO>
F 17

$$$$
=
 OpenBabel10262423373D

 34 34  0  0  1  0  0  0  0  0999 V2000
  189.0730  176.2660  144.0300 C   0  0  1  0  0  3  0  0  0  0  0  0
  187.9520  175.7210  143.3930 O   0  0  0  0  0  1  0  0  0  0  0  0
  190.4040  175.6320  142.1150 O   0  0  0  0  0  1  0  0  0  0  0  0
  190.1340  176.7020  142.9710 C   0  0  2  0  0  0  0  0  0  0  0  0
  191.4400  177.1070  143.6710 C   0  0  0  0  0  2  0  0  0  0  0  0
  192.0110  179.3230  144.3460 O   0  0  0  0  0  1  0  0  0  0  0  0
  191.9780  178.4680  143.2450 C   0  0  0  0  0  2  0  0  0  0  0  0
  189.6630  177.8740  142.0880 C   0  0  0  0  0  2  0  0  0  0  0  0
  189.4430  177.3620  137.8100 C   0  0  0  0  0  0  0  0  0  0  0  0
  188.2780  177.6190  138.5360 C   0  0  0  0  0  3  0  0  0  0  0  0
  188.3350  177.7720  139.9210 C   0  0  0  0  0  3  0  0  0  0  0  0
  190.7200  177.4160  139.8740 C   0  0  0  0  0  3  0  0  0  0  0  0
  189.5510  177.6400  140.6050 C   0  0  0  0  0  0  0  0  0  0  0  0
  190.6700  177.2720  138.4850 C   0  0  0  0  0  3  0  0  0  0  0  0
  189.3570  177.2030  136.4240 O   0  0  0  0  0  0  0  0  0  0  0  0
  188.5500  175.3290  135.1760 C   0  0  0  0  0  1  0  0  0  0  0  0
  189.7600  176.0100  135.7640 C   0  0  0  0  0  2  0  0  0  0  0  0
  188.6210  177.2880  145.1140 C   0  0  2  0  0  0  0  0  0  0  0  0
  188.9860  178.5760  144.7100 O   0  0  0  0  0  1  0  0  0  0  0  0
  188.5080  176.7520  147.6130 N   0  0  0  0  0  1  0  0  0  0  0  0
  189.2830  177.0220  146.4460 C   0  0  0  0  0  0  0  0  0  0  0  0
  190.5400  177.0110  146.5280 O   0  0  0  0  0  0  0  0  0  0  0  0
  187.0930  177.2420  145.2670 C   0  0  0  0  0  2  0  0  0  0  0  0
  186.3260  178.5350  144.9370 C   0  0  1  0  0  3  0  0  0  0  0  0
  185.1470  178.2620  143.9910 C   0  0  2  0  0  3  0  0  0  0  0  0
  185.5070  177.3300  143.0320 F   0  0  0  0  0  0  0  0  0  0  0  0
  184.6530  179.5240  143.2790 C   0  0  1  0  0  3  0  0  0  0  0  0
  184.5490  179.3140  141.8420 N   0  0  0  0  0  2  0  0  0  0  0  0
  185.7250  179.7060  141.2980 O   0  0  0  0  0  1  0  0  0  0  0  0
  183.4200  179.9350  143.7920 O   0  0  0  0  0  0  0  0  0  0  0  0
  181.2410  179.0550  143.5210 C   0  0  0  0  0  1  0  0  0  0  0  0
  182.6690  178.7640  143.8900 C   0  0  0  0  0  2  0  0  0  0  0  0
  185.8910  179.1780  146.1000 O   0  0  0  0  0  0  0  0  0  0  0  0
  185.0380  178.2690  146.7260 C   0  0  0  0  0  1  0  0  0  0  0  0
  1  2  1  6  0  0  0
  1 18  1  0  0  0  0
  4  3  1  6  0  0  0
  4  5  1  0  0  0  0
  4  1  1  0  0  0  0
  7  5  1  0  0  0  0
  7  6  1  0  0  0  0
  8  4  1  0  0  0  0
  9 14  2  0  0  0  0
  9 10  1  0  0  0  0
 10 11  2  0  0  0  0
 11 13  1  0  0  0  0
 12 13  2  0  0  0  0
 13  8  1  0  0  0  0
 14 12  1  0  0  0  0
 15  9  1  0  0  0  0
 16 17  1  0  0  0  0
 17 15  1  0  0  0  0
 18 19  1  6  0  0  0
 18 23  1  0  0  0  0
 18 21  1  0  0  0  0
 21 22  2  0  0  0  0
 21 20  1  0  0  0  0
 24 23  1  1  0  0  0
 24 33  1  0  0  0  0
 25 26  1  6  0  0  0
 25 24  1  0  0  0  0
 27 28  1  6  0  0  0
 27 30  1  0  0  0  0
 27 25  1  0  0  0  0
 29 28  1  0  0  0  0
 30 32  1  0  0  0  0
 31 32  1  0  0  0  0
 33 34  1  0  0  0  0
M  END
>  <MODEL>
4

>  <REMARK>
 VINA RESULT:      -6.0      1.815      6.543
  Name = 
  17 active torsions:
  status: ('A' for Active; 'I' for Inactive)
    1  A    between atoms: C_1  and  C_18
    2  A    between atoms: C_1  and  C_20
    3  A    between atoms: C_2  and  C_25
    4  A    between atoms: C_2  and  C_32
    5  A    between atoms: O_3  and  C_24
    6  A    between atoms: O_3  and  C_25
    7  A    between atoms: C_5  and  C_20
    8  A    between atoms: C_5  and  C_32
    9  A    between atoms: C_6  and  C_18
   10  A    between atoms: C_6  and  C_28
   11  A    between atoms: C_7  and  O_11
   12  A    between atoms: O_11  and  C_21
   13  A    between atoms: C_12  and  C_20
   14  A    between atoms: C_18  and  C_30
   15  A    between atoms: O_19  and  C_32
   16  A    between atoms: C_25  and  N_27
   17  A    between atoms: C_30  and  C_31
                            x       y       z     vdW  Elec       q    Type
                         _______ _______ _______ _____ _____    ______ ____

>  <TORSDO>
F 17

$$$$
=
 OpenBabel10262423373D

 34 34  0  0  1  0  0  0  0  0999 V2000
  189.4150  176.7070  141.3990 C   0  0  1  0  0  3  0  0  0  0  0  0
  190.3570  175.8400  141.9660 O   0  0  0  0  0  1  0  0  0  0  0  0
  188.2740  178.7950  141.8250 O   0  0  0  0  0  1  0  0  0  0  0  0
  188.9250  177.7370  142.4640 C   0  0  2  0  0  0  0  0  0  0  0  0
  190.1240  178.3020  143.2410 C   0  0  0  0  0  2  0  0  0  0  0  0
  191.2260  177.4350  145.1710 O   0  0  0  0  0  1  0  0  0  0  0  0
  190.0580  178.0670  144.7450 C   0  0  0  0  0  2  0  0  0  0  0  0
  187.9230  177.1380  143.4710 C   0  0  0  0  0  2  0  0  0  0  0  0
  184.0300  178.9190  144.0030 C   0  0  0  0  0  0  0  0  0  0  0  0
  184.4320  178.5050  142.7320 C   0  0  0  0  0  3  0  0  0  0  0  0
  185.6940  177.9400  142.5450 C   0  0  0  0  0  3  0  0  0  0  0  0
  186.1690  178.1960  144.8960 C   0  0  0  0  0  3  0  0  0  0  0  0
  186.5840  177.8110  143.6200 C   0  0  0  0  0  0  0  0  0  0  0  0
  184.9010  178.7510  145.0900 C   0  0  0  0  0  3  0  0  0  0  0  0
  182.7640  179.4900  144.1610 O   0  0  0  0  0  0  0  0  0  0  0  0
  180.9170  179.3680  142.6470 C   0  0  0  0  0  1  0  0  0  0  0  0
  181.5640  178.7830  143.8770 C   0  0  0  0  0  2  0  0  0  0  0  0
  189.9340  177.2270  140.0260 C   0  0  2  0  0  0  0  0  0  0  0  0
  190.9300  178.1850  140.2450 O   0  0  0  0  0  1  0  0  0  0  0  0
  189.0210  179.1730  138.6410 N   0  0  0  0  0  1  0  0  0  0  0  0
  188.8360  177.8850  139.2240 C   0  0  0  0  0  0  0  0  0  0  0  0
  187.7460  177.2800  139.0430 O   0  0  0  0  0  0  0  0  0  0  0  0
  190.5450  176.0650  139.2270 C   0  0  0  0  0  2  0  0  0  0  0  0
  191.2580  176.4300  137.9130 C   0  0  1  0  0  3  0  0  0  0  0  0
  192.6820  175.8570  137.8690 C   0  0  2  0  0  3  0  0  0  0  0  0
  193.4860  176.4970  138.7980 F   0  0  0  0  0  0  0  0  0  0  0  0
  193.3340  175.9900  136.4900 C   0  0  1  0  0  3  0  0  0  0  0  0
  194.7520  176.2990  136.6030 N   0  0  0  0  0  2  0  0  0  0  0  0
  194.9820  177.3900  135.8340 O   0  0  0  0  0  1  0  0  0  0  0  0
  193.1580  174.8230  135.7410 O   0  0  0  0  0  0  0  0  0  0  0  0
  193.0000  172.4850  136.0670 C   0  0  0  0  0  1  0  0  0  0  0  0
  193.5190  173.7900  136.6060 C   0  0  0  0  0  2  0  0  0  0  0  0
  190.5200  176.0110  136.8020 O   0  0  0  0  0  0  0  0  0  0  0  0
  189.8690  174.8460  137.2100 C   0  0  0  0  0  1  0  0  0  0  0  0
  1  2  1  1  0  0  0
  1  4  1  0  0  0  0
  4  3  1  6  0  0  0
  4  5  1  0  0  0  0
  4  8  1  0  0  0  0
  5  7  1  0  0  0  0
  7  6  1  0  0  0  0
  8 13  1  0  0  0  0
  9 15  1  0  0  0  0
  9 14  1  0  0  0  0
 10  9  2  0  0  0  0
 11 10  1  0  0  0  0
 11 13  2  0  0  0  0
 12 14  2  0  0  0  0
 13 12  1  0  0  0  0
 16 17  1  0  0  0  0
 17 15  1  0  0  0  0
 18 19  1  1  0  0  0
 18  1  1  0  0  0  0
 20 21  1  0  0  0  0
 21 18  1  0  0  0  0
 22 21  2  0  0  0  0
 23 18  1  0  0  0  0
 24 23  1  1  0  0  0
 25 24  1  0  0  0  0
 25 26  1  1  0  0  0
 27 30  1  1  0  0  0
 27 28  1  0  0  0  0
 27 25  1  0  0  0  0
 29 28  1  0  0  0  0
 30 32  1  0  0  0  0
 31 32  1  0  0  0  0
 33 34  1  0  0  0  0
 33 24  1  0  0  0  0
M  END
>  <MODEL>
5

>  <REMARK>
 VINA RESULT:      -6.0      3.090      4.727
  Name = 
  17 active torsions:
  status: ('A' for Active; 'I' for Inactive)
    1  A    between atoms: C_1  and  C_18
    2  A    between atoms: C_1  and  C_20
    3  A    between atoms: C_2  and  C_25
    4  A    between atoms: C_2  and  C_32
    5  A    between atoms: O_3  and  C_24
    6  A    between atoms: O_3  and  C_25
    7  A    between atoms: C_5  and  C_20
    8  A    between atoms: C_5  and  C_32
    9  A    between atoms: C_6  and  C_18
   10  A    between atoms: C_6  and  C_28
   11  A    between atoms: C_7  and  O_11
   12  A    between atoms: O_11  and  C_21
   13  A    between atoms: C_12  and  C_20
   14  A    between atoms: C_18  and  C_30
   15  A    between atoms: O_19  and  C_32
   16  A    between atoms: C_25  and  N_27
   17  A    between atoms: C_30  and  C_31
                            x       y       z     vdW  Elec       q    Type
                         _______ _______ _______ _____ _____    ______ ____

>  <TORSDO>
F 17

$$$$
=
 OpenBabel10262423373D

 34 34  0  0  1  0  0  0  0  0999 V2000
  189.5830  176.4540  141.9860 C   0  0  1  0  0  3  0  0  0  0  0  0
  190.4370  175.5910  142.6830 O   0  0  0  0  0  1  0  0  0  0  0  0
  188.4040  178.5440  142.2760 O   0  0  0  0  0  1  0  0  0  0  0  0
  188.8900  177.4390  142.9790 C   0  0  2  0  0  0  0  0  0  0  0  0
  189.9050  177.9350  144.0210 C   0  0  0  0  0  2  0  0  0  0  0  0
  190.7690  176.7760  145.9190 O   0  0  0  0  0  1  0  0  0  0  0  0
  189.6380  177.4340  145.4360 C   0  0  0  0  0  2  0  0  0  0  0  0
  187.6910  176.8140  143.7180 C   0  0  0  0  0  2  0  0  0  0  0  0
  183.9190  178.9000  143.9220 C   0  0  0  0  0  0  0  0  0  0  0  0
  184.3610  178.3900  142.7000 C   0  0  0  0  0  3  0  0  0  0  0  0
  185.5850  177.7260  142.6180 C   0  0  0  0  0  3  0  0  0  0  0  0
  185.9420  178.0710  144.9790 C   0  0  0  0  0  3  0  0  0  0  0  0
  186.4000  177.5900  143.7510 C   0  0  0  0  0  0  0  0  0  0  0  0
  184.7120  178.7270  145.0680 C   0  0  0  0  0  3  0  0  0  0  0  0
  182.6940  179.5700  143.9750 O   0  0  0  0  0  0  0  0  0  0  0  0
  180.4680  178.6940  143.9810 C   0  0  0  0  0  1  0  0  0  0  0  0
  181.5980  179.2280  143.1370 C   0  0  0  0  0  2  0  0  0  0  0  0
  190.3130  177.0260  140.7370 C   0  0  2  0  0  0  0  0  0  0  0  0
  190.4350  176.0180  139.7750 O   0  0  0  0  0  1  0  0  0  0  0  0
  192.7750  177.3750  140.1390 N   0  0  0  0  0  1  0  0  0  0  0  0
  191.7050  177.5080  141.0720 C   0  0  0  0  0  0  0  0  0  0  0  0
  191.9240  178.0610  142.1830 O   0  0  0  0  0  0  0  0  0  0  0  0
  189.4890  178.1750  140.1340 C   0  0  0  0  0  2  0  0  0  0  0  0
  188.9600  177.9700  138.7040 C   0  0  1  0  0  3  0  0  0  0  0  0
  187.6010  177.2550  138.7050 C   0  0  2  0  0  3  0  0  0  0  0  0
  187.6640  176.1010  137.9400 F   0  0  0  0  0  0  0  0  0  0  0  0
  186.4670  178.1320  138.1670 C   0  0  1  0  0  3  0  0  0  0  0  0
  185.5440  177.3590  137.3490 N   0  0  0  0  0  2  0  0  0  0  0  0
  185.8780  177.5810  136.0560 O   0  0  0  0  0  1  0  0  0  0  0  0
  185.7770  178.7510  139.2120 O   0  0  0  0  0  0  0  0  0  0  0  0
  183.6320  179.7410  139.1070 C   0  0  0  0  0  1  0  0  0  0  0  0
  184.4330  178.4780  138.9610 C   0  0  0  0  0  2  0  0  0  0  0  0
  188.8820  179.1820  138.0120 O   0  0  0  0  0  0  0  0  0  0  0  0
  189.2470  178.8820  136.7000 C   0  0  0  0  0  1  0  0  0  0  0  0
  1  2  1  1  0  0  0
  1  4  1  0  0  0  0
  4  3  1  6  0  0  0
  4  8  1  0  0  0  0
  4  5  1  0  0  0  0
  5  7  1  0  0  0  0
  7  6  1  0  0  0  0
  8 13  1  0  0  0  0
  9 15  1  0  0  0  0
  9 14  1  0  0  0  0
 10  9  2  0  0  0  0
 11 10  1  0  0  0  0
 11 13  2  0  0  0  0
 12 14  2  0  0  0  0
 13 12  1  0  0  0  0
 17 15  1  0  0  0  0
 17 16  1  0  0  0  0
 18 19  1  6  0  0  0
 18 21  1  0  0  0  0
 18  1  1  0  0  0  0
 20 21  1  0  0  0  0
 21 22  2  0  0  0  0
 23 18  1  0  0  0  0
 24 25  1  0  0  0  0
 24 23  1  1  0  0  0
 25 26  1  6  0  0  0
 27 28  1  1  0  0  0
 27 25  1  0  0  0  0
 27 30  1  0  0  0  0
 29 28  1  0  0  0  0
 32 31  1  0  0  0  0
 32 30  1  0  0  0  0
 33 24  1  0  0  0  0
 34 33  1  0  0  0  0
M  END
>  <MODEL>
6

>  <REMARK>
 VINA RESULT:      -5.9      2.153      3.356
  Name = 
  17 active torsions:
  status: ('A' for Active; 'I' for Inactive)
    1  A    between atoms: C_1  and  C_18
    2  A    between atoms: C_1  and  C_20
    3  A    between atoms: C_2  and  C_25
    4  A    between atoms: C_2  and  C_32
    5  A    between atoms: O_3  and  C_24
    6  A    between atoms: O_3  and  C_25
    7  A    between atoms: C_5  and  C_20
    8  A    between atoms: C_5  and  C_32
    9  A    between atoms: C_6  and  C_18
   10  A    between atoms: C_6  and  C_28
   11  A    between atoms: C_7  and  O_11
   12  A    between atoms: O_11  and  C_21
   13  A    between atoms: C_12  and  C_20
   14  A    between atoms: C_18  and  C_30
   15  A    between atoms: O_19  and  C_32
   16  A    between atoms: C_25  and  N_27
   17  A    between atoms: C_30  and  C_31
                            x       y       z     vdW  Elec       q    Type
                         _______ _______ _______ _____ _____    ______ ____

>  <TORSDO>
F 17

$$$$
=
 OpenBabel10262423373D

 34 34  0  0  1  0  0  0  0  0999 V2000
  189.8140  176.3630  142.9320 C   0  0  1  0  0  3  0  0  0  0  0  0
  188.5380  175.7960  142.8280 O   0  0  0  0  0  1  0  0  0  0  0  0
  189.8740  176.0010  140.5430 O   0  0  0  0  0  1  0  0  0  0  0  0
  190.2810  176.8920  141.5390 C   0  0  2  0  0  0  0  0  0  0  0  0
  191.8130  176.9950  141.5030 C   0  0  0  0  0  2  0  0  0  0  0  0
  193.5680  177.1620  139.8950 O   0  0  0  0  0  1  0  0  0  0  0  0
  192.3580  177.7350  140.2870 C   0  0  0  0  0  2  0  0  0  0  0  0
  189.6860  178.2670  141.1810 C   0  0  0  0  0  2  0  0  0  0  0  0
  185.7480  178.5340  139.4390 C   0  0  0  0  0  0  0  0  0  0  0  0
  185.9090  178.7240  140.8130 C   0  0  0  0  0  3  0  0  0  0  0  0
  187.1750  178.6260  141.3900 C   0  0  0  0  0  3  0  0  0  0  0  0
  188.1360  178.1500  139.2280 C   0  0  0  0  0  3  0  0  0  0  0  0
  188.2940  178.3060  140.6070 C   0  0  0  0  0  0  0  0  0  0  0  0
  186.8710  178.2570  138.6440 C   0  0  0  0  0  3  0  0  0  0  0  0
  184.4670  178.6280  138.8870 O   0  0  0  0  0  0  0  0  0  0  0  0
  182.3360  179.3490  139.7000 C   0  0  0  0  0  1  0  0  0  0  0  0
  183.6380  179.7690  139.0660 C   0  0  0  0  0  2  0  0  0  0  0  0
  189.8690  177.3170  144.1610 C   0  0  2  0  0  0  0  0  0  0  0  0
  189.5090  178.6070  143.7580 O   0  0  0  0  0  1  0  0  0  0  0  0
  192.0500  178.5740  144.6160 N   0  0  0  0  0  1  0  0  0  0  0  0
  191.2600  177.3940  144.7480 C   0  0  0  0  0  0  0  0  0  0  0  0
  191.7230  176.4130  145.3880 O   0  0  0  0  0  0  0  0  0  0  0  0
  188.8720  176.8460  145.2300 C   0  0  0  0  0  2  0  0  0  0  0  0
  188.0260  177.9350  145.9140 C   0  0  1  0  0  3  0  0  0  0  0  0
  186.5690  177.4850  146.0920 C   0  0  2  0  0  3  0  0  0  0  0  0
  186.3090  176.3760  145.3040 F   0  0  0  0  0  0  0  0  0  0  0  0
  185.5610  178.5810  145.7340 C   0  0  1  0  0  3  0  0  0  0  0  0
  185.8980  179.8410  146.3790 N   0  0  0  0  0  2  0  0  0  0  0  0
  185.6820  179.6770  147.7050 O   0  0  0  0  0  1  0  0  0  0  0  0
  185.4870  178.7560  144.3500 O   0  0  0  0  0  0  0  0  0  0  0  0
  183.2750  178.9530  143.5330 C   0  0  0  0  0  1  0  0  0  0  0  0
  184.4430  179.6610  144.1620 C   0  0  0  0  0  2  0  0  0  0  0  0
  188.5820  178.3140  147.1400 O   0  0  0  0  0  0  0  0  0  0  0  0
  188.7100  177.1310  147.8680 C   0  0  0  0  0  1  0  0  0  0  0  0
  1  2  1  6  0  0  0
  1 18  1  0  0  0  0
  4  3  1  6  0  0  0
  4  1  1  0  0  0  0
  5  4  1  0  0  0  0
  6  7  1  0  0  0  0
  7  5  1  0  0  0  0
  8  4  1  0  0  0  0
  9 10  1  0  0  0  0
 10 11  2  0  0  0  0
 12 13  2  0  0  0  0
 13  8  1  0  0  0  0
 13 11  1  0  0  0  0
 14 12  1  0  0  0  0
 14  9  2  0  0  0  0
 15 17  1  0  0  0  0
 15  9  1  0  0  0  0
 17 16  1  0  0  0  0
 18 19  1  6  0  0  0
 18 21  1  0  0  0  0
 18 23  1  0  0  0  0
 20 21  1  0  0  0  0
 21 22  2  0  0  0  0
 24 23  1  1  0  0  0
 24 25  1  0  0  0  0
 24 33  1  0  0  0  0
 25 26  1  6  0  0  0
 27 30  1  6  0  0  0
 27 25  1  0  0  0  0
 27 28  1  0  0  0  0
 28 29  1  0  0  0  0
 31 32  1  0  0  0  0
 32 30  1  0  0  0  0
 33 34  1  0  0  0  0
M  END
>  <MODEL>
7

>  <REMARK>
 VINA RESULT:      -5.9      2.303      5.819
  Name = 
  17 active torsions:
  status: ('A' for Active; 'I' for Inactive)
    1  A    between atoms: C_1  and  C_18
    2  A    between atoms: C_1  and  C_20
    3  A    between atoms: C_2  and  C_25
    4  A    between atoms: C_2  and  C_32
    5  A    between atoms: O_3  and  C_24
    6  A    between atoms: O_3  and  C_25
    7  A    between atoms: C_5  and  C_20
    8  A    between atoms: C_5  and  C_32
    9  A    between atoms: C_6  and  C_18
   10  A    between atoms: C_6  and  C_28
   11  A    between atoms: C_7  and  O_11
   12  A    between atoms: O_11  and  C_21
   13  A    between atoms: C_12  and  C_20
   14  A    between atoms: C_18  and  C_30
   15  A    between atoms: O_19  and  C_32
   16  A    between atoms: C_25  and  N_27
   17  A    between atoms: C_30  and  C_31
                            x       y       z     vdW  Elec       q    Type
                         _______ _______ _______ _____ _____    ______ ____

>  <TORSDO>
F 17

$$$$
=
 OpenBabel10262423373D

 34 34  0  0  1  0  0  0  0  0999 V2000
  188.6670  177.6090  141.0630 C   0  0  1  0  0  3  0  0  0  0  0  0
  187.9920  178.8310  141.1680 O   0  0  0  0  0  1  0  0  0  0  0  0
  189.9110  178.5430  139.2120 O   0  0  0  0  0  1  0  0  0  0  0  0
  189.1930  177.4110  139.6060 C   0  0  2  0  0  0  0  0  0  0  0  0
  188.0130  177.2230  138.6420 C   0  0  0  0  0  2  0  0  0  0  0  0
  187.2230  179.0490  137.3240 O   0  0  0  0  0  1  0  0  0  0  0  0
  188.1450  178.0020  137.3380 C   0  0  0  0  0  2  0  0  0  0  0  0
  190.1430  176.2050  139.4630 C   0  0  0  0  0  2  0  0  0  0  0  0
  193.4240  176.3500  136.6650 C   0  0  0  0  0  0  0  0  0  0  0  0
  193.6370  176.7060  137.9980 C   0  0  0  0  0  3  0  0  0  0  0  0
  192.5810  176.6770  138.9090 C   0  0  0  0  0  3  0  0  0  0  0  0
  191.0850  175.9340  137.1680 C   0  0  0  0  0  3  0  0  0  0  0  0
  191.2900  176.3220  138.4940 C   0  0  0  0  0  0  0  0  0  0  0  0
  192.1420  175.9510  136.2550 C   0  0  0  0  0  3  0  0  0  0  0  0
  194.4970  176.3970  135.7710 O   0  0  0  0  0  0  0  0  0  0  0  0
  196.6160  175.3120  135.9980 C   0  0  0  0  0  1  0  0  0  0  0  0
  195.2350  175.2410  135.3980 C   0  0  0  0  0  2  0  0  0  0  0  0
  189.6570  177.4470  142.2530 C   0  0  2  0  0  0  0  0  0  0  0  0
  190.9500  177.7630  141.8230 O   0  0  0  0  0  1  0  0  0  0  0  0
  190.9010  175.4220  143.1990 N   0  0  0  0  0  1  0  0  0  0  0  0
  189.6830  176.0280  142.7720 C   0  0  0  0  0  0  0  0  0  0  0  0
  188.6090  175.3740  142.8560 O   0  0  0  0  0  0  0  0  0  0  0  0
  189.2730  178.4140  143.3840 C   0  0  0  0  0  2  0  0  0  0  0  0
  188.9300  177.7830  144.7460 C   0  0  1  0  0  3  0  0  0  0  0  0
  190.0680  177.9810  145.7580 C   0  0  2  0  0  3  0  0  0  0  0  0
  191.2600  178.2290  145.0980 F   0  0  0  0  0  0  0  0  0  0  0  0
  190.2650  176.7700  146.6750 C   0  0  1  0  0  3  0  0  0  0  0  0
  191.5550  176.8210  147.3480 N   0  0  0  0  0  2  0  0  0  0  0  0
  192.4150  176.0780  146.6120 O   0  0  0  0  0  1  0  0  0  0  0  0
  189.2370  176.6860  147.6170 O   0  0  0  0  0  0  0  0  0  0  0  0
  187.9700  178.3020  148.7930 C   0  0  0  0  0  1  0  0  0  0  0  0
  189.3410  177.8610  148.3610 C   0  0  0  0  0  2  0  0  0  0  0  0
  187.7260  178.2840  145.2490 O   0  0  0  0  0  0  0  0  0  0  0  0
  186.7510  177.3670  144.8540 C   0  0  0  0  0  1  0  0  0  0  0  0
  1  2  1  6  0  0  0
  1 18  1  0  0  0  0
  4  3  1  6  0  0  0
  4  1  1  0  0  0  0
  5  4  1  0  0  0  0
  6  7  1  0  0  0  0
  7  5  1  0  0  0  0
  8  4  1  0  0  0  0
  9 10  1  0  0  0  0
 10 11  2  0  0  0  0
 12 13  2  0  0  0  0
 13 11  1  0  0  0  0
 13  8  1  0  0  0  0
 14  9  2  0  0  0  0
 14 12  1  0  0  0  0
 15  9  1  0  0  0  0
 17 15  1  0  0  0  0
 17 16  1  0  0  0  0
 18 19  1  6  0  0  0
 18 21  1  0  0  0  0
 18 23  1  0  0  0  0
 21 22  2  0  0  0  0
 21 20  1  0  0  0  0
 24 23  1  6  0  0  0
 24 33  1  0  0  0  0
 24 25  1  0  0  0  0
 25 26  1  6  0  0  0
 25 27  1  0  0  0  0
 27 28  1  1  0  0  0
 27 30  1  0  0  0  0
 29 28  1  0  0  0  0
 30 32  1  0  0  0  0
 32 31  1  0  0  0  0
 34 33  1  0  0  0  0
M  END
>  <MODEL>
8

>  <REMARK>
 VINA RESULT:      -5.7      2.775      8.925
  Name = 
  17 active torsions:
  status: ('A' for Active; 'I' for Inactive)
    1  A    between atoms: C_1  and  C_18
    2  A    between atoms: C_1  and  C_20
    3  A    between atoms: C_2  and  C_25
    4  A    between atoms: C_2  and  C_32
    5  A    between atoms: O_3  and  C_24
    6  A    between atoms: O_3  and  C_25
    7  A    between atoms: C_5  and  C_20
    8  A    between atoms: C_5  and  C_32
    9  A    between atoms: C_6  and  C_18
   10  A    between atoms: C_6  and  C_28
   11  A    between atoms: C_7  and  O_11
   12  A    between atoms: O_11  and  C_21
   13  A    between atoms: C_12  and  C_20
   14  A    between atoms: C_18  and  C_30
   15  A    between atoms: O_19  and  C_32
   16  A    between atoms: C_25  and  N_27
   17  A    between atoms: C_30  and  C_31
                            x       y       z     vdW  Elec       q    Type
                         _______ _______ _______ _____ _____    ______ ____

>  <TORSDO>
F 17

$$$$
=
 OpenBabel10262423373D

 34 34  0  0  1  0  0  0  0  0999 V2000
  186.3180  177.7030  142.4800 C   0  0  1  0  0  3  0  0  0  0  0  0
  186.4170  176.8470  143.5840 O   0  0  0  0  0  1  0  0  0  0  0  0
  185.7290  180.0170  142.1060 O   0  0  0  0  0  1  0  0  0  0  0  0
  185.3270  178.8680  142.7910 C   0  0  2  0  0  0  0  0  0  0  0  0
  185.3320  179.1730  144.2970 C   0  0  0  0  0  2  0  0  0  0  0  0
  184.1670  178.6230  146.3060 O   0  0  0  0  0  1  0  0  0  0  0  0
  183.9780  178.9890  144.9730 C   0  0  0  0  0  2  0  0  0  0  0  0
  183.8800  178.5680  142.3530 C   0  0  0  0  0  2  0  0  0  0  0  0
  182.9700  178.0600  138.1660 C   0  0  0  0  0  0  0  0  0  0  0  0
  182.9360  176.9550  139.0190 C   0  0  0  0  0  3  0  0  0  0  0  0
  183.2430  177.1040  140.3720 C   0  0  0  0  0  3  0  0  0  0  0  0
  183.6180  179.4640  140.0390 C   0  0  0  0  0  3  0  0  0  0  0  0
  183.6170  178.3540  140.8860 C   0  0  0  0  0  0  0  0  0  0  0  0
  183.3010  179.3220  138.6850 C   0  0  0  0  0  3  0  0  0  0  0  0
  182.6680  177.8820  136.8130 O   0  0  0  0  0  0  0  0  0  0  0  0
  184.0050  176.8420  135.1250 C   0  0  0  0  0  1  0  0  0  0  0  0
  182.8990  176.6560  136.1320 C   0  0  0  0  0  2  0  0  0  0  0  0
  187.7390  178.0400  141.9430 C   0  0  2  0  0  0  0  0  0  0  0  0
  188.0430  179.3700  142.2520 O   0  0  0  0  0  1  0  0  0  0  0  0
  186.9570  178.6290  139.5790 N   0  0  0  0  0  1  0  0  0  0  0  0
  187.8220  177.8910  140.4410 C   0  0  0  0  0  0  0  0  0  0  0  0
  188.6840  177.1250  139.9360 O   0  0  0  0  0  0  0  0  0  0  0  0
  188.7800  177.1350  142.6190 C   0  0  0  0  0  2  0  0  0  0  0  0
  190.1280  177.7830  142.9820 C   0  0  1  0  0  3  0  0  0  0  0  0
  190.1760  178.1890  144.4620 C   0  0  2  0  0  3  0  0  0  0  0  0
  191.2520  179.0300  144.6950 F   0  0  0  0  0  0  0  0  0  0  0  0
  190.2870  176.9880  145.4050 C   0  0  1  0  0  3  0  0  0  0  0  0
  191.4440  177.1070  146.2800 N   0  0  0  0  0  2  0  0  0  0  0  0
  192.0700  175.9060  146.2740 O   0  0  0  0  0  1  0  0  0  0  0  0
  189.1240  176.8440  146.1670 O   0  0  0  0  0  0  0  0  0  0  0  0
  187.9380  177.9150  147.9110 C   0  0  0  0  0  1  0  0  0  0  0  0
  189.2480  177.7910  147.1840 C   0  0  0  0  0  2  0  0  0  0  0  0
  191.1980  176.9400  142.6640 O   0  0  0  0  0  0  0  0  0  0  0  0
  191.7920  177.5090  141.5360 C   0  0  0  0  0  1  0  0  0  0  0  0
  1  4  1  0  0  0  0
  1  2  1  1  0  0  0
  4  3  1  6  0  0  0
  4  5  1  0  0  0  0
  5  7  1  0  0  0  0
  7  6  1  0  0  0  0
  8  4  1  0  0  0  0
  9 14  2  0  0  0  0
  9 10  1  0  0  0  0
 10 11  2  0  0  0  0
 11 13  1  0  0  0  0
 12 13  2  0  0  0  0
 13  8  1  0  0  0  0
 14 12  1  0  0  0  0
 15  9  1  0  0  0  0
 16 17  1  0  0  0  0
 17 15  1  0  0  0  0
 18 19  1  1  0  0  0
 18  1  1  0  0  0  0
 18 23  1  0  0  0  0
 20 21  1  0  0  0  0
 21 18  1  0  0  0  0
 22 21  2  0  0  0  0
 24 23  1  1  0  0  0
 24 25  1  0  0  0  0
 25 26  1  6  0  0  0
 25 27  1  0  0  0  0
 27 30  1  1  0  0  0
 27 28  1  0  0  0  0
 29 28  1  0  0  0  0
 30 32  1  0  0  0  0
 32 31  1  0  0  0  0
 33 24  1  0  0  0  0
 34 33  1  0  0  0  0
M  END
>  <MODEL>
9

>  <REMARK>
 VINA RESULT:      -5.5      2.838      6.045
  Name = 
  17 active torsions:
  status: ('A' for Active; 'I' for Inactive)
    1  A    between atoms: C_1  and  C_18
    2  A    between atoms: C_1  and  C_20
    3  A    between atoms: C_2  and  C_25
    4  A    between atoms: C_2  and  C_32
    5  A    between atoms: O_3  and  C_24
    6  A    between atoms: O_3  and  C_25
    7  A    between atoms: C_5  and  C_20
    8  A    between atoms: C_5  and  C_32
    9  A    between atoms: C_6  and  C_18
   10  A    between atoms: C_6  and  C_28
   11  A    between atoms: C_7  and  O_11
   12  A    between atoms: O_11  and  C_21
   13  A    between atoms: C_12  and  C_20
   14  A    between atoms: C_18  and  C_30
   15  A    between atoms: O_19  and  C_32
   16  A    between atoms: C_25  and  N_27
   17  A    between atoms: C_30  and  C_31
                            x       y       z     vdW  Elec       q    Type
                         _______ _______ _______ _____ _____    ______ ____

>  <TORSDO>
F 17

$$$$
