=
 OpenBabel10262420323D

 55 61  0  0  1  0  0  0  0  0999 V2000
  185.1470  174.9970  136.1790 C   0  0  0  0  0  3  0  0  0  0  0  0
  187.8010  175.8680  136.3140 C   0  0  0  0  0  0  0  0  0  0  0  0
  186.7910  176.5900  136.9540 C   0  0  0  0  0  3  0  0  0  0  0  0
  186.1560  174.2710  135.5390 C   0  0  0  0  0  3  0  0  0  0  0  0
  185.4600  176.1560  136.8920 C   0  0  0  0  0  0  0  0  0  0  0  0
  187.4830  174.7050  135.6040 C   0  0  0  0  0  3  0  0  0  0  0  0
  184.3910  176.9190  137.5390 C   0  0  0  0  0  3  0  0  0  0  0  0
  183.5610  176.3380  138.3460 N   0  0  0  0  0  0  0  0  0  0  0  0
  179.8630  178.7100  136.8640 N   0  0  0  0  0  2  0  0  0  0  0  0
  178.9310  180.7460  136.1740 O   0  0  0  0  0  0  0  0  0  0  0  0
  181.8990  179.6250  137.8290 C   0  0  2  0  0  3  0  0  0  0  0  0
  181.0000  180.7950  137.4350 C   0  0  0  0  0  2  0  0  0  0  0  0
  179.8530  180.1220  136.7610 C   0  0  0  0  0  0  0  0  0  0  0  0
  181.0560  178.4220  137.5790 C   0  0  0  0  0  0  0  0  0  0  0  0
  183.0910  178.3990  139.6320 C   0  0  2  0  0  3  0  0  0  0  0  0
  182.2700  179.6560  139.2990 C   0  0  0  0  0  2  0  0  0  0  0  0
  181.3120  177.2350  138.1440 C   0  0  0  0  0  0  0  0  0  0  0  0
  182.5220  177.0750  139.0510 C   0  0  1  0  0  3  0  0  0  0  0  0
  184.7700  178.6260  141.4850 C   0  0  0  0  0  3  0  0  0  0  0  0
  184.0390  179.0130  143.7880 C   0  0  0  0  0  0  0  0  0  0  0  0
  182.3420  179.0400  141.9840 C   0  0  0  0  0  2  0  0  0  0  0  0
  182.7440  179.0130  143.4330 C   0  0  0  0  0  3  0  0  0  0  0  0
  185.0850  178.9440  142.7440 C   0  0  0  0  0  3  0  0  0  0  0  0
  183.3530  178.2540  141.1310 C   0  0  1  0  0  3  0  0  0  0  0  0
  184.4260  179.0570  145.2070 C   0  0  0  0  0  0  0  0  0  0  0  0
  185.5780  179.4360  145.5460 O   0  0  0  0  0  0  0  0  0  0  0  0
  183.5190  178.6870  146.1910 O   0  0  0  0  0  1  0  0  0  0  0  0
  180.7730  174.0640  138.3140 C   0  0  0  0  0  2  0  0  0  0  0  0
  181.5130  174.8400  136.0200 O   0  0  0  0  0  0  0  0  0  0  0  0
  180.3720  176.0810  137.9130 C   0  0  2  0  0  3  0  0  0  0  0  0
  179.9930  175.2230  139.4440 S   0  0  0  0  0  0  0  0  0  0  0  0
  181.0190  174.9640  137.1280 C   0  0  0  0  0  0  0  0  0  0  0  0
  189.2040  176.3640  136.3610 C   0  0  0  0  0  2  0  0  0  0  0  0
  189.7940  176.1090  137.7340 C   0  0  0  0  0  2  0  0  0  0  0  0
  189.9600  177.2910  139.8900 C   0  0  2  0  0  3  0  0  0  0  0  0
  189.5740  178.3000  138.8340 C   0  0  0  0  0  2  0  0  0  0  0  0
  189.0220  176.8930  138.7700 C   0  0  1  0  0  3  0  0  0  0  0  0
  189.2100  177.5260  141.0530 O   0  0  0  0  0  0  0  0  0  0  0  0
  191.8070  177.2510  141.7720 S   0  0  0  0  0  1  0  0  0  0  0  0
  190.0370  177.5010  142.2070 C   0  0  1  0  0  0  0  0  0  0  0  0
  189.9590  178.7640  142.7580 F   0  0  0  0  0  0  0  0  0  0  0  0
  191.2480  176.9630  145.2760 C   0  0  2  0  0  0  0  0  0  0  0  0
  188.2030  176.3510  145.3400 O   0  0  0  0  0  0  0  0  0  0  0  0
  189.5560  176.4530  143.2690 C   0  0  1  0  0  0  0  0  0  0  0  0
  188.0450  178.2980  144.0220 F   0  0  0  0  0  0  0  0  0  0  0  0
  188.3200  176.9370  144.0590 C   0  0  2  0  0  3  0  0  0  0  0  0
  192.1900  177.7940  144.6980 F   0  0  0  0  0  0  0  0  0  0  0  0
  190.1990  177.7980  146.0270 C   0  0  2  0  0  3  0  0  0  0  0  0
  191.9750  176.1160  146.3010 C   0  0  0  0  0  1  0  0  0  0  0  0
  188.8610  177.0920  146.3560 C   0  0  1  0  0  3  0  0  0  0  0  0
  189.1560  175.2960  142.6000 O   0  0  0  0  0  1  0  0  0  0  0  0
  190.0230  179.0670  145.4720 O   0  0  0  0  0  1  0  0  0  0  0  0
  190.6950  176.0030  144.2130 C   0  0  0  0  0  2  0  0  0  0  0  0
  187.9100  177.9200  147.1670 C   0  0  0  0  0  3  0  0  0  0  0  0
  188.3040  178.5870  148.1100 O   0  0  0  0  0  0  0  0  0  0  0  0
  1  5  1  0  0  0  0
  2 33  1  0  0  0  0
  2  3  1  0  0  0  0
  4  6  1  0  0  0  0
  4  1  2  0  0  0  0
  5  3  2  0  0  0  0
  5  7  1  0  0  0  0
  6  2  2  0  0  0  0
  7  8  2  0  0  0  0
  9 14  1  0  0  0  0
 10 13  2  0  0  0  0
 11 12  1  1  0  0  0
 11 16  1  0  0  0  0
 13  9  1  0  0  0  0
 13 12  1  0  0  0  0
 14 11  1  0  0  0  0
 14 17  2  0  0  0  0
 15 16  1  1  0  0  0
 15 24  1  0  0  0  0
 17 18  1  0  0  0  0
 18  8  1  6  0  0  0
 18 15  1  0  0  0  0
 19 23  2  0  0  0  0
 20 25  1  0  0  0  0
 21 22  1  0  0  0  0
 22 20  2  0  0  0  0
 23 20  1  0  0  0  0
 24 19  1  6  0  0  0
 24 21  1  0  0  0  0
 25 26  2  0  0  0  0
 25 27  1  0  0  0  0
 28 31  1  0  0  0  0
 29 32  2  0  0  0  0
 30 17  1  1  0  0  0
 30 31  1  0  0  0  0
 32 30  1  0  0  0  0
 32 28  1  0  0  0  0
 33 34  1  0  0  0  0
 35 38  1  1  0  0  0
 36 35  1  0  0  0  0
 37 34  1  6  0  0  0
 37 36  1  0  0  0  0
 37 35  1  0  0  0  0
 38 40  1  0  0  0  0
 40 39  1  6  0  0  0
 40 41  1  0  0  0  0
 40 44  1  0  0  0  0
 42 48  1  0  0  0  0
 42 49  1  1  0  0  0
 43 50  1  0  0  0  0
 44 51  1  6  0  0  0
 44 46  1  0  0  0  0
 44 53  1  0  0  0  0
 46 45  1  1  0  0  0
 46 43  1  0  0  0  0
 47 42  1  0  0  0  0
 48 52  1  6  0  0  0
 48 50  1  0  0  0  0
 50 54  1  6  0  0  0
 53 42  1  0  0  0  0
 54 55  2  0  0  0  0
M  END
>  <MODEL>
1

>  <REMARK>
 VINA RESULT:      -8.0      0.000      0.000
  Name = 
  12 active torsions:
  status: ('A' for Active; 'I' for Inactive)
    1  A    between atoms: C_2  and  C_44
    2  A    between atoms: C_6  and  C_20
    3  A    between atoms: C_8  and  O_22
    4  A    between atoms: C_10  and  C_32
    5  A    between atoms: C_11  and  C_38
    6  A    between atoms: C_19  and  C_45
    7  A    between atoms: C_20  and  O_22
    8  A    between atoms: C_27  and  C_54
    9  A    between atoms: N_28  and  C_49
   10  A    between atoms: C_33  and  C_52
   11  A    between atoms: C_43  and  C_51
   12  A    between atoms: C_51  and  C_54
                            x       y       z     vdW  Elec       q    Type
                         _______ _______ _______ _____ _____    ______ ____

>  <TORSDO>
F 12

$$$$
=
 OpenBabel10262420323D

 55 61  0  0  1  0  0  0  0  0999 V2000
  191.7520  177.4380  142.1940 C   0  0  0  0  0  3  0  0  0  0  0  0
  189.1420  177.7520  143.1460 C   0  0  0  0  0  0  0  0  0  0  0  0
  189.3690  177.4730  141.7960 C   0  0  0  0  0  3  0  0  0  0  0  0
  191.5280  177.7160  143.5470 C   0  0  0  0  0  3  0  0  0  0  0  0
  190.6740  177.3120  141.3150 C   0  0  0  0  0  0  0  0  0  0  0  0
  190.2240  177.8740  144.0240 C   0  0  0  0  0  3  0  0  0  0  0  0
  190.9240  177.0430  139.8970 C   0  0  0  0  0  3  0  0  0  0  0  0
  190.2200  176.1640  139.2580 N   0  0  0  0  0  0  0  0  0  0  0  0
  187.3680  174.5380  135.9830 N   0  0  0  0  0  2  0  0  0  0  0  0
  186.5060  172.7060  134.8050 O   0  0  0  0  0  0  0  0  0  0  0  0
  189.2720  173.3900  136.9690 C   0  0  2  0  0  3  0  0  0  0  0  0
  188.6040  172.4310  135.9860 C   0  0  0  0  0  2  0  0  0  0  0  0
  187.4030  173.1950  135.5390 C   0  0  0  0  0  0  0  0  0  0  0  0
  188.5390  174.6730  136.7760 C   0  0  0  0  0  0  0  0  0  0  0  0
  191.3040  174.6650  137.6170 C   0  0  2  0  0  3  0  0  0  0  0  0
  190.7360  173.6190  136.6440 C   0  0  0  0  0  2  0  0  0  0  0  0
  189.0450  175.8540  137.1540 C   0  0  0  0  0  0  0  0  0  0  0  0
  190.4020  175.9110  137.8360 C   0  0  1  0  0  3  0  0  0  0  0  0
  193.7420  174.5190  138.1990 C   0  0  0  0  0  3  0  0  0  0  0  0
  195.4560  174.8400  136.4810 C   0  0  0  0  0  0  0  0  0  0  0  0
  193.0790  174.7590  135.7880 C   0  0  0  0  0  2  0  0  0  0  0  0
  194.5340  175.0340  135.5240 C   0  0  0  0  0  3  0  0  0  0  0  0
  195.0270  174.4410  137.8400 C   0  0  0  0  0  3  0  0  0  0  0  0
  192.7250  175.0930  137.2470 C   0  0  1  0  0  3  0  0  0  0  0  0
  196.8850  175.0440  136.1970 C   0  0  0  0  0  0  0  0  0  0  0  0
  197.6510  174.0590  136.0240 O   0  0  0  0  0  0  0  0  0  0  0  0
  197.4040  176.3290  136.1070 O   0  0  0  0  0  1  0  0  0  0  0  0
  188.7820  179.0430  137.5260 C   0  0  0  0  0  2  0  0  0  0  0  0
  187.3390  177.7170  139.1300 O   0  0  0  0  0  0  0  0  0  0  0  0
  188.2860  177.1210  136.8560 C   0  0  2  0  0  3  0  0  0  0  0  0
  189.3050  178.3060  135.9720 S   0  0  0  0  0  0  0  0  0  0  0  0
  187.9730  177.9080  138.1060 C   0  0  0  0  0  0  0  0  0  0  0  0
  187.7490  177.9560  143.6320 C   0  0  0  0  0  2  0  0  0  0  0  0
  186.7640  177.5760  142.5430 C   0  0  0  0  0  2  0  0  0  0  0  0
  184.3850  177.9740  142.0410 C   0  0  2  0  0  3  0  0  0  0  0  0
  184.6260  178.3550  143.4830 C   0  0  0  0  0  2  0  0  0  0  0  0
  185.6880  178.6330  142.4420 C   0  0  1  0  0  3  0  0  0  0  0  0
  183.5550  178.9330  141.4400 O   0  0  0  0  0  0  0  0  0  0  0  0
  184.2620  179.7820  138.9680 S   0  0  0  0  0  1  0  0  0  0  0  0
  183.3370  178.6350  140.0700 C   0  0  1  0  0  0  0  0  0  0  0  0
  183.8870  177.3860  139.8600 F   0  0  0  0  0  0  0  0  0  0  0  0
  181.9430  177.7130  137.1740 C   0  0  2  0  0  0  0  0  0  0  0  0
  179.9810  176.9430  139.4560 O   0  0  0  0  0  0  0  0  0  0  0  0
  181.8150  178.5890  139.6970 C   0  0  1  0  0  0  0  0  0  0  0  0
  181.9430  176.2450  140.5590 F   0  0  0  0  0  0  0  0  0  0  0  0
  181.1200  177.3070  140.2090 C   0  0  2  0  0  3  0  0  0  0  0  0
  183.2880  177.8130  136.8680 F   0  0  0  0  0  0  0  0  0  0  0  0
  181.6030  176.2740  137.5940 C   0  0  2  0  0  3  0  0  0  0  0  0
  181.1770  178.0100  135.9010 C   0  0  0  0  0  1  0  0  0  0  0  0
  180.2810  176.0760  138.3730 C   0  0  1  0  0  3  0  0  0  0  0  0
  181.1720  179.6540  140.3300 O   0  0  0  0  0  1  0  0  0  0  0  0
  182.6860  175.6150  138.1800 O   0  0  0  0  0  1  0  0  0  0  0  0
  181.5690  178.8060  138.1870 C   0  0  0  0  0  2  0  0  0  0  0  0
  179.9530  174.6450  138.6780 C   0  0  0  0  0  3  0  0  0  0  0  0
  179.5880  174.3070  139.7920 O   0  0  0  0  0  0  0  0  0  0  0  0
  1  4  1  0  0  0  0
  2 33  1  0  0  0  0
  2  6  1  0  0  0  0
  3  2  2  0  0  0  0
  4  6  2  0  0  0  0
  5  3  1  0  0  0  0
  5  1  2  0  0  0  0
  7  5  1  0  0  0  0
  8  7  2  0  0  0  0
  9 14  1  0  0  0  0
 10 13  2  0  0  0  0
 11 12  1  6  0  0  0
 13  9  1  0  0  0  0
 13 12  1  0  0  0  0
 14 11  1  0  0  0  0
 14 17  2  0  0  0  0
 15 16  1  6  0  0  0
 15 18  1  0  0  0  0
 16 11  1  0  0  0  0
 17 18  1  0  0  0  0
 18  8  1  1  0  0  0
 20 23  1  0  0  0  0
 22 21  1  0  0  0  0
 22 20  2  0  0  0  0
 23 19  2  0  0  0  0
 24 21  1  6  0  0  0
 24 15  1  0  0  0  0
 24 19  1  0  0  0  0
 25 20  1  0  0  0  0
 26 25  2  0  0  0  0
 27 25  1  0  0  0  0
 28 32  1  0  0  0  0
 30 17  1  1  0  0  0
 30 32  1  0  0  0  0
 31 30  1  0  0  0  0
 31 28  1  0  0  0  0
 32 29  2  0  0  0  0
 34 33  1  0  0  0  0
 35 38  1  6  0  0  0
 35 37  1  0  0  0  0
 35 36  1  0  0  0  0
 37 34  1  1  0  0  0
 37 36  1  0  0  0  0
 40 39  1  6  0  0  0
 40 38  1  0  0  0  0
 41 40  1  0  0  0  0
 42 49  1  6  0  0  0
 42 48  1  0  0  0  0
 42 53  1  0  0  0  0
 43 46  1  0  0  0  0
 44 40  1  0  0  0  0
 44 46  1  0  0  0  0
 44 51  1  1  0  0  0
 46 45  1  6  0  0  0
 47 42  1  0  0  0  0
 48 52  1  1  0  0  0
 48 50  1  0  0  0  0
 50 54  1  1  0  0  0
 50 43  1  0  0  0  0
 53 44  1  0  0  0  0
 54 55  2  0  0  0  0
M  END
>  <MODEL>
2

>  <REMARK>
 VINA RESULT:      -7.8      4.060     10.209
  Name = 
  12 active torsions:
  status: ('A' for Active; 'I' for Inactive)
    1  A    between atoms: C_2  and  C_44
    2  A    between atoms: C_6  and  C_20
    3  A    between atoms: C_8  and  O_22
    4  A    between atoms: C_10  and  C_32
    5  A    between atoms: C_11  and  C_38
    6  A    between atoms: C_19  and  C_45
    7  A    between atoms: C_20  and  O_22
    8  A    between atoms: C_27  and  C_54
    9  A    between atoms: N_28  and  C_49
   10  A    between atoms: C_33  and  C_52
   11  A    between atoms: C_43  and  C_51
   12  A    between atoms: C_51  and  C_54
                            x       y       z     vdW  Elec       q    Type
                         _______ _______ _______ _____ _____    ______ ____

>  <TORSDO>
F 12

$$$$
=
 OpenBabel10262420323D

 55 61  0  0  1  0  0  0  0  0999 V2000
  191.6640  177.5250  141.9810 C   0  0  0  0  0  3  0  0  0  0  0  0
  189.0420  177.7900  142.9170 C   0  0  0  0  0  0  0  0  0  0  0  0
  189.2810  177.4630  141.5800 C   0  0  0  0  0  3  0  0  0  0  0  0
  191.4270  177.8500  143.3210 C   0  0  0  0  0  3  0  0  0  0  0  0
  190.5930  177.3270  141.1070 C   0  0  0  0  0  0  0  0  0  0  0  0
  190.1180  177.9840  143.7900 C   0  0  0  0  0  3  0  0  0  0  0  0
  190.8550  177.0080  139.7020 C   0  0  0  0  0  3  0  0  0  0  0  0
  190.1170  176.1510  139.0710 N   0  0  0  0  0  0  0  0  0  0  0  0
  187.2980  174.4130  135.8260 N   0  0  0  0  0  2  0  0  0  0  0  0
  186.4490  172.5410  134.7010 O   0  0  0  0  0  0  0  0  0  0  0  0
  189.1950  173.3010  136.8660 C   0  0  2  0  0  3  0  0  0  0  0  0
  188.5370  172.3090  135.9090 C   0  0  0  0  0  2  0  0  0  0  0  0
  187.3390  173.0550  135.4270 C   0  0  0  0  0  0  0  0  0  0  0  0
  188.4610  174.5760  136.6250 C   0  0  0  0  0  0  0  0  0  0  0  0
  191.2190  174.6000  137.4890 C   0  0  2  0  0  3  0  0  0  0  0  0
  190.6610  173.5220  136.5460 C   0  0  0  0  0  2  0  0  0  0  0  0
  188.9620  175.7700  136.9680 C   0  0  0  0  0  0  0  0  0  0  0  0
  190.3130  175.8510  137.6600 C   0  0  1  0  0  3  0  0  0  0  0  0
  193.6040  174.7810  138.2530 C   0  0  0  0  0  3  0  0  0  0  0  0
  195.4360  174.7720  136.6310 C   0  0  0  0  0  0  0  0  0  0  0  0
  193.1330  174.3490  135.8230 C   0  0  0  0  0  2  0  0  0  0  0  0
  194.5890  174.6490  135.5960 C   0  0  0  0  0  3  0  0  0  0  0  0
  194.9170  174.7040  138.0150 C   0  0  0  0  0  3  0  0  0  0  0  0
  192.6420  175.0190  137.1180 C   0  0  1  0  0  3  0  0  0  0  0  0
  196.8720  174.9970  136.4010 C   0  0  0  0  0  0  0  0  0  0  0  0
  197.7020  174.0640  136.5670 O   0  0  0  0  0  1  0  0  0  0  0  0
  197.3280  176.2420  135.9890 O   0  0  0  0  0  0  0  0  0  0  0  0
  188.6830  178.9670  137.2410 C   0  0  0  0  0  2  0  0  0  0  0  0
  187.2220  177.6850  138.8630 O   0  0  0  0  0  0  0  0  0  0  0  0
  188.2040  177.0240  136.6220 C   0  0  2  0  0  3  0  0  0  0  0  0
  189.2310  178.1860  135.7180 S   0  0  0  0  0  0  0  0  0  0  0  0
  187.8700  177.8470  137.8440 C   0  0  0  0  0  0  0  0  0  0  0  0
  187.6420  177.9670  143.3930 C   0  0  0  0  0  2  0  0  0  0  0  0
  186.6770  177.7350  142.2470 C   0  0  0  0  0  2  0  0  0  0  0  0
  184.2690  178.1210  141.8910 C   0  0  2  0  0  3  0  0  0  0  0  0
  184.5710  178.3720  143.3510 C   0  0  0  0  0  2  0  0  0  0  0  0
  185.5770  178.7700  142.2940 C   0  0  1  0  0  3  0  0  0  0  0  0
  183.3930  179.1110  141.4220 O   0  0  0  0  0  0  0  0  0  0  0  0
  183.0890  176.9170  139.8650 S   0  0  0  0  0  1  0  0  0  0  0  0
  182.6600  178.6530  140.2960 C   0  0  1  0  0  0  0  0  0  0  0  0
  181.3370  178.6280  140.6870 F   0  0  0  0  0  0  0  0  0  0  0  0
  181.1670  178.4040  137.3150 C   0  0  2  0  0  0  0  0  0  0  0  0
  181.5730  181.4240  137.9200 O   0  0  0  0  0  0  0  0  0  0  0  0
  182.8050  179.6010  139.0560 C   0  0  1  0  0  0  0  0  0  0  0  0
  180.8810  180.8190  140.0900 F   0  0  0  0  0  0  0  0  0  0  0  0
  181.9210  180.8620  139.1700 C   0  0  2  0  0  3  0  0  0  0  0  0
  180.8920  177.1890  137.9170 F   0  0  0  0  0  0  0  0  0  0  0  0
  180.0350  179.4040  137.6020 C   0  0  2  0  0  3  0  0  0  0  0  0
  181.1920  178.1600  135.8200 C   0  0  0  0  0  1  0  0  0  0  0  0
  180.3650  180.9000  137.3890 C   0  0  1  0  0  3  0  0  0  0  0  0
  184.1230  180.0590  139.0010 O   0  0  0  0  0  1  0  0  0  0  0  0
  179.3930  179.1550  138.8170 O   0  0  0  0  0  1  0  0  0  0  0  0
  182.5760  178.8640  137.7170 C   0  0  0  0  0  2  0  0  0  0  0  0
  179.2020  181.8240  137.5950 C   0  0  0  0  0  3  0  0  0  0  0  0
  179.3720  183.0180  137.7790 O   0  0  0  0  0  0  0  0  0  0  0  0
  1  4  1  0  0  0  0
  2 33  1  0  0  0  0
  2  6  1  0  0  0  0
  3  2  2  0  0  0  0
  4  6  2  0  0  0  0
  5  3  1  0  0  0  0
  5  1  2  0  0  0  0
  7  5  1  0  0  0  0
  8  7  2  0  0  0  0
  9 14  1  0  0  0  0
 10 13  2  0  0  0  0
 11 12  1  6  0  0  0
 13  9  1  0  0  0  0
 13 12  1  0  0  0  0
 14 11  1  0  0  0  0
 14 17  2  0  0  0  0
 15 16  1  6  0  0  0
 15 18  1  0  0  0  0
 16 11  1  0  0  0  0
 17 18  1  0  0  0  0
 18  8  1  1  0  0  0
 20 23  1  0  0  0  0
 22 21  1  0  0  0  0
 22 20  2  0  0  0  0
 23 19  2  0  0  0  0
 24 21  1  6  0  0  0
 24 15  1  0  0  0  0
 24 19  1  0  0  0  0
 25 26  1  0  0  0  0
 25 20  1  0  0  0  0
 27 25  2  0  0  0  0
 28 32  1  0  0  0  0
 30 17  1  1  0  0  0
 30 32  1  0  0  0  0
 31 30  1  0  0  0  0
 31 28  1  0  0  0  0
 32 29  2  0  0  0  0
 34 33  1  0  0  0  0
 35 38  1  6  0  0  0
 35 37  1  0  0  0  0
 35 36  1  0  0  0  0
 37 34  1  1  0  0  0
 37 36  1  0  0  0  0
 40 39  1  6  0  0  0
 40 41  1  0  0  0  0
 40 38  1  0  0  0  0
 42 49  1  6  0  0  0
 42 48  1  0  0  0  0
 42 53  1  0  0  0  0
 42 47  1  0  0  0  0
 43 46  1  0  0  0  0
 44 51  1  6  0  0  0
 44 46  1  0  0  0  0
 44 40  1  0  0  0  0
 46 45  1  6  0  0  0
 48 52  1  1  0  0  0
 50 54  1  1  0  0  0
 50 48  1  0  0  0  0
 50 43  1  0  0  0  0
 53 44  1  0  0  0  0
 54 55  2  0  0  0  0
M  END
>  <MODEL>
3

>  <REMARK>
 VINA RESULT:      -7.7      4.117     10.422
  Name = 
  12 active torsions:
  status: ('A' for Active; 'I' for Inactive)
    1  A    between atoms: C_2  and  C_44
    2  A    between atoms: C_6  and  C_20
    3  A    between atoms: C_8  and  O_22
    4  A    between atoms: C_10  and  C_32
    5  A    between atoms: C_11  and  C_38
    6  A    between atoms: C_19  and  C_45
    7  A    between atoms: C_20  and  O_22
    8  A    between atoms: C_27  and  C_54
    9  A    between atoms: N_28  and  C_49
   10  A    between atoms: C_33  and  C_52
   11  A    between atoms: C_43  and  C_51
   12  A    between atoms: C_51  and  C_54
                            x       y       z     vdW  Elec       q    Type
                         _______ _______ _______ _____ _____    ______ ____

>  <TORSDO>
F 12

$$$$
=
 OpenBabel10262420323D

 55 61  0  0  1  0  0  0  0  0999 V2000
  191.7030  177.3230  141.5280 C   0  0  0  0  0  3  0  0  0  0  0  0
  189.2250  177.8270  142.7220 C   0  0  0  0  0  0  0  0  0  0  0  0
  189.2940  177.4510  141.3790 C   0  0  0  0  0  3  0  0  0  0  0  0
  191.6370  177.6980  142.8740 C   0  0  0  0  0  3  0  0  0  0  0  0
  190.5330  177.1940  140.7770 C   0  0  0  0  0  0  0  0  0  0  0  0
  190.3990  177.9510  143.4720 C   0  0  0  0  0  3  0  0  0  0  0  0
  190.6180  176.8220  139.3630 C   0  0  0  0  0  3  0  0  0  0  0  0
  189.8330  175.9180  138.8700 N   0  0  0  0  0  0  0  0  0  0  0  0
  186.4900  174.6170  135.9330 N   0  0  0  0  0  2  0  0  0  0  0  0
  185.2460  172.8940  134.9460 O   0  0  0  0  0  0  0  0  0  0  0  0
  188.2600  173.2230  136.8470 C   0  0  2  0  0  3  0  0  0  0  0  0
  187.3650  172.3370  135.9820 C   0  0  0  0  0  2  0  0  0  0  0  0
  186.2690  173.2650  135.5770 C   0  0  0  0  0  0  0  0  0  0  0  0
  187.7290  174.5980  136.6250 C   0  0  0  0  0  0  0  0  0  0  0  0
  190.5190  174.1740  137.2550 C   0  0  2  0  0  3  0  0  0  0  0  0
  189.7080  173.1870  136.3980 C   0  0  0  0  0  2  0  0  0  0  0  0
  188.4500  175.6970  136.8850 C   0  0  0  0  0  0  0  0  0  0  0  0
  189.8510  175.5630  137.4580 C   0  0  1  0  0  3  0  0  0  0  0  0
  192.0250  175.2890  135.5830 C   0  0  0  0  0  3  0  0  0  0  0  0
  194.3940  175.6440  136.0820 C   0  0  0  0  0  0  0  0  0  0  0  0
  192.9240  174.7590  137.8690 C   0  0  0  0  0  2  0  0  0  0  0  0
  194.2770  175.0810  137.2960 C   0  0  0  0  0  3  0  0  0  0  0  0
  193.1860  175.8650  135.2580 C   0  0  0  0  0  3  0  0  0  0  0  0
  191.9530  174.3400  136.7510 C   0  0  1  0  0  3  0  0  0  0  0  0
  195.7160  176.0200  135.5560 C   0  0  0  0  0  0  0  0  0  0  0  0
  195.8170  176.8250  134.5940 O   0  0  0  0  0  0  0  0  0  0  0  0
  196.8700  175.4960  136.1240 O   0  0  0  0  0  1  0  0  0  0  0  0
  188.6160  178.8930  137.2460 C   0  0  0  0  0  2  0  0  0  0  0  0
  186.9540  177.7870  138.8030 O   0  0  0  0  0  0  0  0  0  0  0  0
  187.8830  177.0540  136.5620 C   0  0  2  0  0  3  0  0  0  0  0  0
  189.0830  178.0830  135.7110 S   0  0  0  0  0  0  0  0  0  0  0  0
  187.6410  177.8830  137.8000 C   0  0  0  0  0  0  0  0  0  0  0  0
  187.9030  178.1320  143.3350 C   0  0  0  0  0  2  0  0  0  0  0  0
  186.7930  177.5810  142.4600 C   0  0  0  0  0  2  0  0  0  0  0  0
  184.6320  178.3980  141.6020 C   0  0  2  0  0  3  0  0  0  0  0  0
  185.1010  179.3570  142.6720 C   0  0  0  0  0  2  0  0  0  0  0  0
  186.1060  178.7180  141.7390 C   0  0  1  0  0  3  0  0  0  0  0  0
  184.1040  179.1260  140.5250 O   0  0  0  0  0  0  0  0  0  0  0  0
  181.8070  178.8030  141.9220 S   0  0  0  0  0  1  0  0  0  0  0  0
  182.7300  178.8270  140.3300 C   0  0  1  0  0  0  0  0  0  0  0  0
  182.2100  179.8820  139.6080 F   0  0  0  0  0  0  0  0  0  0  0  0
  180.1640  178.0120  138.3500 C   0  0  2  0  0  0  0  0  0  0  0  0
  182.7100  176.6480  137.2070 O   0  0  0  0  0  0  0  0  0  0  0  0
  182.5110  177.5010  139.5230 C   0  0  1  0  0  0  0  0  0  0  0  0
  183.7280  178.7140  137.7060 F   0  0  0  0  0  0  0  0  0  0  0  0
  183.2860  177.4880  138.1870 C   0  0  2  0  0  3  0  0  0  0  0  0
  179.7230  179.1530  138.9960 F   0  0  0  0  0  0  0  0  0  0  0  0
  180.8410  178.3860  137.0220 C   0  0  2  0  0  3  0  0  0  0  0  0
  178.9340  177.1910  138.0180 C   0  0  0  0  0  1  0  0  0  0  0  0
  181.7600  177.3140  136.3890 C   0  0  1  0  0  3  0  0  0  0  0  0
  183.0170  176.4380  140.2730 O   0  0  0  0  0  1  0  0  0  0  0  0
  181.4270  179.6540  137.0540 O   0  0  0  0  0  1  0  0  0  0  0  0
  181.0140  177.1750  139.3160 C   0  0  0  0  0  2  0  0  0  0  0  0
  182.3230  177.6940  135.0530 C   0  0  0  0  0  3  0  0  0  0  0  0
  183.4750  177.4240  134.7560 O   0  0  0  0  0  0  0  0  0  0  0  0
  1  4  1  0  0  0  0
  2 33  1  0  0  0  0
  2  6  1  0  0  0  0
  3  2  2  0  0  0  0
  4  6  2  0  0  0  0
  5  3  1  0  0  0  0
  5  1  2  0  0  0  0
  7  5  1  0  0  0  0
  8  7  2  0  0  0  0
  9 14  1  0  0  0  0
 10 13  2  0  0  0  0
 11 12  1  6  0  0  0
 13  9  1  0  0  0  0
 13 12  1  0  0  0  0
 14 11  1  0  0  0  0
 14 17  2  0  0  0  0
 15 16  1  6  0  0  0
 15 18  1  0  0  0  0
 16 11  1  0  0  0  0
 17 18  1  0  0  0  0
 18  8  1  1  0  0  0
 20 22  2  0  0  0  0
 22 21  1  0  0  0  0
 23 19  2  0  0  0  0
 23 20  1  0  0  0  0
 24 19  1  6  0  0  0
 24 15  1  0  0  0  0
 24 21  1  0  0  0  0
 25 20  1  0  0  0  0
 25 27  1  0  0  0  0
 26 25  2  0  0  0  0
 28 32  1  0  0  0  0
 30 17  1  1  0  0  0
 30 32  1  0  0  0  0
 31 30  1  0  0  0  0
 31 28  1  0  0  0  0
 32 29  2  0  0  0  0
 34 33  1  0  0  0  0
 35 38  1  6  0  0  0
 35 37  1  0  0  0  0
 35 36  1  0  0  0  0
 37 34  1  1  0  0  0
 37 36  1  0  0  0  0
 40 41  1  6  0  0  0
 40 38  1  0  0  0  0
 40 39  1  0  0  0  0
 42 49  1  6  0  0  0
 42 47  1  0  0  0  0
 42 53  1  0  0  0  0
 43 46  1  0  0  0  0
 44 51  1  1  0  0  0
 44 40  1  0  0  0  0
 46 45  1  6  0  0  0
 46 44  1  0  0  0  0
 48 52  1  1  0  0  0
 48 42  1  0  0  0  0
 50 54  1  6  0  0  0
 50 48  1  0  0  0  0
 50 43  1  0  0  0  0
 53 44  1  0  0  0  0
 55 54  2  0  0  0  0
M  END
>  <MODEL>
4

>  <REMARK>
 VINA RESULT:      -7.0      3.867     10.033
  Name = 
  12 active torsions:
  status: ('A' for Active; 'I' for Inactive)
    1  A    between atoms: C_2  and  C_44
    2  A    between atoms: C_6  and  C_20
    3  A    between atoms: C_8  and  O_22
    4  A    between atoms: C_10  and  C_32
    5  A    between atoms: C_11  and  C_38
    6  A    between atoms: C_19  and  C_45
    7  A    between atoms: C_20  and  O_22
    8  A    between atoms: C_27  and  C_54
    9  A    between atoms: N_28  and  C_49
   10  A    between atoms: C_33  and  C_52
   11  A    between atoms: C_43  and  C_51
   12  A    between atoms: C_51  and  C_54
                            x       y       z     vdW  Elec       q    Type
                         _______ _______ _______ _____ _____    ______ ____

>  <TORSDO>
F 12

$$$$
=
 OpenBabel10262420323D

 55 61  0  0  1  0  0  0  0  0999 V2000
  181.1740  178.7740  143.2210 C   0  0  0  0  0  3  0  0  0  0  0  0
  183.9480  178.7280  143.5680 C   0  0  0  0  0  0  0  0  0  0  0  0
  183.4020  178.8240  142.2860 C   0  0  0  0  0  3  0  0  0  0  0  0
  181.7180  178.6800  144.5060 C   0  0  0  0  0  3  0  0  0  0  0  0
  182.0130  178.8500  142.1070 C   0  0  0  0  0  0  0  0  0  0  0  0
  183.1040  178.6550  144.6820 C   0  0  0  0  0  3  0  0  0  0  0  0
  181.4310  178.9260  140.7660 C   0  0  0  0  0  3  0  0  0  0  0  0
  181.5480  177.9370  139.9380 N   0  0  0  0  0  0  0  0  0  0  0  0
  181.3510  174.7870  136.5420 N   0  0  0  0  0  2  0  0  0  0  0  0
  182.2830  173.8770  134.5940 O   0  0  0  0  0  0  0  0  0  0  0  0
  182.6350  176.8520  136.5510 C   0  0  2  0  0  3  0  0  0  0  0  0
  182.9410  176.1160  135.2480 C   0  0  0  0  0  2  0  0  0  0  0  0
  182.1970  174.8330  135.4080 C   0  0  0  0  0  0  0  0  0  0  0  0
  181.5570  176.0380  137.1810 C   0  0  0  0  0  0  0  0  0  0  0  0
  181.7310  178.8830  137.6600 C   0  0  2  0  0  3  0  0  0  0  0  0
  182.1020  178.2510  136.3080 C   0  0  0  0  0  2  0  0  0  0  0  0
  180.7470  176.5280  138.1280 C   0  0  0  0  0  0  0  0  0  0  0  0
  180.9340  177.9550  138.6180 C   0  0  1  0  0  3  0  0  0  0  0  0
  181.7190  181.3240  138.2500 C   0  0  0  0  0  3  0  0  0  0  0  0
  180.6260  182.9540  136.7890 C   0  0  0  0  0  0  0  0  0  0  0  0
  180.8050  180.6050  136.0230 C   0  0  0  0  0  2  0  0  0  0  0  0
  180.2610  182.0030  135.9130 C   0  0  0  0  0  3  0  0  0  0  0  0
  181.4990  182.6030  137.9300 C   0  0  0  0  0  3  0  0  0  0  0  0
  181.0140  180.2250  137.4980 C   0  0  1  0  0  3  0  0  0  0  0  0
  180.1460  184.3370  136.6360 C   0  0  0  0  0  0  0  0  0  0  0  0
  180.3300  185.1840  137.5490 O   0  0  0  0  0  1  0  0  0  0  0  0
  179.4900  184.7250  135.4750 O   0  0  0  0  0  0  0  0  0  0  0  0
  179.5790  174.7340  140.5350 C   0  0  0  0  0  2  0  0  0  0  0  0
  180.6850  173.3740  138.7070 O   0  0  0  0  0  0  0  0  0  0  0  0
  179.6260  175.6770  138.6650 C   0  0  2  0  0  3  0  0  0  0  0  0
  178.9340  176.3710  140.1690 S   0  0  0  0  0  0  0  0  0  0  0  0
  180.1160  174.3440  139.1790 C   0  0  0  0  0  0  0  0  0  0  0  0
  185.4270  178.6640  143.7370 C   0  0  0  0  0  2  0  0  0  0  0  0
  185.7800  178.7590  145.2080 C   0  0  0  0  0  2  0  0  0  0  0  0
  188.0510  177.8420  145.4790 C   0  0  2  0  0  3  0  0  0  0  0  0
  187.3980  177.8760  146.8410 C   0  0  0  0  0  2  0  0  0  0  0  0
  186.5740  177.5390  145.6170 C   0  0  1  0  0  3  0  0  0  0  0  0
  188.7530  176.6350  145.3310 O   0  0  0  0  0  0  0  0  0  0  0  0
  191.3680  176.9900  145.9370 S   0  0  0  0  0  1  0  0  0  0  0  0
  190.0090  176.8480  144.7050 C   0  0  1  0  0  0  0  0  0  0  0  0
  190.2730  175.7030  143.9820 F   0  0  0  0  0  0  0  0  0  0  0  0
  191.6670  177.2170  141.8260 C   0  0  2  0  0  0  0  0  0  0  0  0
  188.9820  178.7580  141.5750 O   0  0  0  0  0  0  0  0  0  0  0  0
  189.9950  178.0740  143.7280 C   0  0  1  0  0  0  0  0  0  0  0  0
  188.0890  176.8630  142.6540 F   0  0  0  0  0  0  0  0  0  0  0  0
  188.7680  178.0660  142.7890 C   0  0  2  0  0  3  0  0  0  0  0  0
  192.2390  176.0890  142.3860 F   0  0  0  0  0  0  0  0  0  0  0  0
  190.5050  176.8150  140.9020 C   0  0  2  0  0  3  0  0  0  0  0  0
  192.7300  177.8690  140.9640 C   0  0  0  0  0  1  0  0  0  0  0  0
  189.4940  177.9290  140.5420 C   0  0  1  0  0  3  0  0  0  0  0  0
  189.8940  179.2430  144.4850 O   0  0  0  0  0  1  0  0  0  0  0  0
  189.8890  175.6260  141.2980 O   0  0  0  0  0  1  0  0  0  0  0  0
  191.3160  178.2160  142.9380 C   0  0  0  0  0  2  0  0  0  0  0  0
  188.4340  177.5090  139.5680 C   0  0  0  0  0  3  0  0  0  0  0  0
  187.3460  178.0600  139.5460 O   0  0  0  0  0  0  0  0  0  0  0  0
  1  4  1  0  0  0  0
  2 33  1  0  0  0  0
  2  6  1  0  0  0  0
  3  2  2  0  0  0  0
  4  6  2  0  0  0  0
  5  3  1  0  0  0  0
  5  1  2  0  0  0  0
  7  5  1  0  0  0  0
  8  7  2  0  0  0  0
  9 14  1  0  0  0  0
 10 13  2  0  0  0  0
 11 12  1  6  0  0  0
 11 14  1  0  0  0  0
 12 13  1  0  0  0  0
 13  9  1  0  0  0  0
 14 17  2  0  0  0  0
 15 16  1  6  0  0  0
 15 18  1  0  0  0  0
 16 11  1  0  0  0  0
 17 18  1  0  0  0  0
 18  8  1  1  0  0  0
 20 23  1  0  0  0  0
 22 21  1  0  0  0  0
 22 20  2  0  0  0  0
 23 19  2  0  0  0  0
 24 21  1  6  0  0  0
 24 15  1  0  0  0  0
 24 19  1  0  0  0  0
 25 20  1  0  0  0  0
 25 26  1  0  0  0  0
 27 25  2  0  0  0  0
 29 32  2  0  0  0  0
 30 17  1  1  0  0  0
 30 32  1  0  0  0  0
 30 31  1  0  0  0  0
 31 28  1  0  0  0  0
 32 28  1  0  0  0  0
 33 34  1  0  0  0  0
 35 38  1  1  0  0  0
 35 37  1  0  0  0  0
 35 36  1  0  0  0  0
 37 34  1  6  0  0  0
 37 36  1  0  0  0  0
 40 41  1  6  0  0  0
 40 38  1  0  0  0  0
 40 39  1  0  0  0  0
 42 49  1  6  0  0  0
 42 47  1  0  0  0  0
 42 53  1  0  0  0  0
 43 46  1  0  0  0  0
 44 51  1  1  0  0  0
 44 40  1  0  0  0  0
 46 45  1  6  0  0  0
 46 44  1  0  0  0  0
 48 52  1  1  0  0  0
 48 42  1  0  0  0  0
 50 54  1  1  0  0  0
 50 48  1  0  0  0  0
 50 43  1  0  0  0  0
 53 44  1  0  0  0  0
 55 54  2  0  0  0  0
M  END
>  <MODEL>
5

>  <REMARK>
 VINA RESULT:      -6.1      2.354      6.211
  Name = 
  12 active torsions:
  status: ('A' for Active; 'I' for Inactive)
    1  A    between atoms: C_2  and  C_44
    2  A    between atoms: C_6  and  C_20
    3  A    between atoms: C_8  and  O_22
    4  A    between atoms: C_10  and  C_32
    5  A    between atoms: C_11  and  C_38
    6  A    between atoms: C_19  and  C_45
    7  A    between atoms: C_20  and  O_22
    8  A    between atoms: C_27  and  C_54
    9  A    between atoms: N_28  and  C_49
   10  A    between atoms: C_33  and  C_52
   11  A    between atoms: C_43  and  C_51
   12  A    between atoms: C_51  and  C_54
                            x       y       z     vdW  Elec       q    Type
                         _______ _______ _______ _____ _____    ______ ____

>  <TORSDO>
F 12

$$$$
=
 OpenBabel10262420323D

 55 61  0  0  1  0  0  0  0  0999 V2000
  190.4030  177.1190  141.7610 C   0  0  0  0  0  3  0  0  0  0  0  0
  188.0850  177.8330  143.1530 C   0  0  0  0  0  0  0  0  0  0  0  0
  188.0480  177.6640  141.7670 C   0  0  0  0  0  3  0  0  0  0  0  0
  190.4420  177.2860  143.1490 C   0  0  0  0  0  3  0  0  0  0  0  0
  189.2060  177.3040  141.0650 C   0  0  0  0  0  0  0  0  0  0  0  0
  189.2860  177.6440  143.8460 C   0  0  0  0  0  3  0  0  0  0  0  0
  189.1830  177.1480  139.6090 C   0  0  0  0  0  3  0  0  0  0  0  0
  189.4430  176.0020  139.0640 N   0  0  0  0  0  0  0  0  0  0  0  0
  186.0410  174.5340  136.2760 N   0  0  0  0  0  2  0  0  0  0  0  0
  184.9530  172.7570  135.2050 O   0  0  0  0  0  0  0  0  0  0  0  0
  188.0620  173.3240  136.8840 C   0  0  2  0  0  3  0  0  0  0  0  0
  187.2160  172.4100  136.0000 C   0  0  0  0  0  2  0  0  0  0  0  0
  185.9720  173.2060  135.7900 C   0  0  0  0  0  0  0  0  0  0  0  0
  187.3320  174.6240  136.8610 C   0  0  0  0  0  0  0  0  0  0  0  0
  190.2000  174.5450  137.2140 C   0  0  2  0  0  3  0  0  0  0  0  0
  189.4520  173.5420  136.3200 C   0  0  0  0  0  2  0  0  0  0  0  0
  187.9200  175.7830  137.1840 C   0  0  0  0  0  0  0  0  0  0  0  0
  189.3750  175.7960  137.6240 C   0  0  1  0  0  3  0  0  0  0  0  0
  192.3310  175.8220  137.5780 C   0  0  0  0  0  3  0  0  0  0  0  0
  194.3700  175.2150  136.3690 C   0  0  0  0  0  0  0  0  0  0  0  0
  192.3760  173.7630  136.1390 C   0  0  0  0  0  2  0  0  0  0  0  0
  193.7540  174.2070  135.7300 C   0  0  0  0  0  3  0  0  0  0  0  0
  193.6520  175.9610  137.4260 C   0  0  0  0  0  3  0  0  0  0  0  0
  191.5450  174.9650  136.6200 C   0  0  1  0  0  3  0  0  0  0  0  0
  195.7450  175.6000  136.0100 C   0  0  0  0  0  0  0  0  0  0  0  0
  196.6590  174.7360  135.9570 O   0  0  0  0  0  1  0  0  0  0  0  0
  196.0470  176.9230  135.7180 O   0  0  0  0  0  0  0  0  0  0  0  0
  186.9840  178.2510  135.3380 C   0  0  0  0  0  2  0  0  0  0  0  0
  189.0020  178.7750  136.7750 O   0  0  0  0  0  0  0  0  0  0  0  0
  187.1480  177.0700  137.0610 C   0  0  2  0  0  3  0  0  0  0  0  0
  185.8500  176.9440  135.8260 S   0  0  0  0  0  0  0  0  0  0  0  0
  187.9800  178.1830  136.4700 C   0  0  0  0  0  0  0  0  0  0  0  0
  186.8540  178.2530  143.8770 C   0  0  0  0  0  2  0  0  0  0  0  0
  185.6380  177.6110  143.2370 C   0  0  0  0  0  2  0  0  0  0  0  0
  183.3720  178.5370  142.9520 C   0  0  2  0  0  3  0  0  0  0  0  0
  184.2410  179.6120  143.5610 C   0  0  0  0  0  2  0  0  0  0  0  0
  184.8210  178.6690  142.5310 C   0  0  1  0  0  3  0  0  0  0  0  0
  182.5550  179.1060  141.9630 O   0  0  0  0  0  0  0  0  0  0  0  0
  180.9580  178.2340  143.9690 S   0  0  0  0  0  1  0  0  0  0  0  0
  181.1830  178.9990  142.3110 C   0  0  1  0  0  0  0  0  0  0  0  0
  180.7180  180.2940  142.4260 F   0  0  0  0  0  0  0  0  0  0  0  0
  180.3320  180.0750  139.2620 C   0  0  2  0  0  0  0  0  0  0  0  0
  180.6750  176.9910  139.1150 O   0  0  0  0  0  0  0  0  0  0  0  0
  180.3410  178.2530  141.2190 C   0  0  1  0  0  0  0  0  0  0  0  0
  182.5650  177.3950  140.4640 F   0  0  0  0  0  0  0  0  0  0  0  0
  181.1850  177.2450  140.4090 C   0  0  2  0  0  3  0  0  0  0  0  0
  180.8310  181.2090  139.8770 F   0  0  0  0  0  0  0  0  0  0  0  0
  181.4530  179.3500  138.5010 C   0  0  2  0  0  3  0  0  0  0  0  0
  179.3140  180.5390  138.2400 C   0  0  0  0  0  1  0  0  0  0  0  0
  181.1910  177.8710  138.1280 C   0  0  1  0  0  3  0  0  0  0  0  0
  179.3530  177.5020  141.8580 O   0  0  0  0  0  1  0  0  0  0  0  0
  182.7110  179.5520  139.0740 O   0  0  0  0  0  1  0  0  0  0  0  0
  179.5750  179.2270  140.2950 C   0  0  0  0  0  2  0  0  0  0  0  0
  182.2760  177.2390  137.3100 C   0  0  0  0  0  3  0  0  0  0  0  0
  182.5190  176.0470  137.4000 O   0  0  0  0  0  0  0  0  0  0  0  0
  1  4  1  0  0  0  0
  2  6  1  0  0  0  0
  2 33  1  0  0  0  0
  3  2  2  0  0  0  0
  4  6  2  0  0  0  0
  5  1  2  0  0  0  0
  5  3  1  0  0  0  0
  7  5  1  0  0  0  0
  8  7  2  0  0  0  0
  9 14  1  0  0  0  0
 10 13  2  0  0  0  0
 11 12  1  6  0  0  0
 13 12  1  0  0  0  0
 13  9  1  0  0  0  0
 14 11  1  0  0  0  0
 14 17  2  0  0  0  0
 15 16  1  6  0  0  0
 15 18  1  0  0  0  0
 16 11  1  0  0  0  0
 17 18  1  0  0  0  0
 18  8  1  1  0  0  0
 20 23  1  0  0  0  0
 22 21  1  0  0  0  0
 22 20  2  0  0  0  0
 23 19  2  0  0  0  0
 24 21  1  1  0  0  0
 24 15  1  0  0  0  0
 24 19  1  0  0  0  0
 25 20  1  0  0  0  0
 26 25  1  0  0  0  0
 27 25  2  0  0  0  0
 28 31  1  0  0  0  0
 28 32  1  0  0  0  0
 30 17  1  6  0  0  0
 31 30  1  0  0  0  0
 32 29  2  0  0  0  0
 32 30  1  0  0  0  0
 34 33  1  0  0  0  0
 35 38  1  6  0  0  0
 35 36  1  0  0  0  0
 37 35  1  0  0  0  0
 37 34  1  1  0  0  0
 37 36  1  0  0  0  0
 38 40  1  0  0  0  0
 40 41  1  1  0  0  0
 40 39  1  0  0  0  0
 42 49  1  6  0  0  0
 42 47  1  0  0  0  0
 42 53  1  0  0  0  0
 43 46  1  0  0  0  0
 44 51  1  1  0  0  0
 44 40  1  0  0  0  0
 46 45  1  6  0  0  0
 46 44  1  0  0  0  0
 48 52  1  1  0  0  0
 48 42  1  0  0  0  0
 50 54  1  1  0  0  0
 50 48  1  0  0  0  0
 50 43  1  0  0  0  0
 53 44  1  0  0  0  0
 54 55  2  0  0  0  0
M  END
>  <MODEL>
6

>  <REMARK>
 VINA RESULT:      -5.9      3.899      9.881
  Name = 
  12 active torsions:
  status: ('A' for Active; 'I' for Inactive)
    1  A    between atoms: C_2  and  C_44
    2  A    between atoms: C_6  and  C_20
    3  A    between atoms: C_8  and  O_22
    4  A    between atoms: C_10  and  C_32
    5  A    between atoms: C_11  and  C_38
    6  A    between atoms: C_19  and  C_45
    7  A    between atoms: C_20  and  O_22
    8  A    between atoms: C_27  and  C_54
    9  A    between atoms: N_28  and  C_49
   10  A    between atoms: C_33  and  C_52
   11  A    between atoms: C_43  and  C_51
   12  A    between atoms: C_51  and  C_54
                            x       y       z     vdW  Elec       q    Type
                         _______ _______ _______ _____ _____    ______ ____

>  <TORSDO>
F 12

$$$$
=
 OpenBabel10262420323D

 55 61  0  0  1  0  0  0  0  0999 V2000
  183.1580  178.4140  142.4980 C   0  0  0  0  0  3  0  0  0  0  0  0
  185.7530  178.8960  141.5740 C   0  0  0  0  0  0  0  0  0  0  0  0
  184.6600  179.0740  140.7230 C   0  0  0  0  0  3  0  0  0  0  0  0
  184.2500  178.2370  143.3530 C   0  0  0  0  0  3  0  0  0  0  0  0
  183.3580  178.8370  141.1820 C   0  0  0  0  0  0  0  0  0  0  0  0
  185.5480  178.4760  142.8930 C   0  0  0  0  0  3  0  0  0  0  0  0
  182.2070  178.9970  140.2900 C   0  0  0  0  0  3  0  0  0  0  0  0
  182.0340  178.2000  139.2850 N   0  0  0  0  0  0  0  0  0  0  0  0
  179.6730  175.0210  136.8740 N   0  0  0  0  0  2  0  0  0  0  0  0
  179.3720  173.8360  134.8740 O   0  0  0  0  0  0  0  0  0  0  0  0
  181.1400  176.7430  135.9820 C   0  0  2  0  0  3  0  0  0  0  0  0
  180.6440  175.8970  134.8100 C   0  0  0  0  0  2  0  0  0  0  0  0
  179.8580  174.8230  135.4840 C   0  0  0  0  0  0  0  0  0  0  0  0
  180.3770  176.2220  137.1510 C   0  0  0  0  0  0  0  0  0  0  0  0
  181.2560  178.9740  137.0680 C   0  0  2  0  0  3  0  0  0  0  0  0
  180.8110  178.2130  135.8090 C   0  0  0  0  0  2  0  0  0  0  0  0
  180.2260  176.9250  138.2810 C   0  0  0  0  0  0  0  0  0  0  0  0
  180.8730  178.2940  138.4110 C   0  0  1  0  0  3  0  0  0  0  0  0
  181.5970  181.2710  138.0250 C   0  0  0  0  0  3  0  0  0  0  0  0
  180.9550  183.2590  136.7500 C   0  0  0  0  0  0  0  0  0  0  0  0
  180.8120  181.0450  135.6480 C   0  0  0  0  0  2  0  0  0  0  0  0
  180.5280  182.5210  135.7130 C   0  0  0  0  0  3  0  0  0  0  0  0
  181.6310  182.6000  137.8890 C   0  0  0  0  0  3  0  0  0  0  0  0
  180.7980  180.4330  137.0590 C   0  0  1  0  0  3  0  0  0  0  0  0
  180.7340  184.7140  136.7750 C   0  0  0  0  0  0  0  0  0  0  0  0
  180.8270  185.3940  135.7200 O   0  0  0  0  0  0  0  0  0  0  0  0
  180.4130  185.3520  137.9660 O   0  0  0  0  0  1  0  0  0  0  0  0
  179.8610  176.3650  141.4320 C   0  0  0  0  0  2  0  0  0  0  0  0
  180.7230  174.3620  140.1450 O   0  0  0  0  0  0  0  0  0  0  0  0
  179.3740  176.3730  139.3940 C   0  0  2  0  0  3  0  0  0  0  0  0
  178.9330  177.6470  140.5800 S   0  0  0  0  0  0  0  0  0  0  0  0
  180.1410  175.4250  140.2850 C   0  0  0  0  0  0  0  0  0  0  0  0
  187.1320  179.1170  141.0580 C   0  0  0  0  0  2  0  0  0  0  0  0
  188.0880  178.1410  141.7150 C   0  0  0  0  0  2  0  0  0  0  0  0
  189.2240  177.8600  139.5460 C   0  0  2  0  0  3  0  0  0  0  0  0
  190.0680  177.1880  140.6040 C   0  0  0  0  0  2  0  0  0  0  0  0
  188.5590  177.1300  140.6940 C   0  0  1  0  0  3  0  0  0  0  0  0
  189.1810  177.0490  138.4020 O   0  0  0  0  0  0  0  0  0  0  0  0
  186.8410  178.1420  137.5880 S   0  0  0  0  0  1  0  0  0  0  0  0
  188.6150  177.7450  137.3020 C   0  0  1  0  0  0  0  0  0  0  0  0
  189.2680  178.9590  137.2440 F   0  0  0  0  0  0  0  0  0  0  0  0
  191.2690  175.9810  136.2940 C   0  0  2  0  0  0  0  0  0  0  0  0
  188.7420  174.6920  135.0300 O   0  0  0  0  0  0  0  0  0  0  0  0
  188.8200  176.9920  135.9430 C   0  0  1  0  0  0  0  0  0  0  0  0
  187.8040  175.0590  137.1600 F   0  0  0  0  0  0  0  0  0  0  0  0
  188.1430  175.6040  135.9290 C   0  0  2  0  0  3  0  0  0  0  0  0
  191.7230  176.6260  137.4300 F   0  0  0  0  0  0  0  0  0  0  0  0
  190.7100  174.5970  136.6620 C   0  0  2  0  0  3  0  0  0  0  0  0
  192.4730  175.7630  135.4000 C   0  0  0  0  0  1  0  0  0  0  0  0
  189.7830  173.9280  135.6190 C   0  0  1  0  0  3  0  0  0  0  0  0
  188.2040  177.7310  134.9300 O   0  0  0  0  0  1  0  0  0  0  0  0
  190.1930  174.5530  137.9590 O   0  0  0  0  0  1  0  0  0  0  0  0
  190.3080  176.9050  135.5330 C   0  0  0  0  0  2  0  0  0  0  0  0
  189.3380  172.5440  135.9870 C   0  0  0  0  0  3  0  0  0  0  0  0
  188.4260  171.9970  135.3900 O   0  0  0  0  0  0  0  0  0  0  0  0
  1  4  1  0  0  0  0
  2  6  1  0  0  0  0
  3  5  1  0  0  0  0
  3  2  2  0  0  0  0
  5  1  2  0  0  0  0
  6  4  2  0  0  0  0
  7  5  1  0  0  0  0
  8  7  2  0  0  0  0
  9 14  1  0  0  0  0
 10 13  2  0  0  0  0
 11 12  1  6  0  0  0
 11 14  1  0  0  0  0
 12 13  1  0  0  0  0
 13  9  1  0  0  0  0
 14 17  2  0  0  0  0
 15 16  1  6  0  0  0
 15 18  1  0  0  0  0
 16 11  1  0  0  0  0
 17 18  1  0  0  0  0
 18  8  1  1  0  0  0
 20 25  1  0  0  0  0
 20 23  1  0  0  0  0
 21 22  1  0  0  0  0
 22 20  2  0  0  0  0
 23 19  2  0  0  0  0
 24 21  1  6  0  0  0
 24 15  1  0  0  0  0
 24 19  1  0  0  0  0
 25 27  1  0  0  0  0
 26 25  2  0  0  0  0
 29 32  2  0  0  0  0
 30 17  1  6  0  0  0
 30 32  1  0  0  0  0
 30 31  1  0  0  0  0
 31 28  1  0  0  0  0
 32 28  1  0  0  0  0
 33  2  1  0  0  0  0
 33 34  1  0  0  0  0
 35 38  1  6  0  0  0
 35 36  1  0  0  0  0
 35 37  1  0  0  0  0
 36 37  1  0  0  0  0
 37 34  1  1  0  0  0
 40 41  1  6  0  0  0
 40 39  1  0  0  0  0
 40 38  1  0  0  0  0
 42 49  1  6  0  0  0
 42 48  1  0  0  0  0
 42 47  1  0  0  0  0
 43 50  1  0  0  0  0
 43 46  1  0  0  0  0
 44 51  1  6  0  0  0
 44 40  1  0  0  0  0
 46 44  1  0  0  0  0
 46 45  1  1  0  0  0
 48 52  1  1  0  0  0
 50 54  1  1  0  0  0
 50 48  1  0  0  0  0
 53 44  1  0  0  0  0
 53 42  1  0  0  0  0
 55 54  2  0  0  0  0
M  END
>  <MODEL>
7

>  <REMARK>
 VINA RESULT:      -5.9      3.909      7.108
  Name = 
  12 active torsions:
  status: ('A' for Active; 'I' for Inactive)
    1  A    between atoms: C_2  and  C_44
    2  A    between atoms: C_6  and  C_20
    3  A    between atoms: C_8  and  O_22
    4  A    between atoms: C_10  and  C_32
    5  A    between atoms: C_11  and  C_38
    6  A    between atoms: C_19  and  C_45
    7  A    between atoms: C_20  and  O_22
    8  A    between atoms: C_27  and  C_54
    9  A    between atoms: N_28  and  C_49
   10  A    between atoms: C_33  and  C_52
   11  A    between atoms: C_43  and  C_51
   12  A    between atoms: C_51  and  C_54
                            x       y       z     vdW  Elec       q    Type
                         _______ _______ _______ _____ _____    ______ ____

>  <TORSDO>
F 12

$$$$
=
 OpenBabel10262420323D

 55 61  0  0  1  0  0  0  0  0999 V2000
  180.3790  178.1640  141.4670 C   0  0  0  0  0  3  0  0  0  0  0  0
  182.4440  179.1050  143.1020 C   0  0  0  0  0  0  0  0  0  0  0  0
  182.7350  178.5290  141.8640 C   0  0  0  0  0  3  0  0  0  0  0  0
  180.0840  178.7420  142.7060 C   0  0  0  0  0  3  0  0  0  0  0  0
  181.7050  178.0590  141.0400 C   0  0  0  0  0  0  0  0  0  0  0  0
  181.1150  179.2120  143.5250 C   0  0  0  0  0  3  0  0  0  0  0  0
  182.0010  177.4320  139.7500 C   0  0  0  0  0  3  0  0  0  0  0  0
  182.1730  178.1540  138.6890 N   0  0  0  0  0  0  0  0  0  0  0  0
  179.8680  175.3610  135.7940 N   0  0  0  0  0  2  0  0  0  0  0  0
  179.3440  173.1850  135.0980 O   0  0  0  0  0  0  0  0  0  0  0  0
  181.7840  174.7800  137.1730 C   0  0  2  0  0  3  0  0  0  0  0  0
  181.3320  173.5170  136.4430 C   0  0  0  0  0  2  0  0  0  0  0  0
  180.1010  173.9660  135.7300 C   0  0  0  0  0  0  0  0  0  0  0  0
  180.9300  175.8560  136.5950 C   0  0  0  0  0  0  0  0  0  0  0  0
  183.5810  176.4450  137.5850 C   0  0  2  0  0  3  0  0  0  0  0  0
  183.2360  175.1160  136.8940 C   0  0  0  0  0  2  0  0  0  0  0  0
  181.2570  177.1520  136.6740 C   0  0  0  0  0  0  0  0  0  0  0  0
  182.5240  177.5690  137.4020 C   0  0  1  0  0  3  0  0  0  0  0  0
  185.5410  177.8550  138.2730 C   0  0  0  0  0  3  0  0  0  0  0  0
  187.7800  177.3890  137.3990 C   0  0  0  0  0  0  0  0  0  0  0  0
  185.9440  175.8130  136.8670 C   0  0  0  0  0  2  0  0  0  0  0  0
  187.3370  176.3470  136.6760 C   0  0  0  0  0  3  0  0  0  0  0  0
  186.8580  178.0800  138.3280 C   0  0  0  0  0  3  0  0  0  0  0  0
  184.9730  176.9550  137.2070 C   0  0  1  0  0  3  0  0  0  0  0  0
  189.1650  177.8630  137.2580 C   0  0  0  0  0  0  0  0  0  0  0  0
  189.4080  179.0010  136.7770 O   0  0  0  0  0  0  0  0  0  0  0  0
  190.2240  177.0610  137.6640 O   0  0  0  0  0  1  0  0  0  0  0  0
  180.6420  180.2590  136.0880 C   0  0  0  0  0  2  0  0  0  0  0  0
  179.2500  179.2930  137.9700 O   0  0  0  0  0  0  0  0  0  0  0  0
  180.3900  178.1820  135.9970 C   0  0  2  0  0  3  0  0  0  0  0  0
  181.3310  179.1730  134.8340 S   0  0  0  0  0  0  0  0  0  0  0  0
  179.9220  179.2530  136.9530 C   0  0  0  0  0  0  0  0  0  0  0  0
  183.5550  179.5650  143.9810 C   0  0  0  0  0  2  0  0  0  0  0  0
  183.3710  179.0030  145.3770 C   0  0  0  0  0  2  0  0  0  0  0  0
  185.7540  178.6140  144.8870 C   0  0  2  0  0  3  0  0  0  0  0  0
  185.6490  179.1390  146.3010 C   0  0  0  0  0  2  0  0  0  0  0  0
  184.5910  178.2000  145.7640 C   0  0  1  0  0  3  0  0  0  0  0  0
  186.6920  177.5700  144.8490 O   0  0  0  0  0  0  0  0  0  0  0  0
  186.9260  178.2570  142.2390 S   0  0  0  0  0  1  0  0  0  0  0  0
  187.6790  177.8070  143.8570 C   0  0  1  0  0  0  0  0  0  0  0  0
  188.3750  178.9240  144.2720 F   0  0  0  0  0  0  0  0  0  0  0  0
  190.8940  177.9040  142.9440 C   0  0  2  0  0  0  0  0  0  0  0  0
  190.5480  175.5480  144.9390 O   0  0  0  0  0  0  0  0  0  0  0  0
  188.6820  176.6110  143.7070 C   0  0  1  0  0  0  0  0  0  0  0  0
  189.1910  177.0780  146.1110 F   0  0  0  0  0  0  0  0  0  0  0  0
  189.2870  176.1750  145.0600 C   0  0  2  0  0  3  0  0  0  0  0  0
  190.4380  179.1780  142.6570 F   0  0  0  0  0  0  0  0  0  0  0  0
  191.4810  177.8610  144.3640 C   0  0  2  0  0  3  0  0  0  0  0  0
  192.0220  177.6110  141.9750 C   0  0  0  0  0  1  0  0  0  0  0  0
  191.6330  176.4610  145.0050 C   0  0  1  0  0  3  0  0  0  0  0  0
  187.9810  175.5050  143.2240 O   0  0  0  0  0  1  0  0  0  0  0  0
  190.8870  178.7910  145.2210 O   0  0  0  0  0  1  0  0  0  0  0  0
  189.7800  176.8880  142.6550 C   0  0  0  0  0  2  0  0  0  0  0  0
  192.2930  176.4680  146.3520 C   0  0  0  0  0  3  0  0  0  0  0  0
  191.7560  175.9530  147.3180 O   0  0  0  0  0  0  0  0  0  0  0  0
  1  4  1  0  0  0  0
  2  6  1  0  0  0  0
  2 33  1  0  0  0  0
  3  2  2  0  0  0  0
  4  6  2  0  0  0  0
  5  1  2  0  0  0  0
  5  3  1  0  0  0  0
  7  5  1  0  0  0  0
  8  7  2  0  0  0  0
  9 14  1  0  0  0  0
 10 13  2  0  0  0  0
 11 12  1  6  0  0  0
 13  9  1  0  0  0  0
 13 12  1  0  0  0  0
 14 17  2  0  0  0  0
 14 11  1  0  0  0  0
 15 16  1  6  0  0  0
 16 11  1  0  0  0  0
 17 18  1  0  0  0  0
 18 15  1  0  0  0  0
 18  8  1  1  0  0  0
 19 23  2  0  0  0  0
 20 23  1  0  0  0  0
 22 21  1  0  0  0  0
 22 20  2  0  0  0  0
 24 21  1  1  0  0  0
 24 15  1  0  0  0  0
 24 19  1  0  0  0  0
 25 20  1  0  0  0  0
 25 27  1  0  0  0  0
 26 25  2  0  0  0  0
 28 32  1  0  0  0  0
 30 17  1  1  0  0  0
 30 32  1  0  0  0  0
 31 30  1  0  0  0  0
 31 28  1  0  0  0  0
 32 29  2  0  0  0  0
 33 34  1  0  0  0  0
 35 38  1  1  0  0  0
 35 37  1  0  0  0  0
 35 36  1  0  0  0  0
 37 34  1  6  0  0  0
 37 36  1  0  0  0  0
 40 39  1  6  0  0  0
 40 41  1  0  0  0  0
 40 38  1  0  0  0  0
 42 49  1  6  0  0  0
 42 48  1  0  0  0  0
 43 50  1  0  0  0  0
 43 46  1  0  0  0  0
 44 51  1  6  0  0  0
 44 40  1  0  0  0  0
 44 46  1  0  0  0  0
 46 45  1  1  0  0  0
 47 42  1  0  0  0  0
 48 50  1  0  0  0  0
 48 52  1  1  0  0  0
 50 54  1  1  0  0  0
 53 42  1  0  0  0  0
 53 44  1  0  0  0  0
 54 55  2  0  0  0  0
M  END
>  <MODEL>
8

>  <REMARK>
 VINA RESULT:      -5.9      2.090      5.958
  Name = 
  12 active torsions:
  status: ('A' for Active; 'I' for Inactive)
    1  A    between atoms: C_2  and  C_44
    2  A    between atoms: C_6  and  C_20
    3  A    between atoms: C_8  and  O_22
    4  A    between atoms: C_10  and  C_32
    5  A    between atoms: C_11  and  C_38
    6  A    between atoms: C_19  and  C_45
    7  A    between atoms: C_20  and  O_22
    8  A    between atoms: C_27  and  C_54
    9  A    between atoms: N_28  and  C_49
   10  A    between atoms: C_33  and  C_52
   11  A    between atoms: C_43  and  C_51
   12  A    between atoms: C_51  and  C_54
                            x       y       z     vdW  Elec       q    Type
                         _______ _______ _______ _____ _____    ______ ____

>  <TORSDO>
F 12

$$$$
=
 OpenBabel10262420323D

 55 61  0  0  1  0  0  0  0  0999 V2000
  181.6020  178.6090  143.7830 C   0  0  0  0  0  3  0  0  0  0  0  0
  184.3390  178.9160  144.2700 C   0  0  0  0  0  0  0  0  0  0  0  0
  183.8370  179.0440  142.9730 C   0  0  0  0  0  3  0  0  0  0  0  0
  182.1010  178.4820  145.0840 C   0  0  0  0  0  3  0  0  0  0  0  0
  182.4670  178.8940  142.7240 C   0  0  0  0  0  0  0  0  0  0  0  0
  183.4690  178.6330  145.3290 C   0  0  0  0  0  3  0  0  0  0  0  0
  181.9340  179.0030  141.3640 C   0  0  0  0  0  3  0  0  0  0  0  0
  181.9610  177.9870  140.5620 N   0  0  0  0  0  0  0  0  0  0  0  0
  181.4570  181.4510  137.5210 N   0  0  0  0  0  2  0  0  0  0  0  0
  180.1470  183.1970  136.6700 O   0  0  0  0  0  0  0  0  0  0  0  0
  179.7000  180.3530  138.7950 C   0  0  2  0  0  3  0  0  0  0  0  0
  179.0570  181.4730  137.9800 C   0  0  0  0  0  2  0  0  0  0  0  0
  180.2310  182.1360  137.3410 C   0  0  0  0  0  0  0  0  0  0  0  0
  181.1150  180.3340  138.3290 C   0  0  0  0  0  0  0  0  0  0  0  0
  179.8420  177.9210  139.2860 C   0  0  2  0  0  3  0  0  0  0  0  0
  179.0780  179.0010  138.5020 C   0  0  0  0  0  2  0  0  0  0  0  0
  181.9140  179.2720  138.5010 C   0  0  0  0  0  0  0  0  0  0  0  0
  181.3900  178.0420  139.2230 C   0  0  1  0  0  3  0  0  0  0  0  0
  179.2400  176.3540  137.4190 C   0  0  0  0  0  3  0  0  0  0  0  0
  179.4980  173.9350  137.6900 C   0  0  0  0  0  0  0  0  0  0  0  0
  180.3360  175.4270  139.4810 C   0  0  0  0  0  2  0  0  0  0  0  0
  179.9680  174.0730  138.9410 C   0  0  0  0  0  3  0  0  0  0  0  0
  179.2500  175.1380  136.8650 C   0  0  0  0  0  3  0  0  0  0  0  0
  179.4010  176.5060  138.9100 C   0  0  1  0  0  3  0  0  0  0  0  0
  179.2050  172.6010  137.1430 C   0  0  0  0  0  0  0  0  0  0  0  0
  179.1910  171.5890  137.8930 O   0  0  0  0  0  1  0  0  0  0  0  0
  178.9310  172.4450  135.7910 O   0  0  0  0  0  0  0  0  0  0  0  0
  184.8860  178.0300  138.4960 C   0  0  0  0  0  2  0  0  0  0  0  0
  184.6700  180.1260  139.9010 O   0  0  0  0  0  0  0  0  0  0  0  0
  183.3090  179.2890  137.9330 C   0  0  2  0  0  3  0  0  0  0  0  0
  183.7250  177.7240  137.1600 S   0  0  0  0  0  0  0  0  0  0  0  0
  184.3650  179.3500  139.0120 C   0  0  0  0  0  0  0  0  0  0  0  0
  185.8030  179.0420  144.5100 C   0  0  0  0  0  2  0  0  0  0  0  0
  186.1030  178.8270  145.9810 C   0  0  0  0  0  2  0  0  0  0  0  0
  188.3290  177.7910  145.7840 C   0  0  2  0  0  3  0  0  0  0  0  0
  187.9210  177.7440  147.2380 C   0  0  0  0  0  2  0  0  0  0  0  0
  186.8830  177.5440  146.1570 C   0  0  1  0  0  3  0  0  0  0  0  0
  188.9240  176.5700  145.4300 O   0  0  0  0  0  0  0  0  0  0  0  0
  191.5680  176.8710  145.9350 S   0  0  0  0  0  1  0  0  0  0  0  0
  190.1570  176.7790  144.7580 C   0  0  1  0  0  0  0  0  0  0  0  0
  190.3730  175.6470  143.9980 F   0  0  0  0  0  0  0  0  0  0  0  0
  191.7360  177.2070  141.8420 C   0  0  2  0  0  0  0  0  0  0  0  0
  189.0530  178.7670  141.7030 O   0  0  0  0  0  0  0  0  0  0  0  0
  190.1220  178.0270  143.8100 C   0  0  1  0  0  0  0  0  0  0  0  0
  188.1810  176.8510  142.7610 F   0  0  0  0  0  0  0  0  0  0  0  0
  188.8700  178.0470  142.9060 C   0  0  2  0  0  3  0  0  0  0  0  0
  192.3180  176.0640  142.3600 F   0  0  0  0  0  0  0  0  0  0  0  0
  190.5470  176.8330  140.9430 C   0  0  2  0  0  3  0  0  0  0  0  0
  192.7780  177.8740  140.9670 C   0  0  0  0  0  1  0  0  0  0  0  0
  189.5320  177.9600  140.6370 C   0  0  1  0  0  3  0  0  0  0  0  0
  190.0480  179.1780  144.5960 O   0  0  0  0  0  1  0  0  0  0  0  0
  189.9350  175.6380  141.3280 O   0  0  0  0  0  1  0  0  0  0  0  0
  191.4220  178.1810  142.9870 C   0  0  0  0  0  2  0  0  0  0  0  0
  188.4430  177.5680  139.6840 C   0  0  0  0  0  3  0  0  0  0  0  0
  188.1560  178.2740  138.7320 O   0  0  0  0  0  0  0  0  0  0  0  0
  1  4  1  0  0  0  0
  2 33  1  0  0  0  0
  2  6  1  0  0  0  0
  3  2  2  0  0  0  0
  4  6  2  0  0  0  0
  5  3  1  0  0  0  0
  5  1  2  0  0  0  0
  7  5  1  0  0  0  0
  8  7  2  0  0  0  0
  9 14  1  0  0  0  0
 10 13  2  0  0  0  0
 11 12  1  6  0  0  0
 13  9  1  0  0  0  0
 13 12  1  0  0  0  0
 14 17  2  0  0  0  0
 14 11  1  0  0  0  0
 15 16  1  6  0  0  0
 16 11  1  0  0  0  0
 17 18  1  0  0  0  0
 18 15  1  0  0  0  0
 18  8  1  1  0  0  0
 20 22  2  0  0  0  0
 22 21  1  0  0  0  0
 23 19  2  0  0  0  0
 23 20  1  0  0  0  0
 24 19  1  6  0  0  0
 24 15  1  0  0  0  0
 24 21  1  0  0  0  0
 25 20  1  0  0  0  0
 25 26  1  0  0  0  0
 27 25  2  0  0  0  0
 28 32  1  0  0  0  0
 30 17  1  1  0  0  0
 30 32  1  0  0  0  0
 31 30  1  0  0  0  0
 31 28  1  0  0  0  0
 32 29  2  0  0  0  0
 33 34  1  0  0  0  0
 35 38  1  1  0  0  0
 35 37  1  0  0  0  0
 35 36  1  0  0  0  0
 37 34  1  6  0  0  0
 37 36  1  0  0  0  0
 40 41  1  6  0  0  0
 40 38  1  0  0  0  0
 40 39  1  0  0  0  0
 42 49  1  6  0  0  0
 42 47  1  0  0  0  0
 42 53  1  0  0  0  0
 43 46  1  0  0  0  0
 44 51  1  1  0  0  0
 44 40  1  0  0  0  0
 46 45  1  6  0  0  0
 46 44  1  0  0  0  0
 48 52  1  1  0  0  0
 48 42  1  0  0  0  0
 50 54  1  1  0  0  0
 50 48  1  0  0  0  0
 50 43  1  0  0  0  0
 53 44  1  0  0  0  0
 55 54  2  0  0  0  0
M  END
>  <MODEL>
9

>  <REMARK>
 VINA RESULT:      -5.5      2.516      6.484
  Name = 
  12 active torsions:
  status: ('A' for Active; 'I' for Inactive)
    1  A    between atoms: C_2  and  C_44
    2  A    between atoms: C_6  and  C_20
    3  A    between atoms: C_8  and  O_22
    4  A    between atoms: C_10  and  C_32
    5  A    between atoms: C_11  and  C_38
    6  A    between atoms: C_19  and  C_45
    7  A    between atoms: C_20  and  O_22
    8  A    between atoms: C_27  and  C_54
    9  A    between atoms: N_28  and  C_49
   10  A    between atoms: C_33  and  C_52
   11  A    between atoms: C_43  and  C_51
   12  A    between atoms: C_51  and  C_54
                            x       y       z     vdW  Elec       q    Type
                         _______ _______ _______ _____ _____    ______ ____

>  <TORSDO>
F 12

$$$$
