=
 OpenBabel10262421593D

 30 34  0  0  1  0  0  0  0  0999 V2000
  185.2790  178.9050  141.0880 C   0  0  0  0  0  0  0  0  0  0  0  0
  185.7030  177.7030  142.7710 C   0  0  2  0  0  3  0  0  0  0  0  0
  181.3320  179.3050  143.8440 C   0  0  0  0  0  2  0  0  0  0  0  0
  182.3830  177.0890  140.2300 C   0  0  0  0  0  2  0  0  0  0  0  0
  184.9500  179.8260  140.0460 N   0  0  0  0  0  2  0  0  0  0  0  0
  183.6190  178.3490  138.4080 C   0  0  2  0  0  3  0  0  0  0  0  0
  183.2950  180.6880  138.6770 O   0  0  0  0  0  0  0  0  0  0  0  0
  179.7210  178.3250  140.4910 N   0  0  0  0  0  0  0  0  0  0  0  0
  180.4360  179.2820  142.6480 C   0  0  0  0  0  0  0  0  0  0  0  0
  183.9150  179.6680  139.0730 C   0  0  0  0  0  0  0  0  0  0  0  0
  182.3440  177.5890  138.7950 C   0  0  2  0  0  3  0  0  0  0  0  0
  185.6440  178.1750  144.2330 C   0  0  0  0  0  2  0  0  0  0  0  0
  180.2450  178.9640  139.3700 O   0  0  0  0  0  0  0  0  0  0  0  0
  186.8700  178.5580  141.8840 S   0  0  0  0  0  0  0  0  0  0  0  0
  182.7980  179.2790  143.4110 C   0  0  1  0  0  3  0  0  0  0  0  0
  185.0180  179.4260  144.3600 O   0  0  0  0  0  0  0  0  0  0  0  0
  184.5210  178.1810  142.0110 C   0  0  0  0  0  0  0  0  0  0  0  0
  182.1490  178.2410  141.1850 C   0  0  1  0  0  3  0  0  0  0  0  0
  179.5070  180.0690  142.5600 O   0  0  0  0  0  0  0  0  0  0  0  0
  180.6780  178.2280  141.6050 C   0  0  2  0  0  3  0  0  0  0  0  0
  180.8860  178.5860  137.2030 O   0  0  0  0  0  0  0  0  0  0  0  0
  183.6750  179.1470  144.6620 C   0  0  0  0  0  2  0  0  0  0  0  0
  183.0740  178.1400  142.4010 C   0  0  2  0  0  3  0  0  0  0  0  0
  181.1060  178.3710  138.4240 C   0  0  0  0  0  0  0  0  0  0  0  0
  184.8090  177.5410  137.8930 C   0  0  0  0  0  2  0  0  0  0  0  0
  183.9060  177.0430  135.4900 C   0  0  0  0  0  1  0  0  0  0  0  0
  184.3120  176.0610  136.9580 S   0  0  0  0  0  0  0  0  0  0  0  0
  179.2360  176.9930  140.1470 C   0  0  0  0  0  2  0  0  0  0  0  0
  179.2070  174.9080  140.8660 C   0  0  0  0  0  1  0  0  0  0  0  0
  179.1010  176.2270  141.3050 O   0  0  0  0  0  0  0  0  0  0  0  0
  1 14  1  0  0  0  0
  1 17  2  0  0  0  0
  2 12  1  1  0  0  0
  5  1  1  0  0  0  0
  6 25  1  1  0  0  0
  6 11  1  0  0  0  0
  6 10  1  0  0  0  0
  7 10  2  0  0  0  0
  8 20  1  0  0  0  0
  9  3  1  0  0  0  0
 10  5  1  0  0  0  0
 11  4  1  1  0  0  0
 12 16  1  0  0  0  0
 13  8  1  0  0  0  0
 14  2  1  0  0  0  0
 15  3  1  1  0  0  0
 15 22  1  0  0  0  0
 16 22  1  0  0  0  0
 17  2  1  0  0  0  0
 18  4  1  6  0  0  0
 18 20  1  0  0  0  0
 18 23  1  0  0  0  0
 19  9  2  0  0  0  0
 20  9  1  1  0  0  0
 21 24  2  0  0  0  0
 23 17  1  6  0  0  0
 23 15  1  0  0  0  0
 24 11  1  0  0  0  0
 24 13  1  0  0  0  0
 26 27  1  0  0  0  0
 27 25  1  0  0  0  0
 28  8  1  0  0  0  0
 28 30  1  0  0  0  0
 29 30  1  0  0  0  0
M  END
>  <MODEL>
1

>  <REMARK>
 VINA RESULT:      -6.5      0.000      0.000
  Name = 
  4 active torsions:
  status: ('A' for Active; 'I' for Inactive)
    1  A    between atoms: C_6  and  C_8
    2  A    between atoms: C_6  and  S_21
    3  A    between atoms: C_7  and  N_10
    4  A    between atoms: C_7  and  O_26
                            x       y       z     vdW  Elec       q    Type
                         _______ _______ _______ _____ _____    ______ ____

>  <TORSDO>
F 4

$$$$
=
 OpenBabel10262421593D

 30 34  0  0  1  0  0  0  0  0999 V2000
  189.8160  177.7150  145.5350 C   0  0  0  0  0  0  0  0  0  0  0  0
  189.0620  176.4330  147.0330 C   0  0  2  0  0  3  0  0  0  0  0  0
  185.2720  179.2160  146.1890 C   0  0  0  0  0  2  0  0  0  0  0  0
  187.3440  176.8090  143.1910 C   0  0  0  0  0  2  0  0  0  0  0  0
  190.2710  178.6960  144.6020 N   0  0  0  0  0  2  0  0  0  0  0  0
  189.5750  177.6720  142.3430 C   0  0  2  0  0  3  0  0  0  0  0  0
  189.7550  180.0040  142.7620 O   0  0  0  0  0  0  0  0  0  0  0  0
  185.2910  178.7560  142.3700 N   0  0  0  0  0  0  0  0  0  0  0  0
  185.0890  179.4570  144.7250 C   0  0  0  0  0  0  0  0  0  0  0  0
  189.8310  178.8470  143.2490 C   0  0  0  0  0  0  0  0  0  0  0  0
  188.1280  177.3070  141.9860 C   0  0  2  0  0  3  0  0  0  0  0  0
  188.4250  176.8950  148.3550 C   0  0  0  0  0  2  0  0  0  0  0  0
  186.4300  179.2230  141.7190 O   0  0  0  0  0  0  0  0  0  0  0  0
  190.6830  176.9210  146.9150 S   0  0  0  0  0  0  0  0  0  0  0  0
  186.7050  178.7720  146.4810 C   0  0  1  0  0  3  0  0  0  0  0  0
  188.1490  178.2720  148.3560 O   0  0  0  0  0  0  0  0  0  0  0  0
  188.5540  177.2340  145.8910 C   0  0  0  0  0  0  0  0  0  0  0  0
  186.9740  177.9750  144.0830 C   0  0  1  0  0  3  0  0  0  0  0  0
  184.5470  180.4780  144.3320 O   0  0  0  0  0  0  0  0  0  0  0  0
  185.5330  178.3830  143.7730 C   0  0  2  0  0  3  0  0  0  0  0  0
  187.9180  178.6880  140.0620 O   0  0  0  0  0  0  0  0  0  0  0  0
  186.8060  178.3880  147.9620 C   0  0  0  0  0  2  0  0  0  0  0  0
  187.1400  177.6080  145.5610 C   0  0  2  0  0  3  0  0  0  0  0  0
  187.4610  178.4130  141.2020 C   0  0  0  0  0  0  0  0  0  0  0  0
  190.6220  176.5590  142.3240 C   0  0  0  0  0  2  0  0  0  0  0  0
  191.1860  177.2090  139.8560 C   0  0  0  0  0  1  0  0  0  0  0  0
  192.1210  177.0070  141.3950 S   0  0  0  0  0  0  0  0  0  0  0  0
  184.7170  177.6200  141.6550 C   0  0  0  0  0  2  0  0  0  0  0  0
  182.7540  178.6070  141.4580 C   0  0  0  0  0  1  0  0  0  0  0  0
  183.8010  178.0750  140.7060 O   0  0  0  0  0  0  0  0  0  0  0  0
  1 17  2  0  0  0  0
  1 14  1  0  0  0  0
  2 12  1  1  0  0  0
  5  1  1  0  0  0  0
  6 25  1  1  0  0  0
  6 10  1  0  0  0  0
  7 10  2  0  0  0  0
  8 20  1  0  0  0  0
  9  3  1  0  0  0  0
 10  5  1  0  0  0  0
 11  6  1  0  0  0  0
 11  4  1  1  0  0  0
 12 16  1  0  0  0  0
 13  8  1  0  0  0  0
 14  2  1  0  0  0  0
 15  3  1  6  0  0  0
 15 22  1  0  0  0  0
 17  2  1  0  0  0  0
 18  4  1  6  0  0  0
 18 23  1  0  0  0  0
 19  9  2  0  0  0  0
 20 18  1  0  0  0  0
 20  9  1  1  0  0  0
 21 24  2  0  0  0  0
 22 16  1  0  0  0  0
 23 17  1  6  0  0  0
 23 15  1  0  0  0  0
 24 13  1  0  0  0  0
 24 11  1  0  0  0  0
 26 27  1  0  0  0  0
 27 25  1  0  0  0  0
 28  8  1  0  0  0  0
 30 29  1  0  0  0  0
 30 28  1  0  0  0  0
M  END
>  <MODEL>
2

>  <REMARK>
 VINA RESULT:      -6.1      3.921      6.267
  Name = 
  4 active torsions:
  status: ('A' for Active; 'I' for Inactive)
    1  A    between atoms: C_6  and  C_8
    2  A    between atoms: C_6  and  S_21
    3  A    between atoms: C_7  and  N_10
    4  A    between atoms: C_7  and  O_26
                            x       y       z     vdW  Elec       q    Type
                         _______ _______ _______ _____ _____    ______ ____

>  <TORSDO>
F 4

$$$$
=
 OpenBabel10262421593D

 30 34  0  0  1  0  0  0  0  0999 V2000
  188.6060  177.9220  145.0990 C   0  0  0  0  0  0  0  0  0  0  0  0
  186.7180  176.9780  145.1200 C   0  0  2  0  0  3  0  0  0  0  0  0
  186.8440  178.7160  140.6720 C   0  0  0  0  0  2  0  0  0  0  0  0
  189.7970  175.9990  142.3960 C   0  0  0  0  0  2  0  0  0  0  0  0
  189.8140  178.6820  145.0270 N   0  0  0  0  0  2  0  0  0  0  0  0
  191.4730  176.9820  144.0280 C   0  0  2  0  0  3  0  0  0  0  0  0
  191.6150  179.3350  143.7260 O   0  0  0  0  0  0  0  0  0  0  0  0
  190.2900  177.2590  139.7780 N   0  0  0  0  0  0  0  0  0  0  0  0
  188.1890  178.5190  140.0490 C   0  0  0  0  0  0  0  0  0  0  0  0
  190.9540  178.3830  144.2160 C   0  0  0  0  0  0  0  0  0  0  0  0
  191.2630  176.2850  142.6770 C   0  0  2  0  0  3  0  0  0  0  0  0
  185.3850  177.6570  144.7670 C   0  0  0  0  0  2  0  0  0  0  0  0
  191.3520  177.7280  140.5470 O   0  0  0  0  0  0  0  0  0  0  0  0
  187.4470  177.6950  146.4740 S   0  0  0  0  0  0  0  0  0  0  0  0
  186.9450  178.6280  142.1950 C   0  0  1  0  0  3  0  0  0  0  0  0
  185.5730  178.9130  144.1670 O   0  0  0  0  0  0  0  0  0  0  0  0
  187.7740  177.3400  144.1410 C   0  0  0  0  0  0  0  0  0  0  0  0
  189.0880  177.2770  142.0000 C   0  0  1  0  0  3  0  0  0  0  0  0
  188.5840  179.2850  139.1840 O   0  0  0  0  0  0  0  0  0  0  0  0
  188.9940  177.3250  140.4750 C   0  0  2  0  0  3  0  0  0  0  0  0
  193.2550  177.0400  141.6200 O   0  0  0  0  0  0  0  0  0  0  0  0
  185.5300  178.6800  142.7830 C   0  0  0  0  0  2  0  0  0  0  0  0
  187.7000  177.3550  142.6430 C   0  0  2  0  0  3  0  0  0  0  0  0
  191.9980  177.0040  141.5700 C   0  0  0  0  0  0  0  0  0  0  0  0
  191.6010  176.1080  145.2740 C   0  0  0  0  0  2  0  0  0  0  0  0
  192.3480  175.7330  147.7520 C   0  0  0  0  0  1  0  0  0  0  0  0
  191.5400  177.0630  146.8230 S   0  0  0  0  0  0  0  0  0  0  0  0
  190.5370  175.8900  139.3360 C   0  0  0  0  0  2  0  0  0  0  0  0
  190.6600  176.5760  137.2430 C   0  0  0  0  0  1  0  0  0  0  0  0
  189.9730  175.6940  138.0760 O   0  0  0  0  0  0  0  0  0  0  0  0
  1 14  1  0  0  0  0
  2 12  1  6  0  0  0
  2 14  1  0  0  0  0
  5  1  1  0  0  0  0
  6 10  1  0  0  0  0
  6 25  1  1  0  0  0
  7 10  2  0  0  0  0
  8 20  1  0  0  0  0
  8 13  1  0  0  0  0
  9  3  1  0  0  0  0
 10  5  1  0  0  0  0
 11  4  1  6  0  0  0
 11  6  1  0  0  0  0
 13 24  1  0  0  0  0
 15  3  1  6  0  0  0
 15 23  1  0  0  0  0
 15 22  1  0  0  0  0
 16 12  1  0  0  0  0
 17  1  2  0  0  0  0
 17  2  1  0  0  0  0
 18  4  1  6  0  0  0
 18 23  1  0  0  0  0
 19  9  2  0  0  0  0
 20  9  1  1  0  0  0
 20 18  1  0  0  0  0
 22 16  1  0  0  0  0
 23 17  1  1  0  0  0
 24 21  2  0  0  0  0
 24 11  1  0  0  0  0
 25 27  1  0  0  0  0
 27 26  1  0  0  0  0
 28  8  1  0  0  0  0
 29 30  1  0  0  0  0
 30 28  1  0  0  0  0
M  END
>  <MODEL>
3

>  <REMARK>
 VINA RESULT:      -5.8      5.468      8.850
  Name = 
  4 active torsions:
  status: ('A' for Active; 'I' for Inactive)
    1  A    between atoms: C_6  and  C_8
    2  A    between atoms: C_6  and  S_21
    3  A    between atoms: C_7  and  N_10
    4  A    between atoms: C_7  and  O_26
                            x       y       z     vdW  Elec       q    Type
                         _______ _______ _______ _____ _____    ______ ____

>  <TORSDO>
F 4

$$$$
=
 OpenBabel10262421593D

 30 34  0  0  1  0  0  0  0  0999 V2000
  181.9720  175.4430  136.3540 C   0  0  0  0  0  0  0  0  0  0  0  0
  182.9440  173.6190  136.7870 C   0  0  2  0  0  3  0  0  0  0  0  0
  186.6050  176.6860  136.9280 C   0  0  0  0  0  2  0  0  0  0  0  0
  182.9910  176.9680  139.3640 C   0  0  0  0  0  2  0  0  0  0  0  0
  181.4230  176.7020  135.9590 N   0  0  0  0  0  2  0  0  0  0  0  0
  180.8800  177.7980  138.2260 C   0  0  2  0  0  3  0  0  0  0  0  0
  181.4410  178.9980  136.2530 O   0  0  0  0  0  0  0  0  0  0  0  0
  184.9300  179.1860  139.3250 N   0  0  0  0  0  0  0  0  0  0  0  0
  186.2280  177.9500  137.6320 C   0  0  0  0  0  0  0  0  0  0  0  0
  181.2990  177.8660  136.7810 C   0  0  0  0  0  0  0  0  0  0  0  0
  181.9280  178.0540  139.3190 C   0  0  2  0  0  3  0  0  0  0  0  0
  184.1520  173.0560  136.0190 C   0  0  0  0  0  2  0  0  0  0  0  0
  183.7700  179.7880  138.8430 O   0  0  0  0  0  0  0  0  0  0  0  0
  181.5800  173.7660  135.7880 S   0  0  0  0  0  0  0  0  0  0  0  0
  185.3520  175.9480  136.4540 C   0  0  1  0  0  3  0  0  0  0  0  0
  184.7210  174.0070  135.1560 O   0  0  0  0  0  0  0  0  0  0  0  0
  183.1180  175.0680  137.0600 C   0  0  0  0  0  0  0  0  0  0  0  0
  183.9550  177.1400  138.2090 C   0  0  1  0  0  3  0  0  0  0  0  0
  186.7880  178.9990  137.3550 O   0  0  0  0  0  0  0  0  0  0  0  0
  185.1970  177.8700  138.7210 C   0  0  2  0  0  3  0  0  0  0  0  0
  181.6570  180.4110  139.4710 O   0  0  0  0  0  0  0  0  0  0  0  0
  185.7740  174.5900  135.8790 C   0  0  0  0  0  2  0  0  0  0  0  0
  184.3210  175.7860  137.5950 C   0  0  2  0  0  3  0  0  0  0  0  0
  182.4590  179.4660  139.2480 C   0  0  0  0  0  0  0  0  0  0  0  0
  179.6860  176.9100  138.5710 C   0  0  0  0  0  2  0  0  0  0  0  0
  179.6780  175.0490  140.4080 C   0  0  0  0  0  1  0  0  0  0  0  0
  179.3490  176.8310  140.3570 S   0  0  0  0  0  0  0  0  0  0  0  0
  184.8790  179.0550  140.7770 C   0  0  0  0  0  2  0  0  0  0  0  0
  186.0480  178.2570  142.4690 C   0  0  0  0  0  1  0  0  0  0  0  0
  186.1750  178.9900  141.2900 O   0  0  0  0  0  0  0  0  0  0  0  0
  1 17  2  0  0  0  0
  2 12  1  6  0  0  0
  2 17  1  0  0  0  0
  3  9  1  0  0  0  0
  5  1  1  0  0  0  0
  5 10  1  0  0  0  0
  6 25  1  1  0  0  0
  6 11  1  0  0  0  0
  7 10  2  0  0  0  0
  8 28  1  0  0  0  0
 10  6  1  0  0  0  0
 11  4  1  6  0  0  0
 13 24  1  0  0  0  0
 13  8  1  0  0  0  0
 14  1  1  0  0  0  0
 14  2  1  0  0  0  0
 15 22  1  1  0  0  0
 15  3  1  0  0  0  0
 15 23  1  0  0  0  0
 16 22  1  0  0  0  0
 16 12  1  0  0  0  0
 18 20  1  0  0  0  0
 18  4  1  1  0  0  0
 19  9  2  0  0  0  0
 20  9  1  6  0  0  0
 20  8  1  0  0  0  0
 23 17  1  6  0  0  0
 23 18  1  0  0  0  0
 24 11  1  0  0  0  0
 24 21  2  0  0  0  0
 25 27  1  0  0  0  0
 27 26  1  0  0  0  0
 28 30  1  0  0  0  0
 30 29  1  0  0  0  0
M  END
>  <MODEL>
4

>  <REMARK>
 VINA RESULT:      -4.8      2.941      6.585
  Name = 
  4 active torsions:
  status: ('A' for Active; 'I' for Inactive)
    1  A    between atoms: C_6  and  C_8
    2  A    between atoms: C_6  and  S_21
    3  A    between atoms: C_7  and  N_10
    4  A    between atoms: C_7  and  O_26
                            x       y       z     vdW  Elec       q    Type
                         _______ _______ _______ _____ _____    ______ ____

>  <TORSDO>
F 4

$$$$
=
 OpenBabel10262421593D

 30 34  0  0  1  0  0  0  0  0999 V2000
  187.2350  177.8260  145.8770 C   0  0  0  0  0  0  0  0  0  0  0  0
  188.1020  179.0880  147.3300 C   0  0  2  0  0  3  0  0  0  0  0  0
  191.7830  176.2410  146.2450 C   0  0  0  0  0  2  0  0  0  0  0  0
  189.5740  178.6970  143.3880 C   0  0  0  0  0  2  0  0  0  0  0  0
  186.7060  176.8570  144.9700 N   0  0  0  0  0  2  0  0  0  0  0  0
  187.2800  177.8790  142.6760 C   0  0  2  0  0  3  0  0  0  0  0  0
  187.0840  175.5480  143.0980 O   0  0  0  0  0  0  0  0  0  0  0  0
  191.5380  176.7180  142.4370 N   0  0  0  0  0  0  0  0  0  0  0  0
  191.8700  176.0030  144.7720 C   0  0  0  0  0  0  0  0  0  0  0  0
  187.0590  176.7040  143.5930 C   0  0  0  0  0  0  0  0  0  0  0  0
  188.7100  178.2190  142.2330 C   0  0  2  0  0  3  0  0  0  0  0  0
  188.8110  178.6090  148.6080 C   0  0  0  0  0  2  0  0  0  0  0  0
  190.3530  176.2740  141.8550 O   0  0  0  0  0  0  0  0  0  0  0  0
  186.4690  178.6290  147.3100 S   0  0  0  0  0  0  0  0  0  0  0  0
  190.3780  176.7090  146.6270 C   0  0  1  0  0  3  0  0  0  0  0  0
  189.0620  177.2270  148.5880 O   0  0  0  0  0  0  0  0  0  0  0  0
  188.5250  178.2830  146.1560 C   0  0  0  0  0  0  0  0  0  0  0  0
  189.9770  177.5210  144.2520 C   0  0  1  0  0  3  0  0  0  0  0  0
  192.3690  174.9740  144.3440 O   0  0  0  0  0  0  0  0  0  0  0  0
  191.3890  177.0890  143.8530 C   0  0  2  0  0  3  0  0  0  0  0  0
  188.7750  176.8430  140.2950 O   0  0  0  0  0  0  0  0  0  0  0  0
  190.3750  177.0890  148.1120 C   0  0  0  0  0  2  0  0  0  0  0  0
  189.9090  177.8850  145.7390 C   0  0  2  0  0  3  0  0  0  0  0  0
  189.3060  177.1050  141.4060 C   0  0  0  0  0  0  0  0  0  0  0  0
  186.2550  179.0100  142.7250 C   0  0  0  0  0  2  0  0  0  0  0  0
  183.9880  179.0870  144.0260 C   0  0  0  0  0  1  0  0  0  0  0  0
  184.5520  178.4410  142.4290 S   0  0  0  0  0  0  0  0  0  0  0  0
  192.0870  177.8460  141.6910 C   0  0  0  0  0  2  0  0  0  0  0  0
  193.5470  177.1280  140.2020 C   0  0  0  0  0  1  0  0  0  0  0  0
  192.2120  177.5040  140.3450 O   0  0  0  0  0  0  0  0  0  0  0  0
  1 17  2  0  0  0  0
  1 14  1  0  0  0  0
  2 12  1  1  0  0  0
  5  1  1  0  0  0  0
  6 25  1  1  0  0  0
  6 10  1  0  0  0  0
  7 10  2  0  0  0  0
  8 20  1  0  0  0  0
  9  3  1  0  0  0  0
 10  5  1  0  0  0  0
 11  6  1  0  0  0  0
 11  4  1  1  0  0  0
 13  8  1  0  0  0  0
 14  2  1  0  0  0  0
 15  3  1  6  0  0  0
 15 22  1  0  0  0  0
 16 12  1  0  0  0  0
 17  2  1  0  0  0  0
 18  4  1  6  0  0  0
 18 23  1  0  0  0  0
 19  9  2  0  0  0  0
 20 18  1  0  0  0  0
 20  9  1  1  0  0  0
 21 24  2  0  0  0  0
 22 16  1  0  0  0  0
 23 17  1  1  0  0  0
 23 15  1  0  0  0  0
 24 13  1  0  0  0  0
 24 11  1  0  0  0  0
 27 25  1  0  0  0  0
 27 26  1  0  0  0  0
 28  8  1  0  0  0  0
 29 30  1  0  0  0  0
 30 28  1  0  0  0  0
M  END
>  <MODEL>
5

>  <REMARK>
 VINA RESULT:      -4.7      5.481      9.002
  Name = 
  4 active torsions:
  status: ('A' for Active; 'I' for Inactive)
    1  A    between atoms: C_6  and  C_8
    2  A    between atoms: C_6  and  S_21
    3  A    between atoms: C_7  and  N_10
    4  A    between atoms: C_7  and  O_26
                            x       y       z     vdW  Elec       q    Type
                         _______ _______ _______ _____ _____    ______ ____

>  <TORSDO>
F 4

$$$$
=
 OpenBabel10262421593D

 30 34  0  0  1  0  0  0  0  0999 V2000
  182.0860  175.4160  136.2740 C   0  0  0  0  0  0  0  0  0  0  0  0
  183.6440  174.0600  136.7090 C   0  0  2  0  0  3  0  0  0  0  0  0
  185.4860  178.1550  138.3400 C   0  0  0  0  0  2  0  0  0  0  0  0
  181.6980  176.4080  139.6340 C   0  0  0  0  0  2  0  0  0  0  0  0
  181.1360  176.4230  135.9190 N   0  0  0  0  0  2  0  0  0  0  0  0
  179.7190  176.6210  138.0600 C   0  0  2  0  0  3  0  0  0  0  0  0
  180.0900  178.3970  136.5260 O   0  0  0  0  0  0  0  0  0  0  0  0
  182.4390  179.1330  140.4740 N   0  0  0  0  0  0  0  0  0  0  0  0
  184.4610  178.9570  139.0760 C   0  0  0  0  0  0  0  0  0  0  0  0
  180.3510  177.2030  136.8240 C   0  0  0  0  0  0  0  0  0  0  0  0
  180.3020  176.9760  139.4350 C   0  0  2  0  0  3  0  0  0  0  0  0
  185.1050  174.2150  136.2540 C   0  0  0  0  0  2  0  0  0  0  0  0
  181.2580  179.3440  139.7660 O   0  0  0  0  0  0  0  0  0  0  0  0
  182.5890  173.9170  135.3880 S   0  0  0  0  0  0  0  0  0  0  0  0
  184.8070  177.1360  137.4230 C   0  0  1  0  0  3  0  0  0  0  0  0
  185.3650  175.4950  135.7370 O   0  0  0  0  0  0  0  0  0  0  0  0
  183.1090  175.3460  137.2220 C   0  0  0  0  0  0  0  0  0  0  0  0
  182.7030  177.2200  138.8460 C   0  0  1  0  0  3  0  0  0  0  0  0
  184.5510  180.1740  139.1240 O   0  0  0  0  0  0  0  0  0  0  0  0
  183.3700  178.2170  139.7950 C   0  0  2  0  0  3  0  0  0  0  0  0
  179.0060  178.9300  139.8330 O   0  0  0  0  0  0  0  0  0  0  0  0
  185.8860  176.2360  136.8100 C   0  0  0  0  0  2  0  0  0  0  0  0
  183.7410  176.3110  138.1800 C   0  0  2  0  0  3  0  0  0  0  0  0
  180.1660  178.4530  139.7220 C   0  0  0  0  0  0  0  0  0  0  0  0
  178.9890  175.2870  137.9130 C   0  0  0  0  0  2  0  0  0  0  0  0
  180.0630  172.9270  138.2520 C   0  0  0  0  0  1  0  0  0  0  0  0
  179.2720  174.1620  139.3160 S   0  0  0  0  0  0  0  0  0  0  0  0
  182.1540  178.6340  141.8150 C   0  0  0  0  0  2  0  0  0  0  0  0
  182.7800  178.9990  143.8990 C   0  0  0  0  0  1  0  0  0  0  0  0
  183.2850  178.7720  142.6190 O   0  0  0  0  0  0  0  0  0  0  0  0
  1 17  2  0  0  0  0
  2 12  1  6  0  0  0
  2 17  1  0  0  0  0
  3  9  1  0  0  0  0
  5  1  1  0  0  0  0
  5 10  1  0  0  0  0
  6 25  1  6  0  0  0
  6 11  1  0  0  0  0
  7 10  2  0  0  0  0
  8 28  1  0  0  0  0
  9 19  2  0  0  0  0
 10  6  1  0  0  0  0
 11  4  1  6  0  0  0
 11 24  1  0  0  0  0
 13  8  1  0  0  0  0
 14  1  1  0  0  0  0
 14  2  1  0  0  0  0
 15 22  1  1  0  0  0
 15 23  1  0  0  0  0
 15  3  1  0  0  0  0
 16 12  1  0  0  0  0
 16 22  1  0  0  0  0
 18  4  1  1  0  0  0
 18 20  1  0  0  0  0
 20  9  1  6  0  0  0
 20  8  1  0  0  0  0
 23 17  1  6  0  0  0
 23 18  1  0  0  0  0
 24 13  1  0  0  0  0
 24 21  2  0  0  0  0
 25 27  1  0  0  0  0
 26 27  1  0  0  0  0
 28 30  1  0  0  0  0
 30 29  1  0  0  0  0
M  END
>  <MODEL>
6

>  <REMARK>
 VINA RESULT:      -4.6      2.598      5.726
  Name = 
  4 active torsions:
  status: ('A' for Active; 'I' for Inactive)
    1  A    between atoms: C_6  and  C_8
    2  A    between atoms: C_6  and  S_21
    3  A    between atoms: C_7  and  N_10
    4  A    between atoms: C_7  and  O_26
                            x       y       z     vdW  Elec       q    Type
                         _______ _______ _______ _____ _____    ______ ____

>  <TORSDO>
F 4

$$$$
=
 OpenBabel10262421593D

 30 34  0  0  1  0  0  0  0  0999 V2000
  181.6390  175.6360  137.4600 C   0  0  0  0  0  0  0  0  0  0  0  0
  180.3980  177.3370  137.3090 C   0  0  2  0  0  3  0  0  0  0  0  0
  183.9720  179.0220  139.9950 C   0  0  0  0  0  2  0  0  0  0  0  0
  184.4240  177.2540  136.0270 C   0  0  0  0  0  2  0  0  0  0  0  0
  182.4830  174.5110  137.7100 N   0  0  0  0  0  2  0  0  0  0  0  0
  184.2530  174.7280  135.8500 C   0  0  2  0  0  3  0  0  0  0  0  0
  184.6490  173.7380  137.9740 O   0  0  0  0  0  0  0  0  0  0  0  0
  186.7990  177.8520  137.6640 N   0  0  0  0  0  0  0  0  0  0  0  0
  185.2990  178.5550  139.4890 C   0  0  0  0  0  0  0  0  0  0  0  0
  183.8230  174.3370  137.2390 C   0  0  0  0  0  0  0  0  0  0  0  0
  185.1440  175.9640  135.6660 C   0  0  2  0  0  3  0  0  0  0  0  0
  179.8480  178.1390  138.5000 C   0  0  0  0  0  2  0  0  0  0  0  0
  186.8920  176.4740  137.4850 O   0  0  0  0  0  0  0  0  0  0  0  0
  179.8340  175.7370  137.3180 S   0  0  0  0  0  0  0  0  0  0  0  0
  182.8550  178.1170  139.4730 C   0  0  1  0  0  3  0  0  0  0  0  0
  180.4700  177.7870  139.7080 O   0  0  0  0  0  0  0  0  0  0  0  0
  181.8350  177.0180  137.5030 C   0  0  0  0  0  0  0  0  0  0  0  0
  184.3210  177.3830  137.5320 C   0  0  1  0  0  3  0  0  0  0  0  0
  186.2420  178.4360  140.2550 O   0  0  0  0  0  0  0  0  0  0  0  0
  185.4430  178.3030  138.0150 C   0  0  2  0  0  3  0  0  0  0  0  0
  187.2450  174.8740  135.8850 O   0  0  0  0  0  0  0  0  0  0  0  0
  181.5060  178.7190  139.8850 C   0  0  0  0  0  2  0  0  0  0  0  0
  182.9470  177.9230  137.9420 C   0  0  2  0  0  3  0  0  0  0  0  0
  186.4870  175.7740  136.3300 C   0  0  0  0  0  0  0  0  0  0  0  0
  183.3430  174.3200  134.6930 C   0  0  0  0  0  2  0  0  0  0  0  0
  181.2890  172.7060  134.7970 C   0  0  0  0  0  1  0  0  0  0  0  0
  183.0800  172.5220  134.5940 S   0  0  0  0  0  0  0  0  0  0  0  0
  187.2550  178.5590  136.4710 C   0  0  0  0  0  2  0  0  0  0  0  0
  189.0600  179.0340  137.6470 C   0  0  0  0  0  1  0  0  0  0  0  0
  188.0850  179.6180  136.8400 O   0  0  0  0  0  0  0  0  0  0  0  0
  1 17  2  0  0  0  0
  1  5  1  0  0  0  0
  2 14  1  0  0  0  0
  2 17  1  0  0  0  0
  2 12  1  1  0  0  0
  6 25  1  6  0  0  0
  6 10  1  0  0  0  0
  8 20  1  0  0  0  0
  9  3  1  0  0  0  0
  9 19  2  0  0  0  0
 10  5  1  0  0  0  0
 10  7  2  0  0  0  0
 11  6  1  0  0  0  0
 11  4  1  1  0  0  0
 11 24  1  0  0  0  0
 12 16  1  0  0  0  0
 13  8  1  0  0  0  0
 14  1  1  0  0  0  0
 15 22  1  6  0  0  0
 15  3  1  0  0  0  0
 16 22  1  0  0  0  0
 18  4  1  6  0  0  0
 18 23  1  0  0  0  0
 18 20  1  0  0  0  0
 20  9  1  1  0  0  0
 21 24  2  0  0  0  0
 23 17  1  1  0  0  0
 23 15  1  0  0  0  0
 24 13  1  0  0  0  0
 27 25  1  0  0  0  0
 27 26  1  0  0  0  0
 28 30  1  0  0  0  0
 28  8  1  0  0  0  0
 30 29  1  0  0  0  0
M  END
>  <MODEL>
7

>  <REMARK>
 VINA RESULT:      -4.5      3.504      6.634
  Name = 
  4 active torsions:
  status: ('A' for Active; 'I' for Inactive)
    1  A    between atoms: C_6  and  C_8
    2  A    between atoms: C_6  and  S_21
    3  A    between atoms: C_7  and  N_10
    4  A    between atoms: C_7  and  O_26
                            x       y       z     vdW  Elec       q    Type
                         _______ _______ _______ _____ _____    ______ ____

>  <TORSDO>
F 4

$$$$
=
 OpenBabel10262421593D

 30 34  0  0  1  0  0  0  0  0999 V2000
  189.4360  177.2270  140.4530 C   0  0  0  0  0  0  0  0  0  0  0  0
  189.5430  178.6950  138.9410 C   0  0  2  0  0  3  0  0  0  0  0  0
  184.8190  178.1190  139.3510 C   0  0  0  0  0  2  0  0  0  0  0  0
  187.5070  179.2480  142.6020 C   0  0  0  0  0  2  0  0  0  0  0  0
  189.2680  176.1590  141.3870 N   0  0  0  0  0  2  0  0  0  0  0  0
  188.9490  177.4190  143.6110 C   0  0  2  0  0  3  0  0  0  0  0  0
  188.0120  175.2890  143.1270 O   0  0  0  0  0  0  0  0  0  0  0  0
  184.7000  178.5570  143.1710 N   0  0  0  0  0  0  0  0  0  0  0  0
  184.4060  178.0150  140.7840 C   0  0  0  0  0  0  0  0  0  0  0  0
  188.6850  176.2570  142.6900 C   0  0  0  0  0  0  0  0  0  0  0  0
  187.8340  178.4470  143.8520 C   0  0  2  0  0  3  0  0  0  0  0  0
  188.8890  178.5860  137.5540 C   0  0  0  0  0  2  0  0  0  0  0  0
  185.4030  177.6020  143.9020 O   0  0  0  0  0  0  0  0  0  0  0  0
  190.7040  177.4820  139.1830 S   0  0  0  0  0  0  0  0  0  0  0  0
  186.3080  177.8050  139.2020 C   0  0  1  0  0  3  0  0  0  0  0  0
  187.9810  177.5180  137.4790 O   0  0  0  0  0  0  0  0  0  0  0  0
  188.6060  178.2570  140.0050 C   0  0  0  0  0  0  0  0  0  0  0  0
  186.7030  178.3990  141.6400 C   0  0  1  0  0  3  0  0  0  0  0  0
  183.4020  177.3910  141.0920 O   0  0  0  0  0  0  0  0  0  0  0  0
  185.2240  178.7480  141.8090 C   0  0  2  0  0  3  0  0  0  0  0  0
  186.8010  177.3650  145.7010 O   0  0  0  0  0  0  0  0  0  0  0  0
  186.7210  178.0740  137.7500 C   0  0  0  0  0  2  0  0  0  0  0  0
  187.1640  178.6220  140.1970 C   0  0  2  0  0  3  0  0  0  0  0  0
  186.6440  177.8140  144.5360 C   0  0  0  0  0  0  0  0  0  0  0  0
  190.3960  177.8820  143.7610 C   0  0  0  0  0  2  0  0  0  0  0  0
  190.3370  177.0310  146.2320 C   0  0  0  0  0  1  0  0  0  0  0  0
  191.3990  176.7640  144.7890 S   0  0  0  0  0  0  0  0  0  0  0  0
  184.6860  179.8360  143.8730 C   0  0  0  0  0  2  0  0  0  0  0  0
  182.6700  179.1060  144.3910 C   0  0  0  0  0  1  0  0  0  0  0  0
  183.7650  179.7890  144.9190 O   0  0  0  0  0  0  0  0  0  0  0  0
  1  5  1  0  0  0  0
  2 12  1  6  0  0  0
  2 14  1  0  0  0  0
  2 17  1  0  0  0  0
  3  9  1  0  0  0  0
  5 10  1  0  0  0  0
  6 25  1  6  0  0  0
  6 11  1  0  0  0  0
  8 28  1  0  0  0  0
  8 13  1  0  0  0  0
  9 19  2  0  0  0  0
 10  7  2  0  0  0  0
 10  6  1  0  0  0  0
 11  4  1  6  0  0  0
 11 24  1  0  0  0  0
 13 24  1  0  0  0  0
 14  1  1  0  0  0  0
 15 22  1  6  0  0  0
 15  3  1  0  0  0  0
 15 23  1  0  0  0  0
 16 12  1  0  0  0  0
 16 22  1  0  0  0  0
 17  1  2  0  0  0  0
 18 20  1  0  0  0  0
 18  4  1  1  0  0  0
 20  9  1  6  0  0  0
 20  8  1  0  0  0  0
 23 17  1  1  0  0  0
 23 18  1  0  0  0  0
 24 21  2  0  0  0  0
 25 27  1  0  0  0  0
 27 26  1  0  0  0  0
 28 30  1  0  0  0  0
 29 30  1  0  0  0  0
M  END
>  <MODEL>
8

>  <REMARK>
 VINA RESULT:      -4.5      3.521      7.021
  Name = 
  4 active torsions:
  status: ('A' for Active; 'I' for Inactive)
    1  A    between atoms: C_6  and  C_8
    2  A    between atoms: C_6  and  S_21
    3  A    between atoms: C_7  and  N_10
    4  A    between atoms: C_7  and  O_26
                            x       y       z     vdW  Elec       q    Type
                         _______ _______ _______ _____ _____    ______ ____

>  <TORSDO>
F 4

$$$$
=
 OpenBabel10262421593D

 30 34  0  0  1  0  0  0  0  0999 V2000
  181.7120  177.0670  140.0340 C   0  0  0  0  0  0  0  0  0  0  0  0
  181.1940  178.9040  140.9350 C   0  0  2  0  0  3  0  0  0  0  0  0
  185.9160  178.8070  141.6540 C   0  0  0  0  0  2  0  0  0  0  0  0
  183.9580  178.5500  137.7590 C   0  0  0  0  0  2  0  0  0  0  0  0
  182.1400  175.7920  139.5490 N   0  0  0  0  0  2  0  0  0  0  0  0
  182.8760  176.3390  137.1420 C   0  0  2  0  0  3  0  0  0  0  0  0
  183.7940  174.5910  138.4630 O   0  0  0  0  0  0  0  0  0  0  0  0
  186.8540  178.0640  137.9990 N   0  0  0  0  0  0  0  0  0  0  0  0
  186.6410  178.3200  140.4410 C   0  0  0  0  0  0  0  0  0  0  0  0
  182.9900  175.5570  138.4230 C   0  0  0  0  0  0  0  0  0  0  0  0
  183.9600  177.3710  136.7990 C   0  0  2  0  0  3  0  0  0  0  0  0
  181.5290  179.3060  142.3810 C   0  0  0  0  0  2  0  0  0  0  0  0
  186.3830  176.8530  137.4970 O   0  0  0  0  0  0  0  0  0  0  0  0
  180.1820  177.5430  140.8820 S   0  0  0  0  0  0  0  0  0  0  0  0
  184.4500  178.3760  141.6070 C   0  0  1  0  0  3  0  0  0  0  0  0
  182.4540  178.4300  142.9730 O   0  0  0  0  0  0  0  0  0  0  0  0
  182.3660  178.2770  140.2730 C   0  0  0  0  0  0  0  0  0  0  0  0
  184.5730  178.1410  139.0800 C   0  0  1  0  0  3  0  0  0  0  0  0
  187.7190  177.7580  140.5530 O   0  0  0  0  0  0  0  0  0  0  0  0
  186.0320  178.5990  139.0960 C   0  0  2  0  0  3  0  0  0  0  0  0
  185.4330  175.9080  135.6390 O   0  0  0  0  0  0  0  0  0  0  0  0
  183.7120  179.0250  142.7840 C   0  0  0  0  0  2  0  0  0  0  0  0
  183.7930  178.7380  140.2550 C   0  0  2  0  0  3  0  0  0  0  0  0
  185.3030  176.7080  136.6020 C   0  0  0  0  0  0  0  0  0  0  0  0
  181.4750  176.5550  136.5730 C   0  0  0  0  0  2  0  0  0  0  0  0
  179.2590  175.4140  137.3650 C   0  0  0  0  0  1  0  0  0  0  0  0
  180.6020  174.9970  136.2210 S   0  0  0  0  0  0  0  0  0  0  0  0
  186.9560  179.0590  136.9350 C   0  0  0  0  0  2  0  0  0  0  0  0
  189.1310  178.7630  137.1500 C   0  0  0  0  0  1  0  0  0  0  0  0
  188.1570  179.7570  137.0570 O   0  0  0  0  0  0  0  0  0  0  0  0
  1 17  2  0  0  0  0
  1 14  1  0  0  0  0
  2 12  1  1  0  0  0
  5  1  1  0  0  0  0
  6 25  1  1  0  0  0
  6 10  1  0  0  0  0
  8 20  1  0  0  0  0
  9 19  2  0  0  0  0
  9  3  1  0  0  0  0
 10  7  2  0  0  0  0
 10  5  1  0  0  0  0
 11  6  1  0  0  0  0
 11  4  1  1  0  0  0
 12 16  1  0  0  0  0
 13  8  1  0  0  0  0
 14  2  1  0  0  0  0
 15  3  1  6  0  0  0
 15 22  1  0  0  0  0
 17  2  1  0  0  0  0
 18  4  1  6  0  0  0
 18 20  1  0  0  0  0
 18 23  1  0  0  0  0
 20  9  1  1  0  0  0
 21 24  2  0  0  0  0
 22 16  1  0  0  0  0
 23 17  1  1  0  0  0
 23 15  1  0  0  0  0
 24 11  1  0  0  0  0
 24 13  1  0  0  0  0
 27 25  1  0  0  0  0
 27 26  1  0  0  0  0
 28 30  1  0  0  0  0
 28  8  1  0  0  0  0
 30 29  1  0  0  0  0
M  END
>  <MODEL>
9

>  <REMARK>
 VINA RESULT:      -4.5      3.126      5.679
  Name = 
  4 active torsions:
  status: ('A' for Active; 'I' for Inactive)
    1  A    between atoms: C_6  and  C_8
    2  A    between atoms: C_6  and  S_21
    3  A    between atoms: C_7  and  N_10
    4  A    between atoms: C_7  and  O_26
                            x       y       z     vdW  Elec       q    Type
                         _______ _______ _______ _____ _____    ______ ____

>  <TORSDO>
F 4

$$$$
