=
 OpenBabel10262421103D

 32 37  0  0  1  0  0  0  0  0999 V2000
  189.5710  177.2740  142.8660 C   0  0  0  0  0  0  0  0  0  0  0  0
  187.7980  177.7150  144.4730 N   0  0  0  0  0  0  0  0  0  0  0  0
  190.9670  176.8660  142.5950 C   0  0  0  0  0  3  0  0  0  0  0  0
  189.1520  177.3680  144.1980 C   0  0  1  0  0  3  0  0  0  0  0  0
  187.3410  177.8080  145.8250 C   0  0  0  0  0  0  0  0  0  0  0  0
  183.3030  178.8760  143.0810 C   0  0  0  0  0  3  0  0  0  0  0  0
  186.8920  177.9580  143.4020 C   0  0  0  0  0  0  0  0  0  0  0  0
  183.8840  178.6960  145.4260 C   0  0  0  0  0  3  0  0  0  0  0  0
  185.1990  178.3650  145.0890 C   0  0  0  0  0  0  0  0  0  0  0  0
  190.0140  177.1230  145.2740 C   0  0  0  0  0  0  0  0  0  0  0  0
  186.0750  178.1260  146.0650 O   0  0  0  0  0  0  0  0  0  0  0  0
  189.5450  177.2250  146.5500 N   0  0  0  0  0  0  0  0  0  0  0  0
  191.4590  176.7650  145.0450 C   0  0  0  0  0  3  0  0  0  0  0  0
  187.3750  177.8520  142.0960 C   0  0  0  0  0  3  0  0  0  0  0  0
  188.6800  177.5260  141.8460 N   0  0  0  0  0  0  0  0  0  0  0  0
  185.5700  178.2890  143.7190 C   0  0  0  0  0  0  0  0  0  0  0  0
  188.2540  177.5540  146.8540 C   0  0  0  0  0  0  0  0  0  0  0  0
  191.8280  176.6270  143.5880 C   0  0  0  0  0  3  0  0  0  0  0  0
  182.9390  178.9500  144.4280 C   0  0  0  0  0  3  0  0  0  0  0  0
  184.6130  178.5470  142.7260 C   0  0  0  0  0  3  0  0  0  0  0  0
  188.7250  177.9610  138.1220 C   0  0  0  0  0  0  0  0  0  0  0  0
  187.9960  178.5470  137.1410 F   0  0  0  0  0  0  0  0  0  0  0  0
  189.0820  177.4460  140.4700 C   0  0  0  0  0  0  0  0  0  0  0  0
  189.8840  177.2560  137.7910 C   0  0  0  0  0  3  0  0  0  0  0  0
  190.2390  176.7340  140.1250 C   0  0  0  0  0  3  0  0  0  0  0  0
  188.3170  178.0530  139.4570 C   0  0  0  0  0  0  0  0  0  0  0  0
  187.1480  178.7380  139.7740 O   0  0  0  0  0  1  0  0  0  0  0  0
  190.6480  176.6350  138.7920 C   0  0  0  0  0  0  0  0  0  0  0  0
  192.6930  176.2960  137.4450 C   0  0  0  0  0  1  0  0  0  0  0  0
  191.8090  175.9190  138.4910 O   0  0  0  0  0  0  0  0  0  0  0  0
  187.8330  177.6400  148.2560 C   0  0  0  0  0  3  0  0  0  0  0  0
  188.5460  178.2280  149.1110 O   0  0  0  0  0  0  0  0  0  0  0  0
  2  5  1  0  0  0  0
  3  1  2  0  0  0  0
  3 18  1  0  0  0  0
  4  1  1  6  0  0  0
  4  2  1  0  0  0  0
  4 10  1  0  0  0  0
  5 11  1  0  0  0  0
  5 17  2  0  0  0  0
  6 19  1  0  0  0  0
  7 16  1  0  0  0  0
  7  2  1  0  0  0  0
  9  8  1  0  0  0  0
  9 11  1  0  0  0  0
 10 12  2  0  0  0  0
 12 17  1  0  0  0  0
 13 10  1  0  0  0  0
 14  7  2  0  0  0  0
 15 14  1  0  0  0  0
 15  1  1  0  0  0  0
 16  9  2  0  0  0  0
 17 31  1  0  0  0  0
 18 13  2  0  0  0  0
 19  8  2  0  0  0  0
 20  6  2  0  0  0  0
 20 16  1  0  0  0  0
 21 26  1  0  0  0  0
 22 21  1  0  0  0  0
 23 15  1  0  0  0  0
 24 21  2  0  0  0  0
 24 28  1  0  0  0  0
 25 23  1  0  0  0  0
 26 27  1  0  0  0  0
 26 23  2  0  0  0  0
 28 25  2  0  0  0  0
 29 30  1  0  0  0  0
 30 28  1  0  0  0  0
 31 32  2  0  0  0  0
M  END
>  <MODEL>
1

>  <REMARK>
 VINA RESULT:     -11.3      0.000      0.000
  Name = 
  3 active torsions:
  status: ('A' for Active; 'I' for Inactive)
    1  A    between atoms: C_13  and  CA_29
    2  A    between atoms: O_15  and  C_26
    3  A    between atoms: C_16  and  N_27
                            x       y       z     vdW  Elec       q    Type
                         _______ _______ _______ _____ _____    ______ ____

>  <TORSDO>
F 3

$$$$
=
 OpenBabel10262421103D

 32 37  0  0  1  0  0  0  0  0999 V2000
  187.2350  177.9830  143.9300 C   0  0  0  0  0  0  0  0  0  0  0  0
  186.9860  178.2460  141.5240 N   0  0  0  0  0  0  0  0  0  0  0  0
  186.6320  178.0160  145.2800 C   0  0  0  0  0  3  0  0  0  0  0  0
  186.4320  178.3190  142.8340 C   0  0  1  0  0  3  0  0  0  0  0  0
  186.1850  178.5740  140.3860 C   0  0  0  0  0  0  0  0  0  0  0  0
  190.6210  177.3290  138.4520 C   0  0  0  0  0  3  0  0  0  0  0  0
  188.3370  177.8350  141.3420 C   0  0  0  0  0  0  0  0  0  0  0  0
  188.4560  178.0640  137.6520 C   0  0  0  0  0  3  0  0  0  0  0  0
  187.9750  178.1190  138.9620 C   0  0  0  0  0  0  0  0  0  0  0  0
  185.0960  178.7150  142.9770 C   0  0  0  0  0  0  0  0  0  0  0  0
  186.7140  178.4960  139.1710 O   0  0  0  0  0  0  0  0  0  0  0  0
  184.3640  179.0240  141.8700 N   0  0  0  0  0  0  0  0  0  0  0  0
  184.4600  178.8220  144.3380 C   0  0  0  0  0  3  0  0  0  0  0  0
  189.0860  177.5180  142.4770 C   0  0  0  0  0  3  0  0  0  0  0  0
  188.5430  177.6000  143.7310 N   0  0  0  0  0  0  0  0  0  0  0  0
  188.8370  177.7720  140.0370 C   0  0  0  0  0  0  0  0  0  0  0  0
  184.8580  178.9660  140.5980 C   0  0  0  0  0  0  0  0  0  0  0  0
  185.3650  178.3930  145.4680 C   0  0  0  0  0  3  0  0  0  0  0  0
  189.7730  177.6710  137.3950 C   0  0  0  0  0  3  0  0  0  0  0  0
  190.1570  177.3790  139.7690 C   0  0  0  0  0  3  0  0  0  0  0  0
  191.3420  176.1190  145.7390 C   0  0  0  0  0  0  0  0  0  0  0  0
  192.4380  175.3400  145.5680 F   0  0  0  0  0  0  0  0  0  0  0  0
  189.3950  177.2570  144.8350 C   0  0  0  0  0  0  0  0  0  0  0  0
  191.0260  176.5920  147.0150 C   0  0  0  0  0  3  0  0  0  0  0  0
  189.0830  177.7180  146.1220 C   0  0  0  0  0  3  0  0  0  0  0  0
  190.5270  176.4430  144.6490 C   0  0  0  0  0  0  0  0  0  0  0  0
  190.8380  175.9480  143.3870 O   0  0  0  0  0  1  0  0  0  0  0  0
  189.8910  177.3940  147.2140 C   0  0  0  0  0  0  0  0  0  0  0  0
  188.2090  178.1760  148.8480 C   0  0  0  0  0  1  0  0  0  0  0  0
  189.5470  177.8770  148.4790 O   0  0  0  0  0  0  0  0  0  0  0  0
  183.9980  179.3150  139.4620 C   0  0  0  0  0  3  0  0  0  0  0  0
  184.0640  180.4530  138.9270 O   0  0  0  0  0  0  0  0  0  0  0  0
  1  3  2  0  0  0  0
  2  4  1  0  0  0  0
  3 18  1  0  0  0  0
  4 10  1  6  0  0  0
  4  1  1  0  0  0  0
  5 17  2  0  0  0  0
  5  2  1  0  0  0  0
  6 20  1  0  0  0  0
  7  2  1  0  0  0  0
  7 14  2  0  0  0  0
  8  9  2  0  0  0  0
  9 11  1  0  0  0  0
  9 16  1  0  0  0  0
 10 13  1  0  0  0  0
 11  5  1  0  0  0  0
 12 10  2  0  0  0  0
 13 18  2  0  0  0  0
 14 15  1  0  0  0  0
 15  1  1  0  0  0  0
 15 23  1  0  0  0  0
 16  7  1  0  0  0  0
 17 12  1  0  0  0  0
 19  8  1  0  0  0  0
 19  6  2  0  0  0  0
 20 16  2  0  0  0  0
 21 24  1  0  0  0  0
 22 21  1  0  0  0  0
 23 25  2  0  0  0  0
 24 28  2  0  0  0  0
 25 28  1  0  0  0  0
 26 23  1  0  0  0  0
 26 21  2  0  0  0  0
 27 26  1  0  0  0  0
 28 30  1  0  0  0  0
 30 29  1  0  0  0  0
 31 17  1  0  0  0  0
 32 31  2  0  0  0  0
M  END
>  <MODEL>
2

>  <REMARK>
 VINA RESULT:     -11.2      2.543      7.275
  Name = 
  3 active torsions:
  status: ('A' for Active; 'I' for Inactive)
    1  A    between atoms: C_13  and  CA_29
    2  A    between atoms: O_15  and  C_26
    3  A    between atoms: C_16  and  N_27
                            x       y       z     vdW  Elec       q    Type
                         _______ _______ _______ _____ _____    ______ ____

>  <TORSDO>
F 3

$$$$
=
 OpenBabel10262421103D

 32 37  0  0  0  0  0  0  0  0999 V2000
  187.2700  178.0820  141.6370 C   0  0  0  0  0  0  0  0  0  0  0  0
  187.5740  177.8550  144.0410 N   0  0  0  0  0  0  0  0  0  0  0  0
  186.4090  178.4640  140.4970 C   0  0  0  0  0  3  0  0  0  0  0  0
  186.7410  178.1740  142.9300 C   0  0  0  0  0  0  0  0  0  0  0  0
  187.0630  177.9510  145.3730 C   0  0  0  0  0  0  0  0  0  0  0  0
  191.7920  176.4510  145.9720 C   0  0  0  0  0  3  0  0  0  0  0  0
  188.9220  177.4490  143.8290 C   0  0  0  0  0  0  0  0  0  0  0  0
  189.8830  176.9730  147.3690 C   0  0  0  0  0  3  0  0  0  0  0  0
  189.1180  177.2680  146.2380 C   0  0  0  0  0  0  0  0  0  0  0  0
  185.4240  178.5820  143.1740 C   0  0  0  0  0  0  0  0  0  0  0  0
  187.8530  177.6550  146.3980 O   0  0  0  0  0  0  0  0  0  0  0  0
  184.9700  178.6590  144.4570 N   0  0  0  0  0  0  0  0  0  0  0  0
  184.4940  178.9220  142.0390 C   0  0  0  0  0  2  0  0  0  0  0  0
  189.3860  177.3720  142.5140 C   0  0  0  0  0  3  0  0  0  0  0  0
  188.5730  177.6750  141.4560 N   0  0  0  0  0  0  0  0  0  0  0  0
  189.7050  177.1510  144.9490 C   0  0  0  0  0  0  0  0  0  0  0  0
  185.7370  178.3610  145.5470 C   0  0  0  0  0  0  0  0  0  0  0  0
  185.1440  178.8530  140.6780 C   0  0  0  0  0  3  0  0  0  0  0  0
  191.2140  176.5670  147.2390 C   0  0  0  0  0  3  0  0  0  0  0  0
  191.0420  176.7420  144.8300 C   0  0  0  0  0  3  0  0  0  0  0  0
  190.7880  176.6320  138.6150 C   0  0  0  0  0  0  0  0  0  0  0  0
  191.8500  175.8260  138.3750 F   0  0  0  0  0  0  0  0  0  0  0  0
  189.1410  177.5610  140.1420 C   0  0  0  0  0  0  0  0  0  0  0  0
  190.2370  177.3760  137.5690 C   0  0  0  0  0  3  0  0  0  0  0  0
  188.6030  178.3100  139.0850 C   0  0  0  0  0  3  0  0  0  0  0  0
  190.2480  176.7260  139.9020 C   0  0  0  0  0  0  0  0  0  0  0  0
  190.8180  175.9990  140.9420 O   0  0  0  0  0  1  0  0  0  0  0  0
  189.1420  178.2230  137.7990 C   0  0  0  0  0  0  0  0  0  0  0  0
  187.4160  178.5680  136.0620 C   0  0  0  0  0  1  0  0  0  0  0  0
  188.5740  178.9830  136.7730 O   0  0  0  0  0  0  0  0  0  0  0  0
  185.1670  178.4720  146.8940 C   0  0  0  0  0  3  0  0  0  0  0  0
  185.4900  179.4210  147.6570 O   0  0  0  0  0  0  0  0  0  0  0  0
  1  4  2  0  0  0  0
  2  5  1  0  0  0  0
  3 18  2  0  0  0  0
  3  1  1  0  0  0  0
  4 10  1  0  0  0  0
  4  2  1  0  0  0  0
  5 17  2  0  0  0  0
  5 11  1  0  0  0  0
  6 19  1  0  0  0  0
  7  2  1  0  0  0  0
  7 16  1  0  0  0  0
  9 11  1  0  0  0  0
  9  8  1  0  0  0  0
 10 12  2  0  0  0  0
 12 17  1  0  0  0  0
 13 10  1  0  0  0  0
 14  7  2  0  0  0  0
 15  1  1  0  0  0  0
 15 14  1  0  0  0  0
 16  9  2  0  0  0  0
 17 31  1  0  0  0  0
 18 13  1  0  0  0  0
 19  8  2  0  0  0  0
 20 16  1  0  0  0  0
 20  6  2  0  0  0  0
 21 26  1  0  0  0  0
 22 21  1  0  0  0  0
 23 15  1  0  0  0  0
 24 28  1  0  0  0  0
 24 21  2  0  0  0  0
 25 23  1  0  0  0  0
 26 23  2  0  0  0  0
 26 27  1  0  0  0  0
 28 25  2  0  0  0  0
 29 30  1  0  0  0  0
 30 28  1  0  0  0  0
 31 32  2  0  0  0  0
M  END
>  <MODEL>
3

>  <REMARK>
 VINA RESULT:     -10.8      1.763      4.640
  Name = 
  3 active torsions:
  status: ('A' for Active; 'I' for Inactive)
    1  A    between atoms: C_13  and  CA_29
    2  A    between atoms: O_15  and  C_26
    3  A    between atoms: C_16  and  N_27
                            x       y       z     vdW  Elec       q    Type
                         _______ _______ _______ _____ _____    ______ ____

>  <TORSDO>
F 3

$$$$
=
 OpenBabel10262421103D

 32 37  0  0  0  0  0  0  0  0999 V2000
  189.5140  177.6810  142.6630 C   0  0  0  0  0  0  0  0  0  0  0  0
  187.7260  178.1120  141.0690 N   0  0  0  0  0  0  0  0  0  0  0  0
  190.9520  177.4610  142.9290 C   0  0  0  0  0  3  0  0  0  0  0  0
  189.1010  177.8520  141.3360 C   0  0  0  0  0  0  0  0  0  0  0  0
  187.2790  178.3000  139.7240 C   0  0  0  0  0  0  0  0  0  0  0  0
  183.1440  178.8190  142.4820 C   0  0  0  0  0  3  0  0  0  0  0  0
  186.7930  178.1960  142.1420 C   0  0  0  0  0  0  0  0  0  0  0  0
  183.7610  178.8910  140.1400 C   0  0  0  0  0  3  0  0  0  0  0  0
  185.0940  178.6290  140.4700 C   0  0  0  0  0  0  0  0  0  0  0  0
  189.9930  177.7880  140.2600 C   0  0  0  0  0  0  0  0  0  0  0  0
  185.9950  178.5470  139.4920 O   0  0  0  0  0  0  0  0  0  0  0  0
  189.5310  177.9690  138.9900 N   0  0  0  0  0  0  0  0  0  0  0  0
  191.4560  177.5040  140.4800 C   0  0  0  0  0  2  0  0  0  0  0  0
  187.2700  178.0110  143.4420 C   0  0  0  0  0  3  0  0  0  0  0  0
  188.5910  177.7550  143.6840 N   0  0  0  0  0  0  0  0  0  0  0  0
  185.4550  178.4590  141.8330 C   0  0  0  0  0  0  0  0  0  0  0  0
  188.2220  178.2200  138.6940 C   0  0  0  0  0  0  0  0  0  0  0  0
  191.8400  177.3860  141.9350 C   0  0  0  0  0  3  0  0  0  0  0  0
  182.7890  178.9870  141.1410 C   0  0  0  0  0  3  0  0  0  0  0  0
  184.4710  178.5560  142.8290 C   0  0  0  0  0  3  0  0  0  0  0  0
  188.4570  177.5650  147.4260 C   0  0  0  0  0  0  0  0  0  0  0  0
  187.5670  177.7180  148.4380 F   0  0  0  0  0  0  0  0  0  0  0  0
  188.9830  177.5750  145.0540 C   0  0  0  0  0  0  0  0  0  0  0  0
  189.7830  177.2360  147.7190 C   0  0  0  0  0  3  0  0  0  0  0  0
  190.3130  177.2540  145.3600 C   0  0  0  0  0  3  0  0  0  0  0  0
  188.0540  177.7410  146.0980 C   0  0  0  0  0  0  0  0  0  0  0  0
  186.7370  178.0920  145.8190 O   0  0  0  0  0  1  0  0  0  0  0  0
  190.7200  177.0810  146.6860 C   0  0  0  0  0  0  0  0  0  0  0  0
  192.4310  175.6260  147.7190 C   0  0  0  0  0  1  0  0  0  0  0  0
  192.0540  176.7570  146.9480 O   0  0  0  0  0  0  0  0  0  0  0  0
  187.8100  178.4040  137.2980 C   0  0  0  0  0  3  0  0  0  0  0  0
  187.5560  179.5510  136.8440 O   0  0  0  0  0  0  0  0  0  0  0  0
  1  3  1  0  0  0  0
  1 15  1  0  0  0  0
  2  4  1  0  0  0  0
  2  7  1  0  0  0  0
  4  1  2  0  0  0  0
  5  2  1  0  0  0  0
  6 20  1  0  0  0  0
  7 14  2  0  0  0  0
  8  9  2  0  0  0  0
  8 19  1  0  0  0  0
  9 16  1  0  0  0  0
 10 13  1  0  0  0  0
 10  4  1  0  0  0  0
 11  5  1  0  0  0  0
 11  9  1  0  0  0  0
 12 10  2  0  0  0  0
 13 18  1  0  0  0  0
 14 15  1  0  0  0  0
 15 23  1  0  0  0  0
 16  7  1  0  0  0  0
 16 20  2  0  0  0  0
 17 12  1  0  0  0  0
 17  5  2  0  0  0  0
 18  3  2  0  0  0  0
 19  6  2  0  0  0  0
 21 24  1  0  0  0  0
 21 22  1  0  0  0  0
 23 25  2  0  0  0  0
 23 26  1  0  0  0  0
 25 28  1  0  0  0  0
 26 21  2  0  0  0  0
 27 26  1  0  0  0  0
 28 30  1  0  0  0  0
 28 24  2  0  0  0  0
 30 29  1  0  0  0  0
 31 17  1  0  0  0  0
 32 31  2  0  0  0  0
M  END
>  <MODEL>
4

>  <REMARK>
 VINA RESULT:     -10.6      2.750      6.390
  Name = 
  3 active torsions:
  status: ('A' for Active; 'I' for Inactive)
    1  A    between atoms: C_13  and  CA_29
    2  A    between atoms: O_15  and  C_26
    3  A    between atoms: C_16  and  N_27
                            x       y       z     vdW  Elec       q    Type
                         _______ _______ _______ _____ _____    ______ ____

>  <TORSDO>
F 3

$$$$
=
 OpenBabel10262421103D

 32 37  0  0  0  0  0  0  0  0999 V2000
  185.8420  178.4900  139.5570 C   0  0  0  0  0  0  0  0  0  0  0  0
  186.8640  178.2420  141.7510 N   0  0  0  0  0  0  0  0  0  0  0  0
  185.9710  178.4480  138.0840 C   0  0  0  0  0  3  0  0  0  0  0  0
  186.9830  178.2530  140.3310 C   0  0  0  0  0  0  0  0  0  0  0  0
  188.0120  177.9930  142.5660 C   0  0  0  0  0  0  0  0  0  0  0  0
  184.2890  178.6280  145.8400 C   0  0  0  0  0  3  0  0  0  0  0  0
  185.5980  178.4690  142.3630 C   0  0  0  0  0  0  0  0  0  0  0  0
  186.6670  178.1650  145.8920 C   0  0  0  0  0  3  0  0  0  0  0  0
  186.7170  178.1930  144.4950 C   0  0  0  0  0  0  0  0  0  0  0  0
  188.2390  178.0130  139.7620 C   0  0  0  0  0  0  0  0  0  0  0  0
  187.8840  177.9810  143.8880 O   0  0  0  0  0  0  0  0  0  0  0  0
  189.3120  177.7830  140.5700 N   0  0  0  0  0  0  0  0  0  0  0  0
  188.4290  178.0240  138.2670 C   0  0  0  0  0  2  0  0  0  0  0  0
  184.5000  178.7040  141.5330 C   0  0  0  0  0  3  0  0  0  0  0  0
  184.6300  178.7190  140.1710 N   0  0  0  0  0  0  0  0  0  0  0  0
  185.5270  178.4440  143.7600 C   0  0  0  0  0  0  0  0  0  0  0  0
  189.2390  177.7640  141.9340 C   0  0  0  0  0  0  0  0  0  0  0  0
  187.1490  178.2310  137.4940 C   0  0  0  0  0  3  0  0  0  0  0  0
  185.4590  178.3810  146.5630 C   0  0  0  0  0  3  0  0  0  0  0  0
  184.3210  178.6600  144.4430 C   0  0  0  0  0  3  0  0  0  0  0  0
  181.4930  178.1850  138.1880 C   0  0  0  0  0  0  0  0  0  0  0  0
  180.7140  177.1700  137.7390 F   0  0  0  0  0  0  0  0  0  0  0  0
  183.4430  178.9740  139.4040 C   0  0  0  0  0  0  0  0  0  0  0  0
  181.1430  179.5040  137.8930 C   0  0  0  0  0  3  0  0  0  0  0  0
  183.0870  180.2940  139.0930 C   0  0  0  0  0  3  0  0  0  0  0  0
  182.6440  177.9150  138.9370 C   0  0  0  0  0  0  0  0  0  0  0  0
  182.9960  176.5960  139.2050 O   0  0  0  0  0  1  0  0  0  0  0  0
  181.9410  180.5680  138.3430 C   0  0  0  0  0  0  0  0  0  0  0  0
  180.6090  182.2610  137.1280 C   0  0  0  0  0  1  0  0  0  0  0  0
  181.6180  181.8980  138.0590 O   0  0  0  0  0  0  0  0  0  0  0  0
  190.4450  177.5060  142.7280 C   0  0  0  0  0  3  0  0  0  0  0  0
  191.5840  177.5030  142.1910 O   0  0  0  0  0  0  0  0  0  0  0  0
  1 15  1  0  0  0  0
  1  4  2  0  0  0  0
  2  7  1  0  0  0  0
  2  5  1  0  0  0  0
  3  1  1  0  0  0  0
  4  2  1  0  0  0  0
  5 11  1  0  0  0  0
  6 19  1  0  0  0  0
  7 16  1  0  0  0  0
  8 19  2  0  0  0  0
  9  8  1  0  0  0  0
 10  4  1  0  0  0  0
 10 12  2  0  0  0  0
 11  9  1  0  0  0  0
 12 17  1  0  0  0  0
 13 10  1  0  0  0  0
 14  7  2  0  0  0  0
 15 14  1  0  0  0  0
 16 20  1  0  0  0  0
 16  9  2  0  0  0  0
 17  5  2  0  0  0  0
 17 31  1  0  0  0  0
 18  3  2  0  0  0  0
 18 13  1  0  0  0  0
 20  6  2  0  0  0  0
 21 26  1  0  0  0  0
 22 21  1  0  0  0  0
 23 15  1  0  0  0  0
 24 21  2  0  0  0  0
 24 28  1  0  0  0  0
 25 23  1  0  0  0  0
 26 27  1  0  0  0  0
 26 23  2  0  0  0  0
 28 25  2  0  0  0  0
 29 30  1  0  0  0  0
 30 28  1  0  0  0  0
 32 31  2  0  0  0  0
M  END
>  <MODEL>
5

>  <REMARK>
 VINA RESULT:     -10.4      3.501      6.262
  Name = 
  3 active torsions:
  status: ('A' for Active; 'I' for Inactive)
    1  A    between atoms: C_13  and  CA_29
    2  A    between atoms: O_15  and  C_26
    3  A    between atoms: C_16  and  N_27
                            x       y       z     vdW  Elec       q    Type
                         _______ _______ _______ _____ _____    ______ ____

>  <TORSDO>
F 3

$$$$
=
 OpenBabel10262421103D

 32 37  0  0  1  0  0  0  0  0999 V2000
  185.2630  178.3490  143.7300 C   0  0  0  0  0  0  0  0  0  0  0  0
  187.6410  177.8370  143.6620 N   0  0  0  0  0  0  0  0  0  0  0  0
  184.0510  178.6490  144.5220 C   0  0  0  0  0  3  0  0  0  0  0  0
  186.4550  178.0800  144.4120 C   0  0  1  0  0  3  0  0  0  0  0  0
  188.8750  177.5700  144.3330 C   0  0  0  0  0  0  0  0  0  0  0  0
  190.0530  177.4000  139.4800 C   0  0  0  0  0  3  0  0  0  0  0  0
  187.6050  177.8710  142.2380 C   0  0  0  0  0  0  0  0  0  0  0  0
  191.1740  177.1280  141.6110 C   0  0  0  0  0  3  0  0  0  0  0  0
  189.9750  177.3700  142.2870 C   0  0  0  0  0  0  0  0  0  0  0  0
  186.5280  178.0530  145.8100 C   0  0  0  0  0  0  0  0  0  0  0  0
  189.9720  177.3510  143.6200 O   0  0  0  0  0  0  0  0  0  0  0  0
  187.7210  177.7910  146.4170 N   0  0  0  0  0  0  0  0  0  0  0  0
  185.3050  178.2910  146.6570 C   0  0  0  0  0  3  0  0  0  0  0  0
  186.3820  178.1400  141.6190 C   0  0  0  0  0  3  0  0  0  0  0  0
  185.2490  178.3640  142.3520 N   0  0  0  0  0  0  0  0  0  0  0  0
  188.7940  177.6320  141.5430 C   0  0  0  0  0  0  0  0  0  0  0  0
  188.8790  177.5540  145.7330 C   0  0  0  0  0  0  0  0  0  0  0  0
  184.0690  178.6280  145.8580 C   0  0  0  0  0  3  0  0  0  0  0  0
  191.2150  177.1430  140.2130 C   0  0  0  0  0  3  0  0  0  0  0  0
  188.8470  177.6440  140.1400 C   0  0  0  0  0  3  0  0  0  0  0  0
  182.8940  179.3780  139.6160 C   0  0  0  0  0  0  0  0  0  0  0  0
  182.9270  179.8530  138.3460 F   0  0  0  0  0  0  0  0  0  0  0  0
  184.0400  178.6280  141.6230 C   0  0  0  0  0  0  0  0  0  0  0  0
  181.6630  179.1500  140.2340 C   0  0  0  0  0  3  0  0  0  0  0  0
  182.7980  178.4120  142.2360 C   0  0  0  0  0  3  0  0  0  0  0  0
  184.0840  179.1250  140.3070 C   0  0  0  0  0  0  0  0  0  0  0  0
  185.3050  179.3780  139.6910 O   0  0  0  0  0  1  0  0  0  0  0  0
  181.6080  178.6670  141.5510 C   0  0  0  0  0  0  0  0  0  0  0  0
  180.2130  178.6280  143.5930 C   0  0  0  0  0  1  0  0  0  0  0  0
  180.3910  178.4340  142.1970 O   0  0  0  0  0  0  0  0  0  0  0  0
  190.1190  177.2810  146.4660 C   0  0  0  0  0  3  0  0  0  0  0  0
  190.1130  177.1430  147.7180 O   0  0  0  0  0  0  0  0  0  0  0  0
  1  3  2  0  0  0  0
  2  5  1  0  0  0  0
  2  4  1  0  0  0  0
  3 18  1  0  0  0  0
  4  1  1  1  0  0  0
  4 10  1  0  0  0  0
  5 17  2  0  0  0  0
  6 20  2  0  0  0  0
  6 19  1  0  0  0  0
  7  2  1  0  0  0  0
  8  9  1  0  0  0  0
  9 11  1  0  0  0  0
 10 12  2  0  0  0  0
 10 13  1  0  0  0  0
 11  5  1  0  0  0  0
 14  7  2  0  0  0  0
 14 15  1  0  0  0  0
 15  1  1  0  0  0  0
 16  7  1  0  0  0  0
 16  9  2  0  0  0  0
 17 12  1  0  0  0  0
 17 31  1  0  0  0  0
 18 13  2  0  0  0  0
 19  8  2  0  0  0  0
 20 16  1  0  0  0  0
 21 24  2  0  0  0  0
 21 26  1  0  0  0  0
 22 21  1  0  0  0  0
 23 25  1  0  0  0  0
 23 15  1  0  0  0  0
 24 28  1  0  0  0  0
 26 23  2  0  0  0  0
 27 26  1  0  0  0  0
 28 30  1  0  0  0  0
 28 25  2  0  0  0  0
 30 29  1  0  0  0  0
 31 32  2  0  0  0  0
M  END
>  <MODEL>
6

>  <REMARK>
 VINA RESULT:     -10.4      2.401      6.288
  Name = 
  3 active torsions:
  status: ('A' for Active; 'I' for Inactive)
    1  A    between atoms: C_13  and  CA_29
    2  A    between atoms: O_15  and  C_26
    3  A    between atoms: C_16  and  N_27
                            x       y       z     vdW  Elec       q    Type
                         _______ _______ _______ _____ _____    ______ ____

>  <TORSDO>
F 3

$$$$
=
 OpenBabel10262421103D

 32 37  0  0  0  0  0  0  0  0999 V2000
  185.7830  178.3050  139.5950 C   0  0  0  0  0  0  0  0  0  0  0  0
  186.9120  178.1710  141.7470 N   0  0  0  0  0  0  0  0  0  0  0  0
  185.8510  178.2310  138.1190 C   0  0  0  0  0  3  0  0  0  0  0  0
  186.9680  178.1490  140.3230 C   0  0  0  0  0  0  0  0  0  0  0  0
  188.1050  178.0040  142.5160 C   0  0  0  0  0  0  0  0  0  0  0  0
  184.4990  178.5320  145.9350 C   0  0  0  0  0  3  0  0  0  0  0  0
  185.6630  178.3480  142.4090 C   0  0  0  0  0  0  0  0  0  0  0  0
  186.8980  178.1960  145.8930 C   0  0  0  0  0  3  0  0  0  0  0  0
  186.8860  178.1880  144.4950 C   0  0  0  0  0  0  0  0  0  0  0  0
  188.2100  177.9610  139.7040 C   0  0  0  0  0  0  0  0  0  0  0  0
  188.0350  178.0210  143.8410 O   0  0  0  0  0  0  0  0  0  0  0  0
  189.3280  177.8090  140.4690 N   0  0  0  0  0  0  0  0  0  0  0  0
  188.3340  177.9400  138.2030 C   0  0  0  0  0  2  0  0  0  0  0  0
  184.5190  178.5030  141.6230 C   0  0  0  0  0  3  0  0  0  0  0  0
  184.5890  178.4870  140.2570 N   0  0  0  0  0  0  0  0  0  0  0  0
  185.6540  178.3570  143.8070 C   0  0  0  0  0  0  0  0  0  0  0  0
  189.3140  177.8230  141.8350 C   0  0  0  0  0  0  0  0  0  0  0  0
  187.0120  178.0590  137.4830 C   0  0  0  0  0  3  0  0  0  0  0  0
  185.7110  178.3660  146.6110 C   0  0  0  0  0  3  0  0  0  0  0  0
  184.4680  178.5280  144.5390 C   0  0  0  0  0  3  0  0  0  0  0  0
  181.8660  180.0120  138.1780 C   0  0  0  0  0  0  0  0  0  0  0  0
  181.5850  181.1690  137.5310 F   0  0  0  0  0  0  0  0  0  0  0  0
  183.3580  178.6590  139.5370 C   0  0  0  0  0  0  0  0  0  0  0  0
  180.9390  178.9670  138.1560 C   0  0  0  0  0  3  0  0  0  0  0  0
  182.4160  177.6200  139.5150 C   0  0  0  0  0  3  0  0  0  0  0  0
  183.0720  179.8650  138.8710 C   0  0  0  0  0  0  0  0  0  0  0  0
  183.9790  180.9200  138.9070 O   0  0  0  0  0  1  0  0  0  0  0  0
  181.2080  177.7650  138.8280 C   0  0  0  0  0  0  0  0  0  0  0  0
  180.3990  175.6060  139.7220 C   0  0  0  0  0  1  0  0  0  0  0  0
  180.2980  176.7050  138.8270 O   0  0  0  0  0  0  0  0  0  0  0  0
  190.5650  177.6500  142.5810 C   0  0  0  0  0  3  0  0  0  0  0  0
  191.6610  177.5000  141.9790 O   0  0  0  0  0  0  0  0  0  0  0  0
  1 15  1  0  0  0  0
  1  4  2  0  0  0  0
  2  7  1  0  0  0  0
  2  5  1  0  0  0  0
  3  1  1  0  0  0  0
  4  2  1  0  0  0  0
  5 11  1  0  0  0  0
  6 19  1  0  0  0  0
  7 16  1  0  0  0  0
  8 19  2  0  0  0  0
  9  8  1  0  0  0  0
 10  4  1  0  0  0  0
 10 12  2  0  0  0  0
 11  9  1  0  0  0  0
 12 17  1  0  0  0  0
 13 10  1  0  0  0  0
 14  7  2  0  0  0  0
 15 14  1  0  0  0  0
 16  9  2  0  0  0  0
 16 20  1  0  0  0  0
 17  5  2  0  0  0  0
 17 31  1  0  0  0  0
 18  3  2  0  0  0  0
 18 13  1  0  0  0  0
 20  6  2  0  0  0  0
 21 26  1  0  0  0  0
 22 21  1  0  0  0  0
 23 15  1  0  0  0  0
 24 21  2  0  0  0  0
 24 28  1  0  0  0  0
 25 23  1  0  0  0  0
 26 27  1  0  0  0  0
 26 23  2  0  0  0  0
 28 25  2  0  0  0  0
 30 28  1  0  0  0  0
 30 29  1  0  0  0  0
 32 31  2  0  0  0  0
M  END
>  <MODEL>
7

>  <REMARK>
 VINA RESULT:     -10.3      3.326      6.176
  Name = 
  3 active torsions:
  status: ('A' for Active; 'I' for Inactive)
    1  A    between atoms: C_13  and  CA_29
    2  A    between atoms: O_15  and  C_26
    3  A    between atoms: C_16  and  N_27
                            x       y       z     vdW  Elec       q    Type
                         _______ _______ _______ _____ _____    ______ ____

>  <TORSDO>
F 3

$$$$
=
 OpenBabel10262421103D

 32 37  0  0  0  0  0  0  0  0999 V2000
  187.7770  178.0000  141.0720 C   0  0  0  0  0  0  0  0  0  0  0  0
  186.9500  178.0990  143.3590 N   0  0  0  0  0  0  0  0  0  0  0  0
  187.5460  178.2200  139.6280 C   0  0  0  0  0  3  0  0  0  0  0  0
  186.7270  178.2610  141.9610 C   0  0  0  0  0  0  0  0  0  0  0  0
  185.8990  178.3680  144.2890 C   0  0  0  0  0  0  0  0  0  0  0  0
  189.7600  177.0010  147.1520 C   0  0  0  0  0  3  0  0  0  0  0  0
  188.2250  177.6800  143.8350 C   0  0  0  0  0  0  0  0  0  0  0  0
  187.4570  177.6900  147.4530 C   0  0  0  0  0  3  0  0  0  0  0  0
  187.3020  177.8240  146.0710 C   0  0  0  0  0  0  0  0  0  0  0  0
  185.4660  178.6870  141.5270 C   0  0  0  0  0  0  0  0  0  0  0  0
  186.1240  178.2180  145.5890 O   0  0  0  0  0  0  0  0  0  0  0  0
  184.4860  178.9300  142.4430 N   0  0  0  0  0  0  0  0  0  0  0  0
  185.1680  178.8640  140.0610 C   0  0  0  0  0  2  0  0  0  0  0  0
  189.2280  177.4320  142.8950 C   0  0  0  0  0  3  0  0  0  0  0  0
  188.9980  177.5840  141.5550 N   0  0  0  0  0  0  0  0  0  0  0  0
  188.4010  177.5410  145.2150 C   0  0  0  0  0  0  0  0  0  0  0  0
  184.6610  178.7880  143.7900 C   0  0  0  0  0  0  0  0  0  0  0  0
  186.3580  178.6190  139.1650 C   0  0  0  0  0  3  0  0  0  0  0  0
  188.6800  177.2800  147.9930 C   0  0  0  0  0  3  0  0  0  0  0  0
  189.6240  177.1300  145.7680 C   0  0  0  0  0  3  0  0  0  0  0  0
  192.4730  177.2160  140.1950 C   0  0  0  0  0  0  0  0  0  0  0  0
  193.7600  177.3970  140.5830 F   0  0  0  0  0  0  0  0  0  0  0  0
  190.0910  177.3010  140.6670 C   0  0  0  0  0  0  0  0  0  0  0  0
  192.2010  176.7550  138.9050 C   0  0  0  0  0  3  0  0  0  0  0  0
  189.8300  176.8460  139.3670 C   0  0  0  0  0  3  0  0  0  0  0  0
  191.4230  177.4960  141.0760 C   0  0  0  0  0  0  0  0  0  0  0  0
  191.7040  177.9770  142.3510 O   0  0  0  0  0  1  0  0  0  0  0  0
  190.8760  176.5700  138.4820 C   0  0  0  0  0  0  0  0  0  0  0  0
  189.5890  176.7290  136.3760 C   0  0  0  0  0  1  0  0  0  0  0  0
  190.5730  176.1150  137.1960 O   0  0  0  0  0  0  0  0  0  0  0  0
  183.5510  179.0730  144.7060 C   0  0  0  0  0  3  0  0  0  0  0  0
  182.3800  178.6950  144.4390 O   0  0  0  0  0  0  0  0  0  0  0  0
  1 15  1  0  0  0  0
  1  4  2  0  0  0  0
  2  7  1  0  0  0  0
  2  5  1  0  0  0  0
  3  1  1  0  0  0  0
  4  2  1  0  0  0  0
  5 11  1  0  0  0  0
  6 19  1  0  0  0  0
  7 16  1  0  0  0  0
  8 19  2  0  0  0  0
  9  8  1  0  0  0  0
 10  4  1  0  0  0  0
 10 12  2  0  0  0  0
 11  9  1  0  0  0  0
 12 17  1  0  0  0  0
 13 10  1  0  0  0  0
 14  7  2  0  0  0  0
 15 14  1  0  0  0  0
 16 20  1  0  0  0  0
 16  9  2  0  0  0  0
 17  5  2  0  0  0  0
 17 31  1  0  0  0  0
 18  3  2  0  0  0  0
 18 13  1  0  0  0  0
 20  6  2  0  0  0  0
 21 22  1  0  0  0  0
 21 26  1  0  0  0  0
 23 26  2  0  0  0  0
 23 15  1  0  0  0  0
 24 21  2  0  0  0  0
 25 23  1  0  0  0  0
 26 27  1  0  0  0  0
 28 24  1  0  0  0  0
 28 25  2  0  0  0  0
 29 30  1  0  0  0  0
 30 28  1  0  0  0  0
 32 31  2  0  0  0  0
M  END
>  <MODEL>
8

>  <REMARK>
 VINA RESULT:     -10.2      2.170      4.631
  Name = 
  3 active torsions:
  status: ('A' for Active; 'I' for Inactive)
    1  A    between atoms: C_13  and  CA_29
    2  A    between atoms: O_15  and  C_26
    3  A    between atoms: C_16  and  N_27
                            x       y       z     vdW  Elec       q    Type
                         _______ _______ _______ _____ _____    ______ ____

>  <TORSDO>
F 3

$$$$
=
 OpenBabel10262421103D

 32 37  0  0  1  0  0  0  0  0999 V2000
  189.5120  177.6990  142.9640 C   0  0  0  0  0  0  0  0  0  0  0  0
  187.6370  178.0210  144.4810 N   0  0  0  0  0  0  0  0  0  0  0  0
  190.9520  177.4270  142.7650 C   0  0  0  0  0  3  0  0  0  0  0  0
  189.0300  177.8060  144.2740 C   0  0  1  0  0  3  0  0  0  0  0  0
  187.1160  178.1230  145.8090 C   0  0  0  0  0  0  0  0  0  0  0  0
  183.1090  178.6460  142.8680 C   0  0  0  0  0  3  0  0  0  0  0  0
  186.7560  178.1220  143.3670 C   0  0  0  0  0  0  0  0  0  0  0  0
  183.6060  178.6280  145.2390 C   0  0  0  0  0  3  0  0  0  0  0  0
  184.9620  178.4220  144.9670 C   0  0  0  0  0  0  0  0  0  0  0  0
  189.8660  177.6980  145.3920 C   0  0  0  0  0  0  0  0  0  0  0  0
  185.8150  178.3180  145.9860 O   0  0  0  0  0  0  0  0  0  0  0  0
  189.3350  177.8050  146.6420 N   0  0  0  0  0  0  0  0  0  0  0  0
  191.3490  177.4830  145.2340 C   0  0  0  0  0  3  0  0  0  0  0  0
  187.3020  178.0120  142.0860 C   0  0  0  0  0  3  0  0  0  0  0  0
  188.6430  177.8130  141.9010 N   0  0  0  0  0  0  0  0  0  0  0  0
  185.3960  178.3270  143.6180 C   0  0  0  0  0  0  0  0  0  0  0  0
  188.0060  178.0100  146.8820 C   0  0  0  0  0  0  0  0  0  0  0  0
  191.7910  177.3220  143.8000 C   0  0  0  0  0  3  0  0  0  0  0  0
  182.6830  178.7390  144.1960 C   0  0  0  0  0  3  0  0  0  0  0  0
  184.4600  178.4410  142.5780 C   0  0  0  0  0  3  0  0  0  0  0  0
  190.4870  176.6590  138.8460 C   0  0  0  0  0  0  0  0  0  0  0  0
  191.3850  175.7130  138.4770 F   0  0  0  0  0  0  0  0  0  0  0  0
  189.1090  177.7170  140.5460 C   0  0  0  0  0  0  0  0  0  0  0  0
  190.0120  177.5670  137.8970 C   0  0  0  0  0  3  0  0  0  0  0  0
  188.6460  178.6270  139.5860 C   0  0  0  0  0  3  0  0  0  0  0  0
  190.0440  176.7340  140.1720 C   0  0  0  0  0  0  0  0  0  0  0  0
  190.5420  175.8410  141.1150 O   0  0  0  0  0  1  0  0  0  0  0  0
  189.0890  178.5590  138.2620 C   0  0  0  0  0  0  0  0  0  0  0  0
  187.5640  179.1700  136.4140 C   0  0  0  0  0  1  0  0  0  0  0  0
  188.5990  179.4830  137.3350 O   0  0  0  0  0  0  0  0  0  0  0  0
  187.5190  178.1110  148.2620 C   0  0  0  0  0  3  0  0  0  0  0  0
  188.3220  178.2530  149.2220 O   0  0  0  0  0  0  0  0  0  0  0  0
  2  5  1  0  0  0  0
  3  1  2  0  0  0  0
  3 18  1  0  0  0  0
  4  1  1  1  0  0  0
  4  2  1  0  0  0  0
  4 10  1  0  0  0  0
  5 11  1  0  0  0  0
  5 17  2  0  0  0  0
  6 19  1  0  0  0  0
  7 16  1  0  0  0  0
  7  2  1  0  0  0  0
  9  8  1  0  0  0  0
  9 11  1  0  0  0  0
 10 12  2  0  0  0  0
 12 17  1  0  0  0  0
 13 10  1  0  0  0  0
 14  7  2  0  0  0  0
 15 14  1  0  0  0  0
 15  1  1  0  0  0  0
 16  9  2  0  0  0  0
 17 31  1  0  0  0  0
 18 13  2  0  0  0  0
 19  8  2  0  0  0  0
 20  6  2  0  0  0  0
 20 16  1  0  0  0  0
 21 26  1  0  0  0  0
 22 21  1  0  0  0  0
 23 15  1  0  0  0  0
 24 28  1  0  0  0  0
 24 21  2  0  0  0  0
 25 23  1  0  0  0  0
 26 23  2  0  0  0  0
 26 27  1  0  0  0  0
 28 25  2  0  0  0  0
 29 30  1  0  0  0  0
 30 28  1  0  0  0  0
 31 32  2  0  0  0  0
M  END
>  <MODEL>
9

>  <REMARK>
 VINA RESULT:     -10.1      1.262      2.023
  Name = 
  3 active torsions:
  status: ('A' for Active; 'I' for Inactive)
    1  A    between atoms: C_13  and  CA_29
    2  A    between atoms: O_15  and  C_26
    3  A    between atoms: C_16  and  N_27
                            x       y       z     vdW  Elec       q    Type
                         _______ _______ _______ _____ _____    ______ ____

>  <TORSDO>
F 3

$$$$
