=
 OpenBabel10262419423D

 31 32  0  0  1  0  0  0  0  0999 V2000
  187.4200  177.7910  147.4150 C   0  0  0  0  0  0  0  0  0  0  0  0
  186.6690  176.9790  143.7950 C   0  0  0  0  0  2  0  0  0  0  0  0
  186.6260  177.6730  145.1280 C   0  0  0  0  0  0  0  0  0  0  0  0
  186.5120  178.8200  147.6790 C   0  0  0  0  0  3  0  0  0  0  0  0
  184.7120  178.3470  143.1040 C   0  0  2  0  0  3  0  0  0  0  0  0
  188.2480  177.3510  148.3920 F   0  0  0  0  0  0  0  0  0  0  0  0
  184.7860  179.2520  144.3370 C   0  0  0  0  0  2  0  0  0  0  0  0
  186.0890  177.8390  142.6690 C   0  0  1  0  0  3  0  0  0  0  0  0
  187.4730  177.2160  146.1420 C   0  0  0  0  0  3  0  0  0  0  0  0
  185.6890  178.6940  145.4020 C   0  0  0  0  0  0  0  0  0  0  0  0
  185.6520  179.2710  146.6740 C   0  0  0  0  0  3  0  0  0  0  0  0
  186.9560  178.9010  142.3880 O   0  0  0  0  0  0  0  0  0  0  0  0
  187.6550  178.5060  141.2430 C   0  0  0  0  0  2  0  0  0  0  0  0
  189.1510  178.5640  141.4990 C   0  0  0  0  0  2  0  0  0  0  0  0
  189.6530  177.2950  142.1850 C   0  0  0  0  0  2  0  0  0  0  0  0
  191.9870  177.2920  142.7360 O   0  0  0  0  0  1  0  0  0  0  0  0
  190.6410  178.9850  143.7460 C   0  0  0  0  0  1  0  0  0  0  0  0
  190.7150  177.5450  143.2570 C   0  0  1  0  0  0  0  0  0  0  0  0
  190.4360  176.5910  144.4180 C   0  0  0  0  0  2  0  0  0  0  0  0
  191.5890  176.5350  145.4120 C   0  0  0  0  0  1  0  0  0  0  0  0
  183.8770  178.9330  141.9620 C   0  0  0  0  0  2  0  0  0  0  0  0
  183.6540  177.9680  140.7990 C   0  0  2  0  0  3  0  0  0  0  0  0
  184.3430  178.4920  139.5430 C   0  0  0  0  0  2  0  0  0  0  0  0
  184.6880  179.8390  139.6970 O   0  0  0  0  0  1  0  0  0  0  0  0
  182.1660  177.7550  140.5510 C   0  0  0  0  0  2  0  0  0  0  0  0
  181.3640  178.9620  141.0120 C   0  0  0  0  0  2  0  0  0  0  0  0
  180.0060  180.7930  142.7240 O   0  0  0  0  0  0  0  0  0  0  0  0
  180.5490  178.5950  142.1580 N   0  0  0  0  0  2  0  0  0  0  0  0
  179.9110  179.5650  142.9850 C   0  0  0  0  0  0  0  0  0  0  0  0
  179.4780  177.7940  144.4770 O   0  0  0  0  0  1  0  0  0  0  0  0
  179.1530  179.1180  144.1830 C   0  0  0  0  0  2  0  0  0  0  0  0
  1  4  1  0  0  0  0
  1  6  1  0  0  0  0
  2  3  1  0  0  0  0
  3 10  2  0  0  0  0
  3  9  1  0  0  0  0
  5 21  1  6  0  0  0
  5  7  1  0  0  0  0
  7 10  1  0  0  0  0
  8 12  1  1  0  0  0
  8  5  1  0  0  0  0
  8  2  1  0  0  0  0
  9  1  2  0  0  0  0
 10 11  1  0  0  0  0
 11  4  2  0  0  0  0
 13 14  1  0  0  0  0
 13 12  1  0  0  0  0
 14 15  1  0  0  0  0
 15 18  1  0  0  0  0
 16 18  1  0  0  0  0
 18 17  1  1  0  0  0
 18 19  1  0  0  0  0
 19 20  1  0  0  0  0
 22 23  1  6  0  0  0
 22 21  1  0  0  0  0
 23 24  1  0  0  0  0
 25 22  1  0  0  0  0
 25 26  1  0  0  0  0
 26 28  1  0  0  0  0
 27 29  2  0  0  0  0
 28 29  1  0  0  0  0
 29 31  1  0  0  0  0
 31 30  1  0  0  0  0
M  END
>  <MODEL>
1

>  <REMARK>
 VINA RESULT:      -7.5      0.000      0.000
  Name = 
  13 active torsions:
  status: ('A' for Active; 'I' for Inactive)
    1  A    between atoms: C_3  and  C_9
    2  A    between atoms: O_5  and  C_14
    3  A    between atoms: O_5  and  C_21
    4  A    between atoms: C_6  and  C_7
    5  A    between atoms: C_6  and  N_19
    6  A    between atoms: C_7  and  C_9
    7  A    between atoms: C_9  and  C_23
    8  A    between atoms: C_10  and  C_14
    9  A    between atoms: C_10  and  C_18
   10  A    between atoms: C_11  and  C_24
   11  A    between atoms: C_15  and  C_23
   12  A    between atoms: C_17  and  C_31
   13  A    between atoms: C_18  and  C_31
                            x       y       z     vdW  Elec       q    Type
                         _______ _______ _______ _____ _____    ______ ____

>  <TORSDO>
F 13

$$$$
=
 OpenBabel10262419423D

 31 32  0  0  1  0  0  0  0  0999 V2000
  184.9370  178.4880  144.4410 C   0  0  0  0  0  0  0  0  0  0  0  0
  188.0670  176.6300  143.4040 C   0  0  0  0  0  2  0  0  0  0  0  0
  186.9410  177.6250  143.3860 C   0  0  0  0  0  0  0  0  0  0  0  0
  184.7390  179.3520  143.3620 C   0  0  0  0  0  3  0  0  0  0  0  0
  188.6530  177.3610  141.1020 C   0  0  2  0  0  3  0  0  0  0  0  0
  184.0660  178.4880  145.4780 F   0  0  0  0  0  0  0  0  0  0  0  0
  187.6910  178.5520  141.1310 C   0  0  0  0  0  2  0  0  0  0  0  0
  189.2220  177.0360  142.4850 C   0  0  1  0  0  3  0  0  0  0  0  0
  186.0350  177.6230  144.4500 C   0  0  0  0  0  3  0  0  0  0  0  0
  186.7250  178.4790  142.2810 C   0  0  0  0  0  0  0  0  0  0  0  0
  185.6320  179.3490  142.2870 C   0  0  0  0  0  3  0  0  0  0  0  0
  189.8960  178.1360  143.0280 O   0  0  0  0  0  0  0  0  0  0  0  0
  191.1800  177.6660  143.3230 C   0  0  0  0  0  2  0  0  0  0  0  0
  191.2340  177.1600  144.7540 C   0  0  0  0  0  2  0  0  0  0  0  0
  190.3510  177.9960  145.6790 C   0  0  0  0  0  2  0  0  0  0  0  0
  188.8090  176.4630  146.6890 O   0  0  0  0  0  1  0  0  0  0  0  0
  191.0600  176.4060  147.4780 C   0  0  0  0  0  1  0  0  0  0  0  0
  189.9200  177.2670  146.9530 C   0  0  1  0  0  0  0  0  0  0  0  0
  189.5520  178.3270  147.9910 C   0  0  0  0  0  2  0  0  0  0  0  0
  188.2640  177.9900  148.7320 C   0  0  0  0  0  1  0  0  0  0  0  0
  189.7120  177.4540  140.0000 C   0  0  0  0  0  2  0  0  0  0  0  0
  189.1650  177.2170  138.5930 C   0  0  2  0  0  3  0  0  0  0  0  0
  190.0340  176.2020  137.8560 C   0  0  0  0  0  2  0  0  0  0  0  0
  190.7760  175.4400  138.7630 O   0  0  0  0  0  1  0  0  0  0  0  0
  189.0840  178.5250  137.8170 C   0  0  0  0  0  2  0  0  0  0  0  0
  187.9030  178.5130  136.8600 C   0  0  0  0  0  2  0  0  0  0  0  0
  185.7020  176.8720  137.6290 O   0  0  0  0  0  0  0  0  0  0  0  0
  186.7110  178.9750  137.5520 N   0  0  0  0  0  2  0  0  0  0  0  0
  185.6370  178.1020  137.8920 C   0  0  0  0  0  0  0  0  0  0  0  0
  184.7200  179.8820  139.1310 O   0  0  0  0  0  1  0  0  0  0  0  0
  184.4180  178.6590  138.5340 C   0  0  0  0  0  2  0  0  0  0  0  0
  1  9  1  0  0  0  0
  1  6  1  0  0  0  0
  3  2  1  0  0  0  0
  3  9  2  0  0  0  0
  4  1  2  0  0  0  0
  5 21  1  6  0  0  0
  5  7  1  0  0  0  0
  5  8  1  0  0  0  0
  7 10  1  0  0  0  0
  8 12  1  1  0  0  0
  8  2  1  0  0  0  0
 10 11  2  0  0  0  0
 10  3  1  0  0  0  0
 11  4  1  0  0  0  0
 12 13  1  0  0  0  0
 13 14  1  0  0  0  0
 14 15  1  0  0  0  0
 15 18  1  0  0  0  0
 16 18  1  0  0  0  0
 18 17  1  1  0  0  0
 18 19  1  0  0  0  0
 19 20  1  0  0  0  0
 22 25  1  6  0  0  0
 22 21  1  0  0  0  0
 23 22  1  0  0  0  0
 23 24  1  0  0  0  0
 26 28  1  0  0  0  0
 26 25  1  0  0  0  0
 27 29  2  0  0  0  0
 28 29  1  0  0  0  0
 29 31  1  0  0  0  0
 31 30  1  0  0  0  0
M  END
>  <MODEL>
2

>  <REMARK>
 VINA RESULT:      -7.5      3.213      5.445
  Name = 
  13 active torsions:
  status: ('A' for Active; 'I' for Inactive)
    1  A    between atoms: C_3  and  C_9
    2  A    between atoms: O_5  and  C_14
    3  A    between atoms: O_5  and  C_21
    4  A    between atoms: C_6  and  C_7
    5  A    between atoms: C_6  and  N_19
    6  A    between atoms: C_7  and  C_9
    7  A    between atoms: C_9  and  C_23
    8  A    between atoms: C_10  and  C_14
    9  A    between atoms: C_10  and  C_18
   10  A    between atoms: C_11  and  C_24
   11  A    between atoms: C_15  and  C_23
   12  A    between atoms: C_17  and  C_31
   13  A    between atoms: C_18  and  C_31
                            x       y       z     vdW  Elec       q    Type
                         _______ _______ _______ _____ _____    ______ ____

>  <TORSDO>
F 13

$$$$
=
 OpenBabel10262419423D

 31 32  0  0  1  0  0  0  0  0999 V2000
  187.4480  177.8830  147.1860 C   0  0  0  0  0  0  0  0  0  0  0  0
  186.5270  177.0570  143.6080 C   0  0  0  0  0  2  0  0  0  0  0  0
  186.5070  177.7190  144.9580 C   0  0  0  0  0  0  0  0  0  0  0  0
  186.4570  178.8010  147.5390 C   0  0  0  0  0  3  0  0  0  0  0  0
  184.3890  178.2140  143.0920 C   0  0  2  0  0  3  0  0  0  0  0  0
  188.3880  177.5190  148.0900 F   0  0  0  0  0  0  0  0  0  0  0  0
  184.4540  179.1000  144.3390 C   0  0  0  0  0  2  0  0  0  0  0  0
  185.7780  177.8680  142.5490 C   0  0  1  0  0  3  0  0  0  0  0  0
  187.4700  177.3400  145.8980 C   0  0  0  0  0  3  0  0  0  0  0  0
  185.4880  178.6260  145.3230 C   0  0  0  0  0  0  0  0  0  0  0  0
  185.4820  179.1730  146.6090 C   0  0  0  0  0  3  0  0  0  0  0  0
  186.5020  179.0230  142.2340 O   0  0  0  0  0  0  0  0  0  0  0  0
  187.2590  178.6830  141.1080 C   0  0  0  0  0  2  0  0  0  0  0  0
  188.7360  178.6570  141.4610 C   0  0  0  0  0  2  0  0  0  0  0  0
  189.2870  177.2320  141.4700 C   0  0  0  0  0  2  0  0  0  0  0  0
  190.4860  175.7070  142.8800 O   0  0  0  0  0  1  0  0  0  0  0  0
  191.7770  177.3390  141.7100 C   0  0  0  0  0  1  0  0  0  0  0  0
  190.4670  177.0270  142.4220 C   0  0  1  0  0  0  0  0  0  0  0  0
  190.2810  177.9780  143.6030 C   0  0  0  0  0  2  0  0  0  0  0  0
  190.9950  177.4920  144.8580 C   0  0  0  0  0  1  0  0  0  0  0  0
  183.4140  178.7250  142.0270 C   0  0  0  0  0  2  0  0  0  0  0  0
  183.7340  178.2440  140.6130 C   0  0  2  0  0  3  0  0  0  0  0  0
  183.4820  179.3650  139.6080 C   0  0  0  0  0  2  0  0  0  0  0  0
  184.6900  179.9260  139.1840 O   0  0  0  0  0  1  0  0  0  0  0  0
  182.9140  177.0100  140.2630 C   0  0  0  0  0  2  0  0  0  0  0  0
  182.8990  176.7790  138.7600 C   0  0  0  0  0  2  0  0  0  0  0  0
  184.9980  175.7680  137.1170 O   0  0  0  0  0  0  0  0  0  0  0  0
  183.1460  175.3740  138.4820 N   0  0  0  0  0  2  0  0  0  0  0  0
  184.2050  174.9370  137.6340 C   0  0  0  0  0  0  0  0  0  0  0  0
  185.2800  172.9220  138.2090 O   0  0  0  0  0  1  0  0  0  0  0  0
  184.3520  173.4880  137.3360 C   0  0  0  0  0  2  0  0  0  0  0  0
  1  4  1  0  0  0  0
  1  6  1  0  0  0  0
  2  3  1  0  0  0  0
  3 10  2  0  0  0  0
  3  9  1  0  0  0  0
  5 21  1  6  0  0  0
  5  7  1  0  0  0  0
  7 10  1  0  0  0  0
  8 12  1  1  0  0  0
  8  5  1  0  0  0  0
  8  2  1  0  0  0  0
  9  1  2  0  0  0  0
 10 11  1  0  0  0  0
 11  4  2  0  0  0  0
 13 14  1  0  0  0  0
 13 12  1  0  0  0  0
 14 15  1  0  0  0  0
 15 18  1  0  0  0  0
 18 17  1  6  0  0  0
 18 16  1  0  0  0  0
 18 19  1  0  0  0  0
 19 20  1  0  0  0  0
 22 23  1  6  0  0  0
 22 21  1  0  0  0  0
 24 23  1  0  0  0  0
 25 22  1  0  0  0  0
 26 25  1  0  0  0  0
 27 29  2  0  0  0  0
 28 26  1  0  0  0  0
 29 28  1  0  0  0  0
 31 29  1  0  0  0  0
 31 30  1  0  0  0  0
M  END
>  <MODEL>
3

>  <REMARK>
 VINA RESULT:      -7.2      2.401      3.676
  Name = 
  13 active torsions:
  status: ('A' for Active; 'I' for Inactive)
    1  A    between atoms: C_3  and  C_9
    2  A    between atoms: O_5  and  C_14
    3  A    between atoms: O_5  and  C_21
    4  A    between atoms: C_6  and  C_7
    5  A    between atoms: C_6  and  N_19
    6  A    between atoms: C_7  and  C_9
    7  A    between atoms: C_9  and  C_23
    8  A    between atoms: C_10  and  C_14
    9  A    between atoms: C_10  and  C_18
   10  A    between atoms: C_11  and  C_24
   11  A    between atoms: C_15  and  C_23
   12  A    between atoms: C_17  and  C_31
   13  A    between atoms: C_18  and  C_31
                            x       y       z     vdW  Elec       q    Type
                         _______ _______ _______ _____ _____    ______ ____

>  <TORSDO>
F 13

$$$$
=
 OpenBabel10262419423D

 31 32  0  0  1  0  0  0  0  0999 V2000
  187.5750  177.7010  147.4580 C   0  0  0  0  0  0  0  0  0  0  0  0
  186.7010  176.8870  143.8660 C   0  0  0  0  0  2  0  0  0  0  0  0
  186.7230  177.5960  145.1910 C   0  0  0  0  0  0  0  0  0  0  0  0
  186.7220  178.7730  147.7310 C   0  0  0  0  0  3  0  0  0  0  0  0
  184.7940  178.3370  143.2050 C   0  0  2  0  0  3  0  0  0  0  0  0
  188.4040  177.2320  148.4200 F   0  0  0  0  0  0  0  0  0  0  0  0
  184.9380  179.2500  144.4250 C   0  0  0  0  0  2  0  0  0  0  0  0
  186.1360  177.7610  142.7440 C   0  0  1  0  0  3  0  0  0  0  0  0
  187.5710  177.1110  146.1910 C   0  0  0  0  0  3  0  0  0  0  0  0
  185.8400  178.6620  145.4750 C   0  0  0  0  0  0  0  0  0  0  0  0
  185.8600  179.2530  146.7410 C   0  0  0  0  0  3  0  0  0  0  0  0
  187.0440  178.7790  142.4310 O   0  0  0  0  0  0  0  0  0  0  0  0
  187.6270  178.3860  141.2210 C   0  0  0  0  0  2  0  0  0  0  0  0
  189.1270  178.2220  141.3950 C   0  0  0  0  0  2  0  0  0  0  0  0
  189.5400  178.3430  142.8610 C   0  0  0  0  0  2  0  0  0  0  0  0
  190.1570  176.1410  143.5820 O   0  0  0  0  0  1  0  0  0  0  0  0
  191.6830  177.2720  142.1360 C   0  0  0  0  0  1  0  0  0  0  0  0
  190.6740  177.4010  143.2690 C   0  0  1  0  0  0  0  0  0  0  0  0
  191.3530  177.9990  144.4990 C   0  0  0  0  0  2  0  0  0  0  0  0
  191.1640  177.1380  145.7420 C   0  0  0  0  0  1  0  0  0  0  0  0
  183.9600  178.9490  142.0760 C   0  0  0  0  0  2  0  0  0  0  0  0
  183.6550  177.9800  140.9350 C   0  0  2  0  0  3  0  0  0  0  0  0
  184.1600  178.5500  139.6130 C   0  0  0  0  0  2  0  0  0  0  0  0
  184.7490  179.8020  139.8110 O   0  0  0  0  0  1  0  0  0  0  0  0
  182.1620  177.6850  140.8610 C   0  0  0  0  0  2  0  0  0  0  0  0
  181.3520  178.8770  141.3470 C   0  0  0  0  0  2  0  0  0  0  0  0
  179.6980  181.1940  141.4910 O   0  0  0  0  0  0  0  0  0  0  0  0
  180.6980  179.5140  140.2160 N   0  0  0  0  0  2  0  0  0  0  0  0
  179.8660  180.6630  140.3610 C   0  0  0  0  0  0  0  0  0  0  0  0
  179.7360  182.4430  138.8260 O   0  0  0  0  0  1  0  0  0  0  0  0
  179.1710  181.2160  139.1700 C   0  0  0  0  0  2  0  0  0  0  0  0
  1  4  1  0  0  0  0
  1  6  1  0  0  0  0
  2  3  1  0  0  0  0
  3 10  2  0  0  0  0
  3  9  1  0  0  0  0
  5 21  1  6  0  0  0
  5  7  1  0  0  0  0
  7 10  1  0  0  0  0
  8 12  1  1  0  0  0
  8  5  1  0  0  0  0
  8  2  1  0  0  0  0
  9  1  2  0  0  0  0
 10 11  1  0  0  0  0
 11  4  2  0  0  0  0
 13 14  1  0  0  0  0
 13 12  1  0  0  0  0
 14 15  1  0  0  0  0
 15 18  1  0  0  0  0
 18 17  1  6  0  0  0
 18 16  1  0  0  0  0
 18 19  1  0  0  0  0
 19 20  1  0  0  0  0
 22 23  1  6  0  0  0
 22 21  1  0  0  0  0
 23 24  1  0  0  0  0
 25 22  1  0  0  0  0
 25 26  1  0  0  0  0
 28 29  1  0  0  0  0
 28 26  1  0  0  0  0
 29 27  2  0  0  0  0
 30 31  1  0  0  0  0
 31 29  1  0  0  0  0
M  END
>  <MODEL>
4

>  <REMARK>
 VINA RESULT:      -7.0      1.363      1.931
  Name = 
  13 active torsions:
  status: ('A' for Active; 'I' for Inactive)
    1  A    between atoms: C_3  and  C_9
    2  A    between atoms: O_5  and  C_14
    3  A    between atoms: O_5  and  C_21
    4  A    between atoms: C_6  and  C_7
    5  A    between atoms: C_6  and  N_19
    6  A    between atoms: C_7  and  C_9
    7  A    between atoms: C_9  and  C_23
    8  A    between atoms: C_10  and  C_14
    9  A    between atoms: C_10  and  C_18
   10  A    between atoms: C_11  and  C_24
   11  A    between atoms: C_15  and  C_23
   12  A    between atoms: C_17  and  C_31
   13  A    between atoms: C_18  and  C_31
                            x       y       z     vdW  Elec       q    Type
                         _______ _______ _______ _____ _____    ______ ____

>  <TORSDO>
F 13

$$$$
=
 OpenBabel10262419423D

 31 32  0  0  1  0  0  0  0  0999 V2000
  190.9860  177.0090  147.3400 C   0  0  0  0  0  0  0  0  0  0  0  0
  189.3860  176.3590  143.9720 C   0  0  0  0  0  2  0  0  0  0  0  0
  189.5760  176.8650  145.3740 C   0  0  0  0  0  0  0  0  0  0  0  0
  189.9590  177.6550  148.0320 C   0  0  0  0  0  3  0  0  0  0  0  0
  187.0110  177.0760  144.1120 C   0  0  2  0  0  3  0  0  0  0  0  0
  192.1680  176.7670  147.9540 F   0  0  0  0  0  0  0  0  0  0  0  0
  187.2140  177.8290  145.4290 C   0  0  0  0  0  2  0  0  0  0  0  0
  188.2640  177.0900  143.2320 C   0  0  1  0  0  3  0  0  0  0  0  0
  190.7920  176.6110  146.0140 C   0  0  0  0  0  3  0  0  0  0  0  0
  188.5260  177.4940  146.0820 C   0  0  0  0  0  0  0  0  0  0  0  0
  188.7340  177.8980  147.4040 C   0  0  0  0  0  3  0  0  0  0  0  0
  188.6630  178.3990  142.9370 O   0  0  0  0  0  0  0  0  0  0  0  0
  189.3710  178.3010  141.7350 C   0  0  0  0  0  2  0  0  0  0  0  0
  188.4060  178.1380  140.5730 C   0  0  0  0  0  2  0  0  0  0  0  0
  189.1070  177.5820  139.3340 C   0  0  0  0  0  2  0  0  0  0  0  0
  187.0640  178.1650  138.2220 O   0  0  0  0  0  1  0  0  0  0  0  0
  189.0560  179.2250  137.4450 C   0  0  0  0  0  1  0  0  0  0  0  0
  188.4300  177.9590  138.0150 C   0  0  1  0  0  0  0  0  0  0  0  0
  188.6330  176.7990  137.0420 C   0  0  0  0  0  2  0  0  0  0  0  0
  189.7660  175.8740  137.4710 C   0  0  0  0  0  1  0  0  0  0  0  0
  185.7280  177.4690  143.3730 C   0  0  0  0  0  2  0  0  0  0  0  0
  185.2110  178.8620  143.7280 C   0  0  2  0  0  3  0  0  0  0  0  0
  183.8010  178.7670  144.3040 C   0  0  0  0  0  2  0  0  0  0  0  0
  183.8180  178.9910  145.6840 O   0  0  0  0  0  1  0  0  0  0  0  0
  185.2360  179.7740  142.5080 C   0  0  0  0  0  2  0  0  0  0  0  0
  185.2070  178.9600  141.2240 C   0  0  0  0  0  2  0  0  0  0  0  0
  184.5280  180.2700  138.7850 O   0  0  0  0  0  0  0  0  0  0  0  0
  183.8760  179.0160  140.6420 N   0  0  0  0  0  2  0  0  0  0  0  0
  183.6020  179.7060  139.4250 C   0  0  0  0  0  0  0  0  0  0  0  0
  181.9340  181.0790  138.4880 O   0  0  0  0  0  1  0  0  0  0  0  0
  182.2030  179.7840  138.9290 C   0  0  0  0  0  2  0  0  0  0  0  0
  1  6  1  0  0  0  0
  1  4  1  0  0  0  0
  2  3  1  0  0  0  0
  3  9  1  0  0  0  0
  3 10  2  0  0  0  0
  5 21  1  6  0  0  0
  5  7  1  0  0  0  0
  7 10  1  0  0  0  0
  8 12  1  1  0  0  0
  8  2  1  0  0  0  0
  8  5  1  0  0  0  0
  9  1  2  0  0  0  0
 10 11  1  0  0  0  0
 11  4  2  0  0  0  0
 13 12  1  0  0  0  0
 14 13  1  0  0  0  0
 15 14  1  0  0  0  0
 18 17  1  6  0  0  0
 18 16  1  0  0  0  0
 18 15  1  0  0  0  0
 19 20  1  0  0  0  0
 19 18  1  0  0  0  0
 21 22  1  0  0  0  0
 22 25  1  6  0  0  0
 22 23  1  0  0  0  0
 23 24  1  0  0  0  0
 26 25  1  0  0  0  0
 27 29  2  0  0  0  0
 28 26  1  0  0  0  0
 29 28  1  0  0  0  0
 30 31  1  0  0  0  0
 31 29  1  0  0  0  0
M  END
>  <MODEL>
5

>  <REMARK>
 VINA RESULT:      -7.0      2.499      4.599
  Name = 
  13 active torsions:
  status: ('A' for Active; 'I' for Inactive)
    1  A    between atoms: C_3  and  C_9
    2  A    between atoms: O_5  and  C_14
    3  A    between atoms: O_5  and  C_21
    4  A    between atoms: C_6  and  C_7
    5  A    between atoms: C_6  and  N_19
    6  A    between atoms: C_7  and  C_9
    7  A    between atoms: C_9  and  C_23
    8  A    between atoms: C_10  and  C_14
    9  A    between atoms: C_10  and  C_18
   10  A    between atoms: C_11  and  C_24
   11  A    between atoms: C_15  and  C_23
   12  A    between atoms: C_17  and  C_31
   13  A    between atoms: C_18  and  C_31
                            x       y       z     vdW  Elec       q    Type
                         _______ _______ _______ _____ _____    ______ ____

>  <TORSDO>
F 13

$$$$
=
 OpenBabel10262419423D

 31 32  0  0  1  0  0  0  0  0999 V2000
  191.6370  176.6640  146.5130 C   0  0  0  0  0  0  0  0  0  0  0  0
  189.7080  178.5040  143.8250 C   0  0  0  0  0  2  0  0  0  0  0  0
  190.4830  177.4190  144.5200 C   0  0  0  0  0  0  0  0  0  0  0  0
  192.0440  175.5090  145.8420 C   0  0  0  0  0  3  0  0  0  0  0  0
  189.9410  177.2170  141.7120 C   0  0  2  0  0  3  0  0  0  0  0  0
  191.9940  176.8590  147.8050 F   0  0  0  0  0  0  0  0  0  0  0  0
  190.5050  175.9790  142.4150 C   0  0  0  0  0  2  0  0  0  0  0  0
  188.9580  177.9910  142.5940 C   0  0  1  0  0  3  0  0  0  0  0  0
  190.8610  177.6190  145.8510 C   0  0  0  0  0  3  0  0  0  0  0  0
  190.9180  176.2640  143.8320 C   0  0  0  0  0  0  0  0  0  0  0  0
  191.6830  175.3090  144.5070 C   0  0  0  0  0  3  0  0  0  0  0  0
  187.8870  177.1830  142.9930 O   0  0  0  0  0  0  0  0  0  0  0  0
  186.7470  177.9720  142.8090 C   0  0  0  0  0  2  0  0  0  0  0  0
  185.7870  177.7780  143.9700 C   0  0  0  0  0  2  0  0  0  0  0  0
  185.7540  179.0020  144.8840 C   0  0  0  0  0  2  0  0  0  0  0  0
  186.0020  179.8410  147.1160 O   0  0  0  0  0  1  0  0  0  0  0  0
  184.5700  177.9540  146.8250 C   0  0  0  0  0  1  0  0  0  0  0  0
  185.8370  178.6690  146.3740 C   0  0  1  0  0  0  0  0  0  0  0  0
  187.0450  177.7560  146.5790 C   0  0  0  0  0  2  0  0  0  0  0  0
  187.8360  178.1140  147.8310 C   0  0  0  0  0  1  0  0  0  0  0  0
  189.4210  176.9370  140.3000 C   0  0  0  0  0  2  0  0  0  0  0  0
  190.1220  177.7470  139.2100 C   0  0  2  0  0  3  0  0  0  0  0  0
  189.1250  178.6770  138.5240 C   0  0  0  0  0  2  0  0  0  0  0  0
  187.8780  178.6130  139.1550 O   0  0  0  0  0  1  0  0  0  0  0  0
  190.7880  176.8270  138.1960 C   0  0  0  0  0  2  0  0  0  0  0  0
  192.2590  176.6310  138.5290 C   0  0  0  0  0  2  0  0  0  0  0  0
  194.7350  175.2190  138.5230 O   0  0  0  0  0  0  0  0  0  0  0  0
  192.9710  176.1870  137.3420 N   0  0  0  0  0  2  0  0  0  0  0  0
  194.2180  175.5000  137.4100 C   0  0  0  0  0  0  0  0  0  0  0  0
  196.0250  175.9790  135.9780 O   0  0  0  0  0  1  0  0  0  0  0  0
  194.9240  175.1420  136.1520 C   0  0  0  0  0  2  0  0  0  0  0  0
  1  6  1  0  0  0  0
  2  3  1  0  0  0  0
  3  9  2  0  0  0  0
  4  1  2  0  0  0  0
  5 21  1  6  0  0  0
  5  7  1  0  0  0  0
  5  8  1  0  0  0  0
  7 10  1  0  0  0  0
  8 12  1  1  0  0  0
  8  2  1  0  0  0  0
  9  1  1  0  0  0  0
 10 11  2  0  0  0  0
 10  3  1  0  0  0  0
 11  4  1  0  0  0  0
 13 12  1  0  0  0  0
 13 14  1  0  0  0  0
 14 15  1  0  0  0  0
 15 18  1  0  0  0  0
 18 19  1  0  0  0  0
 18 17  1  1  0  0  0
 18 16  1  0  0  0  0
 19 20  1  0  0  0  0
 22 25  1  6  0  0  0
 22 21  1  0  0  0  0
 23 24  1  0  0  0  0
 23 22  1  0  0  0  0
 25 26  1  0  0  0  0
 28 29  1  0  0  0  0
 28 26  1  0  0  0  0
 29 27  2  0  0  0  0
 30 31  1  0  0  0  0
 31 29  1  0  0  0  0
M  END
>  <MODEL>
6

>  <REMARK>
 VINA RESULT:      -6.8      4.143      8.500
  Name = 
  13 active torsions:
  status: ('A' for Active; 'I' for Inactive)
    1  A    between atoms: C_3  and  C_9
    2  A    between atoms: O_5  and  C_14
    3  A    between atoms: O_5  and  C_21
    4  A    between atoms: C_6  and  C_7
    5  A    between atoms: C_6  and  N_19
    6  A    between atoms: C_7  and  C_9
    7  A    between atoms: C_9  and  C_23
    8  A    between atoms: C_10  and  C_14
    9  A    between atoms: C_10  and  C_18
   10  A    between atoms: C_11  and  C_24
   11  A    between atoms: C_15  and  C_23
   12  A    between atoms: C_17  and  C_31
   13  A    between atoms: C_18  and  C_31
                            x       y       z     vdW  Elec       q    Type
                         _______ _______ _______ _____ _____    ______ ____

>  <TORSDO>
F 13

$$$$
=
 OpenBabel10262419423D

 31 32  0  0  1  0  0  0  0  0999 V2000
  191.8690  176.0370  147.0060 C   0  0  0  0  0  0  0  0  0  0  0  0
  190.0030  178.2750  144.5900 C   0  0  0  0  0  2  0  0  0  0  0  0
  190.7950  177.1120  145.1170 C   0  0  0  0  0  0  0  0  0  0  0  0
  192.3800  175.0520  146.1580 C   0  0  0  0  0  3  0  0  0  0  0  0
  190.4340  177.4330  142.2920 C   0  0  2  0  0  3  0  0  0  0  0  0
  192.1360  175.9940  148.3330 F   0  0  0  0  0  0  0  0  0  0  0  0
  191.0240  176.1080  142.7840 C   0  0  0  0  0  2  0  0  0  0  0  0
  189.3580  177.9780  143.2350 C   0  0  1  0  0  3  0  0  0  0  0  0
  191.0810  177.0670  146.4850 C   0  0  0  0  0  3  0  0  0  0  0  0
  191.3350  176.1320  144.2540 C   0  0  0  0  0  0  0  0  0  0  0  0
  192.1120  175.0990  144.7870 C   0  0  0  0  0  3  0  0  0  0  0  0
  188.3130  177.0610  143.3970 O   0  0  0  0  0  0  0  0  0  0  0  0
  187.1450  177.7970  143.1720 C   0  0  0  0  0  2  0  0  0  0  0  0
  186.1850  177.6180  144.3360 C   0  0  0  0  0  2  0  0  0  0  0  0
  186.0650  178.8940  145.1670 C   0  0  0  0  0  2  0  0  0  0  0  0
  186.0480  179.8660  147.3590 O   0  0  0  0  0  1  0  0  0  0  0  0
  184.6840  177.9360  147.0220 C   0  0  0  0  0  1  0  0  0  0  0  0
  185.9840  178.6490  146.6750 C   0  0  1  0  0  0  0  0  0  0  0  0
  187.1740  177.7760  147.0670 C   0  0  0  0  0  2  0  0  0  0  0  0
  187.9860  178.3790  148.2070 C   0  0  0  0  0  1  0  0  0  0  0  0
  190.0170  177.4090  140.8190 C   0  0  0  0  0  2  0  0  0  0  0  0
  190.9990  176.6730  139.9090 C   0  0  2  0  0  3  0  0  0  0  0  0
  192.1400  177.6030  139.5070 C   0  0  0  0  0  2  0  0  0  0  0  0
  193.3370  176.8900  139.3910 O   0  0  0  0  0  1  0  0  0  0  0  0
  190.2880  176.1260  138.6780 C   0  0  0  0  0  2  0  0  0  0  0  0
  190.5490  177.0090  137.4670 C   0  0  0  0  0  2  0  0  0  0  0  0
  189.0290  179.3730  137.9440 O   0  0  0  0  0  0  0  0  0  0  0  0
  189.2870  177.3410  136.8260 N   0  0  0  0  0  2  0  0  0  0  0  0
  188.5680  178.5350  137.1260 C   0  0  0  0  0  0  0  0  0  0  0  0
  186.8560  177.6330  135.7830 O   0  0  0  0  0  1  0  0  0  0  0  0
  187.2480  178.7720  136.4860 C   0  0  0  0  0  2  0  0  0  0  0  0
  1  6  1  0  0  0  0
  2  3  1  0  0  0  0
  3  9  2  0  0  0  0
  4  1  2  0  0  0  0
  5 21  1  6  0  0  0
  5  7  1  0  0  0  0
  5  8  1  0  0  0  0
  7 10  1  0  0  0  0
  8 12  1  1  0  0  0
  8  2  1  0  0  0  0
  9  1  1  0  0  0  0
 10 11  2  0  0  0  0
 10  3  1  0  0  0  0
 11  4  1  0  0  0  0
 13 12  1  0  0  0  0
 13 14  1  0  0  0  0
 14 15  1  0  0  0  0
 15 18  1  0  0  0  0
 18 17  1  1  0  0  0
 18 19  1  0  0  0  0
 18 16  1  0  0  0  0
 19 20  1  0  0  0  0
 22 25  1  6  0  0  0
 22 21  1  0  0  0  0
 23 22  1  0  0  0  0
 24 23  1  0  0  0  0
 26 25  1  0  0  0  0
 28 29  1  0  0  0  0
 28 26  1  0  0  0  0
 29 27  2  0  0  0  0
 30 31  1  0  0  0  0
 31 29  1  0  0  0  0
M  END
>  <MODEL>
7

>  <REMARK>
 VINA RESULT:      -6.8      4.023      7.116
  Name = 
  13 active torsions:
  status: ('A' for Active; 'I' for Inactive)
    1  A    between atoms: C_3  and  C_9
    2  A    between atoms: O_5  and  C_14
    3  A    between atoms: O_5  and  C_21
    4  A    between atoms: C_6  and  C_7
    5  A    between atoms: C_6  and  N_19
    6  A    between atoms: C_7  and  C_9
    7  A    between atoms: C_9  and  C_23
    8  A    between atoms: C_10  and  C_14
    9  A    between atoms: C_10  and  C_18
   10  A    between atoms: C_11  and  C_24
   11  A    between atoms: C_15  and  C_23
   12  A    between atoms: C_17  and  C_31
   13  A    between atoms: C_18  and  C_31
                            x       y       z     vdW  Elec       q    Type
                         _______ _______ _______ _____ _____    ______ ____

>  <TORSDO>
F 13

$$$$
=
 OpenBabel10262419423D

 31 32  0  0  1  0  0  0  0  0999 V2000
  187.6860  177.7890  146.9240 C   0  0  0  0  0  0  0  0  0  0  0  0
  186.8190  177.1370  143.2970 C   0  0  0  0  0  2  0  0  0  0  0  0
  186.7550  177.7050  144.6870 C   0  0  0  0  0  0  0  0  0  0  0  0
  186.6320  178.6090  147.3340 C   0  0  0  0  0  3  0  0  0  0  0  0
  184.6020  178.1700  142.8530 C   0  0  2  0  0  3  0  0  0  0  0  0
  188.6510  177.4340  147.8050 F   0  0  0  0  0  0  0  0  0  0  0  0
  184.6070  178.9740  144.1560 C   0  0  0  0  0  2  0  0  0  0  0  0
  186.0110  177.9600  142.2910 C   0  0  1  0  0  3  0  0  0  0  0  0
  187.7440  177.3350  145.6030 C   0  0  0  0  0  3  0  0  0  0  0  0
  185.6730  178.5110  145.1090 C   0  0  0  0  0  0  0  0  0  0  0  0
  185.6310  178.9700  146.4280 C   0  0  0  0  0  3  0  0  0  0  0  0
  186.6510  179.1820  142.0550 O   0  0  0  0  0  0  0  0  0  0  0  0
  187.8600  178.8470  141.4370 C   0  0  0  0  0  2  0  0  0  0  0  0
  187.5920  178.1460  140.1150 C   0  0  0  0  0  2  0  0  0  0  0  0
  188.8220  178.1650  139.2100 C   0  0  0  0  0  2  0  0  0  0  0  0
  188.7830  179.7190  137.3850 O   0  0  0  0  0  1  0  0  0  0  0  0
  189.3320  177.4560  136.8640 C   0  0  0  0  0  1  0  0  0  0  0  0
  188.5040  178.3950  137.7320 C   0  0  1  0  0  0  0  0  0  0  0  0
  187.0170  178.1110  137.5280 C   0  0  0  0  0  2  0  0  0  0  0  0
  186.6710  177.8550  136.0660 C   0  0  0  0  0  1  0  0  0  0  0  0
  183.5910  178.6790  141.8210 C   0  0  0  0  0  2  0  0  0  0  0  0
  183.8140  178.1300  140.4130 C   0  0  2  0  0  3  0  0  0  0  0  0
  183.5720  179.2260  139.3790 C   0  0  0  0  0  2  0  0  0  0  0  0
  184.6900  180.0600  139.2760 O   0  0  0  0  0  1  0  0  0  0  0  0
  182.9120  176.9320  140.1510 C   0  0  0  0  0  2  0  0  0  0  0  0
  182.1470  177.1060  138.8480 C   0  0  0  0  0  2  0  0  0  0  0  0
  183.9820  175.7100  137.1710 O   0  0  0  0  0  0  0  0  0  0  0  0
  181.9120  175.8050  138.2440 N   0  0  0  0  0  2  0  0  0  0  0  0
  182.8670  175.1700  137.3990 C   0  0  0  0  0  0  0  0  0  0  0  0
  183.4990  172.9250  137.0760 O   0  0  0  0  0  1  0  0  0  0  0  0
  182.5280  173.8730  136.7570 C   0  0  0  0  0  2  0  0  0  0  0  0
  1  4  1  0  0  0  0
  1  6  1  0  0  0  0
  2  3  1  0  0  0  0
  3 10  2  0  0  0  0
  3  9  1  0  0  0  0
  5 21  1  6  0  0  0
  5  7  1  0  0  0  0
  7 10  1  0  0  0  0
  8 12  1  1  0  0  0
  8  5  1  0  0  0  0
  8  2  1  0  0  0  0
  9  1  2  0  0  0  0
 10 11  1  0  0  0  0
 11  4  2  0  0  0  0
 13 12  1  0  0  0  0
 14 13  1  0  0  0  0
 15 14  1  0  0  0  0
 16 18  1  0  0  0  0
 18 17  1  6  0  0  0
 18 15  1  0  0  0  0
 19 18  1  0  0  0  0
 20 19  1  0  0  0  0
 22 23  1  6  0  0  0
 22 21  1  0  0  0  0
 24 23  1  0  0  0  0
 25 22  1  0  0  0  0
 26 25  1  0  0  0  0
 27 29  2  0  0  0  0
 28 26  1  0  0  0  0
 29 28  1  0  0  0  0
 31 30  1  0  0  0  0
 31 29  1  0  0  0  0
M  END
>  <MODEL>
8

>  <REMARK>
 VINA RESULT:      -6.7      2.913      4.691
  Name = 
  13 active torsions:
  status: ('A' for Active; 'I' for Inactive)
    1  A    between atoms: C_3  and  C_9
    2  A    between atoms: O_5  and  C_14
    3  A    between atoms: O_5  and  C_21
    4  A    between atoms: C_6  and  C_7
    5  A    between atoms: C_6  and  N_19
    6  A    between atoms: C_7  and  C_9
    7  A    between atoms: C_9  and  C_23
    8  A    between atoms: C_10  and  C_14
    9  A    between atoms: C_10  and  C_18
   10  A    between atoms: C_11  and  C_24
   11  A    between atoms: C_15  and  C_23
   12  A    between atoms: C_17  and  C_31
   13  A    between atoms: C_18  and  C_31
                            x       y       z     vdW  Elec       q    Type
                         _______ _______ _______ _____ _____    ______ ____

>  <TORSDO>
F 13

$$$$
=
 OpenBabel10262419423D

 31 32  0  0  1  0  0  0  0  0999 V2000
  185.0580  178.3410  145.2260 C   0  0  0  0  0  0  0  0  0  0  0  0
  188.0320  176.8040  143.4580 C   0  0  0  0  0  2  0  0  0  0  0  0
  186.8520  177.6940  143.7290 C   0  0  0  0  0  0  0  0  0  0  0  0
  184.5630  179.2170  144.2570 C   0  0  0  0  0  3  0  0  0  0  0  0
  188.0480  177.6570  141.1240 C   0  0  2  0  0  3  0  0  0  0  0  0
  184.4340  178.2300  146.4220 F   0  0  0  0  0  0  0  0  0  0  0  0
  187.0220  178.7560  141.4150 C   0  0  0  0  0  2  0  0  0  0  0  0
  188.9250  177.3410  142.3380 C   0  0  1  0  0  3  0  0  0  0  0  0
  186.1990  177.5780  144.9590 C   0  0  0  0  0  3  0  0  0  0  0  0
  186.3350  178.5600  142.7380 C   0  0  0  0  0  0  0  0  0  0  0  0
  185.2020  179.3280  143.0190 C   0  0  0  0  0  3  0  0  0  0  0  0
  189.6100  178.4790  142.7800 O   0  0  0  0  0  0  0  0  0  0  0  0
  190.8900  178.0270  143.1150 C   0  0  0  0  0  2  0  0  0  0  0  0
  191.1070  178.1390  144.6140 C   0  0  0  0  0  2  0  0  0  0  0  0
  191.4870  176.7940  145.2300 C   0  0  0  0  0  2  0  0  0  0  0  0
  191.6900  177.7820  147.4050 O   0  0  0  0  0  1  0  0  0  0  0  0
  189.6640  176.6100  146.9350 C   0  0  0  0  0  1  0  0  0  0  0  0
  191.1700  176.6790  146.7220 C   0  0  1  0  0  0  0  0  0  0  0  0
  191.8240  175.3990  147.2380 C   0  0  0  0  0  2  0  0  0  0  0  0
  192.7740  175.6610  148.4010 C   0  0  0  0  0  1  0  0  0  0  0  0
  188.8340  177.8800  139.8290 C   0  0  0  0  0  2  0  0  0  0  0  0
  188.5030  176.8780  138.7240 C   0  0  2  0  0  3  0  0  0  0  0  0
  189.7690  176.5090  137.9540 C   0  0  0  0  0  2  0  0  0  0  0  0
  190.6200  175.7360  138.7500 O   0  0  0  0  0  1  0  0  0  0  0  0
  187.4450  177.4410  137.7850 C   0  0  0  0  0  2  0  0  0  0  0  0
  187.1990  176.4950  136.6190 C   0  0  0  0  0  2  0  0  0  0  0  0
  187.9110  173.7440  136.8500 O   0  0  0  0  0  0  0  0  0  0  0  0
  186.3060  175.4280  137.0400 N   0  0  0  0  0  2  0  0  0  0  0  0
  186.7230  174.0670  137.1160 C   0  0  0  0  0  0  0  0  0  0  0  0
  184.5600  173.6210  137.9340 O   0  0  0  0  0  1  0  0  0  0  0  0
  185.7340  173.0190  137.4830 C   0  0  0  0  0  2  0  0  0  0  0  0
  1  6  1  0  0  0  0
  2  3  1  0  0  0  0
  3  9  2  0  0  0  0
  4  1  2  0  0  0  0
  5 21  1  6  0  0  0
  5  7  1  0  0  0  0
  5  8  1  0  0  0  0
  7 10  1  0  0  0  0
  8 12  1  1  0  0  0
  8  2  1  0  0  0  0
  9  1  1  0  0  0  0
 10 11  2  0  0  0  0
 10  3  1  0  0  0  0
 11  4  1  0  0  0  0
 12 13  1  0  0  0  0
 13 14  1  0  0  0  0
 14 15  1  0  0  0  0
 15 18  1  0  0  0  0
 18 17  1  1  0  0  0
 18 19  1  0  0  0  0
 18 16  1  0  0  0  0
 19 20  1  0  0  0  0
 22 25  1  6  0  0  0
 22 21  1  0  0  0  0
 23 22  1  0  0  0  0
 23 24  1  0  0  0  0
 26 28  1  0  0  0  0
 26 25  1  0  0  0  0
 27 29  2  0  0  0  0
 28 29  1  0  0  0  0
 29 31  1  0  0  0  0
 31 30  1  0  0  0  0
M  END
>  <MODEL>
9

>  <REMARK>
 VINA RESULT:      -6.7      3.867      5.724
  Name = 
  13 active torsions:
  status: ('A' for Active; 'I' for Inactive)
    1  A    between atoms: C_3  and  C_9
    2  A    between atoms: O_5  and  C_14
    3  A    between atoms: O_5  and  C_21
    4  A    between atoms: C_6  and  C_7
    5  A    between atoms: C_6  and  N_19
    6  A    between atoms: C_7  and  C_9
    7  A    between atoms: C_9  and  C_23
    8  A    between atoms: C_10  and  C_14
    9  A    between atoms: C_10  and  C_18
   10  A    between atoms: C_11  and  C_24
   11  A    between atoms: C_15  and  C_23
   12  A    between atoms: C_17  and  C_31
   13  A    between atoms: C_18  and  C_31
                            x       y       z     vdW  Elec       q    Type
                         _______ _______ _______ _____ _____    ______ ____

>  <TORSDO>
F 13

$$$$
