=
 OpenBabel10262421353D

 32 36  0  0  1  0  0  0  0  0999 V2000
  189.1610  177.4980  145.8640 C   0  0  0  0  0  2  0  0  0  0  0  0
  186.7690  178.3990  141.5380 C   0  0  0  0  0  0  0  0  0  0  0  0
  181.9550  178.8720  144.3080 C   0  0  0  0  0  3  0  0  0  0  0  0
  181.4230  179.1060  143.0470 C   0  0  0  0  0  3  0  0  0  0  0  0
  189.0970  177.8820  143.1030 C   0  0  0  0  0  0  0  0  0  0  0  0
  186.6560  178.0630  142.9750 C   0  0  0  0  0  0  0  0  0  0  0  0
  187.8400  177.2680  145.1500 C   0  0  0  0  0  2  0  0  0  0  0  0
  183.3010  178.5430  144.4350 C   0  0  0  0  0  3  0  0  0  0  0  0
  185.5210  178.0970  143.6730 C   0  0  0  0  0  3  0  0  0  0  0  0
  184.1430  178.4430  143.3180 C   0  0  0  0  0  0  0  0  0  0  0  0
  184.3470  178.5570  140.7330 C   0  0  0  0  0  0  0  0  0  0  0  0
  191.3620  176.8920  142.9080 C   0  0  0  0  0  1  0  0  0  0  0  0
  190.4060  177.6400  143.8310 C   0  0  2  0  0  3  0  0  0  0  0  0
  187.9070  177.7530  143.7240 C   0  0  0  0  0  0  0  0  0  0  0  0
  189.1420  178.3080  141.7690 O   0  0  0  0  0  0  0  0  0  0  0  0
  190.2360  176.8890  145.0860 N   0  0  0  0  0  0  0  0  0  0  0  0
  182.2410  179.0020  141.9250 C   0  0  0  0  0  3  0  0  0  0  0  0
  183.6080  178.6690  142.0220 C   0  0  0  0  0  0  0  0  0  0  0  0
  187.9880  178.5050  141.0060 C   0  0  0  0  0  3  0  0  0  0  0  0
  185.6720  178.4830  140.5810 C   0  0  0  0  0  3  0  0  0  0  0  0
  181.8120  179.8840  138.1650 C   0  0  0  0  0  0  0  0  0  0  0  0
  181.1270  178.6320  137.8110 C   0  0  0  0  0  3  0  0  0  0  0  0
  182.6620  177.3850  139.2470 C   0  0  0  0  0  0  0  0  0  0  0  0
  180.7970  176.3140  138.0120 O   0  0  0  0  0  1  0  0  0  0  0  0
  181.5020  177.4650  138.3390 C   0  0  0  0  0  0  0  0  0  0  0  0
  182.7730  179.9210  139.3150 C   0  0  0  0  0  2  0  0  0  0  0  0
  181.5310  180.9450  137.5510 O   0  0  0  0  0  0  0  0  0  0  0  0
  182.9680  176.2790  139.7700 O   0  0  0  0  0  0  0  0  0  0  0  0
  183.5430  178.6000  139.4510 C   0  0  1  0  0  3  0  0  0  0  0  0
  191.4500  177.0600  145.8750 C   0  0  0  0  0  2  0  0  0  0  0  0
  191.2490  176.5160  147.2810 C   0  0  0  0  0  2  0  0  0  0  0  0
  192.4480  175.6900  147.7020 C   0  0  0  0  0  1  0  0  0  0  0  0
  2  6  1  0  0  0  0
  3  8  1  0  0  0  0
  4  3  2  0  0  0  0
  5 14  2  0  0  0  0
  5 13  1  0  0  0  0
  6  9  2  0  0  0  0
  6 14  1  0  0  0  0
  7  1  1  0  0  0  0
 10  9  1  0  0  0  0
 10  8  2  0  0  0  0
 11 18  1  0  0  0  0
 13 12  1  6  0  0  0
 13 16  1  0  0  0  0
 14  7  1  0  0  0  0
 15  5  1  0  0  0  0
 16  1  1  0  0  0  0
 16 30  1  0  0  0  0
 17 18  2  0  0  0  0
 17  4  1  0  0  0  0
 18 10  1  0  0  0  0
 19  2  2  0  0  0  0
 19 15  1  0  0  0  0
 20 11  2  0  0  0  0
 20  2  1  0  0  0  0
 21 26  1  0  0  0  0
 22 21  1  0  0  0  0
 22 25  2  0  0  0  0
 23 29  1  0  0  0  0
 23 28  2  0  0  0  0
 24 25  1  0  0  0  0
 25 23  1  0  0  0  0
 26 29  1  0  0  0  0
 27 21  2  0  0  0  0
 29 11  1  1  0  0  0
 30 31  1  0  0  0  0
 31 32  1  0  0  0  0
M  END
>  <MODEL>
1

>  <REMARK>
 VINA RESULT:     -10.2      0.000      0.000
  Name = 
  3 active torsions:
  status: ('A' for Active; 'I' for Inactive)
    1  A    between atoms: C_1  and  C_10
    2  A    between atoms: C_10  and  N_24
    3  A    between atoms: C_16  and  C_32
                            x       y       z     vdW  Elec       q    Type
                         _______ _______ _______ _____ _____    ______ ____

>  <TORSDO>
F 3

$$$$
=
 OpenBabel10262421353D

 32 36  0  0  1  0  0  0  0  0999 V2000
  187.7850  177.8420  145.1550 C   0  0  0  0  0  2  0  0  0  0  0  0
  185.0590  178.5280  140.9910 C   0  0  0  0  0  0  0  0  0  0  0  0
  180.4640  179.0730  144.0990 C   0  0  0  0  0  3  0  0  0  0  0  0
  179.8340  179.2460  142.8740 C   0  0  0  0  0  3  0  0  0  0  0  0
  187.5060  178.1040  142.3930 C   0  0  0  0  0  0  0  0  0  0  0  0
  185.0600  178.2540  142.4450 C   0  0  0  0  0  0  0  0  0  0  0  0
  186.4170  177.5670  144.5550 C   0  0  0  0  0  2  0  0  0  0  0  0
  181.8200  178.7640  144.1370 C   0  0  0  0  0  3  0  0  0  0  0  0
  183.9810  178.3070  143.2260 C   0  0  0  0  0  3  0  0  0  0  0  0
  182.5750  178.6230  142.9630 C   0  0  0  0  0  0  0  0  0  0  0  0
  182.5800  178.6260  140.3680 C   0  0  0  0  0  0  0  0  0  0  0  0
  189.7620  177.1300  142.0670 C   0  0  0  0  0  1  0  0  0  0  0  0
  188.8700  177.9070  143.0280 C   0  0  2  0  0  3  0  0  0  0  0  0
  186.3680  177.9900  143.1090 C   0  0  0  0  0  0  0  0  0  0  0  0
  187.4430  178.4720  141.0430 O   0  0  0  0  0  0  0  0  0  0  0  0
  188.8060  177.2110  144.3230 N   0  0  0  0  0  0  0  0  0  0  0  0
  180.5650  179.1010  141.6980 C   0  0  0  0  0  3  0  0  0  0  0  0
  181.9400  178.7870  141.7040 C   0  0  0  0  0  0  0  0  0  0  0  0
  186.2310  178.6240  140.3630 C   0  0  0  0  0  3  0  0  0  0  0  0
  183.8900  178.5600  140.1180 C   0  0  0  0  0  3  0  0  0  0  0  0
  181.2830  177.5250  136.9200 C   0  0  0  0  0  0  0  0  0  0  0  0
  181.0070  178.8380  136.3200 C   0  0  0  0  0  3  0  0  0  0  0  0
  181.6160  179.9290  138.4200 C   0  0  0  0  0  0  0  0  0  0  0  0
  180.9620  181.1870  136.3850 O   0  0  0  0  0  1  0  0  0  0  0  0
  181.1910  179.9660  137.0080 C   0  0  0  0  0  0  0  0  0  0  0  0
  182.0180  177.4300  138.2230 C   0  0  0  0  0  2  0  0  0  0  0  0
  180.9710  176.4760  136.3010 O   0  0  0  0  0  0  0  0  0  0  0  0
  181.8280  181.0080  139.0350 O   0  0  0  0  0  0  0  0  0  0  0  0
  181.6800  178.6040  139.1510 C   0  0  1  0  0  3  0  0  0  0  0  0
  190.0740  177.4290  145.0090 C   0  0  0  0  0  2  0  0  0  0  0  0
  189.9370  177.1130  146.4910 C   0  0  0  0  0  2  0  0  0  0  0  0
  191.2430  176.5720  147.0370 C   0  0  0  0  0  1  0  0  0  0  0  0
  2  6  1  0  0  0  0
  3  8  1  0  0  0  0
  4  3  2  0  0  0  0
  5 13  1  0  0  0  0
  5 14  2  0  0  0  0
  6 14  1  0  0  0  0
  6  9  2  0  0  0  0
  7  1  1  0  0  0  0
 10  9  1  0  0  0  0
 10  8  2  0  0  0  0
 11 18  1  0  0  0  0
 13 12  1  6  0  0  0
 13 16  1  0  0  0  0
 14  7  1  0  0  0  0
 15  5  1  0  0  0  0
 16 30  1  0  0  0  0
 16  1  1  0  0  0  0
 17 18  2  0  0  0  0
 17  4  1  0  0  0  0
 18 10  1  0  0  0  0
 19  2  2  0  0  0  0
 19 15  1  0  0  0  0
 20 11  2  0  0  0  0
 20  2  1  0  0  0  0
 21 26  1  0  0  0  0
 22 21  1  0  0  0  0
 22 25  2  0  0  0  0
 23 28  2  0  0  0  0
 23 29  1  0  0  0  0
 24 25  1  0  0  0  0
 25 23  1  0  0  0  0
 26 29  1  0  0  0  0
 27 21  2  0  0  0  0
 29 11  1  1  0  0  0
 30 31  1  0  0  0  0
 31 32  1  0  0  0  0
M  END
>  <MODEL>
2

>  <REMARK>
 VINA RESULT:      -9.6      1.335      2.346
  Name = 
  3 active torsions:
  status: ('A' for Active; 'I' for Inactive)
    1  A    between atoms: C_1  and  C_10
    2  A    between atoms: C_10  and  N_24
    3  A    between atoms: C_16  and  C_32
                            x       y       z     vdW  Elec       q    Type
                         _______ _______ _______ _____ _____    ______ ____

>  <TORSDO>
F 3

$$$$
=
 OpenBabel10262421353D

 32 36  0  0  1  0  0  0  0  0999 V2000
  190.4770  177.3300  144.6040 C   0  0  0  0  0  2  0  0  0  0  0  0
  186.2970  177.9790  141.8920 C   0  0  0  0  0  0  0  0  0  0  0  0
  189.3340  177.9550  137.2180 C   0  0  0  0  0  3  0  0  0  0  0  0
  188.1060  178.1350  136.5950 C   0  0  0  0  0  3  0  0  0  0  0  0
  187.7150  177.6050  144.3390 C   0  0  0  0  0  0  0  0  0  0  0  0
  187.7760  177.9970  141.9200 C   0  0  0  0  0  0  0  0  0  0  0  0
  189.9530  177.9990  143.3450 C   0  0  0  0  0  2  0  0  0  0  0  0
  189.4040  177.9440  138.6080 C   0  0  0  0  0  3  0  0  0  0  0  0
  188.5520  178.0540  140.8380 C   0  0  0  0  0  3  0  0  0  0  0  0
  188.2600  178.1080  139.4030 C   0  0  0  0  0  0  0  0  0  0  0  0
  185.7020  178.5420  139.4690 C   0  0  0  0  0  0  0  0  0  0  0  0
  187.5260  178.0940  146.7620 C   0  0  0  0  0  1  0  0  0  0  0  0
  188.3540  177.3840  145.6970 C   0  0  2  0  0  3  0  0  0  0  0  0
  188.4560  177.8470  143.2380 C   0  0  0  0  0  0  0  0  0  0  0  0
  186.3230  177.4940  144.2280 O   0  0  0  0  0  0  0  0  0  0  0  0
  189.7500  177.8490  145.7580 N   0  0  0  0  0  0  0  0  0  0  0  0
  186.9610  178.3100  137.3680 C   0  0  0  0  0  3  0  0  0  0  0  0
  187.0010  178.3050  138.7780 C   0  0  0  0  0  0  0  0  0  0  0  0
  185.6450  177.7320  143.0290 C   0  0  0  0  0  3  0  0  0  0  0  0
  185.4480  178.3560  140.7670 C   0  0  0  0  0  3  0  0  0  0  0  0
  182.4760  180.4230  138.5570 C   0  0  0  0  0  0  0  0  0  0  0  0
  181.6990  179.3250  137.9630 C   0  0  0  0  0  3  0  0  0  0  0  0
  183.6080  177.8240  138.2370 C   0  0  0  0  0  0  0  0  0  0  0  0
  181.4270  177.0820  137.3180 O   0  0  0  0  0  1  0  0  0  0  0  0
  182.2140  178.1010  137.8410 C   0  0  0  0  0  0  0  0  0  0  0  0
  183.7640  180.1380  139.2690 C   0  0  0  0  0  2  0  0  0  0  0  0
  182.0200  181.5950  138.5340 O   0  0  0  0  0  0  0  0  0  0  0  0
  184.0570  176.6490  138.1550 O   0  0  0  0  0  0  0  0  0  0  0  0
  184.5200  178.9680  138.6260 C   0  0  1  0  0  3  0  0  0  0  0  0
  190.3700  177.2420  146.9290 C   0  0  0  0  0  2  0  0  0  0  0  0
  191.6490  176.5180  146.5370 C   0  0  0  0  0  2  0  0  0  0  0  0
  192.2680  175.8490  147.7480 C   0  0  0  0  0  1  0  0  0  0  0  0
  1 16  1  0  0  0  0
  2  6  1  0  0  0  0
  2 19  2  0  0  0  0
  3  8  1  0  0  0  0
  4  3  2  0  0  0  0
  4 17  1  0  0  0  0
  5 13  1  0  0  0  0
  6 14  1  0  0  0  0
  7  1  1  0  0  0  0
  8 10  2  0  0  0  0
  9  6  2  0  0  0  0
 10  9  1  0  0  0  0
 11 20  2  0  0  0  0
 13 16  1  0  0  0  0
 13 12  1  1  0  0  0
 14  7  1  0  0  0  0
 14  5  2  0  0  0  0
 15  5  1  0  0  0  0
 16 30  1  0  0  0  0
 17 18  2  0  0  0  0
 18 10  1  0  0  0  0
 18 11  1  0  0  0  0
 19 15  1  0  0  0  0
 20  2  1  0  0  0  0
 21 26  1  0  0  0  0
 22 21  1  0  0  0  0
 23 29  1  0  0  0  0
 24 25  1  0  0  0  0
 25 22  2  0  0  0  0
 25 23  1  0  0  0  0
 27 21  2  0  0  0  0
 28 23  2  0  0  0  0
 29 26  1  0  0  0  0
 29 11  1  1  0  0  0
 31 30  1  0  0  0  0
 31 32  1  0  0  0  0
M  END
>  <MODEL>
3

>  <REMARK>
 VINA RESULT:      -9.6      1.829      3.892
  Name = 
  3 active torsions:
  status: ('A' for Active; 'I' for Inactive)
    1  A    between atoms: C_1  and  C_10
    2  A    between atoms: C_10  and  N_24
    3  A    between atoms: C_16  and  C_32
                            x       y       z     vdW  Elec       q    Type
                         _______ _______ _______ _____ _____    ______ ____

>  <TORSDO>
F 3

$$$$
=
 OpenBabel10262421353D

 32 36  0  0  1  0  0  0  0  0999 V2000
  190.4460  177.4460  145.4650 C   0  0  0  0  0  2  0  0  0  0  0  0
  185.6530  177.8600  144.0140 C   0  0  0  0  0  0  0  0  0  0  0  0
  187.3060  178.3050  138.7090 C   0  0  0  0  0  3  0  0  0  0  0  0
  185.9460  178.4080  138.4490 C   0  0  0  0  0  3  0  0  0  0  0  0
  187.7030  177.4980  145.9640 C   0  0  0  0  0  0  0  0  0  0  0  0
  187.0800  178.0020  143.6470 C   0  0  0  0  0  0  0  0  0  0  0  0
  189.5550  178.1250  144.4390 C   0  0  0  0  0  2  0  0  0  0  0  0
  187.7500  178.2360  140.0260 C   0  0  0  0  0  3  0  0  0  0  0  0
  187.5280  178.1740  142.4050 C   0  0  0  0  0  3  0  0  0  0  0  0
  186.8560  178.2670  141.1060 C   0  0  0  0  0  0  0  0  0  0  0  0
  184.3880  178.4780  141.8800 C   0  0  0  0  0  0  0  0  0  0  0  0
  188.1440  177.8590  148.3770 C   0  0  0  0  0  1  0  0  0  0  0  0
  188.7000  177.2700  147.0850 C   0  0  2  0  0  3  0  0  0  0  0  0
  188.1000  177.8510  144.7240 C   0  0  0  0  0  0  0  0  0  0  0  0
  186.3440  177.2730  146.2210 O   0  0  0  0  0  0  0  0  0  0  0  0
  190.0240  177.8490  146.8030 N   0  0  0  0  0  0  0  0  0  0  0  0
  185.0440  178.4490  139.5090 C   0  0  0  0  0  3  0  0  0  0  0  0
  185.4640  178.3840  140.8540 C   0  0  0  0  0  0  0  0  0  0  0  0
  185.3520  177.5070  145.2640 C   0  0  0  0  0  3  0  0  0  0  0  0
  184.5080  178.2140  143.1830 C   0  0  0  0  0  3  0  0  0  0  0  0
  180.7400  179.6650  142.1450 C   0  0  0  0  0  0  0  0  0  0  0  0
  180.0820  178.6620  141.2960 C   0  0  0  0  0  3  0  0  0  0  0  0
  182.2590  177.6940  140.7510 C   0  0  0  0  0  0  0  0  0  0  0  0
  180.1180  176.7620  139.9140 O   0  0  0  0  0  1  0  0  0  0  0  0
  180.7860  177.7190  140.6680 C   0  0  0  0  0  0  0  0  0  0  0  0
  182.1800  179.5020  142.5310 C   0  0  0  0  0  2  0  0  0  0  0  0
  180.0730  180.6230  142.6130 O   0  0  0  0  0  0  0  0  0  0  0  0
  182.8990  176.7650  140.1870 O   0  0  0  0  0  0  0  0  0  0  0  0
  182.9940  178.8410  141.4110 C   0  0  1  0  0  3  0  0  0  0  0  0
  190.9790  177.2440  147.7240 C   0  0  0  0  0  2  0  0  0  0  0  0
  191.7230  176.1050  147.0450 C   0  0  0  0  0  2  0  0  0  0  0  0
  192.8000  175.5590  147.9600 C   0  0  0  0  0  1  0  0  0  0  0  0
  1 16  1  0  0  0  0
  2 19  2  0  0  0  0
  3  8  1  0  0  0  0
  4  3  2  0  0  0  0
  4 17  1  0  0  0  0
  5 15  1  0  0  0  0
  5 13  1  0  0  0  0
  6  2  1  0  0  0  0
  6 14  1  0  0  0  0
  7 14  1  0  0  0  0
  7  1  1  0  0  0  0
  8 10  2  0  0  0  0
  9  6  2  0  0  0  0
 10  9  1  0  0  0  0
 11 20  2  0  0  0  0
 13 12  1  1  0  0  0
 14  5  2  0  0  0  0
 16 13  1  0  0  0  0
 16 30  1  0  0  0  0
 17 18  2  0  0  0  0
 18 10  1  0  0  0  0
 18 11  1  0  0  0  0
 19 15  1  0  0  0  0
 20  2  1  0  0  0  0
 21 26  1  0  0  0  0
 21 27  2  0  0  0  0
 22 21  1  0  0  0  0
 23 29  1  0  0  0  0
 24 25  1  0  0  0  0
 25 23  1  0  0  0  0
 25 22  2  0  0  0  0
 28 23  2  0  0  0  0
 29 11  1  1  0  0  0
 29 26  1  0  0  0  0
 31 30  1  0  0  0  0
 31 32  1  0  0  0  0
M  END
>  <MODEL>
4

>  <REMARK>
 VINA RESULT:      -8.9      2.000      3.614
  Name = 
  3 active torsions:
  status: ('A' for Active; 'I' for Inactive)
    1  A    between atoms: C_1  and  C_10
    2  A    between atoms: C_10  and  N_24
    3  A    between atoms: C_16  and  C_32
                            x       y       z     vdW  Elec       q    Type
                         _______ _______ _______ _____ _____    ______ ____

>  <TORSDO>
F 3

$$$$
=
 OpenBabel10262421353D

 32 36  0  0  1  0  0  0  0  0999 V2000
  188.0730  177.9560  137.6280 C   0  0  0  0  0  2  0  0  0  0  0  0
  189.2150  176.7350  142.3660 C   0  0  0  0  0  0  0  0  0  0  0  0
  184.3180  178.7830  144.0670 C   0  0  0  0  0  3  0  0  0  0  0  0
  184.7600  178.3950  145.3250 C   0  0  0  0  0  3  0  0  0  0  0  0
  189.7390  176.8390  139.5640 C   0  0  0  0  0  0  0  0  0  0  0  0
  188.3230  177.4890  141.4570 C   0  0  0  0  0  0  0  0  0  0  0  0
  187.8900  178.4140  139.0650 C   0  0  0  0  0  2  0  0  0  0  0  0
  185.1620  178.6460  142.9690 C   0  0  0  0  0  3  0  0  0  0  0  0
  187.1730  178.0530  141.8220 C   0  0  0  0  0  3  0  0  0  0  0  0
  186.4560  178.1210  143.0980 C   0  0  0  0  0  0  0  0  0  0  0  0
  188.2800  177.2020  144.7000 C   0  0  0  0  0  0  0  0  0  0  0  0
  191.6330  176.8800  137.9650 C   0  0  0  0  0  1  0  0  0  0  0  0
  190.1160  176.8110  138.0950 C   0  0  2  0  0  3  0  0  0  0  0  0
  188.6810  177.5470  140.0110 C   0  0  0  0  0  0  0  0  0  0  0  0
  190.4810  176.0580  140.4600 O   0  0  0  0  0  0  0  0  0  0  0  0
  189.4990  177.9020  137.3220 N   0  0  0  0  0  0  0  0  0  0  0  0
  186.0450  177.8800  145.4740 C   0  0  0  0  0  3  0  0  0  0  0  0
  186.9240  177.7310  144.3810 C   0  0  0  0  0  0  0  0  0  0  0  0
  190.2390  176.0630  141.8370 C   0  0  0  0  0  3  0  0  0  0  0  0
  189.1880  176.7640  143.8240 C   0  0  0  0  0  3  0  0  0  0  0  0
  188.5050  178.1570  148.4180 C   0  0  0  0  0  0  0  0  0  0  0  0
  189.9230  177.8650  148.6720 C   0  0  0  0  0  3  0  0  0  0  0  0
  190.1580  177.0190  146.3910 C   0  0  0  0  0  0  0  0  0  0  0  0
  192.0530  177.1470  147.9870 O   0  0  0  0  0  1  0  0  0  0  0  0
  190.7070  177.3620  147.7170 C   0  0  0  0  0  0  0  0  0  0  0  0
  187.9680  178.1390  147.0180 C   0  0  0  0  0  2  0  0  0  0  0  0
  187.7560  178.4990  149.3690 O   0  0  0  0  0  0  0  0  0  0  0  0
  190.9290  176.5890  145.4910 O   0  0  0  0  0  0  0  0  0  0  0  0
  188.6630  177.0740  146.1590 C   0  0  1  0  0  3  0  0  0  0  0  0
  189.5930  177.5550  135.9090 C   0  0  0  0  0  2  0  0  0  0  0  0
  188.6660  176.3940  135.5850 C   0  0  0  0  0  2  0  0  0  0  0  0
  189.3860  175.3670  134.7330 C   0  0  0  0  0  1  0  0  0  0  0  0
  1  7  1  0  0  0  0
  2 20  1  0  0  0  0
  3  4  1  0  0  0  0
  4 17  2  0  0  0  0
  5 14  2  0  0  0  0
  5 15  1  0  0  0  0
  6  9  2  0  0  0  0
  6  2  1  0  0  0  0
  7 14  1  0  0  0  0
  8 10  1  0  0  0  0
  8  3  2  0  0  0  0
  9 10  1  0  0  0  0
 10 18  2  0  0  0  0
 13 12  1  1  0  0  0
 13  5  1  0  0  0  0
 14  6  1  0  0  0  0
 15 19  1  0  0  0  0
 16  1  1  0  0  0  0
 16 13  1  0  0  0  0
 18 11  1  0  0  0  0
 18 17  1  0  0  0  0
 19  2  2  0  0  0  0
 20 11  2  0  0  0  0
 21 22  1  0  0  0  0
 21 27  2  0  0  0  0
 23 25  1  0  0  0  0
 25 24  1  0  0  0  0
 25 22  2  0  0  0  0
 26 21  1  0  0  0  0
 28 23  2  0  0  0  0
 29 11  1  6  0  0  0
 29 23  1  0  0  0  0
 29 26  1  0  0  0  0
 30 16  1  0  0  0  0
 31 30  1  0  0  0  0
 32 31  1  0  0  0  0
M  END
>  <MODEL>
5

>  <REMARK>
 VINA RESULT:      -8.9      4.228      8.214
  Name = 
  3 active torsions:
  status: ('A' for Active; 'I' for Inactive)
    1  A    between atoms: C_1  and  C_10
    2  A    between atoms: C_10  and  N_24
    3  A    between atoms: C_16  and  C_32
                            x       y       z     vdW  Elec       q    Type
                         _______ _______ _______ _____ _____    ______ ____

>  <TORSDO>
F 3

$$$$
=
 OpenBabel10262421353D

 32 36  0  0  1  0  0  0  0  0999 V2000
  180.9970  179.3240  143.4220 C   0  0  0  0  0  2  0  0  0  0  0  0
  185.7550  177.9630  142.5580 C   0  0  0  0  0  0  0  0  0  0  0  0
  186.7330  177.9230  148.0450 C   0  0  0  0  0  3  0  0  0  0  0  0
  188.0160  177.5510  147.6650 C   0  0  0  0  0  3  0  0  0  0  0  0
  183.1020  178.6140  141.7380 C   0  0  0  0  0  0  0  0  0  0  0  0
  184.7650  178.4710  143.5330 C   0  0  0  0  0  0  0  0  0  0  0  0
  182.4110  179.4950  143.9510 C   0  0  0  0  0  2  0  0  0  0  0  0
  185.7910  178.2360  147.0700 C   0  0  0  0  0  3  0  0  0  0  0  0
  184.9670  178.5430  144.8480 C   0  0  0  0  0  3  0  0  0  0  0  0
  186.1020  178.1860  145.7040 C   0  0  0  0  0  0  0  0  0  0  0  0
  187.9210  177.7600  143.9030 C   0  0  0  0  0  0  0  0  0  0  0  0
  181.8620  179.5270  139.7950 C   0  0  0  0  0  1  0  0  0  0  0  0
  181.7220  178.9150  141.1840 C   0  0  2  0  0  3  0  0  0  0  0  0
  183.4120  178.8410  143.0310 C   0  0  0  0  0  0  0  0  0  0  0  0
  184.0520  178.0310  140.8880 O   0  0  0  0  0  0  0  0  0  0  0  0
  180.9390  179.8130  142.0480 N   0  0  0  0  0  0  0  0  0  0  0  0
  188.3450  177.5040  146.3120 C   0  0  0  0  0  3  0  0  0  0  0  0
  187.4130  177.8180  145.3020 C   0  0  0  0  0  0  0  0  0  0  0  0
  185.3620  177.7690  141.2980 C   0  0  0  0  0  3  0  0  0  0  0  0
  187.1850  177.7880  142.7890 C   0  0  0  0  0  3  0  0  0  0  0  0
  191.6440  178.7180  143.8360 C   0  0  0  0  0  0  0  0  0  0  0  0
  192.0350  178.1340  142.5450 C   0  0  0  0  0  3  0  0  0  0  0  0
  189.7880  177.2120  142.2800 C   0  0  0  0  0  0  0  0  0  0  0  0
  191.5630  176.9610  140.5650 O   0  0  0  0  0  1  0  0  0  0  0  0
  191.1620  177.4550  141.8000 C   0  0  0  0  0  0  0  0  0  0  0  0
  190.1980  178.7880  144.2270 C   0  0  0  0  0  2  0  0  0  0  0  0
  192.5180  179.2320  144.5810 O   0  0  0  0  0  0  0  0  0  0  0  0
  188.9670  176.6080  141.5370 O   0  0  0  0  0  0  0  0  0  0  0  0
  189.4100  177.5820  143.6980 C   0  0  1  0  0  3  0  0  0  0  0  0
  179.5410  179.7120  141.6450 C   0  0  0  0  0  2  0  0  0  0  0  0
  178.9310  181.0970  141.4960 C   0  0  0  0  0  2  0  0  0  0  0  0
  179.2600  181.6750  140.1350 C   0  0  0  0  0  1  0  0  0  0  0  0
  1  7  1  0  0  0  0
  2 20  1  0  0  0  0
  2  6  1  0  0  0  0
  4  3  1  0  0  0  0
  5 14  2  0  0  0  0
  6  9  2  0  0  0  0
  8  3  2  0  0  0  0
  9 10  1  0  0  0  0
 10  8  1  0  0  0  0
 11 18  1  0  0  0  0
 13 12  1  6  0  0  0
 13  5  1  0  0  0  0
 13 16  1  0  0  0  0
 14  6  1  0  0  0  0
 14  7  1  0  0  0  0
 15 19  1  0  0  0  0
 15  5  1  0  0  0  0
 16  1  1  0  0  0  0
 17  4  2  0  0  0  0
 18 10  2  0  0  0  0
 18 17  1  0  0  0  0
 19  2  2  0  0  0  0
 20 11  2  0  0  0  0
 21 26  1  0  0  0  0
 21 27  2  0  0  0  0
 22 21  1  0  0  0  0
 23 29  1  0  0  0  0
 24 25  1  0  0  0  0
 25 23  1  0  0  0  0
 25 22  2  0  0  0  0
 28 23  2  0  0  0  0
 29 11  1  6  0  0  0
 29 26  1  0  0  0  0
 30 16  1  0  0  0  0
 31 30  1  0  0  0  0
 32 31  1  0  0  0  0
M  END
>  <MODEL>
6

>  <REMARK>
 VINA RESULT:      -8.7      2.766      8.477
  Name = 
  3 active torsions:
  status: ('A' for Active; 'I' for Inactive)
    1  A    between atoms: C_1  and  C_10
    2  A    between atoms: C_10  and  N_24
    3  A    between atoms: C_16  and  C_32
                            x       y       z     vdW  Elec       q    Type
                         _______ _______ _______ _____ _____    ______ ____

>  <TORSDO>
F 3

$$$$
=
 OpenBabel10262421353D

 32 36  0  0  1  0  0  0  0  0999 V2000
  188.2160  177.7520  146.2680 C   0  0  0  0  0  2  0  0  0  0  0  0
  187.3930  178.2520  141.3370 C   0  0  0  0  0  0  0  0  0  0  0  0
  181.9490  178.9380  142.3230 C   0  0  0  0  0  3  0  0  0  0  0  0
  181.8650  179.0560  140.9420 C   0  0  0  0  0  3  0  0  0  0  0  0
  189.0670  177.8900  143.6170 C   0  0  0  0  0  0  0  0  0  0  0  0
  186.8070  178.0430  142.6800 C   0  0  0  0  0  0  0  0  0  0  0  0
  187.1960  177.4520  145.1840 C   0  0  0  0  0  2  0  0  0  0  0  0
  183.1720  178.6300  142.9130 C   0  0  0  0  0  3  0  0  0  0  0  0
  185.5080  178.1330  142.9620 C   0  0  0  0  0  3  0  0  0  0  0  0
  184.3300  178.4370  142.1460 C   0  0  0  0  0  0  0  0  0  0  0  0
  185.3710  178.3230  139.7720 C   0  0  0  0  0  0  0  0  0  0  0  0
  191.2480  176.9010  144.2610 C   0  0  0  0  0  1  0  0  0  0  0  0
  190.0600  177.7220  144.7520 C   0  0  2  0  0  3  0  0  0  0  0  0
  187.7370  177.8090  143.8220 C   0  0  0  0  0  0  0  0  0  0  0  0
  189.5560  178.1970  142.3410 O   0  0  0  0  0  0  0  0  0  0  0  0
  189.4710  177.0840  145.9410 N   0  0  0  0  0  0  0  0  0  0  0  0
  183.0020  178.8580  140.1640 C   0  0  0  0  0  3  0  0  0  0  0  0
  184.2540  178.5440  140.7330 C   0  0  0  0  0  0  0  0  0  0  0  0
  188.7200  178.3190  141.2270 C   0  0  0  0  0  3  0  0  0  0  0  0
  186.6710  178.2440  140.0690 C   0  0  0  0  0  3  0  0  0  0  0  0
  183.9570  176.8420  136.5170 C   0  0  0  0  0  0  0  0  0  0  0  0
  185.0700  177.1290  135.6010 C   0  0  0  0  0  3  0  0  0  0  0  0
  186.2440  178.3050  137.3930 C   0  0  0  0  0  0  0  0  0  0  0  0
  187.2020  177.9940  135.1260 O   0  0  0  0  0  1  0  0  0  0  0  0
  186.1550  177.7860  136.0150 C   0  0  0  0  0  0  0  0  0  0  0  0
  184.1200  177.0500  137.9930 C   0  0  0  0  0  2  0  0  0  0  0  0
  182.8910  176.3460  136.0710 O   0  0  0  0  0  0  0  0  0  0  0  0
  187.2980  178.8820  137.7740 O   0  0  0  0  0  0  0  0  0  0  0  0
  185.0320  178.2470  138.2980 C   0  0  1  0  0  3  0  0  0  0  0  0
  190.3640  177.3320  147.0670 C   0  0  0  0  0  2  0  0  0  0  0  0
  190.7920  176.0190  147.7040 C   0  0  0  0  0  2  0  0  0  0  0  0
  192.2650  175.7670  147.4520 C   0  0  0  0  0  1  0  0  0  0  0  0
  2  6  1  0  0  0  0
  3  8  1  0  0  0  0
  4  3  2  0  0  0  0
  5 14  2  0  0  0  0
  5 13  1  0  0  0  0
  6  9  2  0  0  0  0
  6 14  1  0  0  0  0
  7  1  1  0  0  0  0
 10  8  2  0  0  0  0
 10  9  1  0  0  0  0
 11 20  2  0  0  0  0
 11 18  1  0  0  0  0
 13 12  1  6  0  0  0
 13 16  1  0  0  0  0
 14  7  1  0  0  0  0
 15  5  1  0  0  0  0
 16  1  1  0  0  0  0
 16 30  1  0  0  0  0
 17 18  2  0  0  0  0
 17  4  1  0  0  0  0
 18 10  1  0  0  0  0
 19  2  2  0  0  0  0
 19 15  1  0  0  0  0
 20  2  1  0  0  0  0
 21 26  1  0  0  0  0
 22 25  2  0  0  0  0
 22 21  1  0  0  0  0
 23 28  2  0  0  0  0
 23 29  1  0  0  0  0
 24 25  1  0  0  0  0
 25 23  1  0  0  0  0
 26 29  1  0  0  0  0
 27 21  2  0  0  0  0
 29 11  1  1  0  0  0
 30 31  1  0  0  0  0
 32 31  1  0  0  0  0
M  END
>  <MODEL>
7

>  <REMARK>
 VINA RESULT:      -8.7      2.180      2.733
  Name = 
  3 active torsions:
  status: ('A' for Active; 'I' for Inactive)
    1  A    between atoms: C_1  and  C_10
    2  A    between atoms: C_10  and  N_24
    3  A    between atoms: C_16  and  C_32
                            x       y       z     vdW  Elec       q    Type
                         _______ _______ _______ _____ _____    ______ ____

>  <TORSDO>
F 3

$$$$
=
 OpenBabel10262421353D

 32 36  0  0  1  0  0  0  0  0999 V2000
  183.2400  179.0280  141.1300 C   0  0  0  0  0  2  0  0  0  0  0  0
  187.3180  178.0850  143.9100 C   0  0  0  0  0  0  0  0  0  0  0  0
  190.3650  177.6100  139.2660 C   0  0  0  0  0  3  0  0  0  0  0  0
  191.4060  177.3620  140.1510 C   0  0  0  0  0  3  0  0  0  0  0  0
  184.5590  178.7210  143.5680 C   0  0  0  0  0  0  0  0  0  0  0  0
  186.7000  178.0720  142.5660 C   0  0  0  0  0  0  0  0  0  0  0  0
  184.5300  178.2260  141.1380 C   0  0  0  0  0  2  0  0  0  0  0  0
  189.0710  177.7710  139.7550 C   0  0  0  0  0  3  0  0  0  0  0  0
  187.3690  177.9000  141.4270 C   0  0  0  0  0  3  0  0  0  0  0  0
  188.7880  177.6910  141.1250 C   0  0  0  0  0  0  0  0  0  0  0  0
  189.7080  177.2640  143.5150 C   0  0  0  0  0  0  0  0  0  0  0  0
  182.3780  178.4960  144.7250 C   0  0  0  0  0  1  0  0  0  0  0  0
  183.0880  179.0890  143.5130 C   0  0  2  0  0  3  0  0  0  0  0  0
  185.2420  178.3630  142.4610 C   0  0  0  0  0  0  0  0  0  0  0  0
  185.2270  178.8190  144.7950 O   0  0  0  0  0  0  0  0  0  0  0  0
  182.4280  178.6350  142.2770 N   0  0  0  0  0  0  0  0  0  0  0  0
  191.1420  177.2700  141.5150 C   0  0  0  0  0  3  0  0  0  0  0  0
  189.8410  177.4270  142.0400 C   0  0  0  0  0  0  0  0  0  0  0  0
  186.5670  178.4510  144.9500 C   0  0  0  0  0  3  0  0  0  0  0  0
  188.6450  177.5870  144.2560 C   0  0  0  0  0  3  0  0  0  0  0  0
  192.1270  174.6820  145.0190 C   0  0  0  0  0  0  0  0  0  0  0  0
  192.3090  175.2540  146.3610 C   0  0  0  0  0  3  0  0  0  0  0  0
  190.9250  177.1680  145.7340 C   0  0  0  0  0  0  0  0  0  0  0  0
  191.8850  176.8800  148.0030 O   0  0  0  0  0  1  0  0  0  0  0  0
  191.7240  176.4010  146.7090 C   0  0  0  0  0  0  0  0  0  0  0  0
  191.0810  175.2330  144.0980 C   0  0  0  0  0  2  0  0  0  0  0  0
  192.7990  173.6770  144.6710 O   0  0  0  0  0  0  0  0  0  0  0  0
  190.3430  178.2250  146.1010 O   0  0  0  0  0  0  0  0  0  0  0  0
  190.9070  176.7480  144.2800 C   0  0  1  0  0  3  0  0  0  0  0  0
  181.1730  179.3650  142.1490 C   0  0  0  0  0  2  0  0  0  0  0  0
  180.3300  178.7790  141.0270 C   0  0  0  0  0  2  0  0  0  0  0  0
  179.6940  177.4770  141.4710 C   0  0  0  0  0  1  0  0  0  0  0  0
  1  7  1  0  0  0  0
  1 16  1  0  0  0  0
  2 20  1  0  0  0  0
  2 19  2  0  0  0  0
  3  8  2  0  0  0  0
  3  4  1  0  0  0  0
  4 17  2  0  0  0  0
  5 15  1  0  0  0  0
  6  2  1  0  0  0  0
  7 14  1  0  0  0  0
  8 10  1  0  0  0  0
  9  6  2  0  0  0  0
 10  9  1  0  0  0  0
 10 18  2  0  0  0  0
 11 20  2  0  0  0  0
 13  5  1  0  0  0  0
 13 12  1  1  0  0  0
 14  6  1  0  0  0  0
 14  5  2  0  0  0  0
 15 19  1  0  0  0  0
 16 13  1  0  0  0  0
 17 18  1  0  0  0  0
 18 11  1  0  0  0  0
 21 22  1  0  0  0  0
 22 25  2  0  0  0  0
 23 28  2  0  0  0  0
 23 25  1  0  0  0  0
 25 24  1  0  0  0  0
 26 29  1  0  0  0  0
 26 21  1  0  0  0  0
 27 21  2  0  0  0  0
 29 11  1  1  0  0  0
 29 23  1  0  0  0  0
 30 16  1  0  0  0  0
 31 32  1  0  0  0  0
 31 30  1  0  0  0  0
M  END
>  <MODEL>
8

>  <REMARK>
 VINA RESULT:      -8.5      3.260      9.322
  Name = 
  3 active torsions:
  status: ('A' for Active; 'I' for Inactive)
    1  A    between atoms: C_1  and  C_10
    2  A    between atoms: C_10  and  N_24
    3  A    between atoms: C_16  and  C_32
                            x       y       z     vdW  Elec       q    Type
                         _______ _______ _______ _____ _____    ______ ____

>  <TORSDO>
F 3

$$$$
=
 OpenBabel10262421353D

 32 36  0  0  1  0  0  0  0  0999 V2000
  190.7090  177.0640  141.0900 C   0  0  0  0  0  2  0  0  0  0  0  0
  185.9350  178.6280  141.0130 C   0  0  0  0  0  0  0  0  0  0  0  0
  185.7460  178.3020  146.5750 C   0  0  0  0  0  3  0  0  0  0  0  0
  184.4390  178.7390  146.4090 C   0  0  0  0  0  3  0  0  0  0  0  0
  188.4170  177.9570  139.7780 C   0  0  0  0  0  0  0  0  0  0  0  0
  187.0320  178.0210  141.8000 C   0  0  0  0  0  0  0  0  0  0  0  0
  189.3790  176.8990  141.8040 C   0  0  0  0  0  2  0  0  0  0  0  0
  186.5280  178.0310  145.4550 C   0  0  0  0  0  3  0  0  0  0  0  0
  187.0150  177.8610  143.1220 C   0  0  0  0  0  3  0  0  0  0  0  0
  186.0290  178.1900  144.1550 C   0  0  0  0  0  0  0  0  0  0  0  0
  183.9910  178.7990  142.6670 C   0  0  0  0  0  0  0  0  0  0  0  0
  189.3320  177.1490  137.6200 C   0  0  0  0  0  1  0  0  0  0  0  0
  189.6910  177.6550  139.0120 C   0  0  2  0  0  3  0  0  0  0  0  0
  188.2850  177.6470  141.0840 C   0  0  0  0  0  0  0  0  0  0  0  0
  187.3810  178.6280  139.1150 O   0  0  0  0  0  0  0  0  0  0  0  0
  190.5520  176.6740  139.6930 N   0  0  0  0  0  0  0  0  0  0  0  0
  183.9230  178.8940  145.1240 C   0  0  0  0  0  3  0  0  0  0  0  0
  184.6900  178.6250  143.9710 C   0  0  0  0  0  0  0  0  0  0  0  0
  186.1530  178.9000  139.7260 C   0  0  0  0  0  3  0  0  0  0  0  0
  184.5600  178.8290  141.4590 C   0  0  0  0  0  3  0  0  0  0  0  0
  180.3200  178.2730  143.6830 C   0  0  0  0  0  0  0  0  0  0  0  0
  179.6760  178.3560  142.3650 C   0  0  0  0  0  3  0  0  0  0  0  0
  181.8340  178.8730  141.3410 C   0  0  0  0  0  0  0  0  0  0  0  0
  179.7410  178.6290  140.0320 O   0  0  0  0  0  1  0  0  0  0  0  0
  180.3850  178.6060  141.2630 C   0  0  0  0  0  0  0  0  0  0  0  0
  181.8150  178.2110  143.7910 C   0  0  0  0  0  2  0  0  0  0  0  0
  179.6150  178.1750  144.7200 O   0  0  0  0  0  0  0  0  0  0  0  0
  182.4900  179.0610  140.2810 O   0  0  0  0  0  0  0  0  0  0  0  0
  182.4970  179.0360  142.6920 C   0  0  1  0  0  3  0  0  0  0  0  0
  191.8810  176.7610  139.1000 C   0  0  0  0  0  2  0  0  0  0  0  0
  192.1400  175.5640  138.1980 C   0  0  0  0  0  2  0  0  0  0  0  0
  192.9420  175.9830  136.9830 C   0  0  0  0  0  1  0  0  0  0  0  0
  1  7  1  0  0  0  0
  2 20  1  0  0  0  0
  2  6  1  0  0  0  0
  4  3  1  0  0  0  0
  5 14  2  0  0  0  0
  6  9  2  0  0  0  0
  8  3  2  0  0  0  0
  9 10  1  0  0  0  0
 10  8  1  0  0  0  0
 11 18  1  0  0  0  0
 13 12  1  6  0  0  0
 13 16  1  0  0  0  0
 13  5  1  0  0  0  0
 14  6  1  0  0  0  0
 14  7  1  0  0  0  0
 15 19  1  0  0  0  0
 15  5  1  0  0  0  0
 16  1  1  0  0  0  0
 17  4  2  0  0  0  0
 18 10  2  0  0  0  0
 18 17  1  0  0  0  0
 19  2  2  0  0  0  0
 20 11  2  0  0  0  0
 21 26  1  0  0  0  0
 21 27  2  0  0  0  0
 22 21  1  0  0  0  0
 23 29  1  0  0  0  0
 24 25  1  0  0  0  0
 25 23  1  0  0  0  0
 25 22  2  0  0  0  0
 28 23  2  0  0  0  0
 29 11  1  6  0  0  0
 29 26  1  0  0  0  0
 30 16  1  0  0  0  0
 31 30  1  0  0  0  0
 32 31  1  0  0  0  0
M  END
>  <MODEL>
9

>  <REMARK>
 VINA RESULT:      -8.4      2.785      4.621
  Name = 
  3 active torsions:
  status: ('A' for Active; 'I' for Inactive)
    1  A    between atoms: C_1  and  C_10
    2  A    between atoms: C_10  and  N_24
    3  A    between atoms: C_16  and  C_32
                            x       y       z     vdW  Elec       q    Type
                         _______ _______ _______ _____ _____    ______ ____

>  <TORSDO>
F 3

$$$$
