=
 OpenBabel10262421123D

 32 37  0  0  1  0  0  0  0  0999 V2000
  186.4950  178.3750  143.5950 C   0  0  0  0  0  0  0  0  0  0  0  0
  186.5770  178.8370  141.2750 N   0  0  0  0  0  0  0  0  0  0  0  0
  185.6410  178.0400  144.7980 C   0  0  0  0  0  2  0  0  0  0  0  0
  185.8950  178.8090  142.4890 C   0  0  0  0  0  0  0  0  0  0  0  0
  185.5890  178.8170  140.2730 C   0  0  0  0  0  0  0  0  0  0  0  0
  189.8770  177.4200  138.0040 C   0  0  0  0  0  3  0  0  0  0  0  0
  187.8540  178.2570  141.0970 C   0  0  0  0  0  0  0  0  0  0  0  0
  187.5950  177.9360  137.3600 C   0  0  0  0  0  3  0  0  0  0  0  0
  187.2610  178.1690  138.6960 C   0  0  0  0  0  0  0  0  0  0  0  0
  184.4890  178.9130  142.3250 N   0  0  0  0  0  0  0  0  0  0  0  0
  185.8930  178.4890  139.0500 N   0  0  0  0  0  0  0  0  0  0  0  0
  183.5740  178.5540  143.4070 C   0  0  0  0  0  2  0  0  0  0  0  0
  188.5170  177.8480  142.1900 C   0  0  0  0  0  3  0  0  0  0  0  0
  187.8950  177.9860  143.4970 N   0  0  0  0  0  0  0  0  0  0  0  0
  188.2590  178.0160  139.7010 C   0  0  0  0  0  0  0  0  0  0  0  0
  184.2000  178.8960  140.8760 C   0  0  2  0  0  3  0  0  0  0  0  0
  184.2730  178.7500  144.7620 C   0  0  0  0  0  2  0  0  0  0  0  0
  188.9000  177.5690  137.0150 C   0  0  0  0  0  3  0  0  0  0  0  0
  189.5590  177.6390  139.3470 C   0  0  0  0  0  3  0  0  0  0  0  0
  190.6670  176.7550  145.7210 C   0  0  0  0  0  0  0  0  0  0  0  0
  191.9840  176.3160  145.6470 O   0  0  0  0  0  1  0  0  0  0  0  0
  188.0140  177.6160  145.9150 C   0  0  0  0  0  3  0  0  0  0  0  0
  190.0350  176.8080  146.9650 C   0  0  0  0  0  3  0  0  0  0  0  0
  188.6360  177.5820  144.6590 C   0  0  0  0  0  0  0  0  0  0  0  0
  189.9730  177.1360  144.5600 C   0  0  0  0  0  0  0  0  0  0  0  0
  190.6460  177.0200  143.2300 C   0  0  0  0  0  1  0  0  0  0  0  0
  188.7060  177.2340  147.0660 C   0  0  0  0  0  0  0  0  0  0  0  0
  188.2130  178.2480  149.1570 O   0  0  0  0  0  0  0  0  0  0  0  0
  188.0250  177.2890  148.3620 C   0  0  0  0  0  3  0  0  0  0  0  0
  183.3950  177.6520  140.5160 C   0  0  0  0  0  2  0  0  0  0  0  0
  182.0150  178.0130  140.2440 N   0  0  0  0  0  2  0  0  0  0  0  0
  182.0510  179.1960  139.4070 C   0  0  0  0  0  1  0  0  0  0  0  0
  1  3  1  0  0  0  0
  2  4  1  0  0  0  0
  4  1  2  0  0  0  0
  5 16  1  0  0  0  0
  5  2  1  0  0  0  0
  6 19  1  0  0  0  0
  7  2  1  0  0  0  0
  7 13  2  0  0  0  0
  8  9  2  0  0  0  0
  9 11  1  0  0  0  0
  9 15  1  0  0  0  0
 10  4  1  0  0  0  0
 10 12  1  0  0  0  0
 11  5  2  0  0  0  0
 12 17  1  0  0  0  0
 13 14  1  0  0  0  0
 14  1  1  0  0  0  0
 14 24  1  0  0  0  0
 15  7  1  0  0  0  0
 16 30  1  1  0  0  0
 16 10  1  0  0  0  0
 17  3  1  0  0  0  0
 18  8  1  0  0  0  0
 18  6  2  0  0  0  0
 19 15  2  0  0  0  0
 20 23  1  0  0  0  0
 21 20  1  0  0  0  0
 22 27  1  0  0  0  0
 23 27  2  0  0  0  0
 24 22  2  0  0  0  0
 25 24  1  0  0  0  0
 25 20  2  0  0  0  0
 26 25  1  0  0  0  0
 27 29  1  0  0  0  0
 29 28  2  0  0  0  0
 31 30  1  0  0  0  0
 32 31  1  0  0  0  0
M  END
>  <MODEL>
1

>  <REMARK>
 VINA RESULT:     -10.2      0.000      0.000
  Name = 
  4 active torsions:
  status: ('A' for Active; 'I' for Inactive)
    1  A    between atoms: N_13  and  C_18
    2  A    between atoms: C_15  and  C_26
    3  A    between atoms: C_18  and  C_29
    4  A    between atoms: C_20  and  N_27
                            x       y       z     vdW  Elec       q    Type
                         _______ _______ _______ _____ _____    ______ ____

>  <TORSDO>
F 4

$$$$
=
 OpenBabel10262421123D

 32 37  0  0  1  0  0  0  0  0999 V2000
  185.5770  178.5950  139.5600 C   0  0  0  0  0  0  0  0  0  0  0  0
  186.4940  178.8400  141.7280 N   0  0  0  0  0  0  0  0  0  0  0  0
  185.7540  178.0650  138.1540 C   0  0  0  0  0  2  0  0  0  0  0  0
  186.6430  178.6590  140.3560 C   0  0  0  0  0  0  0  0  0  0  0  0
  187.6740  178.3470  142.3150 C   0  0  0  0  0  0  0  0  0  0  0  0
  184.2610  178.5260  146.0310 C   0  0  0  0  0  3  0  0  0  0  0  0
  185.2400  178.7880  142.3800 C   0  0  0  0  0  0  0  0  0  0  0  0
  186.6300  178.0540  145.7960 C   0  0  0  0  0  3  0  0  0  0  0  0
  186.5420  178.2590  144.4160 C   0  0  0  0  0  0  0  0  0  0  0  0
  187.9370  178.1930  140.0060 N   0  0  0  0  0  0  0  0  0  0  0  0
  187.7100  178.0530  143.5840 N   0  0  0  0  0  0  0  0  0  0  0  0
  188.1980  177.6060  138.6920 C   0  0  0  0  0  2  0  0  0  0  0  0
  184.1350  178.7700  141.6170 C   0  0  0  0  0  3  0  0  0  0  0  0
  184.2660  178.7740  140.1690 N   0  0  0  0  0  0  0  0  0  0  0  0
  185.2850  178.5980  143.8410 C   0  0  0  0  0  0  0  0  0  0  0  0
  188.6780  177.9340  141.2570 C   0  0  2  0  0  3  0  0  0  0  0  0
  187.2110  178.1810  137.6640 C   0  0  0  0  0  2  0  0  0  0  0  0
  185.4940  178.1930  146.6010 C   0  0  0  0  0  3  0  0  0  0  0  0
  184.1530  178.7250  144.6520 C   0  0  0  0  0  3  0  0  0  0  0  0
  181.1680  177.6830  138.3360 C   0  0  0  0  0  0  0  0  0  0  0  0
  180.4240  176.5380  138.0790 O   0  0  0  0  0  1  0  0  0  0  0  0
  182.6420  180.0100  138.8170 C   0  0  0  0  0  3  0  0  0  0  0  0
  180.7480  178.9040  137.8040 C   0  0  0  0  0  3  0  0  0  0  0  0
  183.0730  178.7970  139.3700 C   0  0  0  0  0  0  0  0  0  0  0  0
  182.3340  177.6190  139.1180 C   0  0  0  0  0  0  0  0  0  0  0  0
  182.8020  176.2960  139.6330 C   0  0  0  0  0  1  0  0  0  0  0  0
  181.4850  180.0700  138.0380 C   0  0  0  0  0  0  0  0  0  0  0  0
  181.4370  182.4450  137.9940 O   0  0  0  0  0  0  0  0  0  0  0  0
  181.0620  181.3570  137.4820 C   0  0  0  0  0  3  0  0  0  0  0  0
  188.9960  176.4480  141.3800 C   0  0  0  0  0  2  0  0  0  0  0  0
  190.4150  176.2610  141.6250 N   0  0  0  0  0  2  0  0  0  0  0  0
  190.5550  175.9300  143.0300 C   0  0  0  0  0  1  0  0  0  0  0  0
  1 14  1  0  0  0  0
  1  4  2  0  0  0  0
  2  5  1  0  0  0  0
  2  7  1  0  0  0  0
  3  1  1  0  0  0  0
  4  2  1  0  0  0  0
  5 11  2  0  0  0  0
  6 18  1  0  0  0  0
  7 15  1  0  0  0  0
  8 18  2  0  0  0  0
  9  8  1  0  0  0  0
 10  4  1  0  0  0  0
 10 16  1  0  0  0  0
 11  9  1  0  0  0  0
 12 10  1  0  0  0  0
 13  7  2  0  0  0  0
 14 13  1  0  0  0  0
 15  9  2  0  0  0  0
 15 19  1  0  0  0  0
 16 30  1  1  0  0  0
 16  5  1  0  0  0  0
 17  3  1  0  0  0  0
 17 12  1  0  0  0  0
 19  6  2  0  0  0  0
 20 25  1  0  0  0  0
 21 20  1  0  0  0  0
 22 24  1  0  0  0  0
 23 27  1  0  0  0  0
 23 20  2  0  0  0  0
 24 14  1  0  0  0  0
 25 24  2  0  0  0  0
 25 26  1  0  0  0  0
 27 22  2  0  0  0  0
 29 28  2  0  0  0  0
 29 27  1  0  0  0  0
 30 31  1  0  0  0  0
 31 32  1  0  0  0  0
M  END
>  <MODEL>
2

>  <REMARK>
 VINA RESULT:      -9.9      3.810      8.340
  Name = 
  4 active torsions:
  status: ('A' for Active; 'I' for Inactive)
    1  A    between atoms: N_13  and  C_18
    2  A    between atoms: C_15  and  C_26
    3  A    between atoms: C_18  and  C_29
    4  A    between atoms: C_20  and  N_27
                            x       y       z     vdW  Elec       q    Type
                         _______ _______ _______ _____ _____    ______ ____

>  <TORSDO>
F 4

$$$$
=
 OpenBabel10262421123D

 32 37  0  0  1  0  0  0  0  0999 V2000
  186.0960  178.3740  141.8830 C   0  0  0  0  0  0  0  0  0  0  0  0
  187.2820  178.4370  139.8360 N   0  0  0  0  0  0  0  0  0  0  0  0
  184.7630  178.2130  142.5790 C   0  0  0  0  0  2  0  0  0  0  0  0
  186.1080  178.5870  140.5690 C   0  0  0  0  0  0  0  0  0  0  0  0
  186.8820  178.2060  138.5060 C   0  0  0  0  0  0  0  0  0  0  0  0
  191.6670  176.6220  138.7990 C   0  0  0  0  0  3  0  0  0  0  0  0
  188.4650  177.8880  140.3810 C   0  0  0  0  0  0  0  0  0  0  0  0
  189.9830  176.9270  137.0790 C   0  0  0  0  0  3  0  0  0  0  0  0
  189.0700  177.3690  138.0390 C   0  0  0  0  0  0  0  0  0  0  0  0
  184.9510  178.6040  139.7470 N   0  0  0  0  0  0  0  0  0  0  0  0
  187.7110  177.6880  137.6460 N   0  0  0  0  0  0  0  0  0  0  0  0
  183.6190  178.3960  140.3140 C   0  0  0  0  0  2  0  0  0  0  0  0
  188.5160  177.6990  141.7100 C   0  0  0  0  0  3  0  0  0  0  0  0
  187.3590  178.0320  142.5240 N   0  0  0  0  0  0  0  0  0  0  0  0
  189.4690  177.4310  139.4040 C   0  0  0  0  0  0  0  0  0  0  0  0
  185.3780  178.3290  138.3600 C   0  0  2  0  0  3  0  0  0  0  0  0
  183.6060  178.8490  141.7820 C   0  0  0  0  0  2  0  0  0  0  0  0
  191.2790  176.5600  137.4570 C   0  0  0  0  0  3  0  0  0  0  0  0
  190.7640  177.0540  139.7750 C   0  0  0  0  0  3  0  0  0  0  0  0
  188.6650  177.2080  145.9540 C   0  0  0  0  0  0  0  0  0  0  0  0
  189.8070  176.7140  146.5740 O   0  0  0  0  0  1  0  0  0  0  0  0
  186.3440  178.1930  144.7470 C   0  0  0  0  0  3  0  0  0  0  0  0
  187.5610  177.5550  146.7350 C   0  0  0  0  0  3  0  0  0  0  0  0
  187.4470  177.8620  143.9480 C   0  0  0  0  0  0  0  0  0  0  0  0
  188.6160  177.3540  144.5570 C   0  0  0  0  0  0  0  0  0  0  0  0
  189.7860  176.9250  143.7310 C   0  0  0  0  0  1  0  0  0  0  0  0
  186.3960  178.0440  146.1340 C   0  0  0  0  0  0  0  0  0  0  0  0
  184.1700  178.8340  146.3970 O   0  0  0  0  0  0  0  0  0  0  0  0
  185.2250  178.4070  146.9370 C   0  0  0  0  0  3  0  0  0  0  0  0
  184.7840  177.0090  137.8800 C   0  0  0  0  0  2  0  0  0  0  0  0
  184.2120  177.1730  136.5550 N   0  0  0  0  0  2  0  0  0  0  0  0
  182.8260  177.5550  136.7430 C   0  0  0  0  0  1  0  0  0  0  0  0
  1 14  1  0  0  0  0
  1  3  1  0  0  0  0
  2  7  1  0  0  0  0
  2  4  1  0  0  0  0
  4  1  2  0  0  0  0
  5  2  1  0  0  0  0
  6 19  1  0  0  0  0
  7 13  2  0  0  0  0
  8 18  1  0  0  0  0
  8  9  2  0  0  0  0
  9 15  1  0  0  0  0
 10 12  1  0  0  0  0
 10  4  1  0  0  0  0
 11  9  1  0  0  0  0
 11  5  2  0  0  0  0
 12 17  1  0  0  0  0
 13 14  1  0  0  0  0
 14 24  1  0  0  0  0
 15 19  2  0  0  0  0
 15  7  1  0  0  0  0
 16 30  1  1  0  0  0
 16  5  1  0  0  0  0
 16 10  1  0  0  0  0
 17  3  1  0  0  0  0
 18  6  2  0  0  0  0
 20 21  1  0  0  0  0
 20 23  1  0  0  0  0
 22 27  1  0  0  0  0
 24 25  1  0  0  0  0
 24 22  2  0  0  0  0
 25 20  2  0  0  0  0
 26 25  1  0  0  0  0
 27 23  2  0  0  0  0
 27 29  1  0  0  0  0
 28 29  2  0  0  0  0
 31 32  1  0  0  0  0
 31 30  1  0  0  0  0
M  END
>  <MODEL>
3

>  <REMARK>
 VINA RESULT:      -9.6      1.787      2.478
  Name = 
  4 active torsions:
  status: ('A' for Active; 'I' for Inactive)
    1  A    between atoms: N_13  and  C_18
    2  A    between atoms: C_15  and  C_26
    3  A    between atoms: C_18  and  C_29
    4  A    between atoms: C_20  and  N_27
                            x       y       z     vdW  Elec       q    Type
                         _______ _______ _______ _____ _____    ______ ____

>  <TORSDO>
F 4

$$$$
=
 OpenBabel10262421123D

 32 37  0  0  1  0  0  0  0  0999 V2000
  185.4770  178.3200  139.3800 C   0  0  0  0  0  0  0  0  0  0  0  0
  186.8920  178.6700  141.2440 N   0  0  0  0  0  0  0  0  0  0  0  0
  185.3510  177.8600  137.9440 C   0  0  0  0  0  2  0  0  0  0  0  0
  186.6930  178.5480  139.8710 C   0  0  0  0  0  0  0  0  0  0  0  0
  188.2500  178.3740  141.4670 C   0  0  0  0  0  0  0  0  0  0  0  0
  185.9800  177.8790  145.9500 C   0  0  0  0  0  3  0  0  0  0  0  0
  185.8850  178.3880  142.1960 C   0  0  0  0  0  0  0  0  0  0  0  0
  188.2420  177.8280  145.0720 C   0  0  0  0  0  3  0  0  0  0  0  0
  187.7550  178.0460  143.7800 C   0  0  0  0  0  0  0  0  0  0  0  0
  187.9020  178.3200  139.1640 N   0  0  0  0  0  0  0  0  0  0  0  0
  188.6730  178.0630  142.6590 N   0  0  0  0  0  0  0  0  0  0  0  0
  187.8900  177.8170  137.7920 C   0  0  0  0  0  2  0  0  0  0  0  0
  184.6340  178.1970  141.7490 C   0  0  0  0  0  3  0  0  0  0  0  0
  184.3670  178.2560  140.3210 N   0  0  0  0  0  0  0  0  0  0  0  0
  186.3510  178.1760  143.5780 C   0  0  0  0  0  0  0  0  0  0  0  0
  188.9850  178.1640  140.1570 C   0  0  2  0  0  3  0  0  0  0  0  0
  186.5840  178.2360  137.0980 C   0  0  0  0  0  2  0  0  0  0  0  0
  187.3580  177.7510  146.1530 C   0  0  0  0  0  3  0  0  0  0  0  0
  185.4740  178.0880  144.6640 C   0  0  0  0  0  3  0  0  0  0  0  0
  180.9940  178.9460  138.8080 C   0  0  0  0  0  0  0  0  0  0  0  0
  180.2860  179.9720  138.1930 O   0  0  0  0  0  1  0  0  0  0  0  0
  182.3750  176.8580  140.0520 C   0  0  0  0  0  3  0  0  0  0  0  0
  180.3770  177.7070  138.9920 C   0  0  0  0  0  3  0  0  0  0  0  0
  183.0150  178.0910  139.8650 C   0  0  0  0  0  0  0  0  0  0  0  0
  182.3140  179.1490  139.2460 C   0  0  0  0  0  0  0  0  0  0  0  0
  182.9400  180.4980  139.0920 C   0  0  0  0  0  1  0  0  0  0  0  0
  181.0630  176.6610  139.6180 C   0  0  0  0  0  0  0  0  0  0  0  0
  179.4500  175.2240  140.6090 O   0  0  0  0  0  0  0  0  0  0  0  0
  180.4280  175.3570  139.8260 C   0  0  0  0  0  3  0  0  0  0  0  0
  189.5570  176.7530  140.0920 C   0  0  0  0  0  2  0  0  0  0  0  0
  190.9230  176.7920  139.5990 N   0  0  0  0  0  2  0  0  0  0  0  0
  191.7050  177.5000  140.5940 C   0  0  0  0  0  1  0  0  0  0  0  0
  1  4  2  0  0  0  0
  1 14  1  0  0  0  0
  2  5  1  0  0  0  0
  2  7  1  0  0  0  0
  3  1  1  0  0  0  0
  4  2  1  0  0  0  0
  5 11  2  0  0  0  0
  6 18  1  0  0  0  0
  7 15  1  0  0  0  0
  8 18  2  0  0  0  0
  9  8  1  0  0  0  0
 10  4  1  0  0  0  0
 10 16  1  0  0  0  0
 11  9  1  0  0  0  0
 12 10  1  0  0  0  0
 13  7  2  0  0  0  0
 14 13  1  0  0  0  0
 15  9  2  0  0  0  0
 15 19  1  0  0  0  0
 16 30  1  1  0  0  0
 16  5  1  0  0  0  0
 17 12  1  0  0  0  0
 17  3  1  0  0  0  0
 19  6  2  0  0  0  0
 20 23  2  0  0  0  0
 20 25  1  0  0  0  0
 21 20  1  0  0  0  0
 23 27  1  0  0  0  0
 24 22  1  0  0  0  0
 24 14  1  0  0  0  0
 25 24  2  0  0  0  0
 26 25  1  0  0  0  0
 27 29  1  0  0  0  0
 27 22  2  0  0  0  0
 29 28  2  0  0  0  0
 31 30  1  0  0  0  0
 31 32  1  0  0  0  0
M  END
>  <MODEL>
4

>  <REMARK>
 VINA RESULT:      -9.4      3.695      8.019
  Name = 
  4 active torsions:
  status: ('A' for Active; 'I' for Inactive)
    1  A    between atoms: N_13  and  C_18
    2  A    between atoms: C_15  and  C_26
    3  A    between atoms: C_18  and  C_29
    4  A    between atoms: C_20  and  N_27
                            x       y       z     vdW  Elec       q    Type
                         _______ _______ _______ _____ _____    ______ ____

>  <TORSDO>
F 4

$$$$
=
 OpenBabel10262421123D

 32 37  0  0  1  0  0  0  0  0999 V2000
  185.7180  178.6150  139.0120 C   0  0  0  0  0  0  0  0  0  0  0  0
  187.0480  178.6890  140.9680 N   0  0  0  0  0  0  0  0  0  0  0  0
  185.6120  178.2150  137.5570 C   0  0  0  0  0  2  0  0  0  0  0  0
  186.9200  178.6330  139.5820 C   0  0  0  0  0  0  0  0  0  0  0  0
  188.3250  178.1720  141.2610 C   0  0  0  0  0  0  0  0  0  0  0  0
  185.7230  177.9450  145.5820 C   0  0  0  0  0  3  0  0  0  0  0  0
  185.9500  178.5500  141.8480 C   0  0  0  0  0  0  0  0  0  0  0  0
  187.9990  177.5500  144.8380 C   0  0  0  0  0  3  0  0  0  0  0  0
  187.6360  177.8740  143.5280 C   0  0  0  0  0  0  0  0  0  0  0  0
  188.1200  178.2290  138.9410 N   0  0  0  0  0  0  0  0  0  0  0  0
  188.6150  177.7690  142.4650 N   0  0  0  0  0  0  0  0  0  0  0  0
  188.1160  177.7670  137.5540 C   0  0  0  0  0  2  0  0  0  0  0  0
  184.7150  178.5750  141.3220 C   0  0  0  0  0  3  0  0  0  0  0  0
  184.5540  178.7090  139.8830 N   0  0  0  0  0  0  0  0  0  0  0  0
  186.2870  178.2330  143.2470 C   0  0  0  0  0  0  0  0  0  0  0  0
  189.0980  177.8770  139.9910 C   0  0  2  0  0  3  0  0  0  0  0  0
  186.9410  178.4080  136.7980 C   0  0  0  0  0  2  0  0  0  0  0  0
  187.0470  177.5910  145.8620 C   0  0  0  0  0  3  0  0  0  0  0  0
  185.3400  178.2630  144.2760 C   0  0  0  0  0  3  0  0  0  0  0  0
  181.1580  177.7140  138.6080 C   0  0  0  0  0  0  0  0  0  0  0  0
  180.3850  176.5790  138.3970 O   0  0  0  0  0  1  0  0  0  0  0  0
  182.6850  180.0230  139.0030 C   0  0  0  0  0  3  0  0  0  0  0  0
  180.6320  178.9680  138.2870 C   0  0  0  0  0  3  0  0  0  0  0  0
  183.2250  178.7750  139.3420 C   0  0  0  0  0  0  0  0  0  0  0  0
  182.4580  177.6080  139.1330 C   0  0  0  0  0  0  0  0  0  0  0  0
  183.0270  176.2550  139.4190 C   0  0  0  0  0  1  0  0  0  0  0  0
  181.3940  180.1250  138.4790 C   0  0  0  0  0  0  0  0  0  0  0  0
  180.9350  181.9000  136.9680 O   0  0  0  0  0  0  0  0  0  0  0  0
  180.8610  181.4470  138.1410 C   0  0  0  0  0  3  0  0  0  0  0  0
  189.4410  176.3940  139.9120 C   0  0  0  0  0  2  0  0  0  0  0  0
  190.8060  176.2230  139.4470 N   0  0  0  0  0  2  0  0  0  0  0  0
  191.6270  177.1340  140.2200 C   0  0  0  0  0  1  0  0  0  0  0  0
  1  4  2  0  0  0  0
  1 14  1  0  0  0  0
  2  5  1  0  0  0  0
  2  7  1  0  0  0  0
  3  1  1  0  0  0  0
  4  2  1  0  0  0  0
  5 11  2  0  0  0  0
  6 18  1  0  0  0  0
  7 15  1  0  0  0  0
  8 18  2  0  0  0  0
  9  8  1  0  0  0  0
 10  4  1  0  0  0  0
 10 16  1  0  0  0  0
 11  9  1  0  0  0  0
 12 10  1  0  0  0  0
 13  7  2  0  0  0  0
 14 13  1  0  0  0  0
 15  9  2  0  0  0  0
 15 19  1  0  0  0  0
 16 30  1  1  0  0  0
 16  5  1  0  0  0  0
 17 12  1  0  0  0  0
 17  3  1  0  0  0  0
 19  6  2  0  0  0  0
 20 25  1  0  0  0  0
 21 20  1  0  0  0  0
 22 24  1  0  0  0  0
 23 27  1  0  0  0  0
 23 20  2  0  0  0  0
 24 14  1  0  0  0  0
 25 24  2  0  0  0  0
 25 26  1  0  0  0  0
 27 22  2  0  0  0  0
 28 29  2  0  0  0  0
 29 27  1  0  0  0  0
 31 30  1  0  0  0  0
 31 32  1  0  0  0  0
M  END
>  <MODEL>
5

>  <REMARK>
 VINA RESULT:      -9.3      3.872      8.230
  Name = 
  4 active torsions:
  status: ('A' for Active; 'I' for Inactive)
    1  A    between atoms: N_13  and  C_18
    2  A    between atoms: C_15  and  C_26
    3  A    between atoms: C_18  and  C_29
    4  A    between atoms: C_20  and  N_27
                            x       y       z     vdW  Elec       q    Type
                         _______ _______ _______ _____ _____    ______ ____

>  <TORSDO>
F 4

$$$$
=
 OpenBabel10262421123D

 32 37  0  0  1  0  0  0  0  0999 V2000
  185.2770  178.5290  140.4920 C   0  0  0  0  0  0  0  0  0  0  0  0
  187.2150  178.5910  141.8490 N   0  0  0  0  0  0  0  0  0  0  0  0
  184.6820  178.2330  139.1330 C   0  0  0  0  0  2  0  0  0  0  0  0
  186.6000  178.6280  140.6000 C   0  0  0  0  0  0  0  0  0  0  0  0
  188.5440  178.1900  141.6150 C   0  0  0  0  0  0  0  0  0  0  0  0
  187.6990  177.3620  146.5240 C   0  0  0  0  0  3  0  0  0  0  0  0
  186.5220  178.2720  143.0390 C   0  0  0  0  0  0  0  0  0  0  0  0
  189.5750  177.2650  144.9880 C   0  0  0  0  0  3  0  0  0  0  0  0
  188.7430  177.6480  143.9330 C   0  0  0  0  0  0  0  0  0  0  0  0
  187.5140  178.4020  139.5370 N   0  0  0  0  0  0  0  0  0  0  0  0
  189.2770  177.7270  142.5880 N   0  0  0  0  0  0  0  0  0  0  0  0
  187.0420  178.0490  138.1990 C   0  0  0  0  0  2  0  0  0  0  0  0
  185.1810  178.2070  142.9880 C   0  0  0  0  0  3  0  0  0  0  0  0
  184.5030  178.4340  141.7220 N   0  0  0  0  0  0  0  0  0  0  0  0
  187.3620  177.8850  144.1860 C   0  0  0  0  0  0  0  0  0  0  0  0
  188.8270  178.0750  140.1300 C   0  0  2  0  0  3  0  0  0  0  0  0
  185.6310  178.6200  137.9810 C   0  0  0  0  0  2  0  0  0  0  0  0
  189.0560  177.1280  146.2790 C   0  0  0  0  0  3  0  0  0  0  0  0
  186.8490  177.7370  145.4790 C   0  0  0  0  0  3  0  0  0  0  0  0
  180.8970  178.8330  142.7160 C   0  0  0  0  0  0  0  0  0  0  0  0
  180.1240  179.2960  143.7730 O   0  0  0  0  0  1  0  0  0  0  0  0
  182.4150  177.8760  140.5710 C   0  0  0  0  0  3  0  0  0  0  0  0
  180.2650  178.3170  141.5820 C   0  0  0  0  0  3  0  0  0  0  0  0
  183.0670  178.4020  141.6950 C   0  0  0  0  0  0  0  0  0  0  0  0
  182.3010  178.8750  142.7830 C   0  0  0  0  0  0  0  0  0  0  0  0
  182.9620  179.3780  144.0260 C   0  0  0  0  0  1  0  0  0  0  0  0
  181.0210  177.8330  140.5090 C   0  0  0  0  0  0  0  0  0  0  0  0
  180.4390  176.0540  139.0450 O   0  0  0  0  0  0  0  0  0  0  0  0
  180.3740  177.2830  139.3160 C   0  0  0  0  0  3  0  0  0  0  0  0
  189.2210  176.6460  139.7750 C   0  0  0  0  0  2  0  0  0  0  0  0
  190.6470  176.5750  139.5070 N   0  0  0  0  0  2  0  0  0  0  0  0
  190.8120  176.7530  138.0780 C   0  0  0  0  0  1  0  0  0  0  0  0
  1  4  2  0  0  0  0
  1 14  1  0  0  0  0
  2  7  1  0  0  0  0
  3  1  1  0  0  0  0
  4  2  1  0  0  0  0
  5  2  1  0  0  0  0
  5 11  2  0  0  0  0
  7 15  1  0  0  0  0
  8 18  2  0  0  0  0
  9 15  2  0  0  0  0
  9  8  1  0  0  0  0
 10 16  1  0  0  0  0
 10  4  1  0  0  0  0
 11  9  1  0  0  0  0
 12 10  1  0  0  0  0
 13  7  2  0  0  0  0
 14 13  1  0  0  0  0
 15 19  1  0  0  0  0
 16 30  1  1  0  0  0
 16  5  1  0  0  0  0
 17 12  1  0  0  0  0
 17  3  1  0  0  0  0
 18  6  1  0  0  0  0
 19  6  2  0  0  0  0
 20 25  1  0  0  0  0
 20 21  1  0  0  0  0
 22 24  1  0  0  0  0
 23 20  2  0  0  0  0
 24 14  1  0  0  0  0
 24 25  2  0  0  0  0
 25 26  1  0  0  0  0
 27 22  2  0  0  0  0
 27 23  1  0  0  0  0
 28 29  2  0  0  0  0
 29 27  1  0  0  0  0
 31 30  1  0  0  0  0
 32 31  1  0  0  0  0
M  END
>  <MODEL>
6

>  <REMARK>
 VINA RESULT:      -8.9      3.289      7.484
  Name = 
  4 active torsions:
  status: ('A' for Active; 'I' for Inactive)
    1  A    between atoms: N_13  and  C_18
    2  A    between atoms: C_15  and  C_26
    3  A    between atoms: C_18  and  C_29
    4  A    between atoms: C_20  and  N_27
                            x       y       z     vdW  Elec       q    Type
                         _______ _______ _______ _____ _____    ______ ____

>  <TORSDO>
F 4

$$$$
=
 OpenBabel10262421123D

 32 37  0  0  1  0  0  0  0  0999 V2000
  187.9080  177.6100  141.1930 C   0  0  0  0  0  0  0  0  0  0  0  0
  187.3300  177.3080  143.4680 N   0  0  0  0  0  0  0  0  0  0  0  0
  187.5700  178.2530  139.8670 C   0  0  0  0  0  2  0  0  0  0  0  0
  186.9840  177.6000  142.1510 C   0  0  0  0  0  0  0  0  0  0  0  0
  186.3220  177.8780  144.2690 C   0  0  0  0  0  0  0  0  0  0  0  0
  190.2450  177.0860  147.3480 C   0  0  0  0  0  3  0  0  0  0  0  0
  188.6700  177.1850  143.9030 C   0  0  0  0  0  0  0  0  0  0  0  0
  187.9380  177.8150  147.5370 C   0  0  0  0  0  3  0  0  0  0  0  0
  187.7790  177.7000  146.1530 C   0  0  0  0  0  0  0  0  0  0  0  0
  185.7110  178.2200  142.0470 N   0  0  0  0  0  0  0  0  0  0  0  0
  186.5230  178.0830  145.5400 N   0  0  0  0  0  0  0  0  0  0  0  0
  185.3120  178.9220  140.8290 C   0  0  0  0  0  2  0  0  0  0  0  0
  189.6320  177.1430  142.9680 C   0  0  0  0  0  3  0  0  0  0  0  0
  189.2710  177.2540  141.5640 N   0  0  0  0  0  0  0  0  0  0  0  0
  188.8820  177.2750  145.3590 C   0  0  0  0  0  0  0  0  0  0  0  0
  185.2150  178.4650  143.4170 C   0  0  2  0  0  3  0  0  0  0  0  0
  186.0490  178.3220  139.6210 C   0  0  0  0  0  2  0  0  0  0  0  0
  189.1640  177.5030  148.1320 C   0  0  0  0  0  3  0  0  0  0  0  0
  190.1070  176.9740  145.9610 C   0  0  0  0  0  3  0  0  0  0  0  0
  192.6510  177.3070  139.9140 C   0  0  0  0  0  0  0  0  0  0  0  0
  193.9870  177.5410  140.2180 O   0  0  0  0  0  1  0  0  0  0  0  0
  189.9740  176.8430  139.2550 C   0  0  0  0  0  3  0  0  0  0  0  0
  192.2970  176.9730  138.6050 C   0  0  0  0  0  3  0  0  0  0  0  0
  190.3110  177.1650  140.5770 C   0  0  0  0  0  0  0  0  0  0  0  0
  191.6620  177.4110  140.9070 C   0  0  0  0  0  0  0  0  0  0  0  0
  192.0500  177.8240  142.2910 C   0  0  0  0  0  1  0  0  0  0  0  0
  190.9590  176.7440  138.2700 C   0  0  0  0  0  0  0  0  0  0  0  0
  189.6480  175.5700  136.6730 O   0  0  0  0  0  0  0  0  0  0  0  0
  190.5700  176.3990  136.9010 C   0  0  0  0  0  3  0  0  0  0  0  0
  185.0910  179.9640  143.6690 C   0  0  0  0  0  2  0  0  0  0  0  0
  183.8370  180.2530  144.3430 N   0  0  0  0  0  2  0  0  0  0  0  0
  182.9350  179.1610  144.0320 C   0  0  0  0  0  1  0  0  0  0  0  0
  1 14  1  0  0  0  0
  1  4  2  0  0  0  0
  2  7  1  0  0  0  0
  2  5  1  0  0  0  0
  3  1  1  0  0  0  0
  4  2  1  0  0  0  0
  5 11  2  0  0  0  0
  6 18  1  0  0  0  0
  7 15  1  0  0  0  0
  8 18  2  0  0  0  0
  9  8  1  0  0  0  0
 10  4  1  0  0  0  0
 10 16  1  0  0  0  0
 11  9  1  0  0  0  0
 12 10  1  0  0  0  0
 13  7  2  0  0  0  0
 14 13  1  0  0  0  0
 15 19  1  0  0  0  0
 15  9  2  0  0  0  0
 16 30  1  1  0  0  0
 16  5  1  0  0  0  0
 17  3  1  0  0  0  0
 17 12  1  0  0  0  0
 19  6  2  0  0  0  0
 20 21  1  0  0  0  0
 20 25  1  0  0  0  0
 22 24  1  0  0  0  0
 23 20  2  0  0  0  0
 24 25  2  0  0  0  0
 24 14  1  0  0  0  0
 25 26  1  0  0  0  0
 27 23  1  0  0  0  0
 27 22  2  0  0  0  0
 28 29  2  0  0  0  0
 29 27  1  0  0  0  0
 30 31  1  0  0  0  0
 32 31  1  0  0  0  0
M  END
>  <MODEL>
7

>  <REMARK>
 VINA RESULT:      -8.8      2.676      6.401
  Name = 
  4 active torsions:
  status: ('A' for Active; 'I' for Inactive)
    1  A    between atoms: N_13  and  C_18
    2  A    between atoms: C_15  and  C_26
    3  A    between atoms: C_18  and  C_29
    4  A    between atoms: C_20  and  N_27
                            x       y       z     vdW  Elec       q    Type
                         _______ _______ _______ _____ _____    ______ ____

>  <TORSDO>
F 4

$$$$
=
 OpenBabel10262421123D

 32 37  0  0  1  0  0  0  0  0999 V2000
  186.5140  178.4220  140.5220 C   0  0  0  0  0  0  0  0  0  0  0  0
  188.7490  178.1670  141.2560 N   0  0  0  0  0  0  0  0  0  0  0  0
  185.5140  178.2520  139.3990 C   0  0  0  0  0  2  0  0  0  0  0  0
  187.8110  178.3260  140.2390 C   0  0  0  0  0  0  0  0  0  0  0  0
  189.8800  177.5850  140.6530 C   0  0  0  0  0  0  0  0  0  0  0  0
  190.3820  176.7530  145.6080 C   0  0  0  0  0  3  0  0  0  0  0  0
  188.3910  177.9180  142.6010 C   0  0  0  0  0  0  0  0  0  0  0  0
  191.6970  176.4290  143.5940 C   0  0  0  0  0  3  0  0  0  0  0  0
  190.6600  176.9570  142.8210 C   0  0  0  0  0  0  0  0  0  0  0  0
  188.3340  178.0010  138.9600 N   0  0  0  0  0  0  0  0  0  0  0  0
  190.7880  176.9950  141.3780 N   0  0  0  0  0  0  0  0  0  0  0  0
  187.4490  177.7570  137.8230 C   0  0  0  0  0  2  0  0  0  0  0  0
  187.0990  178.0490  142.9420 C   0  0  0  0  0  3  0  0  0  0  0  0
  186.1240  178.4060  141.9250 N   0  0  0  0  0  0  0  0  0  0  0  0
  189.4620  177.3830  143.4610 C   0  0  0  0  0  0  0  0  0  0  0  0
  189.7000  177.4720  139.1520 C   0  0  2  0  0  3  0  0  0  0  0  0
  186.1350  178.5300  138.0150 C   0  0  0  0  0  2  0  0  0  0  0  0
  191.5610  176.3320  144.9830 C   0  0  0  0  0  3  0  0  0  0  0  0
  189.3300  177.2750  144.8490 C   0  0  0  0  0  3  0  0  0  0  0  0
  183.0490  179.0290  144.0000 C   0  0  0  0  0  0  0  0  0  0  0  0
  182.6810  179.3020  145.3120 O   0  0  0  0  0  1  0  0  0  0  0  0
  183.7440  178.4640  141.3510 C   0  0  0  0  0  3  0  0  0  0  0  0
  182.0580  178.9200  143.0210 C   0  0  0  0  0  3  0  0  0  0  0  0
  184.7530  178.5820  142.3170 C   0  0  0  0  0  0  0  0  0  0  0  0
  184.4010  178.8560  143.6570 C   0  0  0  0  0  0  0  0  0  0  0  0
  185.4440  178.9200  144.7260 C   0  0  0  0  0  1  0  0  0  0  0  0
  182.4020  178.6330  141.6960 C   0  0  0  0  0  0  0  0  0  0  0  0
  180.1500  178.6020  140.9370 O   0  0  0  0  0  0  0  0  0  0  0  0
  181.3750  178.5090  140.6580 C   0  0  0  0  0  3  0  0  0  0  0  0
  189.7620  176.0110  138.7190 C   0  0  0  0  0  2  0  0  0  0  0  0
  191.1200  175.6600  138.3430 N   0  0  0  0  0  2  0  0  0  0  0  0
  191.3360  176.2010  137.0150 C   0  0  0  0  0  1  0  0  0  0  0  0
  1 14  1  0  0  0  0
  2  7  1  0  0  0  0
  3  1  1  0  0  0  0
  4  1  2  0  0  0  0
  4  2  1  0  0  0  0
  5  2  1  0  0  0  0
  5 11  2  0  0  0  0
  7 13  2  0  0  0  0
  7 15  1  0  0  0  0
  8 18  2  0  0  0  0
  9 15  2  0  0  0  0
  9  8  1  0  0  0  0
 10 16  1  0  0  0  0
 10  4  1  0  0  0  0
 11  9  1  0  0  0  0
 12 17  1  0  0  0  0
 12 10  1  0  0  0  0
 14 24  1  0  0  0  0
 14 13  1  0  0  0  0
 15 19  1  0  0  0  0
 16 30  1  1  0  0  0
 16  5  1  0  0  0  0
 17  3  1  0  0  0  0
 18  6  1  0  0  0  0
 19  6  2  0  0  0  0
 20 21  1  0  0  0  0
 22 27  2  0  0  0  0
 22 24  1  0  0  0  0
 23 20  2  0  0  0  0
 24 25  2  0  0  0  0
 25 20  1  0  0  0  0
 25 26  1  0  0  0  0
 27 23  1  0  0  0  0
 29 28  2  0  0  0  0
 29 27  1  0  0  0  0
 31 30  1  0  0  0  0
 32 31  1  0  0  0  0
M  END
>  <MODEL>
8

>  <REMARK>
 VINA RESULT:      -8.8      2.928      6.757
  Name = 
  4 active torsions:
  status: ('A' for Active; 'I' for Inactive)
    1  A    between atoms: N_13  and  C_18
    2  A    between atoms: C_15  and  C_26
    3  A    between atoms: C_18  and  C_29
    4  A    between atoms: C_20  and  N_27
                            x       y       z     vdW  Elec       q    Type
                         _______ _______ _______ _____ _____    ______ ____

>  <TORSDO>
F 4

$$$$
=
 OpenBabel10262421123D

 32 37  0  0  1  0  0  0  0  0999 V2000
  189.1430  177.0790  143.5690 C   0  0  0  0  0  0  0  0  0  0  0  0
  189.0180  176.8220  141.2190 N   0  0  0  0  0  0  0  0  0  0  0  0
  190.0230  177.2440  144.7880 C   0  0  0  0  0  2  0  0  0  0  0  0
  189.7040  176.6950  142.4240 C   0  0  0  0  0  0  0  0  0  0  0  0
  190.0030  176.8500  140.2130 C   0  0  0  0  0  0  0  0  0  0  0  0
  185.8300  178.7630  138.1090 C   0  0  0  0  0  3  0  0  0  0  0  0
  187.7900  177.5140  141.1020 C   0  0  0  0  0  0  0  0  0  0  0  0
  188.0630  178.1270  137.4030 C   0  0  0  0  0  3  0  0  0  0  0  0
  188.3820  177.7570  138.7120 C   0  0  0  0  0  0  0  0  0  0  0  0
  191.0970  176.4960  142.2390 N   0  0  0  0  0  0  0  0  0  0  0  0
  189.7220  177.3030  139.0250 N   0  0  0  0  0  0  0  0  0  0  0  0
  192.0400  176.6910  143.3390 C   0  0  0  0  0  2  0  0  0  0  0  0
  187.1640  177.8790  142.2320 C   0  0  0  0  0  3  0  0  0  0  0  0
  187.7770  177.5820  143.5170 N   0  0  0  0  0  0  0  0  0  0  0  0
  187.4010  177.9020  139.7350 C   0  0  0  0  0  0  0  0  0  0  0  0
  191.3830  176.6130  140.7940 C   0  0  2  0  0  3  0  0  0  0  0  0
  191.3320  176.4360  144.6790 C   0  0  0  0  0  2  0  0  0  0  0  0
  186.7910  178.6230  137.1020 C   0  0  0  0  0  3  0  0  0  0  0  0
  186.1340  178.4070  139.4260 C   0  0  0  0  0  3  0  0  0  0  0  0
  185.0650  178.6960  145.8740 C   0  0  0  0  0  0  0  0  0  0  0  0
  183.7360  179.1020  145.8610 O   0  0  0  0  0  1  0  0  0  0  0  0
  187.7440  177.8990  145.9450 C   0  0  0  0  0  3  0  0  0  0  0  0
  185.7480  178.6340  147.0910 C   0  0  0  0  0  3  0  0  0  0  0  0
  187.0720  177.9440  144.7160 C   0  0  0  0  0  0  0  0  0  0  0  0
  185.7220  178.3570  144.6790 C   0  0  0  0  0  0  0  0  0  0  0  0
  184.9940  178.4830  143.3780 C   0  0  0  0  0  1  0  0  0  0  0  0
  187.0900  178.2400  147.1300 C   0  0  0  0  0  0  0  0  0  0  0  0
  189.0660  178.3720  148.4420 O   0  0  0  0  0  0  0  0  0  0  0  0
  187.8230  178.1760  148.3960 C   0  0  0  0  0  3  0  0  0  0  0  0
  192.2810  177.8170  140.5330 C   0  0  0  0  0  2  0  0  0  0  0  0
  193.5210  177.3870  139.9110 N   0  0  0  0  0  2  0  0  0  0  0  0
  193.1550  176.6700  138.7050 C   0  0  0  0  0  1  0  0  0  0  0  0
  1  3  1  0  0  0  0
  2  4  1  0  0  0  0
  4  1  2  0  0  0  0
  5 16  1  0  0  0  0
  5  2  1  0  0  0  0
  6 19  1  0  0  0  0
  7  2  1  0  0  0  0
  7 13  2  0  0  0  0
  8  9  2  0  0  0  0
  9 11  1  0  0  0  0
  9 15  1  0  0  0  0
 10  4  1  0  0  0  0
 10 12  1  0  0  0  0
 11  5  2  0  0  0  0
 12 17  1  0  0  0  0
 13 14  1  0  0  0  0
 14  1  1  0  0  0  0
 14 24  1  0  0  0  0
 15  7  1  0  0  0  0
 16 30  1  1  0  0  0
 16 10  1  0  0  0  0
 17  3  1  0  0  0  0
 18  8  1  0  0  0  0
 18  6  2  0  0  0  0
 19 15  2  0  0  0  0
 20 23  1  0  0  0  0
 21 20  1  0  0  0  0
 22 27  1  0  0  0  0
 23 27  2  0  0  0  0
 24 22  2  0  0  0  0
 25 24  1  0  0  0  0
 25 20  2  0  0  0  0
 26 25  1  0  0  0  0
 27 29  1  0  0  0  0
 29 28  2  0  0  0  0
 31 30  1  0  0  0  0
 32 31  1  0  0  0  0
M  END
>  <MODEL>
9

>  <REMARK>
 VINA RESULT:      -8.8      2.345      5.337
  Name = 
  4 active torsions:
  status: ('A' for Active; 'I' for Inactive)
    1  A    between atoms: N_13  and  C_18
    2  A    between atoms: C_15  and  C_26
    3  A    between atoms: C_18  and  C_29
    4  A    between atoms: C_20  and  N_27
                            x       y       z     vdW  Elec       q    Type
                         _______ _______ _______ _____ _____    ______ ____

>  <TORSDO>
F 4

$$$$
