=
 OpenBabel10262421423D

 32 34  0  0  1  0  0  0  0  0999 V2000
  187.4590  176.8110  137.9850 O   0  0  0  0  0  0  0  0  0  0  0  0
  187.8630  176.0060  135.7890 C   0  0  0  0  0  0  0  0  0  0  0  0
  187.6610  174.5520  135.6800 C   0  0  0  0  0  0  0  0  0  0  0  0
  187.6880  177.9190  140.0790 C   0  0  1  0  0  3  0  0  0  0  0  0
  189.9670  176.8980  140.3830 C   0  0  0  0  0  2  0  0  0  0  0  0
  187.2930  171.7820  135.5280 C   0  0  0  0  0  3  0  0  0  0  0  0
  191.1420  177.3620  139.5440 C   0  0  0  0  0  2  0  0  0  0  0  0
  191.6660  176.2260  138.6610 C   0  0  1  0  0  3  0  0  0  0  0  0
  189.5340  175.6710  137.6650 C   0  0  2  0  0  3  0  0  0  0  0  0
  186.5330  172.6370  134.7180 C   0  0  0  0  0  3  0  0  0  0  0  0
  189.0700  178.0790  140.7340 C   0  0  2  0  0  3  0  0  0  0  0  0
  186.7170  174.0210  134.7940 C   0  0  0  0  0  3  0  0  0  0  0  0
  186.8130  178.8920  140.5610 O   0  0  0  0  0  1  0  0  0  0  0  0
  190.8970  176.1730  137.3940 N   0  0  0  0  0  0  0  0  0  0  0  0
  189.3570  174.2300  137.4300 N   0  0  0  0  0  2  0  0  0  0  0  0
  187.7780  178.0420  138.5640 C   0  0  0  0  0  2  0  0  0  0  0  0
  187.4630  176.7800  134.8770 O   0  0  0  0  0  0  0  0  0  0  0  0
  188.2310  172.3120  136.4170 C   0  0  0  0  0  3  0  0  0  0  0  0
  188.4610  176.5770  137.0430 C   0  0  2  0  0  3  0  0  0  0  0  0
  188.4160  173.6950  136.4950 C   0  0  0  0  0  0  0  0  0  0  0  0
  193.6780  177.2290  139.4890 O   0  0  0  0  0  1  0  0  0  0  0  0
  193.1570  176.4790  138.4330 C   0  0  0  0  0  2  0  0  0  0  0  0
  191.3770  176.1720  134.9190 C   0  0  0  0  0  1  0  0  0  0  0  0
  191.5600  175.4770  136.2680 C   0  0  0  0  0  2  0  0  0  0  0  0
  188.9290  178.1410  142.1260 O   0  0  0  0  0  0  0  0  0  0  0  0
  188.6930  176.8230  142.5280 C   0  0  0  0  0  2  0  0  0  0  0  0
  188.2640  176.8070  143.9810 C   0  0  0  0  0  2  0  0  0  0  0  0
  186.9500  177.5510  144.1460 C   0  0  0  0  0  2  0  0  0  0  0  0
  186.5250  177.5830  145.6060 C   0  0  0  0  0  2  0  0  0  0  0  0
  185.5460  178.6730  145.8560 C   0  0  0  0  0  0  0  0  0  0  0  0
  185.6290  179.4230  147.0200 O   0  0  0  0  0  1  0  0  0  0  0  0
  184.6350  178.9040  145.0210 O   0  0  0  0  0  0  0  0  0  0  0  0
  1 16  1  0  0  0  0
  3  2  1  0  0  0  0
  3 20  1  0  0  0  0
  4 13  1  1  0  0  0
  4 11  1  0  0  0  0
  5 11  1  0  0  0  0
  6 18  1  0  0  0  0
  7  5  1  0  0  0  0
  8 22  1  6  0  0  0
  8  7  1  0  0  0  0
  9 15  1  6  0  0  0
 10 12  1  0  0  0  0
 10  6  2  0  0  0  0
 11 25  1  1  0  0  0
 12  3  2  0  0  0  0
 14  9  1  0  0  0  0
 14  8  1  0  0  0  0
 16  4  1  0  0  0  0
 17  2  2  0  0  0  0
 18 20  2  0  0  0  0
 19  2  1  6  0  0  0
 19  9  1  0  0  0  0
 19  1  1  0  0  0  0
 20 15  1  0  0  0  0
 22 21  1  0  0  0  0
 23 24  1  0  0  0  0
 24 14  1  0  0  0  0
 25 26  1  0  0  0  0
 26 27  1  0  0  0  0
 27 28  1  0  0  0  0
 28 29  1  0  0  0  0
 29 30  1  0  0  0  0
 30 31  1  0  0  0  0
 32 30  2  0  0  0  0
M  END
>  <MODEL>
1

>  <REMARK>
 VINA RESULT:      -6.8      0.000      0.000
  Name = 
  8 active torsions:
  status: ('A' for Active; 'I' for Inactive)
    1  A    between atoms: C_1  and  C_10
    2  A    between atoms: C_2  and  C_19
    3  A    between atoms: C_2  and  C_24
    4  A    between atoms: C_10  and  C_24
    5  A    between atoms: O_12  and  C_19
    6  A    between atoms: O_12  and  C_21
    7  A    between atoms: C_13  and  C_15
    8  A    between atoms: C_25  and  N_26
                            x       y       z     vdW  Elec       q    Type
                         _______ _______ _______ _____ _____    ______ ____

>  <TORSDO>
F 8

$$$$
=
 OpenBabel10262421423D

 32 34  0  0  1  0  0  0  0  0999 V2000
  187.4940  176.8470  138.0070 O   0  0  0  0  0  0  0  0  0  0  0  0
  187.6700  176.1040  135.7600 C   0  0  0  0  0  0  0  0  0  0  0  0
  187.3810  174.6680  135.6210 C   0  0  0  0  0  0  0  0  0  0  0  0
  187.9560  177.8630  140.1100 C   0  0  1  0  0  3  0  0  0  0  0  0
  190.1930  176.7150  140.1860 C   0  0  0  0  0  2  0  0  0  0  0  0
  186.8500  171.9290  135.4090 C   0  0  0  0  0  3  0  0  0  0  0  0
  191.3180  177.1490  139.2660 C   0  0  0  0  0  2  0  0  0  0  0  0
  191.7040  176.0200  138.3050 C   0  0  1  0  0  3  0  0  0  0  0  0
  189.4700  175.6140  137.4760 C   0  0  2  0  0  3  0  0  0  0  0  0
  186.0730  172.8510  134.6950 C   0  0  0  0  0  3  0  0  0  0  0  0
  189.3930  177.9270  140.6500 C   0  0  2  0  0  3  0  0  0  0  0  0
  186.3390  174.2200  134.8000 C   0  0  0  0  0  3  0  0  0  0  0  0
  187.1780  178.8610  140.6950 O   0  0  0  0  0  1  0  0  0  0  0  0
  190.8310  176.0540  137.1060 N   0  0  0  0  0  0  0  0  0  0  0  0
  189.1950  174.1940  137.2090 N   0  0  0  0  0  2  0  0  0  0  0  0
  187.9260  178.0380  138.5980 C   0  0  0  0  0  2  0  0  0  0  0  0
  187.2390  176.9310  134.9110 O   0  0  0  0  0  0  0  0  0  0  0  0
  187.8860  172.3750  136.2330 C   0  0  0  0  0  3  0  0  0  0  0  0
  188.4000  176.5960  136.9760 C   0  0  2  0  0  3  0  0  0  0  0  0
  188.1520  173.7430  136.3400 C   0  0  0  0  0  0  0  0  0  0  0  0
  193.8640  176.7300  139.0590 O   0  0  0  0  0  1  0  0  0  0  0  0
  193.1830  176.2040  137.9600 C   0  0  0  0  0  2  0  0  0  0  0  0
  191.1760  176.1590  134.6120 C   0  0  0  0  0  1  0  0  0  0  0  0
  191.3590  175.3670  135.9070 C   0  0  0  0  0  2  0  0  0  0  0  0
  189.3720  177.9440  142.0500 O   0  0  0  0  0  0  0  0  0  0  0  0
  189.0860  176.6280  142.4280 C   0  0  0  0  0  2  0  0  0  0  0  0
  188.3790  176.6290  143.7670 C   0  0  0  0  0  2  0  0  0  0  0  0
  188.9640  177.7030  144.6670 C   0  0  0  0  0  2  0  0  0  0  0  0
  189.6770  177.0830  145.8590 C   0  0  0  0  0  2  0  0  0  0  0  0
  191.1530  177.1820  145.7130 C   0  0  0  0  0  0  0  0  0  0  0  0
  191.9780  176.7820  146.7520 O   0  0  0  0  0  1  0  0  0  0  0  0
  191.6510  177.6430  144.6540 O   0  0  0  0  0  0  0  0  0  0  0  0
  1 16  1  0  0  0  0
  3  2  1  0  0  0  0
  3 20  1  0  0  0  0
  4 11  1  0  0  0  0
  4 13  1  1  0  0  0
  5 11  1  0  0  0  0
  6 18  1  0  0  0  0
  7  5  1  0  0  0  0
  8 22  1  6  0  0  0
  8  7  1  0  0  0  0
  9 15  1  6  0  0  0
 10 12  1  0  0  0  0
 10  6  2  0  0  0  0
 11 25  1  1  0  0  0
 12  3  2  0  0  0  0
 14  9  1  0  0  0  0
 14  8  1  0  0  0  0
 16  4  1  0  0  0  0
 17  2  2  0  0  0  0
 18 20  2  0  0  0  0
 19  2  1  6  0  0  0
 19  9  1  0  0  0  0
 19  1  1  0  0  0  0
 20 15  1  0  0  0  0
 22 21  1  0  0  0  0
 23 24  1  0  0  0  0
 24 14  1  0  0  0  0
 25 26  1  0  0  0  0
 26 27  1  0  0  0  0
 27 28  1  0  0  0  0
 28 29  1  0  0  0  0
 30 29  1  0  0  0  0
 30 31  1  0  0  0  0
 32 30  2  0  0  0  0
M  END
>  <MODEL>
2

>  <REMARK>
 VINA RESULT:      -6.8      1.712      2.168
  Name = 
  8 active torsions:
  status: ('A' for Active; 'I' for Inactive)
    1  A    between atoms: C_1  and  C_10
    2  A    between atoms: C_2  and  C_19
    3  A    between atoms: C_2  and  C_24
    4  A    between atoms: C_10  and  C_24
    5  A    between atoms: O_12  and  C_19
    6  A    between atoms: O_12  and  C_21
    7  A    between atoms: C_13  and  C_15
    8  A    between atoms: C_25  and  N_26
                            x       y       z     vdW  Elec       q    Type
                         _______ _______ _______ _____ _____    ______ ____

>  <TORSDO>
F 8

$$$$
=
 OpenBabel10262421423D

 32 34  0  0  1  0  0  0  0  0999 V2000
  187.4390  176.7560  137.8970 O   0  0  0  0  0  0  0  0  0  0  0  0
  187.8380  175.9190  135.7130 C   0  0  0  0  0  0  0  0  0  0  0  0
  187.6470  174.4620  135.6270 C   0  0  0  0  0  0  0  0  0  0  0  0
  187.6710  177.8980  139.9730 C   0  0  1  0  0  3  0  0  0  0  0  0
  189.9590  176.8990  140.2810 C   0  0  0  0  0  2  0  0  0  0  0  0
  187.2980  171.6870  135.5200 C   0  0  0  0  0  3  0  0  0  0  0  0
  191.1260  177.3580  139.4280 C   0  0  0  0  0  2  0  0  0  0  0  0
  191.6540  176.2120  138.5610 C   0  0  1  0  0  3  0  0  0  0  0  0
  189.5210  175.6260  137.5850 C   0  0  2  0  0  3  0  0  0  0  0  0
  186.5270  172.5240  134.7010 C   0  0  0  0  0  3  0  0  0  0  0  0
  189.0540  178.0790  140.6180 C   0  0  2  0  0  3  0  0  0  0  0  0
  186.7020  173.9100  134.7540 C   0  0  0  0  0  3  0  0  0  0  0  0
  186.7910  178.8720  140.4430 O   0  0  0  0  0  1  0  0  0  0  0  0
  190.8790  176.1330  137.2980 N   0  0  0  0  0  0  0  0  0  0  0  0
  189.3530  174.1800  137.3730 N   0  0  0  0  0  2  0  0  0  0  0  0
  187.7520  177.9980  138.4560 C   0  0  0  0  0  2  0  0  0  0  0  0
  187.4280  176.6750  134.7910 O   0  0  0  0  0  0  0  0  0  0  0  0
  188.2370  172.2380  136.3970 C   0  0  0  0  0  3  0  0  0  0  0  0
  188.4380  176.5140  136.9540 C   0  0  2  0  0  3  0  0  0  0  0  0
  188.4110  173.6230  136.4520 C   0  0  0  0  0  0  0  0  0  0  0  0
  193.6900  177.1360  139.4200 O   0  0  0  0  0  1  0  0  0  0  0  0
  193.1420  176.4720  138.3210 C   0  0  0  0  0  2  0  0  0  0  0  0
  191.3590  176.1050  134.8240 C   0  0  0  0  0  1  0  0  0  0  0  0
  191.5410  175.4240  136.1810 C   0  0  0  0  0  2  0  0  0  0  0  0
  188.9200  178.1620  142.0090 O   0  0  0  0  0  0  0  0  0  0  0  0
  188.7920  176.8380  142.4430 C   0  0  0  0  0  2  0  0  0  0  0  0
  187.9120  176.7940  143.6760 C   0  0  0  0  0  2  0  0  0  0  0  0
  188.6320  177.4270  144.8540 C   0  0  0  0  0  2  0  0  0  0  0  0
  187.6990  177.5660  146.0480 C   0  0  0  0  0  2  0  0  0  0  0  0
  188.4120  177.2870  147.3220 C   0  0  0  0  0  0  0  0  0  0  0  0
  189.5970  176.5670  147.3080 O   0  0  0  0  0  0  0  0  0  0  0  0
  187.9320  177.6900  148.4120 O   0  0  0  0  0  1  0  0  0  0  0  0
  1 16  1  0  0  0  0
  3  2  1  0  0  0  0
  3 20  1  0  0  0  0
  4 13  1  1  0  0  0
  4 11  1  0  0  0  0
  5 11  1  0  0  0  0
  6 18  1  0  0  0  0
  7  5  1  0  0  0  0
  8 22  1  6  0  0  0
  8  7  1  0  0  0  0
  9 15  1  6  0  0  0
 10 12  1  0  0  0  0
 10  6  2  0  0  0  0
 11 25  1  1  0  0  0
 12  3  2  0  0  0  0
 14  9  1  0  0  0  0
 14  8  1  0  0  0  0
 16  4  1  0  0  0  0
 17  2  2  0  0  0  0
 18 20  2  0  0  0  0
 19  2  1  6  0  0  0
 19  9  1  0  0  0  0
 19  1  1  0  0  0  0
 20 15  1  0  0  0  0
 22 21  1  0  0  0  0
 23 24  1  0  0  0  0
 24 14  1  0  0  0  0
 25 26  1  0  0  0  0
 26 27  1  0  0  0  0
 27 28  1  0  0  0  0
 28 29  1  0  0  0  0
 29 30  1  0  0  0  0
 30 32  1  0  0  0  0
 31 30  2  0  0  0  0
M  END
>  <MODEL>
3

>  <REMARK>
 VINA RESULT:      -6.7      1.175      1.431
  Name = 
  8 active torsions:
  status: ('A' for Active; 'I' for Inactive)
    1  A    between atoms: C_1  and  C_10
    2  A    between atoms: C_2  and  C_19
    3  A    between atoms: C_2  and  C_24
    4  A    between atoms: C_10  and  C_24
    5  A    between atoms: O_12  and  C_19
    6  A    between atoms: O_12  and  C_21
    7  A    between atoms: C_13  and  C_15
    8  A    between atoms: C_25  and  N_26
                            x       y       z     vdW  Elec       q    Type
                         _______ _______ _______ _____ _____    ______ ____

>  <TORSDO>
F 8

$$$$
=
 OpenBabel10262421423D

 32 34  0  0  1  0  0  0  0  0999 V2000
  183.6710  178.5270  140.2930 O   0  0  0  0  0  0  0  0  0  0  0  0
  181.8920  177.8590  138.8710 C   0  0  0  0  0  0  0  0  0  0  0  0
  181.3320  178.9850  138.1080 C   0  0  0  0  0  0  0  0  0  0  0  0
  185.0700  178.8370  142.1940 C   0  0  1  0  0  3  0  0  0  0  0  0
  183.0960  179.6410  143.5300 C   0  0  0  0  0  2  0  0  0  0  0  0
  180.2810  181.1630  136.6990 C   0  0  0  0  0  3  0  0  0  0  0  0
  182.0140  178.6740  143.9720 C   0  0  0  0  0  2  0  0  0  0  0  0
  180.6690  179.0300  143.3320 C   0  0  1  0  0  3  0  0  0  0  0  0
  181.4740  179.0800  141.0530 C   0  0  2  0  0  3  0  0  0  0  0  0
  180.8080  180.0660  136.0040 C   0  0  0  0  0  3  0  0  0  0  0  0
  184.4630  178.9710  143.6000 C   0  0  2  0  0  3  0  0  0  0  0  0
  181.3330  178.9780  136.7090 C   0  0  0  0  0  3  0  0  0  0  0  0
  186.3950  178.4090  142.2810 O   0  0  0  0  0  1  0  0  0  0  0  0
  180.5620  178.3990  141.9930 N   0  0  0  0  0  0  0  0  0  0  0  0
  180.8380  180.1210  140.2310 N   0  0  0  0  0  2  0  0  0  0  0  0
  184.2860  177.8450  141.3460 C   0  0  0  0  0  2  0  0  0  0  0  0
  182.0670  176.7370  138.3240 O   0  0  0  0  0  0  0  0  0  0  0  0
  180.2850  181.1750  138.0970 C   0  0  0  0  0  3  0  0  0  0  0  0
  182.3500  178.0790  140.2840 C   0  0  2  0  0  3  0  0  0  0  0  0
  180.8100  180.0880  138.8010 C   0  0  0  0  0  0  0  0  0  0  0  0
  179.6870  177.1890  144.5090 O   0  0  0  0  0  1  0  0  0  0  0  0
  179.5730  178.5630  144.2910 C   0  0  0  0  0  2  0  0  0  0  0  0
  178.9330  176.8950  140.7930 C   0  0  0  0  0  1  0  0  0  0  0  0
  179.1890  178.2450  141.4630 C   0  0  0  0  0  2  0  0  0  0  0  0
  185.3060  179.7460  144.4070 O   0  0  0  0  0  0  0  0  0  0  0  0
  185.2010  179.1880  145.6850 C   0  0  0  0  0  2  0  0  0  0  0  0
  185.6920  177.7560  145.6530 C   0  0  0  0  0  2  0  0  0  0  0  0
  187.2080  177.7210  145.7520 C   0  0  0  0  0  2  0  0  0  0  0  0
  187.6540  177.6360  147.2040 C   0  0  0  0  0  2  0  0  0  0  0  0
  189.1260  177.7960  147.3230 C   0  0  0  0  0  0  0  0  0  0  0  0
  189.9270  177.6870  146.1970 O   0  0  0  0  0  0  0  0  0  0  0  0
  189.6460  178.0130  148.4480 O   0  0  0  0  0  1  0  0  0  0  0  0
  1 16  1  0  0  0  0
  3 20  1  0  0  0  0
  3  2  1  0  0  0  0
  4 13  1  1  0  0  0
  4 11  1  0  0  0  0
  5 11  1  0  0  0  0
  5  7  1  0  0  0  0
  6 18  1  0  0  0  0
  8  7  1  0  0  0  0
  8 22  1  1  0  0  0
  9 15  1  6  0  0  0
  9 14  1  0  0  0  0
 10  6  2  0  0  0  0
 10 12  1  0  0  0  0
 11 25  1  1  0  0  0
 12  3  2  0  0  0  0
 14  8  1  0  0  0  0
 16  4  1  0  0  0  0
 17  2  2  0  0  0  0
 18 20  2  0  0  0  0
 19  2  1  6  0  0  0
 19  1  1  0  0  0  0
 19  9  1  0  0  0  0
 20 15  1  0  0  0  0
 22 21  1  0  0  0  0
 23 24  1  0  0  0  0
 24 14  1  0  0  0  0
 25 26  1  0  0  0  0
 27 26  1  0  0  0  0
 27 28  1  0  0  0  0
 28 29  1  0  0  0  0
 29 30  1  0  0  0  0
 30 32  1  0  0  0  0
 31 30  2  0  0  0  0
M  END
>  <MODEL>
4

>  <REMARK>
 VINA RESULT:      -6.6      6.540      8.744
  Name = 
  8 active torsions:
  status: ('A' for Active; 'I' for Inactive)
    1  A    between atoms: C_1  and  C_10
    2  A    between atoms: C_2  and  C_19
    3  A    between atoms: C_2  and  C_24
    4  A    between atoms: C_10  and  C_24
    5  A    between atoms: O_12  and  C_19
    6  A    between atoms: O_12  and  C_21
    7  A    between atoms: C_13  and  C_15
    8  A    between atoms: C_25  and  N_26
                            x       y       z     vdW  Elec       q    Type
                         _______ _______ _______ _____ _____    ______ ____

>  <TORSDO>
F 8

$$$$
=
 OpenBabel10262421423D

 32 34  0  0  1  0  0  0  0  0999 V2000
  185.9150  177.3240  137.9980 O   0  0  0  0  0  0  0  0  0  0  0  0
  186.0960  176.5540  135.7610 C   0  0  0  0  0  0  0  0  0  0  0  0
  185.8320  175.1120  135.6420 C   0  0  0  0  0  0  0  0  0  0  0  0
  186.3670  178.3760  140.0850 C   0  0  1  0  0  3  0  0  0  0  0  0
  188.6250  177.2690  140.1680 C   0  0  0  0  0  2  0  0  0  0  0  0
  185.3490  172.3600  135.4690 C   0  0  0  0  0  3  0  0  0  0  0  0
  189.7380  177.7100  139.2370 C   0  0  0  0  0  2  0  0  0  0  0  0
  190.1400  176.5760  138.2900 C   0  0  1  0  0  3  0  0  0  0  0  0
  187.9110  176.1190  137.4750 C   0  0  2  0  0  3  0  0  0  0  0  0
  184.5530  173.2590  134.7460 C   0  0  0  0  0  3  0  0  0  0  0  0
  187.8050  178.4720  140.6190 C   0  0  2  0  0  3  0  0  0  0  0  0
  184.7950  174.6340  134.8320 C   0  0  0  0  0  3  0  0  0  0  0  0
  185.5740  179.3680  140.6600 O   0  0  0  0  0  1  0  0  0  0  0  0
  189.2620  176.5780  137.0950 N   0  0  0  0  0  0  0  0  0  0  0  0
  187.6600  174.6910  137.2290 N   0  0  0  0  0  2  0  0  0  0  0  0
  186.3290  178.5300  138.5710 C   0  0  0  0  0  2  0  0  0  0  0  0
  185.6470  177.3620  134.9020 O   0  0  0  0  0  0  0  0  0  0  0  0
  186.3800  172.8360  136.2830 C   0  0  0  0  0  3  0  0  0  0  0  0
  186.8210  177.0750  136.9670 C   0  0  2  0  0  3  0  0  0  0  0  0
  186.6220  174.2100  136.3700 C   0  0  0  0  0  0  0  0  0  0  0  0
  192.3760  176.8570  139.1040 O   0  0  0  0  0  1  0  0  0  0  0  0
  191.6140  176.7810  137.9370 C   0  0  0  0  0  2  0  0  0  0  0  0
  189.6480  176.6820  134.6060 C   0  0  0  0  0  1  0  0  0  0  0  0
  189.7980  175.8850  135.9020 C   0  0  0  0  0  2  0  0  0  0  0  0
  187.7890  178.5080  142.0190 O   0  0  0  0  0  0  0  0  0  0  0  0
  188.4090  177.3210  142.4220 C   0  0  0  0  0  2  0  0  0  0  0  0
  188.0420  177.0220  143.8610 C   0  0  0  0  0  2  0  0  0  0  0  0
  186.7870  177.7850  144.2490 C   0  0  0  0  0  2  0  0  0  0  0  0
  186.5340  177.6860  145.7460 C   0  0  0  0  0  2  0  0  0  0  0  0
  185.4280  178.5860  146.1640 C   0  0  0  0  0  0  0  0  0  0  0  0
  184.3360  178.7730  145.3310 O   0  0  0  0  0  0  0  0  0  0  0  0
  185.4910  179.1900  147.2660 O   0  0  0  0  0  1  0  0  0  0  0  0
  1 16  1  0  0  0  0
  3  2  1  0  0  0  0
  3 20  1  0  0  0  0
  4 11  1  0  0  0  0
  4 13  1  1  0  0  0
  5 11  1  0  0  0  0
  6 18  1  0  0  0  0
  7  5  1  0  0  0  0
  8 22  1  6  0  0  0
  8  7  1  0  0  0  0
  9 15  1  6  0  0  0
 10 12  1  0  0  0  0
 10  6  2  0  0  0  0
 11 25  1  1  0  0  0
 12  3  2  0  0  0  0
 14  9  1  0  0  0  0
 14  8  1  0  0  0  0
 16  4  1  0  0  0  0
 17  2  2  0  0  0  0
 18 20  2  0  0  0  0
 19  2  1  6  0  0  0
 19  9  1  0  0  0  0
 19  1  1  0  0  0  0
 20 15  1  0  0  0  0
 22 21  1  0  0  0  0
 23 24  1  0  0  0  0
 24 14  1  0  0  0  0
 25 26  1  0  0  0  0
 26 27  1  0  0  0  0
 27 28  1  0  0  0  0
 28 29  1  0  0  0  0
 29 30  1  0  0  0  0
 30 32  1  0  0  0  0
 31 30  2  0  0  0  0
M  END
>  <MODEL>
5

>  <REMARK>
 VINA RESULT:      -6.2      1.370      1.620
  Name = 
  8 active torsions:
  status: ('A' for Active; 'I' for Inactive)
    1  A    between atoms: C_1  and  C_10
    2  A    between atoms: C_2  and  C_19
    3  A    between atoms: C_2  and  C_24
    4  A    between atoms: C_10  and  C_24
    5  A    between atoms: O_12  and  C_19
    6  A    between atoms: O_12  and  C_21
    7  A    between atoms: C_13  and  C_15
    8  A    between atoms: C_25  and  N_26
                            x       y       z     vdW  Elec       q    Type
                         _______ _______ _______ _____ _____    ______ ____

>  <TORSDO>
F 8

$$$$
=
 OpenBabel10262421423D

 32 34  0  0  1  0  0  0  0  0999 V2000
  184.2740  178.4810  137.7090 O   0  0  0  0  0  0  0  0  0  0  0  0
  181.9190  178.3970  137.4240 C   0  0  0  0  0  0  0  0  0  0  0  0
  181.3430  179.7180  137.1270 C   0  0  0  0  0  0  0  0  0  0  0  0
  186.4700  178.2090  138.5850 C   0  0  1  0  0  3  0  0  0  0  0  0
  185.7130  179.1270  140.8010 C   0  0  0  0  0  2  0  0  0  0  0  0
  180.2900  182.2550  136.5920 C   0  0  0  0  0  3  0  0  0  0  0  0
  184.8070  178.3150  141.7070 C   0  0  0  0  0  2  0  0  0  0  0  0
  183.4570  179.0130  141.8980 C   0  0  1  0  0  3  0  0  0  0  0  0
  182.9790  179.2930  139.5450 C   0  0  2  0  0  3  0  0  0  0  0  0
  180.1060  181.2110  135.6760 C   0  0  0  0  0  3  0  0  0  0  0  0
  186.7150  178.2150  140.1020 C   0  0  2  0  0  3  0  0  0  0  0  0
  180.6320  179.9430  135.9430 C   0  0  0  0  0  3  0  0  0  0  0  0
  187.5050  177.5360  137.9340 O   0  0  0  0  0  1  0  0  0  0  0  0
  182.5360  178.6440  140.7960 N   0  0  0  0  0  0  0  0  0  0  0  0
  182.2890  180.5550  139.2350 N   0  0  0  0  0  2  0  0  0  0  0  0
  185.1500  177.5320  138.2420 C   0  0  0  0  0  2  0  0  0  0  0  0
  181.5120  177.3680  136.8180 O   0  0  0  0  0  0  0  0  0  0  0  0
  181.0060  182.0330  137.7720 C   0  0  0  0  0  3  0  0  0  0  0  0
  183.0680  178.2910  138.3850 C   0  0  2  0  0  3  0  0  0  0  0  0
  181.5320  180.7670  138.0400 C   0  0  0  0  0  0  0  0  0  0  0  0
  183.9890  178.3820  144.1470 O   0  0  0  0  0  1  0  0  0  0  0  0
  182.9240  178.6020  143.2710 C   0  0  0  0  0  2  0  0  0  0  0  0
  180.2320  177.6230  140.7190 C   0  0  0  0  0  1  0  0  0  0  0  0
  181.0940  178.8350  141.0710 C   0  0  0  0  0  2  0  0  0  0  0  0
  188.0090  178.6780  140.3710 O   0  0  0  0  0  0  0  0  0  0  0  0
  188.6010  177.6760  141.1480 C   0  0  0  0  0  2  0  0  0  0  0  0
  189.0140  178.2530  142.4860 C   0  0  0  0  0  2  0  0  0  0  0  0
  189.0760  177.1530  143.5320 C   0  0  0  0  0  2  0  0  0  0  0  0
  189.2180  177.7400  144.9280 C   0  0  0  0  0  2  0  0  0  0  0  0
  187.9820  177.5330  145.7270 C   0  0  0  0  0  0  0  0  0  0  0  0
  187.9940  177.7700  147.0930 O   0  0  0  0  0  1  0  0  0  0  0  0
  186.9320  177.1270  145.1660 O   0  0  0  0  0  0  0  0  0  0  0  0
  1 16  1  0  0  0  0
  1 19  1  0  0  0  0
  3  2  1  0  0  0  0
  3 20  1  0  0  0  0
  4 13  1  6  0  0  0
  4 11  1  0  0  0  0
  5  7  1  0  0  0  0
  6 18  1  0  0  0  0
  7  8  1  0  0  0  0
  8 22  1  1  0  0  0
  9 15  1  6  0  0  0
  9 14  1  0  0  0  0
 10 12  1  0  0  0  0
 10  6  2  0  0  0  0
 11 25  1  6  0  0  0
 11  5  1  0  0  0  0
 12  3  2  0  0  0  0
 14 24  1  0  0  0  0
 14  8  1  0  0  0  0
 16  4  1  0  0  0  0
 17  2  2  0  0  0  0
 18 20  2  0  0  0  0
 19  2  1  6  0  0  0
 19  9  1  0  0  0  0
 20 15  1  0  0  0  0
 22 21  1  0  0  0  0
 23 24  1  0  0  0  0
 25 26  1  0  0  0  0
 26 27  1  0  0  0  0
 27 28  1  0  0  0  0
 28 29  1  0  0  0  0
 29 30  1  0  0  0  0
 30 31  1  0  0  0  0
 32 30  2  0  0  0  0
M  END
>  <MODEL>
6

>  <REMARK>
 VINA RESULT:      -5.8      5.191      7.540
  Name = 
  8 active torsions:
  status: ('A' for Active; 'I' for Inactive)
    1  A    between atoms: C_1  and  C_10
    2  A    between atoms: C_2  and  C_19
    3  A    between atoms: C_2  and  C_24
    4  A    between atoms: C_10  and  C_24
    5  A    between atoms: O_12  and  C_19
    6  A    between atoms: O_12  and  C_21
    7  A    between atoms: C_13  and  C_15
    8  A    between atoms: C_25  and  N_26
                            x       y       z     vdW  Elec       q    Type
                         _______ _______ _______ _____ _____    ______ ____

>  <TORSDO>
F 8

$$$$
=
 OpenBabel10262421423D

 32 34  0  0  1  0  0  0  0  0999 V2000
  181.2520  176.0420  138.3950 O   0  0  0  0  0  0  0  0  0  0  0  0
  181.7000  175.0400  136.2910 C   0  0  0  0  0  0  0  0  0  0  0  0
  182.2490  173.6820  136.4230 C   0  0  0  0  0  0  0  0  0  0  0  0
  181.1750  177.5760  140.2130 C   0  0  1  0  0  3  0  0  0  0  0  0
  183.6740  177.8470  140.1060 C   0  0  0  0  0  2  0  0  0  0  0  0
  183.3180  171.1130  136.7260 C   0  0  0  0  0  3  0  0  0  0  0  0
  184.3230  178.6010  138.9610 C   0  0  0  0  0  2  0  0  0  0  0  0
  185.2220  177.6750  138.1370 C   0  0  1  0  0  3  0  0  0  0  0  0
  183.5510  175.9720  137.7500 C   0  0  2  0  0  3  0  0  0  0  0  0
  182.1260  171.2970  136.0120 C   0  0  0  0  0  3  0  0  0  0  0  0
  182.3600  178.5120  140.4990 C   0  0  2  0  0  3  0  0  0  0  0  0
  181.5920  172.5810  135.8600 C   0  0  0  0  0  3  0  0  0  0  0  0
  180.0040  178.1050  140.7550 O   0  0  0  0  0  1  0  0  0  0  0  0
  184.4190  176.9770  137.1030 N   0  0  0  0  0  0  0  0  0  0  0  0
  184.0980  174.6060  137.7530 N   0  0  0  0  0  2  0  0  0  0  0  0
  180.9800  177.3750  138.7170 C   0  0  0  0  0  2  0  0  0  0  0  0
  180.8420  175.3020  135.4050 O   0  0  0  0  0  0  0  0  0  0  0  0
  183.9710  172.2090  137.2930 C   0  0  0  0  0  3  0  0  0  0  0  0
  182.0930  176.0960  137.2830 C   0  0  2  0  0  3  0  0  0  0  0  0
  183.4390  173.4930  137.1440 C   0  0  0  0  0  0  0  0  0  0  0  0
  187.4270  178.5760  138.3990 O   0  0  0  0  0  1  0  0  0  0  0  0
  186.3320  178.5390  137.5340 C   0  0  0  0  0  2  0  0  0  0  0  0
  184.5900  176.8060  134.5940 C   0  0  0  0  0  1  0  0  0  0  0  0
  185.1800  176.4360  135.9550 C   0  0  0  0  0  2  0  0  0  0  0  0
  182.4020  178.8200  141.8650 O   0  0  0  0  0  0  0  0  0  0  0  0
  183.6990  178.4950  142.2730 C   0  0  0  0  0  2  0  0  0  0  0  0
  183.8430  178.7580  143.7580 C   0  0  0  0  0  2  0  0  0  0  0  0
  185.2210  178.3310  144.2330 C   0  0  0  0  0  2  0  0  0  0  0  0
  185.4100  178.6530  145.7080 C   0  0  0  0  0  2  0  0  0  0  0  0
  186.7010  178.1180  146.2130 C   0  0  0  0  0  0  0  0  0  0  0  0
  187.0070  178.2090  147.5620 O   0  0  0  0  0  1  0  0  0  0  0  0
  187.5220  177.5980  145.4140 O   0  0  0  0  0  0  0  0  0  0  0  0
  1 16  1  0  0  0  0
  2  3  1  0  0  0  0
  3 20  1  0  0  0  0
  4 11  1  0  0  0  0
  4 13  1  6  0  0  0
  5 11  1  0  0  0  0
  6 18  1  0  0  0  0
  7  5  1  0  0  0  0
  8 22  1  6  0  0  0
  8  7  1  0  0  0  0
  9 15  1  6  0  0  0
 10  6  2  0  0  0  0
 11 25  1  1  0  0  0
 12 10  1  0  0  0  0
 12  3  2  0  0  0  0
 14  9  1  0  0  0  0
 14  8  1  0  0  0  0
 16  4  1  0  0  0  0
 17  2  2  0  0  0  0
 19  2  1  6  0  0  0
 19  9  1  0  0  0  0
 19  1  1  0  0  0  0
 20 18  2  0  0  0  0
 20 15  1  0  0  0  0
 22 21  1  0  0  0  0
 23 24  1  0  0  0  0
 24 14  1  0  0  0  0
 25 26  1  0  0  0  0
 26 27  1  0  0  0  0
 27 28  1  0  0  0  0
 28 29  1  0  0  0  0
 29 30  1  0  0  0  0
 30 31  1  0  0  0  0
 32 30  2  0  0  0  0
M  END
>  <MODEL>
7

>  <REMARK>
 VINA RESULT:      -5.7      4.401      5.671
  Name = 
  8 active torsions:
  status: ('A' for Active; 'I' for Inactive)
    1  A    between atoms: C_1  and  C_10
    2  A    between atoms: C_2  and  C_19
    3  A    between atoms: C_2  and  C_24
    4  A    between atoms: C_10  and  C_24
    5  A    between atoms: O_12  and  C_19
    6  A    between atoms: O_12  and  C_21
    7  A    between atoms: C_13  and  C_15
    8  A    between atoms: C_25  and  N_26
                            x       y       z     vdW  Elec       q    Type
                         _______ _______ _______ _____ _____    ______ ____

>  <TORSDO>
F 8

$$$$
=
 OpenBabel10262421423D

 32 34  0  0  1  0  0  0  0  0999 V2000
  184.2730  177.2650  137.2450 O   0  0  0  0  0  0  0  0  0  0  0  0
  182.6690  177.7210  138.9330 C   0  0  0  0  0  0  0  0  0  0  0  0
  182.0920  179.0690  138.8090 C   0  0  0  0  0  0  0  0  0  0  0  0
  186.2660  176.6150  136.1170 C   0  0  1  0  0  3  0  0  0  0  0  0
  187.6250  178.0730  137.6520 C   0  0  0  0  0  2  0  0  0  0  0  0
  181.0450  181.6510  138.5480 C   0  0  0  0  0  3  0  0  0  0  0  0
  187.8320  177.6870  139.1050 C   0  0  0  0  0  2  0  0  0  0  0  0
  187.2000  178.7220  140.0400 C   0  0  1  0  0  3  0  0  0  0  0  0
  185.0100  178.6890  139.0170 C   0  0  2  0  0  3  0  0  0  0  0  0
  180.1920  180.5400  138.5010 C   0  0  0  0  0  3  0  0  0  0  0  0
  187.6410  176.8310  136.7690 C   0  0  2  0  0  3  0  0  0  0  0  0
  180.7160  179.2490  138.6320 C   0  0  0  0  0  3  0  0  0  0  0  0
  186.3410  175.6010  135.1620 O   0  0  0  0  0  1  0  0  0  0  0  0
  185.7670  178.4030  140.2530 N   0  0  0  0  0  0  0  0  0  0  0  0
  184.3570  180.0060  138.9920 N   0  0  0  0  0  2  0  0  0  0  0  0
  185.2170  176.2380  137.1540 C   0  0  0  0  0  2  0  0  0  0  0  0
  181.9390  176.7350  139.2260 O   0  0  0  0  0  0  0  0  0  0  0  0
  182.4200  181.4720  138.7190 C   0  0  0  0  0  3  0  0  0  0  0  0
  184.1190  177.5050  138.6100 C   0  0  2  0  0  3  0  0  0  0  0  0
  182.9440  180.1830  138.8480 C   0  0  0  0  0  0  0  0  0  0  0  0
  188.4770  177.4190  141.5930 O   0  0  0  0  0  1  0  0  0  0  0  0
  188.0040  178.7080  141.3410 C   0  0  0  0  0  2  0  0  0  0  0  0
  184.2480  178.0270  142.2300 C   0  0  0  0  0  1  0  0  0  0  0  0
  185.1500  178.9940  141.4620 C   0  0  0  0  0  2  0  0  0  0  0  0
  188.6150  176.9970  135.7750 O   0  0  0  0  0  0  0  0  0  0  0  0
  189.8380  176.8130  136.4290 C   0  0  0  0  0  2  0  0  0  0  0  0
  189.8760  175.4330  137.0520 C   0  0  0  0  0  2  0  0  0  0  0  0
  191.2020  175.2160  137.7600 C   0  0  0  0  0  2  0  0  0  0  0  0
  191.5080  176.3690  138.7030 C   0  0  0  0  0  2  0  0  0  0  0  0
  192.9340  176.7760  138.6100 C   0  0  0  0  0  0  0  0  0  0  0  0
  193.5820  176.7510  137.3840 O   0  0  0  0  0  0  0  0  0  0  0  0
  193.5570  177.1270  139.6450 O   0  0  0  0  0  1  0  0  0  0  0  0
  2 17  2  0  0  0  0
  3 20  1  0  0  0  0
  3  2  1  0  0  0  0
  4 13  1  6  0  0  0
  4 11  1  0  0  0  0
  4 16  1  0  0  0  0
  5  7  1  0  0  0  0
  6 18  1  0  0  0  0
  7  8  1  0  0  0  0
  8 14  1  0  0  0  0
  8 22  1  1  0  0  0
  9 15  1  1  0  0  0
  9 14  1  0  0  0  0
 10  6  2  0  0  0  0
 10 12  1  0  0  0  0
 11 25  1  6  0  0  0
 11  5  1  0  0  0  0
 12  3  2  0  0  0  0
 14 24  1  0  0  0  0
 16  1  1  0  0  0  0
 18 20  2  0  0  0  0
 19  1  1  6  0  0  0
 19  2  1  0  0  0  0
 19  9  1  0  0  0  0
 20 15  1  0  0  0  0
 22 21  1  0  0  0  0
 24 23  1  0  0  0  0
 25 26  1  0  0  0  0
 26 27  1  0  0  0  0
 27 28  1  0  0  0  0
 28 29  1  0  0  0  0
 30 29  1  0  0  0  0
 30 32  1  0  0  0  0
 31 30  2  0  0  0  0
M  END
>  <MODEL>
8

>  <REMARK>
 VINA RESULT:      -5.7      4.017      7.740
  Name = 
  8 active torsions:
  status: ('A' for Active; 'I' for Inactive)
    1  A    between atoms: C_1  and  C_10
    2  A    between atoms: C_2  and  C_19
    3  A    between atoms: C_2  and  C_24
    4  A    between atoms: C_10  and  C_24
    5  A    between atoms: O_12  and  C_19
    6  A    between atoms: O_12  and  C_21
    7  A    between atoms: C_13  and  C_15
    8  A    between atoms: C_25  and  N_26
                            x       y       z     vdW  Elec       q    Type
                         _______ _______ _______ _____ _____    ______ ____

>  <TORSDO>
F 8

$$$$
=
 OpenBabel10262421423D

 32 34  0  0  1  0  0  0  0  0999 V2000
  184.5250  177.8560  139.4130 O   0  0  0  0  0  0  0  0  0  0  0  0
  183.5860  177.4210  137.2770 C   0  0  0  0  0  0  0  0  0  0  0  0
  183.2630  175.9980  137.0870 C   0  0  0  0  0  0  0  0  0  0  0  0
  185.9530  178.6230  141.1570 C   0  0  1  0  0  3  0  0  0  0  0  0
  187.9430  177.6320  139.9800 C   0  0  0  0  0  2  0  0  0  0  0  0
  182.6910  173.2780  136.7610 C   0  0  0  0  0  3  0  0  0  0  0  0
  188.4800  178.2570  138.7060 C   0  0  0  0  0  2  0  0  0  0  0  0
  188.3490  177.2900  137.5260 C   0  0  1  0  0  3  0  0  0  0  0  0
  185.9920  176.8400  137.8240 C   0  0  2  0  0  3  0  0  0  0  0  0
  181.6670  174.2290  136.6510 C   0  0  0  0  0  3  0  0  0  0  0  0
  187.4720  178.7170  140.9420 C   0  0  2  0  0  3  0  0  0  0  0  0
  181.9530  175.5880  136.8140 C   0  0  0  0  0  3  0  0  0  0  0  0
  185.5590  179.4830  142.1820 O   0  0  0  0  0  1  0  0  0  0  0  0
  187.0030  177.4170  136.9140 N   0  0  0  0  0  0  0  0  0  0  0  0
  185.6190  175.4500  137.5190 N   0  0  0  0  0  2  0  0  0  0  0  0
  185.1930  178.9880  139.8890 C   0  0  0  0  0  2  0  0  0  0  0  0
  182.7990  178.3180  136.8710 O   0  0  0  0  0  0  0  0  0  0  0  0
  183.9980  173.6860  137.0400 C   0  0  0  0  0  3  0  0  0  0  0  0
  184.8160  177.8020  138.0500 C   0  0  2  0  0  3  0  0  0  0  0  0
  184.2850  175.0440  137.2040 C   0  0  0  0  0  0  0  0  0  0  0  0
  190.5340  176.7270  136.7220 O   0  0  0  0  0  1  0  0  0  0  0  0
  189.4740  177.6180  136.5430 C   0  0  0  0  0  2  0  0  0  0  0  0
  186.1360  177.8870  134.5950 C   0  0  0  0  0  1  0  0  0  0  0  0
  186.8810  176.9270  135.5230 C   0  0  0  0  0  2  0  0  0  0  0  0
  188.1330  178.5530  142.1660 O   0  0  0  0  0  0  0  0  0  0  0  0
  188.7220  177.2860  142.0960 C   0  0  0  0  0  2  0  0  0  0  0  0
  188.2770  176.4560  143.2830 C   0  0  0  0  0  2  0  0  0  0  0  0
  187.6050  177.3430  144.3170 C   0  0  0  0  0  2  0  0  0  0  0  0
  188.4850  177.5030  145.5470 C   0  0  0  0  0  2  0  0  0  0  0  0
  187.6710  177.7890  146.7570 C   0  0  0  0  0  0  0  0  0  0  0  0
  188.0160  177.2210  147.9730 O   0  0  0  0  0  1  0  0  0  0  0  0
  186.6600  178.5330  146.6730 O   0  0  0  0  0  0  0  0  0  0  0  0
  1 16  1  0  0  0  0
  3 20  1  0  0  0  0
  3  2  1  0  0  0  0
  4 13  1  1  0  0  0
  5 11  1  0  0  0  0
  6 18  1  0  0  0  0
  7  5  1  0  0  0  0
  8 22  1  6  0  0  0
  8  7  1  0  0  0  0
  9 15  1  6  0  0  0
  9 19  1  0  0  0  0
 10  6  2  0  0  0  0
 10 12  1  0  0  0  0
 11  4  1  0  0  0  0
 11 25  1  1  0  0  0
 12  3  2  0  0  0  0
 14  8  1  0  0  0  0
 14  9  1  0  0  0  0
 16  4  1  0  0  0  0
 17  2  2  0  0  0  0
 18 20  2  0  0  0  0
 19  2  1  6  0  0  0
 19  1  1  0  0  0  0
 20 15  1  0  0  0  0
 22 21  1  0  0  0  0
 23 24  1  0  0  0  0
 24 14  1  0  0  0  0
 26 25  1  0  0  0  0
 26 27  1  0  0  0  0
 27 28  1  0  0  0  0
 28 29  1  0  0  0  0
 29 30  1  0  0  0  0
 30 31  1  0  0  0  0
 32 30  2  0  0  0  0
M  END
>  <MODEL>
9

>  <REMARK>
 VINA RESULT:      -5.6      2.992      3.716
  Name = 
  8 active torsions:
  status: ('A' for Active; 'I' for Inactive)
    1  A    between atoms: C_1  and  C_10
    2  A    between atoms: C_2  and  C_19
    3  A    between atoms: C_2  and  C_24
    4  A    between atoms: C_10  and  C_24
    5  A    between atoms: O_12  and  C_19
    6  A    between atoms: O_12  and  C_21
    7  A    between atoms: C_13  and  C_15
    8  A    between atoms: C_25  and  N_26
                            x       y       z     vdW  Elec       q    Type
                         _______ _______ _______ _____ _____    ______ ____

>  <TORSDO>
F 8

$$$$
