=
 OpenBabel10262419273D

 31 35  0  0  1  0  0  0  0  0999 V2000
  184.8670  178.7040  145.1990 C   0  0  0  0  0  0  0  0  0  0  0  0
  188.3880  177.4220  144.3350 C   0  0  0  0  0  0  0  0  0  0  0  0
  189.0960  177.1510  145.5430 C   0  0  0  0  0  0  0  0  0  0  0  0
  188.9410  178.1560  147.7960 C   0  0  0  0  0  3  0  0  0  0  0  0
  186.9570  177.8520  144.2640 C   0  0  0  0  0  0  0  0  0  0  0  0
  184.3200  178.9470  143.8610 C   0  0  0  0  0  3  0  0  0  0  0  0
  188.3930  177.1280  146.8660 C   0  0  0  0  0  2  0  0  0  0  0  0
  188.2880  177.4750  141.8000 C   0  0  2  0  0  3  0  0  0  0  0  0
  184.1790  178.9580  146.2210 O   0  0  0  0  0  0  0  0  0  0  0  0
  191.0760  176.5960  144.2440 C   0  0  0  0  0  3  0  0  0  0  0  0
  190.1860  178.1050  148.2660 C   0  0  0  0  0  3  0  0  0  0  0  0
  187.2550  178.4220  141.9620 O   0  0  0  0  0  0  0  0  0  0  0  0
  189.0580  177.2780  143.0970 C   0  0  0  0  0  0  0  0  0  0  0  0
  186.2430  178.2120  145.3380 C   0  0  0  0  0  3  0  0  0  0  0  0
  191.1900  177.0990  147.8750 C   0  0  0  0  0  3  0  0  0  0  0  0
  186.3380  177.8730  142.8740 C   0  0  2  0  0  3  0  0  0  0  0  0
  185.0160  178.5950  142.7800 C   0  0  0  0  0  3  0  0  0  0  0  0
  190.3830  176.8370  143.0630 C   0  0  0  0  0  3  0  0  0  0  0  0
  190.4600  176.7710  145.4830 C   0  0  0  0  0  0  0  0  0  0  0  0
  191.3000  176.5180  146.6740 C   0  0  0  0  0  3  0  0  0  0  0  0
  187.8150  177.1360  139.0000 O   0  0  0  0  0  0  0  0  0  0  0  0
  188.8720  177.7310  139.3470 C   0  0  0  0  0  0  0  0  0  0  0  0
  189.1780  177.9140  140.7320 N   0  0  0  0  0  2  0  0  0  0  0  0
  189.0550  179.1200  137.2970 C   0  0  0  0  0  1  0  0  0  0  0  0
  189.7990  178.2470  138.2950 C   0  0  2  0  0  3  0  0  0  0  0  0
  190.1080  176.7480  136.4720 O   0  0  0  0  0  0  0  0  0  0  0  0
  190.5110  177.1280  137.6030 C   0  0  0  0  0  0  0  0  0  0  0  0
  191.6480  176.5100  138.2130 N   0  0  0  0  0  2  0  0  0  0  0  0
  192.3880  175.4430  137.5600 C   0  0  2  0  0  3  0  0  0  0  0  0
  193.8100  175.5040  137.9690 C   0  0  0  0  0  2  0  0  0  0  0  0
  193.3740  176.0120  136.7310 O   0  0  0  0  0  0  0  0  0  0  0  0
  1 14  1  0  0  0  0
  1  9  2  0  0  0  0
  2  3  1  0  0  0  0
  3  7  1  0  0  0  0
  4 11  2  0  0  0  0
  5  2  1  0  0  0  0
  5 14  2  0  0  0  0
  6  1  1  0  0  0  0
  7  4  1  0  0  0  0
  8 23  1  6  0  0  0
  8 12  1  0  0  0  0
  8 13  1  0  0  0  0
 10 19  1  0  0  0  0
 12 16  1  0  0  0  0
 13  2  2  0  0  0  0
 15 11  1  0  0  0  0
 16 17  1  1  0  0  0
 16  5  1  0  0  0  0
 17  6  2  0  0  0  0
 18 13  1  0  0  0  0
 18 10  2  0  0  0  0
 19  3  2  0  0  0  0
 19 20  1  0  0  0  0
 20 15  2  0  0  0  0
 21 22  2  0  0  0  0
 22 23  1  0  0  0  0
 25 24  1  6  0  0  0
 25 22  1  0  0  0  0
 26 27  2  0  0  0  0
 27 28  1  0  0  0  0
 27 25  1  0  0  0  0
 29 30  1  0  0  0  0
 29 28  1  1  0  0  0
 31 29  1  0  0  0  0
 31 30  1  0  0  0  0
M  END
>  <MODEL>
1

>  <REMARK>
 VINA RESULT:     -10.5      0.000      0.000
  Name = 
  4 active torsions:
  status: ('A' for Active; 'I' for Inactive)
    1  A    between atoms: C_1  and  N_24
    2  A    between atoms: C_9  and  C_22
    3  A    between atoms: C_15  and  N_23
    4  A    between atoms: C_19  and  C_22
                            x       y       z     vdW  Elec       q    Type
                         _______ _______ _______ _____ _____    ______ ____

>  <TORSDO>
F 4

$$$$
=
 OpenBabel10262419273D

 31 35  0  0  1  0  0  0  0  0999 V2000
  188.9940  177.3790  147.4530 C   0  0  0  0  0  0  0  0  0  0  0  0
  187.5300  178.1240  143.9760 C   0  0  0  0  0  0  0  0  0  0  0  0
  186.2170  178.6610  144.1270 C   0  0  0  0  0  0  0  0  0  0  0  0
  184.4950  178.3190  145.8680 C   0  0  0  0  0  3  0  0  0  0  0  0
  188.4510  177.7930  145.1070 C   0  0  0  0  0  0  0  0  0  0  0  0
  190.3020  176.8210  147.0940 C   0  0  0  0  0  3  0  0  0  0  0  0
  185.7050  179.0930  145.4680 C   0  0  0  0  0  2  0  0  0  0  0  0
  189.4570  177.3920  142.4980 C   0  0  2  0  0  3  0  0  0  0  0  0
  188.6510  177.4620  148.6600 O   0  0  0  0  0  0  0  0  0  0  0  0
  185.9670  178.6990  141.7090 C   0  0  0  0  0  3  0  0  0  0  0  0
  183.3400  178.4070  145.2110 C   0  0  0  0  0  3  0  0  0  0  0  0
  189.8630  176.6010  143.5930 O   0  0  0  0  0  0  0  0  0  0  0  0
  188.0270  177.8780  142.6750 C   0  0  0  0  0  0  0  0  0  0  0  0
  188.0690  177.7910  146.3910 C   0  0  0  0  0  3  0  0  0  0  0  0
  183.1320  179.1940  143.9820 C   0  0  0  0  0  3  0  0  0  0  0  0
  189.8800  177.4410  144.7190 C   0  0  2  0  0  3  0  0  0  0  0  0
  190.7010  176.8160  145.8210 C   0  0  0  0  0  3  0  0  0  0  0  0
  187.2540  178.1980  141.5560 C   0  0  0  0  0  3  0  0  0  0  0  0
  185.4280  178.9120  142.9780 C   0  0  0  0  0  0  0  0  0  0  0  0
  184.0390  179.4180  143.0240 C   0  0  0  0  0  3  0  0  0  0  0  0
  191.3560  177.8920  140.4180 O   0  0  0  0  0  0  0  0  0  0  0  0
  190.5790  176.9090  140.2770 C   0  0  0  0  0  0  0  0  0  0  0  0
  189.5920  176.6170  141.2700 N   0  0  0  0  0  2  0  0  0  0  0  0
  191.9720  176.3750  138.2920 C   0  0  0  0  0  1  0  0  0  0  0  0
  190.7020  176.0480  139.0610 C   0  0  2  0  0  3  0  0  0  0  0  0
  189.2260  175.2470  137.3740 O   0  0  0  0  0  0  0  0  0  0  0  0
  189.4970  176.1730  138.1850 C   0  0  0  0  0  0  0  0  0  0  0  0
  188.6510  177.3220  138.2820 N   0  0  0  0  0  2  0  0  0  0  0  0
  187.4510  177.4670  137.4730 C   0  0  2  0  0  3  0  0  0  0  0  0
  187.5670  178.6750  136.6260 C   0  0  0  0  0  2  0  0  0  0  0  0
  186.8140  178.6760  137.8140 O   0  0  0  0  0  0  0  0  0  0  0  0
  1  9  2  0  0  0  0
  2  3  1  0  0  0  0
  2  5  1  0  0  0  0
  3  7  1  0  0  0  0
  5 14  2  0  0  0  0
  6  1  1  0  0  0  0
  7  4  1  0  0  0  0
  8 23  1  6  0  0  0
  8 13  1  0  0  0  0
  8 12  1  0  0  0  0
 10 19  1  0  0  0  0
 11  4  2  0  0  0  0
 12 16  1  0  0  0  0
 13  2  2  0  0  0  0
 14  1  1  0  0  0  0
 15 11  1  0  0  0  0
 16  5  1  0  0  0  0
 16 17  1  1  0  0  0
 17  6  2  0  0  0  0
 18 10  2  0  0  0  0
 18 13  1  0  0  0  0
 19 20  1  0  0  0  0
 19  3  2  0  0  0  0
 20 15  2  0  0  0  0
 22 21  2  0  0  0  0
 22 23  1  0  0  0  0
 25 24  1  6  0  0  0
 25 22  1  0  0  0  0
 26 27  2  0  0  0  0
 27 28  1  0  0  0  0
 27 25  1  0  0  0  0
 29 31  1  0  0  0  0
 29 28  1  1  0  0  0
 30 29  1  0  0  0  0
 30 31  1  0  0  0  0
M  END
>  <MODEL>
2

>  <REMARK>
 VINA RESULT:      -9.7      1.957      4.858
  Name = 
  4 active torsions:
  status: ('A' for Active; 'I' for Inactive)
    1  A    between atoms: C_1  and  N_24
    2  A    between atoms: C_9  and  C_22
    3  A    between atoms: C_15  and  N_23
    4  A    between atoms: C_19  and  C_22
                            x       y       z     vdW  Elec       q    Type
                         _______ _______ _______ _____ _____    ______ ____

>  <TORSDO>
F 4

$$$$
=
 OpenBabel10262419273D

 31 35  0  0  1  0  0  0  0  0999 V2000
  190.8360  177.4170  141.8970 C   0  0  0  0  0  0  0  0  0  0  0  0
  187.6280  178.1530  143.8850 C   0  0  0  0  0  0  0  0  0  0  0  0
  187.9190  178.0930  145.2800 C   0  0  0  0  0  0  0  0  0  0  0  0
  189.5880  176.7890  146.5540 C   0  0  0  0  0  3  0  0  0  0  0  0
  188.6430  178.0090  142.7950 C   0  0  0  0  0  0  0  0  0  0  0  0
  190.3380  177.4930  140.5200 C   0  0  0  0  0  3  0  0  0  0  0  0
  189.3320  178.0350  145.7760 C   0  0  0  0  0  2  0  0  0  0  0  0
  185.9850  178.5220  141.9870 C   0  0  2  0  0  3  0  0  0  0  0  0
  192.0420  177.1340  142.1200 O   0  0  0  0  0  0  0  0  0  0  0  0
  185.5680  178.4750  145.7740 C   0  0  0  0  0  3  0  0  0  0  0  0
  188.9910  176.5350  147.7170 C   0  0  0  0  0  3  0  0  0  0  0  0
  186.8800  177.7670  141.2000 O   0  0  0  0  0  0  0  0  0  0  0  0
  186.2930  178.3660  143.4680 C   0  0  0  0  0  0  0  0  0  0  0  0
  189.9060  177.6200  143.0140 C   0  0  0  0  0  3  0  0  0  0  0  0
  187.9600  177.3900  148.3340 C   0  0  0  0  0  3  0  0  0  0  0  0
  188.1560  178.3230  141.3880 C   0  0  2  0  0  3  0  0  0  0  0  0
  189.0840  177.8800  140.2830 C   0  0  0  0  0  3  0  0  0  0  0  0
  185.2840  178.5570  144.4160 C   0  0  0  0  0  3  0  0  0  0  0  0
  186.8660  178.2220  146.2190 C   0  0  0  0  0  0  0  0  0  0  0  0
  187.0490  178.1240  147.6830 C   0  0  0  0  0  3  0  0  0  0  0  0
  184.3220  179.5980  139.9240 O   0  0  0  0  0  0  0  0  0  0  0  0
  183.8470  178.6700  140.6330 C   0  0  0  0  0  0  0  0  0  0  0  0
  184.6200  178.1030  141.6960 N   0  0  0  0  0  2  0  0  0  0  0  0
  182.1940  178.1500  138.8550 C   0  0  0  0  0  1  0  0  0  0  0  0
  182.4690  178.1640  140.3500 C   0  0  2  0  0  3  0  0  0  0  0  0
  180.8210  179.8780  140.4650 O   0  0  0  0  0  0  0  0  0  0  0  0
  181.4380  178.9660  141.0780 C   0  0  0  0  0  0  0  0  0  0  0  0
  181.1430  178.6870  142.4500 N   0  0  0  0  0  2  0  0  0  0  0  0
  180.1240  179.4190  143.1840 C   0  0  2  0  0  3  0  0  0  0  0  0
  179.6950  178.6280  144.3590 C   0  0  0  0  0  2  0  0  0  0  0  0
  178.9310  178.6710  143.1790 O   0  0  0  0  0  0  0  0  0  0  0  0
  1  9  2  0  0  0  0
  1 14  1  0  0  0  0
  2  3  1  0  0  0  0
  3  7  1  0  0  0  0
  3 19  2  0  0  0  0
  4 11  2  0  0  0  0
  5 14  2  0  0  0  0
  5  2  1  0  0  0  0
  6  1  1  0  0  0  0
  7  4  1  0  0  0  0
  8 23  1  1  0  0  0
  8 13  1  0  0  0  0
 10 19  1  0  0  0  0
 11 15  1  0  0  0  0
 12 16  1  0  0  0  0
 12  8  1  0  0  0  0
 13  2  2  0  0  0  0
 13 18  1  0  0  0  0
 16 17  1  6  0  0  0
 16  5  1  0  0  0  0
 17  6  2  0  0  0  0
 18 10  2  0  0  0  0
 19 20  1  0  0  0  0
 20 15  2  0  0  0  0
 21 22  2  0  0  0  0
 22 23  1  0  0  0  0
 25 24  1  6  0  0  0
 25 22  1  0  0  0  0
 25 27  1  0  0  0  0
 26 27  2  0  0  0  0
 27 28  1  0  0  0  0
 29 28  1  6  0  0  0
 29 30  1  0  0  0  0
 31 29  1  0  0  0  0
 31 30  1  0  0  0  0
M  END
>  <MODEL>
3

>  <REMARK>
 VINA RESULT:      -9.7      3.286      7.192
  Name = 
  4 active torsions:
  status: ('A' for Active; 'I' for Inactive)
    1  A    between atoms: C_1  and  N_24
    2  A    between atoms: C_9  and  C_22
    3  A    between atoms: C_15  and  N_23
    4  A    between atoms: C_19  and  C_22
                            x       y       z     vdW  Elec       q    Type
                         _______ _______ _______ _____ _____    ______ ____

>  <TORSDO>
F 4

$$$$
=
 OpenBabel10262419273D

 31 35  0  0  1  0  0  0  0  0999 V2000
  190.6280  176.7810  146.2280 C   0  0  0  0  0  0  0  0  0  0  0  0
  187.9270  178.0020  143.7790 C   0  0  0  0  0  0  0  0  0  0  0  0
  186.7910  178.4430  144.5180 C   0  0  0  0  0  0  0  0  0  0  0  0
  185.8870  177.7430  146.7100 C   0  0  0  0  0  3  0  0  0  0  0  0
  189.2140  177.5390  144.3860 C   0  0  0  0  0  0  0  0  0  0  0  0
  191.6780  176.3530  145.2990 C   0  0  0  0  0  3  0  0  0  0  0  0
  186.8560  178.6290  146.0040 C   0  0  0  0  0  2  0  0  0  0  0  0
  189.1030  177.6110  141.5650 C   0  0  2  0  0  3  0  0  0  0  0  0
  190.7890  176.6520  147.4690 O   0  0  0  0  0  0  0  0  0  0  0  0
  185.6090  178.8560  142.4330 C   0  0  0  0  0  3  0  0  0  0  0  0
  184.5680  177.8780  146.5820 C   0  0  0  0  0  3  0  0  0  0  0  0
  189.8930  176.6750  142.2650 O   0  0  0  0  0  0  0  0  0  0  0  0
  187.8680  177.9920  142.3650 C   0  0  0  0  0  0  0  0  0  0  0  0
  189.3670  177.3120  145.6970 C   0  0  0  0  0  3  0  0  0  0  0  0
  183.9080  178.8420  145.6820 C   0  0  0  0  0  3  0  0  0  0  0  0
  190.3670  177.3230  143.4170 C   0  0  2  0  0  3  0  0  0  0  0  0
  191.5430  176.5710  143.9900 C   0  0  0  0  0  3  0  0  0  0  0  0
  186.7220  178.4490  141.7080 C   0  0  0  0  0  3  0  0  0  0  0  0
  185.6180  178.8360  143.8280 C   0  0  0  0  0  0  0  0  0  0  0  0
  184.3680  179.2600  144.4970 C   0  0  0  0  0  3  0  0  0  0  0  0
  189.0540  179.0390  139.0860 O   0  0  0  0  0  0  0  0  0  0  0  0
  188.7450  177.8170  139.0630 C   0  0  0  0  0  0  0  0  0  0  0  0
  188.7290  177.0500  140.2720 N   0  0  0  0  0  2  0  0  0  0  0  0
  189.0850  177.8880  136.6050 C   0  0  0  0  0  1  0  0  0  0  0  0
  188.3990  177.1740  137.7590 C   0  0  2  0  0  3  0  0  0  0  0  0
  186.4220  176.1950  136.8650 O   0  0  0  0  0  0  0  0  0  0  0  0
  186.9190  177.1250  137.5550 C   0  0  0  0  0  0  0  0  0  0  0  0
  186.0750  178.1130  138.1540 N   0  0  0  0  0  2  0  0  0  0  0  0
  184.6290  178.0820  138.0090 C   0  0  2  0  0  3  0  0  0  0  0  0
  184.0200  179.0940  138.9020 C   0  0  0  0  0  2  0  0  0  0  0  0
  184.0530  177.7310  139.2460 O   0  0  0  0  0  0  0  0  0  0  0  0
  1  9  2  0  0  0  0
  2  5  1  0  0  0  0
  2  3  1  0  0  0  0
  3  7  1  0  0  0  0
  5 14  2  0  0  0  0
  6  1  1  0  0  0  0
  7  4  1  0  0  0  0
  8 23  1  6  0  0  0
  8 12  1  0  0  0  0
  8 13  1  0  0  0  0
 10 19  1  0  0  0  0
 11  4  2  0  0  0  0
 12 16  1  0  0  0  0
 13  2  2  0  0  0  0
 14  1  1  0  0  0  0
 15 11  1  0  0  0  0
 16 17  1  1  0  0  0
 16  5  1  0  0  0  0
 17  6  2  0  0  0  0
 18 13  1  0  0  0  0
 18 10  2  0  0  0  0
 19 20  1  0  0  0  0
 19  3  2  0  0  0  0
 20 15  2  0  0  0  0
 22 21  2  0  0  0  0
 22 23  1  0  0  0  0
 25 24  1  6  0  0  0
 25 22  1  0  0  0  0
 26 27  2  0  0  0  0
 27 25  1  0  0  0  0
 27 28  1  0  0  0  0
 29 28  1  1  0  0  0
 29 30  1  0  0  0  0
 29 31  1  0  0  0  0
 30 31  1  0  0  0  0
M  END
>  <MODEL>
4

>  <REMARK>
 VINA RESULT:      -9.5      2.596      5.262
  Name = 
  4 active torsions:
  status: ('A' for Active; 'I' for Inactive)
    1  A    between atoms: C_1  and  N_24
    2  A    between atoms: C_9  and  C_22
    3  A    between atoms: C_15  and  N_23
    4  A    between atoms: C_19  and  C_22
                            x       y       z     vdW  Elec       q    Type
                         _______ _______ _______ _____ _____    ______ ____

>  <TORSDO>
F 4

$$$$
=
 OpenBabel10262419273D

 31 35  0  0  1  0  0  0  0  0999 V2000
  181.1230  178.8520  141.6800 C   0  0  0  0  0  0  0  0  0  0  0  0
  184.9570  178.6160  141.4970 C   0  0  0  0  0  0  0  0  0  0  0  0
  185.3570  178.5690  140.1290 C   0  0  0  0  0  0  0  0  0  0  0  0
  184.2200  177.6940  138.1160 C   0  0  0  0  0  3  0  0  0  0  0  0
  183.5480  178.7980  141.9680 C   0  0  0  0  0  0  0  0  0  0  0  0
  180.9110  178.8600  143.1310 C   0  0  0  0  0  3  0  0  0  0  0  0
  184.3860  178.8630  139.0260 C   0  0  0  0  0  2  0  0  0  0  0  0
  185.5370  178.6280  143.9670 C   0  0  2  0  0  3  0  0  0  0  0  0
  180.1410  178.8880  140.8960 O   0  0  0  0  0  0  0  0  0  0  0  0
  187.6700  178.2910  140.8280 C   0  0  0  0  0  3  0  0  0  0  0  0
  185.2100  177.2350  137.3510 C   0  0  0  0  0  3  0  0  0  0  0  0
  184.2180  178.1750  144.1750 O   0  0  0  0  0  0  0  0  0  0  0  0
  185.9400  178.4880  142.5070 C   0  0  0  0  0  0  0  0  0  0  0  0
  182.4880  178.7480  141.1510 C   0  0  0  0  0  3  0  0  0  0  0  0
  186.5890  177.7560  137.3640 C   0  0  0  0  0  3  0  0  0  0  0  0
  183.3730  179.0400  143.4600 C   0  0  2  0  0  3  0  0  0  0  0  0
  181.9540  178.9110  143.9600 C   0  0  0  0  0  3  0  0  0  0  0  0
  187.2880  178.3590  142.1620 C   0  0  0  0  0  3  0  0  0  0  0  0
  186.7220  178.3690  139.8070 C   0  0  0  0  0  0  0  0  0  0  0  0
  187.2360  178.2530  138.4250 C   0  0  0  0  0  3  0  0  0  0  0  0
  186.2180  179.3080  146.6610 O   0  0  0  0  0  0  0  0  0  0  0  0
  186.7260  178.2610  146.1760 C   0  0  0  0  0  0  0  0  0  0  0  0
  186.4440  177.8760  144.8270 N   0  0  0  0  0  2  0  0  0  0  0  0
  187.5790  177.8780  148.4760 C   0  0  0  0  0  1  0  0  0  0  0  0
  187.6250  177.4230  147.0260 C   0  0  2  0  0  3  0  0  0  0  0  0
  189.2880  178.0700  145.4510 O   0  0  0  0  0  0  0  0  0  0  0  0
  189.0270  177.4320  146.5050 C   0  0  0  0  0  0  0  0  0  0  0  0
  190.0630  176.7410  147.2100 N   0  0  0  0  0  2  0  0  0  0  0  0
  191.4440  176.7530  146.7570 C   0  0  2  0  0  3  0  0  0  0  0  0
  192.1270  175.5230  147.2180 C   0  0  0  0  0  2  0  0  0  0  0  0
  192.2930  176.7530  147.8810 O   0  0  0  0  0  0  0  0  0  0  0  0
  1  6  1  0  0  0  0
  2  5  1  0  0  0  0
  2 13  1  0  0  0  0
  3  2  2  0  0  0  0
  4  7  1  0  0  0  0
  5 16  1  0  0  0  0
  6 17  2  0  0  0  0
  7  3  1  0  0  0  0
  8 12  1  0  0  0  0
  8 23  1  1  0  0  0
  9  1  2  0  0  0  0
 10 18  1  0  0  0  0
 11 15  1  0  0  0  0
 11  4  2  0  0  0  0
 13  8  1  0  0  0  0
 14  1  1  0  0  0  0
 14  5  2  0  0  0  0
 15 20  2  0  0  0  0
 16 17  1  1  0  0  0
 16 12  1  0  0  0  0
 18 13  2  0  0  0  0
 19  3  1  0  0  0  0
 19 10  2  0  0  0  0
 20 19  1  0  0  0  0
 22 21  2  0  0  0  0
 22 25  1  0  0  0  0
 23 22  1  0  0  0  0
 25 24  1  1  0  0  0
 26 27  2  0  0  0  0
 27 25  1  0  0  0  0
 27 28  1  0  0  0  0
 29 28  1  1  0  0  0
 29 30  1  0  0  0  0
 29 31  1  0  0  0  0
 30 31  1  0  0  0  0
M  END
>  <MODEL>
5

>  <REMARK>
 VINA RESULT:      -9.4      4.030      7.642
  Name = 
  4 active torsions:
  status: ('A' for Active; 'I' for Inactive)
    1  A    between atoms: C_1  and  N_24
    2  A    between atoms: C_9  and  C_22
    3  A    between atoms: C_15  and  N_23
    4  A    between atoms: C_19  and  C_22
                            x       y       z     vdW  Elec       q    Type
                         _______ _______ _______ _____ _____    ______ ____

>  <TORSDO>
F 4

$$$$
=
 OpenBabel10262419273D

 31 35  0  0  1  0  0  0  0  0999 V2000
  190.2450  177.0370  145.9780 C   0  0  0  0  0  0  0  0  0  0  0  0
  187.6390  178.1940  143.3980 C   0  0  0  0  0  0  0  0  0  0  0  0
  186.4600  178.6120  144.0800 C   0  0  0  0  0  0  0  0  0  0  0  0
  185.4670  177.8980  146.2290 C   0  0  0  0  0  3  0  0  0  0  0  0
  188.9050  177.7610  144.0680 C   0  0  0  0  0  0  0  0  0  0  0  0
  191.3480  176.6290  145.1010 C   0  0  0  0  0  3  0  0  0  0  0  0
  186.4490  178.8030  145.5670 C   0  0  0  0  0  2  0  0  0  0  0  0
  188.9280  177.8230  141.2440 C   0  0  2  0  0  3  0  0  0  0  0  0
  190.3500  176.9150  147.2250 O   0  0  0  0  0  0  0  0  0  0  0  0
  185.3700  178.9960  141.9400 C   0  0  0  0  0  3  0  0  0  0  0  0
  184.1530  178.0050  146.0370 C   0  0  0  0  0  3  0  0  0  0  0  0
  189.7030  176.9060  141.9840 O   0  0  0  0  0  0  0  0  0  0  0  0
  187.6480  178.1800  141.9820 C   0  0  0  0  0  0  0  0  0  0  0  0
  189.0000  177.5400  145.3850 C   0  0  0  0  0  3  0  0  0  0  0  0
  183.5160  178.9520  145.1040 C   0  0  0  0  0  3  0  0  0  0  0  0
  190.1070  177.5670  143.1560 C   0  0  2  0  0  3  0  0  0  0  0  0
  191.2710  176.8410  143.7870 C   0  0  0  0  0  3  0  0  0  0  0  0
  186.5250  178.6110  141.2700 C   0  0  0  0  0  3  0  0  0  0  0  0
  185.3130  178.9790  143.3340 C   0  0  0  0  0  0  0  0  0  0  0  0
  184.0240  179.3780  143.9410 C   0  0  0  0  0  3  0  0  0  0  0  0
  189.1150  179.2030  138.7450 O   0  0  0  0  0  0  0  0  0  0  0  0
  188.7620  177.9930  138.7200 C   0  0  0  0  0  0  0  0  0  0  0  0
  188.6280  177.2520  139.9360 N   0  0  0  0  0  2  0  0  0  0  0  0
  187.5910  176.1240  137.5800 C   0  0  0  0  0  1  0  0  0  0  0  0
  188.4890  177.3390  137.4040 C   0  0  2  0  0  3  0  0  0  0  0  0
  189.8380  177.1010  135.4580 O   0  0  0  0  0  0  0  0  0  0  0  0
  189.7600  176.9700  136.7080 C   0  0  0  0  0  0  0  0  0  0  0  0
  190.8810  176.4930  137.4590 N   0  0  0  0  0  2  0  0  0  0  0  0
  192.1450  176.1560  136.8260 C   0  0  2  0  0  3  0  0  0  0  0  0
  192.8520  175.1410  137.6400 C   0  0  0  0  0  2  0  0  0  0  0  0
  193.1980  176.5040  137.6960 O   0  0  0  0  0  0  0  0  0  0  0  0
  1  9  2  0  0  0  0
  2  5  1  0  0  0  0
  2  3  1  0  0  0  0
  3  7  1  0  0  0  0
  5 14  2  0  0  0  0
  6  1  1  0  0  0  0
  7  4  1  0  0  0  0
  8 23  1  6  0  0  0
  8 13  1  0  0  0  0
  8 12  1  0  0  0  0
 10 19  1  0  0  0  0
 11  4  2  0  0  0  0
 12 16  1  0  0  0  0
 13  2  2  0  0  0  0
 14  1  1  0  0  0  0
 15 11  1  0  0  0  0
 16 17  1  1  0  0  0
 16  5  1  0  0  0  0
 17  6  2  0  0  0  0
 18 10  2  0  0  0  0
 18 13  1  0  0  0  0
 19 20  1  0  0  0  0
 19  3  2  0  0  0  0
 20 15  2  0  0  0  0
 22 21  2  0  0  0  0
 22 23  1  0  0  0  0
 25 24  1  1  0  0  0
 25 22  1  0  0  0  0
 26 27  2  0  0  0  0
 27 25  1  0  0  0  0
 27 28  1  0  0  0  0
 29 28  1  1  0  0  0
 29 30  1  0  0  0  0
 29 31  1  0  0  0  0
 30 31  1  0  0  0  0
M  END
>  <MODEL>
6

>  <REMARK>
 VINA RESULT:      -9.3      1.814      4.254
  Name = 
  4 active torsions:
  status: ('A' for Active; 'I' for Inactive)
    1  A    between atoms: C_1  and  N_24
    2  A    between atoms: C_9  and  C_22
    3  A    between atoms: C_15  and  N_23
    4  A    between atoms: C_19  and  C_22
                            x       y       z     vdW  Elec       q    Type
                         _______ _______ _______ _____ _____    ______ ____

>  <TORSDO>
F 4

$$$$
=
 OpenBabel10262419273D

 31 35  0  0  1  0  0  0  0  0999 V2000
  190.8770  177.2870  141.9810 C   0  0  0  0  0  0  0  0  0  0  0  0
  187.6360  178.1880  143.8430 C   0  0  0  0  0  0  0  0  0  0  0  0
  187.8720  178.1270  145.2480 C   0  0  0  0  0  0  0  0  0  0  0  0
  189.4300  176.7560  146.5920 C   0  0  0  0  0  3  0  0  0  0  0  0
  188.6820  177.9880  142.7930 C   0  0  0  0  0  0  0  0  0  0  0  0
  190.4340  177.3760  140.5860 C   0  0  0  0  0  3  0  0  0  0  0  0
  189.2610  178.0060  145.7980 C   0  0  0  0  0  2  0  0  0  0  0  0
  186.0830  178.6190  141.8830 C   0  0  2  0  0  3  0  0  0  0  0  0
  192.0580  176.9500  142.2500 O   0  0  0  0  0  0  0  0  0  0  0  0
  185.5250  178.6220  145.6520 C   0  0  0  0  0  3  0  0  0  0  0  0
  188.7790  176.5400  147.7330 C   0  0  0  0  0  3  0  0  0  0  0  0
  186.9700  177.8160  141.1350 O   0  0  0  0  0  0  0  0  0  0  0  0
  186.3280  178.4610  143.3760 C   0  0  0  0  0  0  0  0  0  0  0  0
  189.9160  177.5420  143.0610 C   0  0  0  0  0  3  0  0  0  0  0  0
  187.7670  177.4470  148.3060 C   0  0  0  0  0  3  0  0  0  0  0  0
  188.2630  178.3130  141.3670 C   0  0  2  0  0  3  0  0  0  0  0  0
  189.2090  177.8180  140.3000 C   0  0  0  0  0  3  0  0  0  0  0  0
  185.2950  178.7060  144.2840 C   0  0  0  0  0  3  0  0  0  0  0  0
  186.7920  178.3120  146.1470 C   0  0  0  0  0  0  0  0  0  0  0  0
  186.9160  178.2180  147.6180 C   0  0  0  0  0  3  0  0  0  0  0  0
  184.5500  179.7510  139.7500 O   0  0  0  0  0  0  0  0  0  0  0  0
  184.0060  178.8530  140.4490 C   0  0  0  0  0  0  0  0  0  0  0  0
  184.7110  178.2610  141.5440 N   0  0  0  0  0  2  0  0  0  0  0  0
  181.7260  178.4590  141.3480 C   0  0  0  0  0  1  0  0  0  0  0  0
  182.6180  178.4100  140.1180 C   0  0  2  0  0  3  0  0  0  0  0  0
  181.8590  176.1580  139.9850 O   0  0  0  0  0  0  0  0  0  0  0  0
  182.6160  177.0450  139.5080 C   0  0  0  0  0  0  0  0  0  0  0  0
  183.4510  176.7560  138.3830 N   0  0  0  0  0  2  0  0  0  0  0  0
  183.4550  175.4530  137.7390 C   0  0  2  0  0  3  0  0  0  0  0  0
  184.8090  175.1620  137.2170 C   0  0  0  0  0  2  0  0  0  0  0  0
  183.7760  175.6170  136.3770 O   0  0  0  0  0  0  0  0  0  0  0  0
  1  9  2  0  0  0  0
  1 14  1  0  0  0  0
  2  3  1  0  0  0  0
  3  7  1  0  0  0  0
  3 19  2  0  0  0  0
  4 11  2  0  0  0  0
  5 14  2  0  0  0  0
  5  2  1  0  0  0  0
  6  1  1  0  0  0  0
  7  4  1  0  0  0  0
  8 23  1  1  0  0  0
  8 13  1  0  0  0  0
 10 19  1  0  0  0  0
 11 15  1  0  0  0  0
 12 16  1  0  0  0  0
 12  8  1  0  0  0  0
 13  2  2  0  0  0  0
 13 18  1  0  0  0  0
 16 17  1  6  0  0  0
 16  5  1  0  0  0  0
 17  6  2  0  0  0  0
 18 10  2  0  0  0  0
 19 20  1  0  0  0  0
 20 15  2  0  0  0  0
 21 22  2  0  0  0  0
 22 23  1  0  0  0  0
 25 22  1  0  0  0  0
 25 24  1  1  0  0  0
 27 26  2  0  0  0  0
 27 25  1  0  0  0  0
 28 27  1  0  0  0  0
 29 28  1  1  0  0  0
 30 29  1  0  0  0  0
 31 30  1  0  0  0  0
 31 29  1  0  0  0  0
M  END
>  <MODEL>
7

>  <REMARK>
 VINA RESULT:      -9.2      3.138      5.804
  Name = 
  4 active torsions:
  status: ('A' for Active; 'I' for Inactive)
    1  A    between atoms: C_1  and  N_24
    2  A    between atoms: C_9  and  C_22
    3  A    between atoms: C_15  and  N_23
    4  A    between atoms: C_19  and  C_22
                            x       y       z     vdW  Elec       q    Type
                         _______ _______ _______ _____ _____    ______ ____

>  <TORSDO>
F 4

$$$$
=
 OpenBabel10262419273D

 31 35  0  0  1  0  0  0  0  0999 V2000
  190.1860  177.1280  146.4130 C   0  0  0  0  0  0  0  0  0  0  0  0
  187.6720  178.1610  143.6930 C   0  0  0  0  0  0  0  0  0  0  0  0
  186.4700  178.6120  144.3140 C   0  0  0  0  0  0  0  0  0  0  0  0
  185.4030  178.0030  146.4600 C   0  0  0  0  0  3  0  0  0  0  0  0
  188.9130  177.7590  144.4260 C   0  0  0  0  0  0  0  0  0  0  0  0
  191.3160  176.6770  145.5950 C   0  0  0  0  0  3  0  0  0  0  0  0
  186.4100  178.8740  145.7890 C   0  0  0  0  0  2  0  0  0  0  0  0
  189.0320  177.6860  141.6050 C   0  0  2  0  0  3  0  0  0  0  0  0
  190.2470  177.0660  147.6680 O   0  0  0  0  0  0  0  0  0  0  0  0
  185.4560  178.8930  142.1220 C   0  0  0  0  0  3  0  0  0  0  0  0
  184.0980  178.1010  146.2180 C   0  0  0  0  0  3  0  0  0  0  0  0
  189.7800  176.8050  142.4140 O   0  0  0  0  0  0  0  0  0  0  0  0
  187.7280  178.0790  142.2810 C   0  0  0  0  0  0  0  0  0  0  0  0
  188.9630  177.6030  145.7550 C   0  0  0  0  0  3  0  0  0  0  0  0
  183.4950  179.0030  145.2190 C   0  0  0  0  0  3  0  0  0  0  0  0
  190.1450  177.5220  143.5660 C   0  0  2  0  0  3  0  0  0  0  0  0
  191.2850  176.8270  144.2710 C   0  0  0  0  0  3  0  0  0  0  0  0
  186.6320  178.4750  141.5110 C   0  0  0  0  0  3  0  0  0  0  0  0
  185.3500  178.9430  143.5120 C   0  0  0  0  0  0  0  0  0  0  0  0
  184.0430  179.3710  144.0550 C   0  0  0  0  0  3  0  0  0  0  0  0
  189.0560  179.0090  139.0690 O   0  0  0  0  0  0  0  0  0  0  0  0
  188.8230  177.7700  139.0800 C   0  0  0  0  0  0  0  0  0  0  0  0
  188.7760  177.0530  140.3170 N   0  0  0  0  0  2  0  0  0  0  0  0
  189.2090  177.8310  136.6280 C   0  0  0  0  0  1  0  0  0  0  0  0
  188.6010  177.0560  137.7850 C   0  0  2  0  0  3  0  0  0  0  0  0
  186.3250  177.7450  137.6760 O   0  0  0  0  0  0  0  0  0  0  0  0
  187.1460  176.7980  137.5520 C   0  0  0  0  0  0  0  0  0  0  0  0
  186.6970  175.4930  137.1740 N   0  0  0  0  0  2  0  0  0  0  0  0
  185.2970  175.2080  136.9050 C   0  0  2  0  0  3  0  0  0  0  0  0
  185.0480  173.7570  137.0610 C   0  0  0  0  0  2  0  0  0  0  0  0
  185.2120  174.3450  135.7940 O   0  0  0  0  0  0  0  0  0  0  0  0
  1  9  2  0  0  0  0
  2  3  1  0  0  0  0
  2  5  1  0  0  0  0
  3  7  1  0  0  0  0
  5 14  2  0  0  0  0
  6  1  1  0  0  0  0
  7  4  1  0  0  0  0
  8 23  1  6  0  0  0
  8 13  1  0  0  0  0
  8 12  1  0  0  0  0
 10 19  1  0  0  0  0
 11  4  2  0  0  0  0
 12 16  1  0  0  0  0
 13  2  2  0  0  0  0
 14  1  1  0  0  0  0
 15 11  1  0  0  0  0
 16 17  1  1  0  0  0
 16  5  1  0  0  0  0
 17  6  2  0  0  0  0
 18 10  2  0  0  0  0
 18 13  1  0  0  0  0
 19 20  1  0  0  0  0
 19  3  2  0  0  0  0
 20 15  2  0  0  0  0
 21 22  2  0  0  0  0
 22 23  1  0  0  0  0
 25 24  1  6  0  0  0
 25 22  1  0  0  0  0
 27 26  2  0  0  0  0
 27 25  1  0  0  0  0
 28 27  1  0  0  0  0
 29 30  1  0  0  0  0
 29 28  1  1  0  0  0
 31 29  1  0  0  0  0
 31 30  1  0  0  0  0
M  END
>  <MODEL>
8

>  <REMARK>
 VINA RESULT:      -9.2      2.553      5.057
  Name = 
  4 active torsions:
  status: ('A' for Active; 'I' for Inactive)
    1  A    between atoms: C_1  and  N_24
    2  A    between atoms: C_9  and  C_22
    3  A    between atoms: C_15  and  N_23
    4  A    between atoms: C_19  and  C_22
                            x       y       z     vdW  Elec       q    Type
                         _______ _______ _______ _____ _____    ______ ____

>  <TORSDO>
F 4

$$$$
=
 OpenBabel10262419273D

 31 35  0  0  1  0  0  0  0  0999 V2000
  190.8810  177.4480  141.6300 C   0  0  0  0  0  0  0  0  0  0  0  0
  187.7060  178.2060  143.6630 C   0  0  0  0  0  0  0  0  0  0  0  0
  188.0080  178.1140  145.0530 C   0  0  0  0  0  0  0  0  0  0  0  0
  189.6640  176.7540  146.2860 C   0  0  0  0  0  3  0  0  0  0  0  0
  188.7070  178.0630  142.5610 C   0  0  0  0  0  0  0  0  0  0  0  0
  190.3710  177.5600  140.2600 C   0  0  0  0  0  3  0  0  0  0  0  0
  189.4240  178.0190  145.5350 C   0  0  0  0  0  2  0  0  0  0  0  0
  186.0520  178.6420  141.7880 C   0  0  2  0  0  3  0  0  0  0  0  0
  192.0820  177.1390  141.8360 O   0  0  0  0  0  0  0  0  0  0  0  0
  185.6700  178.5300  145.5780 C   0  0  0  0  0  3  0  0  0  0  0  0
  189.0730  176.4900  147.4500 C   0  0  0  0  0  3  0  0  0  0  0  0
  186.9260  177.8850  140.9790 O   0  0  0  0  0  0  0  0  0  0  0  0
  186.3710  178.4520  143.2630 C   0  0  0  0  0  0  0  0  0  0  0  0
  189.9650  177.6470  142.7600 C   0  0  0  0  0  3  0  0  0  0  0  0
  188.0640  177.3510  148.0930 C   0  0  0  0  0  3  0  0  0  0  0  0
  188.2140  178.4140  141.1650 C   0  0  2  0  0  3  0  0  0  0  0  0
  189.1230  177.9750  140.0420 C   0  0  0  0  0  3  0  0  0  0  0  0
  185.3740  178.6430  144.2240 C   0  0  0  0  0  3  0  0  0  0  0  0
  186.9670  178.2440  146.0050 C   0  0  0  0  0  0  0  0  0  0  0  0
  187.1610  178.1150  147.4650 C   0  0  0  0  0  3  0  0  0  0  0  0
  184.4320  179.7000  139.6820 O   0  0  0  0  0  0  0  0  0  0  0  0
  183.9260  178.8090  140.4180 C   0  0  0  0  0  0  0  0  0  0  0  0
  184.6760  178.2540  141.5020 N   0  0  0  0  0  2  0  0  0  0  0  0
  182.5160  176.8380  139.8800 C   0  0  0  0  0  1  0  0  0  0  0  0
  182.5360  178.3350  140.1430 C   0  0  2  0  0  3  0  0  0  0  0  0
  182.1080  178.6820  137.8270 O   0  0  0  0  0  0  0  0  0  0  0  0
  181.9230  179.0880  139.0050 C   0  0  0  0  0  0  0  0  0  0  0  0
  181.1180  180.2440  139.2550 N   0  0  0  0  0  2  0  0  0  0  0  0
  180.4760  180.9840  138.1810 C   0  0  2  0  0  3  0  0  0  0  0  0
  181.1830  182.2680  137.9730 C   0  0  0  0  0  2  0  0  0  0  0  0
  179.9780  182.1970  138.6960 O   0  0  0  0  0  0  0  0  0  0  0  0
  1  9  2  0  0  0  0
  1 14  1  0  0  0  0
  2  3  1  0  0  0  0
  3  7  1  0  0  0  0
  3 19  2  0  0  0  0
  4 11  2  0  0  0  0
  5 14  2  0  0  0  0
  5  2  1  0  0  0  0
  6  1  1  0  0  0  0
  7  4  1  0  0  0  0
  8 23  1  1  0  0  0
  8 13  1  0  0  0  0
 10 19  1  0  0  0  0
 11 15  1  0  0  0  0
 12 16  1  0  0  0  0
 12  8  1  0  0  0  0
 13  2  2  0  0  0  0
 13 18  1  0  0  0  0
 16 17  1  6  0  0  0
 16  5  1  0  0  0  0
 17  6  2  0  0  0  0
 18 10  2  0  0  0  0
 19 20  1  0  0  0  0
 20 15  2  0  0  0  0
 21 22  2  0  0  0  0
 22 23  1  0  0  0  0
 25 24  1  6  0  0  0
 25 22  1  0  0  0  0
 26 27  2  0  0  0  0
 27 28  1  0  0  0  0
 27 25  1  0  0  0  0
 29 31  1  0  0  0  0
 29 28  1  1  0  0  0
 30 29  1  0  0  0  0
 30 31  1  0  0  0  0
M  END
>  <MODEL>
9

>  <REMARK>
 VINA RESULT:      -9.1      3.740      6.814
  Name = 
  4 active torsions:
  status: ('A' for Active; 'I' for Inactive)
    1  A    between atoms: C_1  and  N_24
    2  A    between atoms: C_9  and  C_22
    3  A    between atoms: C_15  and  N_23
    4  A    between atoms: C_19  and  C_22
                            x       y       z     vdW  Elec       q    Type
                         _______ _______ _______ _____ _____    ______ ____

>  <TORSDO>
F 4

$$$$
