=
 OpenBabel10262421183D

 32 34  0  0  1  0  0  0  0  0999 V2000
  188.3720  178.0620  141.6570 C   0  0  0  0  0  2  0  0  0  0  0  0
  189.7120  177.3390  141.8320 C   0  0  1  0  0  3  0  0  0  0  0  0
  187.4270  177.8470  142.7660 N   0  0  0  0  0  0  0  0  0  0  0  0
  188.1370  177.7830  144.0580 C   0  0  2  0  0  3  0  0  0  0  0  0
  189.0830  176.5690  144.1100 C   0  0  0  0  0  2  0  0  0  0  0  0
  189.5550  176.1250  142.7270 C   0  0  0  0  0  2  0  0  0  0  0  0
  188.0440  177.2560  147.6310 C   0  0  0  0  0  3  0  0  0  0  0  0
  187.1790  177.6880  145.2100 C   0  0  0  0  0  3  0  0  0  0  0  0
  188.8810  178.2780  148.3120 C   0  0  0  0  0  1  0  0  0  0  0  0
  187.6100  177.4700  146.4230 C   0  0  0  0  0  0  0  0  0  0  0  0
  186.5630  179.0240  142.7540 C   0  0  0  0  0  2  0  0  0  0  0  0
  185.2510  178.6790  142.1430 C   0  0  0  0  0  0  0  0  0  0  0  0
  181.2270  178.5660  138.8420 C   0  0  0  0  0  3  0  0  0  0  0  0
  184.4740  177.8920  142.7450 O   0  0  0  0  0  0  0  0  0  0  0  0
  183.4410  179.7860  138.8850 C   0  0  0  0  0  2  0  0  0  0  0  0
  183.6440  179.0750  140.1990 C   0  0  0  0  0  0  0  0  0  0  0  0
  184.8820  179.2720  140.8910 N   0  0  0  0  0  2  0  0  0  0  0  0
  182.6900  178.3620  140.7290 N   0  0  0  0  0  0  0  0  0  0  0  0
  182.2610  179.2950  138.1760 N   0  0  0  0  0  2  0  0  0  0  0  0
  181.4330  178.1280  140.0800 C   0  0  0  0  0  3  0  0  0  0  0  0
  190.3910  176.8710  140.2130 S   0  0  0  0  0  0  0  0  0  0  0  0
  189.3620  178.0690  139.3020 C   0  0  0  0  0  2  0  0  0  0  0  0
  188.8800  178.8830  136.9540 C   0  0  0  0  0  2  0  0  0  0  0  0
  190.3600  176.8500  137.1950 C   0  0  0  0  0  1  0  0  0  0  0  0
  189.2780  177.7160  137.8250 C   0  0  1  0  0  0  0  0  0  0  0  0
  187.8880  177.7550  137.2060 C   0  0  2  0  0  3  0  0  0  0  0  0
  187.8100  176.9320  136.0790 O   0  0  0  0  0  0  0  0  0  0  0  0
  186.6410  176.1890  136.2620 C   0  0  0  0  0  2  0  0  0  0  0  0
  188.0160  174.2480  136.5130 O   0  0  0  0  0  1  0  0  0  0  0  0
  186.9390  174.9390  137.0720 C   0  0  2  0  0  3  0  0  0  0  0  0
  185.7150  174.0370  137.1360 C   0  0  0  0  0  2  0  0  0  0  0  0
  185.9360  172.9620  137.9990 O   0  0  0  0  0  1  0  0  0  0  0  0
  1  2  1  0  0  0  0
  1  3  1  0  0  0  0
  2 21  1  6  0  0  0
  2  6  1  0  0  0  0
  3  4  1  0  0  0  0
  4  5  1  0  0  0  0
  4  8  1  1  0  0  0
  6  5  1  0  0  0  0
  7  9  1  0  0  0  0
  8 10  2  0  0  0  0
 10  7  2  0  0  0  0
 11  3  1  0  0  0  0
 12 14  2  0  0  0  0
 12 11  1  0  0  0  0
 13 20  2  0  0  0  0
 15 16  1  0  0  0  0
 16 18  2  0  0  0  0
 16 17  1  0  0  0  0
 17 12  1  0  0  0  0
 19 13  1  0  0  0  0
 19 15  1  0  0  0  0
 20 18  1  0  0  0  0
 22 21  1  0  0  0  0
 23 26  1  0  0  0  0
 23 25  1  0  0  0  0
 25 24  1  6  0  0  0
 25 22  1  0  0  0  0
 26 27  1  6  0  0  0
 26 25  1  0  0  0  0
 27 28  1  0  0  0  0
 28 30  1  0  0  0  0
 30 29  1  6  0  0  0
 30 31  1  0  0  0  0
 31 32  1  0  0  0  0
M  END
>  <MODEL>
1

>  <REMARK>
 VINA RESULT:      -6.9      0.000      0.000
  Name = 
  10 active torsions:
  status: ('A' for Active; 'I' for Inactive)
    1  A    between atoms: C_2  and  N_5
    2  A    between atoms: C_2  and  C_6
    3  A    between atoms: C_4  and  S_27
    4  A    between atoms: O_7  and  C_19
    5  A    between atoms: O_7  and  C_26
    6  A    between atoms: C_8  and  C_19
    7  A    between atoms: C_8  and  C_22
    8  A    between atoms: C_14  and  C_18
    9  A    between atoms: C_20  and  C_24
   10  A    between atoms: C_24  and  S_27
                            x       y       z     vdW  Elec       q    Type
                         _______ _______ _______ _____ _____    ______ ____

>  <TORSDO>
F 10

$$$$
=
 OpenBabel10262421183D

 32 34  0  0  1  0  0  0  0  0999 V2000
  187.8220  178.1620  141.8660 C   0  0  0  0  0  2  0  0  0  0  0  0
  189.2010  177.4950  141.9190 C   0  0  1  0  0  3  0  0  0  0  0  0
  186.9760  177.8800  143.0380 N   0  0  0  0  0  0  0  0  0  0  0  0
  187.7860  177.8180  144.2700 C   0  0  2  0  0  3  0  0  0  0  0  0
  188.7840  176.6470  144.2170 C   0  0  0  0  0  2  0  0  0  0  0  0
  189.1660  176.2550  142.7920 C   0  0  0  0  0  2  0  0  0  0  0  0
  187.9950  177.2270  147.8270 C   0  0  0  0  0  3  0  0  0  0  0  0
  186.9250  177.6550  145.4890 C   0  0  0  0  0  3  0  0  0  0  0  0
  188.8300  178.2780  148.4650 C   0  0  0  0  0  1  0  0  0  0  0  0
  187.4590  177.4390  146.6610 C   0  0  0  0  0  0  0  0  0  0  0  0
  186.0640  179.0170  143.1230 C   0  0  0  0  0  2  0  0  0  0  0  0
  184.7830  178.6880  142.4410 C   0  0  0  0  0  0  0  0  0  0  0  0
  181.1060  178.2980  138.7770 C   0  0  0  0  0  3  0  0  0  0  0  0
  183.8610  178.1280  143.0910 O   0  0  0  0  0  0  0  0  0  0  0  0
  183.4400  179.2670  138.8390 C   0  0  0  0  0  2  0  0  0  0  0  0
  183.4280  178.8290  140.2820 C   0  0  0  0  0  0  0  0  0  0  0  0
  184.6110  179.0400  141.0630 N   0  0  0  0  0  2  0  0  0  0  0  0
  182.3480  178.3450  140.8260 N   0  0  0  0  0  0  0  0  0  0  0  0
  182.2800  178.7620  138.1070 N   0  0  0  0  0  2  0  0  0  0  0  0
  181.1390  178.1090  140.0930 C   0  0  0  0  0  3  0  0  0  0  0  0
  189.7710  177.0930  140.2410 S   0  0  0  0  0  0  0  0  0  0  0  0
  188.8860  178.4930  139.4770 C   0  0  0  0  0  2  0  0  0  0  0  0
  186.9340  177.8210  138.0120 C   0  0  0  0  0  2  0  0  0  0  0  0
  188.8830  178.9740  136.8900 C   0  0  0  0  0  1  0  0  0  0  0  0
  188.4080  178.1460  138.0760 C   0  0  1  0  0  0  0  0  0  0  0  0
  187.9610  176.7060  137.8590 C   0  0  2  0  0  3  0  0  0  0  0  0
  188.0650  176.3390  136.5150 O   0  0  0  0  0  0  0  0  0  0  0  0
  188.9160  175.2310  136.5140 C   0  0  0  0  0  2  0  0  0  0  0  0
  190.4060  175.3300  134.6460 O   0  0  0  0  0  1  0  0  0  0  0  0
  190.2910  175.6290  136.0060 C   0  0  2  0  0  3  0  0  0  0  0  0
  191.3800  174.9150  136.7940 C   0  0  0  0  0  2  0  0  0  0  0  0
  190.8780  174.4250  138.0010 O   0  0  0  0  0  1  0  0  0  0  0  0
  1  2  1  0  0  0  0
  1  3  1  0  0  0  0
  2 21  1  6  0  0  0
  2  6  1  0  0  0  0
  3 11  1  0  0  0  0
  3  4  1  0  0  0  0
  4  8  1  1  0  0  0
  5  4  1  0  0  0  0
  6  5  1  0  0  0  0
  7  9  1  0  0  0  0
  8 10  2  0  0  0  0
 10  7  2  0  0  0  0
 12 14  2  0  0  0  0
 12 11  1  0  0  0  0
 13 20  2  0  0  0  0
 15 16  1  0  0  0  0
 16 18  2  0  0  0  0
 16 17  1  0  0  0  0
 17 12  1  0  0  0  0
 19 13  1  0  0  0  0
 19 15  1  0  0  0  0
 20 18  1  0  0  0  0
 22 21  1  0  0  0  0
 23 25  1  0  0  0  0
 25 24  1  6  0  0  0
 25 22  1  0  0  0  0
 26 27  1  6  0  0  0
 26 23  1  0  0  0  0
 26 25  1  0  0  0  0
 28 27  1  0  0  0  0
 30 29  1  6  0  0  0
 30 28  1  0  0  0  0
 30 31  1  0  0  0  0
 31 32  1  0  0  0  0
M  END
>  <MODEL>
2

>  <REMARK>
 VINA RESULT:      -6.8      1.300      1.852
  Name = 
  10 active torsions:
  status: ('A' for Active; 'I' for Inactive)
    1  A    between atoms: C_2  and  N_5
    2  A    between atoms: C_2  and  C_6
    3  A    between atoms: C_4  and  S_27
    4  A    between atoms: O_7  and  C_19
    5  A    between atoms: O_7  and  C_26
    6  A    between atoms: C_8  and  C_19
    7  A    between atoms: C_8  and  C_22
    8  A    between atoms: C_14  and  C_18
    9  A    between atoms: C_20  and  C_24
   10  A    between atoms: C_24  and  S_27
                            x       y       z     vdW  Elec       q    Type
                         _______ _______ _______ _____ _____    ______ ____

>  <TORSDO>
F 10

$$$$
=
 OpenBabel10262421183D

 32 34  0  0  1  0  0  0  0  0999 V2000
  187.6410  178.3890  141.2440 C   0  0  0  0  0  2  0  0  0  0  0  0
  188.8810  177.7110  141.8350 C   0  0  1  0  0  3  0  0  0  0  0  0
  186.4180  178.2060  142.0450 N   0  0  0  0  0  0  0  0  0  0  0  0
  186.7270  178.2250  143.4880 C   0  0  2  0  0  3  0  0  0  0  0  0
  187.6310  177.0400  143.8760 C   0  0  0  0  0  2  0  0  0  0  0  0
  188.4860  176.5400  142.7150 C   0  0  0  0  0  2  0  0  0  0  0  0
  185.6020  178.3210  146.9190 C   0  0  0  0  0  3  0  0  0  0  0  0
  185.4790  178.1630  144.3200 C   0  0  0  0  0  3  0  0  0  0  0  0
  186.0610  179.5790  147.5650 C   0  0  0  0  0  1  0  0  0  0  0  0
  185.5380  178.2410  145.6220 C   0  0  0  0  0  0  0  0  0  0  0  0
  185.5820  179.3570  141.7210 C   0  0  0  0  0  2  0  0  0  0  0  0
  184.7470  179.0530  140.5270 C   0  0  0  0  0  0  0  0  0  0  0  0
  181.4970  176.6090  137.2770 C   0  0  0  0  0  3  0  0  0  0  0  0
  184.7510  179.8460  139.5490 O   0  0  0  0  0  0  0  0  0  0  0  0
  182.4160  176.0910  139.5740 C   0  0  0  0  0  2  0  0  0  0  0  0
  183.1600  177.3930  139.4130 C   0  0  0  0  0  0  0  0  0  0  0  0
  183.9760  177.8450  140.4990 N   0  0  0  0  0  2  0  0  0  0  0  0
  183.1240  178.0500  138.2880 N   0  0  0  0  0  0  0  0  0  0  0  0
  181.4350  175.8880  138.5090 N   0  0  0  0  0  2  0  0  0  0  0  0
  182.3220  177.6460  137.1690 C   0  0  0  0  0  3  0  0  0  0  0  0
  190.0020  177.1800  140.5080 S   0  0  0  0  0  0  0  0  0  0  0  0
  189.3240  178.3650  139.2990 C   0  0  0  0  0  2  0  0  0  0  0  0
  188.5630  178.6540  136.9020 C   0  0  0  0  0  2  0  0  0  0  0  0
  190.3720  176.9460  137.3460 C   0  0  0  0  0  1  0  0  0  0  0  0
  189.2050  177.7390  137.9180 C   0  0  1  0  0  0  0  0  0  0  0  0
  187.7900  177.4540  137.4330 C   0  0  2  0  0  3  0  0  0  0  0  0
  187.7770  176.4370  136.4750 O   0  0  0  0  0  0  0  0  0  0  0  0
  187.0140  175.4170  137.0500 C   0  0  0  0  0  2  0  0  0  0  0  0
  184.7700  174.6810  137.4280 O   0  0  0  0  0  1  0  0  0  0  0  0
  185.5340  175.6960  136.8480 C   0  0  2  0  0  3  0  0  0  0  0  0
  185.2090  175.8150  135.3660 C   0  0  0  0  0  2  0  0  0  0  0  0
  183.9670  175.2430  135.0840 O   0  0  0  0  0  1  0  0  0  0  0  0
  1  2  1  0  0  0  0
  1  3  1  0  0  0  0
  2 21  1  6  0  0  0
  2  6  1  0  0  0  0
  3  4  1  0  0  0  0
  4  5  1  0  0  0  0
  4  8  1  1  0  0  0
  6  5  1  0  0  0  0
  7  9  1  0  0  0  0
  8 10  2  0  0  0  0
 10  7  2  0  0  0  0
 11  3  1  0  0  0  0
 12 11  1  0  0  0  0
 13 19  1  0  0  0  0
 14 12  2  0  0  0  0
 16 15  1  0  0  0  0
 16 17  1  0  0  0  0
 17 12  1  0  0  0  0
 18 16  2  0  0  0  0
 19 15  1  0  0  0  0
 20 13  2  0  0  0  0
 20 18  1  0  0  0  0
 22 21  1  0  0  0  0
 23 26  1  0  0  0  0
 23 25  1  0  0  0  0
 25 24  1  6  0  0  0
 25 22  1  0  0  0  0
 26 27  1  6  0  0  0
 26 25  1  0  0  0  0
 27 28  1  0  0  0  0
 30 28  1  0  0  0  0
 30 29  1  6  0  0  0
 31 30  1  0  0  0  0
 32 31  1  0  0  0  0
M  END
>  <MODEL>
3

>  <REMARK>
 VINA RESULT:      -6.8      1.837      2.188
  Name = 
  10 active torsions:
  status: ('A' for Active; 'I' for Inactive)
    1  A    between atoms: C_2  and  N_5
    2  A    between atoms: C_2  and  C_6
    3  A    between atoms: C_4  and  S_27
    4  A    between atoms: O_7  and  C_19
    5  A    between atoms: O_7  and  C_26
    6  A    between atoms: C_8  and  C_19
    7  A    between atoms: C_8  and  C_22
    8  A    between atoms: C_14  and  C_18
    9  A    between atoms: C_20  and  C_24
   10  A    between atoms: C_24  and  S_27
                            x       y       z     vdW  Elec       q    Type
                         _______ _______ _______ _____ _____    ______ ____

>  <TORSDO>
F 10

$$$$
=
 OpenBabel10262421183D

 32 34  0  0  1  0  0  0  0  0999 V2000
  186.2890  177.9440  142.8430 C   0  0  0  0  0  2  0  0  0  0  0  0
  185.0280  178.0750  143.7040 C   0  0  1  0  0  3  0  0  0  0  0  0
  187.5440  177.9450  143.6150 N   0  0  0  0  0  0  0  0  0  0  0  0
  187.3740  177.2320  144.8960 C   0  0  2  0  0  3  0  0  0  0  0  0
  186.3590  177.9540  145.8000 C   0  0  0  0  0  2  0  0  0  0  0  0
  185.3410  178.7760  145.0130 C   0  0  0  0  0  2  0  0  0  0  0  0
  189.0230  178.3440  147.9120 C   0  0  0  0  0  3  0  0  0  0  0  0
  188.6740  177.1160  145.6390 C   0  0  0  0  0  3  0  0  0  0  0  0
  188.2210  177.9480  149.0990 C   0  0  0  0  0  1  0  0  0  0  0  0
  188.8510  177.7310  146.7760 C   0  0  0  0  0  0  0  0  0  0  0  0
  188.4940  177.2120  142.7840 C   0  0  0  0  0  2  0  0  0  0  0  0
  188.5390  177.8110  141.4220 C   0  0  0  0  0  0  0  0  0  0  0  0
  189.0630  178.3040  136.2660 C   0  0  0  0  0  3  0  0  0  0  0  0
  188.3510  179.0490  141.2830 O   0  0  0  0  0  0  0  0  0  0  0  0
  189.2420  176.3680  137.8820 C   0  0  0  0  0  2  0  0  0  0  0  0
  188.9410  177.4050  138.9340 C   0  0  0  0  0  0  0  0  0  0  0  0
  188.8230  176.9730  140.2950 N   0  0  0  0  0  2  0  0  0  0  0  0
  188.8670  178.6690  138.6270 N   0  0  0  0  0  0  0  0  0  0  0  0
  189.0780  176.8990  136.5300 N   0  0  0  0  0  2  0  0  0  0  0  0
  188.9740  179.1570  137.2830 C   0  0  0  0  0  3  0  0  0  0  0  0
  183.7290  178.9550  142.7890 S   0  0  0  0  0  0  0  0  0  0  0  0
  184.5590  178.7490  141.1780 C   0  0  0  0  0  2  0  0  0  0  0  0
  182.1660  178.2390  140.5300 C   0  0  0  0  0  2  0  0  0  0  0  0
  183.5290  179.6330  138.9240 C   0  0  0  0  0  1  0  0  0  0  0  0
  183.5490  178.6090  140.0500 C   0  0  1  0  0  0  0  0  0  0  0  0
  183.0140  177.2050  139.8010 C   0  0  2  0  0  3  0  0  0  0  0  0
  182.5600  177.0600  138.4880 O   0  0  0  0  0  0  0  0  0  0  0  0
  183.3450  176.0370  137.9510 C   0  0  0  0  0  2  0  0  0  0  0  0
  183.8270  175.1460  135.7840 O   0  0  0  0  0  1  0  0  0  0  0  0
  183.6690  176.3360  136.4970 C   0  0  2  0  0  3  0  0  0  0  0  0
  184.9310  177.1810  136.3920 C   0  0  0  0  0  2  0  0  0  0  0  0
  185.7410  177.0030  137.5160 O   0  0  0  0  0  1  0  0  0  0  0  0
  1  3  1  0  0  0  0
  1  2  1  0  0  0  0
  2 21  1  6  0  0  0
  2  6  1  0  0  0  0
  3  4  1  0  0  0  0
  4  8  1  1  0  0  0
  4  5  1  0  0  0  0
  6  5  1  0  0  0  0
  7  9  1  0  0  0  0
  8 10  2  0  0  0  0
 10  7  2  0  0  0  0
 11  3  1  0  0  0  0
 12 11  1  0  0  0  0
 13 19  1  0  0  0  0
 13 20  2  0  0  0  0
 14 12  2  0  0  0  0
 15 16  1  0  0  0  0
 16 17  1  0  0  0  0
 17 12  1  0  0  0  0
 18 16  2  0  0  0  0
 19 15  1  0  0  0  0
 20 18  1  0  0  0  0
 22 21  1  0  0  0  0
 25 24  1  6  0  0  0
 25 23  1  0  0  0  0
 25 22  1  0  0  0  0
 26 27  1  6  0  0  0
 26 25  1  0  0  0  0
 26 23  1  0  0  0  0
 28 27  1  0  0  0  0
 30 29  1  6  0  0  0
 30 28  1  0  0  0  0
 31 30  1  0  0  0  0
 31 32  1  0  0  0  0
M  END
>  <MODEL>
4

>  <REMARK>
 VINA RESULT:      -6.8      2.794      5.084
  Name = 
  10 active torsions:
  status: ('A' for Active; 'I' for Inactive)
    1  A    between atoms: C_2  and  N_5
    2  A    between atoms: C_2  and  C_6
    3  A    between atoms: C_4  and  S_27
    4  A    between atoms: O_7  and  C_19
    5  A    between atoms: O_7  and  C_26
    6  A    between atoms: C_8  and  C_19
    7  A    between atoms: C_8  and  C_22
    8  A    between atoms: C_14  and  C_18
    9  A    between atoms: C_20  and  C_24
   10  A    between atoms: C_24  and  S_27
                            x       y       z     vdW  Elec       q    Type
                         _______ _______ _______ _____ _____    ______ ____

>  <TORSDO>
F 10

$$$$
=
 OpenBabel10262421183D

 32 34  0  0  1  0  0  0  0  0999 V2000
  189.2330  177.1780  141.4260 C   0  0  0  0  0  2  0  0  0  0  0  0
  189.1690  176.7610  142.8990 C   0  0  1  0  0  3  0  0  0  0  0  0
  187.9580  177.6840  140.8900 N   0  0  0  0  0  0  0  0  0  0  0  0
  187.2320  178.4660  141.9100 C   0  0  2  0  0  3  0  0  0  0  0  0
  186.8310  177.5800  143.1040 C   0  0  0  0  0  2  0  0  0  0  0  0
  187.7530  176.3780  143.2880 C   0  0  0  0  0  2  0  0  0  0  0  0
  183.6520  178.5810  142.3760 C   0  0  0  0  0  3  0  0  0  0  0  0
  185.9900  179.0930  141.3450 C   0  0  0  0  0  3  0  0  0  0  0  0
  183.3380  179.0260  143.7600 C   0  0  0  0  0  1  0  0  0  0  0  0
  184.8180  178.8370  141.8590 C   0  0  0  0  0  0  0  0  0  0  0  0
  188.3380  178.5690  139.7930 C   0  0  0  0  0  2  0  0  0  0  0  0
  188.7900  177.7600  138.6280 C   0  0  0  0  0  0  0  0  0  0  0  0
  191.8540  175.1310  135.3420 C   0  0  0  0  0  3  0  0  0  0  0  0
  187.9560  177.4260  137.7440 O   0  0  0  0  0  0  0  0  0  0  0  0
  192.2460  176.3780  137.5060 C   0  0  0  0  0  2  0  0  0  0  0  0
  190.7670  176.6640  137.4420 C   0  0  0  0  0  0  0  0  0  0  0  0
  190.1730  177.4000  138.5180 N   0  0  0  0  0  2  0  0  0  0  0  0
  190.0630  176.3210  136.4000 N   0  0  0  0  0  0  0  0  0  0  0  0
  192.6590  175.4120  136.4900 N   0  0  0  0  0  2  0  0  0  0  0  0
  190.6050  175.5820  135.2970 C   0  0  0  0  0  3  0  0  0  0  0  0
  190.3240  175.3960  143.2190 S   0  0  0  0  0  0  0  0  0  0  0  0
  191.6800  176.5050  143.7250 C   0  0  0  0  0  2  0  0  0  0  0  0
  191.6810  176.9820  146.2110 C   0  0  0  0  0  2  0  0  0  0  0  0
  191.3660  178.9470  144.6540 C   0  0  0  0  0  1  0  0  0  0  0  0
  191.2420  177.4410  144.8410 C   0  0  1  0  0  0  0  0  0  0  0  0
  190.2120  176.8850  145.8150 C   0  0  2  0  0  3  0  0  0  0  0  0
  189.4870  177.9100  146.4280 O   0  0  0  0  0  0  0  0  0  0  0  0
  188.2070  177.3810  146.6090 C   0  0  0  0  0  2  0  0  0  0  0  0
  187.5740  177.8040  148.8760 O   0  0  0  0  0  1  0  0  0  0  0  0
  187.4120  178.2540  147.5630 C   0  0  2  0  0  3  0  0  0  0  0  0
  185.9370  178.2530  147.1880 C   0  0  0  0  0  2  0  0  0  0  0  0
  185.6090  179.4020  146.4650 O   0  0  0  0  0  1  0  0  0  0  0  0
  1  2  1  0  0  0  0
  2 21  1  6  0  0  0
  2  6  1  0  0  0  0
  3  1  1  0  0  0  0
  3  4  1  0  0  0  0
  4  8  1  6  0  0  0
  4  5  1  0  0  0  0
  5  6  1  0  0  0  0
  7  9  1  0  0  0  0
  8 10  2  0  0  0  0
 10  7  2  0  0  0  0
 11  3  1  0  0  0  0
 12 11  1  0  0  0  0
 13 19  1  0  0  0  0
 14 12  2  0  0  0  0
 16 15  1  0  0  0  0
 16 17  1  0  0  0  0
 17 12  1  0  0  0  0
 18 16  2  0  0  0  0
 19 15  1  0  0  0  0
 20 13  2  0  0  0  0
 20 18  1  0  0  0  0
 21 22  1  0  0  0  0
 22 25  1  0  0  0  0
 25 24  1  6  0  0  0
 25 26  1  0  0  0  0
 25 23  1  0  0  0  0
 26 23  1  0  0  0  0
 26 27  1  1  0  0  0
 27 28  1  0  0  0  0
 28 30  1  0  0  0  0
 30 29  1  1  0  0  0
 31 30  1  0  0  0  0
 32 31  1  0  0  0  0
M  END
>  <MODEL>
5

>  <REMARK>
 VINA RESULT:      -6.7      3.317      7.838
  Name = 
  10 active torsions:
  status: ('A' for Active; 'I' for Inactive)
    1  A    between atoms: C_2  and  N_5
    2  A    between atoms: C_2  and  C_6
    3  A    between atoms: C_4  and  S_27
    4  A    between atoms: O_7  and  C_19
    5  A    between atoms: O_7  and  C_26
    6  A    between atoms: C_8  and  C_19
    7  A    between atoms: C_8  and  C_22
    8  A    between atoms: C_14  and  C_18
    9  A    between atoms: C_20  and  C_24
   10  A    between atoms: C_24  and  S_27
                            x       y       z     vdW  Elec       q    Type
                         _______ _______ _______ _____ _____    ______ ____

>  <TORSDO>
F 10

$$$$
=
 OpenBabel10262421183D

 32 34  0  0  1  0  0  0  0  0999 V2000
  184.7750  178.6230  138.7590 C   0  0  0  0  0  2  0  0  0  0  0  0
  183.2840  178.3440  138.9730 C   0  0  1  0  0  3  0  0  0  0  0  0
  185.4890  177.5520  138.0440 N   0  0  0  0  0  0  0  0  0  0  0  0
  184.6310  176.9530  137.0020 C   0  0  2  0  0  3  0  0  0  0  0  0
  183.4070  176.2590  137.6260 C   0  0  0  0  0  2  0  0  0  0  0  0
  183.0110  176.8520  138.9760 C   0  0  0  0  0  2  0  0  0  0  0  0
  186.0780  173.6490  137.2010 C   0  0  0  0  0  3  0  0  0  0  0  0
  185.3820  175.9450  136.1810 C   0  0  0  0  0  3  0  0  0  0  0  0
  185.0350  172.6660  137.5940 C   0  0  0  0  0  1  0  0  0  0  0  0
  185.7330  174.7960  136.6900 C   0  0  0  0  0  0  0  0  0  0  0  0
  186.6200  178.2180  137.4050 C   0  0  0  0  0  2  0  0  0  0  0  0
  187.8720  177.9020  138.1440 C   0  0  0  0  0  0  0  0  0  0  0  0
  191.3140  177.3700  142.0140 C   0  0  0  0  0  3  0  0  0  0  0  0
  188.8740  177.4720  137.5120 O   0  0  0  0  0  0  0  0  0  0  0  0
  188.9260  178.1890  141.8750 C   0  0  0  0  0  2  0  0  0  0  0  0
  189.0660  177.9050  140.4000 C   0  0  0  0  0  0  0  0  0  0  0  0
  187.9270  178.1200  139.5590 N   0  0  0  0  0  2  0  0  0  0  0  0
  190.2120  177.5490  139.8930 N   0  0  0  0  0  0  0  0  0  0  0  0
  190.0670  177.6860  142.6380 N   0  0  0  0  0  2  0  0  0  0  0  0
  191.3830  177.3170  140.6870 C   0  0  0  0  0  3  0  0  0  0  0  0
  182.7140  179.1120  140.5170 S   0  0  0  0  0  0  0  0  0  0  0  0
  183.5300  177.8720  141.5760 C   0  0  0  0  0  2  0  0  0  0  0  0
  185.3260  179.4090  142.4790 C   0  0  0  0  0  2  0  0  0  0  0  0
  183.2540  179.0930  143.8900 C   0  0  0  0  0  1  0  0  0  0  0  0
  184.1530  178.5170  142.8050 C   0  0  1  0  0  0  0  0  0  0  0  0
  185.5640  178.0650  143.1550 C   0  0  2  0  0  3  0  0  0  0  0  0
  185.8370  178.2580  144.5120 O   0  0  0  0  0  0  0  0  0  0  0  0
  186.8170  177.3090  144.8150 C   0  0  0  0  0  2  0  0  0  0  0  0
  188.9630  177.1200  145.8530 O   0  0  0  0  0  1  0  0  0  0  0  0
  187.7850  177.8700  145.8430 C   0  0  2  0  0  3  0  0  0  0  0  0
  187.1530  177.8730  147.2280 C   0  0  0  0  0  2  0  0  0  0  0  0
  187.9910  178.4990  148.1520 O   0  0  0  0  0  1  0  0  0  0  0  0
  1  2  1  0  0  0  0
  2  6  1  0  0  0  0
  2 21  1  1  0  0  0
  3  1  1  0  0  0  0
  4  8  1  1  0  0  0
  4  5  1  0  0  0  0
  4  3  1  0  0  0  0
  5  6  1  0  0  0  0
  7  9  1  0  0  0  0
  8 10  2  0  0  0  0
 10  7  2  0  0  0  0
 11  3  1  0  0  0  0
 11 12  1  0  0  0  0
 12 17  1  0  0  0  0
 13 19  1  0  0  0  0
 14 12  2  0  0  0  0
 15 19  1  0  0  0  0
 16 15  1  0  0  0  0
 17 16  1  0  0  0  0
 18 16  2  0  0  0  0
 18 20  1  0  0  0  0
 20 13  2  0  0  0  0
 21 22  1  0  0  0  0
 22 25  1  0  0  0  0
 23 25  1  0  0  0  0
 23 26  1  0  0  0  0
 25 26  1  0  0  0  0
 25 24  1  1  0  0  0
 26 27  1  1  0  0  0
 27 28  1  0  0  0  0
 28 30  1  0  0  0  0
 30 29  1  1  0  0  0
 30 31  1  0  0  0  0
 31 32  1  0  0  0  0
M  END
>  <MODEL>
6

>  <REMARK>
 VINA RESULT:      -6.7      2.791      8.370
  Name = 
  10 active torsions:
  status: ('A' for Active; 'I' for Inactive)
    1  A    between atoms: C_2  and  N_5
    2  A    between atoms: C_2  and  C_6
    3  A    between atoms: C_4  and  S_27
    4  A    between atoms: O_7  and  C_19
    5  A    between atoms: O_7  and  C_26
    6  A    between atoms: C_8  and  C_19
    7  A    between atoms: C_8  and  C_22
    8  A    between atoms: C_14  and  C_18
    9  A    between atoms: C_20  and  C_24
   10  A    between atoms: C_24  and  S_27
                            x       y       z     vdW  Elec       q    Type
                         _______ _______ _______ _____ _____    ______ ____

>  <TORSDO>
F 10

$$$$
=
 OpenBabel10262421183D

 32 34  0  0  1  0  0  0  0  0999 V2000
  186.3610  177.8880  142.9240 C   0  0  0  0  0  2  0  0  0  0  0  0
  185.0960  178.0140  143.7800 C   0  0  1  0  0  3  0  0  0  0  0  0
  187.6130  177.9100  143.6990 N   0  0  0  0  0  0  0  0  0  0  0  0
  187.4470  177.2070  144.9870 C   0  0  2  0  0  3  0  0  0  0  0  0
  186.4200  177.9270  145.8810 C   0  0  0  0  0  2  0  0  0  0  0  0
  185.3970  178.7310  145.0820 C   0  0  0  0  0  2  0  0  0  0  0  0
  189.0520  178.3130  148.0290 C   0  0  0  0  0  3  0  0  0  0  0  0
  188.7450  177.1120  145.7350 C   0  0  0  0  0  3  0  0  0  0  0  0
  188.2540  177.8790  149.2050 C   0  0  0  0  0  1  0  0  0  0  0  0
  188.9010  177.7140  146.8830 C   0  0  0  0  0  0  0  0  0  0  0  0
  188.5740  177.1790  142.8780 C   0  0  0  0  0  2  0  0  0  0  0  0
  188.6170  177.7660  141.5120 C   0  0  0  0  0  0  0  0  0  0  0  0
  189.1600  178.2180  136.3540 C   0  0  0  0  0  3  0  0  0  0  0  0
  188.4130  179.0000  141.3600 O   0  0  0  0  0  0  0  0  0  0  0  0
  189.3570  176.2990  137.9890 C   0  0  0  0  0  2  0  0  0  0  0  0
  189.0360  177.3410  139.0300 C   0  0  0  0  0  0  0  0  0  0  0  0
  188.9180  176.9210  140.3940 N   0  0  0  0  0  2  0  0  0  0  0  0
  188.9470  178.6020  138.7100 N   0  0  0  0  0  0  0  0  0  0  0  0
  189.1920  176.8150  136.6310 N   0  0  0  0  0  2  0  0  0  0  0  0
  189.0540  179.0780  137.3620 C   0  0  0  0  0  3  0  0  0  0  0  0
  183.7900  178.8710  142.8520 S   0  0  0  0  0  0  0  0  0  0  0  0
  184.7960  179.0140  141.3370 C   0  0  0  0  0  2  0  0  0  0  0  0
  184.8180  178.6140  138.8370 C   0  0  0  0  0  2  0  0  0  0  0  0
  183.0080  177.4690  140.1780 C   0  0  0  0  0  1  0  0  0  0  0  0
  183.9950  178.6260  140.1030 C   0  0  1  0  0  0  0  0  0  0  0  0
  183.7960  179.7210  139.0640 C   0  0  2  0  0  3  0  0  0  0  0  0
  182.6590  179.4830  138.2860 O   0  0  0  0  0  0  0  0  0  0  0  0
  181.9170  180.6630  138.3720 C   0  0  0  0  0  2  0  0  0  0  0  0
  179.6540  180.4730  137.6220 O   0  0  0  0  0  1  0  0  0  0  0  0
  180.4780  180.3480  138.7420 C   0  0  2  0  0  3  0  0  0  0  0  0
  179.9950  181.2700  139.8530 C   0  0  0  0  0  2  0  0  0  0  0  0
  179.7600  180.5520  141.0260 O   0  0  0  0  0  1  0  0  0  0  0  0
  1  3  1  0  0  0  0
  1  2  1  0  0  0  0
  2 21  1  6  0  0  0
  2  6  1  0  0  0  0
  3  4  1  0  0  0  0
  4  8  1  1  0  0  0
  4  5  1  0  0  0  0
  6  5  1  0  0  0  0
  7  9  1  0  0  0  0
  8 10  2  0  0  0  0
 10  7  2  0  0  0  0
 11  3  1  0  0  0  0
 12 11  1  0  0  0  0
 13 19  1  0  0  0  0
 13 20  2  0  0  0  0
 14 12  2  0  0  0  0
 15 16  1  0  0  0  0
 16 17  1  0  0  0  0
 17 12  1  0  0  0  0
 18 16  2  0  0  0  0
 19 15  1  0  0  0  0
 20 18  1  0  0  0  0
 22 21  1  0  0  0  0
 23 26  1  0  0  0  0
 23 25  1  0  0  0  0
 25 24  1  1  0  0  0
 25 22  1  0  0  0  0
 26 27  1  6  0  0  0
 26 25  1  0  0  0  0
 27 28  1  0  0  0  0
 28 30  1  0  0  0  0
 30 29  1  6  0  0  0
 30 31  1  0  0  0  0
 31 32  1  0  0  0  0
M  END
>  <MODEL>
7

>  <REMARK>
 VINA RESULT:      -6.7      3.392      5.993
  Name = 
  10 active torsions:
  status: ('A' for Active; 'I' for Inactive)
    1  A    between atoms: C_2  and  N_5
    2  A    between atoms: C_2  and  C_6
    3  A    between atoms: C_4  and  S_27
    4  A    between atoms: O_7  and  C_19
    5  A    between atoms: O_7  and  C_26
    6  A    between atoms: C_8  and  C_19
    7  A    between atoms: C_8  and  C_22
    8  A    between atoms: C_14  and  C_18
    9  A    between atoms: C_20  and  C_24
   10  A    between atoms: C_24  and  S_27
                            x       y       z     vdW  Elec       q    Type
                         _______ _______ _______ _____ _____    ______ ____

>  <TORSDO>
F 10

$$$$
=
 OpenBabel10262421183D

 32 34  0  0  1  0  0  0  0  0999 V2000
  186.8030  178.4500  142.2390 C   0  0  0  0  0  2  0  0  0  0  0  0
  188.2160  177.9200  141.9670 C   0  0  1  0  0  3  0  0  0  0  0  0
  186.2300  177.9990  143.5180 N   0  0  0  0  0  0  0  0  0  0  0  0
  187.2700  177.9250  144.5640 C   0  0  2  0  0  3  0  0  0  0  0  0
  188.3310  176.8650  144.2150 C   0  0  0  0  0  2  0  0  0  0  0  0
  188.4550  176.6210  142.7130 C   0  0  0  0  0  2  0  0  0  0  0  0
  188.2210  177.1460  147.9600 C   0  0  0  0  0  3  0  0  0  0  0  0
  186.6820  177.5870  145.9030 C   0  0  0  0  0  3  0  0  0  0  0  0
  189.0480  178.2490  148.5170 C   0  0  0  0  0  1  0  0  0  0  0  0
  187.4510  177.3650  146.9340 C   0  0  0  0  0  0  0  0  0  0  0  0
  185.2630  179.0310  143.8790 C   0  0  0  0  0  2  0  0  0  0  0  0
  184.0290  178.8720  143.0630 C   0  0  0  0  0  0  0  0  0  0  0  0
  179.0180  178.3590  141.7490 C   0  0  0  0  0  3  0  0  0  0  0  0
  184.1240  178.7520  141.8130 O   0  0  0  0  0  0  0  0  0  0  0  0
  180.2500  178.6250  143.9410 C   0  0  0  0  0  2  0  0  0  0  0  0
  181.4870  178.6380  143.0790 C   0  0  0  0  0  0  0  0  0  0  0  0
  182.7550  178.8270  143.7180 N   0  0  0  0  0  2  0  0  0  0  0  0
  181.4140  178.4070  141.7990 N   0  0  0  0  0  0  0  0  0  0  0  0
  179.0280  178.6840  143.1420 N   0  0  0  0  0  2  0  0  0  0  0  0
  180.1730  178.2140  141.1070 C   0  0  0  0  0  3  0  0  0  0  0  0
  188.4760  177.7040  140.1830 S   0  0  0  0  0  0  0  0  0  0  0  0
  189.8280  176.5000  140.4050 C   0  0  0  0  0  2  0  0  0  0  0  0
  190.6760  177.4600  138.2220 C   0  0  0  0  0  2  0  0  0  0  0  0
  192.2280  177.5630  140.2140 C   0  0  0  0  0  1  0  0  0  0  0  0
  191.0400  176.8680  139.5630 C   0  0  1  0  0  0  0  0  0  0  0  0
  191.2470  176.0490  138.2960 C   0  0  2  0  0  3  0  0  0  0  0  0
  192.5870  176.0590  137.8990 O   0  0  0  0  0  0  0  0  0  0  0  0
  192.8840  174.7220  137.6200 C   0  0  0  0  0  2  0  0  0  0  0  0
  195.1860  175.2930  137.3140 O   0  0  0  0  0  1  0  0  0  0  0  0
  194.3270  174.4220  137.9870 C   0  0  2  0  0  3  0  0  0  0  0  0
  194.6760  172.9790  137.6500 C   0  0  0  0  0  2  0  0  0  0  0  0
  195.3570  172.3740  138.7090 O   0  0  0  0  0  1  0  0  0  0  0  0
  1  3  1  0  0  0  0
  2 21  1  6  0  0  0
  2  1  1  0  0  0  0
  2  6  1  0  0  0  0
  3 11  1  0  0  0  0
  3  4  1  0  0  0  0
  4  8  1  1  0  0  0
  5  4  1  0  0  0  0
  6  5  1  0  0  0  0
  7  9  1  0  0  0  0
  8 10  2  0  0  0  0
 10  7  2  0  0  0  0
 12 17  1  0  0  0  0
 12 11  1  0  0  0  0
 13 19  1  0  0  0  0
 14 12  2  0  0  0  0
 16 17  1  0  0  0  0
 16 15  1  0  0  0  0
 18 16  2  0  0  0  0
 19 15  1  0  0  0  0
 20 13  2  0  0  0  0
 20 18  1  0  0  0  0
 21 22  1  0  0  0  0
 23 26  1  0  0  0  0
 23 25  1  0  0  0  0
 25 24  1  1  0  0  0
 25 22  1  0  0  0  0
 26 27  1  6  0  0  0
 26 25  1  0  0  0  0
 28 27  1  0  0  0  0
 28 30  1  0  0  0  0
 30 29  1  6  0  0  0
 31 30  1  0  0  0  0
 31 32  1  0  0  0  0
M  END
>  <MODEL>
8

>  <REMARK>
 VINA RESULT:      -6.5      3.139      4.095
  Name = 
  10 active torsions:
  status: ('A' for Active; 'I' for Inactive)
    1  A    between atoms: C_2  and  N_5
    2  A    between atoms: C_2  and  C_6
    3  A    between atoms: C_4  and  S_27
    4  A    between atoms: O_7  and  C_19
    5  A    between atoms: O_7  and  C_26
    6  A    between atoms: C_8  and  C_19
    7  A    between atoms: C_8  and  C_22
    8  A    between atoms: C_14  and  C_18
    9  A    between atoms: C_20  and  C_24
   10  A    between atoms: C_24  and  S_27
                            x       y       z     vdW  Elec       q    Type
                         _______ _______ _______ _____ _____    ______ ____

>  <TORSDO>
F 10

$$$$
=
 OpenBabel10262421183D

 32 34  0  0  1  0  0  0  0  0999 V2000
  187.4890  178.3650  141.6870 C   0  0  0  0  0  2  0  0  0  0  0  0
  188.8380  177.6490  141.8190 C   0  0  1  0  0  3  0  0  0  0  0  0
  186.5580  178.0980  142.7960 N   0  0  0  0  0  0  0  0  0  0  0  0
  187.2830  177.9910  144.0780 C   0  0  2  0  0  3  0  0  0  0  0  0
  188.2410  176.7850  144.0720 C   0  0  0  0  0  2  0  0  0  0  0  0
  188.7030  176.4000  142.6680 C   0  0  0  0  0  2  0  0  0  0  0  0
  187.2400  177.3950  147.6400 C   0  0  0  0  0  3  0  0  0  0  0  0
  186.3390  177.8420  145.2350 C   0  0  0  0  0  3  0  0  0  0  0  0
  188.0470  178.4330  148.3340 C   0  0  0  0  0  1  0  0  0  0  0  0
  186.7880  177.6170  146.4400 C   0  0  0  0  0  0  0  0  0  0  0  0
  185.6830  179.2650  142.8400 C   0  0  0  0  0  2  0  0  0  0  0  0
  184.3790  178.9410  142.1990 C   0  0  0  0  0  0  0  0  0  0  0  0
  179.2950  178.0320  141.5500 C   0  0  0  0  0  3  0  0  0  0  0  0
  184.3460  178.6540  140.9730 O   0  0  0  0  0  0  0  0  0  0  0  0
  180.7390  178.6510  143.5310 C   0  0  0  0  0  2  0  0  0  0  0  0
  181.8730  178.6000  142.5380 C   0  0  0  0  0  0  0  0  0  0  0  0
  183.1890  178.9310  142.9960 N   0  0  0  0  0  2  0  0  0  0  0  0
  181.6750  178.1910  141.3170 N   0  0  0  0  0  0  0  0  0  0  0  0
  179.4360  178.5460  142.8770 N   0  0  0  0  0  2  0  0  0  0  0  0
  180.3800  177.8500  140.8040 C   0  0  0  0  0  3  0  0  0  0  0  0
  189.5030  177.2500  140.1760 S   0  0  0  0  0  0  0  0  0  0  0  0
  188.1860  178.1520  139.2930 C   0  0  0  0  0  2  0  0  0  0  0  0
  186.7450  177.5050  137.3150 C   0  0  0  0  0  2  0  0  0  0  0  0
  189.0040  178.5220  136.8200 C   0  0  0  0  0  1  0  0  0  0  0  0
  188.1430  177.7670  137.8220 C   0  0  1  0  0  0  0  0  0  0  0  0
  187.7060  176.3410  137.5170 C   0  0  2  0  0  3  0  0  0  0  0  0
  188.1980  175.9120  136.2810 O   0  0  0  0  0  0  0  0  0  0  0  0
  188.4880  174.5580  136.4640 C   0  0  0  0  0  2  0  0  0  0  0  0
  190.4720  174.4410  137.7940 O   0  0  0  0  0  1  0  0  0  0  0  0
  189.9910  174.3450  136.4860 C   0  0  2  0  0  3  0  0  0  0  0  0
  190.6900  175.3620  135.5960 C   0  0  0  0  0  2  0  0  0  0  0  0
  191.5640  176.1560  136.3420 O   0  0  0  0  0  1  0  0  0  0  0  0
  1  2  1  0  0  0  0
  1  3  1  0  0  0  0
  2 21  1  6  0  0  0
  2  6  1  0  0  0  0
  3 11  1  0  0  0  0
  3  4  1  0  0  0  0
  4  8  1  1  0  0  0
  5  4  1  0  0  0  0
  6  5  1  0  0  0  0
  7  9  1  0  0  0  0
  8 10  2  0  0  0  0
 10  7  2  0  0  0  0
 12 11  1  0  0  0  0
 12 17  1  0  0  0  0
 13 19  1  0  0  0  0
 14 12  2  0  0  0  0
 16 17  1  0  0  0  0
 16 15  1  0  0  0  0
 18 16  2  0  0  0  0
 19 15  1  0  0  0  0
 20 18  1  0  0  0  0
 20 13  2  0  0  0  0
 22 21  1  0  0  0  0
 23 26  1  0  0  0  0
 23 25  1  0  0  0  0
 25 24  1  6  0  0  0
 25 22  1  0  0  0  0
 26 27  1  6  0  0  0
 26 25  1  0  0  0  0
 27 28  1  0  0  0  0
 28 30  1  0  0  0  0
 30 29  1  1  0  0  0
 31 32  1  0  0  0  0
 31 30  1  0  0  0  0
M  END
>  <MODEL>
9

>  <REMARK>
 VINA RESULT:      -6.4      1.832      2.624
  Name = 
  10 active torsions:
  status: ('A' for Active; 'I' for Inactive)
    1  A    between atoms: C_2  and  N_5
    2  A    between atoms: C_2  and  C_6
    3  A    between atoms: C_4  and  S_27
    4  A    between atoms: O_7  and  C_19
    5  A    between atoms: O_7  and  C_26
    6  A    between atoms: C_8  and  C_19
    7  A    between atoms: C_8  and  C_22
    8  A    between atoms: C_14  and  C_18
    9  A    between atoms: C_20  and  C_24
   10  A    between atoms: C_24  and  S_27
                            x       y       z     vdW  Elec       q    Type
                         _______ _______ _______ _____ _____    ______ ____

>  <TORSDO>
F 10

$$$$
