=
 OpenBabel10262421413D

 32 34  0  0  1  0  0  0  0  0999 V2000
  186.6320  178.8880  140.5860 C   0  0  2  0  0  3  0  0  0  0  0  0
  185.5570  178.3920  139.1970 S   0  0  0  0  0  0  0  0  0  0  0  0
  187.9990  178.7300  140.2780 O   0  0  0  0  0  0  0  0  0  0  0  0
  188.0870  177.7240  139.3080 C   0  0  1  0  0  3  0  0  0  0  0  0
  187.0260  177.9570  138.2660 C   0  0  0  0  0  2  0  0  0  0  0  0
  187.4490  177.9620  142.8120 C   0  0  0  0  0  2  0  0  0  0  0  0
  186.0710  178.3450  144.7400 O   0  0  0  0  0  0  0  0  0  0  0  0
  184.8900  178.3080  143.9740 C   0  0  2  0  0  3  0  0  0  0  0  0
  186.2480  178.1780  141.8860 C   0  0  1  0  0  3  0  0  0  0  0  0
  185.1350  178.9430  142.6030 C   0  0  0  0  0  2  0  0  0  0  0  0
  186.9590  177.4240  144.1550 C   0  0  2  0  0  3  0  0  0  0  0  0
  183.7740  179.0410  146.0740 O   0  0  0  0  0  1  0  0  0  0  0  0
  182.8840  179.6050  144.0400 O   0  0  0  0  0  0  0  0  0  0  0  0
  183.7960  179.0250  144.6870 C   0  0  0  0  0  0  0  0  0  0  0  0
  188.1480  177.1930  145.0720 C   0  0  0  0  0  2  0  0  0  0  0  0
  187.8450  177.6660  146.4840 C   0  0  0  0  0  2  0  0  0  0  0  0
  189.0340  177.9380  147.1640 O   0  0  0  0  0  0  0  0  0  0  0  0
  189.6310  176.6900  147.3380 C   0  0  0  0  0  2  0  0  0  0  0  0
  191.1370  176.8430  147.3390 C   0  0  0  0  0  2  0  0  0  0  0  0
  191.6820  176.4870  145.9720 C   0  0  0  0  0  1  0  0  0  0  0  0
  189.4710  177.7300  138.6730 C   0  0  0  0  0  2  0  0  0  0  0  0
  192.8170  176.9350  139.1310 C   0  0  0  0  0  0  0  0  0  0  0  0
  191.7230  176.1450  137.0140 C   0  0  2  0  0  3  0  0  0  0  0  0
  190.3170  176.5110  139.0650 C   0  0  1  0  0  3  0  0  0  0  0  0
  193.9730  176.9400  137.0510 O   0  0  0  0  0  1  0  0  0  0  0  0
  193.8000  177.4810  139.7030 O   0  0  0  0  0  0  0  0  0  0  0  0
  190.6050  175.5850  137.8820 C   0  0  0  0  0  2  0  0  0  0  0  0
  191.9100  175.3150  135.9080 O   0  0  0  0  0  1  0  0  0  0  0  0
  191.5360  176.8870  139.7900 N   0  0  0  0  0  0  0  0  0  0  0  0
  193.0220  176.2500  137.8060 C   0  0  1  0  0  3  0  0  0  0  0  0
  191.3950  177.3510  141.1650 C   0  0  0  0  0  2  0  0  0  0  0  0
  190.5100  176.4010  141.9500 C   0  0  0  0  0  1  0  0  0  0  0  0
  1  2  1  6  0  0  0
  1  9  1  0  0  0  0
  3  1  1  0  0  0  0
  4 21  1  6  0  0  0
  4  3  1  0  0  0  0
  5  2  1  0  0  0  0
  5  4  1  0  0  0  0
  6 11  1  0  0  0  0
  8 14  1  1  0  0  0
  8  7  1  0  0  0  0
  9 10  1  1  0  0  0
  9  6  1  0  0  0  0
 10  8  1  0  0  0  0
 11  7  1  0  0  0  0
 11 15  1  1  0  0  0
 13 14  2  0  0  0  0
 14 12  1  0  0  0  0
 15 16  1  0  0  0  0
 16 17  1  0  0  0  0
 17 18  1  0  0  0  0
 18 19  1  0  0  0  0
 20 19  1  0  0  0  0
 22 26  2  0  0  0  0
 22 29  1  0  0  0  0
 23 28  1  6  0  0  0
 23 30  1  0  0  0  0
 23 27  1  0  0  0  0
 24 21  1  6  0  0  0
 24 29  1  0  0  0  0
 27 24  1  0  0  0  0
 29 31  1  0  0  0  0
 30 25  1  6  0  0  0
 30 22  1  0  0  0  0
 31 32  1  0  0  0  0
M  END
>  <MODEL>
1

>  <REMARK>
 VINA RESULT:      -7.8      0.000      0.000
  Name = 
  10 active torsions:
  status: ('A' for Active; 'I' for Inactive)
    1  A    between atoms: C_1  and  C_20
    2  A    between atoms: C_4  and  C_12
    3  A    between atoms: C_6  and  N_31
    4  A    between atoms: C_9  and  C_28
    5  A    between atoms: C_10  and  C_19
    6  A    between atoms: C_10  and  C_23
    7  A    between atoms: C_15  and  C_26
    8  A    between atoms: C_16  and  C_26
    9  A    between atoms: C_19  and  O_24
   10  A    between atoms: C_20  and  O_24
                            x       y       z     vdW  Elec       q    Type
                         _______ _______ _______ _____ _____    ______ ____

>  <TORSDO>
F 10

$$$$
=
 OpenBabel10262421413D

 32 34  0  0  1  0  0  0  0  0999 V2000
  188.5660  176.6850  142.6170 C   0  0  2  0  0  3  0  0  0  0  0  0
  190.3110  176.1530  142.5900 S   0  0  0  0  0  0  0  0  0  0  0  0
  188.1800  177.2910  141.4040 O   0  0  0  0  0  0  0  0  0  0  0  0
  189.3380  177.8260  140.8270 C   0  0  1  0  0  3  0  0  0  0  0  0
  190.4470  176.8140  140.9290 C   0  0  0  0  0  2  0  0  0  0  0  0
  186.7620  177.6220  144.1490 C   0  0  0  0  0  2  0  0  0  0  0  0
  187.2380  177.6940  146.5000 O   0  0  0  0  0  0  0  0  0  0  0  0
  188.6120  177.8980  146.2740 C   0  0  2  0  0  3  0  0  0  0  0  0
  188.2590  177.5700  143.8270 C   0  0  1  0  0  3  0  0  0  0  0  0
  189.0640  177.1080  145.0430 C   0  0  0  0  0  2  0  0  0  0  0  0
  186.5560  178.3630  145.4680 C   0  0  2  0  0  3  0  0  0  0  0  0
  189.2420  178.1670  148.6670 O   0  0  0  0  0  1  0  0  0  0  0  0
  190.2040  176.5180  147.4020 O   0  0  0  0  0  0  0  0  0  0  0  0
  189.3950  177.4810  147.4710 C   0  0  0  0  0  0  0  0  0  0  0  0
  185.0710  178.4320  145.7840 C   0  0  0  0  0  2  0  0  0  0  0  0
  184.3330  179.2570  144.7420 C   0  0  0  0  0  2  0  0  0  0  0  0
  183.4060  178.4580  144.0690 O   0  0  0  0  0  0  0  0  0  0  0  0
  183.3670  178.9800  142.7760 C   0  0  0  0  0  2  0  0  0  0  0  0
  184.1770  178.1000  141.8490 C   0  0  0  0  0  2  0  0  0  0  0  0
  185.1230  178.9590  141.0360 C   0  0  0  0  0  1  0  0  0  0  0  0
  189.0770  178.1880  139.3710 C   0  0  0  0  0  2  0  0  0  0  0  0
  188.9090  177.3820  136.0000 C   0  0  0  0  0  0  0  0  0  0  0  0
  186.7390  177.7480  137.2070 C   0  0  2  0  0  3  0  0  0  0  0  0
  188.7520  176.9690  138.4980 C   0  0  1  0  0  3  0  0  0  0  0  0
  187.0740  178.4870  134.9640 O   0  0  0  0  0  1  0  0  0  0  0  0
  189.6340  177.5920  134.9890 O   0  0  0  0  0  0  0  0  0  0  0  0
  187.2490  176.7860  138.2720 C   0  0  0  0  0  2  0  0  0  0  0  0
  185.3580  177.6050  137.0800 O   0  0  0  0  0  1  0  0  0  0  0  0
  189.5090  176.9620  137.2420 N   0  0  0  0  0  0  0  0  0  0  0  0
  187.4130  177.4770  135.8670 C   0  0  1  0  0  3  0  0  0  0  0  0
  190.9330  176.6540  137.3070 C   0  0  0  0  0  2  0  0  0  0  0  0
  191.1380  175.1700  137.5480 C   0  0  0  0  0  1  0  0  0  0  0  0
  1  3  1  6  0  0  0
  1  9  1  0  0  0  0
  2  1  1  0  0  0  0
  4 21  1  6  0  0  0
  4  5  1  0  0  0  0
  4  3  1  0  0  0  0
  5  2  1  0  0  0  0
  6 11  1  0  0  0  0
  8  7  1  0  0  0  0
  8 14  1  1  0  0  0
  9  6  1  1  0  0  0
  9 10  1  0  0  0  0
 10  8  1  0  0  0  0
 11 15  1  1  0  0  0
 11  7  1  0  0  0  0
 13 14  2  0  0  0  0
 14 12  1  0  0  0  0
 16 15  1  0  0  0  0
 17 16  1  0  0  0  0
 18 17  1  0  0  0  0
 19 18  1  0  0  0  0
 20 19  1  0  0  0  0
 22 29  1  0  0  0  0
 23 28  1  6  0  0  0
 23 27  1  0  0  0  0
 24 21  1  6  0  0  0
 26 22  2  0  0  0  0
 27 24  1  0  0  0  0
 29 31  1  0  0  0  0
 29 24  1  0  0  0  0
 30 25  1  6  0  0  0
 30 22  1  0  0  0  0
 30 23  1  0  0  0  0
 31 32  1  0  0  0  0
M  END
>  <MODEL>
2

>  <REMARK>
 VINA RESULT:      -7.4      2.390      5.249
  Name = 
  10 active torsions:
  status: ('A' for Active; 'I' for Inactive)
    1  A    between atoms: C_1  and  C_20
    2  A    between atoms: C_4  and  C_12
    3  A    between atoms: C_6  and  N_31
    4  A    between atoms: C_9  and  C_28
    5  A    between atoms: C_10  and  C_19
    6  A    between atoms: C_10  and  C_23
    7  A    between atoms: C_15  and  C_26
    8  A    between atoms: C_16  and  C_26
    9  A    between atoms: C_19  and  O_24
   10  A    between atoms: C_20  and  O_24
                            x       y       z     vdW  Elec       q    Type
                         _______ _______ _______ _____ _____    ______ ____

>  <TORSDO>
F 10

$$$$
=
 OpenBabel10262421413D

 32 34  0  0  1  0  0  0  0  0999 V2000
  185.9900  177.7280  144.3990 C   0  0  2  0  0  3  0  0  0  0  0  0
  185.2030  178.7720  145.6720 S   0  0  0  0  0  0  0  0  0  0  0  0
  187.1390  177.0740  144.8890 O   0  0  0  0  0  0  0  0  0  0  0  0
  187.6440  177.8590  145.9320 C   0  0  1  0  0  3  0  0  0  0  0  0
  186.5030  178.2950  146.8120 C   0  0  0  0  0  2  0  0  0  0  0  0
  187.4660  177.9450  142.3360 C   0  0  0  0  0  2  0  0  0  0  0  0
  186.3850  178.4530  140.2540 O   0  0  0  0  0  0  0  0  0  0  0  0
  185.3820  179.2060  140.8930 C   0  0  2  0  0  3  0  0  0  0  0  0
  186.2740  178.5110  143.1160 C   0  0  1  0  0  3  0  0  0  0  0  0
  185.0230  178.5680  142.2380 C   0  0  0  0  0  2  0  0  0  0  0  0
  187.5680  178.6540  140.9880 C   0  0  2  0  0  3  0  0  0  0  0  0
  183.1040  178.4380  140.2480 O   0  0  0  0  0  1  0  0  0  0  0  0
  184.1230  180.1230  139.0790 O   0  0  0  0  0  0  0  0  0  0  0  0
  184.1750  179.2910  140.0240 C   0  0  0  0  0  0  0  0  0  0  0  0
  188.7580  178.1080  140.2180 C   0  0  0  0  0  2  0  0  0  0  0  0
  189.4020  176.9500  140.9640 C   0  0  0  0  0  2  0  0  0  0  0  0
  190.6420  176.6470  140.3980 O   0  0  0  0  0  0  0  0  0  0  0  0
  190.6710  177.3750  139.2080 C   0  0  0  0  0  2  0  0  0  0  0  0
  191.2700  176.5240  138.1090 C   0  0  0  0  0  2  0  0  0  0  0  0
  192.7770  176.4940  138.2570 C   0  0  0  0  0  1  0  0  0  0  0  0
  188.6660  177.0660  146.7350 C   0  0  0  0  0  2  0  0  0  0  0  0
  191.5350  176.4340  144.8900 C   0  0  0  0  0  0  0  0  0  0  0  0
  191.5000  175.6460  147.2730 C   0  0  2  0  0  3  0  0  0  0  0  0
  190.0910  177.6190  146.6060 C   0  0  1  0  0  3  0  0  0  0  0  0
  192.5070  174.3600  145.5340 O   0  0  0  0  0  1  0  0  0  0  0  0
  191.7890  176.2010  143.6760 O   0  0  0  0  0  0  0  0  0  0  0  0
  191.0460  177.0470  147.6570 C   0  0  0  0  0  2  0  0  0  0  0  0
  192.3080  175.1290  148.2860 O   0  0  0  0  0  1  0  0  0  0  0  0
  190.6200  177.4890  145.2440 N   0  0  0  0  0  0  0  0  0  0  0  0
  192.2710  175.6690  145.9570 C   0  0  1  0  0  3  0  0  0  0  0  0
  190.0820  178.3750  144.2180 C   0  0  0  0  0  2  0  0  0  0  0  0
  191.0250  179.5400  143.9840 C   0  0  0  0  0  1  0  0  0  0  0  0
  1  3  1  1  0  0  0
  1  2  1  0  0  0  0
  2  5  1  0  0  0  0
  3  4  1  0  0  0  0
  4 21  1  1  0  0  0
  4  5  1  0  0  0  0
  6  9  1  0  0  0  0
  7  8  1  0  0  0  0
  7 11  1  0  0  0  0
  8 14  1  6  0  0  0
  8 10  1  0  0  0  0
  9 10  1  6  0  0  0
  9  1  1  0  0  0  0
 11 15  1  6  0  0  0
 11  6  1  0  0  0  0
 13 14  2  0  0  0  0
 14 12  1  0  0  0  0
 15 16  1  0  0  0  0
 17 16  1  0  0  0  0
 18 17  1  0  0  0  0
 19 20  1  0  0  0  0
 19 18  1  0  0  0  0
 22 29  1  0  0  0  0
 22 30  1  0  0  0  0
 23 27  1  0  0  0  0
 23 28  1  1  0  0  0
 24 21  1  6  0  0  0
 24 27  1  0  0  0  0
 26 22  2  0  0  0  0
 29 24  1  0  0  0  0
 30 25  1  6  0  0  0
 30 23  1  0  0  0  0
 31 29  1  0  0  0  0
 32 31  1  0  0  0  0
M  END
>  <MODEL>
3

>  <REMARK>
 VINA RESULT:      -7.2      2.739      6.599
  Name = 
  10 active torsions:
  status: ('A' for Active; 'I' for Inactive)
    1  A    between atoms: C_1  and  C_20
    2  A    between atoms: C_4  and  C_12
    3  A    between atoms: C_6  and  N_31
    4  A    between atoms: C_9  and  C_28
    5  A    between atoms: C_10  and  C_19
    6  A    between atoms: C_10  and  C_23
    7  A    between atoms: C_15  and  C_26
    8  A    between atoms: C_16  and  C_26
    9  A    between atoms: C_19  and  O_24
   10  A    between atoms: C_20  and  O_24
                            x       y       z     vdW  Elec       q    Type
                         _______ _______ _______ _____ _____    ______ ____

>  <TORSDO>
F 10

$$$$
=
 OpenBabel10262421413D

 32 34  0  0  1  0  0  0  0  0999 V2000
  188.9600  177.9370  140.5560 C   0  0  2  0  0  3  0  0  0  0  0  0
  190.4650  176.9570  140.2310 S   0  0  0  0  0  0  0  0  0  0  0  0
  188.4950  177.7690  141.8760 O   0  0  0  0  0  0  0  0  0  0  0  0
  188.9320  176.5100  142.3070 C   0  0  1  0  0  3  0  0  0  0  0  0
  190.3730  176.3320  141.9100 C   0  0  0  0  0  2  0  0  0  0  0  0
  186.5830  178.4490  139.8020 C   0  0  0  0  0  2  0  0  0  0  0  0
  186.2110  178.7470  137.4490 O   0  0  0  0  0  0  0  0  0  0  0  0
  187.2290  177.8330  137.1150 C   0  0  2  0  0  3  0  0  0  0  0  0
  187.8680  177.6630  139.5200 C   0  0  1  0  0  3  0  0  0  0  0  0
  188.3860  177.9510  138.1100 C   0  0  0  0  0  2  0  0  0  0  0  0
  185.6170  178.2710  138.6330 C   0  0  2  0  0  3  0  0  0  0  0  0
  189.0600  177.9520  135.4340 O   0  0  0  0  0  1  0  0  0  0  0  0
  186.9070  178.4430  134.8260 O   0  0  0  0  0  0  0  0  0  0  0  0
  187.7120  178.0900  135.7290 C   0  0  0  0  0  0  0  0  0  0  0  0
  184.3350  179.0360  138.9150 C   0  0  0  0  0  2  0  0  0  0  0  0
  183.2060  178.0860  139.2810 C   0  0  0  0  0  2  0  0  0  0  0  0
  183.4230  177.5540  140.5540 O   0  0  0  0  0  0  0  0  0  0  0  0
  183.1930  178.6210  141.4230 C   0  0  0  0  0  2  0  0  0  0  0  0
  184.1560  178.5410  142.5890 C   0  0  0  0  0  2  0  0  0  0  0  0
  183.4120  178.8190  143.8780 C   0  0  0  0  0  1  0  0  0  0  0  0
  188.7760  176.3920  143.8170 C   0  0  0  0  0  2  0  0  0  0  0  0
  189.6500  177.5730  146.9610 C   0  0  0  0  0  0  0  0  0  0  0  0
  187.2070  177.5270  146.3850 C   0  0  2  0  0  3  0  0  0  0  0  0
  188.9040  177.7390  144.5420 C   0  0  1  0  0  3  0  0  0  0  0  0
  187.9980  176.9810  148.5680 O   0  0  0  0  0  1  0  0  0  0  0  0
  190.5720  177.3290  147.7870 O   0  0  0  0  0  0  0  0  0  0  0  0
  187.5690  178.2450  145.0920 C   0  0  0  0  0  2  0  0  0  0  0  0
  185.9540  177.9590  146.8170 O   0  0  0  0  0  1  0  0  0  0  0  0
  189.9590  177.7260  145.5610 N   0  0  0  0  0  0  0  0  0  0  0  0
  188.2490  177.7980  147.4640 C   0  0  1  0  0  3  0  0  0  0  0  0
  191.3450  177.7310  145.1070 C   0  0  0  0  0  2  0  0  0  0  0  0
  191.5850  178.8970  144.1680 C   0  0  0  0  0  1  0  0  0  0  0  0
  1  2  1  6  0  0  0
  1  3  1  0  0  0  0
  2  5  1  0  0  0  0
  3  4  1  0  0  0  0
  4 21  1  1  0  0  0
  5  4  1  0  0  0  0
  7 11  1  0  0  0  0
  8 14  1  6  0  0  0
  8  7  1  0  0  0  0
  8 10  1  0  0  0  0
  9 10  1  6  0  0  0
  9  6  1  0  0  0  0
  9  1  1  0  0  0  0
 11 15  1  1  0  0  0
 11  6  1  0  0  0  0
 12 14  1  0  0  0  0
 13 14  2  0  0  0  0
 15 16  1  0  0  0  0
 16 17  1  0  0  0  0
 17 18  1  0  0  0  0
 18 19  1  0  0  0  0
 19 20  1  0  0  0  0
 22 30  1  0  0  0  0
 22 26  2  0  0  0  0
 23 28  1  1  0  0  0
 23 30  1  0  0  0  0
 24 21  1  1  0  0  0
 24 27  1  0  0  0  0
 24 29  1  0  0  0  0
 27 23  1  0  0  0  0
 29 22  1  0  0  0  0
 30 25  1  1  0  0  0
 31 29  1  0  0  0  0
 32 31  1  0  0  0  0
M  END
>  <MODEL>
4

>  <REMARK>
 VINA RESULT:      -7.1      2.927      7.795
  Name = 
  10 active torsions:
  status: ('A' for Active; 'I' for Inactive)
    1  A    between atoms: C_1  and  C_20
    2  A    between atoms: C_4  and  C_12
    3  A    between atoms: C_6  and  N_31
    4  A    between atoms: C_9  and  C_28
    5  A    between atoms: C_10  and  C_19
    6  A    between atoms: C_10  and  C_23
    7  A    between atoms: C_15  and  C_26
    8  A    between atoms: C_16  and  C_26
    9  A    between atoms: C_19  and  O_24
   10  A    between atoms: C_20  and  O_24
                            x       y       z     vdW  Elec       q    Type
                         _______ _______ _______ _____ _____    ______ ____

>  <TORSDO>
F 10

$$$$
=
 OpenBabel10262421413D

 32 34  0  0  1  0  0  0  0  0999 V2000
  184.5420  179.2090  143.6500 C   0  0  2  0  0  3  0  0  0  0  0  0
  182.8720  179.0040  144.3560 S   0  0  0  0  0  0  0  0  0  0  0  0
  184.5150  179.2870  142.2430 O   0  0  0  0  0  0  0  0  0  0  0  0
  183.3710  178.6020  141.8160 C   0  0  1  0  0  3  0  0  0  0  0  0
  182.2110  179.0000  142.6880 C   0  0  0  0  0  2  0  0  0  0  0  0
  186.6590  177.8770  143.1710 C   0  0  0  0  0  2  0  0  0  0  0  0
  188.1740  177.5170  144.9980 O   0  0  0  0  0  0  0  0  0  0  0  0
  187.1250  177.4910  145.9370 C   0  0  2  0  0  3  0  0  0  0  0  0
  185.5070  178.1310  144.1500 C   0  0  1  0  0  3  0  0  0  0  0  0
  186.0390  178.4930  145.5370 C   0  0  0  0  0  2  0  0  0  0  0  0
  187.6720  176.9370  143.8190 C   0  0  2  0  0  3  0  0  0  0  0  0
  188.7080  177.0820  147.8130 O   0  0  0  0  0  0  0  0  0  0  0  0
  187.1260  178.7290  147.9820 O   0  0  0  0  0  1  0  0  0  0  0  0
  187.6480  177.8110  147.2950 C   0  0  0  0  0  0  0  0  0  0  0  0
  188.8080  176.6690  142.8460 C   0  0  0  0  0  2  0  0  0  0  0  0
  190.1290  177.1770  143.4000 C   0  0  0  0  0  2  0  0  0  0  0  0
  191.1790  176.3790  142.9430 O   0  0  0  0  0  0  0  0  0  0  0  0
  191.6780  175.7650  144.0920 C   0  0  0  0  0  2  0  0  0  0  0  0
  191.6380  176.7430  145.2470 C   0  0  0  0  0  2  0  0  0  0  0  0
  191.9110  176.0070  146.5420 C   0  0  0  0  0  1  0  0  0  0  0  0
  183.0800  178.9290  140.3580 C   0  0  0  0  0  2  0  0  0  0  0  0
  180.9240  178.0210  137.7960 C   0  0  0  0  0  0  0  0  0  0  0  0
  181.5140  180.4520  137.9980 C   0  0  2  0  0  3  0  0  0  0  0  0
  181.5790  178.9940  140.0450 C   0  0  1  0  0  3  0  0  0  0  0  0
  181.2790  179.3840  135.8770 O   0  0  0  0  0  1  0  0  0  0  0  0
  180.7720  177.0010  137.0690 O   0  0  0  0  0  0  0  0  0  0  0  0
  181.1510  180.3470  139.4720 C   0  0  0  0  0  2  0  0  0  0  0  0
  181.1770  181.7210  137.5280 O   0  0  0  0  0  1  0  0  0  0  0  0
  181.1330  177.8700  139.2140 N   0  0  0  0  0  0  0  0  0  0  0  0
  180.7850  179.3890  137.1840 C   0  0  1  0  0  3  0  0  0  0  0  0
  181.0430  176.5550  139.8380 C   0  0  0  0  0  2  0  0  0  0  0  0
  179.7460  176.4320  140.6170 C   0  0  0  0  0  1  0  0  0  0  0  0
  1  3  1  6  0  0  0
  1  9  1  0  0  0  0
  1  2  1  0  0  0  0
  4 21  1  6  0  0  0
  4  3  1  0  0  0  0
  4  5  1  0  0  0  0
  5  2  1  0  0  0  0
  6 11  1  0  0  0  0
  7  8  1  0  0  0  0
  8 14  1  1  0  0  0
  9  6  1  6  0  0  0
  9 10  1  0  0  0  0
 10  8  1  0  0  0  0
 11 15  1  6  0  0  0
 11  7  1  0  0  0  0
 14 12  2  0  0  0  0
 14 13  1  0  0  0  0
 15 16  1  0  0  0  0
 17 16  1  0  0  0  0
 17 18  1  0  0  0  0
 18 19  1  0  0  0  0
 19 20  1  0  0  0  0
 22 29  1  0  0  0  0
 23 28  1  6  0  0  0
 23 27  1  0  0  0  0
 24 21  1  6  0  0  0
 26 22  2  0  0  0  0
 27 24  1  0  0  0  0
 29 31  1  0  0  0  0
 29 24  1  0  0  0  0
 30 25  1  6  0  0  0
 30 22  1  0  0  0  0
 30 23  1  0  0  0  0
 31 32  1  0  0  0  0
M  END
>  <MODEL>
5

>  <REMARK>
 VINA RESULT:      -6.8      4.420      7.575
  Name = 
  10 active torsions:
  status: ('A' for Active; 'I' for Inactive)
    1  A    between atoms: C_1  and  C_20
    2  A    between atoms: C_4  and  C_12
    3  A    between atoms: C_6  and  N_31
    4  A    between atoms: C_9  and  C_28
    5  A    between atoms: C_10  and  C_19
    6  A    between atoms: C_10  and  C_23
    7  A    between atoms: C_15  and  C_26
    8  A    between atoms: C_16  and  C_26
    9  A    between atoms: C_19  and  O_24
   10  A    between atoms: C_20  and  O_24
                            x       y       z     vdW  Elec       q    Type
                         _______ _______ _______ _____ _____    ______ ____

>  <TORSDO>
F 10

$$$$
=
 OpenBabel10262421413D

 32 34  0  0  1  0  0  0  0  0999 V2000
  184.9190  179.3200  140.3720 C   0  0  2  0  0  3  0  0  0  0  0  0
  184.4150  178.5960  138.7750 S   0  0  0  0  0  0  0  0  0  0  0  0
  186.3160  179.2720  140.5570 O   0  0  0  0  0  0  0  0  0  0  0  0
  186.7920  178.1960  139.7990 C   0  0  1  0  0  3  0  0  0  0  0  0
  186.1380  178.2270  138.4430 C   0  0  0  0  0  2  0  0  0  0  0  0
  184.7350  179.1120  142.9030 C   0  0  0  0  0  2  0  0  0  0  0  0
  182.5330  179.1590  143.8580 O   0  0  0  0  0  0  0  0  0  0  0  0
  181.9670  178.5430  142.7250 C   0  0  2  0  0  3  0  0  0  0  0  0
  184.1600  178.6960  141.5450 C   0  0  1  0  0  3  0  0  0  0  0  0
  182.6700  179.0330  141.4560 C   0  0  0  0  0  2  0  0  0  0  0  0
  183.8180  178.6080  144.0150 C   0  0  2  0  0  3  0  0  0  0  0  0
  179.5910  177.8820  143.0530 O   0  0  0  0  0  1  0  0  0  0  0  0
  180.1050  179.9560  142.2280 O   0  0  0  0  0  0  0  0  0  0  0  0
  180.5100  178.8420  142.6560 C   0  0  0  0  0  0  0  0  0  0  0  0
  184.3940  179.0040  145.3640 C   0  0  0  0  0  2  0  0  0  0  0  0
  185.8050  178.4640  145.5320 C   0  0  0  0  0  2  0  0  0  0  0  0
  185.9180  177.7930  146.7520 O   0  0  0  0  0  0  0  0  0  0  0  0
  187.1630  178.1780  147.2490 C   0  0  0  0  0  2  0  0  0  0  0  0
  188.2570  177.6190  146.3640 C   0  0  0  0  0  2  0  0  0  0  0  0
  189.4140  177.1550  147.2230 C   0  0  0  0  0  1  0  0  0  0  0  0
  188.3060  178.2820  139.6640 C   0  0  0  0  0  2  0  0  0  0  0  0
  191.1560  177.4610  141.4650 C   0  0  0  0  0  0  0  0  0  0  0  0
  191.2400  177.1600  138.9740 C   0  0  2  0  0  3  0  0  0  0  0  0
  189.0260  177.0210  140.1590 C   0  0  1  0  0  3  0  0  0  0  0  0
  193.1150  177.9640  140.2110 O   0  0  0  0  0  1  0  0  0  0  0  0
  191.7000  177.8790  142.5240 O   0  0  0  0  0  0  0  0  0  0  0  0
  189.9280  176.3960  139.0920 C   0  0  0  0  0  2  0  0  0  0  0  0
  192.0040  176.6100  137.9460 O   0  0  0  0  0  1  0  0  0  0  0  0
  189.7320  177.2410  141.4260 N   0  0  0  0  0  0  0  0  0  0  0  0
  192.0180  177.1030  140.2850 C   0  0  1  0  0  3  0  0  0  0  0  0
  188.9300  177.3740  142.6370 C   0  0  0  0  0  2  0  0  0  0  0  0
  188.6240  176.0060  143.2160 C   0  0  0  0  0  1  0  0  0  0  0  0
  1  2  1  6  0  0  0
  1  3  1  0  0  0  0
  1  9  1  0  0  0  0
  4 21  1  6  0  0  0
  4  3  1  0  0  0  0
  5  2  1  0  0  0  0
  5  4  1  0  0  0  0
  6 11  1  0  0  0  0
  7 11  1  0  0  0  0
  8 14  1  6  0  0  0
  8  7  1  0  0  0  0
  9 10  1  1  0  0  0
  9  6  1  0  0  0  0
 10  8  1  0  0  0  0
 11 15  1  1  0  0  0
 13 14  2  0  0  0  0
 14 12  1  0  0  0  0
 15 16  1  0  0  0  0
 16 17  1  0  0  0  0
 17 18  1  0  0  0  0
 19 20  1  0  0  0  0
 19 18  1  0  0  0  0
 22 26  2  0  0  0  0
 23 28  1  6  0  0  0
 23 27  1  0  0  0  0
 23 30  1  0  0  0  0
 24 21  1  6  0  0  0
 24 29  1  0  0  0  0
 27 24  1  0  0  0  0
 29 22  1  0  0  0  0
 29 31  1  0  0  0  0
 30 25  1  6  0  0  0
 30 22  1  0  0  0  0
 31 32  1  0  0  0  0
M  END
>  <MODEL>
6

>  <REMARK>
 VINA RESULT:      -6.7      1.909      2.846
  Name = 
  10 active torsions:
  status: ('A' for Active; 'I' for Inactive)
    1  A    between atoms: C_1  and  C_20
    2  A    between atoms: C_4  and  C_12
    3  A    between atoms: C_6  and  N_31
    4  A    between atoms: C_9  and  C_28
    5  A    between atoms: C_10  and  C_19
    6  A    between atoms: C_10  and  C_23
    7  A    between atoms: C_15  and  C_26
    8  A    between atoms: C_16  and  C_26
    9  A    between atoms: C_19  and  O_24
   10  A    between atoms: C_20  and  O_24
                            x       y       z     vdW  Elec       q    Type
                         _______ _______ _______ _____ _____    ______ ____

>  <TORSDO>
F 10

$$$$
=
 OpenBabel10262421413D

 32 34  0  0  1  0  0  0  0  0999 V2000
  185.0770  179.0350  143.9110 C   0  0  2  0  0  3  0  0  0  0  0  0
  183.5200  179.0040  144.8630 S   0  0  0  0  0  0  0  0  0  0  0  0
  184.8460  179.0230  142.5200 O   0  0  0  0  0  0  0  0  0  0  0  0
  183.6080  178.4000  142.3160 C   0  0  1  0  0  3  0  0  0  0  0  0
  182.6190  178.9410  143.3130 C   0  0  0  0  0  2  0  0  0  0  0  0
  187.1100  177.6300  143.2970 C   0  0  0  0  0  2  0  0  0  0  0  0
  188.7240  177.2120  145.0220 O   0  0  0  0  0  0  0  0  0  0  0  0
  187.7380  177.2200  146.0270 C   0  0  2  0  0  3  0  0  0  0  0  0
  186.0330  177.9220  144.3470 C   0  0  1  0  0  3  0  0  0  0  0  0
  186.6650  178.2620  145.6980 C   0  0  0  0  0  2  0  0  0  0  0  0
  188.1280  176.6520  143.8780 C   0  0  2  0  0  3  0  0  0  0  0  0
  189.7250  177.3600  147.5190 O   0  0  0  0  0  0  0  0  0  0  0  0
  187.6470  177.8980  148.3170 O   0  0  0  0  0  1  0  0  0  0  0  0
  188.3570  177.5170  147.3490 C   0  0  0  0  0  0  0  0  0  0  0  0
  189.1890  176.3470  142.8340 C   0  0  0  0  0  2  0  0  0  0  0  0
  189.3630  177.5170  141.8780 C   0  0  0  0  0  2  0  0  0  0  0  0
  189.1790  177.0910  140.5620 O   0  0  0  0  0  0  0  0  0  0  0  0
  188.4570  178.1210  139.9580 C   0  0  0  0  0  2  0  0  0  0  0  0
  189.1720  178.5730  138.7030 C   0  0  0  0  0  2  0  0  0  0  0  0
  189.7680  177.3710  138.0000 C   0  0  0  0  0  1  0  0  0  0  0  0
  183.1250  178.6520  140.8940 C   0  0  0  0  0  2  0  0  0  0  0  0
  182.3650  177.7290  137.6370 C   0  0  0  0  0  0  0  0  0  0  0  0
  180.9200  176.7970  139.4660 C   0  0  2  0  0  3  0  0  0  0  0  0
  183.2990  177.4340  139.9770 C   0  0  1  0  0  3  0  0  0  0  0  0
  180.0140  177.4730  137.3650 O   0  0  0  0  0  1  0  0  0  0  0  0
  182.4580  178.2760  136.5040 O   0  0  0  0  0  0  0  0  0  0  0  0
  182.2030  176.3830  140.1740 C   0  0  0  0  0  2  0  0  0  0  0  0
  179.9240  175.8560  139.7270 O   0  0  0  0  0  1  0  0  0  0  0  0
  183.4610  177.8130  138.5690 N   0  0  0  0  0  0  0  0  0  0  0  0
  181.1450  176.9100  137.9620 C   0  0  1  0  0  3  0  0  0  0  0  0
  184.7270  178.4140  138.1680 C   0  0  0  0  0  2  0  0  0  0  0  0
  185.6330  177.3660  137.5500 C   0  0  0  0  0  1  0  0  0  0  0  0
  1  3  1  6  0  0  0
  1  9  1  0  0  0  0
  1  2  1  0  0  0  0
  4 21  1  6  0  0  0
  4  3  1  0  0  0  0
  4  5  1  0  0  0  0
  5  2  1  0  0  0  0
  6 11  1  0  0  0  0
  7  8  1  0  0  0  0
  8 14  1  1  0  0  0
  9  6  1  6  0  0  0
  9 10  1  0  0  0  0
 10  8  1  0  0  0  0
 11 15  1  6  0  0  0
 11  7  1  0  0  0  0
 14 12  2  0  0  0  0
 14 13  1  0  0  0  0
 16 15  1  0  0  0  0
 17 16  1  0  0  0  0
 18 17  1  0  0  0  0
 19 18  1  0  0  0  0
 20 19  1  0  0  0  0
 22 30  1  0  0  0  0
 22 29  1  0  0  0  0
 23 28  1  6  0  0  0
 23 27  1  0  0  0  0
 24 27  1  0  0  0  0
 24 21  1  1  0  0  0
 26 22  2  0  0  0  0
 29 24  1  0  0  0  0
 30 25  1  6  0  0  0
 30 23  1  0  0  0  0
 31 29  1  0  0  0  0
 32 31  1  0  0  0  0
M  END
>  <MODEL>
7

>  <REMARK>
 VINA RESULT:      -6.7      3.658      7.478
  Name = 
  10 active torsions:
  status: ('A' for Active; 'I' for Inactive)
    1  A    between atoms: C_1  and  C_20
    2  A    between atoms: C_4  and  C_12
    3  A    between atoms: C_6  and  N_31
    4  A    between atoms: C_9  and  C_28
    5  A    between atoms: C_10  and  C_19
    6  A    between atoms: C_10  and  C_23
    7  A    between atoms: C_15  and  C_26
    8  A    between atoms: C_16  and  C_26
    9  A    between atoms: C_19  and  O_24
   10  A    between atoms: C_20  and  O_24
                            x       y       z     vdW  Elec       q    Type
                         _______ _______ _______ _____ _____    ______ ____

>  <TORSDO>
F 10

$$$$
=
 OpenBabel10262421413D

 32 34  0  0  1  0  0  0  0  0999 V2000
  189.5090  176.8750  143.7470 C   0  0  2  0  0  3  0  0  0  0  0  0
  191.0790  177.7080  144.1590 S   0  0  0  0  0  0  0  0  0  0  0  0
  189.5290  176.3220  142.4500 O   0  0  0  0  0  0  0  0  0  0  0  0
  190.4440  177.0700  141.7000 C   0  0  1  0  0  3  0  0  0  0  0  0
  191.6850  177.2910  142.5230 C   0  0  0  0  0  2  0  0  0  0  0  0
  187.1500  177.4810  143.0040 C   0  0  0  0  0  2  0  0  0  0  0  0
  185.5470  177.9800  144.7200 O   0  0  0  0  0  0  0  0  0  0  0  0
  186.5350  178.5160  145.5670 C   0  0  2  0  0  3  0  0  0  0  0  0
  188.3040  177.7920  143.9640 C   0  0  1  0  0  3  0  0  0  0  0  0
  187.8380  177.7250  145.4190 C   0  0  0  0  0  2  0  0  0  0  0  0
  185.9270  178.3030  143.4040 C   0  0  2  0  0  3  0  0  0  0  0  0
  186.9840  178.2730  148.0030 O   0  0  0  0  0  1  0  0  0  0  0  0
  184.8480  178.6300  147.2570 O   0  0  0  0  0  0  0  0  0  0  0  0
  186.0690  178.4820  146.9820 C   0  0  0  0  0  0  0  0  0  0  0  0
  184.7850  178.0100  142.4460 C   0  0  0  0  0  2  0  0  0  0  0  0
  184.7720  179.0050  141.2970 C   0  0  0  0  0  2  0  0  0  0  0  0
  183.9420  178.5430  140.2730 O   0  0  0  0  0  0  0  0  0  0  0  0
  182.6550  178.6220  140.8040 C   0  0  0  0  0  2  0  0  0  0  0  0
  181.7930  177.5300  140.2080 C   0  0  0  0  0  2  0  0  0  0  0  0
  182.6770  176.4790  139.5720 C   0  0  0  0  0  1  0  0  0  0  0  0
  190.7830  176.3370  140.4090 C   0  0  0  0  0  2  0  0  0  0  0  0
  190.8280  176.4410  136.9410 C   0  0  0  0  0  0  0  0  0  0  0  0
  192.9770  175.8660  138.1050 C   0  0  2  0  0  3  0  0  0  0  0  0
  191.2680  177.2750  139.2950 C   0  0  1  0  0  3  0  0  0  0  0  0
  192.3210  174.8040  136.0710 O   0  0  0  0  0  1  0  0  0  0  0  0
  189.9950  176.1990  136.0240 O   0  0  0  0  0  0  0  0  0  0  0  0
  192.7540  177.0950  138.9740 C   0  0  0  0  0  2  0  0  0  0  0  0
  194.3440  175.6920  137.8930 O   0  0  0  0  0  1  0  0  0  0  0  0
  190.4260  177.2020  138.0970 N   0  0  0  0  0  0  0  0  0  0  0  0
  192.2610  176.0140  136.7660 C   0  0  1  0  0  3  0  0  0  0  0  0
  189.1000  177.8060  138.1580 C   0  0  0  0  0  2  0  0  0  0  0  0
  189.0560  179.0630  137.3100 C   0  0  0  0  0  1  0  0  0  0  0  0
  1  3  1  6  0  0  0
  1  9  1  0  0  0  0
  1  2  1  0  0  0  0
  4 21  1  6  0  0  0
  4  3  1  0  0  0  0
  4  5  1  0  0  0  0
  5  2  1  0  0  0  0
  6 11  1  0  0  0  0
  7  8  1  0  0  0  0
  8 14  1  1  0  0  0
  9  6  1  6  0  0  0
  9 10  1  0  0  0  0
 10  8  1  0  0  0  0
 11 15  1  6  0  0  0
 11  7  1  0  0  0  0
 14 13  2  0  0  0  0
 14 12  1  0  0  0  0
 16 15  1  0  0  0  0
 17 18  1  0  0  0  0
 17 16  1  0  0  0  0
 19 18  1  0  0  0  0
 20 19  1  0  0  0  0
 22 29  1  0  0  0  0
 23 28  1  6  0  0  0
 23 27  1  0  0  0  0
 24 21  1  1  0  0  0
 26 22  2  0  0  0  0
 27 24  1  0  0  0  0
 29 31  1  0  0  0  0
 29 24  1  0  0  0  0
 30 25  1  1  0  0  0
 30 22  1  0  0  0  0
 30 23  1  0  0  0  0
 32 31  1  0  0  0  0
M  END
>  <MODEL>
8

>  <REMARK>
 VINA RESULT:      -6.6      2.394      5.096
  Name = 
  10 active torsions:
  status: ('A' for Active; 'I' for Inactive)
    1  A    between atoms: C_1  and  C_20
    2  A    between atoms: C_4  and  C_12
    3  A    between atoms: C_6  and  N_31
    4  A    between atoms: C_9  and  C_28
    5  A    between atoms: C_10  and  C_19
    6  A    between atoms: C_10  and  C_23
    7  A    between atoms: C_15  and  C_26
    8  A    between atoms: C_16  and  C_26
    9  A    between atoms: C_19  and  O_24
   10  A    between atoms: C_20  and  O_24
                            x       y       z     vdW  Elec       q    Type
                         _______ _______ _______ _____ _____    ______ ____

>  <TORSDO>
F 10

$$$$
=
 OpenBabel10262421413D

 32 34  0  0  1  0  0  0  0  0999 V2000
  184.9130  179.0740  143.5640 C   0  0  2  0  0  3  0  0  0  0  0  0
  183.3450  179.1050  144.4980 S   0  0  0  0  0  0  0  0  0  0  0  0
  184.6990  178.9480  142.1760 O   0  0  0  0  0  0  0  0  0  0  0  0
  183.4690  178.2990  142.0090 C   0  0  1  0  0  3  0  0  0  0  0  0
  182.4640  178.9090  142.9480 C   0  0  0  0  0  2  0  0  0  0  0  0
  187.1170  177.8480  143.2190 C   0  0  0  0  0  2  0  0  0  0  0  0
  188.4760  177.4530  145.1590 O   0  0  0  0  0  0  0  0  0  0  0  0
  187.3490  177.3410  145.9950 C   0  0  2  0  0  3  0  0  0  0  0  0
  185.8730  178.0100  144.0990 C   0  0  1  0  0  3  0  0  0  0  0  0
  186.2620  178.3210  145.5450 C   0  0  0  0  0  2  0  0  0  0  0  0
  188.1070  176.9140  143.9130 C   0  0  2  0  0  3  0  0  0  0  0  0
  187.2750  178.7580  148.0400 O   0  0  0  0  0  1  0  0  0  0  0  0
  188.4810  176.8110  148.0330 O   0  0  0  0  0  0  0  0  0  0  0  0
  187.7340  177.6110  147.4090 C   0  0  0  0  0  0  0  0  0  0  0  0
  189.3360  176.7390  143.0360 C   0  0  0  0  0  2  0  0  0  0  0  0
  190.5340  177.4600  143.6320 C   0  0  0  0  0  2  0  0  0  0  0  0
  191.4530  176.5320  144.1260 O   0  0  0  0  0  0  0  0  0  0  0  0
  191.6060  176.8720  145.4700 C   0  0  0  0  0  2  0  0  0  0  0  0
  192.0500  175.6560  146.2540 C   0  0  0  0  0  2  0  0  0  0  0  0
  192.0770  175.9880  147.7300 C   0  0  0  0  0  1  0  0  0  0  0  0
  183.0010  178.4310  140.5660 C   0  0  0  0  0  2  0  0  0  0  0  0
  182.5820  177.3540  137.2940 C   0  0  0  0  0  0  0  0  0  0  0  0
  181.0930  176.3390  139.0420 C   0  0  2  0  0  3  0  0  0  0  0  0
  183.3560  177.2110  139.7060 C   0  0  1  0  0  3  0  0  0  0  0  0
  180.2940  176.8690  136.8570 O   0  0  0  0  0  1  0  0  0  0  0  0
  182.7110  177.8770  136.1530 O   0  0  0  0  0  0  0  0  0  0  0  0
  182.3500  176.0670  139.8560 C   0  0  0  0  0  2  0  0  0  0  0  0
  180.1720  175.3150  139.2600 O   0  0  0  0  0  1  0  0  0  0  0  0
  183.5910  177.5660  138.3020 N   0  0  0  0  0  0  0  0  0  0  0  0
  181.4220  176.4320  137.5560 C   0  0  1  0  0  3  0  0  0  0  0  0
  184.8230  178.2740  137.9750 C   0  0  0  0  0  2  0  0  0  0  0  0
  185.8600  177.3030  137.4420 C   0  0  0  0  0  1  0  0  0  0  0  0
  1  3  1  6  0  0  0
  1  9  1  0  0  0  0
  1  2  1  0  0  0  0
  4 21  1  6  0  0  0
  4  3  1  0  0  0  0
  4  5  1  0  0  0  0
  5  2  1  0  0  0  0
  6 11  1  0  0  0  0
  7  8  1  0  0  0  0
  8 14  1  1  0  0  0
  9  6  1  6  0  0  0
  9 10  1  0  0  0  0
 10  8  1  0  0  0  0
 11 15  1  6  0  0  0
 11  7  1  0  0  0  0
 14 13  2  0  0  0  0
 14 12  1  0  0  0  0
 15 16  1  0  0  0  0
 16 17  1  0  0  0  0
 17 18  1  0  0  0  0
 18 19  1  0  0  0  0
 19 20  1  0  0  0  0
 22 30  1  0  0  0  0
 22 29  1  0  0  0  0
 23 28  1  6  0  0  0
 23 27  1  0  0  0  0
 24 27  1  0  0  0  0
 24 21  1  1  0  0  0
 26 22  2  0  0  0  0
 29 24  1  0  0  0  0
 30 25  1  6  0  0  0
 30 23  1  0  0  0  0
 31 29  1  0  0  0  0
 32 31  1  0  0  0  0
M  END
>  <MODEL>
9

>  <REMARK>
 VINA RESULT:      -6.6      3.968      6.798
  Name = 
  10 active torsions:
  status: ('A' for Active; 'I' for Inactive)
    1  A    between atoms: C_1  and  C_20
    2  A    between atoms: C_4  and  C_12
    3  A    between atoms: C_6  and  N_31
    4  A    between atoms: C_9  and  C_28
    5  A    between atoms: C_10  and  C_19
    6  A    between atoms: C_10  and  C_23
    7  A    between atoms: C_15  and  C_26
    8  A    between atoms: C_16  and  C_26
    9  A    between atoms: C_19  and  O_24
   10  A    between atoms: C_20  and  O_24
                            x       y       z     vdW  Elec       q    Type
                         _______ _______ _______ _____ _____    ______ ____

>  <TORSDO>
F 10

$$$$
