=
 OpenBabel10262419163D

 34 38  0  0  1  0  0  0  0  0999 V2000
  190.7930  177.2770  146.2990 C   0  0  0  0  0  0  0  0  0  0  0  0
  191.3450  175.3310  144.8910 C   0  0  0  0  0  0  0  0  0  0  0  0
  189.7540  177.1610  143.9800 C   0  0  0  0  0  0  0  0  0  0  0  0
  188.7080  177.5950  141.8000 C   0  0  0  0  0  0  0  0  0  0  0  0
  191.8060  176.8770  147.2270 N   0  0  0  0  0  0  0  0  0  0  0  0
  192.1510  174.9000  145.8720 C   0  0  0  0  0  3  0  0  0  0  0  0
  191.1550  176.9370  141.9570 C   0  0  0  0  0  3  0  0  0  0  0  0
  190.9260  176.7900  144.8730 C   0  0  1  0  0  3  0  0  0  0  0  0
  191.3220  177.2090  140.6610 C   0  0  0  0  0  3  0  0  0  0  0  0
  188.8230  177.5140  140.3080 C   0  0  0  0  0  2  0  0  0  0  0  0
  192.4670  175.7730  147.0280 C   0  0  0  0  0  3  0  0  0  0  0  0
  188.5070  177.6770  144.5930 C   0  0  0  0  0  0  0  0  0  0  0  0
  189.6760  177.8490  146.7510 C   0  0  0  0  0  3  0  0  0  0  0  0
  190.9410  174.2090  143.6030 Cl  0  0  0  0  0  0  0  0  0  0  0  0
  187.5640  177.8960  142.3370 N   0  0  0  0  0  0  0  0  0  0  0  0
  187.3730  177.9350  143.7330 N   0  0  0  0  0  0  0  0  0  0  0  0
  190.2420  177.8890  139.8570 C   0  0  2  0  0  3  0  0  0  0  0  0
  189.8720  177.2140  142.6390 C   0  0  0  0  0  0  0  0  0  0  0  0
  188.5070  178.0480  145.8810 C   0  0  0  0  0  3  0  0  0  0  0  0
  183.6860  178.6150  143.7860 C   0  0  0  0  0  0  0  0  0  0  0  0
  183.4370  178.6850  145.1590 C   0  0  0  0  0  3  0  0  0  0  0  0
  186.0460  178.2140  144.2280 C   0  0  0  0  0  0  0  0  0  0  0  0
  184.4810  178.5130  146.0690 C   0  0  0  0  0  3  0  0  0  0  0  0
  184.9850  178.3760  143.3240 C   0  0  0  0  0  3  0  0  0  0  0  0
  185.7780  178.2740  145.6060 C   0  0  0  0  0  3  0  0  0  0  0  0
  182.6730  178.7760  142.9030 F   0  0  0  0  0  0  0  0  0  0  0  0
  190.4330  177.7030  138.4170 N   0  0  0  0  0  2  0  0  0  0  0  0
  189.1590  177.4130  137.7660 C   0  0  0  0  0  2  0  0  0  0  0  0
  188.9890  179.7690  137.4100 O   0  0  0  0  0  1  0  0  0  0  0  0
  188.8040  178.5300  136.7950 C   0  0  2  0  0  3  0  0  0  0  0  0
  187.3740  178.4010  136.2680 C   0  0  0  0  0  2  0  0  0  0  0  0
  186.0870  178.7820  138.2440 O   0  0  0  0  0  0  0  0  0  0  0  0
  186.4040  177.9820  137.3250 C   0  0  0  0  0  0  0  0  0  0  0  0
  185.8190  176.6850  137.2820 N   0  0  0  0  0  1  0  0  0  0  0  0
  1 13  2  0  0  0  0
  1  5  1  0  0  0  0
  2  6  2  0  0  0  0
  3 12  1  0  0  0  0
  4 15  2  0  0  0  0
  4 18  1  0  0  0  0
  6 11  1  0  0  0  0
  7 18  1  0  0  0  0
  8  3  1  1  0  0  0
  8  2  1  0  0  0  0
  8  1  1  0  0  0  0
  9  7  2  0  0  0  0
 10  4  1  0  0  0  0
 11  5  2  0  0  0  0
 12 19  2  0  0  0  0
 14  2  1  0  0  0  0
 15 16  1  0  0  0  0
 16 22  1  0  0  0  0
 16 12  1  0  0  0  0
 17 27  1  6  0  0  0
 17 10  1  0  0  0  0
 17  9  1  0  0  0  0
 18  3  2  0  0  0  0
 19 13  1  0  0  0  0
 20 21  1  0  0  0  0
 21 23  2  0  0  0  0
 22 25  2  0  0  0  0
 24 20  2  0  0  0  0
 24 22  1  0  0  0  0
 25 23  1  0  0  0  0
 26 20  1  0  0  0  0
 28 27  1  0  0  0  0
 30 29  1  1  0  0  0
 30 28  1  0  0  0  0
 31 30  1  0  0  0  0
 31 33  1  0  0  0  0
 33 32  2  0  0  0  0
 34 33  1  0  0  0  0
M  END
>  <MODEL>
1

>  <REMARK>
 VINA RESULT:      -8.7      0.000      0.000
  Name = 
  6 active torsions:
  status: ('A' for Active; 'I' for Inactive)
    1  A    between atoms: N_3  and  C_13
    2  A    between atoms: N_3  and  C_29
    3  A    between atoms: C_12  and  N_28
    4  A    between atoms: C_13  and  C_33
    5  A    between atoms: C_20  and  C_22
    6  A    between atoms: C_22  and  C_33
                            x       y       z     vdW  Elec       q    Type
                         _______ _______ _______ _____ _____    ______ ____

>  <TORSDO>
F 6

$$$$
=
 OpenBabel10262419163D

 34 38  0  0  1  0  0  0  0  0999 V2000
  190.7600  177.3030  146.2570 C   0  0  0  0  0  0  0  0  0  0  0  0
  191.3260  175.3480  144.8680 C   0  0  0  0  0  0  0  0  0  0  0  0
  189.7430  177.1710  143.9300 C   0  0  0  0  0  0  0  0  0  0  0  0
  188.7170  177.5910  141.7380 C   0  0  0  0  0  0  0  0  0  0  0  0
  191.7650  176.9090  147.1980 N   0  0  0  0  0  0  0  0  0  0  0  0
  192.1230  174.9230  145.8590 C   0  0  0  0  0  3  0  0  0  0  0  0
  191.1620  176.9340  141.9220 C   0  0  0  0  0  3  0  0  0  0  0  0
  190.9070  176.8070  144.8370 C   0  0  1  0  0  3  0  0  0  0  0  0
  191.3420  177.1970  140.6260 C   0  0  0  0  0  3  0  0  0  0  0  0
  188.8460  177.5000  140.2470 C   0  0  0  0  0  2  0  0  0  0  0  0
  192.4280  175.8040  147.0120 C   0  0  0  0  0  3  0  0  0  0  0  0
  188.4900  177.6910  144.5280 C   0  0  0  0  0  0  0  0  0  0  0  0
  189.6400  177.8770  146.6960 C   0  0  0  0  0  3  0  0  0  0  0  0
  190.9340  174.2170  143.5830 Cl  0  0  0  0  0  0  0  0  0  0  0  0
  187.5680  177.8940  142.2620 N   0  0  0  0  0  0  0  0  0  0  0  0
  187.3640  177.9430  143.6560 N   0  0  0  0  0  0  0  0  0  0  0  0
  190.2690  177.8720  139.8070 C   0  0  2  0  0  3  0  0  0  0  0  0
  189.8730  177.2150  142.5900 C   0  0  0  0  0  0  0  0  0  0  0  0
  188.4790  178.0700  145.8130 C   0  0  0  0  0  3  0  0  0  0  0  0
  183.6760  178.6150  143.6710 C   0  0  0  0  0  0  0  0  0  0  0  0
  183.4150  178.7010  145.0410 C   0  0  0  0  0  3  0  0  0  0  0  0
  186.0330  178.2240  144.1370 C   0  0  0  0  0  0  0  0  0  0  0  0
  184.4530  178.5420  145.9610 C   0  0  0  0  0  3  0  0  0  0  0  0
  184.9780  178.3730  143.2230 C   0  0  0  0  0  3  0  0  0  0  0  0
  185.7530  178.3010  145.5120 C   0  0  0  0  0  3  0  0  0  0  0  0
  182.6690  178.7620  142.7790 F   0  0  0  0  0  0  0  0  0  0  0  0
  190.4730  177.6770  138.3700 N   0  0  0  0  0  2  0  0  0  0  0  0
  190.2310  176.2840  138.0040 C   0  0  0  0  0  2  0  0  0  0  0  0
  190.7620  175.0450  136.0320 O   0  0  0  0  0  1  0  0  0  0  0  0
  191.3240  175.7950  137.0650 C   0  0  2  0  0  3  0  0  0  0  0  0
  192.3910  174.9820  137.7990 C   0  0  0  0  0  2  0  0  0  0  0  0
  194.6880  175.1590  138.4310 O   0  0  0  0  0  0  0  0  0  0  0  0
  193.7460  175.6110  137.7290 C   0  0  0  0  0  0  0  0  0  0  0  0
  193.9790  176.7040  136.8490 N   0  0  0  0  0  1  0  0  0  0  0  0
  1 13  2  0  0  0  0
  1  5  1  0  0  0  0
  2  6  2  0  0  0  0
  3 12  1  0  0  0  0
  4 15  2  0  0  0  0
  4 18  1  0  0  0  0
  6 11  1  0  0  0  0
  7 18  1  0  0  0  0
  8  3  1  6  0  0  0
  8  2  1  0  0  0  0
  8  1  1  0  0  0  0
  9  7  2  0  0  0  0
 10  4  1  0  0  0  0
 11  5  2  0  0  0  0
 12 19  2  0  0  0  0
 14  2  1  0  0  0  0
 15 16  1  0  0  0  0
 16 22  1  0  0  0  0
 16 12  1  0  0  0  0
 17 27  1  6  0  0  0
 17 10  1  0  0  0  0
 17  9  1  0  0  0  0
 18  3  2  0  0  0  0
 19 13  1  0  0  0  0
 20 21  1  0  0  0  0
 21 23  2  0  0  0  0
 22 25  2  0  0  0  0
 24 20  2  0  0  0  0
 24 22  1  0  0  0  0
 25 23  1  0  0  0  0
 26 20  1  0  0  0  0
 28 27  1  0  0  0  0
 30 29  1  6  0  0  0
 30 31  1  0  0  0  0
 30 28  1  0  0  0  0
 33 31  1  0  0  0  0
 33 32  2  0  0  0  0
 34 33  1  0  0  0  0
M  END
>  <MODEL>
2

>  <REMARK>
 VINA RESULT:      -8.4      2.029      2.954
  Name = 
  6 active torsions:
  status: ('A' for Active; 'I' for Inactive)
    1  A    between atoms: N_3  and  C_13
    2  A    between atoms: N_3  and  C_29
    3  A    between atoms: C_12  and  N_28
    4  A    between atoms: C_13  and  C_33
    5  A    between atoms: C_20  and  C_22
    6  A    between atoms: C_22  and  C_33
                            x       y       z     vdW  Elec       q    Type
                         _______ _______ _______ _____ _____    ______ ____

>  <TORSDO>
F 6

$$$$
=
 OpenBabel10262419163D

 34 38  0  0  1  0  0  0  0  0999 V2000
  186.3340  176.7060  136.1940 C   0  0  0  0  0  0  0  0  0  0  0  0
  188.3720  178.0440  136.5480 C   0  0  0  0  0  0  0  0  0  0  0  0
  186.5940  177.8980  138.4250 C   0  0  0  0  0  0  0  0  0  0  0  0
  186.4950  178.6640  140.7580 C   0  0  0  0  0  0  0  0  0  0  0  0
  186.9080  176.1700  134.9980 N   0  0  0  0  0  2  0  0  0  0  0  0
  188.7900  177.6560  135.3340 C   0  0  0  0  0  3  0  0  0  0  0  0
  188.5780  177.5310  139.8520 C   0  0  0  0  0  3  0  0  0  0  0  0
  187.2840  177.2440  137.2400 C   0  0  0  0  0  0  0  0  0  0  0  0
  189.0890  177.4630  141.0830 C   0  0  0  0  0  3  0  0  0  0  0  0
  187.2400  178.9270  142.0320 C   0  0  0  0  0  2  0  0  0  0  0  0
  188.0720  176.5920  134.5940 C   0  0  0  0  0  3  0  0  0  0  0  0
  185.1480  178.2140  138.3430 C   0  0  0  0  0  0  0  0  0  0  0  0
  185.0190  176.9260  136.2500 C   0  0  0  0  0  3  0  0  0  0  0  0
  189.2160  179.3740  137.3240 Cl  0  0  0  0  0  0  0  0  0  0  0  0
  185.2720  179.0850  140.6350 N   0  0  0  0  0  0  0  0  0  0  0  0
  184.5330  178.9200  139.4450 N   0  0  0  0  0  0  0  0  0  0  0  0
  188.2630  177.8130  142.2950 C   0  0  2  0  0  3  0  0  0  0  0  0
  187.2060  178.0320  139.6180 C   0  0  0  0  0  0  0  0  0  0  0  0
  184.4150  177.7000  137.3460 C   0  0  0  0  0  3  0  0  0  0  0  0
  180.8830  179.4530  140.1130 C   0  0  0  0  0  0  0  0  0  0  0  0
  180.6270  180.6000  139.3590 C   0  0  0  0  0  3  0  0  0  0  0  0
  183.2070  179.4840  139.3880 C   0  0  0  0  0  0  0  0  0  0  0  0
  181.6540  181.1970  138.6250 C   0  0  0  0  0  3  0  0  0  0  0  0
  182.1680  178.9010  140.1310 C   0  0  0  0  0  3  0  0  0  0  0  0
  182.9370  180.6450  138.6430 C   0  0  0  0  0  3  0  0  0  0  0  0
  179.8890  178.8760  140.8300 F   0  0  0  0  0  0  0  0  0  0  0  0
  189.0980  178.0940  143.4650 N   0  0  0  0  0  2  0  0  0  0  0  0
  188.7740  177.1800  144.5570 C   0  0  0  0  0  2  0  0  0  0  0  0
  188.7320  177.7290  146.8810 O   0  0  0  0  0  1  0  0  0  0  0  0
  188.0650  177.9320  145.6730 C   0  0  2  0  0  3  0  0  0  0  0  0
  186.5960  177.5270  145.7960 C   0  0  0  0  0  2  0  0  0  0  0  0
  185.6140  179.3620  146.9690 O   0  0  0  0  0  0  0  0  0  0  0  0
  185.6790  178.7040  145.8980 C   0  0  0  0  0  0  0  0  0  0  0  0
  184.8960  179.0970  144.7770 N   0  0  0  0  0  1  0  0  0  0  0  0
  1 13  2  0  0  0  0
  1  8  1  0  0  0  0
  2  8  2  0  0  0  0
  2 14  1  0  0  0  0
  3 18  2  0  0  0  0
  4 10  1  0  0  0  0
  5  1  1  0  0  0  0
  6  2  1  0  0  0  0
  7  9  2  0  0  0  0
  8  3  1  0  0  0  0
  9 17  1  0  0  0  0
 10 17  1  0  0  0  0
 11  5  1  0  0  0  0
 11  6  2  0  0  0  0
 12  3  1  0  0  0  0
 12 16  1  0  0  0  0
 13 19  1  0  0  0  0
 15  4  2  0  0  0  0
 16 15  1  0  0  0  0
 17 27  1  1  0  0  0
 18  7  1  0  0  0  0
 18  4  1  0  0  0  0
 19 12  2  0  0  0  0
 20 24  1  0  0  0  0
 20 26  1  0  0  0  0
 21 20  2  0  0  0  0
 22 16  1  0  0  0  0
 22 24  2  0  0  0  0
 23 25  2  0  0  0  0
 23 21  1  0  0  0  0
 25 22  1  0  0  0  0
 27 28  1  0  0  0  0
 28 30  1  0  0  0  0
 30 31  1  0  0  0  0
 30 29  1  1  0  0  0
 31 33  1  0  0  0  0
 33 32  2  0  0  0  0
 34 33  1  0  0  0  0
M  END
>  <MODEL>
3

>  <REMARK>
 VINA RESULT:      -8.3      3.705      7.773
  Name = 
  6 active torsions:
  status: ('A' for Active; 'I' for Inactive)
    1  A    between atoms: N_3  and  C_13
    2  A    between atoms: N_3  and  C_29
    3  A    between atoms: C_12  and  N_28
    4  A    between atoms: C_13  and  C_33
    5  A    between atoms: C_20  and  C_22
    6  A    between atoms: C_22  and  C_33
                            x       y       z     vdW  Elec       q    Type
                         _______ _______ _______ _____ _____    ______ ____

>  <TORSDO>
F 6

$$$$
=
 OpenBabel10262419163D

 34 38  0  0  1  0  0  0  0  0999 V2000
  190.8610  177.3850  146.7600 C   0  0  0  0  0  0  0  0  0  0  0  0
  191.6780  175.3780  145.5870 C   0  0  0  0  0  0  0  0  0  0  0  0
  190.1710  177.0700  144.3330 C   0  0  0  0  0  0  0  0  0  0  0  0
  189.4340  177.3140  142.0020 C   0  0  0  0  0  0  0  0  0  0  0  0
  191.7440  177.0930  147.8480 N   0  0  0  0  0  0  0  0  0  0  0  0
  192.3500  175.0490  146.7000 C   0  0  0  0  0  3  0  0  0  0  0  0
  191.8540  176.7790  142.5490 C   0  0  0  0  0  3  0  0  0  0  0  0
  191.2150  176.8130  145.4060 C   0  0  1  0  0  3  0  0  0  0  0  0
  192.1960  176.9730  141.2730 C   0  0  0  0  0  3  0  0  0  0  0  0
  189.7650  177.1410  140.5500 C   0  0  0  0  0  2  0  0  0  0  0  0
  192.4660  176.0090  147.8230 C   0  0  0  0  0  3  0  0  0  0  0  0
  188.8310  177.5690  144.7260 C   0  0  0  0  0  0  0  0  0  0  0  0
  189.6710  177.9340  147.0090 C   0  0  0  0  0  3  0  0  0  0  0  0
  191.5040  174.1570  144.3370 Cl  0  0  0  0  0  0  0  0  0  0  0  0
  188.2150  177.5970  142.3490 N   0  0  0  0  0  0  0  0  0  0  0  0
  187.8240  177.7180  143.6990 N   0  0  0  0  0  0  0  0  0  0  0  0
  191.2200  177.5490  140.2790 C   0  0  2  0  0  3  0  0  0  0  0  0
  190.4780  177.0420  143.0220 C   0  0  0  0  0  0  0  0  0  0  0  0
  188.6330  178.0230  145.9710 C   0  0  0  0  0  3  0  0  0  0  0  0
  184.6400  178.2570  145.6030 C   0  0  0  0  0  0  0  0  0  0  0  0
  183.7400  178.5260  144.5690 C   0  0  0  0  0  3  0  0  0  0  0  0
  186.4310  177.9680  143.9800 C   0  0  0  0  0  0  0  0  0  0  0  0
  184.1780  178.5260  143.2440 C   0  0  0  0  0  3  0  0  0  0  0  0
  185.9800  177.9840  145.3090 C   0  0  0  0  0  3  0  0  0  0  0  0
  185.5170  178.2530  142.9510 C   0  0  0  0  0  3  0  0  0  0  0  0
  184.2160  178.2630  146.8890 F   0  0  0  0  0  0  0  0  0  0  0  0
  191.6220  177.2790  138.8970 N   0  0  0  0  0  2  0  0  0  0  0  0
  192.9860  176.7590  138.8540 C   0  0  0  0  0  2  0  0  0  0  0  0
  194.2350  176.4200  136.8460 O   0  0  0  0  0  1  0  0  0  0  0  0
  193.1810  175.9110  137.6050 C   0  0  2  0  0  3  0  0  0  0  0  0
  191.9060  175.8250  136.7650 C   0  0  0  0  0  2  0  0  0  0  0  0
  191.8090  173.5710  135.9780 O   0  0  0  0  0  0  0  0  0  0  0  0
  191.3230  174.4480  136.7400 C   0  0  0  0  0  0  0  0  0  0  0  0
  190.2350  174.1200  137.5950 N   0  0  0  0  0  1  0  0  0  0  0  0
  1 13  2  0  0  0  0
  1  5  1  0  0  0  0
  2  6  2  0  0  0  0
  3 12  1  0  0  0  0
  4 15  2  0  0  0  0
  4 18  1  0  0  0  0
  6 11  1  0  0  0  0
  7 18  1  0  0  0  0
  8  3  1  6  0  0  0
  8  2  1  0  0  0  0
  8  1  1  0  0  0  0
  9  7  2  0  0  0  0
 10  4  1  0  0  0  0
 11  5  2  0  0  0  0
 12 19  2  0  0  0  0
 14  2  1  0  0  0  0
 15 16  1  0  0  0  0
 16 22  1  0  0  0  0
 16 12  1  0  0  0  0
 17 27  1  6  0  0  0
 17 10  1  0  0  0  0
 17  9  1  0  0  0  0
 18  3  2  0  0  0  0
 19 13  1  0  0  0  0
 20 26  1  0  0  0  0
 21 20  2  0  0  0  0
 22 24  2  0  0  0  0
 23 21  1  0  0  0  0
 24 20  1  0  0  0  0
 25 23  2  0  0  0  0
 25 22  1  0  0  0  0
 28 27  1  0  0  0  0
 30 29  1  6  0  0  0
 30 28  1  0  0  0  0
 31 30  1  0  0  0  0
 32 33  2  0  0  0  0
 33 31  1  0  0  0  0
 33 34  1  0  0  0  0
M  END
>  <MODEL>
4

>  <REMARK>
 VINA RESULT:      -8.1      2.633      2.941
  Name = 
  6 active torsions:
  status: ('A' for Active; 'I' for Inactive)
    1  A    between atoms: N_3  and  C_13
    2  A    between atoms: N_3  and  C_29
    3  A    between atoms: C_12  and  N_28
    4  A    between atoms: C_13  and  C_33
    5  A    between atoms: C_20  and  C_22
    6  A    between atoms: C_22  and  C_33
                            x       y       z     vdW  Elec       q    Type
                         _______ _______ _______ _____ _____    ______ ____

>  <TORSDO>
F 6

$$$$
=
 OpenBabel10262419163D

 34 38  0  0  1  0  0  0  0  0999 V2000
  184.9800  179.2230  144.7430 C   0  0  0  0  0  0  0  0  0  0  0  0
  186.6930  177.4550  144.6270 C   0  0  0  0  0  0  0  0  0  0  0  0
  185.6750  178.3980  142.4400 C   0  0  0  0  0  0  0  0  0  0  0  0
  186.1590  178.0940  140.0510 C   0  0  0  0  0  0  0  0  0  0  0  0
  185.2460  179.3710  146.1420 N   0  0  0  0  0  0  0  0  0  0  0  0
  186.7770  177.5040  145.9640 C   0  0  0  0  0  3  0  0  0  0  0  0
  188.0380  178.4410  141.7220 C   0  0  0  0  0  3  0  0  0  0  0  0
  186.0750  178.6290  143.8870 C   0  0  1  0  0  3  0  0  0  0  0  0
  188.9150  178.5720  140.7240 C   0  0  0  0  0  3  0  0  0  0  0  0
  187.1950  177.8550  138.9950 C   0  0  0  0  0  2  0  0  0  0  0  0
  186.1040  178.5840  146.7240 C   0  0  0  0  0  3  0  0  0  0  0  0
  184.2440  178.4840  142.0590 C   0  0  0  0  0  0  0  0  0  0  0  0
  183.7360  179.3860  144.2910 C   0  0  0  0  0  3  0  0  0  0  0  0
  187.4370  176.0950  143.8030 Cl  0  0  0  0  0  0  0  0  0  0  0  0
  184.9000  178.0110  139.7410 N   0  0  0  0  0  0  0  0  0  0  0  0
  183.8750  178.1690  140.6960 N   0  0  0  0  0  0  0  0  0  0  0  0
  188.4610  178.6730  139.2890 C   0  0  2  0  0  3  0  0  0  0  0  0
  186.5900  178.3040  141.4560 C   0  0  0  0  0  0  0  0  0  0  0  0
  183.3600  179.0030  142.9210 C   0  0  0  0  0  3  0  0  0  0  0  0
  180.6390  176.5080  139.7900 C   0  0  0  0  0  0  0  0  0  0  0  0
  179.8350  177.6110  139.4920 C   0  0  0  0  0  3  0  0  0  0  0  0
  182.5110  177.9900  140.2620 C   0  0  0  0  0  0  0  0  0  0  0  0
  180.3580  178.9020  139.5840 C   0  0  0  0  0  3  0  0  0  0  0  0
  181.9690  176.6990  140.1780 C   0  0  0  0  0  3  0  0  0  0  0  0
  181.6870  179.0910  139.9720 C   0  0  0  0  0  3  0  0  0  0  0  0
  180.1310  175.2560  139.7070 F   0  0  0  0  0  0  0  0  0  0  0  0
  189.5440  178.3740  138.3500 N   0  0  0  0  0  2  0  0  0  0  0  0
  189.4560  176.9900  137.8920 C   0  0  0  0  0  2  0  0  0  0  0  0
  190.6480  174.9330  138.1330 O   0  0  0  0  0  1  0  0  0  0  0  0
  190.8140  176.3140  138.0150 C   0  0  2  0  0  3  0  0  0  0  0  0
  191.6230  176.8590  139.1930 C   0  0  0  0  0  2  0  0  0  0  0  0
  193.9050  177.0860  139.8600 O   0  0  0  0  0  0  0  0  0  0  0  0
  193.0920  176.8910  138.9190 C   0  0  0  0  0  0  0  0  0  0  0  0
  193.5750  176.6770  137.5980 N   0  0  0  0  0  1  0  0  0  0  0  0
  1  5  1  0  0  0  0
  2  6  2  0  0  0  0
  4 18  1  0  0  0  0
  5 11  2  0  0  0  0
  6 11  1  0  0  0  0
  8  3  1  6  0  0  0
  8  2  1  0  0  0  0
  8  1  1  0  0  0  0
  9  7  2  0  0  0  0
 10 17  1  0  0  0  0
 10  4  1  0  0  0  0
 12  3  1  0  0  0  0
 12 19  2  0  0  0  0
 13  1  2  0  0  0  0
 14  2  1  0  0  0  0
 15  4  2  0  0  0  0
 15 16  1  0  0  0  0
 16 12  1  0  0  0  0
 17 27  1  6  0  0  0
 17  9  1  0  0  0  0
 18  7  1  0  0  0  0
 18  3  2  0  0  0  0
 19 13  1  0  0  0  0
 20 24  1  0  0  0  0
 21 23  1  0  0  0  0
 21 20  2  0  0  0  0
 22 16  1  0  0  0  0
 23 25  2  0  0  0  0
 24 22  2  0  0  0  0
 25 22  1  0  0  0  0
 26 20  1  0  0  0  0
 28 30  1  0  0  0  0
 28 27  1  0  0  0  0
 30 29  1  1  0  0  0
 30 31  1  0  0  0  0
 33 31  1  0  0  0  0
 33 32  2  0  0  0  0
 34 33  1  0  0  0  0
M  END
>  <MODEL>
5

>  <REMARK>
 VINA RESULT:      -8.1      3.417      5.323
  Name = 
  6 active torsions:
  status: ('A' for Active; 'I' for Inactive)
    1  A    between atoms: N_3  and  C_13
    2  A    between atoms: N_3  and  C_29
    3  A    between atoms: C_12  and  N_28
    4  A    between atoms: C_13  and  C_33
    5  A    between atoms: C_20  and  C_22
    6  A    between atoms: C_22  and  C_33
                            x       y       z     vdW  Elec       q    Type
                         _______ _______ _______ _____ _____    ______ ____

>  <TORSDO>
F 6

$$$$
=
 OpenBabel10262419163D

 34 38  0  0  1  0  0  0  0  0999 V2000
  193.1820  176.7190  138.2020 C   0  0  0  0  0  0  0  0  0  0  0  0
  191.5370  175.2210  137.1420 C   0  0  0  0  0  0  0  0  0  0  0  0
  190.7540  176.9220  138.9320 C   0  0  0  0  0  0  0  0  0  0  0  0
  188.5610  177.6260  139.7870 C   0  0  0  0  0  0  0  0  0  0  0  0
  194.1600  176.3030  137.2440 N   0  0  0  0  0  2  0  0  0  0  0  0
  192.5300  174.7310  136.3860 C   0  0  0  0  0  3  0  0  0  0  0  0
  188.9540  177.3490  137.2940 C   0  0  0  0  0  3  0  0  0  0  0  0
  191.7270  176.5670  137.8200 C   0  0  0  0  0  0  0  0  0  0  0  0
  187.7690  177.9070  137.0350 C   0  0  0  0  0  3  0  0  0  0  0  0
  187.1130  177.8760  139.4910 C   0  0  0  0  0  2  0  0  0  0  0  0
  193.8610  175.3840  136.3710 C   0  0  0  0  0  3  0  0  0  0  0  0
  191.2600  177.0940  140.3150 C   0  0  0  0  0  0  0  0  0  0  0  0
  193.5620  176.9990  139.4490 C   0  0  0  0  0  3  0  0  0  0  0  0
  190.0190  174.3410  137.1820 Cl  0  0  0  0  0  0  0  0  0  0  0  0
  188.9690  177.6220  141.0200 N   0  0  0  0  0  0  0  0  0  0  0  0
  190.3050  177.3400  141.3720 N   0  0  0  0  0  0  0  0  0  0  0  0
  186.9540  178.5580  138.1240 C   0  0  2  0  0  3  0  0  0  0  0  0
  189.4780  177.2700  138.6750 C   0  0  0  0  0  0  0  0  0  0  0  0
  192.5800  177.1850  140.5290 C   0  0  0  0  0  3  0  0  0  0  0  0
  191.6650  176.1250  144.6480 C   0  0  0  0  0  0  0  0  0  0  0  0
  191.3760  177.2050  145.4860 C   0  0  0  0  0  3  0  0  0  0  0  0
  190.6410  177.2950  142.7740 C   0  0  0  0  0  0  0  0  0  0  0  0
  190.7290  178.3320  144.9750 C   0  0  0  0  0  3  0  0  0  0  0  0
  191.3030  176.1730  143.2980 C   0  0  0  0  0  3  0  0  0  0  0  0
  190.3680  178.3790  143.6260 C   0  0  0  0  0  3  0  0  0  0  0  0
  192.2970  175.0350  145.1410 F   0  0  0  0  0  0  0  0  0  0  0  0
  185.5490  178.7080  137.7400 N   0  0  0  0  0  2  0  0  0  0  0  0
  184.6770  178.0960  138.7400 C   0  0  0  0  0  2  0  0  0  0  0  0
  184.1810  180.4060  139.0930 O   0  0  0  0  0  1  0  0  0  0  0  0
  183.6690  179.1170  139.2470 C   0  0  2  0  0  3  0  0  0  0  0  0
  183.2780  178.8650  140.7030 C   0  0  0  0  0  2  0  0  0  0  0  0
  185.3480  179.7530  141.4990 O   0  0  0  0  0  0  0  0  0  0  0  0
  184.4530  178.8760  141.6270 C   0  0  0  0  0  0  0  0  0  0  0  0
  184.5510  177.9110  142.6690 N   0  0  0  0  0  1  0  0  0  0  0  0
  1 13  2  0  0  0  0
  2 14  1  0  0  0  0
  2  8  2  0  0  0  0
  3 12  1  0  0  0  0
  4 15  2  0  0  0  0
  5  1  1  0  0  0  0
  6  2  1  0  0  0  0
  7 18  1  0  0  0  0
  8  1  1  0  0  0  0
  8  3  1  0  0  0  0
  9  7  2  0  0  0  0
  9 17  1  0  0  0  0
 10  4  1  0  0  0  0
 11  6  2  0  0  0  0
 11  5  1  0  0  0  0
 12 19  2  0  0  0  0
 12 16  1  0  0  0  0
 13 19  1  0  0  0  0
 15 16  1  0  0  0  0
 16 22  1  0  0  0  0
 17 27  1  6  0  0  0
 17 10  1  0  0  0  0
 18  3  2  0  0  0  0
 18  4  1  0  0  0  0
 20 26  1  0  0  0  0
 20 21  1  0  0  0  0
 22 24  1  0  0  0  0
 22 25  2  0  0  0  0
 23 21  2  0  0  0  0
 24 20  2  0  0  0  0
 25 23  1  0  0  0  0
 27 28  1  0  0  0  0
 28 30  1  0  0  0  0
 30 29  1  1  0  0  0
 30 31  1  0  0  0  0
 31 33  1  0  0  0  0
 32 33  2  0  0  0  0
 33 34  1  0  0  0  0
M  END
>  <MODEL>
6

>  <REMARK>
 VINA RESULT:      -8.0      3.256      6.427
  Name = 
  6 active torsions:
  status: ('A' for Active; 'I' for Inactive)
    1  A    between atoms: N_3  and  C_13
    2  A    between atoms: N_3  and  C_29
    3  A    between atoms: C_12  and  N_28
    4  A    between atoms: C_13  and  C_33
    5  A    between atoms: C_20  and  C_22
    6  A    between atoms: C_22  and  C_33
                            x       y       z     vdW  Elec       q    Type
                         _______ _______ _______ _____ _____    ______ ____

>  <TORSDO>
F 6

$$$$
=
 OpenBabel10262419163D

 34 38  0  0  1  0  0  0  0  0999 V2000
  186.2490  176.5960  136.2780 C   0  0  0  0  0  0  0  0  0  0  0  0
  188.2510  178.0130  136.5100 C   0  0  0  0  0  0  0  0  0  0  0  0
  186.5630  177.8490  138.4680 C   0  0  0  0  0  0  0  0  0  0  0  0
  186.5380  178.6650  140.7850 C   0  0  0  0  0  0  0  0  0  0  0  0
  186.7890  176.0520  135.0690 N   0  0  0  0  0  2  0  0  0  0  0  0
  188.6290  177.6110  135.2880 C   0  0  0  0  0  3  0  0  0  0  0  0
  188.6190  177.5860  139.8120 C   0  0  0  0  0  3  0  0  0  0  0  0
  187.2230  177.1910  137.2680 C   0  0  0  0  0  0  0  0  0  0  0  0
  189.1860  177.5650  141.0210 C   0  0  0  0  0  3  0  0  0  0  0  0
  187.3280  178.9840  142.0190 C   0  0  0  0  0  2  0  0  0  0  0  0
  187.9180  176.5050  134.6040 C   0  0  0  0  0  3  0  0  0  0  0  0
  185.1040  178.1100  138.4440 C   0  0  0  0  0  0  0  0  0  0  0  0
  184.9310  176.7700  136.3880 C   0  0  0  0  0  3  0  0  0  0  0  0
  189.0790  179.3900  137.2190 Cl  0  0  0  0  0  0  0  0  0  0  0  0
  185.2970  179.0400  140.7080 N   0  0  0  0  0  0  0  0  0  0  0  0
  184.5130  178.8210  139.5560 N   0  0  0  0  0  0  0  0  0  0  0  0
  188.4010  177.9140  142.2610 C   0  0  2  0  0  3  0  0  0  0  0  0
  187.2210  178.0320  139.6290 C   0  0  0  0  0  0  0  0  0  0  0  0
  184.3480  177.5470  137.4910 C   0  0  0  0  0  3  0  0  0  0  0  0
  180.9010  179.2990  140.4390 C   0  0  0  0  0  0  0  0  0  0  0  0
  180.5500  180.3630  139.6050 C   0  0  0  0  0  3  0  0  0  0  0  0
  183.1650  179.3350  139.5460 C   0  0  0  0  0  0  0  0  0  0  0  0
  181.4990  180.9220  138.7480 C   0  0  0  0  0  3  0  0  0  0  0  0
  182.2040  178.7910  140.4120 C   0  0  0  0  0  3  0  0  0  0  0  0
  182.8010  180.4140  138.7220 C   0  0  0  0  0  3  0  0  0  0  0  0
  179.9820  178.7610  141.2750 F   0  0  0  0  0  0  0  0  0  0  0  0
  189.2770  178.2520  143.3850 N   0  0  0  0  0  2  0  0  0  0  0  0
  190.6390  177.7910  143.1300 C   0  0  0  0  0  2  0  0  0  0  0  0
  191.4830  175.6520  143.7760 O   0  0  0  0  0  1  0  0  0  0  0  0
  191.1100  176.9020  144.2710 C   0  0  2  0  0  3  0  0  0  0  0  0
  190.0480  176.7530  145.3600 C   0  0  0  0  0  2  0  0  0  0  0  0
  189.8770  177.3250  147.6730 O   0  0  0  0  0  0  0  0  0  0  0  0
  190.6080  176.9050  146.7380 C   0  0  0  0  0  0  0  0  0  0  0  0
  191.9610  176.5500  147.0010 N   0  0  0  0  0  1  0  0  0  0  0  0
  1 13  2  0  0  0  0
  1  8  1  0  0  0  0
  2 14  1  0  0  0  0
  2  8  2  0  0  0  0
  3 18  2  0  0  0  0
  4 10  1  0  0  0  0
  5  1  1  0  0  0  0
  6  2  1  0  0  0  0
  7  9  2  0  0  0  0
  8  3  1  0  0  0  0
  9 17  1  0  0  0  0
 10 17  1  0  0  0  0
 11  5  1  0  0  0  0
 11  6  2  0  0  0  0
 12  3  1  0  0  0  0
 12 16  1  0  0  0  0
 13 19  1  0  0  0  0
 15  4  2  0  0  0  0
 16 15  1  0  0  0  0
 17 27  1  1  0  0  0
 18  7  1  0  0  0  0
 18  4  1  0  0  0  0
 19 12  2  0  0  0  0
 20 26  1  0  0  0  0
 21 20  2  0  0  0  0
 22 16  1  0  0  0  0
 22 24  2  0  0  0  0
 23 21  1  0  0  0  0
 24 20  1  0  0  0  0
 25 23  2  0  0  0  0
 25 22  1  0  0  0  0
 28 27  1  0  0  0  0
 28 30  1  0  0  0  0
 30 29  1  6  0  0  0
 30 31  1  0  0  0  0
 31 33  1  0  0  0  0
 33 34  1  0  0  0  0
 33 32  2  0  0  0  0
M  END
>  <MODEL>
7

>  <REMARK>
 VINA RESULT:      -7.9      3.692      7.868
  Name = 
  6 active torsions:
  status: ('A' for Active; 'I' for Inactive)
    1  A    between atoms: N_3  and  C_13
    2  A    between atoms: N_3  and  C_29
    3  A    between atoms: C_12  and  N_28
    4  A    between atoms: C_13  and  C_33
    5  A    between atoms: C_20  and  C_22
    6  A    between atoms: C_22  and  C_33
                            x       y       z     vdW  Elec       q    Type
                         _______ _______ _______ _____ _____    ______ ____

>  <TORSDO>
F 6

$$$$
=
 OpenBabel10262419163D

 34 38  0  0  1  0  0  0  0  0999 V2000
  188.5720  178.4660  138.7530 C   0  0  0  0  0  0  0  0  0  0  0  0
  186.9410  177.0320  137.5890 C   0  0  0  0  0  0  0  0  0  0  0  0
  186.2200  178.3300  139.7110 C   0  0  0  0  0  0  0  0  0  0  0  0
  184.0780  178.6860  140.8600 C   0  0  0  0  0  0  0  0  0  0  0  0
  189.4780  178.3040  137.6570 N   0  0  0  0  0  2  0  0  0  0  0  0
  187.8860  176.7650  136.6760 C   0  0  0  0  0  3  0  0  0  0  0  0
  184.2410  178.8700  138.3340 C   0  0  0  0  0  3  0  0  0  0  0  0
  187.1010  178.2540  138.4750 C   0  0  0  0  0  0  0  0  0  0  0  0
  183.0000  179.3590  138.2790 C   0  0  0  0  0  3  0  0  0  0  0  0
  182.5940  178.8550  140.7370 C   0  0  0  0  0  2  0  0  0  0  0  0
  189.1590  177.5240  136.6630 C   0  0  0  0  0  3  0  0  0  0  0  0
  186.8470  178.3090  141.0540 C   0  0  0  0  0  0  0  0  0  0  0  0
  189.0530  178.5620  139.9930 C   0  0  0  0  0  3  0  0  0  0  0  0
  185.5000  176.0280  137.6010 Cl  0  0  0  0  0  0  0  0  0  0  0  0
  184.6050  178.5090  142.0340 N   0  0  0  0  0  0  0  0  0  0  0  0
  185.9860  178.2880  142.2160 N   0  0  0  0  0  0  0  0  0  0  0  0
  182.2530  179.7420  139.5320 C   0  0  2  0  0  3  0  0  0  0  0  0
  184.9040  178.6050  139.6290 C   0  0  0  0  0  0  0  0  0  0  0  0
  188.1720  178.4770  141.1680 C   0  0  0  0  0  3  0  0  0  0  0  0
  186.0930  178.1140  145.9590 C   0  0  0  0  0  0  0  0  0  0  0  0
  187.3240  177.4900  146.1730 C   0  0  0  0  0  3  0  0  0  0  0  0
  186.4610  178.0350  143.5540 C   0  0  0  0  0  0  0  0  0  0  0  0
  188.1220  177.1290  145.0860 C   0  0  0  0  0  3  0  0  0  0  0  0
  185.6620  178.3810  144.6550 C   0  0  0  0  0  3  0  0  0  0  0  0
  187.6920  177.3960  143.7840 C   0  0  0  0  0  3  0  0  0  0  0  0
  185.3150  178.4590  147.0120 F   0  0  0  0  0  0  0  0  0  0  0  0
  180.8090  179.8320  139.3010 N   0  0  0  0  0  2  0  0  0  0  0  0
  180.5330  180.5510  138.0600 C   0  0  0  0  0  2  0  0  0  0  0  0
  179.4100  182.3710  139.1240 O   0  0  0  0  0  1  0  0  0  0  0  0
  180.5050  182.0500  138.3220 C   0  0  2  0  0  3  0  0  0  0  0  0
  180.4770  182.8590  137.0250 C   0  0  0  0  0  2  0  0  0  0  0  0
  182.3090  184.2820  137.5950 O   0  0  0  0  0  0  0  0  0  0  0  0
  181.1290  184.1970  137.1640 C   0  0  0  0  0  0  0  0  0  0  0  0
  180.4270  185.3760  136.7870 N   0  0  0  0  0  1  0  0  0  0  0  0
  1 13  2  0  0  0  0
  2 14  1  0  0  0  0
  2  8  2  0  0  0  0
  3 12  1  0  0  0  0
  4 15  2  0  0  0  0
  5  1  1  0  0  0  0
  6  2  1  0  0  0  0
  7 18  1  0  0  0  0
  8  1  1  0  0  0  0
  8  3  1  0  0  0  0
  9  7  2  0  0  0  0
  9 17  1  0  0  0  0
 10  4  1  0  0  0  0
 11  6  2  0  0  0  0
 11  5  1  0  0  0  0
 12 19  2  0  0  0  0
 12 16  1  0  0  0  0
 13 19  1  0  0  0  0
 15 16  1  0  0  0  0
 16 22  1  0  0  0  0
 17 27  1  6  0  0  0
 17 10  1  0  0  0  0
 18  3  2  0  0  0  0
 18  4  1  0  0  0  0
 20 21  1  0  0  0  0
 20 26  1  0  0  0  0
 22 25  2  0  0  0  0
 22 24  1  0  0  0  0
 23 21  2  0  0  0  0
 24 20  2  0  0  0  0
 25 23  1  0  0  0  0
 28 30  1  0  0  0  0
 28 27  1  0  0  0  0
 30 29  1  1  0  0  0
 31 33  1  0  0  0  0
 31 30  1  0  0  0  0
 33 32  2  0  0  0  0
 34 33  1  0  0  0  0
M  END
>  <MODEL>
8

>  <REMARK>
 VINA RESULT:      -7.8      4.434      7.205
  Name = 
  6 active torsions:
  status: ('A' for Active; 'I' for Inactive)
    1  A    between atoms: N_3  and  C_13
    2  A    between atoms: N_3  and  C_29
    3  A    between atoms: C_12  and  N_28
    4  A    between atoms: C_13  and  C_33
    5  A    between atoms: C_20  and  C_22
    6  A    between atoms: C_22  and  C_33
                            x       y       z     vdW  Elec       q    Type
                         _______ _______ _______ _____ _____    ______ ____

>  <TORSDO>
F 6

$$$$
=
 OpenBabel10262419163D

 34 38  0  0  1  0  0  0  0  0999 V2000
  186.6980  177.1850  144.8660 C   0  0  0  0  0  0  0  0  0  0  0  0
  185.4570  179.3030  145.0710 C   0  0  0  0  0  0  0  0  0  0  0  0
  185.7810  178.2300  142.7370 C   0  0  0  0  0  0  0  0  0  0  0  0
  184.9260  178.7240  140.4870 C   0  0  0  0  0  0  0  0  0  0  0  0
  186.6820  177.0520  146.2910 N   0  0  0  0  0  0  0  0  0  0  0  0
  185.6250  179.2280  146.3990 C   0  0  0  0  0  3  0  0  0  0  0  0
  183.3800  178.7610  142.5000 C   0  0  0  0  0  3  0  0  0  0  0  0
  185.6270  178.0470  144.2370 C   0  0  1  0  0  3  0  0  0  0  0  0
  182.3190  178.8730  141.6960 C   0  0  0  0  0  3  0  0  0  0  0  0
  183.7890  179.2340  139.6540 C   0  0  0  0  0  2  0  0  0  0  0  0
  186.1620  177.9950  147.0230 C   0  0  0  0  0  3  0  0  0  0  0  0
  187.0490  177.8300  142.0810 C   0  0  0  0  0  0  0  0  0  0  0  0
  187.7560  176.7550  144.1780 C   0  0  0  0  0  3  0  0  0  0  0  0
  184.9060  180.8280  144.3960 Cl  0  0  0  0  0  0  0  0  0  0  0  0
  186.0840  178.5250  139.9330 N   0  0  0  0  0  0  0  0  0  0  0  0
  187.2090  178.0990  140.6690 N   0  0  0  0  0  0  0  0  0  0  0  0
  182.4500  178.7220  140.2010 C   0  0  2  0  0  3  0  0  0  0  0  0
  184.7400  178.5690  141.9510 C   0  0  0  0  0  0  0  0  0  0  0  0
  187.9380  177.0890  142.7570 C   0  0  0  0  0  3  0  0  0  0  0  0
  190.8570  177.5180  140.0270 C   0  0  0  0  0  0  0  0  0  0  0  0
  190.9180  177.6460  138.6380 C   0  0  0  0  0  3  0  0  0  0  0  0
  188.4660  177.9730  139.9720 C   0  0  0  0  0  0  0  0  0  0  0  0
  189.7600  177.9280  137.9100 C   0  0  0  0  0  3  0  0  0  0  0  0
  189.6350  177.6760  140.6900 C   0  0  0  0  0  3  0  0  0  0  0  0
  188.5400  178.0860  138.5730 C   0  0  0  0  0  3  0  0  0  0  0  0
  191.9780  177.2380  140.7330 F   0  0  0  0  0  0  0  0  0  0  0  0
  181.3050  179.2970  139.4920 N   0  0  0  0  0  2  0  0  0  0  0  0
  181.7550  180.2570  138.4870 C   0  0  0  0  0  2  0  0  0  0  0  0
  179.9940  181.4580  139.5660 O   0  0  0  0  0  1  0  0  0  0  0  0
  181.1000  181.6090  138.7280 C   0  0  2  0  0  3  0  0  0  0  0  0
  180.6940  182.2910  137.4220 C   0  0  0  0  0  2  0  0  0  0  0  0
  179.6920  184.4240  137.8160 O   0  0  0  0  0  0  0  0  0  0  0  0
  180.7330  183.7830  137.5130 C   0  0  0  0  0  0  0  0  0  0  0  0
  181.9520  184.4800  137.2830 N   0  0  0  0  0  1  0  0  0  0  0  0
  1  5  1  0  0  0  0
  2  6  2  0  0  0  0
  4 18  1  0  0  0  0
  5 11  2  0  0  0  0
  6 11  1  0  0  0  0
  8  3  1  6  0  0  0
  8  1  1  0  0  0  0
  8  2  1  0  0  0  0
  9  7  2  0  0  0  0
 10 17  1  0  0  0  0
 10  4  1  0  0  0  0
 12  3  1  0  0  0  0
 12 19  2  0  0  0  0
 13  1  2  0  0  0  0
 14  2  1  0  0  0  0
 15  4  2  0  0  0  0
 15 16  1  0  0  0  0
 16 12  1  0  0  0  0
 17 27  1  6  0  0  0
 17  9  1  0  0  0  0
 18  7  1  0  0  0  0
 18  3  2  0  0  0  0
 19 13  1  0  0  0  0
 20 24  1  0  0  0  0
 20 26  1  0  0  0  0
 21 20  2  0  0  0  0
 22 16  1  0  0  0  0
 22 24  2  0  0  0  0
 23 25  2  0  0  0  0
 23 21  1  0  0  0  0
 25 22  1  0  0  0  0
 28 30  1  0  0  0  0
 28 27  1  0  0  0  0
 30 29  1  1  0  0  0
 31 33  1  0  0  0  0
 31 30  1  0  0  0  0
 33 32  2  0  0  0  0
 34 33  1  0  0  0  0
M  END
>  <MODEL>
9

>  <REMARK>
 VINA RESULT:      -7.7      4.452      7.108
  Name = 
  6 active torsions:
  status: ('A' for Active; 'I' for Inactive)
    1  A    between atoms: N_3  and  C_13
    2  A    between atoms: N_3  and  C_29
    3  A    between atoms: C_12  and  N_28
    4  A    between atoms: C_13  and  C_33
    5  A    between atoms: C_20  and  C_22
    6  A    between atoms: C_22  and  C_33
                            x       y       z     vdW  Elec       q    Type
                         _______ _______ _______ _____ _____    ______ ____

>  <TORSDO>
F 6

$$$$
