=
 OpenBabel10262423133D

 34 38  0  0  1  0  0  0  0  0999 V2000
  182.6990  179.0290  140.3270 C   0  0  0  0  0  0  0  0  0  0  0  0
  179.9840  177.5890  138.1350 C   0  0  0  0  0  3  0  0  0  0  0  0
  180.1880  177.4780  140.5820 C   0  0  0  0  0  2  0  0  0  0  0  0
  183.8300  179.5490  140.2890 O   0  0  0  0  0  0  0  0  0  0  0  0
  182.5270  179.2210  142.8790 C   0  0  2  0  0  3  0  0  0  0  0  0
  181.2710  179.0680  143.7490 C   0  0  0  0  0  2  0  0  0  0  0  0
  180.6030  178.5540  141.5520 C   0  0  2  0  0  3  0  0  0  0  0  0
  182.0330  178.7160  141.5740 N   0  0  0  0  0  0  0  0  0  0  0  0
  180.2760  178.1780  142.9730 C   0  0  0  0  0  2  0  0  0  0  0  0
  180.5010  177.9410  136.8040 C   0  0  0  0  0  2  0  0  0  0  0  0
  181.0850  179.4110  136.8060 C   0  0  2  0  0  3  0  0  0  0  0  0
  180.6640  177.9230  139.2330 C   0  0  0  0  0  0  0  0  0  0  0  0
  181.8940  179.8020  138.0600 C   0  0  0  0  0  2  0  0  0  0  0  0
  181.9870  178.6640  139.0650 C   0  0  1  0  0  3  0  0  0  0  0  0
  183.6350  178.2820  143.3560 C   0  0  0  0  0  2  0  0  0  0  0  0
  184.8850  179.0560  143.6810 C   0  0  0  0  0  2  0  0  0  0  0  0
  187.3000  177.3940  143.5390 O   0  0  0  0  0  0  0  0  0  0  0  0
  185.9880  178.6600  147.2300 C   0  0  0  0  0  3  0  0  0  0  0  0
  189.7990  176.8730  147.1080 C   0  0  2  0  0  3  0  0  0  0  0  0
  189.1050  177.1960  145.7580 C   0  0  0  0  0  2  0  0  0  0  0  0
  187.6070  177.2880  145.9230 C   0  0  1  0  0  3  0  0  0  0  0  0
  185.6490  178.4390  144.8600 N   0  0  0  0  0  0  0  0  0  0  0  0
  188.0000  177.9840  148.4250 C   0  0  0  0  0  2  0  0  0  0  0  0
  187.1680  178.0840  147.1580 C   0  0  0  0  0  0  0  0  0  0  0  0
  189.4550  177.9790  148.1060 C   0  0  0  0  0  2  0  0  0  0  0  0
  184.9910  178.5720  146.1420 C   0  0  0  0  0  2  0  0  0  0  0  0
  186.8390  177.7310  144.6800 C   0  0  0  0  0  0  0  0  0  0  0  0
  191.2660  176.8550  146.9020 C   0  0  0  0  0  0  0  0  0  0  0  0
  191.7630  176.8620  145.7760 O   0  0  0  0  0  0  0  0  0  0  0  0
  192.0920  176.8240  148.0410 O   0  0  0  0  0  1  0  0  0  0  0  0
  180.1110  180.4120  136.5660 N   0  0  0  0  0  2  0  0  0  0  0  0
  180.4020  181.6860  136.0560 C   0  0  0  0  0  0  0  0  0  0  0  0
  180.4560  183.0840  136.9720 S   0  0  0  0  0  0  0  0  0  0  0  0
  180.7850  181.7800  134.6140 C   0  0  0  0  0  1  0  0  0  0  0  0
  1  8  1  0  0  0  0
  2 12  2  0  0  0  0
  4  1  2  0  0  0  0
  5 15  1  1  0  0  0
  5  6  1  0  0  0  0
  7  3  1  6  0  0  0
  7  8  1  0  0  0  0
  7  9  1  0  0  0  0
  8  5  1  0  0  0  0
  9  6  1  0  0  0  0
 10 11  1  0  0  0  0
 10  2  1  0  0  0  0
 11 31  1  1  0  0  0
 11 13  1  0  0  0  0
 12  3  1  0  0  0  0
 14 13  1  1  0  0  0
 14 12  1  0  0  0  0
 14  1  1  0  0  0  0
 15 16  1  0  0  0  0
 16 22  1  0  0  0  0
 17 27  2  0  0  0  0
 19 28  1  6  0  0  0
 19 25  1  0  0  0  0
 20 19  1  0  0  0  0
 21 20  1  6  0  0  0
 21 24  1  0  0  0  0
 22 26  1  0  0  0  0
 24 18  2  0  0  0  0
 24 23  1  0  0  0  0
 25 23  1  0  0  0  0
 26 18  1  0  0  0  0
 27 22  1  0  0  0  0
 27 21  1  0  0  0  0
 28 30  1  0  0  0  0
 29 28  2  0  0  0  0
 32 31  1  0  0  0  0
 32 33  2  0  0  0  0
 34 32  1  0  0  0  0
M  END
>  <MODEL>
1

>  <REMARK>
 VINA RESULT:      -9.3      0.000      0.000
  Name = 
  6 active torsions:
  status: ('A' for Active; 'I' for Inactive)
    1  A    between atoms: C_3  and  N_25
    2  A    between atoms: C_7  and  C_11
    3  A    between atoms: C_8  and  C_17
    4  A    between atoms: C_8  and  N_18
    5  A    between atoms: C_10  and  C_17
    6  A    between atoms: N_25  and  C_27
                            x       y       z     vdW  Elec       q    Type
                         _______ _______ _______ _____ _____    ______ ____

>  <TORSDO>
F 6

$$$$
=
 OpenBabel10262423133D

 34 38  0  0  1  0  0  0  0  0999 V2000
  191.1680  176.7410  138.8040 C   0  0  0  0  0  0  0  0  0  0  0  0
  192.2760  174.0600  136.3880 C   0  0  0  0  0  3  0  0  0  0  0  0
  190.1870  175.3580  136.3750 C   0  0  0  0  0  2  0  0  0  0  0  0
  191.4460  177.2600  139.9010 O   0  0  0  0  0  0  0  0  0  0  0  0
  189.1810  178.3100  138.3910 C   0  0  2  0  0  3  0  0  0  0  0  0
  188.4300  178.5460  137.0720 C   0  0  0  0  0  2  0  0  0  0  0  0
  189.9790  176.8270  136.6370 C   0  0  2  0  0  3  0  0  0  0  0  0
  189.9920  177.1160  138.0470 N   0  0  0  0  0  0  0  0  0  0  0  0
  188.6090  177.2800  136.2050 C   0  0  0  0  0  2  0  0  0  0  0  0
  193.5500  173.6570  137.0020 C   0  0  0  0  0  2  0  0  0  0  0  0
  194.3530  174.9260  137.4970 C   0  0  2  0  0  3  0  0  0  0  0  0
  191.5310  175.0170  136.9450 C   0  0  0  0  0  0  0  0  0  0  0  0
  193.5070  176.0300  138.1650 C   0  0  0  0  0  2  0  0  0  0  0  0
  192.0320  175.6640  138.2330 C   0  0  1  0  0  3  0  0  0  0  0  0
  188.2110  177.9130  139.5040 C   0  0  0  0  0  2  0  0  0  0  0  0
  188.2710  178.9020  140.6380 C   0  0  0  0  0  2  0  0  0  0  0  0
  189.8440  177.7540  142.8340 O   0  0  0  0  0  0  0  0  0  0  0  0
  185.8020  178.3070  143.3800 C   0  0  0  0  0  3  0  0  0  0  0  0
  188.0340  177.2980  146.8050 C   0  0  2  0  0  3  0  0  0  0  0  0
  188.8120  177.6410  145.5060 C   0  0  0  0  0  2  0  0  0  0  0  0
  187.9520  177.4290  144.2830 C   0  0  1  0  0  3  0  0  0  0  0  0
  187.7310  178.3050  141.9450 N   0  0  0  0  0  0  0  0  0  0  0  0
  185.8420  177.8870  145.7780 C   0  0  0  0  0  2  0  0  0  0  0  0
  186.5270  177.9770  144.4260 C   0  0  0  0  0  0  0  0  0  0  0  0
  186.7970  178.1950  146.8790 C   0  0  0  0  0  2  0  0  0  0  0  0
  186.2920  178.1610  141.9930 C   0  0  0  0  0  2  0  0  0  0  0  0
  188.5800  177.8610  142.9600 C   0  0  0  0  0  0  0  0  0  0  0  0
  188.9000  177.5830  147.9730 C   0  0  0  0  0  0  0  0  0  0  0  0
  190.1100  177.3600  147.9530 O   0  0  0  0  0  0  0  0  0  0  0  0
  188.2960  178.1170  149.1270 O   0  0  0  0  0  1  0  0  0  0  0  0
  195.1580  175.5180  136.4920 N   0  0  0  0  0  2  0  0  0  0  0  0
  196.4840  175.1490  136.2270 C   0  0  0  0  0  0  0  0  0  0  0  0
  197.3320  175.5760  134.8510 S   0  0  0  0  0  0  0  0  0  0  0  0
  197.2180  174.4040  137.2970 C   0  0  0  0  0  1  0  0  0  0  0  0
  1  4  2  0  0  0  0
  2 12  2  0  0  0  0
  2 10  1  0  0  0  0
  3  7  1  0  0  0  0
  3 12  1  0  0  0  0
  5 15  1  1  0  0  0
  6  5  1  0  0  0  0
  7  9  1  1  0  0  0
  7  8  1  0  0  0  0
  8  5  1  0  0  0  0
  8  1  1  0  0  0  0
  9  6  1  0  0  0  0
 10 11  1  0  0  0  0
 11 31  1  6  0  0  0
 11 13  1  0  0  0  0
 12 14  1  0  0  0  0
 14 13  1  6  0  0  0
 14  1  1  0  0  0  0
 15 16  1  0  0  0  0
 16 22  1  0  0  0  0
 17 27  2  0  0  0  0
 18 24  2  0  0  0  0
 19 25  1  0  0  0  0
 19 28  1  1  0  0  0
 20 19  1  0  0  0  0
 21 24  1  0  0  0  0
 21 20  1  1  0  0  0
 22 26  1  0  0  0  0
 22 27  1  0  0  0  0
 23 25  1  0  0  0  0
 24 23  1  0  0  0  0
 26 18  1  0  0  0  0
 27 21  1  0  0  0  0
 28 30  1  0  0  0  0
 29 28  2  0  0  0  0
 32 31  1  0  0  0  0
 32 34  1  0  0  0  0
 33 32  2  0  0  0  0
M  END
>  <MODEL>
2

>  <REMARK>
 VINA RESULT:      -9.1      7.480      9.536
  Name = 
  6 active torsions:
  status: ('A' for Active; 'I' for Inactive)
    1  A    between atoms: C_3  and  N_25
    2  A    between atoms: C_7  and  C_11
    3  A    between atoms: C_8  and  C_17
    4  A    between atoms: C_8  and  N_18
    5  A    between atoms: C_10  and  C_17
    6  A    between atoms: N_25  and  C_27
                            x       y       z     vdW  Elec       q    Type
                         _______ _______ _______ _____ _____    ______ ____

>  <TORSDO>
F 6

$$$$
=
 OpenBabel10262423133D

 34 38  0  0  1  0  0  0  0  0999 V2000
  183.5310  179.3040  140.2560 C   0  0  0  0  0  0  0  0  0  0  0  0
  180.0680  178.6360  138.9080 C   0  0  0  0  0  3  0  0  0  0  0  0
  180.9440  178.1810  141.1600 C   0  0  0  0  0  2  0  0  0  0  0  0
  184.6830  179.6260  139.9090 O   0  0  0  0  0  0  0  0  0  0  0  0
  184.1450  179.1970  142.7440 C   0  0  2  0  0  3  0  0  0  0  0  0
  183.1890  179.1490  143.9450 C   0  0  0  0  0  2  0  0  0  0  0  0
  181.8270  179.0390  142.0290 C   0  0  2  0  0  3  0  0  0  0  0  0
  183.2050  178.9530  141.6220 N   0  0  0  0  0  0  0  0  0  0  0  0
  181.8550  178.5470  143.4510 C   0  0  0  0  0  2  0  0  0  0  0  0
  180.2390  179.0610  137.5110 C   0  0  0  0  0  2  0  0  0  0  0  0
  181.0810  180.3980  137.4360 C   0  0  2  0  0  3  0  0  0  0  0  0
  181.0890  178.7070  139.7650 C   0  0  0  0  0  0  0  0  0  0  0  0
  182.2790  180.4840  138.4060 C   0  0  0  0  0  2  0  0  0  0  0  0
  182.4280  179.2280  139.2510 C   0  0  1  0  0  3  0  0  0  0  0  0
  185.1320  178.0310  142.7900 C   0  0  0  0  0  2  0  0  0  0  0  0
  185.6260  177.8080  144.1950 C   0  0  0  0  0  2  0  0  0  0  0  0
  187.2650  177.9720  146.6240 O   0  0  0  0  0  0  0  0  0  0  0  0
  189.1350  177.2690  143.0250 C   0  0  0  0  0  3  0  0  0  0  0  0
  191.4930  176.8110  146.4830 C   0  0  2  0  0  3  0  0  0  0  0  0
  189.9650  177.0120  146.6680 C   0  0  0  0  0  2  0  0  0  0  0  0
  189.3570  177.7010  145.4690 C   0  0  1  0  0  3  0  0  0  0  0  0
  187.1590  177.8340  144.2730 N   0  0  0  0  0  0  0  0  0  0  0  0
  191.2900  176.6940  144.0030 C   0  0  0  0  0  2  0  0  0  0  0  0
  189.8450  177.1490  144.1250 C   0  0  0  0  0  0  0  0  0  0  0  0
  191.7220  175.9660  145.2290 C   0  0  0  0  0  2  0  0  0  0  0  0
  187.8260  177.9560  142.9940 C   0  0  0  0  0  2  0  0  0  0  0  0
  187.8360  177.8300  145.4930 C   0  0  0  0  0  0  0  0  0  0  0  0
  192.0260  176.0780  147.6550 C   0  0  0  0  0  0  0  0  0  0  0  0
  191.7670  174.8900  147.8510 O   0  0  0  0  0  0  0  0  0  0  0  0
  192.8430  176.7840  148.5580 O   0  0  0  0  0  1  0  0  0  0  0  0
  180.2990  181.5720  137.5780 N   0  0  0  0  0  2  0  0  0  0  0  0
  180.4560  182.7200  136.7880 C   0  0  0  0  0  0  0  0  0  0  0  0
  181.2400  184.1120  137.2830 S   0  0  0  0  0  0  0  0  0  0  0  0
  179.9730  182.6560  135.3740 C   0  0  0  0  0  1  0  0  0  0  0  0
  1  8  1  0  0  0  0
  2 12  2  0  0  0  0
  4  1  2  0  0  0  0
  5 15  1  1  0  0  0
  5  6  1  0  0  0  0
  7  3  1  6  0  0  0
  7  9  1  0  0  0  0
  8  7  1  0  0  0  0
  8  5  1  0  0  0  0
  9  6  1  0  0  0  0
 10  2  1  0  0  0  0
 11 10  1  0  0  0  0
 11 31  1  1  0  0  0
 11 13  1  0  0  0  0
 12  3  1  0  0  0  0
 14 13  1  1  0  0  0
 14 12  1  0  0  0  0
 14  1  1  0  0  0  0
 15 16  1  0  0  0  0
 16 22  1  0  0  0  0
 18 24  2  0  0  0  0
 19 20  1  0  0  0  0
 19 28  1  1  0  0  0
 21 27  1  0  0  0  0
 21 20  1  1  0  0  0
 22 27  1  0  0  0  0
 23 24  1  0  0  0  0
 23 25  1  0  0  0  0
 24 21  1  0  0  0  0
 25 19  1  0  0  0  0
 26 18  1  0  0  0  0
 26 22  1  0  0  0  0
 27 17  2  0  0  0  0
 28 29  2  0  0  0  0
 28 30  1  0  0  0  0
 32 33  2  0  0  0  0
 32 31  1  0  0  0  0
 34 32  1  0  0  0  0
M  END
>  <MODEL>
3

>  <REMARK>
 VINA RESULT:      -9.0      1.520      2.326
  Name = 
  6 active torsions:
  status: ('A' for Active; 'I' for Inactive)
    1  A    between atoms: C_3  and  N_25
    2  A    between atoms: C_7  and  C_11
    3  A    between atoms: C_8  and  C_17
    4  A    between atoms: C_8  and  N_18
    5  A    between atoms: C_10  and  C_17
    6  A    between atoms: N_25  and  C_27
                            x       y       z     vdW  Elec       q    Type
                         _______ _______ _______ _____ _____    ______ ____

>  <TORSDO>
F 6

$$$$
=
 OpenBabel10262423133D

 34 38  0  0  1  0  0  0  0  0999 V2000
  181.3560  178.6420  140.9520 C   0  0  0  0  0  0  0  0  0  0  0  0
  180.9780  180.4670  137.6690 C   0  0  0  0  0  3  0  0  0  0  0  0
  183.0150  180.1370  139.0060 C   0  0  0  0  0  2  0  0  0  0  0  0
  180.7040  178.1310  141.8810 O   0  0  0  0  0  0  0  0  0  0  0  0
  183.6160  177.9970  141.9800 C   0  0  2  0  0  3  0  0  0  0  0  0
  184.9920  177.9990  141.2970 C   0  0  0  0  0  2  0  0  0  0  0  0
  183.4890  178.9020  139.7270 C   0  0  2  0  0  3  0  0  0  0  0  0
  182.8020  178.7300  140.9800 N   0  0  0  0  0  0  0  0  0  0  0  0
  184.9330  179.0190  140.1390 C   0  0  0  0  0  2  0  0  0  0  0  0
  179.5250  180.3570  137.4680 C   0  0  0  0  0  2  0  0  0  0  0  0
  179.0210  178.9070  137.8500 C   0  0  2  0  0  3  0  0  0  0  0  0
  181.5520  179.9380  138.7520 C   0  0  0  0  0  0  0  0  0  0  0  0
  179.6600  178.2930  139.1130 C   0  0  0  0  0  2  0  0  0  0  0  0
  180.6610  179.2320  139.7690 C   0  0  1  0  0  3  0  0  0  0  0  0
  183.6450  178.8290  143.2610 C   0  0  0  0  0  2  0  0  0  0  0  0
  185.0300  179.3600  143.5180 C   0  0  0  0  0  2  0  0  0  0  0  0
  187.3990  177.6310  143.3950 O   0  0  0  0  0  0  0  0  0  0  0  0
  185.9230  178.6980  147.0870 C   0  0  0  0  0  3  0  0  0  0  0  0
  189.6790  176.7960  147.0500 C   0  0  2  0  0  3  0  0  0  0  0  0
  189.0710  177.2290  145.6890 C   0  0  0  0  0  2  0  0  0  0  0  0
  187.5700  177.3610  145.7800 C   0  0  1  0  0  3  0  0  0  0  0  0
  185.7100  178.6420  144.6930 N   0  0  0  0  0  0  0  0  0  0  0  0
  187.8440  177.8790  148.3400 C   0  0  0  0  0  2  0  0  0  0  0  0
  187.0870  178.0890  147.0390 C   0  0  0  0  0  0  0  0  0  0  0  0
  189.3140  177.8460  148.0990 C   0  0  0  0  0  2  0  0  0  0  0  0
  184.9850  178.7150  145.9440 C   0  0  0  0  0  2  0  0  0  0  0  0
  186.8850  177.9090  144.5300 C   0  0  0  0  0  0  0  0  0  0  0  0
  191.1550  176.7430  146.9210 C   0  0  0  0  0  0  0  0  0  0  0  0
  191.7030  176.3800  145.8810 O   0  0  0  0  0  0  0  0  0  0  0  0
  191.9270  177.1180  148.0370 O   0  0  0  0  0  1  0  0  0  0  0  0
  179.1230  177.9710  136.7910 N   0  0  0  0  0  2  0  0  0  0  0  0
  179.9970  176.8740  136.7930 C   0  0  0  0  0  0  0  0  0  0  0  0
  179.5520  175.3080  137.1730 S   0  0  0  0  0  0  0  0  0  0  0  0
  181.3990  177.1090  136.3270 C   0  0  0  0  0  1  0  0  0  0  0  0
  1  8  1  0  0  0  0
  1  4  2  0  0  0  0
  2 12  2  0  0  0  0
  5 15  1  1  0  0  0
  6  5  1  0  0  0  0
  7  3  1  1  0  0  0
  7  9  1  0  0  0  0
  7  8  1  0  0  0  0
  8  5  1  0  0  0  0
  9  6  1  0  0  0  0
 10  2  1  0  0  0  0
 10 11  1  0  0  0  0
 11 31  1  6  0  0  0
 11 13  1  0  0  0  0
 12  3  1  0  0  0  0
 12 14  1  0  0  0  0
 14 13  1  6  0  0  0
 14  1  1  0  0  0  0
 15 16  1  0  0  0  0
 16 22  1  0  0  0  0
 17 27  2  0  0  0  0
 19 28  1  6  0  0  0
 19 25  1  0  0  0  0
 20 19  1  0  0  0  0
 21 20  1  6  0  0  0
 21 24  1  0  0  0  0
 22 26  1  0  0  0  0
 24 18  2  0  0  0  0
 24 23  1  0  0  0  0
 25 23  1  0  0  0  0
 26 18  1  0  0  0  0
 27 22  1  0  0  0  0
 27 21  1  0  0  0  0
 28 30  1  0  0  0  0
 29 28  2  0  0  0  0
 31 32  1  0  0  0  0
 32 33  2  0  0  0  0
 34 32  1  0  0  0  0
M  END
>  <MODEL>
4

>  <REMARK>
 VINA RESULT:      -8.8      1.930      2.759
  Name = 
  6 active torsions:
  status: ('A' for Active; 'I' for Inactive)
    1  A    between atoms: C_3  and  N_25
    2  A    between atoms: C_7  and  C_11
    3  A    between atoms: C_8  and  C_17
    4  A    between atoms: C_8  and  N_18
    5  A    between atoms: C_10  and  C_17
    6  A    between atoms: N_25  and  C_27
                            x       y       z     vdW  Elec       q    Type
                         _______ _______ _______ _____ _____    ______ ____

>  <TORSDO>
F 6

$$$$
=
 OpenBabel10262423133D

 34 38  0  0  1  0  0  0  0  0999 V2000
  182.0100  178.6000  140.6900 C   0  0  0  0  0  0  0  0  0  0  0  0
  179.6250  176.6140  138.5400 C   0  0  0  0  0  3  0  0  0  0  0  0
  179.4680  177.1000  140.9450 C   0  0  0  0  0  2  0  0  0  0  0  0
  183.1400  179.1210  140.6910 O   0  0  0  0  0  0  0  0  0  0  0  0
  181.4690  179.3980  143.0670 C   0  0  2  0  0  3  0  0  0  0  0  0
  180.0980  179.4310  143.7570 C   0  0  0  0  0  2  0  0  0  0  0  0
  179.7510  178.3870  141.6760 C   0  0  2  0  0  3  0  0  0  0  0  0
  181.1640  178.5820  141.8650 N   0  0  0  0  0  0  0  0  0  0  0  0
  179.2150  178.3570  143.0820 C   0  0  0  0  0  2  0  0  0  0  0  0
  180.3360  176.6460  137.2530 C   0  0  0  0  0  2  0  0  0  0  0  0
  180.9330  178.0850  136.9850 C   0  0  2  0  0  3  0  0  0  0  0  0
  180.1420  177.2180  139.6120 C   0  0  0  0  0  0  0  0  0  0  0  0
  181.5550  178.7860  138.2120 C   0  0  0  0  0  2  0  0  0  0  0  0
  181.4850  177.9260  139.4640 C   0  0  1  0  0  3  0  0  0  0  0  0
  182.4830  178.6260  143.9120 C   0  0  0  0  0  2  0  0  0  0  0  0
  183.6640  179.4970  144.2520 C   0  0  0  0  0  2  0  0  0  0  0  0
  185.5690  177.9130  142.6780 O   0  0  0  0  0  0  0  0  0  0  0  0
  186.2920  178.4510  146.6950 C   0  0  0  0  0  3  0  0  0  0  0  0
  189.4160  176.7530  144.4390 C   0  0  2  0  0  3  0  0  0  0  0  0
  188.1910  177.3180  143.6720 C   0  0  0  0  0  2  0  0  0  0  0  0
  186.9680  177.3640  144.5560 C   0  0  1  0  0  3  0  0  0  0  0  0
  184.8440  178.6760  144.7880 N   0  0  0  0  0  0  0  0  0  0  0  0
  188.5650  177.5800  146.6290 C   0  0  0  0  0  2  0  0  0  0  0  0
  187.2410  177.9090  145.9630 C   0  0  0  0  0  0  0  0  0  0  0  0
  189.6850  177.6490  145.6490 C   0  0  0  0  0  2  0  0  0  0  0  0
  184.8930  178.5600  146.2300 C   0  0  0  0  0  2  0  0  0  0  0  0
  185.7390  178.0250  143.9370 C   0  0  0  0  0  0  0  0  0  0  0  0
  190.5990  176.7880  143.5480 C   0  0  0  0  0  0  0  0  0  0  0  0
  190.5620  176.3390  142.4020 O   0  0  0  0  0  0  0  0  0  0  0  0
  191.7880  177.3500  144.0510 O   0  0  0  0  0  1  0  0  0  0  0  0
  180.0180  178.9770  136.3710 N   0  0  0  0  0  2  0  0  0  0  0  0
  180.3650  180.2420  135.8760 C   0  0  0  0  0  0  0  0  0  0  0  0
  180.0650  181.6850  136.6660 S   0  0  0  0  0  0  0  0  0  0  0  0
  181.1440  180.2930  134.6000 C   0  0  0  0  0  1  0  0  0  0  0  0
  1  4  2  0  0  0  0
  1  8  1  0  0  0  0
  2 12  2  0  0  0  0
  5  6  1  0  0  0  0
  5 15  1  1  0  0  0
  7  3  1  1  0  0  0
  7  8  1  0  0  0  0
  7  9  1  0  0  0  0
  8  5  1  0  0  0  0
  9  6  1  0  0  0  0
 10  2  1  0  0  0  0
 11 31  1  1  0  0  0
 11 10  1  0  0  0  0
 11 13  1  0  0  0  0
 12  3  1  0  0  0  0
 14 13  1  6  0  0  0
 14 12  1  0  0  0  0
 14  1  1  0  0  0  0
 15 16  1  0  0  0  0
 16 22  1  0  0  0  0
 17 27  2  0  0  0  0
 19 28  1  6  0  0  0
 19 25  1  0  0  0  0
 20 19  1  0  0  0  0
 21 20  1  6  0  0  0
 21 24  1  0  0  0  0
 22 26  1  0  0  0  0
 24 23  1  0  0  0  0
 24 18  2  0  0  0  0
 25 23  1  0  0  0  0
 26 18  1  0  0  0  0
 27 21  1  0  0  0  0
 27 22  1  0  0  0  0
 28 30  1  0  0  0  0
 29 28  2  0  0  0  0
 32 31  1  0  0  0  0
 32 33  2  0  0  0  0
 34 32  1  0  0  0  0
M  END
>  <MODEL>
5

>  <REMARK>
 VINA RESULT:      -8.3      1.397      1.738
  Name = 
  6 active torsions:
  status: ('A' for Active; 'I' for Inactive)
    1  A    between atoms: C_3  and  N_25
    2  A    between atoms: C_7  and  C_11
    3  A    between atoms: C_8  and  C_17
    4  A    between atoms: C_8  and  N_18
    5  A    between atoms: C_10  and  C_17
    6  A    between atoms: N_25  and  C_27
                            x       y       z     vdW  Elec       q    Type
                         _______ _______ _______ _____ _____    ______ ____

>  <TORSDO>
F 6

$$$$
=
 OpenBabel10262423133D

 34 38  0  0  1  0  0  0  0  0999 V2000
  182.0200  176.8280  139.6370 C   0  0  0  0  0  0  0  0  0  0  0  0
  180.0590  178.2550  136.7430 C   0  0  0  0  0  3  0  0  0  0  0  0
  181.7670  179.3620  138.1220 C   0  0  0  0  0  2  0  0  0  0  0  0
  182.0780  175.8510  140.4070 O   0  0  0  0  0  0  0  0  0  0  0  0
  184.0790  177.9590  140.6680 C   0  0  2  0  0  3  0  0  0  0  0  0
  184.8990  179.1220  140.0890 C   0  0  0  0  0  2  0  0  0  0  0  0
  183.0810  178.8210  138.6250 C   0  0  2  0  0  3  0  0  0  0  0  0
  182.8940  177.9750  139.7750 N   0  0  0  0  0  0  0  0  0  0  0  0
  183.9710  179.9180  139.1450 C   0  0  0  0  0  2  0  0  0  0  0  0
  179.1800  177.1180  136.4310 C   0  0  0  0  0  2  0  0  0  0  0  0
  179.9850  175.7590  136.4960 C   0  0  2  0  0  3  0  0  0  0  0  0
  180.9420  178.1700  137.7400 C   0  0  0  0  0  0  0  0  0  0  0  0
  180.9930  175.6390  137.6580 C   0  0  0  0  0  2  0  0  0  0  0  0
  181.0020  176.8750  138.5440 C   0  0  1  0  0  3  0  0  0  0  0  0
  183.6020  178.2830  142.0840 C   0  0  0  0  0  2  0  0  0  0  0  0
  184.5600  179.2250  142.7640 C   0  0  0  0  0  2  0  0  0  0  0  0
  187.0410  177.6650  142.5970 O   0  0  0  0  0  0  0  0  0  0  0  0
  185.5410  178.5980  146.3150 C   0  0  0  0  0  3  0  0  0  0  0  0
  189.4200  176.9620  146.2160 C   0  0  2  0  0  3  0  0  0  0  0  0
  188.7660  177.3620  144.8660 C   0  0  0  0  0  2  0  0  0  0  0  0
  187.2600  177.3890  144.9770 C   0  0  1  0  0  3  0  0  0  0  0  0
  185.3020  178.5460  143.9240 N   0  0  0  0  0  0  0  0  0  0  0  0
  187.5300  177.9040  147.5370 C   0  0  0  0  0  2  0  0  0  0  0  0
  186.7450  178.0720  146.2480 C   0  0  0  0  0  0  0  0  0  0  0  0
  188.9960  177.9760  147.2790 C   0  0  0  0  0  2  0  0  0  0  0  0
  184.5910  178.5580  145.1840 C   0  0  0  0  0  2  0  0  0  0  0  0
  186.5240  177.8970  143.7400 C   0  0  0  0  0  0  0  0  0  0  0  0
  190.8940  177.0130  146.0690 C   0  0  0  0  0  0  0  0  0  0  0  0
  191.4320  177.1590  144.9720 O   0  0  0  0  0  0  0  0  0  0  0  0
  191.6770  176.8810  147.2320 O   0  0  0  0  0  1  0  0  0  0  0  0
  180.6480  175.4310  135.2870 N   0  0  0  0  0  2  0  0  0  0  0  0
  182.0410  175.3550  135.1500 C   0  0  0  0  0  0  0  0  0  0  0  0
  182.9220  173.9330  135.1860 S   0  0  0  0  0  0  0  0  0  0  0  0
  182.7750  176.6240  134.8540 C   0  0  0  0  0  1  0  0  0  0  0  0
  1  8  1  0  0  0  0
  1  4  2  0  0  0  0
  2 12  2  0  0  0  0
  5 15  1  1  0  0  0
  6  5  1  0  0  0  0
  7  3  1  1  0  0  0
  7  9  1  0  0  0  0
  7  8  1  0  0  0  0
  8  5  1  0  0  0  0
  9  6  1  0  0  0  0
 10 11  1  0  0  0  0
 10  2  1  0  0  0  0
 11 31  1  6  0  0  0
 11 13  1  0  0  0  0
 12  3  1  0  0  0  0
 12 14  1  0  0  0  0
 14 13  1  6  0  0  0
 14  1  1  0  0  0  0
 15 16  1  0  0  0  0
 16 22  1  0  0  0  0
 17 27  2  0  0  0  0
 19 28  1  6  0  0  0
 19 25  1  0  0  0  0
 20 19  1  0  0  0  0
 21 20  1  6  0  0  0
 21 24  1  0  0  0  0
 22 26  1  0  0  0  0
 24 18  2  0  0  0  0
 24 23  1  0  0  0  0
 25 23  1  0  0  0  0
 26 18  1  0  0  0  0
 27 22  1  0  0  0  0
 27 21  1  0  0  0  0
 28 30  1  0  0  0  0
 29 28  2  0  0  0  0
 32 33  2  0  0  0  0
 32 31  1  0  0  0  0
 34 32  1  0  0  0  0
M  END
>  <MODEL>
6

>  <REMARK>
 VINA RESULT:      -8.0      2.588      3.323
  Name = 
  6 active torsions:
  status: ('A' for Active; 'I' for Inactive)
    1  A    between atoms: C_3  and  N_25
    2  A    between atoms: C_7  and  C_11
    3  A    between atoms: C_8  and  C_17
    4  A    between atoms: C_8  and  N_18
    5  A    between atoms: C_10  and  C_17
    6  A    between atoms: N_25  and  C_27
                            x       y       z     vdW  Elec       q    Type
                         _______ _______ _______ _____ _____    ______ ____

>  <TORSDO>
F 6

$$$$
=
 OpenBabel10262423133D

 34 38  0  0  1  0  0  0  0  0999 V2000
  190.6320  176.4220  137.3330 C   0  0  0  0  0  0  0  0  0  0  0  0
  192.6610  173.5580  135.9400 C   0  0  0  0  0  3  0  0  0  0  0  0
  190.2550  173.9940  135.6770 C   0  0  0  0  0  2  0  0  0  0  0  0
  190.6830  177.3720  138.1350 O   0  0  0  0  0  0  0  0  0  0  0  0
  188.2400  176.9760  136.5900 C   0  0  2  0  0  3  0  0  0  0  0  0
  187.4920  176.4430  135.3590 C   0  0  0  0  0  2  0  0  0  0  0  0
  189.5480  175.2980  135.4140 C   0  0  2  0  0  3  0  0  0  0  0  0
  189.4210  176.0780  136.6170 N   0  0  0  0  0  0  0  0  0  0  0  0
  188.1200  175.0800  134.9900 C   0  0  0  0  0  2  0  0  0  0  0  0
  193.9770  173.8560  136.5240 C   0  0  0  0  0  2  0  0  0  0  0  0
  194.2830  175.4050  136.4450 C   0  0  2  0  0  3  0  0  0  0  0  0
  191.6170  174.3520  136.1900 C   0  0  0  0  0  0  0  0  0  0  0  0
  193.0900  176.3340  136.7550 C   0  0  0  0  0  2  0  0  0  0  0  0
  191.8290  175.5570  137.1000 C   0  0  1  0  0  3  0  0  0  0  0  0
  187.4330  176.7280  137.8640 C   0  0  0  0  0  2  0  0  0  0  0  0
  186.7880  178.0020  138.3410 C   0  0  0  0  0  2  0  0  0  0  0  0
  185.0120  179.3760  140.2310 O   0  0  0  0  0  0  0  0  0  0  0  0
  188.3490  177.4610  141.6930 C   0  0  0  0  0  3  0  0  0  0  0  0
  185.5550  178.7990  144.5460 C   0  0  2  0  0  3  0  0  0  0  0  0
  185.1530  178.8670  143.0490 C   0  0  0  0  0  2  0  0  0  0  0  0
  186.3730  178.9060  142.1580 C   0  0  1  0  0  3  0  0  0  0  0  0
  187.0440  178.2480  139.8340 N   0  0  0  0  0  0  0  0  0  0  0  0
  187.6910  177.6240  144.0330 C   0  0  0  0  0  2  0  0  0  0  0  0
  187.4620  177.9050  142.5570 C   0  0  0  0  0  0  0  0  0  0  0  0
  186.3960  177.5400  144.7640 C   0  0  0  0  0  2  0  0  0  0  0  0
  188.3760  177.9020  140.2830 C   0  0  0  0  0  2  0  0  0  0  0  0
  186.0880  178.8430  140.6590 C   0  0  0  0  0  0  0  0  0  0  0  0
  184.3270  178.7000  145.3690 C   0  0  0  0  0  0  0  0  0  0  0  0
  184.3720  178.6260  146.5970 O   0  0  0  0  0  1  0  0  0  0  0  0
  183.0870  178.6860  144.7030 O   0  0  0  0  0  0  0  0  0  0  0  0
  194.8640  175.8100  135.2170 N   0  0  0  0  0  2  0  0  0  0  0  0
  196.1190  176.4260  135.1070 C   0  0  0  0  0  0  0  0  0  0  0  0
  197.5820  175.6310  135.2510 S   0  0  0  0  0  0  0  0  0  0  0  0
  196.1440  177.8750  134.7370 C   0  0  0  0  0  1  0  0  0  0  0  0
  1  4  2  0  0  0  0
  2 12  2  0  0  0  0
  2 10  1  0  0  0  0
  3 12  1  0  0  0  0
  5  8  1  0  0  0  0
  5 15  1  1  0  0  0
  6  5  1  0  0  0  0
  7  9  1  1  0  0  0
  7  3  1  0  0  0  0
  7  8  1  0  0  0  0
  8  1  1  0  0  0  0
  9  6  1  0  0  0  0
 11 31  1  6  0  0  0
 11 10  1  0  0  0  0
 11 13  1  0  0  0  0
 12 14  1  0  0  0  0
 14 13  1  6  0  0  0
 14  1  1  0  0  0  0
 15 16  1  0  0  0  0
 16 22  1  0  0  0  0
 17 27  2  0  0  0  0
 18 24  2  0  0  0  0
 19 25  1  0  0  0  0
 19 28  1  1  0  0  0
 20 19  1  0  0  0  0
 21 24  1  0  0  0  0
 21 20  1  1  0  0  0
 22 26  1  0  0  0  0
 22 27  1  0  0  0  0
 23 25  1  0  0  0  0
 24 23  1  0  0  0  0
 26 18  1  0  0  0  0
 27 21  1  0  0  0  0
 28 29  1  0  0  0  0
 30 28  2  0  0  0  0
 32 31  1  0  0  0  0
 32 33  2  0  0  0  0
 34 32  1  0  0  0  0
M  END
>  <MODEL>
7

>  <REMARK>
 VINA RESULT:      -7.8      8.126     10.099
  Name = 
  6 active torsions:
  status: ('A' for Active; 'I' for Inactive)
    1  A    between atoms: C_3  and  N_25
    2  A    between atoms: C_7  and  C_11
    3  A    between atoms: C_8  and  C_17
    4  A    between atoms: C_8  and  N_18
    5  A    between atoms: C_10  and  C_17
    6  A    between atoms: N_25  and  C_27
                            x       y       z     vdW  Elec       q    Type
                         _______ _______ _______ _____ _____    ______ ____

>  <TORSDO>
F 6

$$$$
=
 OpenBabel10262423133D

 34 38  0  0  1  0  0  0  0  0999 V2000
  190.6290  175.1000  137.3360 C   0  0  0  0  0  0  0  0  0  0  0  0
  193.9200  174.8080  135.5100 C   0  0  0  0  0  3  0  0  0  0  0  0
  193.2670  176.4430  137.2250 C   0  0  0  0  0  2  0  0  0  0  0  0
  189.4560  174.6820  137.3340 O   0  0  0  0  0  0  0  0  0  0  0  0
  190.2680  176.5640  139.4110 C   0  0  2  0  0  3  0  0  0  0  0  0
  191.3390  177.2240  140.2920 C   0  0  0  0  0  2  0  0  0  0  0  0
  192.4970  176.2270  138.5020 C   0  0  2  0  0  3  0  0  0  0  0  0
  191.0830  176.1260  138.2510 N   0  0  0  0  0  0  0  0  0  0  0  0
  192.6010  177.4140  139.4220 C   0  0  0  0  0  2  0  0  0  0  0  0
  193.6190  173.6970  134.5940 C   0  0  0  0  0  2  0  0  0  0  0  0
  192.8070  172.5650  135.3420 C   0  0  2  0  0  3  0  0  0  0  0  0
  192.9930  175.2490  136.3630 C   0  0  0  0  0  0  0  0  0  0  0  0
  191.7160  173.0620  136.3140 C   0  0  0  0  0  2  0  0  0  0  0  0
  191.6230  174.5800  136.3490 C   0  0  1  0  0  3  0  0  0  0  0  0
  189.2620  177.6020  138.9110 C   0  0  0  0  0  2  0  0  0  0  0  0
  189.0670  178.6880  139.9350 C   0  0  0  0  0  2  0  0  0  0  0  0
  189.2520  177.7110  142.6970 O   0  0  0  0  0  0  0  0  0  0  0  0
  185.5700  178.8450  141.2460 C   0  0  0  0  0  3  0  0  0  0  0  0
  185.8090  178.1140  145.3860 C   0  0  2  0  0  3  0  0  0  0  0  0
  187.1330  178.1480  144.5780 C   0  0  0  0  0  2  0  0  0  0  0  0
  186.8880  177.8560  143.1160 C   0  0  1  0  0  3  0  0  0  0  0  0
  187.9000  178.3760  140.8830 N   0  0  0  0  0  0  0  0  0  0  0  0
  184.4560  178.8040  143.4120 C   0  0  0  0  0  2  0  0  0  0  0  0
  185.6770  178.5940  142.5330 C   0  0  0  0  0  0  0  0  0  0  0  0
  184.8570  179.1590  144.8020 C   0  0  0  0  0  2  0  0  0  0  0  0
  186.5920  178.4230  140.2650 C   0  0  0  0  0  2  0  0  0  0  0  0
  188.1080  177.9940  142.2090 C   0  0  0  0  0  0  0  0  0  0  0  0
  186.0980  178.4670  146.7960 C   0  0  0  0  0  0  0  0  0  0  0  0
  185.6340  179.4800  147.3190 O   0  0  0  0  0  0  0  0  0  0  0  0
  186.9330  177.6070  147.5330 O   0  0  0  0  0  1  0  0  0  0  0  0
  193.6270  171.6300  136.0220 N   0  0  0  0  0  2  0  0  0  0  0  0
  195.0240  171.5830  135.9100 C   0  0  0  0  0  0  0  0  0  0  0  0
  196.0880  172.1990  137.0440 S   0  0  0  0  0  0  0  0  0  0  0  0
  195.5980  170.8440  134.7430 C   0  0  0  0  0  1  0  0  0  0  0  0
  1  8  1  0  0  0  0
  2 12  2  0  0  0  0
  4  1  2  0  0  0  0
  5 15  1  6  0  0  0
  5  6  1  0  0  0  0
  7  3  1  6  0  0  0
  7  9  1  0  0  0  0
  8  7  1  0  0  0  0
  8  5  1  0  0  0  0
  9  6  1  0  0  0  0
 10 11  1  0  0  0  0
 10  2  1  0  0  0  0
 11 31  1  1  0  0  0
 11 13  1  0  0  0  0
 12  3  1  0  0  0  0
 14 13  1  1  0  0  0
 14 12  1  0  0  0  0
 14  1  1  0  0  0  0
 15 16  1  0  0  0  0
 16 22  1  0  0  0  0
 18 24  2  0  0  0  0
 19 28  1  1  0  0  0
 20 19  1  0  0  0  0
 21 20  1  1  0  0  0
 22 27  1  0  0  0  0
 23 25  1  0  0  0  0
 24 21  1  0  0  0  0
 24 23  1  0  0  0  0
 25 19  1  0  0  0  0
 26 22  1  0  0  0  0
 26 18  1  0  0  0  0
 27 17  2  0  0  0  0
 27 21  1  0  0  0  0
 28 29  2  0  0  0  0
 28 30  1  0  0  0  0
 32 31  1  0  0  0  0
 32 33  2  0  0  0  0
 34 32  1  0  0  0  0
M  END
>  <MODEL>
8

>  <REMARK>
 VINA RESULT:      -7.4      8.277     10.394
  Name = 
  6 active torsions:
  status: ('A' for Active; 'I' for Inactive)
    1  A    between atoms: C_3  and  N_25
    2  A    between atoms: C_7  and  C_11
    3  A    between atoms: C_8  and  C_17
    4  A    between atoms: C_8  and  N_18
    5  A    between atoms: C_10  and  C_17
    6  A    between atoms: N_25  and  C_27
                            x       y       z     vdW  Elec       q    Type
                         _______ _______ _______ _____ _____    ______ ____

>  <TORSDO>
F 6

$$$$
=
 OpenBabel10262423133D

 34 38  0  0  1  0  0  0  0  0999 V2000
  181.6520  177.0590  138.5020 C   0  0  0  0  0  0  0  0  0  0  0  0
  180.4280  176.7940  134.9400 C   0  0  0  0  0  3  0  0  0  0  0  0
  182.6000  177.6120  135.7500 C   0  0  0  0  0  2  0  0  0  0  0  0
  181.2740  176.9900  139.6860 O   0  0  0  0  0  0  0  0  0  0  0  0
  184.0960  177.4970  139.1460 C   0  0  2  0  0  3  0  0  0  0  0  0
  185.3350  177.4120  138.2430 C   0  0  0  0  0  2  0  0  0  0  0  0
  183.4820  177.0530  136.8370 C   0  0  2  0  0  3  0  0  0  0  0  0
  183.0060  177.4280  138.1420 N   0  0  0  0  0  0  0  0  0  0  0  0
  184.8650  177.6460  136.7900 C   0  0  0  0  0  2  0  0  0  0  0  0
  179.0560  176.3150  135.1650 C   0  0  0  0  0  2  0  0  0  0  0  0
  179.0320  175.2100  136.2960 C   0  0  2  0  0  3  0  0  0  0  0  0
  181.2380  177.0290  135.9740 C   0  0  0  0  0  0  0  0  0  0  0  0
  179.9480  175.4810  137.5090 C   0  0  0  0  0  2  0  0  0  0  0  0
  180.6980  176.7980  137.3820 C   0  0  1  0  0  3  0  0  0  0  0  0
  184.0170  178.8620  139.8300 C   0  0  0  0  0  2  0  0  0  0  0  0
  185.2650  179.1300  140.6290 C   0  0  0  0  0  2  0  0  0  0  0  0
  187.3280  177.8070  142.2450 O   0  0  0  0  0  0  0  0  0  0  0  0
  183.8250  178.9630  144.0740 C   0  0  0  0  0  3  0  0  0  0  0  0
  186.9400  177.7050  146.6140 C   0  0  2  0  0  3  0  0  0  0  0  0
  187.2650  177.9030  145.1090 C   0  0  0  0  0  2  0  0  0  0  0  0
  186.0190  177.7950  144.2630 C   0  0  1  0  0  3  0  0  0  0  0  0
  185.1300  178.6470  142.0790 N   0  0  0  0  0  0  0  0  0  0  0  0
  184.6270  178.5900  146.3430 C   0  0  0  0  0  2  0  0  0  0  0  0
  184.8140  178.5500  144.8360 C   0  0  0  0  0  0  0  0  0  0  0  0
  185.9330  178.7760  147.0360 C   0  0  0  0  0  2  0  0  0  0  0  0
  183.7880  178.7170  142.6170 C   0  0  0  0  0  2  0  0  0  0  0  0
  186.2080  178.1030  142.7800 C   0  0  0  0  0  0  0  0  0  0  0  0
  188.1820  177.8830  147.4010 C   0  0  0  0  0  0  0  0  0  0  0  0
  189.2940  177.8660  146.8720 O   0  0  0  0  0  0  0  0  0  0  0  0
  188.0610  178.0670  148.7920 O   0  0  0  0  0  1  0  0  0  0  0  0
  179.2890  173.9000  135.8190 N   0  0  0  0  0  2  0  0  0  0  0  0
  180.3990  173.1310  136.1960 C   0  0  0  0  0  0  0  0  0  0  0  0
  180.3720  171.9340  137.3640 S   0  0  0  0  0  0  0  0  0  0  0  0
  181.6680  173.3290  135.4290 C   0  0  0  0  0  1  0  0  0  0  0  0
  1  4  2  0  0  0  0
  2 10  1  0  0  0  0
  2 12  2  0  0  0  0
  3 12  1  0  0  0  0
  5 15  1  6  0  0  0
  6  5  1  0  0  0  0
  7  3  1  6  0  0  0
  7  8  1  0  0  0  0
  8  1  1  0  0  0  0
  8  5  1  0  0  0  0
  9  7  1  0  0  0  0
  9  6  1  0  0  0  0
 10 11  1  0  0  0  0
 11 31  1  6  0  0  0
 11 13  1  0  0  0  0
 12 14  1  0  0  0  0
 14 13  1  6  0  0  0
 14  1  1  0  0  0  0
 15 16  1  0  0  0  0
 16 22  1  0  0  0  0
 17 27  2  0  0  0  0
 18 24  2  0  0  0  0
 19 25  1  0  0  0  0
 19 28  1  1  0  0  0
 20 19  1  0  0  0  0
 21 24  1  0  0  0  0
 21 20  1  1  0  0  0
 22 26  1  0  0  0  0
 22 27  1  0  0  0  0
 23 25  1  0  0  0  0
 24 23  1  0  0  0  0
 26 18  1  0  0  0  0
 27 21  1  0  0  0  0
 28 30  1  0  0  0  0
 29 28  2  0  0  0  0
 31 32  1  0  0  0  0
 32 33  2  0  0  0  0
 34 32  1  0  0  0  0
M  END
>  <MODEL>
9

>  <REMARK>
 VINA RESULT:      -7.3      3.347      4.810
  Name = 
  6 active torsions:
  status: ('A' for Active; 'I' for Inactive)
    1  A    between atoms: C_3  and  N_25
    2  A    between atoms: C_7  and  C_11
    3  A    between atoms: C_8  and  C_17
    4  A    between atoms: C_8  and  N_18
    5  A    between atoms: C_10  and  C_17
    6  A    between atoms: N_25  and  C_27
                            x       y       z     vdW  Elec       q    Type
                         _______ _______ _______ _____ _____    ______ ____

>  <TORSDO>
F 6

$$$$
