=
 OpenBabel10262419483D

 25 29  0  0  1  0  0  0  0  0999 V2000
  187.0860  177.9510  145.4860 C   0  0  0  0  0  0  0  0  0  0  0  0
  188.3330  177.4410  145.1100 C   0  0  0  0  0  0  0  0  0  0  0  0
  187.7820  178.1610  147.7940 C   0  0  0  0  0  3  0  0  0  0  0  0
  185.8050  178.0040  144.7430 C   0  0  1  0  0  3  0  0  0  0  0  0
  183.2950  179.1490  143.8910 C   0  0  0  0  0  2  0  0  0  0  0  0
  189.0570  177.6940  147.4360 C   0  0  0  0  0  3  0  0  0  0  0  0
  185.0020  178.9340  145.6270 C   0  0  1  0  0  3  0  0  0  0  0  0
  183.5300  178.7170  145.3530 C   0  0  0  0  0  2  0  0  0  0  0  0
  190.6080  176.8450  145.7470 C   0  0  0  0  0  0  0  0  0  0  0  0
  191.5940  176.7330  146.6720 F   0  0  0  0  0  0  0  0  0  0  0  0
  188.5980  177.0440  143.7970 C   0  0  0  0  0  3  0  0  0  0  0  0
  184.2710  178.4730  142.8930 C   0  0  0  0  0  2  0  0  0  0  0  0
  186.8130  178.2750  146.7980 C   0  0  0  0  0  0  0  0  0  0  0  0
  185.4740  178.7160  146.9880 N   0  0  0  0  0  2  0  0  0  0  0  0
  190.8620  176.4600  144.4260 C   0  0  0  0  0  3  0  0  0  0  0  0
  185.7450  178.5660  143.3380 C   0  0  0  0  0  2  0  0  0  0  0  0
  189.8630  176.5530  143.4510 C   0  0  0  0  0  0  0  0  0  0  0  0
  189.3420  177.3330  146.1030 C   0  0  0  0  0  0  0  0  0  0  0  0
  190.1570  176.1570  142.1100 N   0  0  0  0  0  2  0  0  0  0  0  0
  190.9530  177.2240  140.9440 S   0  0  0  0  0  0  0  0  0  0  0  0
  187.5080  178.4710  139.7210 N   0  0  0  0  0  0  0  0  0  0  0  0
  188.4920  178.4630  140.6060 N   0  0  0  0  0  2  0  0  0  0  0  0
  187.7700  177.6570  138.7080 N   0  0  0  0  0  0  0  0  0  0  0  0
  189.4100  177.6100  140.1270 C   0  0  0  0  0  0  0  0  0  0  0  0
  188.9710  177.0900  138.9310 C   0  0  0  0  0  3  0  0  0  0  0  0
  1 13  1  0  0  0  0
  2  1  2  0  0  0  0
  2 18  1  0  0  0  0
  4 16  1  6  0  0  0
  4  1  1  0  0  0  0
  4  7  1  0  0  0  0
  5  8  1  0  0  0  0
  6  3  1  0  0  0  0
  7  8  1  1  0  0  0
  7 14  1  0  0  0  0
  9 18  1  0  0  0  0
  9 10  1  0  0  0  0
 11  2  1  0  0  0  0
 12 16  1  0  0  0  0
 12  5  1  0  0  0  0
 13 14  1  0  0  0  0
 13  3  2  0  0  0  0
 15  9  2  0  0  0  0
 17 11  2  0  0  0  0
 17 15  1  0  0  0  0
 18  6  2  0  0  0  0
 19 17  1  0  0  0  0
 20 19  1  0  0  0  0
 21 22  1  0  0  0  0
 23 25  1  0  0  0  0
 23 21  2  0  0  0  0
 24 22  1  0  0  0  0
 24 20  1  0  0  0  0
 25 24  2  0  0  0  0
M  END
>  <MODEL>
1

>  <REMARK>
 VINA RESULT:     -11.0      0.000      0.000
  Name = 
  3 active torsions:
  status: ('A' for Active; 'I' for Inactive)
    1  A    between atoms: N_6  and  S_15
    2  A    between atoms: N_6  and  C_23
    3  A    between atoms: S_15  and  C_21
                            x       y       z     vdW  Elec       q    Type
                         _______ _______ _______ _____ _____    ______ ____

>  <TORSDO>
F 3

$$$$
=
 OpenBabel10262419483D

 25 29  0  0  1  0  0  0  0  0999 V2000
  187.4130  177.8410  145.4980 C   0  0  0  0  0  0  0  0  0  0  0  0
  188.6340  177.3410  145.0340 C   0  0  0  0  0  0  0  0  0  0  0  0
  188.2550  178.0080  147.7610 C   0  0  0  0  0  3  0  0  0  0  0  0
  186.0860  177.9050  144.8400 C   0  0  1  0  0  3  0  0  0  0  0  0
  183.5260  179.0600  144.1720 C   0  0  0  0  0  2  0  0  0  0  0  0
  189.5050  177.5510  147.3130 C   0  0  0  0  0  3  0  0  0  0  0  0
  185.3400  178.8160  145.7910 C   0  0  1  0  0  3  0  0  0  0  0  0
  183.8550  178.6000  145.6080 C   0  0  0  0  0  2  0  0  0  0  0  0
  190.9460  176.7380  145.5120 C   0  0  0  0  0  0  0  0  0  0  0  0
  191.9890  176.6110  146.3700 F   0  0  0  0  0  0  0  0  0  0  0  0
  188.8150  176.9700  143.6990 C   0  0  0  0  0  3  0  0  0  0  0  0
  184.4370  178.4050  143.1010 C   0  0  0  0  0  2  0  0  0  0  0  0
  187.2240  178.1390  146.8310 C   0  0  0  0  0  0  0  0  0  0  0  0
  185.8990  178.5730  147.1150 N   0  0  0  0  0  2  0  0  0  0  0  0
  191.1150  176.3800  144.1710 C   0  0  0  0  0  3  0  0  0  0  0  0
  185.9360  178.4940  143.4520 C   0  0  0  0  0  2  0  0  0  0  0  0
  190.0560  176.4890  143.2630 C   0  0  0  0  0  0  0  0  0  0  0  0
  189.7050  177.2170  145.9570 C   0  0  0  0  0  0  0  0  0  0  0  0
  190.2630  176.1190  141.8990 N   0  0  0  0  0  2  0  0  0  0  0  0
  189.8640  177.1830  140.5420 S   0  0  0  0  0  0  0  0  0  0  0  0
  193.6370  177.2690  139.7210 N   0  0  0  0  0  0  0  0  0  0  0  0
  192.6210  177.5010  140.5370 N   0  0  0  0  0  2  0  0  0  0  0  0
  193.2220  176.7330  138.5820 N   0  0  0  0  0  0  0  0  0  0  0  0
  191.5240  177.0930  139.8830 C   0  0  0  0  0  0  0  0  0  0  0  0
  191.8830  176.6060  138.6470 C   0  0  0  0  0  3  0  0  0  0  0  0
  1 13  1  0  0  0  0
  2  1  2  0  0  0  0
  2 18  1  0  0  0  0
  4 16  1  6  0  0  0
  4  1  1  0  0  0  0
  4  7  1  0  0  0  0
  5  8  1  0  0  0  0
  6  3  1  0  0  0  0
  7  8  1  1  0  0  0
  7 14  1  0  0  0  0
  9 18  1  0  0  0  0
  9 10  1  0  0  0  0
 11  2  1  0  0  0  0
 12 16  1  0  0  0  0
 12  5  1  0  0  0  0
 13 14  1  0  0  0  0
 13  3  2  0  0  0  0
 15  9  2  0  0  0  0
 17 11  2  0  0  0  0
 17 15  1  0  0  0  0
 18  6  2  0  0  0  0
 19 17  1  0  0  0  0
 20 19  1  0  0  0  0
 21 22  1  0  0  0  0
 23 25  1  0  0  0  0
 23 21  2  0  0  0  0
 24 22  1  0  0  0  0
 24 20  1  0  0  0  0
 25 24  2  0  0  0  0
M  END
>  <MODEL>
2

>  <REMARK>
 VINA RESULT:     -10.8      1.665      2.052
  Name = 
  3 active torsions:
  status: ('A' for Active; 'I' for Inactive)
    1  A    between atoms: N_6  and  S_15
    2  A    between atoms: N_6  and  C_23
    3  A    between atoms: S_15  and  C_21
                            x       y       z     vdW  Elec       q    Type
                         _______ _______ _______ _____ _____    ______ ____

>  <TORSDO>
F 3

$$$$
=
 OpenBabel10262419483D

 25 29  0  0  1  0  0  0  0  0999 V2000
  187.5790  177.6810  144.9730 C   0  0  0  0  0  0  0  0  0  0  0  0
  186.3020  177.9790  144.4860 C   0  0  0  0  0  0  0  0  0  0  0  0
  186.9960  178.4570  147.1910 C   0  0  0  0  0  3  0  0  0  0  0  0
  188.8250  177.3280  144.2540 C   0  0  1  0  0  3  0  0  0  0  0  0
  191.3230  175.9460  143.8280 C   0  0  0  0  0  2  0  0  0  0  0  0
  185.6930  178.7240  146.7390 C   0  0  0  0  0  3  0  0  0  0  0  0
  189.6940  176.8600  145.4030 C   0  0  1  0  0  3  0  0  0  0  0  0
  191.1440  176.9510  144.9840 C   0  0  0  0  0  2  0  0  0  0  0  0
  184.0430  178.7750  144.9350 C   0  0  0  0  0  0  0  0  0  0  0  0
  183.0980  179.2600  145.7790 F   0  0  0  0  0  0  0  0  0  0  0  0
  185.9660  177.7860  143.1440 C   0  0  0  0  0  3  0  0  0  0  0  0
  190.2840  176.1340  142.6920 C   0  0  0  0  0  2  0  0  0  0  0  0
  187.9200  177.9410  146.2840 C   0  0  0  0  0  0  0  0  0  0  0  0
  189.2790  177.6280  146.5690 N   0  0  0  0  0  2  0  0  0  0  0  0
  183.7180  178.5670  143.5900 C   0  0  0  0  0  3  0  0  0  0  0  0
  188.8360  176.2270  143.2130 C   0  0  0  0  0  2  0  0  0  0  0  0
  184.6730  178.0780  142.6920 C   0  0  0  0  0  0  0  0  0  0  0  0
  185.3370  178.4890  145.3940 C   0  0  0  0  0  0  0  0  0  0  0  0
  184.3070  177.8720  141.3260 N   0  0  0  0  0  2  0  0  0  0  0  0
  184.1560  179.1950  140.1600 S   0  0  0  0  0  0  0  0  0  0  0  0
  187.5690  178.1620  138.6770 N   0  0  0  0  0  0  0  0  0  0  0  0
  186.8330  178.6660  139.6540 N   0  0  0  0  0  2  0  0  0  0  0  0
  186.8160  177.8100  137.6450 N   0  0  0  0  0  0  0  0  0  0  0  0
  185.5660  178.6270  139.2190 C   0  0  0  0  0  0  0  0  0  0  0  0
  185.5350  178.0910  137.9510 C   0  0  0  0  0  3  0  0  0  0  0  0
  1 13  1  0  0  0  0
  2  1  2  0  0  0  0
  2 18  1  0  0  0  0
  4 16  1  6  0  0  0
  4  1  1  0  0  0  0
  4  7  1  0  0  0  0
  5  8  1  0  0  0  0
  6  3  1  0  0  0  0
  7  8  1  6  0  0  0
  7 14  1  0  0  0  0
  9 18  1  0  0  0  0
  9 10  1  0  0  0  0
 11  2  1  0  0  0  0
 12 16  1  0  0  0  0
 12  5  1  0  0  0  0
 13 14  1  0  0  0  0
 13  3  2  0  0  0  0
 15  9  2  0  0  0  0
 17 11  2  0  0  0  0
 17 15  1  0  0  0  0
 18  6  2  0  0  0  0
 19 17  1  0  0  0  0
 20 19  1  0  0  0  0
 21 22  1  0  0  0  0
 23 25  1  0  0  0  0
 23 21  2  0  0  0  0
 24 22  1  0  0  0  0
 24 20  1  0  0  0  0
 25 24  2  0  0  0  0
M  END
>  <MODEL>
3

>  <REMARK>
 VINA RESULT:      -9.9      2.883      5.020
  Name = 
  3 active torsions:
  status: ('A' for Active; 'I' for Inactive)
    1  A    between atoms: N_6  and  S_15
    2  A    between atoms: N_6  and  C_23
    3  A    between atoms: S_15  and  C_21
                            x       y       z     vdW  Elec       q    Type
                         _______ _______ _______ _____ _____    ______ ____

>  <TORSDO>
F 3

$$$$
=
 OpenBabel10262419483D

 25 29  0  0  1  0  0  0  0  0999 V2000
  187.3870  177.8750  145.3800 C   0  0  0  0  0  0  0  0  0  0  0  0
  186.6520  178.2330  144.2450 C   0  0  0  0  0  0  0  0  0  0  0  0
  185.4850  178.2620  146.8260 C   0  0  0  0  0  3  0  0  0  0  0  0
  188.8430  177.6640  145.5570 C   0  0  1  0  0  3  0  0  0  0  0  0
  191.2170  176.4070  146.6140 C   0  0  0  0  0  2  0  0  0  0  0  0
  184.7120  178.5820  145.6990 C   0  0  0  0  0  3  0  0  0  0  0  0
  188.8730  177.0230  146.9280 C   0  0  1  0  0  3  0  0  0  0  0  0
  190.2540  177.2020  147.5190 C   0  0  0  0  0  2  0  0  0  0  0  0
  184.5180  178.9110  143.2830 C   0  0  0  0  0  0  0  0  0  0  0  0
  183.2070  179.2350  143.4070 F   0  0  0  0  0  0  0  0  0  0  0  0
  187.2320  178.2610  142.9750 C   0  0  0  0  0  3  0  0  0  0  0  0
  191.0770  176.7670  145.1120 C   0  0  0  0  0  2  0  0  0  0  0  0
  186.8230  177.9170  146.6380 C   0  0  0  0  0  0  0  0  0  0  0  0
  187.7470  177.5800  147.6660 N   0  0  0  0  0  2  0  0  0  0  0  0
  185.1100  178.9260  142.0160 C   0  0  0  0  0  3  0  0  0  0  0  0
  189.6140  176.7530  144.6240 C   0  0  0  0  0  2  0  0  0  0  0  0
  186.4640  178.6070  141.8560 C   0  0  0  0  0  0  0  0  0  0  0  0
  185.2830  178.5700  144.4090 C   0  0  0  0  0  0  0  0  0  0  0  0
  187.0360  178.6270  140.5470 N   0  0  0  0  0  2  0  0  0  0  0  0
  188.6780  178.0610  140.2060 S   0  0  0  0  0  0  0  0  0  0  0  0
  187.5580  178.6490  136.5570 N   0  0  0  0  0  0  0  0  0  0  0  0
  187.3120  178.6220  137.8570 N   0  0  0  0  0  2  0  0  0  0  0  0
  188.8150  178.3120  136.3030 N   0  0  0  0  0  0  0  0  0  0  0  0
  188.4610  178.2540  138.4430 C   0  0  0  0  0  0  0  0  0  0  0  0
  189.4210  178.0520  137.4780 C   0  0  0  0  0  3  0  0  0  0  0  0
  1  4  1  0  0  0  0
  1 13  1  0  0  0  0
  2 18  1  0  0  0  0
  2  1  2  0  0  0  0
  4 16  1  6  0  0  0
  4  7  1  0  0  0  0
  5  8  1  0  0  0  0
  6  3  1  0  0  0  0
  7  8  1  1  0  0  0
  7 14  1  0  0  0  0
  9 10  1  0  0  0  0
  9 18  1  0  0  0  0
 11  2  1  0  0  0  0
 12  5  1  0  0  0  0
 13  3  2  0  0  0  0
 13 14  1  0  0  0  0
 15  9  2  0  0  0  0
 16 12  1  0  0  0  0
 17 15  1  0  0  0  0
 17 11  2  0  0  0  0
 18  6  2  0  0  0  0
 19 17  1  0  0  0  0
 20 19  1  0  0  0  0
 21 22  1  0  0  0  0
 22 24  1  0  0  0  0
 23 21  2  0  0  0  0
 23 25  1  0  0  0  0
 24 20  1  0  0  0  0
 25 24  2  0  0  0  0
M  END
>  <MODEL>
4

>  <REMARK>
 VINA RESULT:      -9.8      2.408      4.715
  Name = 
  3 active torsions:
  status: ('A' for Active; 'I' for Inactive)
    1  A    between atoms: N_6  and  S_15
    2  A    between atoms: N_6  and  C_23
    3  A    between atoms: S_15  and  C_21
                            x       y       z     vdW  Elec       q    Type
                         _______ _______ _______ _____ _____    ______ ____

>  <TORSDO>
F 3

$$$$
=
 OpenBabel10262419483D

 25 29  0  0  1  0  0  0  0  0999 V2000
  185.9140  178.2610  144.5900 C   0  0  0  0  0  0  0  0  0  0  0  0
  187.1530  177.8720  145.1080 C   0  0  0  0  0  0  0  0  0  0  0  0
  184.9930  178.5530  146.8090 C   0  0  0  0  0  3  0  0  0  0  0  0
  185.3800  178.1850  143.2090 C   0  0  1  0  0  3  0  0  0  0  0  0
  183.8850  179.0750  140.9070 C   0  0  0  0  0  2  0  0  0  0  0  0
  186.2400  178.2090  147.3550 C   0  0  0  0  0  3  0  0  0  0  0  0
  184.1370  179.0390  143.3370 C   0  0  1  0  0  3  0  0  0  0  0  0
  183.1820  178.6780  142.2210 C   0  0  0  0  0  2  0  0  0  0  0  0
  188.5620  177.5030  147.0610 C   0  0  0  0  0  0  0  0  0  0  0  0
  188.7560  177.4940  148.4030 F   0  0  0  0  0  0  0  0  0  0  0  0
  188.2090  177.4930  144.2760 C   0  0  0  0  0  3  0  0  0  0  0  0
  185.3150  178.4900  140.7810 C   0  0  0  0  0  2  0  0  0  0  0  0
  184.8560  178.5660  145.4220 C   0  0  0  0  0  0  0  0  0  0  0  0
  183.6660  178.8770  144.7060 N   0  0  0  0  0  2  0  0  0  0  0  0
  189.6150  177.1360  146.2150 C   0  0  0  0  0  3  0  0  0  0  0  0
  186.1740  178.7290  142.0390 C   0  0  0  0  0  2  0  0  0  0  0  0
  189.4430  177.1250  144.8260 C   0  0  0  0  0  0  0  0  0  0  0  0
  187.3220  177.8690  146.5170 C   0  0  0  0  0  0  0  0  0  0  0  0
  190.5390  176.7500  143.9900 N   0  0  0  0  0  2  0  0  0  0  0  0
  191.6590  177.9260  143.2850 S   0  0  0  0  0  0  0  0  0  0  0  0
  191.5910  176.9590  139.5460 N   0  0  0  0  0  0  0  0  0  0  0  0
  192.1710  177.5400  140.5850 N   0  0  0  0  0  2  0  0  0  0  0  0
  190.4380  176.4050  139.8920 N   0  0  0  0  0  0  0  0  0  0  0  0
  191.3480  177.3400  141.6250 C   0  0  0  0  0  0  0  0  0  0  0  0
  190.2480  176.6270  141.2070 C   0  0  0  0  0  3  0  0  0  0  0  0
  1  2  2  0  0  0  0
  1 13  1  0  0  0  0
  2 18  1  0  0  0  0
  3  6  1  0  0  0  0
  4 16  1  6  0  0  0
  4  7  1  0  0  0  0
  4  1  1  0  0  0  0
  5  8  1  0  0  0  0
  7  8  1  6  0  0  0
  7 14  1  0  0  0  0
  9 10  1  0  0  0  0
 11 17  2  0  0  0  0
 11  2  1  0  0  0  0
 12  5  1  0  0  0  0
 12 16  1  0  0  0  0
 13  3  2  0  0  0  0
 14 13  1  0  0  0  0
 15  9  2  0  0  0  0
 17 15  1  0  0  0  0
 18  9  1  0  0  0  0
 18  6  2  0  0  0  0
 19 17  1  0  0  0  0
 20 19  1  0  0  0  0
 21 23  2  0  0  0  0
 21 22  1  0  0  0  0
 22 24  1  0  0  0  0
 23 25  1  0  0  0  0
 24 20  1  0  0  0  0
 25 24  2  0  0  0  0
M  END
>  <MODEL>
5

>  <REMARK>
 VINA RESULT:      -9.8      1.858      2.594
  Name = 
  3 active torsions:
  status: ('A' for Active; 'I' for Inactive)
    1  A    between atoms: N_6  and  S_15
    2  A    between atoms: N_6  and  C_23
    3  A    between atoms: S_15  and  C_21
                            x       y       z     vdW  Elec       q    Type
                         _______ _______ _______ _____ _____    ______ ____

>  <TORSDO>
F 3

$$$$
=
 OpenBabel10262419483D

 25 29  0  0  1  0  0  0  0  0999 V2000
  187.6030  177.6790  144.9230 C   0  0  0  0  0  0  0  0  0  0  0  0
  186.3720  178.0270  144.3590 C   0  0  0  0  0  0  0  0  0  0  0  0
  186.8200  178.2130  147.1500 C   0  0  0  0  0  3  0  0  0  0  0  0
  188.9120  177.4050  144.2840 C   0  0  1  0  0  3  0  0  0  0  0  0
  191.4510  176.0770  143.9360 C   0  0  0  0  0  2  0  0  0  0  0  0
  185.5600  178.5260  146.6150 C   0  0  0  0  0  3  0  0  0  0  0  0
  189.6800  176.8170  145.4480 C   0  0  1  0  0  3  0  0  0  0  0  0
  191.1610  176.9520  145.1730 C   0  0  0  0  0  2  0  0  0  0  0  0
  184.0750  178.7700  144.6870 C   0  0  0  0  0  0  0  0  0  0  0  0
  183.0540  179.1610  145.4910 F   0  0  0  0  0  0  0  0  0  0  0  0
  186.1580  177.9780  142.9790 C   0  0  0  0  0  3  0  0  0  0  0  0
  190.5150  176.3850  142.7390 C   0  0  0  0  0  2  0  0  0  0  0  0
  187.8260  177.7970  146.2790 C   0  0  0  0  0  0  0  0  0  0  0  0
  189.1570  177.4550  146.6490 N   0  0  0  0  0  2  0  0  0  0  0  0
  183.8710  178.7070  143.3040 C   0  0  0  0  0  3  0  0  0  0  0  0
  189.0250  176.4220  143.1360 C   0  0  0  0  0  2  0  0  0  0  0  0
  184.9070  178.3180  142.4470 C   0  0  0  0  0  0  0  0  0  0  0  0
  185.3260  178.4360  145.2270 C   0  0  0  0  0  0  0  0  0  0  0  0
  184.6650  178.2590  141.0410 N   0  0  0  0  0  2  0  0  0  0  0  0
  183.1610  177.6330  140.3480 S   0  0  0  0  0  0  0  0  0  0  0  0
  182.9960  181.1220  138.7010 N   0  0  0  0  0  0  0  0  0  0  0  0
  183.6800  180.1120  139.2140 N   0  0  0  0  0  2  0  0  0  0  0  0
  181.6930  180.8850  138.7390 N   0  0  0  0  0  0  0  0  0  0  0  0
  182.7690  179.2020  139.5880 C   0  0  0  0  0  0  0  0  0  0  0  0
  181.5080  179.6730  139.2980 C   0  0  0  0  0  3  0  0  0  0  0  0
  1 13  1  0  0  0  0
  2  1  2  0  0  0  0
  2 18  1  0  0  0  0
  4 16  1  6  0  0  0
  4  1  1  0  0  0  0
  4  7  1  0  0  0  0
  5  8  1  0  0  0  0
  6  3  1  0  0  0  0
  7  8  1  6  0  0  0
  7 14  1  0  0  0  0
  9 18  1  0  0  0  0
  9 10  1  0  0  0  0
 11  2  1  0  0  0  0
 12 16  1  0  0  0  0
 12  5  1  0  0  0  0
 13 14  1  0  0  0  0
 13  3  2  0  0  0  0
 15  9  2  0  0  0  0
 17 11  2  0  0  0  0
 17 15  1  0  0  0  0
 18  6  2  0  0  0  0
 19 17  1  0  0  0  0
 20 19  1  0  0  0  0
 21 23  2  0  0  0  0
 21 22  1  0  0  0  0
 22 24  1  0  0  0  0
 23 25  1  0  0  0  0
 24 20  1  0  0  0  0
 25 24  2  0  0  0  0
M  END
>  <MODEL>
6

>  <REMARK>
 VINA RESULT:      -9.7      3.465      5.717
  Name = 
  3 active torsions:
  status: ('A' for Active; 'I' for Inactive)
    1  A    between atoms: N_6  and  S_15
    2  A    between atoms: N_6  and  C_23
    3  A    between atoms: S_15  and  C_21
                            x       y       z     vdW  Elec       q    Type
                         _______ _______ _______ _____ _____    ______ ____

>  <TORSDO>
F 3

$$$$
=
 OpenBabel10262419483D

 25 29  0  0  1  0  0  0  0  0999 V2000
  186.3890  178.2060  145.1330 C   0  0  0  0  0  0  0  0  0  0  0  0
  185.9080  178.4270  143.8390 C   0  0  0  0  0  0  0  0  0  0  0  0
  184.2100  178.6270  146.0980 C   0  0  0  0  0  3  0  0  0  0  0  0
  187.7780  178.0800  145.6340 C   0  0  1  0  0  3  0  0  0  0  0  0
  189.9010  177.0340  147.2870 C   0  0  0  0  0  2  0  0  0  0  0  0
  183.6900  178.8100  144.8060 C   0  0  0  0  0  3  0  0  0  0  0  0
  187.5290  177.5640  147.0360 C   0  0  1  0  0  3  0  0  0  0  0  0
  188.7440  177.8590  147.8860 C   0  0  0  0  0  2  0  0  0  0  0  0
  184.0140  178.9160  142.3850 C   0  0  0  0  0  0  0  0  0  0  0  0
  182.6990  179.1870  142.1950 F   0  0  0  0  0  0  0  0  0  0  0  0
  186.7480  178.3720  142.7240 C   0  0  0  0  0  3  0  0  0  0  0  0
  190.0800  177.2550  145.7630 C   0  0  0  0  0  2  0  0  0  0  0  0
  185.5660  178.3310  146.2320 C   0  0  0  0  0  0  0  0  0  0  0  0
  186.2550  178.1290  147.4600 N   0  0  0  0  0  2  0  0  0  0  0  0
  184.8660  178.8480  141.2760 C   0  0  0  0  0  3  0  0  0  0  0  0
  188.7580  177.1280  144.9790 C   0  0  0  0  0  2  0  0  0  0  0  0
  186.2300  178.5820  141.4400 C   0  0  0  0  0  0  0  0  0  0  0  0
  184.5270  178.7120  143.6740 C   0  0  0  0  0  0  0  0  0  0  0  0
  187.0710  178.5140  140.2870 N   0  0  0  0  0  2  0  0  0  0  0  0
  188.8120  178.2090  140.3820 S   0  0  0  0  0  0  0  0  0  0  0  0
  189.0550  178.9720  136.6040 N   0  0  0  0  0  0  0  0  0  0  0  0
  188.8410  179.3530  137.8530 N   0  0  0  0  0  2  0  0  0  0  0  0
  189.3330  177.6780  136.5390 N   0  0  0  0  0  0  0  0  0  0  0  0
  188.9940  178.2520  138.6040 C   0  0  0  0  0  0  0  0  0  0  0  0
  189.3030  177.1850  137.7930 C   0  0  0  0  0  3  0  0  0  0  0  0
  1  4  1  0  0  0  0
  1 13  1  0  0  0  0
  2  1  2  0  0  0  0
  3 13  2  0  0  0  0
  4 16  1  6  0  0  0
  4  7  1  0  0  0  0
  5  8  1  0  0  0  0
  6  3  1  0  0  0  0
  7 14  1  0  0  0  0
  7  8  1  1  0  0  0
  9 18  1  0  0  0  0
 10  9  1  0  0  0  0
 11  2  1  0  0  0  0
 12  5  1  0  0  0  0
 13 14  1  0  0  0  0
 15 17  1  0  0  0  0
 15  9  2  0  0  0  0
 16 12  1  0  0  0  0
 17 11  2  0  0  0  0
 18  2  1  0  0  0  0
 18  6  2  0  0  0  0
 19 20  1  0  0  0  0
 19 17  1  0  0  0  0
 21 22  1  0  0  0  0
 22 24  1  0  0  0  0
 23 21  2  0  0  0  0
 23 25  1  0  0  0  0
 24 20  1  0  0  0  0
 25 24  2  0  0  0  0
M  END
>  <MODEL>
7

>  <REMARK>
 VINA RESULT:      -9.6      2.512      4.743
  Name = 
  3 active torsions:
  status: ('A' for Active; 'I' for Inactive)
    1  A    between atoms: N_6  and  S_15
    2  A    between atoms: N_6  and  C_23
    3  A    between atoms: S_15  and  C_21
                            x       y       z     vdW  Elec       q    Type
                         _______ _______ _______ _____ _____    ______ ____

>  <TORSDO>
F 3

$$$$
=
 OpenBabel10262419483D

 25 29  0  0  1  0  0  0  0  0999 V2000
  189.7210  177.3460  144.0500 C   0  0  0  0  0  0  0  0  0  0  0  0
  188.6520  177.5180  144.9350 C   0  0  0  0  0  0  0  0  0  0  0  0
  191.2750  177.0040  145.8750 C   0  0  0  0  0  3  0  0  0  0  0  0
  189.8170  177.6070  142.5950 C   0  0  1  0  0  3  0  0  0  0  0  0
  190.6640  177.1210  139.8790 C   0  0  0  0  0  2  0  0  0  0  0  0
  190.2120  177.1280  146.7830 C   0  0  0  0  0  3  0  0  0  0  0  0
  191.1290  176.9250  142.2690 C   0  0  1  0  0  3  0  0  0  0  0  0
  191.6720  177.5030  140.9820 C   0  0  0  0  0  2  0  0  0  0  0  0
  187.8420  177.5290  147.2340 C   0  0  0  0  0  0  0  0  0  0  0  0
  188.0480  177.4030  148.5680 F   0  0  0  0  0  0  0  0  0  0  0  0
  187.3650  177.8130  144.4810 C   0  0  0  0  0  3  0  0  0  0  0  0
  189.2050  177.5110  140.2260 C   0  0  0  0  0  2  0  0  0  0  0  0
  191.0020  177.1230  144.5130 C   0  0  0  0  0  0  0  0  0  0  0  0
  191.9580  177.0390  143.4620 N   0  0  0  0  0  2  0  0  0  0  0  0
  186.5550  177.8150  146.7640 C   0  0  0  0  0  3  0  0  0  0  0  0
  188.7810  177.0550  141.6370 C   0  0  0  0  0  2  0  0  0  0  0  0
  186.3120  177.9630  145.3930 C   0  0  0  0  0  0  0  0  0  0  0  0
  188.9020  177.3830  146.3270 C   0  0  0  0  0  0  0  0  0  0  0  0
  184.9860  178.2490  144.9460 N   0  0  0  0  0  2  0  0  0  0  0  0
  184.4950  179.8400  144.3450 S   0  0  0  0  0  0  0  0  0  0  0  0
  185.4730  179.1660  140.6700 N   0  0  0  0  0  0  0  0  0  0  0  0
  185.6820  179.7520  141.8380 N   0  0  0  0  0  2  0  0  0  0  0  0
  184.3880  178.4050  140.7060 N   0  0  0  0  0  0  0  0  0  0  0  0
  184.6890  179.3400  142.6400 C   0  0  0  0  0  0  0  0  0  0  0  0
  183.8610  178.4910  141.9430 C   0  0  0  0  0  3  0  0  0  0  0  0
  1 13  2  0  0  0  0
  1  2  1  0  0  0  0
  2 18  1  0  0  0  0
  3  6  2  0  0  0  0
  4 16  1  6  0  0  0
  4  1  1  0  0  0  0
  5 12  1  0  0  0  0
  5  8  1  0  0  0  0
  7  8  1  6  0  0  0
  7  4  1  0  0  0  0
  7 14  1  0  0  0  0
  9 10  1  0  0  0  0
 11  2  2  0  0  0  0
 11 17  1  0  0  0  0
 12 16  1  0  0  0  0
 13  3  1  0  0  0  0
 14 13  1  0  0  0  0
 15  9  1  0  0  0  0
 17 15  2  0  0  0  0
 18  6  1  0  0  0  0
 18  9  2  0  0  0  0
 19 17  1  0  0  0  0
 20 19  1  0  0  0  0
 21 23  2  0  0  0  0
 21 22  1  0  0  0  0
 22 24  1  0  0  0  0
 23 25  1  0  0  0  0
 24 20  1  0  0  0  0
 25 24  2  0  0  0  0
M  END
>  <MODEL>
8

>  <REMARK>
 VINA RESULT:      -9.6      2.374      5.164
  Name = 
  3 active torsions:
  status: ('A' for Active; 'I' for Inactive)
    1  A    between atoms: N_6  and  S_15
    2  A    between atoms: N_6  and  C_23
    3  A    between atoms: S_15  and  C_21
                            x       y       z     vdW  Elec       q    Type
                         _______ _______ _______ _____ _____    ______ ____

>  <TORSDO>
F 3

$$$$
=
 OpenBabel10262419483D

 25 29  0  0  1  0  0  0  0  0999 V2000
  185.6560  178.2640  144.6600 C   0  0  0  0  0  0  0  0  0  0  0  0
  186.9760  177.8720  144.4150 C   0  0  0  0  0  0  0  0  0  0  0  0
  186.0680  178.4320  147.0390 C   0  0  0  0  0  3  0  0  0  0  0  0
  184.4670  178.2470  143.7770 C   0  0  1  0  0  3  0  0  0  0  0  0
  181.9820  179.2220  142.6790 C   0  0  0  0  0  2  0  0  0  0  0  0
  187.4100  178.0830  146.8160 C   0  0  0  0  0  3  0  0  0  0  0  0
  183.4940  179.0720  144.5920 C   0  0  1  0  0  3  0  0  0  0  0  0
  182.0860  178.7490  144.1430 C   0  0  0  0  0  2  0  0  0  0  0  0
  189.2070  177.4330  145.2910 C   0  0  0  0  0  0  0  0  0  0  0  0
  190.0880  177.3610  146.3190 F   0  0  0  0  0  0  0  0  0  0  0  0
  187.4190  177.5530  143.1290 C   0  0  0  0  0  3  0  0  0  0  0  0
  183.1160  178.6690  141.7780 C   0  0  0  0  0  2  0  0  0  0  0  0
  185.2110  178.5100  145.9420 C   0  0  0  0  0  0  0  0  0  0  0  0
  183.8270  178.8340  145.9910 N   0  0  0  0  0  2  0  0  0  0  0  0
  189.6400  177.1260  143.9960 C   0  0  0  0  0  3  0  0  0  0  0  0
  184.5180  178.8610  142.3930 C   0  0  0  0  0  2  0  0  0  0  0  0
  188.7520  177.1800  142.9150 C   0  0  0  0  0  0  0  0  0  0  0  0
  187.8730  177.8030  145.5130 C   0  0  0  0  0  0  0  0  0  0  0  0
  189.2270  176.8650  141.6050 N   0  0  0  0  0  2  0  0  0  0  0  0
  188.6870  177.7230  140.1540 S   0  0  0  0  0  0  0  0  0  0  0  0
  191.4120  176.6980  137.6160 N   0  0  0  0  0  0  0  0  0  0  0  0
  190.1680  177.0450  137.9070 N   0  0  0  0  0  0  0  0  0  0  0  0
  192.1650  176.6630  138.7060 N   0  0  0  0  0  2  0  0  0  0  0  0
  190.1410  177.2380  139.2340 C   0  0  0  0  0  0  0  0  0  0  0  0
  191.3920  177.0000  139.7560 C   0  0  0  0  0  3  0  0  0  0  0  0
  1 13  1  0  0  0  0
  2  1  2  0  0  0  0
  2 18  1  0  0  0  0
  4 16  1  6  0  0  0
  4  7  1  0  0  0  0
  4  1  1  0  0  0  0
  5  8  1  0  0  0  0
  6  3  1  0  0  0  0
  7  8  1  1  0  0  0
  7 14  1  0  0  0  0
  9 18  1  0  0  0  0
  9 10  1  0  0  0  0
 11  2  1  0  0  0  0
 12 16  1  0  0  0  0
 12  5  1  0  0  0  0
 13 14  1  0  0  0  0
 13  3  2  0  0  0  0
 15  9  2  0  0  0  0
 17 11  2  0  0  0  0
 17 15  1  0  0  0  0
 18  6  2  0  0  0  0
 19 17  1  0  0  0  0
 20 19  1  0  0  0  0
 21 22  2  0  0  0  0
 21 23  1  0  0  0  0
 22 24  1  0  0  0  0
 23 25  1  0  0  0  0
 24 25  2  0  0  0  0
 24 20  1  0  0  0  0
M  END
>  <MODEL>
9

>  <REMARK>
 VINA RESULT:      -9.6      1.730      2.212
  Name = 
  3 active torsions:
  status: ('A' for Active; 'I' for Inactive)
    1  A    between atoms: N_6  and  S_15
    2  A    between atoms: N_6  and  C_23
    3  A    between atoms: S_15  and  C_21
                            x       y       z     vdW  Elec       q    Type
                         _______ _______ _______ _____ _____    ______ ____

>  <TORSDO>
F 3

$$$$
