=
 OpenBabel10262422023D

 30 34  0  0  1  0  0  0  0  0999 V2000
  189.2620  177.6810  140.7290 C   0  0  2  0  0  3  0  0  0  0  0  0
  190.5410  174.9690  138.4410 C   0  0  2  0  0  3  0  0  0  0  0  0
  192.0870  178.1540  140.9130 C   0  0  0  0  0  2  0  0  0  0  0  0
  188.5080  177.0620  141.9220 C   0  0  2  0  0  3  0  0  0  0  0  0
  188.3870  178.2420  139.7900 O   0  0  0  0  0  1  0  0  0  0  0  0
  187.5960  176.5220  145.9940 C   0  0  0  0  0  3  0  0  0  0  0  0
  190.2930  177.3260  143.7720 C   0  0  1  0  0  3  0  0  0  0  0  0
  191.2870  178.1660  142.9680 C   0  0  0  0  0  2  0  0  0  0  0  0
  187.6820  178.1610  142.6350 C   0  0  2  0  0  3  0  0  0  0  0  0
  189.9550  174.3280  137.3520 O   0  0  0  0  0  1  0  0  0  0  0  0
  189.3820  178.2850  144.5610 C   0  0  2  0  0  3  0  0  0  0  0  0
  188.9920  176.7500  146.5090 C   0  0  0  0  0  2  0  0  0  0  0  0
  189.6020  176.0480  138.9610 C   0  0  0  0  0  2  0  0  0  0  0  0
  191.4510  177.4080  139.7270 C   0  0  2  0  0  3  0  0  0  0  0  0
  191.8470  175.6160  138.0070 C   0  0  0  0  0  2  0  0  0  0  0  0
  190.2030  176.7250  140.1160 N   0  0  1  0  0  0  0  0  0  0  0  0
  190.2010  175.3180  142.3730 O   0  0  0  0  0  1  0  0  0  0  0  0
  192.0440  177.3890  142.0850 O   0  0  0  0  0  0  0  0  0  0  0  0
  189.4480  176.3550  142.9270 C   0  0  2  0  0  3  0  0  0  0  0  0
  189.5520  178.1010  146.0680 C   0  0  0  0  0  2  0  0  0  0  0  0
  187.1130  177.1520  144.9140 C   0  0  0  0  0  3  0  0  0  0  0  0
  192.4600  176.3950  139.1650 C   0  0  1  0  0  3  0  0  0  0  0  0
  193.6040  177.0550  138.7120 O   0  0  0  0  0  1  0  0  0  0  0  0
  187.8840  178.2270  144.1710 C   0  0  2  0  0  3  0  0  0  0  0  0
  185.4530  179.2700  142.8130 C   0  0  1  0  0  3  0  0  0  0  0  0
  186.2080  178.0810  142.2400 C   0  0  1  0  0  3  0  0  0  0  0  0
  185.8400  179.2520  141.3510 C   0  0  0  0  0  2  0  0  0  0  0  0
  184.1060  178.9340  142.9400 O   0  0  0  0  0  0  0  0  0  0  0  0
  183.6690  179.6460  144.0570 C   0  0  0  0  0  2  0  0  0  0  0  0
  184.0210  178.8800  145.3140 C   0  0  0  0  0  1  0  0  0  0  0  0
  1  5  1  6  0  0  0
  1  4  1  0  0  0  0
  2 10  1  6  0  0  0
  2 13  1  0  0  0  0
  3 18  1  0  0  0  0
  4  9  1  0  0  0  0
  4 19  1  0  0  0  0
  6 12  1  0  0  0  0
  7 11  1  0  0  0  0
  8  7  1  0  0  0  0
  9 24  1  0  0  0  0
 11 20  1  0  0  0  0
 13 16  1  0  0  0  0
 14 16  1  0  0  0  0
 14  3  1  0  0  0  0
 15  2  1  0  0  0  0
 15 22  1  0  0  0  0
 16  1  1  0  0  0  0
 17 19  1  0  0  0  0
 18  8  1  0  0  0  0
 19  7  1  0  0  0  0
 20 12  1  0  0  0  0
 21  6  2  0  0  0  0
 22 14  1  0  0  0  0
 23 22  1  0  0  0  0
 24 11  1  0  0  0  0
 24 21  1  0  0  0  0
 25 28  1  0  0  0  0
 26  9  1  0  0  0  0
 26 25  1  0  0  0  0
 27 26  1  0  0  0  0
 27 25  1  0  0  0  0
 28 29  1  0  0  0  0
 29 30  1  0  0  0  0
M  END
>  <MODEL>
1

>  <REMARK>
 VINA RESULT:      -6.6      0.000      0.000
  Name = 
  3 active torsions:
  status: ('A' for Active; 'I' for Inactive)
    1  A    between atoms: C_6  and  O_21
    2  A    between atoms: C_8  and  C_13
    3  A    between atoms: C_9  and  O_21
                            x       y       z     vdW  Elec       q    Type
                         _______ _______ _______ _____ _____    ______ ____

>  <TORSDO>
F 3

$$$$
=
 OpenBabel10262422023D

 30 34  0  0  1  0  0  0  0  0999 V2000
  191.5100  175.7520  137.5420 C   0  0  2  0  0  3  0  0  0  0  0  0
  194.5290  176.4650  135.3970 C   0  0  2  0  0  3  0  0  0  0  0  0
  191.6900  173.2860  136.0840 C   0  0  0  0  0  2  0  0  0  0  0  0
  190.3810  176.7520  137.2230 C   0  0  2  0  0  3  0  0  0  0  0  0
  192.1420  176.0450  138.7580 O   0  0  0  0  0  1  0  0  0  0  0  0
  186.4430  177.8780  136.2600 C   0  0  0  0  0  3  0  0  0  0  0  0
  188.8370  175.2510  135.7940 C   0  0  1  0  0  3  0  0  0  0  0  0
  189.5820  173.9320  136.0170 C   0  0  0  0  0  2  0  0  0  0  0  0
  189.3120  176.6940  138.3430 C   0  0  2  0  0  3  0  0  0  0  0  0
  195.6240  177.3040  135.5920 O   0  0  0  0  0  1  0  0  0  0  0  0
  187.7140  175.3490  136.8430 C   0  0  2  0  0  3  0  0  0  0  0  0
  186.1260  176.6720  135.4180 C   0  0  0  0  0  2  0  0  0  0  0  0
  193.6330  176.5040  136.6260 C   0  0  0  0  0  2  0  0  0  0  0  0
  192.8930  174.2280  136.2620 C   0  0  2  0  0  3  0  0  0  0  0  0
  195.0140  175.0400  135.1810 C   0  0  0  0  0  2  0  0  0  0  0  0
  192.4690  175.6310  136.4270 N   0  0  1  0  0  0  0  0  0  0  0  0
  190.6200  176.5810  134.7680 O   0  0  0  0  0  1  0  0  0  0  0  0
  190.7300  173.8330  135.2240 O   0  0  0  0  0  0  0  0  0  0  0  0
  189.7290  176.5040  135.8420 C   0  0  2  0  0  3  0  0  0  0  0  0
  186.3360  175.3670  136.1840 C   0  0  0  0  0  2  0  0  0  0  0  0
  187.2590  177.8230  137.3230 C   0  0  0  0  0  3  0  0  0  0  0  0
  193.8270  174.0930  135.0490 C   0  0  1  0  0  3  0  0  0  0  0  0
  194.3000  172.7840  134.9500 O   0  0  0  0  0  1  0  0  0  0  0  0
  187.8560  176.5280  137.8390 C   0  0  2  0  0  3  0  0  0  0  0  0
  188.6770  177.6010  140.5800 C   0  0  1  0  0  3  0  0  0  0  0  0
  189.4680  177.8680  139.3090 C   0  0  1  0  0  3  0  0  0  0  0  0
  190.1780  177.4170  140.5700 C   0  0  0  0  0  2  0  0  0  0  0  0
  188.3630  178.8180  141.1830 O   0  0  0  0  0  0  0  0  0  0  0  0
  187.0900  178.6280  141.7200 C   0  0  0  0  0  2  0  0  0  0  0  0
  187.1660  177.6370  142.8620 C   0  0  0  0  0  1  0  0  0  0  0  0
  1  5  1  1  0  0  0
  2 10  1  1  0  0  0
  2 13  1  0  0  0  0
  3 14  1  0  0  0  0
  4  1  1  0  0  0  0
  4  9  1  0  0  0  0
  6 21  2  0  0  0  0
  7 19  1  0  0  0  0
  7  8  1  0  0  0  0
  7 11  1  0  0  0  0
  9 26  1  0  0  0  0
 11 24  1  0  0  0  0
 12 20  1  0  0  0  0
 12  6  1  0  0  0  0
 14 16  1  0  0  0  0
 15  2  1  0  0  0  0
 16 13  1  0  0  0  0
 16  1  1  0  0  0  0
 17 19  1  0  0  0  0
 18  8  1  0  0  0  0
 18  3  1  0  0  0  0
 19  4  1  0  0  0  0
 20 11  1  0  0  0  0
 21 24  1  0  0  0  0
 22 15  1  0  0  0  0
 22 14  1  0  0  0  0
 23 22  1  0  0  0  0
 24  9  1  0  0  0  0
 25 28  1  0  0  0  0
 26 27  1  0  0  0  0
 26 25  1  0  0  0  0
 27 25  1  0  0  0  0
 28 29  1  0  0  0  0
 29 30  1  0  0  0  0
M  END
>  <MODEL>
2

>  <REMARK>
 VINA RESULT:      -6.1      3.056      6.563
  Name = 
  3 active torsions:
  status: ('A' for Active; 'I' for Inactive)
    1  A    between atoms: C_6  and  O_21
    2  A    between atoms: C_8  and  C_13
    3  A    between atoms: C_9  and  O_21
                            x       y       z     vdW  Elec       q    Type
                         _______ _______ _______ _____ _____    ______ ____

>  <TORSDO>
F 3

$$$$
=
 OpenBabel10262422023D

 30 34  0  0  1  0  0  0  0  0999 V2000
  184.0890  179.7030  139.4850 C   0  0  2  0  0  3  0  0  0  0  0  0
  187.0080  177.7120  138.1660 C   0  0  2  0  0  3  0  0  0  0  0  0
  185.3950  179.0240  141.9500 C   0  0  0  0  0  2  0  0  0  0  0  0
  182.7610  179.0180  139.1070 C   0  0  2  0  0  3  0  0  0  0  0  0
  184.3380  180.8360  138.7000 O   0  0  0  0  0  1  0  0  0  0  0  0
  178.9330  177.4410  139.8570 C   0  0  0  0  0  3  0  0  0  0  0  0
  182.1420  177.9460  141.3750 C   0  0  1  0  0  3  0  0  0  0  0  0
  183.2480  178.5970  142.2090 C   0  0  0  0  0  2  0  0  0  0  0  0
  181.5920  180.0130  139.3170 C   0  0  2  0  0  3  0  0  0  0  0  0
  187.6790  177.7560  136.9460 O   0  0  0  0  0  1  0  0  0  0  0  0
  180.8810  178.8230  141.4840 C   0  0  2  0  0  3  0  0  0  0  0  0
  179.2250  176.9510  141.2490 C   0  0  0  0  0  2  0  0  0  0  0  0
  185.9420  178.7980  138.1980 C   0  0  0  0  0  2  0  0  0  0  0  0
  186.1330  179.0310  140.6000 C   0  0  2  0  0  3  0  0  0  0  0  0
  187.9950  177.9510  139.2980 C   0  0  0  0  0  2  0  0  0  0  0  0
  185.2190  178.7550  139.4750 N   0  0  1  0  0  0  0  0  0  0  0  0
  183.4990  176.7430  139.7290 O   0  0  0  0  0  1  0  0  0  0  0  0
  184.4830  177.9650  142.0330 O   0  0  0  0  0  0  0  0  0  0  0  0
  182.5090  177.7140  139.8980 C   0  0  2  0  0  3  0  0  0  0  0  0
  179.7340  178.0700  142.1560 C   0  0  0  0  0  2  0  0  0  0  0  0
  179.5020  178.5420  139.3440 C   0  0  0  0  0  3  0  0  0  0  0  0
  187.2640  177.9910  140.6340 C   0  0  1  0  0  3  0  0  0  0  0  0
  188.1780  178.3080  141.6410 O   0  0  0  0  0  1  0  0  0  0  0  0
  180.4090  179.4530  140.1490 C   0  0  2  0  0  3  0  0  0  0  0  0
  180.1740  181.7620  138.2410 C   0  0  1  0  0  3  0  0  0  0  0  0
  181.1410  180.6170  137.9880 C   0  0  1  0  0  3  0  0  0  0  0  0
  181.6130  182.0520  137.8780 C   0  0  0  0  0  2  0  0  0  0  0  0
  179.3680  181.9330  137.1160 O   0  0  0  0  0  0  0  0  0  0  0  0
  178.9320  183.2560  137.1930 C   0  0  0  0  0  2  0  0  0  0  0  0
  179.0390  183.9030  135.8290 C   0  0  0  0  0  1  0  0  0  0  0  0
  1  5  1  6  0  0  0
  2 10  1  6  0  0  0
  2 13  1  0  0  0  0
  2 15  1  0  0  0  0
  3 18  1  0  0  0  0
  4  9  1  0  0  0  0
  4  1  1  0  0  0  0
  4 19  1  0  0  0  0
  6 12  1  0  0  0  0
  7 11  1  0  0  0  0
  7  8  1  0  0  0  0
  9 24  1  0  0  0  0
 11 20  1  0  0  0  0
 12 20  1  0  0  0  0
 13 16  1  0  0  0  0
 14 22  1  0  0  0  0
 14  3  1  0  0  0  0
 15 22  1  0  0  0  0
 16  1  1  0  0  0  0
 16 14  1  0  0  0  0
 17 19  1  0  0  0  0
 18  8  1  0  0  0  0
 19  7  1  0  0  0  0
 21  6  2  0  0  0  0
 21 24  1  0  0  0  0
 22 23  1  0  0  0  0
 24 11  1  0  0  0  0
 26 25  1  0  0  0  0
 26  9  1  0  0  0  0
 27 26  1  0  0  0  0
 27 25  1  0  0  0  0
 28 29  1  0  0  0  0
 28 25  1  0  0  0  0
 30 29  1  0  0  0  0
M  END
>  <MODEL>
3

>  <REMARK>
 VINA RESULT:      -5.3      4.952      7.631
  Name = 
  3 active torsions:
  status: ('A' for Active; 'I' for Inactive)
    1  A    between atoms: C_6  and  O_21
    2  A    between atoms: C_8  and  C_13
    3  A    between atoms: C_9  and  O_21
                            x       y       z     vdW  Elec       q    Type
                         _______ _______ _______ _____ _____    ______ ____

>  <TORSDO>
F 3

$$$$
=
 OpenBabel10262422023D

 30 34  0  0  1  0  0  0  0  0999 V2000
  189.2570  178.1140  140.5120 C   0  0  2  0  0  3  0  0  0  0  0  0
  189.7680  175.3740  137.9720 C   0  0  2  0  0  3  0  0  0  0  0  0
  192.0980  177.7560  140.7180 C   0  0  0  0  0  2  0  0  0  0  0  0
  188.3380  177.6240  141.6490 C   0  0  2  0  0  3  0  0  0  0  0  0
  188.5910  178.9820  139.6370 O   0  0  0  0  0  1  0  0  0  0  0  0
  187.2360  176.9910  145.6600 C   0  0  0  0  0  3  0  0  0  0  0  0
  190.0900  177.2060  143.5010 C   0  0  1  0  0  3  0  0  0  0  0  0
  191.2960  177.8040  142.7710 C   0  0  0  0  0  2  0  0  0  0  0  0
  187.8390  178.8400  142.4680 C   0  0  2  0  0  3  0  0  0  0  0  0
  189.0470  175.0240  136.8330 O   0  0  0  0  0  1  0  0  0  0  0  0
  189.4710  178.3060  144.3830 C   0  0  2  0  0  3  0  0  0  0  0  0
  188.6300  176.7700  146.1830 C   0  0  0  0  0  2  0  0  0  0  0  0
  189.1590  176.6200  138.5970 C   0  0  0  0  0  2  0  0  0  0  0  0
  191.3010  177.3310  139.4730 C   0  0  2  0  0  3  0  0  0  0  0  0
  191.2110  175.6650  137.5900 C   0  0  0  0  0  2  0  0  0  0  0  0
  189.9040  176.9930  139.8060 N   0  0  1  0  0  0  0  0  0  0  0  0
  189.4670  175.4410  141.9210 O   0  0  0  0  0  1  0  0  0  0  0  0
  191.8200  176.9310  141.8140 O   0  0  0  0  0  0  0  0  0  0  0  0
  189.0240  176.5930  142.5760 C   0  0  2  0  0  3  0  0  0  0  0  0
  189.5540  177.9450  145.8650 C   0  0  0  0  0  2  0  0  0  0  0  0
  186.9690  177.8280  144.6470 C   0  0  0  0  0  3  0  0  0  0  0  0
  191.9960  176.1310  138.8100 C   0  0  1  0  0  3  0  0  0  0  0  0
  193.2870  176.4830  138.4120 O   0  0  0  0  0  1  0  0  0  0  0  0
  188.0230  178.7060  144.0010 C   0  0  2  0  0  3  0  0  0  0  0  0
  186.0980  178.6880  140.6870 C   0  0  1  0  0  3  0  0  0  0  0  0
  186.4100  179.2140  142.0790 C   0  0  1  0  0  3  0  0  0  0  0  0
  185.5710  177.9640  141.9050 C   0  0  0  0  0  2  0  0  0  0  0  0
  185.0790  179.4580  140.1280 O   0  0  0  0  0  0  0  0  0  0  0  0
  184.5000  178.6310  139.1650 C   0  0  0  0  0  2  0  0  0  0  0  0
  185.5600  178.1740  138.1870 C   0  0  0  0  0  1  0  0  0  0  0  0
  1  5  1  6  0  0  0
  1  4  1  0  0  0  0
  2 10  1  6  0  0  0
  2 13  1  0  0  0  0
  3 18  1  0  0  0  0
  4  9  1  0  0  0  0
  4 19  1  0  0  0  0
  6 12  1  0  0  0  0
  7 11  1  0  0  0  0
  8  7  1  0  0  0  0
  9 24  1  0  0  0  0
 11 20  1  0  0  0  0
 13 16  1  0  0  0  0
 14 16  1  0  0  0  0
 14  3  1  0  0  0  0
 15  2  1  0  0  0  0
 15 22  1  0  0  0  0
 16  1  1  0  0  0  0
 17 19  1  0  0  0  0
 18  8  1  0  0  0  0
 19  7  1  0  0  0  0
 20 12  1  0  0  0  0
 21  6  2  0  0  0  0
 22 14  1  0  0  0  0
 23 22  1  0  0  0  0
 24 11  1  0  0  0  0
 24 21  1  0  0  0  0
 25 27  1  0  0  0  0
 25 26  1  0  0  0  0
 26  9  1  0  0  0  0
 27 26  1  0  0  0  0
 28 25  1  0  0  0  0
 29 28  1  0  0  0  0
 30 29  1  0  0  0  0
M  END
>  <MODEL>
4

>  <REMARK>
 VINA RESULT:      -5.1      1.207      1.893
  Name = 
  3 active torsions:
  status: ('A' for Active; 'I' for Inactive)
    1  A    between atoms: C_6  and  O_21
    2  A    between atoms: C_8  and  C_13
    3  A    between atoms: C_9  and  O_21
                            x       y       z     vdW  Elec       q    Type
                         _______ _______ _______ _____ _____    ______ ____

>  <TORSDO>
F 3

$$$$
=
 OpenBabel10262422023D

 30 34  0  0  1  0  0  0  0  0999 V2000
  186.3400  177.7690  137.3320 C   0  0  2  0  0  3  0  0  0  0  0  0
  183.1890  175.8950  138.2150 C   0  0  2  0  0  3  0  0  0  0  0  0
  185.4030  177.0880  134.7050 C   0  0  0  0  0  2  0  0  0  0  0  0
  187.5720  177.0500  137.9180 C   0  0  2  0  0  3  0  0  0  0  0  0
  186.0130  178.9230  138.0560 O   0  0  0  0  0  1  0  0  0  0  0  0
  191.4130  175.3390  137.7820 C   0  0  0  0  0  3  0  0  0  0  0  0
  188.4930  175.9180  135.7850 C   0  0  1  0  0  3  0  0  0  0  0  0
  187.5490  176.5890  134.7830 C   0  0  0  0  0  2  0  0  0  0  0  0
  188.7920  178.0030  137.8760 C   0  0  2  0  0  3  0  0  0  0  0  0
  182.3410  175.9810  139.3170 O   0  0  0  0  0  1  0  0  0  0  0  0
  189.7840  176.7530  135.8590 C   0  0  2  0  0  3  0  0  0  0  0  0
  191.3210  174.8340  136.3680 C   0  0  0  0  0  2  0  0  0  0  0  0
  184.2830  176.9460  138.3320 C   0  0  0  0  0  2  0  0  0  0  0  0
  184.4690  177.1420  135.9260 C   0  0  2  0  0  3  0  0  0  0  0  0
  182.3950  176.1450  136.9420 C   0  0  0  0  0  2  0  0  0  0  0  0
  185.1910  176.8580  137.1810 N   0  0  1  0  0  0  0  0  0  0  0  0
  186.8600  174.7880  137.2190 O   0  0  0  0  0  1  0  0  0  0  0  0
  186.2810  176.0000  134.7760 O   0  0  0  0  0  0  0  0  0  0  0  0
  187.8960  175.7240  137.1910 C   0  0  2  0  0  3  0  0  0  0  0  0
  190.9940  175.9520  135.3800 C   0  0  0  0  0  2  0  0  0  0  0  0
  190.8110  176.4660  138.1880 C   0  0  0  0  0  3  0  0  0  0  0  0
  183.3220  176.1390  135.7320 C   0  0  1  0  0  3  0  0  0  0  0  0
  182.5830  176.4660  134.5940 O   0  0  0  0  0  1  0  0  0  0  0  0
  190.0680  177.3910  137.2420 C   0  0  2  0  0  3  0  0  0  0  0  0
  188.0450  178.0860  140.2560 C   0  0  1  0  0  3  0  0  0  0  0  0
  189.0550  178.6160  139.2510 C   0  0  1  0  0  3  0  0  0  0  0  0
  189.4540  177.5370  140.2370 C   0  0  0  0  0  2  0  0  0  0  0  0
  187.9180  179.0030  141.2990 O   0  0  0  0  0  0  0  0  0  0  0  0
  186.8830  178.5000  142.0860 C   0  0  0  0  0  2  0  0  0  0  0  0
  185.5570  179.0030  141.5590 C   0  0  0  0  0  1  0  0  0  0  0  0
  1  4  1  0  0  0  0
  1  5  1  1  0  0  0
  2 13  1  0  0  0  0
  2 10  1  1  0  0  0
  3 18  1  0  0  0  0
  3 14  1  0  0  0  0
  6 21  2  0  0  0  0
  7 11  1  0  0  0  0
  7 19  1  0  0  0  0
  8  7  1  0  0  0  0
  9  4  1  0  0  0  0
  9 26  1  0  0  0  0
 11 24  1  0  0  0  0
 12  6  1  0  0  0  0
 14 16  1  0  0  0  0
 15  2  1  0  0  0  0
 16  1  1  0  0  0  0
 16 13  1  0  0  0  0
 18  8  1  0  0  0  0
 19 17  1  0  0  0  0
 19  4  1  0  0  0  0
 20 11  1  0  0  0  0
 20 12  1  0  0  0  0
 22 14  1  0  0  0  0
 22 15  1  0  0  0  0
 23 22  1  0  0  0  0
 24  9  1  0  0  0  0
 24 21  1  0  0  0  0
 25 28  1  0  0  0  0
 26 27  1  0  0  0  0
 26 25  1  0  0  0  0
 27 25  1  0  0  0  0
 28 29  1  0  0  0  0
 30 29  1  0  0  0  0
M  END
>  <MODEL>
5

>  <REMARK>
 VINA RESULT:      -4.9      3.983      7.407
  Name = 
  3 active torsions:
  status: ('A' for Active; 'I' for Inactive)
    1  A    between atoms: C_6  and  O_21
    2  A    between atoms: C_8  and  C_13
    3  A    between atoms: C_9  and  O_21
                            x       y       z     vdW  Elec       q    Type
                         _______ _______ _______ _____ _____    ______ ____

>  <TORSDO>
F 3

$$$$
=
 OpenBabel10262422023D

 30 34  0  0  1  0  0  0  0  0999 V2000
  183.9280  178.6500  138.8220 C   0  0  2  0  0  3  0  0  0  0  0  0
  182.8030  178.4110  142.4130 C   0  0  2  0  0  3  0  0  0  0  0  0
  181.1240  179.1800  138.5100 C   0  0  0  0  0  2  0  0  0  0  0  0
  184.5110  177.3010  138.3540 C   0  0  2  0  0  3  0  0  0  0  0  0
  184.9300  179.5990  139.0610 O   0  0  0  0  0  1  0  0  0  0  0  0
  184.9210  174.0190  135.7530 C   0  0  0  0  0  3  0  0  0  0  0  0
  182.5380  176.4230  136.9350 C   0  0  1  0  0  3  0  0  0  0  0  0
  181.6810  177.6910  136.9820 C   0  0  0  0  0  2  0  0  0  0  0  0
  185.2970  177.5100  137.0360 C   0  0  2  0  0  3  0  0  0  0  0  0
  183.4810  178.6310  143.6100 O   0  0  0  0  0  1  0  0  0  0  0  0
  183.3930  176.4700  135.6550 C   0  0  2  0  0  3  0  0  0  0  0  0
  183.4870  173.9870  135.2980 C   0  0  0  0  0  2  0  0  0  0  0  0
  183.7230  178.7250  141.2420 C   0  0  0  0  0  2  0  0  0  0  0  0
  181.8590  179.3860  139.8460 C   0  0  2  0  0  3  0  0  0  0  0  0
  181.5850  179.3200  142.3450 C   0  0  0  0  0  2  0  0  0  0  0  0
  183.0230  178.4880  139.9740 N   0  0  1  0  0  0  0  0  0  0  0  0
  182.7010  175.9280  139.3280 O   0  0  0  0  0  1  0  0  0  0  0  0
  180.9980  177.8220  138.1950 O   0  0  0  0  0  0  0  0  0  0  0  0
  183.4300  176.2100  138.1710 C   0  0  2  0  0  3  0  0  0  0  0  0
  183.0420  175.3240  134.7080 C   0  0  0  0  0  2  0  0  0  0  0  0
  185.5530  175.1590  136.0670 C   0  0  0  0  0  3  0  0  0  0  0  0
  180.8780  179.1560  141.0050 C   0  0  1  0  0  3  0  0  0  0  0  0
  179.8250  180.0690  140.9340 O   0  0  0  0  0  1  0  0  0  0  0  0
  184.9220  176.5280  135.8970 C   0  0  2  0  0  3  0  0  0  0  0  0
  187.5420  177.8810  136.0090 C   0  0  1  0  0  3  0  0  0  0  0  0
  186.8020  177.5590  137.2980 C   0  0  1  0  0  3  0  0  0  0  0  0
  187.3320  178.9560  137.0510 C   0  0  0  0  0  2  0  0  0  0  0  0
  188.8450  177.3950  136.1000 O   0  0  0  0  0  0  0  0  0  0  0  0
  189.1820  177.0420  134.7940 C   0  0  0  0  0  2  0  0  0  0  0  0
  188.9600  175.5580  134.5970 C   0  0  0  0  0  1  0  0  0  0  0  0
  1  5  1  1  0  0  0
  1 16  1  0  0  0  0
  2 10  1  1  0  0  0
  3 14  1  0  0  0  0
  4  1  1  0  0  0  0
  6 21  2  0  0  0  0
  7  8  1  0  0  0  0
  7 19  1  0  0  0  0
  8 18  1  0  0  0  0
  9 26  1  0  0  0  0
  9  4  1  0  0  0  0
 11 24  1  0  0  0  0
 11  7  1  0  0  0  0
 12  6  1  0  0  0  0
 13  2  1  0  0  0  0
 14 16  1  0  0  0  0
 14 22  1  0  0  0  0
 15  2  1  0  0  0  0
 16 13  1  0  0  0  0
 18  3  1  0  0  0  0
 19  4  1  0  0  0  0
 19 17  1  0  0  0  0
 20 12  1  0  0  0  0
 20 11  1  0  0  0  0
 22 15  1  0  0  0  0
 23 22  1  0  0  0  0
 24 21  1  0  0  0  0
 24  9  1  0  0  0  0
 25 28  1  0  0  0  0
 25 27  1  0  0  0  0
 25 26  1  0  0  0  0
 27 26  1  0  0  0  0
 29 28  1  0  0  0  0
 30 29  1  0  0  0  0
M  END
>  <MODEL>
6

>  <REMARK>
 VINA RESULT:      -4.9      5.277      9.657
  Name = 
  3 active torsions:
  status: ('A' for Active; 'I' for Inactive)
    1  A    between atoms: C_6  and  O_21
    2  A    between atoms: C_8  and  C_13
    3  A    between atoms: C_9  and  O_21
                            x       y       z     vdW  Elec       q    Type
                         _______ _______ _______ _____ _____    ______ ____

>  <TORSDO>
F 3

$$$$
=
 OpenBabel10262422023D

 30 34  0  0  1  0  0  0  0  0999 V2000
  183.9030  178.8040  139.2600 C   0  0  2  0  0  3  0  0  0  0  0  0
  183.7330  178.2530  142.9870 C   0  0  2  0  0  3  0  0  0  0  0  0
  181.0980  179.2200  139.7060 C   0  0  0  0  0  2  0  0  0  0  0  0
  184.3860  177.5220  138.5520 C   0  0  2  0  0  3  0  0  0  0  0  0
  184.9060  179.7800  139.3170 O   0  0  0  0  0  1  0  0  0  0  0  0
  184.2150  174.4600  135.6710 C   0  0  0  0  0  3  0  0  0  0  0  0
  182.1430  176.6540  137.6060 C   0  0  1  0  0  3  0  0  0  0  0  0
  181.2910  177.8730  137.9700 C   0  0  0  0  0  2  0  0  0  0  0  0
  184.8060  177.8630  137.1000 C   0  0  2  0  0  3  0  0  0  0  0  0
  184.6860  178.4180  143.9890 O   0  0  0  0  0  1  0  0  0  0  0  0
  182.6430  176.8350  136.1610 C   0  0  2  0  0  3  0  0  0  0  0  0
  182.7140  174.3910  135.5900 C   0  0  0  0  0  2  0  0  0  0  0  0
  184.3160  178.6940  141.6530 C   0  0  0  0  0  2  0  0  0  0  0  0
  182.1420  179.3630  140.8270 C   0  0  2  0  0  3  0  0  0  0  0  0
  182.5130  179.1050  143.3010 C   0  0  0  0  0  2  0  0  0  0  0  0
  183.3240  178.5150  140.5850 N   0  0  1  0  0  0  0  0  0  0  0  0
  182.9220  175.9970  139.8330 O   0  0  0  0  0  1  0  0  0  0  0  0
  180.9340  177.8830  139.3220 O   0  0  0  0  0  0  0  0  0  0  0  0
  183.3260  176.3960  138.5570 C   0  0  2  0  0  3  0  0  0  0  0  0
  182.0960  175.7440  135.2420 C   0  0  0  0  0  2  0  0  0  0  0  0
  184.8740  175.6030  135.9090 C   0  0  0  0  0  3  0  0  0  0  0  0
  181.4940  179.0030  142.1730 C   0  0  1  0  0  3  0  0  0  0  0  0
  180.4310  179.8680  142.4420 O   0  0  0  0  0  1  0  0  0  0  0  0
  184.1820  176.9480  136.0150 C   0  0  2  0  0  3  0  0  0  0  0  0
  186.9550  177.9720  138.3630 C   0  0  1  0  0  3  0  0  0  0  0  0
  186.3250  177.9650  136.9800 C   0  0  1  0  0  3  0  0  0  0  0  0
  186.9790  176.7130  137.5270 C   0  0  0  0  0  2  0  0  0  0  0  0
  188.1990  178.5990  138.2930 O   0  0  0  0  0  0  0  0  0  0  0  0
  188.8590  178.2050  139.4570 C   0  0  0  0  0  2  0  0  0  0  0  0
  187.9330  178.3670  140.6430 C   0  0  0  0  0  1  0  0  0  0  0  0
  1  5  1  1  0  0  0
  1 16  1  0  0  0  0
  2 15  1  0  0  0  0
  2 10  1  1  0  0  0
  3 14  1  0  0  0  0
  4 19  1  0  0  0  0
  4  1  1  0  0  0  0
  6 21  2  0  0  0  0
  7  8  1  0  0  0  0
  7 19  1  0  0  0  0
  8 18  1  0  0  0  0
  9  4  1  0  0  0  0
 11  7  1  0  0  0  0
 12  6  1  0  0  0  0
 13  2  1  0  0  0  0
 14 22  1  0  0  0  0
 16 14  1  0  0  0  0
 16 13  1  0  0  0  0
 18  3  1  0  0  0  0
 19 17  1  0  0  0  0
 20 12  1  0  0  0  0
 20 11  1  0  0  0  0
 21 24  1  0  0  0  0
 22 23  1  0  0  0  0
 22 15  1  0  0  0  0
 24 11  1  0  0  0  0
 24  9  1  0  0  0  0
 26  9  1  0  0  0  0
 26 27  1  0  0  0  0
 26 25  1  0  0  0  0
 27 25  1  0  0  0  0
 28 25  1  0  0  0  0
 28 29  1  0  0  0  0
 29 30  1  0  0  0  0
M  END
>  <MODEL>
7

>  <REMARK>
 VINA RESULT:      -4.8      4.610      9.089
  Name = 
  3 active torsions:
  status: ('A' for Active; 'I' for Inactive)
    1  A    between atoms: C_6  and  O_21
    2  A    between atoms: C_8  and  C_13
    3  A    between atoms: C_9  and  O_21
                            x       y       z     vdW  Elec       q    Type
                         _______ _______ _______ _____ _____    ______ ____

>  <TORSDO>
F 3

$$$$
=
 OpenBabel10262422023D

 30 34  0  0  1  0  0  0  0  0999 V2000
  182.5450  179.0800  139.3250 C   0  0  2  0  0  3  0  0  0  0  0  0
  180.8400  178.7960  142.6770 C   0  0  2  0  0  3  0  0  0  0  0  0
  180.2040  180.6690  138.8390 C   0  0  0  0  0  2  0  0  0  0  0  0
  182.6770  177.6890  138.6740 C   0  0  2  0  0  3  0  0  0  0  0  0
  183.7660  179.5370  139.8380 O   0  0  0  0  0  1  0  0  0  0  0  0
  182.3090  174.8850  135.5580 C   0  0  0  0  0  3  0  0  0  0  0  0
  180.7790  177.8260  136.9250 C   0  0  1  0  0  3  0  0  0  0  0  0
  180.4350  179.3040  137.1230 C   0  0  0  0  0  2  0  0  0  0  0  0
  183.6890  177.7630  137.5040 C   0  0  2  0  0  3  0  0  0  0  0  0
  181.3470  178.5760  143.9560 O   0  0  0  0  0  1  0  0  0  0  0  0
  181.7910  177.7200  135.7690 C   0  0  2  0  0  3  0  0  0  0  0  0
  181.0510  175.4600  134.9640 C   0  0  0  0  0  2  0  0  0  0  0  0
  181.9890  178.8960  141.6840 C   0  0  0  0  0  2  0  0  0  0  0  0
  180.7360  180.3960  140.2570 C   0  0  2  0  0  3  0  0  0  0  0  0
  180.0540  180.0980  142.6590 C   0  0  0  0  0  2  0  0  0  0  0  0
  181.4660  179.1160  140.3300 N   0  0  1  0  0  0  0  0  0  0  0  0
  180.3640  176.9830  139.1870 O   0  0  0  0  0  1  0  0  0  0  0  0
  179.6550  179.5160  138.2640 O   0  0  0  0  0  0  0  0  0  0  0  0
  181.3240  177.1240  138.1820 C   0  0  2  0  0  3  0  0  0  0  0  0
  181.2140  176.9330  134.5940 C   0  0  0  0  0  2  0  0  0  0  0  0
  183.2460  175.6460  136.1420 C   0  0  0  0  0  3  0  0  0  0  0  0
  179.5620  180.3980  141.2480 C   0  0  1  0  0  3  0  0  0  0  0  0
  178.9310  181.6430  141.2440 O   0  0  0  0  0  1  0  0  0  0  0  0
  183.1800  177.1610  136.1690 C   0  0  2  0  0  3  0  0  0  0  0  0
  186.1180  177.6560  136.9390 C   0  0  1  0  0  3  0  0  0  0  0  0
  185.0480  177.2020  137.9190 C   0  0  1  0  0  3  0  0  0  0  0  0
  185.9900  178.3310  138.2860 C   0  0  0  0  0  2  0  0  0  0  0  0
  187.1780  176.7510  136.9720 O   0  0  0  0  0  0  0  0  0  0  0  0
  187.8150  176.9100  135.7410 C   0  0  0  0  0  2  0  0  0  0  0  0
  186.7820  176.9370  134.6360 C   0  0  0  0  0  1  0  0  0  0  0  0
  1  5  1  1  0  0  0
  1 16  1  0  0  0  0
  2 10  1  1  0  0  0
  3 14  1  0  0  0  0
  4  1  1  0  0  0  0
  6 21  2  0  0  0  0
  7  8  1  0  0  0  0
  7 19  1  0  0  0  0
  8 18  1  0  0  0  0
  9 26  1  0  0  0  0
  9  4  1  0  0  0  0
 11 24  1  0  0  0  0
 11  7  1  0  0  0  0
 12  6  1  0  0  0  0
 13  2  1  0  0  0  0
 14 16  1  0  0  0  0
 14 22  1  0  0  0  0
 15  2  1  0  0  0  0
 16 13  1  0  0  0  0
 18  3  1  0  0  0  0
 19  4  1  0  0  0  0
 19 17  1  0  0  0  0
 20 12  1  0  0  0  0
 20 11  1  0  0  0  0
 21 24  1  0  0  0  0
 22 15  1  0  0  0  0
 23 22  1  0  0  0  0
 24  9  1  0  0  0  0
 25 28  1  0  0  0  0
 25 26  1  0  0  0  0
 25 27  1  0  0  0  0
 26 27  1  0  0  0  0
 29 28  1  0  0  0  0
 30 29  1  0  0  0  0
M  END
>  <MODEL>
8

>  <REMARK>
 VINA RESULT:      -4.7      5.806     10.520
  Name = 
  3 active torsions:
  status: ('A' for Active; 'I' for Inactive)
    1  A    between atoms: C_6  and  O_21
    2  A    between atoms: C_8  and  C_13
    3  A    between atoms: C_9  and  O_21
                            x       y       z     vdW  Elec       q    Type
                         _______ _______ _______ _____ _____    ______ ____

>  <TORSDO>
F 3

$$$$
=
 OpenBabel10262422023D

 30 34  0  0  1  0  0  0  0  0999 V2000
  183.4630  177.1420  139.8120 C   0  0  2  0  0  3  0  0  0  0  0  0
  180.7560  179.4950  140.9790 C   0  0  2  0  0  3  0  0  0  0  0  0
  184.6520  178.1220  142.2340 C   0  0  0  0  0  2  0  0  0  0  0  0
  184.0150  177.5980  138.4470 C   0  0  2  0  0  3  0  0  0  0  0  0
  182.6240  176.0270  139.6920 O   0  0  0  0  0  1  0  0  0  0  0  0
  187.0360  178.6050  135.6970 C   0  0  0  0  0  3  0  0  0  0  0  0
  186.2470  178.6640  139.1940 C   0  0  1  0  0  3  0  0  0  0  0  0
  186.1930  178.2280  140.6600 C   0  0  0  0  0  2  0  0  0  0  0  0
  184.8360  176.4480  137.8140 C   0  0  2  0  0  3  0  0  0  0  0  0
  179.3800  179.5000  140.7620 O   0  0  0  0  0  1  0  0  0  0  0  0
  187.0520  177.6100  138.4100 C   0  0  2  0  0  3  0  0  0  0  0  0
  187.9870  179.1960  136.7030 C   0  0  0  0  0  2  0  0  0  0  0  0
  181.3680  178.2610  140.3310 C   0  0  0  0  0  2  0  0  0  0  0  0
  183.1350  178.1680  141.9830 C   0  0  2  0  0  3  0  0  0  0  0  0
  181.0340  179.4600  142.4740 C   0  0  0  0  0  2  0  0  0  0  0  0
  182.8210  178.2500  140.5440 N   0  0  1  0  0  0  0  0  0  0  0  0
  184.1890  179.9860  139.0650 O   0  0  0  0  0  1  0  0  0  0  0  0
  185.3370  179.0320  141.4190 O   0  0  0  0  0  0  0  0  0  0  0  0
  184.8700  178.8840  138.5420 C   0  0  2  0  0  3  0  0  0  0  0  0
  188.3260  178.2090  137.8190 C   0  0  0  0  0  2  0  0  0  0  0  0
  186.2190  177.5820  135.9880 C   0  0  0  0  0  3  0  0  0  0  0  0
  182.5330  179.3680  142.7300 C   0  0  1  0  0  3  0  0  0  0  0  0
  182.7520  179.2400  144.1020 O   0  0  0  0  0  1  0  0  0  0  0  0
  186.2480  176.8570  137.3200 C   0  0  2  0  0  3  0  0  0  0  0  0
  184.7100  174.4180  136.3670 C   0  0  1  0  0  3  0  0  0  0  0  0
  184.0260  175.7230  136.7400 C   0  0  1  0  0  3  0  0  0  0  0  0
  183.5030  174.4070  137.2770 C   0  0  0  0  0  2  0  0  0  0  0  0
  184.3230  174.0540  135.0780 O   0  0  0  0  0  0  0  0  0  0  0  0
  185.3630  173.2500  134.6120 C   0  0  0  0  0  2  0  0  0  0  0  0
  186.6850  173.9510  134.8400 C   0  0  0  0  0  1  0  0  0  0  0  0
  1  5  1  6  0  0  0
  1 16  1  0  0  0  0
  2 10  1  1  0  0  0
  2 15  1  0  0  0  0
  4 19  1  0  0  0  0
  4  1  1  0  0  0  0
  6 21  2  0  0  0  0
  6 12  1  0  0  0  0
  7  8  1  0  0  0  0
  8 18  1  0  0  0  0
  9  4  1  0  0  0  0
 11  7  1  0  0  0  0
 12 20  1  0  0  0  0
 13 16  1  0  0  0  0
 13  2  1  0  0  0  0
 14  3  1  0  0  0  0
 14 22  1  0  0  0  0
 15 22  1  0  0  0  0
 16 14  1  0  0  0  0
 18  3  1  0  0  0  0
 19 17  1  0  0  0  0
 19  7  1  0  0  0  0
 20 11  1  0  0  0  0
 21 24  1  0  0  0  0
 22 23  1  0  0  0  0
 24  9  1  0  0  0  0
 24 11  1  0  0  0  0
 25 26  1  0  0  0  0
 25 27  1  0  0  0  0
 26 27  1  0  0  0  0
 26  9  1  0  0  0  0
 28 25  1  0  0  0  0
 29 30  1  0  0  0  0
 29 28  1  0  0  0  0
M  END
>  <MODEL>
9

>  <REMARK>
 VINA RESULT:      -4.6      4.675      8.764
  Name = 
  3 active torsions:
  status: ('A' for Active; 'I' for Inactive)
    1  A    between atoms: C_6  and  O_21
    2  A    between atoms: C_8  and  C_13
    3  A    between atoms: C_9  and  O_21
                            x       y       z     vdW  Elec       q    Type
                         _______ _______ _______ _____ _____    ______ ____

>  <TORSDO>
F 3

$$$$
