=
 OpenBabel10262420393D

 55 62  0  0  1  0  0  0  0  0999 V2000
  188.3870  177.9190  134.8240 C   0  0  0  0  0  2  0  0  0  0  0  0
  188.9590  180.1040  137.1510 O   0  0  0  0  0  1  0  0  0  0  0  0
  182.7710  176.2580  136.9080 C   0  0  2  0  0  0  0  0  0  0  0  0
  185.6530  174.7950  136.4340 C   0  0  1  0  0  3  0  0  0  0  0  0
  184.4000  174.6840  137.2910 C   0  0  0  0  0  2  0  0  0  0  0  0
  188.0650  176.1750  137.7990 O   0  0  0  0  0  0  0  0  0  0  0  0
  181.8060  177.9770  135.7540 C   0  0  0  0  0  2  0  0  0  0  0  0
  181.7150  176.5960  136.0320 O   0  0  0  0  0  0  0  0  0  0  0  0
  187.1520  175.3450  138.2540 O   0  0  0  0  0  0  0  0  0  0  0  0
  189.0810  178.2060  138.6080 C   0  0  1  0  0  3  0  0  0  0  0  0
  183.8540  177.3400  136.7250 C   0  0  2  0  0  3  0  0  0  0  0  0
  185.7610  175.9520  135.4040 C   0  0  1  0  0  3  0  0  0  0  0  0
  186.9480  174.4650  137.1860 C   0  0  1  0  0  3  0  0  0  0  0  0
  188.6740  176.7580  138.9140 C   0  0  1  0  0  3  0  0  0  0  0  0
  186.8860  178.1890  134.9790 C   0  0  0  0  0  2  0  0  0  0  0  0
  189.2420  177.9750  136.0980 C   0  0  0  0  0  2  0  0  0  0  0  0
  188.6180  178.7560  137.2540 C   0  0  2  0  0  3  0  0  0  0  0  0
  183.0310  178.5510  136.4280 C   0  0  0  0  0  2  0  0  0  0  0  0
  184.7560  177.1180  135.5000 C   0  0  2  0  0  3  0  0  0  0  0  0
  187.8450  177.9170  139.4570 C   0  0  1  0  0  3  0  0  0  0  0  0
  183.2540  174.9780  136.5340 O   0  0  0  0  0  0  0  0  0  0  0  0
  186.1800  177.2910  135.9870 C   0  0  1  0  0  3  0  0  0  0  0  0
  182.0690  174.9190  138.8730 O   0  0  0  0  0  0  0  0  0  0  0  0
  180.4330  176.6840  138.4840 S   0  0  0  0  0  0  0  0  0  0  0  0
  180.6820  174.9900  139.0660 C   0  0  0  0  0  2  0  0  0  0  0  0
  182.1920  176.2300  138.3780 C   0  0  2  0  0  0  0  0  0  0  0  0
  182.9870  177.1020  139.3640 C   0  0  0  0  0  2  0  0  0  0  0  0
  182.1640  178.2390  139.9700 C   0  0  1  0  0  3  0  0  0  0  0  0
  181.0840  179.0820  142.1020 C   0  0  0  0  0  1  0  0  0  0  0  0
  182.1560  178.1860  141.4980 C   0  0  0  0  0  2  0  0  0  0  0  0
  182.6580  179.4700  139.5310 O   0  0  0  0  0  0  0  0  0  0  0  0
  184.0400  179.3830  139.7090 C   0  0  0  0  0  1  0  0  0  0  0  0
  186.9310  173.0220  137.6810 C   0  0  0  0  0  2  0  0  0  0  0  0
  187.9850  172.1810  136.9790 C   0  0  0  0  0  2  0  0  0  0  0  0
  188.8660  173.0040  136.2790 O   0  0  0  0  0  1  0  0  0  0  0  0
  188.0940  178.1420  140.9650 C   0  0  1  0  0  3  0  0  0  0  0  0
  187.4790  177.0480  141.8420 C   0  0  0  0  0  2  0  0  0  0  0  0
  186.5200  177.6020  142.8400 C   0  0  0  0  0  0  0  0  0  0  0  0
  184.8440  179.3680  143.4200 C   0  0  0  0  0  3  0  0  0  0  0  0
  186.7620  177.8280  145.2960 C   0  0  0  0  0  0  0  0  0  0  0  0
  186.4100  176.9230  144.1650 C   0  0  0  0  0  2  0  0  0  0  0  0
  184.9700  179.4840  144.7470 C   0  0  0  0  0  3  0  0  0  0  0  0
  185.7650  178.6550  142.5130 C   0  0  0  0  0  3  0  0  0  0  0  0
  187.8350  177.4080  146.2360 C   0  0  0  0  0  1  0  0  0  0  0  0
  186.0540  178.9220  145.5790 C   0  0  0  0  0  3  0  0  0  0  0  0
  189.4780  178.3020  141.2760 O   0  0  0  0  0  0  0  0  0  0  0  0
  190.4880  176.4590  142.5290 C   0  0  0  0  0  3  0  0  0  0  0  0
  191.2310  176.8300  144.8080 C   0  0  0  0  0  0  0  0  0  0  0  0
  190.2220  178.6390  143.5430 C   0  0  0  0  0  3  0  0  0  0  0  0
  190.8040  178.1630  144.7210 C   0  0  0  0  0  3  0  0  0  0  0  0
  191.0690  175.9810  143.7060 C   0  0  0  0  0  3  0  0  0  0  0  0
  190.0620  177.7940  142.4400 C   0  0  0  0  0  0  0  0  0  0  0  0
  191.8450  176.3230  146.0460 C   0  0  0  0  0  0  0  0  0  0  0  0
  191.8540  177.0280  147.0900 O   0  0  0  0  0  1  0  0  0  0  0  0
  192.4250  175.0610  146.0730 O   0  0  0  0  0  0  0  0  0  0  0  0
  1 15  1  0  0  0  0
  1 16  1  0  0  0  0
  2 17  1  0  0  0  0
  3  8  1  6  0  0  0
  3 26  1  0  0  0  0
  4 13  1  0  0  0  0
  4  5  1  1  0  0  0
  6  9  1  0  0  0  0
  6 14  1  0  0  0  0
  7  8  1  0  0  0  0
  7 18  1  0  0  0  0
 10 14  1  0  0  0  0
 10 20  1  0  0  0  0
 11  3  1  0  0  0  0
 12 19  1  0  0  0  0
 12 22  1  0  0  0  0
 12  4  1  0  0  0  0
 13 33  1  0  0  0  0
 13  9  1  0  0  0  0
 14 20  1  0  0  0  0
 15 22  1  0  0  0  0
 16 17  1  0  0  0  0
 17 10  1  0  0  0  0
 18 11  1  0  0  0  0
 19 22  1  0  0  0  0
 19 11  1  0  0  0  0
 20 36  1  0  0  0  0
 21  3  1  0  0  0  0
 21  5  1  0  0  0  0
 23 25  1  0  0  0  0
 24 25  1  0  0  0  0
 26 24  1  0  0  0  0
 26 23  1  0  0  0  0
 26 27  1  0  0  0  0
 27 28  1  0  0  0  0
 28 30  1  0  0  0  0
 30 29  1  0  0  0  0
 31 32  1  0  0  0  0
 31 28  1  0  0  0  0
 34 33  1  0  0  0  0
 35 34  1  0  0  0  0
 36 46  1  0  0  0  0
 36 37  1  0  0  0  0
 37 38  1  0  0  0  0
 38 41  1  0  0  0  0
 39 42  2  0  0  0  0
 40 45  2  0  0  0  0
 40 44  1  0  0  0  0
 41 40  1  0  0  0  0
 42 45  1  0  0  0  0
 43 38  2  0  0  0  0
 43 39  1  0  0  0  0
 46 52  1  0  0  0  0
 47 51  1  0  0  0  0
 48 53  1  0  0  0  0
 49 50  2  0  0  0  0
 50 48  1  0  0  0  0
 51 48  2  0  0  0  0
 52 47  2  0  0  0  0
 52 49  1  0  0  0  0
 53 55  2  0  0  0  0
 53 54  1  0  0  0  0
M  END
>  <MODEL>
1

>  <REMARK>
 VINA RESULT:      -7.2      0.000      0.000
  Name = 
  13 active torsions:
  status: ('A' for Active; 'I' for Inactive)
    1  A    between atoms: C_2  and  C_28
    2  A    between atoms: C_6  and  C_53
    3  A    between atoms: C_10  and  C_32
    4  A    between atoms: C_11  and  C_29
    5  A    between atoms: C_16  and  C_17
    6  A    between atoms: C_17  and  C_23
    7  A    between atoms: O_25  and  C_29
    8  A    between atoms: C_28  and  C_49
    9  A    between atoms: C_29  and  C_38
   10  A    between atoms: O_33  and  C_49
   11  A    between atoms: O_33  and  C_52
   12  A    between atoms: C_38  and  C_53
   13  A    between atoms: C_45  and  C_49
                            x       y       z     vdW  Elec       q    Type
                         _______ _______ _______ _____ _____    ______ ____

>  <TORSDO>
F 13

$$$$
=
 OpenBabel10262420393D

 55 62  0  0  1  0  0  0  0  0999 V2000
  188.2950  177.9710  134.8530 C   0  0  0  0  0  2  0  0  0  0  0  0
  188.9100  180.1280  137.1950 O   0  0  0  0  0  1  0  0  0  0  0  0
  182.6920  176.3270  136.9870 C   0  0  2  0  0  0  0  0  0  0  0  0
  185.5580  174.8490  136.4630 C   0  0  1  0  0  3  0  0  0  0  0  0
  184.3140  174.7380  137.3350 C   0  0  0  0  0  2  0  0  0  0  0  0
  187.9960  176.1980  137.8140 O   0  0  0  0  0  0  0  0  0  0  0  0
  181.7260  178.0650  135.8620 C   0  0  0  0  0  2  0  0  0  0  0  0
  181.6280  176.6820  136.1260 O   0  0  0  0  0  0  0  0  0  0  0  0
  187.0830  175.3700  138.2720 O   0  0  0  0  0  0  0  0  0  0  0  0
  189.0350  178.2140  138.6320 C   0  0  1  0  0  3  0  0  0  0  0  0
  183.7800  177.4040  136.8010 C   0  0  2  0  0  3  0  0  0  0  0  0
  185.6620  176.0160  135.4440 C   0  0  1  0  0  3  0  0  0  0  0  0
  186.8590  174.5020  137.1970 C   0  0  1  0  0  3  0  0  0  0  0  0
  188.6210  176.7660  138.9270 C   0  0  1  0  0  3  0  0  0  0  0  0
  186.7980  178.2490  135.0290 C   0  0  0  0  0  2  0  0  0  0  0  0
  189.1650  178.0080  136.1170 C   0  0  0  0  0  2  0  0  0  0  0  0
  188.5600  178.7810  137.2890 C   0  0  2  0  0  3  0  0  0  0  0  0
  182.9630  178.6240  136.5270 C   0  0  0  0  0  2  0  0  0  0  0  0
  184.6670  177.1880  135.5640 C   0  0  2  0  0  3  0  0  0  0  0  0
  187.8080  177.9250  139.4920 C   0  0  1  0  0  3  0  0  0  0  0  0
  183.1610  175.0480  136.5940 O   0  0  0  0  0  0  0  0  0  0  0  0
  186.0970  177.3460  136.0360 C   0  0  1  0  0  3  0  0  0  0  0  0
  181.0520  177.1730  138.6420 O   0  0  0  0  0  0  0  0  0  0  0  0
  183.2460  177.0290  139.6940 S   0  0  0  0  0  0  0  0  0  0  0  0
  181.6820  177.9350  139.6370 C   0  0  0  0  0  2  0  0  0  0  0  0
  182.1300  176.2880  138.4620 C   0  0  2  0  0  0  0  0  0  0  0  0
  181.7460  174.8750  138.9330 C   0  0  0  0  0  2  0  0  0  0  0  0
  180.2650  174.5500  138.7350 C   0  0  1  0  0  3  0  0  0  0  0  0
  180.8330  172.4510  137.4340 C   0  0  0  0  0  1  0  0  0  0  0  0
  180.0240  173.7400  137.4610 C   0  0  0  0  0  2  0  0  0  0  0  0
  179.7770  173.8600  139.8470 O   0  0  0  0  0  0  0  0  0  0  0  0
  179.4910  174.8540  140.7850 C   0  0  0  0  0  1  0  0  0  0  0  0
  186.8380  173.0550  137.6770 C   0  0  0  0  0  2  0  0  0  0  0  0
  187.9380  172.2350  137.0220 C   0  0  0  0  0  2  0  0  0  0  0  0
  189.0060  173.0600  136.6730 O   0  0  0  0  0  1  0  0  0  0  0  0
  188.0760  178.1320  140.9990 C   0  0  1  0  0  3  0  0  0  0  0  0
  187.4540  177.0400  141.8730 C   0  0  0  0  0  2  0  0  0  0  0  0
  186.4730  177.5940  142.8500 C   0  0  0  0  0  0  0  0  0  0  0  0
  184.7070  179.2950  143.3500 C   0  0  0  0  0  3  0  0  0  0  0  0
  186.7170  177.9630  145.2880 C   0  0  0  0  0  0  0  0  0  0  0  0
  186.4070  176.9810  144.2090 C   0  0  0  0  0  2  0  0  0  0  0  0
  184.8340  179.4880  144.6680 C   0  0  0  0  0  3  0  0  0  0  0  0
  185.6600  178.5860  142.4740 C   0  0  0  0  0  3  0  0  0  0  0  0
  187.8160  177.6510  146.2390 C   0  0  0  0  0  1  0  0  0  0  0  0
  185.9520  179.0300  145.5190 C   0  0  0  0  0  3  0  0  0  0  0  0
  189.4650  178.2690  141.2970 O   0  0  0  0  0  0  0  0  0  0  0  0
  190.3160  176.3930  142.6170 C   0  0  0  0  0  3  0  0  0  0  0  0
  191.2280  176.8040  144.8270 C   0  0  0  0  0  0  0  0  0  0  0  0
  190.3730  178.6460  143.4970 C   0  0  0  0  0  3  0  0  0  0  0  0
  190.9600  178.1710  144.6730 C   0  0  0  0  0  3  0  0  0  0  0  0
  190.9010  175.9180  143.7930 C   0  0  0  0  0  3  0  0  0  0  0  0
  190.0490  177.7630  142.4620 C   0  0  0  0  0  0  0  0  0  0  0  0
  191.8460  176.2990  146.0640 C   0  0  0  0  0  0  0  0  0  0  0  0
  191.8000  176.9780  147.1240 O   0  0  0  0  0  1  0  0  0  0  0  0
  192.4890  175.0680  146.0720 O   0  0  0  0  0  0  0  0  0  0  0  0
  1 15  1  0  0  0  0
  1 16  1  0  0  0  0
  2 17  1  0  0  0  0
  3  8  1  6  0  0  0
  3 26  1  0  0  0  0
  4 13  1  0  0  0  0
  4  5  1  1  0  0  0
  6  9  1  0  0  0  0
  6 14  1  0  0  0  0
  7  8  1  0  0  0  0
  7 18  1  0  0  0  0
 10 14  1  0  0  0  0
 10 20  1  0  0  0  0
 11  3  1  0  0  0  0
 12 19  1  0  0  0  0
 12 22  1  0  0  0  0
 12  4  1  0  0  0  0
 13 33  1  0  0  0  0
 13  9  1  0  0  0  0
 14 20  1  0  0  0  0
 15 22  1  0  0  0  0
 16 17  1  0  0  0  0
 17 10  1  0  0  0  0
 18 11  1  0  0  0  0
 19 22  1  0  0  0  0
 19 11  1  0  0  0  0
 20 36  1  0  0  0  0
 21  3  1  0  0  0  0
 21  5  1  0  0  0  0
 23 25  1  0  0  0  0
 25 24  1  0  0  0  0
 26 23  1  0  0  0  0
 26 27  1  0  0  0  0
 26 24  1  0  0  0  0
 28 27  1  0  0  0  0
 28 31  1  0  0  0  0
 29 30  1  0  0  0  0
 30 28  1  0  0  0  0
 31 32  1  0  0  0  0
 34 33  1  0  0  0  0
 35 34  1  0  0  0  0
 36 46  1  0  0  0  0
 36 37  1  0  0  0  0
 37 38  1  0  0  0  0
 38 41  1  0  0  0  0
 39 42  2  0  0  0  0
 40 45  2  0  0  0  0
 40 44  1  0  0  0  0
 41 40  1  0  0  0  0
 42 45  1  0  0  0  0
 43 38  2  0  0  0  0
 43 39  1  0  0  0  0
 46 52  1  0  0  0  0
 47 51  1  0  0  0  0
 48 53  1  0  0  0  0
 49 50  2  0  0  0  0
 50 48  1  0  0  0  0
 51 48  2  0  0  0  0
 52 47  2  0  0  0  0
 52 49  1  0  0  0  0
 53 55  2  0  0  0  0
 53 54  1  0  0  0  0
M  END
>  <MODEL>
2

>  <REMARK>
 VINA RESULT:      -6.6      0.928      2.091
  Name = 
  13 active torsions:
  status: ('A' for Active; 'I' for Inactive)
    1  A    between atoms: C_2  and  C_28
    2  A    between atoms: C_6  and  C_53
    3  A    between atoms: C_10  and  C_32
    4  A    between atoms: C_11  and  C_29
    5  A    between atoms: C_16  and  C_17
    6  A    between atoms: C_17  and  C_23
    7  A    between atoms: O_25  and  C_29
    8  A    between atoms: C_28  and  C_49
    9  A    between atoms: C_29  and  C_38
   10  A    between atoms: O_33  and  C_49
   11  A    between atoms: O_33  and  C_52
   12  A    between atoms: C_38  and  C_53
   13  A    between atoms: C_45  and  C_49
                            x       y       z     vdW  Elec       q    Type
                         _______ _______ _______ _____ _____    ______ ____

>  <TORSDO>
F 13

$$$$
=
 OpenBabel10262420393D

 55 62  0  0  1  0  0  0  0  0999 V2000
  188.3600  177.7760  134.5940 C   0  0  0  0  0  2  0  0  0  0  0  0
  188.6950  179.9000  137.0220 O   0  0  0  0  0  1  0  0  0  0  0  0
  182.5490  176.1050  136.0390 C   0  0  2  0  0  0  0  0  0  0  0  0
  185.4580  174.6340  135.8320 C   0  0  1  0  0  3  0  0  0  0  0  0
  184.1220  174.5110  136.5510 C   0  0  0  0  0  2  0  0  0  0  0  0
  187.7210  175.9620  137.4750 O   0  0  0  0  0  0  0  0  0  0  0  0
  181.7180  177.8590  134.8340 C   0  0  0  0  0  2  0  0  0  0  0  0
  181.5920  176.4720  135.0660 O   0  0  0  0  0  0  0  0  0  0  0  0
  186.7610  175.1290  137.8120 O   0  0  0  0  0  0  0  0  0  0  0  0
  188.6550  177.9660  138.4370 C   0  0  1  0  0  3  0  0  0  0  0  0
  183.6500  177.1840  135.9970 C   0  0  2  0  0  3  0  0  0  0  0  0
  185.6780  175.8140  134.8480 C   0  0  1  0  0  3  0  0  0  0  0  0
  186.6650  174.2760  136.7070 C   0  0  1  0  0  3  0  0  0  0  0  0
  188.2120  176.5150  138.6620 C   0  0  1  0  0  3  0  0  0  0  0  0
  186.8520  178.0530  134.5990 C   0  0  0  0  0  2  0  0  0  0  0  0
  189.0770  177.7950  135.9520 C   0  0  0  0  0  2  0  0  0  0  0  0
  188.3390  178.5520  137.0560 C   0  0  2  0  0  3  0  0  0  0  0  0
  182.8690  178.4080  135.6460 C   0  0  0  0  0  2  0  0  0  0  0  0
  184.6740  176.9850  134.8680 C   0  0  2  0  0  3  0  0  0  0  0  0
  187.3370  177.6660  139.1440 C   0  0  1  0  0  3  0  0  0  0  0  0
  183.0620  174.8310  135.6860 O   0  0  0  0  0  0  0  0  0  0  0  0
  186.0400  177.1350  135.5050 C   0  0  1  0  0  3  0  0  0  0  0  0
  182.1000  174.8540  138.1320 O   0  0  0  0  0  0  0  0  0  0  0  0
  180.0170  175.8260  137.3210 S   0  0  0  0  0  0  0  0  0  0  0  0
  180.7650  174.4300  138.1940 C   0  0  0  0  0  2  0  0  0  0  0  0
  181.8190  176.0460  137.4390 C   0  0  2  0  0  0  0  0  0  0  0  0
  182.1100  177.2640  138.3310 C   0  0  0  0  0  2  0  0  0  0  0  0
  180.8800  177.7760  139.0820 C   0  0  1  0  0  3  0  0  0  0  0  0
  181.3600  178.3200  141.5100 C   0  0  0  0  0  1  0  0  0  0  0  0
  180.8450  177.2780  140.5270 C   0  0  0  0  0  2  0  0  0  0  0  0
  180.8500  179.1720  139.0500 O   0  0  0  0  0  0  0  0  0  0  0  0
  180.3960  179.4890  137.7670 C   0  0  0  0  0  1  0  0  0  0  0  0
  186.5910  172.8220  137.1620 C   0  0  0  0  0  2  0  0  0  0  0  0
  187.8340  172.0480  136.7560 C   0  0  0  0  0  2  0  0  0  0  0  0
  187.5170  171.1160  135.7680 O   0  0  0  0  0  1  0  0  0  0  0  0
  187.4270  177.8520  140.6750 C   0  0  1  0  0  3  0  0  0  0  0  0
  188.6460  178.6720  141.1060 C   0  0  0  0  0  2  0  0  0  0  0  0
  189.6440  177.8450  141.8460 C   0  0  0  0  0  0  0  0  0  0  0  0
  190.2020  175.6610  142.9330 C   0  0  0  0  0  3  0  0  0  0  0  0
  191.1810  178.5000  143.6760 C   0  0  0  0  0  0  0  0  0  0  0  0
  190.9520  178.4700  142.2030 C   0  0  0  0  0  2  0  0  0  0  0  0
  191.0380  176.0150  143.9160 C   0  0  0  0  0  3  0  0  0  0  0  0
  189.3600  176.5710  142.1310 C   0  0  0  0  0  3  0  0  0  0  0  0
  191.4590  179.8080  144.3250 C   0  0  0  0  0  1  0  0  0  0  0  0
  191.2940  177.3870  144.4010 C   0  0  0  0  0  3  0  0  0  0  0  0
  186.2380  178.4110  141.2320 O   0  0  0  0  0  0  0  0  0  0  0  0
  186.5350  177.5460  143.5010 C   0  0  0  0  0  3  0  0  0  0  0  0
  185.5020  178.7040  145.3660 C   0  0  0  0  0  0  0  0  0  0  0  0
  185.2210  179.5370  143.1040 C   0  0  0  0  0  3  0  0  0  0  0  0
  184.9710  179.6470  144.4740 C   0  0  0  0  0  3  0  0  0  0  0  0
  186.2840  177.6530  144.8720 C   0  0  0  0  0  3  0  0  0  0  0  0
  186.0040  178.4900  142.6080 C   0  0  0  0  0  0  0  0  0  0  0  0
  185.2420  178.8140  146.8110 C   0  0  0  0  0  0  0  0  0  0  0  0
  184.4220  178.0400  147.3730 O   0  0  0  0  0  0  0  0  0  0  0  0
  185.8980  179.7770  147.5680 O   0  0  0  0  0  1  0  0  0  0  0  0
  1 15  1  0  0  0  0
  1 16  1  0  0  0  0
  2 17  1  0  0  0  0
  3  8  1  6  0  0  0
  3 26  1  0  0  0  0
  4  5  1  1  0  0  0
  4 13  1  0  0  0  0
  6  9  1  0  0  0  0
  6 14  1  0  0  0  0
  7  8  1  0  0  0  0
  7 18  1  0  0  0  0
 10 14  1  0  0  0  0
 10 20  1  0  0  0  0
 11  3  1  0  0  0  0
 12 19  1  0  0  0  0
 12 22  1  0  0  0  0
 12  4  1  0  0  0  0
 13 33  1  0  0  0  0
 13  9  1  0  0  0  0
 14 20  1  0  0  0  0
 15 22  1  0  0  0  0
 16 17  1  0  0  0  0
 17 10  1  0  0  0  0
 18 11  1  0  0  0  0
 19 22  1  0  0  0  0
 19 11  1  0  0  0  0
 20 36  1  0  0  0  0
 21  3  1  0  0  0  0
 21  5  1  0  0  0  0
 23 25  1  0  0  0  0
 24 26  1  0  0  0  0
 24 25  1  0  0  0  0
 26 23  1  0  0  0  0
 26 27  1  0  0  0  0
 27 28  1  0  0  0  0
 28 30  1  0  0  0  0
 30 29  1  0  0  0  0
 31 28  1  0  0  0  0
 32 31  1  0  0  0  0
 34 33  1  0  0  0  0
 35 34  1  0  0  0  0
 36 37  1  0  0  0  0
 36 46  1  0  0  0  0
 37 38  1  0  0  0  0
 38 43  2  0  0  0  0
 38 41  1  0  0  0  0
 39 42  2  0  0  0  0
 40 44  1  0  0  0  0
 40 45  2  0  0  0  0
 41 40  1  0  0  0  0
 42 45  1  0  0  0  0
 43 39  1  0  0  0  0
 46 52  1  0  0  0  0
 47 51  1  0  0  0  0
 48 53  1  0  0  0  0
 49 50  2  0  0  0  0
 50 48  1  0  0  0  0
 51 48  2  0  0  0  0
 52 49  1  0  0  0  0
 52 47  2  0  0  0  0
 53 54  2  0  0  0  0
 53 55  1  0  0  0  0
M  END
>  <MODEL>
3

>  <REMARK>
 VINA RESULT:      -6.0      1.803      3.368
  Name = 
  13 active torsions:
  status: ('A' for Active; 'I' for Inactive)
    1  A    between atoms: C_2  and  C_28
    2  A    between atoms: C_6  and  C_53
    3  A    between atoms: C_10  and  C_32
    4  A    between atoms: C_11  and  C_29
    5  A    between atoms: C_16  and  C_17
    6  A    between atoms: C_17  and  C_23
    7  A    between atoms: O_25  and  C_29
    8  A    between atoms: C_28  and  C_49
    9  A    between atoms: C_29  and  C_38
   10  A    between atoms: O_33  and  C_49
   11  A    between atoms: O_33  and  C_52
   12  A    between atoms: C_38  and  C_53
   13  A    between atoms: C_45  and  C_49
                            x       y       z     vdW  Elec       q    Type
                         _______ _______ _______ _____ _____    ______ ____

>  <TORSDO>
F 13

$$$$
=
 OpenBabel10262420393D

 55 62  0  0  1  0  0  0  0  0999 V2000
  179.1200  178.9870  142.0770 C   0  0  0  0  0  2  0  0  0  0  0  0
  181.6730  178.3420  143.9710 O   0  0  0  0  0  1  0  0  0  0  0  0
  180.6770  174.9960  137.5710 C   0  0  2  0  0  0  0  0  0  0  0  0
  180.2540  178.2250  137.8390 C   0  0  1  0  0  3  0  0  0  0  0  0
  181.0150  177.1980  137.0100 C   0  0  0  0  0  2  0  0  0  0  0  0
  181.8930  179.5810  140.0880 O   0  0  0  0  0  0  0  0  0  0  0  0
  179.6290  173.2960  138.6800 C   0  0  0  0  0  2  0  0  0  0  0  0
  179.7700  173.9220  137.4230 O   0  0  0  0  0  0  0  0  0  0  0  0
  182.2100  179.2170  138.8640 O   0  0  0  0  0  0  0  0  0  0  0  0
  182.9520  179.4080  142.2470 C   0  0  1  0  0  3  0  0  0  0  0  0
  180.6650  175.3740  139.0660 C   0  0  2  0  0  3  0  0  0  0  0  0
  179.3450  177.7330  138.9970 C   0  0  1  0  0  3  0  0  0  0  0  0
  181.0540  179.5000  138.1290 C   0  0  1  0  0  3  0  0  0  0  0  0
  183.0940  179.7960  140.7690 C   0  0  1  0  0  3  0  0  0  0  0  0
  179.2040  177.5580  141.5270 C   0  0  0  0  0  2  0  0  0  0  0  0
  180.4460  179.6830  142.4150 C   0  0  0  0  0  2  0  0  0  0  0  0
  181.6280  178.7380  142.6340 C   0  0  2  0  0  3  0  0  0  0  0  0
  180.4310  174.0500  139.7160 C   0  0  0  0  0  2  0  0  0  0  0  0
  179.4850  176.2720  139.4720 C   0  0  2  0  0  3  0  0  0  0  0  0
  183.6890  178.4880  141.2770 C   0  0  1  0  0  3  0  0  0  0  0  0
  180.2170  176.0690  136.7650 O   0  0  0  0  0  0  0  0  0  0  0  0
  180.0760  177.4030  140.2880 C   0  0  1  0  0  3  0  0  0  0  0  0
  182.2910  174.7140  135.7100 O   0  0  0  0  0  0  0  0  0  0  0  0
  182.2800  172.6920  137.0720 S   0  0  0  0  0  0  0  0  0  0  0  0
  182.4790  173.3590  135.4020 C   0  0  0  0  0  2  0  0  0  0  0  0
  182.0970  174.5020  137.0870 C   0  0  2  0  0  0  0  0  0  0  0  0
  183.2610  175.1090  137.8900 C   0  0  0  0  0  2  0  0  0  0  0  0
  184.4720  175.4690  137.0290 C   0  0  1  0  0  3  0  0  0  0  0  0
  185.3840  177.3430  135.5880 C   0  0  0  0  0  1  0  0  0  0  0  0
  184.6160  176.9800  136.8510 C   0  0  0  0  0  2  0  0  0  0  0  0
  185.6320  174.9350  137.5920 O   0  0  0  0  0  0  0  0  0  0  0  0
  185.9580  173.8500  136.7750 C   0  0  0  0  0  1  0  0  0  0  0  0
  181.4100  180.2210  136.8330 C   0  0  0  0  0  2  0  0  0  0  0  0
  180.2090  180.9520  136.2540 C   0  0  0  0  0  2  0  0  0  0  0  0
  180.2750  182.3070  136.5740 O   0  0  0  0  0  1  0  0  0  0  0  0
  185.2240  178.5750  141.4250 C   0  0  1  0  0  3  0  0  0  0  0  0
  185.8250  177.3670  142.1480 C   0  0  0  0  0  2  0  0  0  0  0  0
  186.5260  177.7580  143.4050 C   0  0  0  0  0  0  0  0  0  0  0  0
  188.4160  177.3530  144.9950 C   0  0  0  0  0  3  0  0  0  0  0  0
  185.5760  178.4230  145.5950 C   0  0  0  0  0  0  0  0  0  0  0  0
  185.9470  178.8670  144.2210 C   0  0  0  0  0  2  0  0  0  0  0  0
  187.9040  177.7190  146.1760 C   0  0  0  0  0  3  0  0  0  0  0  0
  187.6620  177.1420  143.7430 C   0  0  0  0  0  3  0  0  0  0  0  0
  184.1770  178.6280  146.0550 C   0  0  0  0  0  1  0  0  0  0  0  0
  186.4820  177.9900  146.4720 C   0  0  0  0  0  3  0  0  0  0  0  0
  185.8860  178.7800  140.1770 O   0  0  0  0  0  0  0  0  0  0  0  0
  188.2480  178.4410  140.7140 C   0  0  0  0  0  3  0  0  0  0  0  0
  189.6330  177.1130  139.2290 C   0  0  0  0  0  0  0  0  0  0  0  0
  187.2860  177.4700  138.7190 C   0  0  0  0  0  3  0  0  0  0  0  0
  188.5250  176.9100  138.3940 C   0  0  0  0  0  3  0  0  0  0  0  0
  189.4870  177.8830  140.3900 C   0  0  0  0  0  3  0  0  0  0  0  0
  187.1390  178.2360  139.8790 C   0  0  0  0  0  0  0  0  0  0  0  0
  190.9390  176.5250  138.8920 C   0  0  0  0  0  0  0  0  0  0  0  0
  192.0010  177.1730  139.0920 O   0  0  0  0  0  1  0  0  0  0  0  0
  191.0120  175.2500  138.3450 O   0  0  0  0  0  0  0  0  0  0  0  0
  1 16  1  0  0  0  0
  3 21  1  6  0  0  0
  3 11  1  0  0  0  0
  4  5  1  1  0  0  0
  4 13  1  0  0  0  0
  4 12  1  0  0  0  0
  6 14  1  0  0  0  0
  7 18  1  0  0  0  0
  8  3  1  0  0  0  0
  8  7  1  0  0  0  0
  9  6  1  0  0  0  0
 10 17  1  0  0  0  0
 11 19  1  0  0  0  0
 11 18  1  0  0  0  0
 12 19  1  0  0  0  0
 12 22  1  0  0  0  0
 13  9  1  0  0  0  0
 14 20  1  0  0  0  0
 14 10  1  0  0  0  0
 15  1  1  0  0  0  0
 16 17  1  0  0  0  0
 17  2  1  0  0  0  0
 19 22  1  0  0  0  0
 20 36  1  0  0  0  0
 20 10  1  0  0  0  0
 21  5  1  0  0  0  0
 22 15  1  0  0  0  0
 23 26  1  0  0  0  0
 24 26  1  0  0  0  0
 25 23  1  0  0  0  0
 25 24  1  0  0  0  0
 26  3  1  0  0  0  0
 26 27  1  0  0  0  0
 28 31  1  0  0  0  0
 28 27  1  0  0  0  0
 29 30  1  0  0  0  0
 30 28  1  0  0  0  0
 32 31  1  0  0  0  0
 33 13  1  0  0  0  0
 34 35  1  0  0  0  0
 34 33  1  0  0  0  0
 36 37  1  0  0  0  0
 37 38  1  0  0  0  0
 38 43  2  0  0  0  0
 38 41  1  0  0  0  0
 39 42  2  0  0  0  0
 40 44  1  0  0  0  0
 40 45  2  0  0  0  0
 41 40  1  0  0  0  0
 42 45  1  0  0  0  0
 43 39  1  0  0  0  0
 46 36  1  0  0  0  0
 48 51  2  0  0  0  0
 49 52  1  0  0  0  0
 50 49  2  0  0  0  0
 50 48  1  0  0  0  0
 51 47  1  0  0  0  0
 52 46  1  0  0  0  0
 52 47  2  0  0  0  0
 53 54  1  0  0  0  0
 53 48  1  0  0  0  0
 55 53  2  0  0  0  0
M  END
>  <MODEL>
4

>  <REMARK>
 VINA RESULT:      -5.4      2.533      6.346
  Name = 
  13 active torsions:
  status: ('A' for Active; 'I' for Inactive)
    1  A    between atoms: C_2  and  C_28
    2  A    between atoms: C_6  and  C_53
    3  A    between atoms: C_10  and  C_32
    4  A    between atoms: C_11  and  C_29
    5  A    between atoms: C_16  and  C_17
    6  A    between atoms: C_17  and  C_23
    7  A    between atoms: O_25  and  C_29
    8  A    between atoms: C_28  and  C_49
    9  A    between atoms: C_29  and  C_38
   10  A    between atoms: O_33  and  C_49
   11  A    between atoms: O_33  and  C_52
   12  A    between atoms: C_38  and  C_53
   13  A    between atoms: C_45  and  C_49
                            x       y       z     vdW  Elec       q    Type
                         _______ _______ _______ _____ _____    ______ ____

>  <TORSDO>
F 13

$$$$
=
 OpenBabel10262420393D

 55 62  0  0  1  0  0  0  0  0999 V2000
  181.7460  179.3150  143.0960 C   0  0  0  0  0  2  0  0  0  0  0  0
  184.7120  178.0480  143.4310 O   0  0  0  0  0  1  0  0  0  0  0  0
  179.9970  175.5650  138.4560 C   0  0  2  0  0  0  0  0  0  0  0  0
  180.4270  178.7760  138.8770 C   0  0  1  0  0  3  0  0  0  0  0  0
  180.4470  177.7160  137.7840 C   0  0  0  0  0  2  0  0  0  0  0  0
  183.2060  179.5960  139.9670 O   0  0  0  0  0  0  0  0  0  0  0  0
  179.3250  173.9800  139.9570 C   0  0  0  0  0  2  0  0  0  0  0  0
  178.9420  174.6890  138.7980 O   0  0  0  0  0  0  0  0  0  0  0  0
  182.7880  179.3020  138.7560 O   0  0  0  0  0  0  0  0  0  0  0  0
  185.1420  179.0300  141.2880 C   0  0  1  0  0  3  0  0  0  0  0  0
  180.8110  175.7930  139.7460 C   0  0  2  0  0  3  0  0  0  0  0  0
  180.1420  178.3440  140.3410 C   0  0  1  0  0  3  0  0  0  0  0  0
  181.5030  179.8550  138.7100 C   0  0  1  0  0  3  0  0  0  0  0  0
  184.6020  179.5280  139.9410 C   0  0  1  0  0  3  0  0  0  0  0  0
  181.2530  177.9540  142.5920 C   0  0  0  0  0  2  0  0  0  0  0  0
  183.1720  179.7290  142.7060 C   0  0  0  0  0  2  0  0  0  0  0  0
  184.0860  178.5730  142.3010 C   0  0  2  0  0  3  0  0  0  0  0  0
  180.6710  174.4760  140.4350 C   0  0  0  0  0  2  0  0  0  0  0  0
  180.2020  176.8430  140.6890 C   0  0  2  0  0  3  0  0  0  0  0  0
  185.0920  178.0920  140.0850 C   0  0  1  0  0  3  0  0  0  0  0  0
  179.4230  176.7750  137.9880 O   0  0  0  0  0  0  0  0  0  0  0  0
  181.3360  177.7670  141.0810 C   0  0  1  0  0  3  0  0  0  0  0  0
  180.6510  175.4800  136.0660 O   0  0  0  0  0  0  0  0  0  0  0  0
  180.2700  173.2120  136.8710 S   0  0  0  0  0  0  0  0  0  0  0  0
  180.1620  174.3210  135.4470 C   0  0  0  0  0  2  0  0  0  0  0  0
  180.8510  174.8760  137.3200 C   0  0  2  0  0  0  0  0  0  0  0  0
  182.3530  174.8030  137.6450 C   0  0  0  0  0  2  0  0  0  0  0  0
  183.1630  174.0280  136.6050 C   0  0  1  0  0  3  0  0  0  0  0  0
  184.0060  176.3820  136.1980 C   0  0  0  0  0  1  0  0  0  0  0  0
  183.9200  174.9610  135.6600 C   0  0  0  0  0  2  0  0  0  0  0  0
  184.0520  173.1610  137.2450 O   0  0  0  0  0  0  0  0  0  0  0  0
  183.8700  171.9310  136.6080 C   0  0  0  0  0  1  0  0  0  0  0  0
  181.3010  180.6230  137.4080 C   0  0  0  0  0  2  0  0  0  0  0  0
  181.0480  182.0990  137.6650 C   0  0  0  0  0  2  0  0  0  0  0  0
  179.7850  182.4570  137.1960 O   0  0  0  0  0  1  0  0  0  0  0  0
  186.4760  177.8900  139.4300 C   0  0  1  0  0  3  0  0  0  0  0  0
  186.4710  178.1640  137.9240 C   0  0  0  0  0  2  0  0  0  0  0  0
  187.6570  177.5700  137.2420 C   0  0  0  0  0  0  0  0  0  0  0  0
  189.4610  177.8150  135.5240 C   0  0  0  0  0  3  0  0  0  0  0  0
  188.0310  175.2430  136.4780 C   0  0  0  0  0  0  0  0  0  0  0  0
  188.0760  176.1900  137.6280 C   0  0  0  0  0  2  0  0  0  0  0  0
  189.6670  176.5580  135.1180 C   0  0  0  0  0  3  0  0  0  0  0  0
  188.3300  178.2950  136.3440 C   0  0  0  0  0  3  0  0  0  0  0  0
  187.2140  174.0080  136.6050 C   0  0  0  0  0  1  0  0  0  0  0  0
  188.8100  175.3890  135.4050 C   0  0  0  0  0  3  0  0  0  0  0  0
  187.5020  178.6550  140.0650 O   0  0  0  0  0  0  0  0  0  0  0  0
  189.5570  177.4100  140.5200 C   0  0  0  0  0  3  0  0  0  0  0  0
  190.2330  177.0170  142.8170 C   0  0  0  0  0  0  0  0  0  0  0  0
  188.1950  178.2460  142.3350 C   0  0  0  0  0  3  0  0  0  0  0  0
  189.0960  177.7070  143.2590 C   0  0  0  0  0  3  0  0  0  0  0  0
  190.4580  176.8700  141.4420 C   0  0  0  0  0  3  0  0  0  0  0  0
  188.4200  178.1030  140.9630 C   0  0  0  0  0  0  0  0  0  0  0  0
  191.1840  176.4480  143.7850 C   0  0  0  0  0  0  0  0  0  0  0  0
  191.6210  175.2750  143.6380 O   0  0  0  0  0  0  0  0  0  0  0  0
  191.6070  177.2000  144.8730 O   0  0  0  0  0  1  0  0  0  0  0  0
  3 21  1  6  0  0  0
  3  8  1  0  0  0  0
  3 11  1  0  0  0  0
  4  5  1  6  0  0  0
  4 12  1  0  0  0  0
  5 21  1  0  0  0  0
  7 18  1  0  0  0  0
  8  7  1  0  0  0  0
  9  6  1  0  0  0  0
 10 17  1  0  0  0  0
 11 18  1  0  0  0  0
 11 19  1  0  0  0  0
 12 19  1  0  0  0  0
 12 22  1  0  0  0  0
 13  9  1  0  0  0  0
 13  4  1  0  0  0  0
 14  6  1  0  0  0  0
 14 20  1  0  0  0  0
 14 10  1  0  0  0  0
 15  1  1  0  0  0  0
 16  1  1  0  0  0  0
 17 16  1  0  0  0  0
 17  2  1  0  0  0  0
 19 22  1  0  0  0  0
 20 10  1  0  0  0  0
 22 15  1  0  0  0  0
 23 26  1  0  0  0  0
 24 26  1  0  0  0  0
 25 23  1  0  0  0  0
 25 24  1  0  0  0  0
 26 27  1  0  0  0  0
 26  3  1  0  0  0  0
 28 31  1  0  0  0  0
 28 27  1  0  0  0  0
 30 29  1  0  0  0  0
 30 28  1  0  0  0  0
 32 31  1  0  0  0  0
 33 34  1  0  0  0  0
 33 13  1  0  0  0  0
 35 34  1  0  0  0  0
 36 46  1  0  0  0  0
 36 20  1  0  0  0  0
 37 36  1  0  0  0  0
 38 41  1  0  0  0  0
 38 37  1  0  0  0  0
 39 43  1  0  0  0  0
 40 44  1  0  0  0  0
 40 41  1  0  0  0  0
 42 45  1  0  0  0  0
 42 39  2  0  0  0  0
 43 38  2  0  0  0  0
 45 40  2  0  0  0  0
 46 52  1  0  0  0  0
 47 52  2  0  0  0  0
 47 51  1  0  0  0  0
 48 50  1  0  0  0  0
 48 53  1  0  0  0  0
 49 50  2  0  0  0  0
 51 48  2  0  0  0  0
 52 49  1  0  0  0  0
 53 55  1  0  0  0  0
 54 53  2  0  0  0  0
M  END
>  <MODEL>
5

>  <REMARK>
 VINA RESULT:      -5.3      2.149      6.616
  Name = 
  13 active torsions:
  status: ('A' for Active; 'I' for Inactive)
    1  A    between atoms: C_2  and  C_28
    2  A    between atoms: C_6  and  C_53
    3  A    between atoms: C_10  and  C_32
    4  A    between atoms: C_11  and  C_29
    5  A    between atoms: C_16  and  C_17
    6  A    between atoms: C_17  and  C_23
    7  A    between atoms: O_25  and  C_29
    8  A    between atoms: C_28  and  C_49
    9  A    between atoms: C_29  and  C_38
   10  A    between atoms: O_33  and  C_49
   11  A    between atoms: O_33  and  C_52
   12  A    between atoms: C_38  and  C_53
   13  A    between atoms: C_45  and  C_49
                            x       y       z     vdW  Elec       q    Type
                         _______ _______ _______ _____ _____    ______ ____

>  <TORSDO>
F 13

$$$$
=
 OpenBabel10262420393D

 55 62  0  0  1  0  0  0  0  0999 V2000
  182.1280  178.4670  137.7260 C   0  0  0  0  0  2  0  0  0  0  0  0
  182.4590  177.9160  140.9050 O   0  0  0  0  0  1  0  0  0  0  0  0
  186.3940  174.3150  135.9350 C   0  0  2  0  0  0  0  0  0  0  0  0
  185.9880  177.5480  135.7040 C   0  0  1  0  0  3  0  0  0  0  0  0
  187.0880  176.4960  135.7330 C   0  0  0  0  0  2  0  0  0  0  0  0
  185.4860  179.0030  138.3900 O   0  0  0  0  0  0  0  0  0  0  0  0
  184.8290  172.6520  135.9740 C   0  0  0  0  0  2  0  0  0  0  0  0
  185.8610  173.2290  135.2040 O   0  0  0  0  0  0  0  0  0  0  0  0
  186.5890  178.5940  137.8030 O   0  0  0  0  0  0  0  0  0  0  0  0
  184.6180  178.9230  140.6380 C   0  0  1  0  0  3  0  0  0  0  0  0
  185.2990  174.7510  136.9300 C   0  0  2  0  0  3  0  0  0  0  0  0
  184.5090  177.0950  135.8400 C   0  0  1  0  0  3  0  0  0  0  0  0
  186.3490  178.8400  136.4470 C   0  0  1  0  0  3  0  0  0  0  0  0
  185.8070  179.2540  139.7270 C   0  0  1  0  0  3  0  0  0  0  0  0
  182.5540  177.0190  137.4600 C   0  0  0  0  0  2  0  0  0  0  0  0
  182.7980  179.1860  138.9060 C   0  0  0  0  0  2  0  0  0  0  0  0
  183.4180  178.2590  139.9520 C   0  0  2  0  0  3  0  0  0  0  0  0
  184.6320  173.4520  137.2420 C   0  0  0  0  0  2  0  0  0  0  0  0
  184.2210  175.6560  136.3120 C   0  0  2  0  0  3  0  0  0  0  0  0
  185.8080  177.9700  140.5500 C   0  0  1  0  0  3  0  0  0  0  0  0
  186.6980  175.3520  135.0170 O   0  0  0  0  0  0  0  0  0  0  0  0
  184.0520  176.8220  137.2630 C   0  0  1  0  0  3  0  0  0  0  0  0
  188.6660  173.3390  135.7560 O   0  0  0  0  0  0  0  0  0  0  0  0
  187.4780  172.2640  137.5930 S   0  0  0  0  0  0  0  0  0  0  0  0
  188.7030  172.0400  136.2820 C   0  0  0  0  0  2  0  0  0  0  0  0
  187.7030  173.8130  136.6650 C   0  0  2  0  0  0  0  0  0  0  0  0
  188.3220  174.8640  137.6010 C   0  0  0  0  0  2  0  0  0  0  0  0
  189.7860  175.1720  137.2860 C   0  0  1  0  0  3  0  0  0  0  0  0
  190.6220  176.7580  139.0760 C   0  0  0  0  0  1  0  0  0  0  0  0
  190.1530  176.6140  137.6350 C   0  0  0  0  0  2  0  0  0  0  0  0
  190.6170  174.2810  137.9680 O   0  0  0  0  0  0  0  0  0  0  0  0
  191.7150  174.0990  137.1240 C   0  0  0  0  0  1  0  0  0  0  0  0
  187.5580  179.5110  135.8050 C   0  0  0  0  0  2  0  0  0  0  0  0
  188.8450  179.1520  136.5300 C   0  0  0  0  0  2  0  0  0  0  0  0
  189.0560  180.0290  137.5930 O   0  0  0  0  0  1  0  0  0  0  0  0
  186.7450  178.0750  141.7730 C   0  0  1  0  0  3  0  0  0  0  0  0
  186.3350  177.1490  142.9210 C   0  0  0  0  0  2  0  0  0  0  0  0
  186.1770  177.8870  144.2080 C   0  0  0  0  0  0  0  0  0  0  0  0
  186.7680  178.0760  146.6320 C   0  0  0  0  0  3  0  0  0  0  0  0
  184.1410  178.8820  145.2110 C   0  0  0  0  0  0  0  0  0  0  0  0
  185.2580  179.0630  144.2380 C   0  0  0  0  0  2  0  0  0  0  0  0
  185.6720  178.6210  147.1710 C   0  0  0  0  0  3  0  0  0  0  0  0
  186.8850  177.5070  145.2750 C   0  0  0  0  0  3  0  0  0  0  0  0
  182.7440  179.0030  144.7190 C   0  0  0  0  0  1  0  0  0  0  0  0
  184.3520  178.7670  146.5220 C   0  0  0  0  0  3  0  0  0  0  0  0
  188.1160  177.8620  141.4360 O   0  0  0  0  0  0  0  0  0  0  0  0
  189.3470  175.9840  142.4050 C   0  0  0  0  0  3  0  0  0  0  0  0
  190.9540  176.3960  144.1770 C   0  0  0  0  0  0  0  0  0  0  0  0
  189.7140  178.2390  143.1980 C   0  0  0  0  0  3  0  0  0  0  0  0
  190.6600  177.7650  144.1120 C   0  0  0  0  0  3  0  0  0  0  0  0
  190.2910  175.5080  143.3190 C   0  0  0  0  0  3  0  0  0  0  0  0
  189.0540  177.3550  142.3400 C   0  0  0  0  0  0  0  0  0  0  0  0
  191.9480  175.8900  145.1370 C   0  0  0  0  0  0  0  0  0  0  0  0
  192.5340  174.7940  144.9310 O   0  0  0  0  0  0  0  0  0  0  0  0
  192.2480  176.6180  146.2810 O   0  0  0  0  0  1  0  0  0  0  0  0
  1 16  1  0  0  0  0
  3 21  1  6  0  0  0
  3 26  1  0  0  0  0
  3 11  1  0  0  0  0
  4  5  1  1  0  0  0
  4 12  1  0  0  0  0
  4 13  1  0  0  0  0
  6 14  1  0  0  0  0
  7 18  1  0  0  0  0
  8  3  1  0  0  0  0
  8  7  1  0  0  0  0
  9  6  1  0  0  0  0
 11 18  1  0  0  0  0
 12 19  1  0  0  0  0
 12 22  1  0  0  0  0
 13  9  1  0  0  0  0
 14 20  1  0  0  0  0
 14 10  1  0  0  0  0
 15  1  1  0  0  0  0
 16 17  1  0  0  0  0
 17 10  1  0  0  0  0
 17  2  1  0  0  0  0
 19 11  1  0  0  0  0
 19 22  1  0  0  0  0
 20 10  1  0  0  0  0
 20 36  1  0  0  0  0
 21  5  1  0  0  0  0
 22 15  1  0  0  0  0
 23 25  1  0  0  0  0
 23 26  1  0  0  0  0
 25 24  1  0  0  0  0
 26 24  1  0  0  0  0
 26 27  1  0  0  0  0
 28 27  1  0  0  0  0
 28 30  1  0  0  0  0
 28 31  1  0  0  0  0
 30 29  1  0  0  0  0
 32 31  1  0  0  0  0
 33 13  1  0  0  0  0
 33 34  1  0  0  0  0
 34 35  1  0  0  0  0
 36 37  1  0  0  0  0
 37 38  1  0  0  0  0
 38 41  1  0  0  0  0
 38 43  2  0  0  0  0
 39 42  2  0  0  0  0
 40 45  2  0  0  0  0
 41 40  1  0  0  0  0
 43 39  1  0  0  0  0
 44 40  1  0  0  0  0
 45 42  1  0  0  0  0
 46 36  1  0  0  0  0
 46 52  1  0  0  0  0
 47 51  1  0  0  0  0
 48 53  1  0  0  0  0
 49 50  2  0  0  0  0
 50 48  1  0  0  0  0
 51 48  2  0  0  0  0
 52 47  2  0  0  0  0
 52 49  1  0  0  0  0
 53 55  1  0  0  0  0
 54 53  2  0  0  0  0
M  END
>  <MODEL>
6

>  <REMARK>
 VINA RESULT:      -5.2      2.072      5.168
  Name = 
  13 active torsions:
  status: ('A' for Active; 'I' for Inactive)
    1  A    between atoms: C_2  and  C_28
    2  A    between atoms: C_6  and  C_53
    3  A    between atoms: C_10  and  C_32
    4  A    between atoms: C_11  and  C_29
    5  A    between atoms: C_16  and  C_17
    6  A    between atoms: C_17  and  C_23
    7  A    between atoms: O_25  and  C_29
    8  A    between atoms: C_28  and  C_49
    9  A    between atoms: C_29  and  C_38
   10  A    between atoms: O_33  and  C_49
   11  A    between atoms: O_33  and  C_52
   12  A    between atoms: C_38  and  C_53
   13  A    between atoms: C_45  and  C_49
                            x       y       z     vdW  Elec       q    Type
                         _______ _______ _______ _____ _____    ______ ____

>  <TORSDO>
F 13

$$$$
=
 OpenBabel10262420393D

 55 62  0  0  1  0  0  0  0  0999 V2000
  178.9320  178.8260  142.6780 C   0  0  0  0  0  2  0  0  0  0  0  0
  181.3660  177.9520  144.6350 O   0  0  0  0  0  1  0  0  0  0  0  0
  181.0460  175.7960  137.6780 C   0  0  2  0  0  0  0  0  0  0  0  0
  180.4240  178.9000  138.4830 C   0  0  1  0  0  3  0  0  0  0  0  0
  181.3020  178.0760  137.5520 C   0  0  0  0  0  2  0  0  0  0  0  0
  181.8100  179.8880  141.0690 O   0  0  0  0  0  0  0  0  0  0  0  0
  180.0140  173.8800  138.3710 C   0  0  0  0  0  2  0  0  0  0  0  0
  180.2150  174.7310  137.2630 O   0  0  0  0  0  0  0  0  0  0  0  0
  182.2380  179.7690  139.8320 O   0  0  0  0  0  0  0  0  0  0  0  0
  182.7100  179.3670  143.2440 C   0  0  1  0  0  3  0  0  0  0  0  0
  180.9000  175.8930  139.2100 C   0  0  2  0  0  3  0  0  0  0  0  0
  179.4590  178.1670  139.4540 C   0  0  1  0  0  3  0  0  0  0  0  0
  181.1270  180.1330  139.0630 C   0  0  1  0  0  3  0  0  0  0  0  0
  182.9420  180.0250  141.8770 C   0  0  1  0  0  3  0  0  0  0  0  0
  179.1370  177.5260  141.8900 C   0  0  0  0  0  2  0  0  0  0  0  0
  180.1880  179.5030  143.2460 C   0  0  0  0  0  2  0  0  0  0  0  0
  181.4010  178.5840  143.3920 C   0  0  2  0  0  3  0  0  0  0  0  0
  180.6920  174.4640  139.5900 C   0  0  0  0  0  2  0  0  0  0  0  0
  179.6450  176.6520  139.6690 C   0  0  2  0  0  3  0  0  0  0  0  0
  183.5690  178.6710  142.1910 C   0  0  1  0  0  3  0  0  0  0  0  0
  180.5890  176.9780  137.0410 O   0  0  0  0  0  0  0  0  0  0  0  0
  180.1080  177.6380  140.7210 C   0  0  1  0  0  3  0  0  0  0  0  0
  183.4220  175.4940  138.3180 O   0  0  0  0  0  0  0  0  0  0  0  0
  183.3100  176.7630  136.2400 S   0  0  0  0  0  0  0  0  0  0  0  0
  184.2260  176.5080  137.7780 C   0  0  0  0  0  2  0  0  0  0  0  0
  182.5250  175.4580  137.2350 C   0  0  2  0  0  0  0  0  0  0  0  0
  182.6470  174.1230  136.4830 C   0  0  0  0  0  2  0  0  0  0  0  0
  183.6880  173.1780  137.0850 C   0  0  1  0  0  3  0  0  0  0  0  0
  181.7970  171.5080  136.8500 C   0  0  0  0  0  1  0  0  0  0  0  0
  183.3050  171.7110  136.8940 C   0  0  0  0  0  2  0  0  0  0  0  0
  184.9410  173.4300  136.5210 O   0  0  0  0  0  0  0  0  0  0  0  0
  185.1640  172.3560  135.6550 C   0  0  0  0  0  1  0  0  0  0  0  0
  181.5390  181.0930  137.9520 C   0  0  0  0  0  2  0  0  0  0  0  0
  180.7130  182.3680  137.9840 C   0  0  0  0  0  2  0  0  0  0  0  0
  181.1560  183.2500  137.0000 O   0  0  0  0  0  1  0  0  0  0  0  0
  185.0810  178.7940  142.4810 C   0  0  1  0  0  3  0  0  0  0  0  0
  185.6900  177.5040  143.0380 C   0  0  0  0  0  2  0  0  0  0  0  0
  185.9820  177.6060  144.4970 C   0  0  0  0  0  0  0  0  0  0  0  0
  185.4850  178.7060  146.6890 C   0  0  0  0  0  3  0  0  0  0  0  0
  188.1620  177.5370  145.6730 C   0  0  0  0  0  0  0  0  0  0  0  0
  187.0590  176.7410  145.0630 C   0  0  0  0  0  2  0  0  0  0  0  0
  186.6600  178.6610  147.3260 C   0  0  0  0  0  3  0  0  0  0  0  0
  185.2550  178.4300  145.2570 C   0  0  0  0  0  3  0  0  0  0  0  0
  189.5500  177.3150  145.1880 C   0  0  0  0  0  1  0  0  0  0  0  0
  187.9700  178.3250  146.7310 C   0  0  0  0  0  3  0  0  0  0  0  0
  185.8250  179.2380  141.3470 O   0  0  0  0  0  0  0  0  0  0  0  0
  187.2670  178.1990  139.6660 C   0  0  0  0  0  3  0  0  0  0  0  0
  189.5300  177.5590  140.2650 C   0  0  0  0  0  0  0  0  0  0  0  0
  188.0750  178.5890  141.9130 C   0  0  0  0  0  3  0  0  0  0  0  0
  189.3100  178.0350  141.5650 C   0  0  0  0  0  3  0  0  0  0  0  0
  188.5010  177.6430  139.3180 C   0  0  0  0  0  3  0  0  0  0  0  0
  187.0480  178.6770  140.9680 C   0  0  0  0  0  0  0  0  0  0  0  0
  190.8280  176.9750  139.8930 C   0  0  0  0  0  0  0  0  0  0  0  0
  190.8850  175.9950  139.1030 O   0  0  0  0  0  0  0  0  0  0  0  0
  192.0050  177.4980  140.4140 O   0  0  0  0  0  1  0  0  0  0  0  0
  1 16  1  0  0  0  0
  3 21  1  6  0  0  0
  3 11  1  0  0  0  0
  4  5  1  1  0  0  0
  4 13  1  0  0  0  0
  4 12  1  0  0  0  0
  6 14  1  0  0  0  0
  7 18  1  0  0  0  0
  8  3  1  0  0  0  0
  8  7  1  0  0  0  0
  9  6  1  0  0  0  0
 10 17  1  0  0  0  0
 11 18  1  0  0  0  0
 11 19  1  0  0  0  0
 12 19  1  0  0  0  0
 12 22  1  0  0  0  0
 13  9  1  0  0  0  0
 14 20  1  0  0  0  0
 14 10  1  0  0  0  0
 15  1  1  0  0  0  0
 16 17  1  0  0  0  0
 17  2  1  0  0  0  0
 19 22  1  0  0  0  0
 20 36  1  0  0  0  0
 20 10  1  0  0  0  0
 21  5  1  0  0  0  0
 22 15  1  0  0  0  0
 24 26  1  0  0  0  0
 24 25  1  0  0  0  0
 25 23  1  0  0  0  0
 26  3  1  0  0  0  0
 26 23  1  0  0  0  0
 27 28  1  0  0  0  0
 27 26  1  0  0  0  0
 29 30  1  0  0  0  0
 30 28  1  0  0  0  0
 31 28  1  0  0  0  0
 32 31  1  0  0  0  0
 33 34  1  0  0  0  0
 33 13  1  0  0  0  0
 35 34  1  0  0  0  0
 36 37  1  0  0  0  0
 37 38  1  0  0  0  0
 38 41  1  0  0  0  0
 38 43  2  0  0  0  0
 39 42  2  0  0  0  0
 40 45  2  0  0  0  0
 41 40  1  0  0  0  0
 43 39  1  0  0  0  0
 44 40  1  0  0  0  0
 45 42  1  0  0  0  0
 46 36  1  0  0  0  0
 47 52  1  0  0  0  0
 48 50  2  0  0  0  0
 50 49  1  0  0  0  0
 51 47  2  0  0  0  0
 51 48  1  0  0  0  0
 52 46  1  0  0  0  0
 52 49  2  0  0  0  0
 53 48  1  0  0  0  0
 53 55  1  0  0  0  0
 54 53  2  0  0  0  0
M  END
>  <MODEL>
7

>  <REMARK>
 VINA RESULT:      -5.0      2.577      6.544
  Name = 
  13 active torsions:
  status: ('A' for Active; 'I' for Inactive)
    1  A    between atoms: C_2  and  C_28
    2  A    between atoms: C_6  and  C_53
    3  A    between atoms: C_10  and  C_32
    4  A    between atoms: C_11  and  C_29
    5  A    between atoms: C_16  and  C_17
    6  A    between atoms: C_17  and  C_23
    7  A    between atoms: O_25  and  C_29
    8  A    between atoms: C_28  and  C_49
    9  A    between atoms: C_29  and  C_38
   10  A    between atoms: O_33  and  C_49
   11  A    between atoms: O_33  and  C_52
   12  A    between atoms: C_38  and  C_53
   13  A    between atoms: C_45  and  C_49
                            x       y       z     vdW  Elec       q    Type
                         _______ _______ _______ _____ _____    ______ ____

>  <TORSDO>
F 13

$$$$
=
 OpenBabel10262420393D

 55 62  0  0  1  0  0  0  0  0999 V2000
  182.0190  178.6360  137.9190 C   0  0  0  0  0  2  0  0  0  0  0  0
  182.1980  177.8490  141.0600 O   0  0  0  0  0  1  0  0  0  0  0  0
  186.0520  174.3220  135.9750 C   0  0  2  0  0  0  0  0  0  0  0  0
  185.8760  177.5840  135.9580 C   0  0  1  0  0  3  0  0  0  0  0  0
  186.9000  176.4570  135.9470 C   0  0  0  0  0  2  0  0  0  0  0  0
  185.3790  178.8860  138.7220 O   0  0  0  0  0  0  0  0  0  0  0  0
  184.3760  172.7750  135.8490 C   0  0  0  0  0  2  0  0  0  0  0  0
  185.4720  173.3290  135.1540 O   0  0  0  0  0  0  0  0  0  0  0  0
  186.4720  178.4410  138.1430 O   0  0  0  0  0  0  0  0  0  0  0  0
  184.4280  178.7160  140.9310 C   0  0  1  0  0  3  0  0  0  0  0  0
  184.9540  174.7670  136.9630 C   0  0  2  0  0  3  0  0  0  0  0  0
  184.3650  177.2290  136.0160 C   0  0  1  0  0  3  0  0  0  0  0  0
  186.2980  178.7940  136.8000 C   0  0  1  0  0  3  0  0  0  0  0  0
  185.6690  179.0230  140.0830 C   0  0  1  0  0  3  0  0  0  0  0  0
  182.3530  177.1820  137.5660 C   0  0  0  0  0  2  0  0  0  0  0  0
  182.6940  179.2240  139.1670 C   0  0  0  0  0  2  0  0  0  0  0  0
  183.2110  178.1870  140.1640 C   0  0  2  0  0  3  0  0  0  0  0  0
  184.1890  173.5000  137.1630 C   0  0  0  0  0  2  0  0  0  0  0  0
  183.9630  175.7850  136.3770 C   0  0  2  0  0  3  0  0  0  0  0  0
  185.5530  177.6900  140.8130 C   0  0  1  0  0  3  0  0  0  0  0  0
  186.4580  175.3950  135.1410 O   0  0  0  0  0  0  0  0  0  0  0  0
  183.8400  176.8930  137.4020 C   0  0  1  0  0  3  0  0  0  0  0  0
  188.1440  173.0020  135.8140 O   0  0  0  0  0  0  0  0  0  0  0  0
  186.8760  172.2550  137.7570 S   0  0  0  0  0  0  0  0  0  0  0  0
  188.0060  171.7540  136.4360 C   0  0  0  0  0  2  0  0  0  0  0  0
  187.2960  173.6810  136.7080 C   0  0  2  0  0  0  0  0  0  0  0  0
  188.0990  174.6900  137.5450 C   0  0  0  0  0  2  0  0  0  0  0  0
  189.5500  174.8410  137.0890 C   0  0  1  0  0  3  0  0  0  0  0  0
  190.1820  176.3500  139.0240 C   0  0  0  0  0  1  0  0  0  0  0  0
  190.1440  176.1840  137.5110 C   0  0  0  0  0  2  0  0  0  0  0  0
  190.3200  173.7910  137.5950 O   0  0  0  0  0  0  0  0  0  0  0  0
  191.4610  173.7650  136.7900 C   0  0  0  0  0  1  0  0  0  0  0  0
  187.5720  179.4200  136.2440 C   0  0  0  0  0  2  0  0  0  0  0  0
  188.7890  179.0330  137.0690 C   0  0  0  0  0  2  0  0  0  0  0  0
  189.1130  180.0590  137.9550 O   0  0  0  0  0  1  0  0  0  0  0  0
  186.4500  177.6450  142.0700 C   0  0  1  0  0  3  0  0  0  0  0  0
  187.6850  178.5430  141.9550 C   0  0  0  0  0  2  0  0  0  0  0  0
  188.9460  177.8020  142.2480 C   0  0  0  0  0  0  0  0  0  0  0  0
  190.0470  175.6250  142.8070 C   0  0  0  0  0  3  0  0  0  0  0  0
  190.8910  178.4880  143.6220 C   0  0  0  0  0  0  0  0  0  0  0  0
  190.2240  178.5730  142.2910 C   0  0  0  0  0  2  0  0  0  0  0  0
  191.1020  175.9970  143.5420 C   0  0  0  0  0  3  0  0  0  0  0  0
  188.9050  176.4780  142.4220 C   0  0  0  0  0  3  0  0  0  0  0  0
  191.2100  179.7510  144.3380 C   0  0  0  0  0  1  0  0  0  0  0  0
  191.3420  177.3360  144.1190 C   0  0  0  0  0  3  0  0  0  0  0  0
  185.7350  177.9440  143.2680 O   0  0  0  0  0  0  0  0  0  0  0  0
  185.8180  178.7110  145.5890 C   0  0  0  0  0  3  0  0  0  0  0  0
  187.5680  177.8920  147.0560 C   0  0  0  0  0  0  0  0  0  0  0  0
  187.4630  177.1510  144.7470 C   0  0  0  0  0  3  0  0  0  0  0  0
  188.0800  177.1240  146.0010 C   0  0  0  0  0  3  0  0  0  0  0  0
  186.4350  178.6860  146.8430 C   0  0  0  0  0  3  0  0  0  0  0  0
  186.3300  177.9410  144.5330 C   0  0  0  0  0  0  0  0  0  0  0  0
  188.2140  177.8670  148.3790 C   0  0  0  0  0  0  0  0  0  0  0  0
  187.5640  177.5200  149.4010 O   0  0  0  0  0  1  0  0  0  0  0  0
  189.5480  178.2310  148.5130 O   0  0  0  0  0  0  0  0  0  0  0  0
  1 16  1  0  0  0  0
  3 21  1  6  0  0  0
  3 26  1  0  0  0  0
  3 11  1  0  0  0  0
  4  5  1  1  0  0  0
  4 12  1  0  0  0  0
  4 13  1  0  0  0  0
  6 14  1  0  0  0  0
  7 18  1  0  0  0  0
  8  7  1  0  0  0  0
  8  3  1  0  0  0  0
  9  6  1  0  0  0  0
 11 18  1  0  0  0  0
 12 19  1  0  0  0  0
 12 22  1  0  0  0  0
 13  9  1  0  0  0  0
 14 20  1  0  0  0  0
 14 10  1  0  0  0  0
 15  1  1  0  0  0  0
 16 17  1  0  0  0  0
 17 10  1  0  0  0  0
 17  2  1  0  0  0  0
 19 11  1  0  0  0  0
 19 22  1  0  0  0  0
 20 10  1  0  0  0  0
 20 36  1  0  0  0  0
 21  5  1  0  0  0  0
 22 15  1  0  0  0  0
 23 25  1  0  0  0  0
 23 26  1  0  0  0  0
 25 24  1  0  0  0  0
 26 27  1  0  0  0  0
 26 24  1  0  0  0  0
 28 30  1  0  0  0  0
 28 27  1  0  0  0  0
 28 31  1  0  0  0  0
 30 29  1  0  0  0  0
 32 31  1  0  0  0  0
 33 13  1  0  0  0  0
 33 34  1  0  0  0  0
 34 35  1  0  0  0  0
 36 46  1  0  0  0  0
 37 36  1  0  0  0  0
 37 38  1  0  0  0  0
 38 41  1  0  0  0  0
 38 43  2  0  0  0  0
 39 42  2  0  0  0  0
 40 45  2  0  0  0  0
 40 44  1  0  0  0  0
 41 40  1  0  0  0  0
 42 45  1  0  0  0  0
 43 39  1  0  0  0  0
 46 52  1  0  0  0  0
 47 51  1  0  0  0  0
 48 53  1  0  0  0  0
 49 50  2  0  0  0  0
 50 48  1  0  0  0  0
 51 48  2  0  0  0  0
 52 49  1  0  0  0  0
 52 47  2  0  0  0  0
 53 55  2  0  0  0  0
 53 54  1  0  0  0  0
M  END
>  <MODEL>
8

>  <REMARK>
 VINA RESULT:      -5.0      2.221      5.670
  Name = 
  13 active torsions:
  status: ('A' for Active; 'I' for Inactive)
    1  A    between atoms: C_2  and  C_28
    2  A    between atoms: C_6  and  C_53
    3  A    between atoms: C_10  and  C_32
    4  A    between atoms: C_11  and  C_29
    5  A    between atoms: C_16  and  C_17
    6  A    between atoms: C_17  and  C_23
    7  A    between atoms: O_25  and  C_29
    8  A    between atoms: C_28  and  C_49
    9  A    between atoms: C_29  and  C_38
   10  A    between atoms: O_33  and  C_49
   11  A    between atoms: O_33  and  C_52
   12  A    between atoms: C_38  and  C_53
   13  A    between atoms: C_45  and  C_49
                            x       y       z     vdW  Elec       q    Type
                         _______ _______ _______ _____ _____    ______ ____

>  <TORSDO>
F 13

$$$$
=
 OpenBabel10262420393D

 55 62  0  0  1  0  0  0  0  0999 V2000
  180.7140  178.8770  142.2010 C   0  0  0  0  0  2  0  0  0  0  0  0
  183.7500  177.9490  142.8650 O   0  0  0  0  0  1  0  0  0  0  0  0
  179.9110  174.9750  137.4270 C   0  0  2  0  0  0  0  0  0  0  0  0
  179.9300  178.2120  137.8680 C   0  0  1  0  0  3  0  0  0  0  0  0
  180.1870  177.1660  136.7920 C   0  0  0  0  0  2  0  0  0  0  0  0
  182.4640  179.3340  139.2470 O   0  0  0  0  0  0  0  0  0  0  0  0
  179.2630  173.3170  138.8590 C   0  0  0  0  0  2  0  0  0  0  0  0
  178.9310  173.9850  137.6600 O   0  0  0  0  0  0  0  0  0  0  0  0
  182.2160  179.0010  138.0000 O   0  0  0  0  0  0  0  0  0  0  0  0
  184.2970  178.9840  140.7740 C   0  0  1  0  0  3  0  0  0  0  0  0
  180.5490  175.2880  138.7960 C   0  0  2  0  0  3  0  0  0  0  0  0
  179.5380  177.7440  139.2950 C   0  0  1  0  0  3  0  0  0  0  0  0
  180.8900  179.4060  137.8100 C   0  0  1  0  0  3  0  0  0  0  0  0
  183.8540  179.4240  139.3720 C   0  0  1  0  0  3  0  0  0  0  0  0
  180.4340  177.4710  141.6560 C   0  0  0  0  0  2  0  0  0  0  0  0
  182.1190  179.4500  141.9650 C   0  0  0  0  0  2  0  0  0  0  0  0
  183.1950  178.4060  141.6690 C   0  0  2  0  0  3  0  0  0  0  0  0
  180.4850  173.9590  139.4760 C   0  0  0  0  0  2  0  0  0  0  0  0
  179.7280  176.2580  139.6600 C   0  0  2  0  0  3  0  0  0  0  0  0
  184.4830  178.0510  139.5800 C   0  0  1  0  0  3  0  0  0  0  0  0
  179.2600  176.1150  136.8910 O   0  0  0  0  0  0  0  0  0  0  0  0
  180.7020  177.3020  140.1660 C   0  0  1  0  0  3  0  0  0  0  0  0
  182.2010  174.1300  136.9950 O   0  0  0  0  0  0  0  0  0  0  0  0
  181.5370  175.6050  135.1720 S   0  0  0  0  0  0  0  0  0  0  0  0
  182.9200  175.0100  136.1740 C   0  0  0  0  0  2  0  0  0  0  0  0
  180.9560  174.3920  136.3960 C   0  0  2  0  0  0  0  0  0  0  0  0
  180.4480  173.1450  135.6520 C   0  0  0  0  0  2  0  0  0  0  0  0
  181.1940  171.8650  136.0310 C   0  0  1  0  0  3  0  0  0  0  0  0
  179.8690  169.9710  134.9930 C   0  0  0  0  0  1  0  0  0  0  0  0
  180.2360  170.6990  136.2780 C   0  0  0  0  0  2  0  0  0  0  0  0
  182.1110  171.5350  135.0300 O   0  0  0  0  0  0  0  0  0  0  0  0
  183.1940  170.9740  135.7110 C   0  0  0  0  0  1  0  0  0  0  0  0
  180.7450  180.1520  136.4880 C   0  0  0  0  0  2  0  0  0  0  0  0
  180.5930  181.6490  136.7060 C   0  0  0  0  0  2  0  0  0  0  0  0
  179.6770  181.8920  137.7290 O   0  0  0  0  0  1  0  0  0  0  0  0
  185.9440  178.0100  139.0800 C   0  0  1  0  0  3  0  0  0  0  0  0
  186.0800  178.3650  137.5970 C   0  0  0  0  0  2  0  0  0  0  0  0
  187.2000  177.6280  136.9440 C   0  0  0  0  0  0  0  0  0  0  0  0
  188.8900  177.5360  135.1010 C   0  0  0  0  0  3  0  0  0  0  0  0
  187.4540  175.1980  136.5300 C   0  0  0  0  0  0  0  0  0  0  0  0
  187.6030  176.3080  137.5140 C   0  0  0  0  0  2  0  0  0  0  0  0
  189.0320  176.2230  134.8830 C   0  0  0  0  0  3  0  0  0  0  0  0
  187.8320  178.1790  135.9040 C   0  0  0  0  0  3  0  0  0  0  0  0
  186.6110  174.0300  136.8990 C   0  0  0  0  0  1  0  0  0  0  0  0
  188.1620  175.1470  135.4020 C   0  0  0  0  0  3  0  0  0  0  0  0
  186.8170  178.8250  139.8620 O   0  0  0  0  0  0  0  0  0  0  0  0
  187.3300  178.1190  142.1470 C   0  0  0  0  0  3  0  0  0  0  0  0
  189.5360  177.2490  142.6630 C   0  0  0  0  0  0  0  0  0  0  0  0
  188.9990  177.9610  140.4040 C   0  0  0  0  0  3  0  0  0  0  0  0
  189.9110  177.4360  141.3250 C   0  0  0  0  0  3  0  0  0  0  0  0
  188.2410  177.5950  143.0690 C   0  0  0  0  0  3  0  0  0  0  0  0
  187.7050  178.3040  140.8080 C   0  0  0  0  0  0  0  0  0  0  0  0
  190.4910  176.6960  143.6360 C   0  0  0  0  0  0  0  0  0  0  0  0
  190.8480  177.3740  144.6360 O   0  0  0  0  0  1  0  0  0  0  0  0
  191.0110  175.4210  143.4570 O   0  0  0  0  0  0  0  0  0  0  0  0
  3 21  1  6  0  0  0
  3  8  1  0  0  0  0
  3 11  1  0  0  0  0
  4  5  1  1  0  0  0
  4 12  1  0  0  0  0
  5 21  1  0  0  0  0
  6 14  1  0  0  0  0
  7 18  1  0  0  0  0
  8  7  1  0  0  0  0
  9  6  1  0  0  0  0
 10 17  1  0  0  0  0
 11 18  1  0  0  0  0
 11 19  1  0  0  0  0
 12 19  1  0  0  0  0
 12 22  1  0  0  0  0
 13  4  1  0  0  0  0
 13  9  1  0  0  0  0
 14 20  1  0  0  0  0
 14 10  1  0  0  0  0
 15  1  1  0  0  0  0
 16  1  1  0  0  0  0
 17 16  1  0  0  0  0
 17  2  1  0  0  0  0
 19 22  1  0  0  0  0
 20 10  1  0  0  0  0
 22 15  1  0  0  0  0
 24 25  1  0  0  0  0
 24 26  1  0  0  0  0
 25 23  1  0  0  0  0
 26 23  1  0  0  0  0
 26  3  1  0  0  0  0
 27 28  1  0  0  0  0
 27 26  1  0  0  0  0
 28 30  1  0  0  0  0
 29 30  1  0  0  0  0
 31 32  1  0  0  0  0
 31 28  1  0  0  0  0
 33 34  1  0  0  0  0
 33 13  1  0  0  0  0
 34 35  1  0  0  0  0
 36 20  1  0  0  0  0
 36 46  1  0  0  0  0
 37 36  1  0  0  0  0
 38 41  1  0  0  0  0
 38 37  1  0  0  0  0
 39 43  1  0  0  0  0
 40 44  1  0  0  0  0
 40 41  1  0  0  0  0
 42 39  2  0  0  0  0
 42 45  1  0  0  0  0
 43 38  2  0  0  0  0
 45 40  2  0  0  0  0
 46 52  1  0  0  0  0
 47 51  1  0  0  0  0
 48 51  2  0  0  0  0
 48 53  1  0  0  0  0
 49 52  1  0  0  0  0
 49 50  2  0  0  0  0
 50 48  1  0  0  0  0
 52 47  2  0  0  0  0
 53 54  1  0  0  0  0
 55 53  2  0  0  0  0
M  END
>  <MODEL>
9

>  <REMARK>
 VINA RESULT:      -5.0      2.515      6.974
  Name = 
  13 active torsions:
  status: ('A' for Active; 'I' for Inactive)
    1  A    between atoms: C_2  and  C_28
    2  A    between atoms: C_6  and  C_53
    3  A    between atoms: C_10  and  C_32
    4  A    between atoms: C_11  and  C_29
    5  A    between atoms: C_16  and  C_17
    6  A    between atoms: C_17  and  C_23
    7  A    between atoms: O_25  and  C_29
    8  A    between atoms: C_28  and  C_49
    9  A    between atoms: C_29  and  C_38
   10  A    between atoms: O_33  and  C_49
   11  A    between atoms: O_33  and  C_52
   12  A    between atoms: C_38  and  C_53
   13  A    between atoms: C_45  and  C_49
                            x       y       z     vdW  Elec       q    Type
                         _______ _______ _______ _____ _____    ______ ____

>  <TORSDO>
F 13

$$$$
