=
 OpenBabel10262420593D

 28 30  0  0  1  0  0  0  0  0999 V2000
  186.5680  178.2870  139.4040 O   0  0  0  0  0  1  0  0  0  0  0  0
  185.1590  177.9190  142.3560 C   0  0  1  0  0  3  0  0  0  0  0  0
  185.6620  180.2760  142.1450 O   0  0  0  0  0  1  0  0  0  0  0  0
  184.1650  178.5580  139.7770 C   0  0  2  0  0  3  0  0  0  0  0  0
  183.6350  178.0560  142.2330 C   0  0  0  0  0  2  0  0  0  0  0  0
  185.6080  179.0110  140.1150 C   0  0  1  0  0  3  0  0  0  0  0  0
  185.9420  179.0150  141.6120 C   0  0  2  0  0  3  0  0  0  0  0  0
  183.1960  178.7940  140.9550 C   0  0  2  0  0  3  0  0  0  0  0  0
  181.7270  178.5150  140.6020 C   0  0  1  0  0  3  0  0  0  0  0  0
  180.7790  179.1210  141.6510 C   0  0  1  0  0  3  0  0  0  0  0  0
  180.1840  180.4500  141.2570 C   0  0  0  0  0  0  0  0  0  0  0  0
  179.0780  180.9040  139.0430 C   0  0  0  0  0  1  0  0  0  0  0  0
  180.3610  180.9950  139.8600 C   0  0  2  0  0  3  0  0  0  0  0  0
  181.4680  180.4430  139.1730 O   0  0  0  0  0  0  0  0  0  0  0  0
  181.3780  179.0380  139.2040 C   0  0  0  0  0  2  0  0  0  0  0  0
  179.5580  181.0980  142.0790 O   0  0  0  0  0  0  0  0  0  0  0  0
  179.5090  177.9190  142.1870 S   0  0  0  0  0  0  0  0  0  0  0  0
  179.8250  178.0950  143.9700 C   0  0  0  0  0  1  0  0  0  0  0  0
  184.9800  178.6630  144.7810 C   0  0  0  0  0  2  0  0  0  0  0  0
  187.1120  177.6220  143.9640 C   0  0  0  0  0  0  0  0  0  0  0  0
  186.8260  178.2270  146.3660 C   0  0  0  0  0  0  0  0  0  0  0  0
  185.6080  177.6590  143.8020 C   0  0  2  0  0  3  0  0  0  0  0  0
  187.6620  177.8500  145.2650 N   0  0  0  0  0  2  0  0  0  0  0  0
  188.0670  176.9330  142.8240 S   0  0  0  0  0  0  0  0  0  0  0  0
  187.3710  178.1960  147.7470 C   0  0  0  0  0  1  0  0  0  0  0  0
  185.5470  178.5480  146.1660 C   0  0  0  0  0  3  0  0  0  0  0  0
  184.0560  177.1570  139.1540 C   0  0  0  0  0  2  0  0  0  0  0  0
  183.9650  177.2180  137.7630 O   0  0  0  0  0  1  0  0  0  0  0  0
  2  5  1  1  0  0  0
  2 22  1  0  0  0  0
  4 27  1  1  0  0  0
  4  6  1  0  0  0  0
  4  8  1  0  0  0  0
  6  1  1  6  0  0  0
  6  7  1  0  0  0  0
  7  3  1  1  0  0  0
  7  2  1  0  0  0  0
  8  5  1  1  0  0  0
  9 15  1  6  0  0  0
  9  8  1  0  0  0  0
  9 10  1  0  0  0  0
 10 17  1  6  0  0  0
 11 10  1  0  0  0  0
 11 16  2  0  0  0  0
 13 12  1  6  0  0  0
 13 11  1  0  0  0  0
 14 15  1  0  0  0  0
 14 13  1  0  0  0  0
 17 18  1  0  0  0  0
 19 26  1  0  0  0  0
 20 23  1  0  0  0  0
 21 25  1  0  0  0  0
 22 20  1  0  0  0  0
 22 19  1  1  0  0  0
 23 21  1  0  0  0  0
 24 20  2  0  0  0  0
 26 21  2  0  0  0  0
 28 27  1  0  0  0  0
M  END
>  <MODEL>
1

>  <REMARK>
 VINA RESULT:      -6.4      0.000      0.000
  Name = 
  4 active torsions:
  status: ('A' for Active; 'I' for Inactive)
    1  A    between atoms: C_1  and  C_27
    2  A    between atoms: C_2  and  S_7
    3  A    between atoms: C_10  and  C_13
    4  A    between atoms: C_16  and  C_19
                            x       y       z     vdW  Elec       q    Type
                         _______ _______ _______ _____ _____    ______ ____

>  <TORSDO>
F 4

$$$$
=
 OpenBabel10262420593D

 28 30  0  0  1  0  0  0  0  0999 V2000
  180.0720  181.2250  140.5640 O   0  0  0  0  0  1  0  0  0  0  0  0
  182.2830  178.9000  141.3000 C   0  0  1  0  0  3  0  0  0  0  0  0
  180.1410  178.0420  142.0310 O   0  0  0  0  0  1  0  0  0  0  0  0
  180.6050  179.3700  139.0600 C   0  0  2  0  0  3  0  0  0  0  0  0
  182.4560  177.9420  140.1120 C   0  0  0  0  0  2  0  0  0  0  0  0
  180.0880  179.8330  140.4460 C   0  0  1  0  0  3  0  0  0  0  0  0
  180.8140  179.2040  141.6420 C   0  0  2  0  0  3  0  0  0  0  0  0
  181.2710  177.9790  139.1300 C   0  0  2  0  0  3  0  0  0  0  0  0
  181.6440  177.4110  137.7510 C   0  0  1  0  0  3  0  0  0  0  0  0
  182.9750  176.6440  137.8090 C   0  0  1  0  0  3  0  0  0  0  0  0
  182.8260  175.1470  137.9170 C   0  0  0  0  0  0  0  0  0  0  0  0
  181.3420  173.7620  136.4320 C   0  0  0  0  0  1  0  0  0  0  0  0
  181.4760  174.4900  137.7630 C   0  0  2  0  0  3  0  0  0  0  0  0
  180.3900  175.3650  138.0010 O   0  0  0  0  0  0  0  0  0  0  0  0
  180.5340  176.5120  137.1970 C   0  0  0  0  0  2  0  0  0  0  0  0
  183.8080  174.4570  138.1410 O   0  0  0  0  0  0  0  0  0  0  0  0
  184.0970  177.1360  136.4500 S   0  0  0  0  0  0  0  0  0  0  0  0
  185.5340  177.4860  137.5110 C   0  0  0  0  0  1  0  0  0  0  0  0
  182.5680  178.9940  143.8250 C   0  0  0  0  0  2  0  0  0  0  0  0
  184.6000  178.9830  142.3540 C   0  0  0  0  0  0  0  0  0  0  0  0
  184.8220  178.9170  144.8360 C   0  0  0  0  0  0  0  0  0  0  0  0
  183.1680  178.5150  142.4950 C   0  0  2  0  0  3  0  0  0  0  0  0
  185.3950  179.1070  143.5370 N   0  0  0  0  0  2  0  0  0  0  0  0
  185.3630  178.9400  140.9040 S   0  0  0  0  0  0  0  0  0  0  0  0
  185.7100  178.7890  146.0200 C   0  0  0  0  0  1  0  0  0  0  0  0
  183.5020  178.7960  144.9830 C   0  0  0  0  0  3  0  0  0  0  0  0
  181.4310  180.4160  138.2950 C   0  0  0  0  0  2  0  0  0  0  0  0
  180.7710  180.8520  137.1460 O   0  0  0  0  0  1  0  0  0  0  0  0
  2  5  1  6  0  0  0
  2  7  1  0  0  0  0
  2 22  1  0  0  0  0
  4 27  1  1  0  0  0
  4  8  1  0  0  0  0
  4  6  1  0  0  0  0
  6  1  1  6  0  0  0
  6  7  1  0  0  0  0
  7  3  1  6  0  0  0
  8  5  1  1  0  0  0
  9 15  1  1  0  0  0
  9 10  1  0  0  0  0
  9  8  1  0  0  0  0
 10 17  1  6  0  0  0
 10 11  1  0  0  0  0
 11 16  2  0  0  0  0
 13 12  1  6  0  0  0
 13 11  1  0  0  0  0
 13 14  1  0  0  0  0
 15 14  1  0  0  0  0
 17 18  1  0  0  0  0
 19 26  1  0  0  0  0
 20 22  1  0  0  0  0
 20 23  1  0  0  0  0
 21 26  2  0  0  0  0
 21 25  1  0  0  0  0
 22 19  1  1  0  0  0
 23 21  1  0  0  0  0
 24 20  2  0  0  0  0
 28 27  1  0  0  0  0
M  END
>  <MODEL>
2

>  <REMARK>
 VINA RESULT:      -6.3      2.741      5.117
  Name = 
  4 active torsions:
  status: ('A' for Active; 'I' for Inactive)
    1  A    between atoms: C_1  and  C_27
    2  A    between atoms: C_2  and  S_7
    3  A    between atoms: C_10  and  C_13
    4  A    between atoms: C_16  and  C_19
                            x       y       z     vdW  Elec       q    Type
                         _______ _______ _______ _____ _____    ______ ____

>  <TORSDO>
F 4

$$$$
=
 OpenBabel10262420593D

 28 30  0  0  1  0  0  0  0  0999 V2000
  189.2610  179.8500  137.4430 O   0  0  0  0  0  1  0  0  0  0  0  0
  189.3410  177.1990  139.3930 C   0  0  1  0  0  3  0  0  0  0  0  0
  187.2850  178.3590  139.9260 O   0  0  0  0  0  1  0  0  0  0  0  0
  188.2180  177.7200  136.8400 C   0  0  2  0  0  3  0  0  0  0  0  0
  188.6860  176.0040  138.6850 C   0  0  0  0  0  2  0  0  0  0  0  0
  188.3070  178.9070  137.8330 C   0  0  1  0  0  3  0  0  0  0  0  0
  188.5250  178.5000  139.2960 C   0  0  2  0  0  3  0  0  0  0  0  0
  187.7530  176.4220  137.5330 C   0  0  2  0  0  3  0  0  0  0  0  0
  187.4900  175.2670  136.5540 C   0  0  1  0  0  3  0  0  0  0  0  0
  187.0760  173.9890  137.3010 C   0  0  1  0  0  3  0  0  0  0  0  0
  185.5880  173.7430  137.3330 C   0  0  0  0  0  0  0  0  0  0  0  0
  184.0960  173.8240  135.3100 C   0  0  0  0  0  1  0  0  0  0  0  0
  184.6450  174.5860  136.5090 C   0  0  2  0  0  3  0  0  0  0  0  0
  185.1830  175.8410  136.1410 O   0  0  0  0  0  0  0  0  0  0  0  0
  186.4290  175.6450  135.5150 C   0  0  0  0  0  2  0  0  0  0  0  0
  185.1390  172.8550  138.0410 O   0  0  0  0  0  0  0  0  0  0  0  0
  188.0120  172.5310  136.7140 S   0  0  0  0  0  0  0  0  0  0  0  0
  189.5920  173.4020  136.4850 C   0  0  0  0  0  1  0  0  0  0  0  0
  188.8470  177.2840  141.8860 C   0  0  0  0  0  2  0  0  0  0  0  0
  191.2260  177.3710  141.0960 C   0  0  0  0  0  0  0  0  0  0  0  0
  190.6930  177.2950  143.5300 C   0  0  0  0  0  0  0  0  0  0  0  0
  189.8410  176.8420  140.8010 C   0  0  2  0  0  3  0  0  0  0  0  0
  191.6210  177.5200  142.4630 N   0  0  0  0  0  2  0  0  0  0  0  0
  192.3920  177.3740  139.9430 S   0  0  0  0  0  0  0  0  0  0  0  0
  191.1880  177.1940  144.9270 C   0  0  0  0  0  1  0  0  0  0  0  0
  189.3960  177.1160  143.2730 C   0  0  0  0  0  3  0  0  0  0  0  0
  189.4500  177.5360  135.9400 C   0  0  0  0  0  2  0  0  0  0  0  0
  189.1400  177.7430  134.5950 O   0  0  0  0  0  1  0  0  0  0  0  0
  2  5  1  1  0  0  0
  2 22  1  0  0  0  0
  4 27  1  1  0  0  0
  4  8  1  0  0  0  0
  4  6  1  0  0  0  0
  6  1  1  6  0  0  0
  6  7  1  0  0  0  0
  7  2  1  0  0  0  0
  7  3  1  6  0  0  0
  8  5  1  1  0  0  0
  9 15  1  6  0  0  0
  9 10  1  0  0  0  0
  9  8  1  0  0  0  0
 10 17  1  6  0  0  0
 10 11  1  0  0  0  0
 11 16  2  0  0  0  0
 13 12  1  6  0  0  0
 13 11  1  0  0  0  0
 14 13  1  0  0  0  0
 15 14  1  0  0  0  0
 18 17  1  0  0  0  0
 19 26  1  0  0  0  0
 20 23  1  0  0  0  0
 21 25  1  0  0  0  0
 22 20  1  0  0  0  0
 22 19  1  1  0  0  0
 23 21  1  0  0  0  0
 24 20  2  0  0  0  0
 26 21  2  0  0  0  0
 28 27  1  0  0  0  0
M  END
>  <MODEL>
3

>  <REMARK>
 VINA RESULT:      -5.7      5.978      6.995
  Name = 
  4 active torsions:
  status: ('A' for Active; 'I' for Inactive)
    1  A    between atoms: C_1  and  C_27
    2  A    between atoms: C_2  and  S_7
    3  A    between atoms: C_10  and  C_13
    4  A    between atoms: C_16  and  C_19
                            x       y       z     vdW  Elec       q    Type
                         _______ _______ _______ _____ _____    ______ ____

>  <TORSDO>
F 4

$$$$
=
 OpenBabel10262420593D

 28 30  0  0  1  0  0  0  0  0999 V2000
  185.9020  178.1140  143.3630 O   0  0  0  0  0  1  0  0  0  0  0  0
  189.1400  177.6590  143.7350 C   0  0  1  0  0  3  0  0  0  0  0  0
  188.1660  175.4480  143.5930 O   0  0  0  0  0  1  0  0  0  0  0  0
  187.4360  177.8530  141.4750 C   0  0  2  0  0  3  0  0  0  0  0  0
  189.8300  177.6310  142.3640 C   0  0  0  0  0  2  0  0  0  0  0  0
  186.8320  177.2560  142.7720 C   0  0  1  0  0  3  0  0  0  0  0  0
  187.8680  176.7970  143.8060 C   0  0  2  0  0  3  0  0  0  0  0  0
  188.8610  177.3240  141.2070 C   0  0  2  0  0  3  0  0  0  0  0  0
  189.4280  177.7590  139.8460 C   0  0  1  0  0  3  0  0  0  0  0  0
  190.4200  176.7190  139.3000 C   0  0  1  0  0  3  0  0  0  0  0  0
  189.8320  175.7750  138.2800 C   0  0  0  0  0  0  0  0  0  0  0  0
  188.4930  176.5080  136.2810 C   0  0  0  0  0  1  0  0  0  0  0  0
  188.4500  176.0050  137.7180 C   0  0  2  0  0  3  0  0  0  0  0  0
  187.6320  176.8140  138.5400 O   0  0  0  0  0  0  0  0  0  0  0  0
  188.3100  178.0150  138.8300 C   0  0  0  0  0  2  0  0  0  0  0  0
  190.4780  174.8090  137.9100 O   0  0  0  0  0  0  0  0  0  0  0  0
  191.9660  177.5020  138.7160 S   0  0  0  0  0  0  0  0  0  0  0  0
  192.8330  177.4210  140.3130 C   0  0  0  0  0  1  0  0  0  0  0  0
  191.1930  176.4020  144.5560 C   0  0  0  0  0  2  0  0  0  0  0  0
  189.4590  177.1460  146.2090 C   0  0  0  0  0  0  0  0  0  0  0  0
  191.5630  176.0480  146.9740 C   0  0  0  0  0  0  0  0  0  0  0  0
  190.1320  177.4610  144.8920 C   0  0  2  0  0  3  0  0  0  0  0  0
  190.2280  176.5000  147.2290 N   0  0  0  0  0  2  0  0  0  0  0  0
  188.0570  177.8780  146.6370 S   0  0  0  0  0  0  0  0  0  0  0  0
  192.4260  175.6290  148.1070 C   0  0  0  0  0  1  0  0  0  0  0  0
  192.0560  176.0570  145.7350 C   0  0  0  0  0  3  0  0  0  0  0  0
  187.3050  179.3780  141.3420 C   0  0  0  0  0  2  0  0  0  0  0  0
  186.0140  179.7520  140.9700 O   0  0  0  0  0  1  0  0  0  0  0  0
  2  5  1  6  0  0  0
  2  7  1  0  0  0  0
  2 22  1  0  0  0  0
  4 27  1  1  0  0  0
  4  6  1  0  0  0  0
  6  1  1  1  0  0  0
  6  7  1  0  0  0  0
  7  3  1  6  0  0  0
  8  4  1  0  0  0  0
  8  5  1  1  0  0  0
  9 15  1  6  0  0  0
  9  8  1  0  0  0  0
 10 17  1  6  0  0  0
 10  9  1  0  0  0  0
 11 10  1  0  0  0  0
 13 12  1  6  0  0  0
 13 11  1  0  0  0  0
 13 14  1  0  0  0  0
 14 15  1  0  0  0  0
 16 11  2  0  0  0  0
 17 18  1  0  0  0  0
 19 26  1  0  0  0  0
 20 24  2  0  0  0  0
 20 23  1  0  0  0  0
 21 23  1  0  0  0  0
 21 25  1  0  0  0  0
 22 19  1  6  0  0  0
 22 20  1  0  0  0  0
 26 21  2  0  0  0  0
 28 27  1  0  0  0  0
M  END
>  <MODEL>
4

>  <REMARK>
 VINA RESULT:      -5.3      4.880      7.459
  Name = 
  4 active torsions:
  status: ('A' for Active; 'I' for Inactive)
    1  A    between atoms: C_1  and  C_27
    2  A    between atoms: C_2  and  S_7
    3  A    between atoms: C_10  and  C_13
    4  A    between atoms: C_16  and  C_19
                            x       y       z     vdW  Elec       q    Type
                         _______ _______ _______ _____ _____    ______ ____

>  <TORSDO>
F 4

$$$$
=
 OpenBabel10262420593D

 28 30  0  0  1  0  0  0  0  0999 V2000
  187.6470  179.2610  141.1470 O   0  0  0  0  0  1  0  0  0  0  0  0
  190.3500  177.4590  141.6790 C   0  0  1  0  0  3  0  0  0  0  0  0
  188.4750  175.9590  141.9840 O   0  0  0  0  0  1  0  0  0  0  0  0
  188.7490  177.9600  139.3910 C   0  0  2  0  0  3  0  0  0  0  0  0
  190.8460  176.8500  140.3600 C   0  0  0  0  0  2  0  0  0  0  0  0
  188.0420  177.9750  140.7710 C   0  0  1  0  0  3  0  0  0  0  0  0
  188.8350  177.3070  141.9020 C   0  0  2  0  0  3  0  0  0  0  0  0
  189.7570  176.7970  139.2730 C   0  0  2  0  0  3  0  0  0  0  0  0
  190.3530  176.6470  137.8640 C   0  0  1  0  0  3  0  0  0  0  0  0
  191.4330  175.5530  137.8320 C   0  0  1  0  0  3  0  0  0  0  0  0
  190.9510  174.2210  137.3130 C   0  0  0  0  0  0  0  0  0  0  0  0
  189.6550  173.9180  135.1780 C   0  0  0  0  0  1  0  0  0  0  0  0
  189.5830  174.0790  136.6910 C   0  0  2  0  0  3  0  0  0  0  0  0
  188.6800  175.0980  137.0740 O   0  0  0  0  0  0  0  0  0  0  0  0
  189.2650  176.3550  136.8250 C   0  0  0  0  0  2  0  0  0  0  0  0
  191.6740  173.2410  137.4030 O   0  0  0  0  0  0  0  0  0  0  0  0
  192.9490  176.1250  136.9840 S   0  0  0  0  0  0  0  0  0  0  0  0
  194.1160  175.3430  138.1390 C   0  0  0  0  0  1  0  0  0  0  0  0
  191.0310  175.5890  143.2630 C   0  0  0  0  0  2  0  0  0  0  0  0
  191.0510  177.9630  144.0750 C   0  0  0  0  0  0  0  0  0  0  0  0
  191.8550  176.1090  145.5350 C   0  0  0  0  0  0  0  0  0  0  0  0
  191.2310  177.0620  142.8740 C   0  0  2  0  0  3  0  0  0  0  0  0
  191.4320  177.4660  145.3620 N   0  0  0  0  0  2  0  0  0  0  0  0
  190.8420  179.5790  143.8950 S   0  0  0  0  0  0  0  0  0  0  0  0
  192.4940  175.6940  146.8100 C   0  0  0  0  0  1  0  0  0  0  0  0
  191.7360  175.2300  144.5390 C   0  0  0  0  0  3  0  0  0  0  0  0
  189.3100  179.3170  138.9380 C   0  0  0  0  0  2  0  0  0  0  0  0
  188.8070  179.6910  137.6920 O   0  0  0  0  0  1  0  0  0  0  0  0
  2  5  1  6  0  0  0
  2  7  1  0  0  0  0
  2 22  1  0  0  0  0
  4 27  1  1  0  0  0
  4  6  1  0  0  0  0
  6  1  1  1  0  0  0
  6  7  1  0  0  0  0
  7  3  1  6  0  0  0
  8  4  1  0  0  0  0
  8  5  1  1  0  0  0
  9 15  1  6  0  0  0
  9  8  1  0  0  0  0
 10 17  1  6  0  0  0
 10  9  1  0  0  0  0
 11 16  2  0  0  0  0
 11 10  1  0  0  0  0
 13 12  1  6  0  0  0
 13 14  1  0  0  0  0
 13 11  1  0  0  0  0
 15 14  1  0  0  0  0
 17 18  1  0  0  0  0
 19 26  1  0  0  0  0
 20 23  1  0  0  0  0
 21 25  1  0  0  0  0
 22 19  1  1  0  0  0
 22 20  1  0  0  0  0
 23 21  1  0  0  0  0
 24 20  2  0  0  0  0
 26 21  2  0  0  0  0
 28 27  1  0  0  0  0
M  END
>  <MODEL>
5

>  <REMARK>
 VINA RESULT:      -5.3      5.972      8.605
  Name = 
  4 active torsions:
  status: ('A' for Active; 'I' for Inactive)
    1  A    between atoms: C_1  and  C_27
    2  A    between atoms: C_2  and  S_7
    3  A    between atoms: C_10  and  C_13
    4  A    between atoms: C_16  and  C_19
                            x       y       z     vdW  Elec       q    Type
                         _______ _______ _______ _____ _____    ______ ____

>  <TORSDO>
F 4

$$$$
=
 OpenBabel10262420593D

 28 30  0  0  1  0  0  0  0  0999 V2000
  186.4550  178.2540  145.4210 O   0  0  0  0  0  1  0  0  0  0  0  0
  187.7140  178.5000  142.3900 C   0  0  1  0  0  3  0  0  0  0  0  0
  187.4390  176.1320  142.8090 O   0  0  0  0  0  1  0  0  0  0  0  0
  185.0700  178.3320  143.4040 C   0  0  2  0  0  3  0  0  0  0  0  0
  186.5840  178.6240  141.3580 C   0  0  0  0  0  2  0  0  0  0  0  0
  186.1870  177.6160  144.2070 C   0  0  1  0  0  3  0  0  0  0  0  0
  187.4870  177.3860  143.4260 C   0  0  2  0  0  3  0  0  0  0  0  0
  185.2280  178.1200  141.8840 C   0  0  2  0  0  3  0  0  0  0  0  0
  184.0490  178.6700  141.0650 C   0  0  1  0  0  3  0  0  0  0  0  0
  184.3970  178.7410  139.5690 C   0  0  1  0  0  3  0  0  0  0  0  0
  183.8760  177.5830  138.7550 C   0  0  0  0  0  0  0  0  0  0  0  0
  181.5020  176.7540  138.8320 C   0  0  0  0  0  1  0  0  0  0  0  0
  182.9210  176.5800  139.3560 C   0  0  2  0  0  3  0  0  0  0  0  0
  182.9630  176.5350  140.7700 O   0  0  0  0  0  0  0  0  0  0  0  0
  182.7820  177.8360  141.2800 C   0  0  0  0  0  2  0  0  0  0  0  0
  184.2360  177.4490  137.5970 O   0  0  0  0  0  0  0  0  0  0  0  0
  183.9460  180.3600  138.8470 S   0  0  0  0  0  0  0  0  0  0  0  0
  182.1500  180.0700  138.8430 C   0  0  0  0  0  1  0  0  0  0  0  0
  189.1340  177.6940  140.4390 C   0  0  0  0  0  2  0  0  0  0  0  0
  190.2090  178.0750  142.6730 C   0  0  0  0  0  0  0  0  0  0  0  0
  191.5790  177.4350  140.6910 C   0  0  0  0  0  0  0  0  0  0  0  0
  189.1060  178.5150  141.7370 C   0  0  2  0  0  3  0  0  0  0  0  0
  191.4360  177.6060  142.1060 N   0  0  0  0  0  2  0  0  0  0  0  0
  190.1980  178.5080  144.2540 S   0  0  0  0  0  0  0  0  0  0  0  0
  192.9270  177.2070  140.1100 C   0  0  0  0  0  1  0  0  0  0  0  0
  190.5200  177.5380  139.8860 C   0  0  0  0  0  3  0  0  0  0  0  0
  184.8220  179.7950  143.8050 C   0  0  0  0  0  2  0  0  0  0  0  0
  183.5310  179.9790  144.3030 O   0  0  0  0  0  1  0  0  0  0  0  0
  2  5  1  6  0  0  0
  2  7  1  0  0  0  0
  4 27  1  6  0  0  0
  4  6  1  0  0  0  0
  6  1  1  1  0  0  0
  7  3  1  6  0  0  0
  7  6  1  0  0  0  0
  8  5  1  6  0  0  0
  8  4  1  0  0  0  0
  9 15  1  6  0  0  0
  9  8  1  0  0  0  0
 10 17  1  6  0  0  0
 10  9  1  0  0  0  0
 11 13  1  0  0  0  0
 11 10  1  0  0  0  0
 13 12  1  1  0  0  0
 13 14  1  0  0  0  0
 14 15  1  0  0  0  0
 16 11  2  0  0  0  0
 18 17  1  0  0  0  0
 20 24  2  0  0  0  0
 21 23  1  0  0  0  0
 22 19  1  6  0  0  0
 22  2  1  0  0  0  0
 22 20  1  0  0  0  0
 23 20  1  0  0  0  0
 25 21  1  0  0  0  0
 26 19  1  0  0  0  0
 26 21  2  0  0  0  0
 27 28  1  0  0  0  0
M  END
>  <MODEL>
6

>  <REMARK>
 VINA RESULT:      -5.2      3.177      5.232
  Name = 
  4 active torsions:
  status: ('A' for Active; 'I' for Inactive)
    1  A    between atoms: C_1  and  C_27
    2  A    between atoms: C_2  and  S_7
    3  A    between atoms: C_10  and  C_13
    4  A    between atoms: C_16  and  C_19
                            x       y       z     vdW  Elec       q    Type
                         _______ _______ _______ _____ _____    ______ ____

>  <TORSDO>
F 4

$$$$
=
 OpenBabel10262420593D

 28 30  0  0  1  0  0  0  0  0999 V2000
  182.1810  174.7780  137.8000 O   0  0  0  0  0  1  0  0  0  0  0  0
  183.7010  177.6940  137.9300 C   0  0  1  0  0  3  0  0  0  0  0  0
  183.5730  177.1110  135.5850 O   0  0  0  0  0  1  0  0  0  0  0  0
  180.9940  176.9090  137.6120 C   0  0  2  0  0  3  0  0  0  0  0  0
  182.6690  178.8300  137.8820 C   0  0  0  0  0  2  0  0  0  0  0  0
  182.0810  175.9550  137.0550 C   0  0  1  0  0  3  0  0  0  0  0  0
  183.4640  176.5950  136.8790 C   0  0  2  0  0  3  0  0  0  0  0  0
  181.3120  178.3870  137.3040 C   0  0  2  0  0  3  0  0  0  0  0  0
  180.1780  179.3500  137.6900 C   0  0  1  0  0  3  0  0  0  0  0  0
  180.7240  180.5910  138.4130 C   0  0  1  0  0  3  0  0  0  0  0  0
  180.8850  181.8040  137.5310 C   0  0  0  0  0  0  0  0  0  0  0  0
  179.0970  182.6820  135.9940 C   0  0  0  0  0  1  0  0  0  0  0  0
  180.3430  181.8150  136.1220 C   0  0  2  0  0  3  0  0  0  0  0  0
  180.1470  180.5220  135.5810 O   0  0  0  0  0  0  0  0  0  0  0  0
  179.3550  179.7650  136.4650 C   0  0  0  0  0  2  0  0  0  0  0  0
  181.4680  182.7880  137.9580 O   0  0  0  0  0  0  0  0  0  0  0  0
  179.7790  180.9570  139.9360 S   0  0  0  0  0  0  0  0  0  0  0  0
  180.6240  179.7290  140.9800 C   0  0  0  0  0  1  0  0  0  0  0  0
  186.1190  177.3290  137.2310 C   0  0  0  0  0  2  0  0  0  0  0  0
  185.6240  178.4180  139.4360 C   0  0  0  0  0  0  0  0  0  0  0  0
  187.9710  178.1760  138.6310 C   0  0  0  0  0  0  0  0  0  0  0  0
  185.1430  178.2190  138.0150 C   0  0  2  0  0  3  0  0  0  0  0  0
  187.0330  178.4500  139.6790 N   0  0  0  0  0  2  0  0  0  0  0  0
  184.6200  179.0040  140.5920 S   0  0  0  0  0  0  0  0  0  0  0  0
  189.4120  178.4740  138.8370 C   0  0  0  0  0  1  0  0  0  0  0  0
  187.5540  177.7120  137.4530 C   0  0  0  0  0  3  0  0  0  0  0  0
  180.5950  176.6510  139.0740 C   0  0  0  0  0  2  0  0  0  0  0  0
  179.3510  176.0240  139.1640 O   0  0  0  0  0  1  0  0  0  0  0  0
  2  5  1  6  0  0  0
  2 22  1  0  0  0  0
  4 27  1  1  0  0  0
  6  4  1  0  0  0  0
  6  1  1  1  0  0  0
  7  3  1  6  0  0  0
  7  6  1  0  0  0  0
  7  2  1  0  0  0  0
  8  4  1  0  0  0  0
  8  9  1  0  0  0  0
  8  5  1  1  0  0  0
  9 15  1  6  0  0  0
  9 10  1  0  0  0  0
 10 17  1  1  0  0  0
 11 16  2  0  0  0  0
 11 10  1  0  0  0  0
 13 12  1  1  0  0  0
 13 11  1  0  0  0  0
 14 13  1  0  0  0  0
 14 15  1  0  0  0  0
 17 18  1  0  0  0  0
 19 26  1  0  0  0  0
 20 23  1  0  0  0  0
 20 24  2  0  0  0  0
 21 25  1  0  0  0  0
 21 23  1  0  0  0  0
 22 19  1  1  0  0  0
 22 20  1  0  0  0  0
 26 21  2  0  0  0  0
 27 28  1  0  0  0  0
M  END
>  <MODEL>
7

>  <REMARK>
 VINA RESULT:      -5.0      4.109      5.382
  Name = 
  4 active torsions:
  status: ('A' for Active; 'I' for Inactive)
    1  A    between atoms: C_1  and  C_27
    2  A    between atoms: C_2  and  S_7
    3  A    between atoms: C_10  and  C_13
    4  A    between atoms: C_16  and  C_19
                            x       y       z     vdW  Elec       q    Type
                         _______ _______ _______ _____ _____    ______ ____

>  <TORSDO>
F 4

$$$$
=
 OpenBabel10262420593D

 28 30  0  0  1  0  0  0  0  0999 V2000
  184.4030  179.2030  146.2050 O   0  0  0  0  0  1  0  0  0  0  0  0
  184.5420  178.2530  143.0570 C   0  0  1  0  0  3  0  0  0  0  0  0
  185.2550  180.5650  143.0890 O   0  0  0  0  0  1  0  0  0  0  0  0
  186.4340  178.3110  145.1700 C   0  0  2  0  0  3  0  0  0  0  0  0
  185.9200  177.6520  142.7480 C   0  0  0  0  0  2  0  0  0  0  0  0
  185.3280  179.3970  145.1760 C   0  0  1  0  0  3  0  0  0  0  0  0
  184.6040  179.5790  143.8350 C   0  0  2  0  0  3  0  0  0  0  0  0
  187.0040  178.0760  143.7550 C   0  0  2  0  0  3  0  0  0  0  0  0
  188.2150  177.1310  143.7340 C   0  0  1  0  0  3  0  0  0  0  0  0
  189.3430  177.6930  142.8540 C   0  0  1  0  0  3  0  0  0  0  0  0
  190.4370  178.3970  143.6190 C   0  0  0  0  0  0  0  0  0  0  0  0
  191.6020  177.4350  145.6290 C   0  0  0  0  0  1  0  0  0  0  0  0
  190.4870  178.3420  145.1260 C   0  0  2  0  0  3  0  0  0  0  0  0
  189.2420  178.0350  145.7230 O   0  0  0  0  0  0  0  0  0  0  0  0
  188.7330  176.8530  145.1500 C   0  0  0  0  0  2  0  0  0  0  0  0
  191.2880  179.0260  143.0120 O   0  0  0  0  0  0  0  0  0  0  0  0
  189.9980  176.4290  141.7060 S   0  0  0  0  0  0  0  0  0  0  0  0
  189.6510  177.3610  140.1820 C   0  0  0  0  0  1  0  0  0  0  0  0
  184.2970  178.8910  140.6070 C   0  0  0  0  0  2  0  0  0  0  0  0
  182.2760  178.9030  142.0930 C   0  0  0  0  0  0  0  0  0  0  0  0
  182.0670  179.3700  139.6530 C   0  0  0  0  0  0  0  0  0  0  0  0
  183.6170  178.2560  141.8300 C   0  0  2  0  0  3  0  0  0  0  0  0
  181.5200  179.3840  140.9770 N   0  0  0  0  0  2  0  0  0  0  0  0
  181.5030  178.6920  143.5230 S   0  0  0  0  0  0  0  0  0  0  0  0
  181.1800  179.6190  138.4880 C   0  0  0  0  0  1  0  0  0  0  0  0
  183.3530  179.0760  139.4550 C   0  0  0  0  0  3  0  0  0  0  0  0
  186.0720  177.0170  145.9160 C   0  0  0  0  0  2  0  0  0  0  0  0
  186.3910  177.0990  147.2720 O   0  0  0  0  0  1  0  0  0  0  0  0
  2  5  1  6  0  0  0
  2  7  1  0  0  0  0
  4  6  1  0  0  0  0
  4 27  1  6  0  0  0
  6  1  1  1  0  0  0
  7  3  1  6  0  0  0
  7  6  1  0  0  0  0
  8  5  1  6  0  0  0
  8  4  1  0  0  0  0
  9  8  1  0  0  0  0
  9 15  1  1  0  0  0
 10 17  1  1  0  0  0
 10 11  1  0  0  0  0
 10  9  1  0  0  0  0
 11 13  1  0  0  0  0
 13 12  1  6  0  0  0
 13 14  1  0  0  0  0
 15 14  1  0  0  0  0
 16 11  2  0  0  0  0
 18 17  1  0  0  0  0
 20 24  2  0  0  0  0
 21 23  1  0  0  0  0
 22 19  1  6  0  0  0
 22 20  1  0  0  0  0
 22  2  1  0  0  0  0
 23 20  1  0  0  0  0
 25 21  1  0  0  0  0
 26 21  2  0  0  0  0
 26 19  1  0  0  0  0
 27 28  1  0  0  0  0
M  END
>  <MODEL>
8

>  <REMARK>
 VINA RESULT:      -5.0      3.192      8.163
  Name = 
  4 active torsions:
  status: ('A' for Active; 'I' for Inactive)
    1  A    between atoms: C_1  and  C_27
    2  A    between atoms: C_2  and  S_7
    3  A    between atoms: C_10  and  C_13
    4  A    between atoms: C_16  and  C_19
                            x       y       z     vdW  Elec       q    Type
                         _______ _______ _______ _____ _____    ______ ____

>  <TORSDO>
F 4

$$$$
=
 OpenBabel10262420593D

 28 30  0  0  1  0  0  0  0  0999 V2000
  193.2700  176.8960  140.2770 O   0  0  0  0  0  1  0  0  0  0  0  0
  190.1250  176.4850  141.1590 C   0  0  1  0  0  3  0  0  0  0  0  0
  190.4780  178.8760  141.0360 O   0  0  0  0  0  1  0  0  0  0  0  0
  191.4320  176.8130  138.6620 C   0  0  2  0  0  3  0  0  0  0  0  0
  189.2370  176.3780  139.9120 C   0  0  0  0  0  2  0  0  0  0  0  0
  192.0710  177.5030  139.8950 C   0  0  1  0  0  3  0  0  0  0  0  0
  191.1360  177.6450  141.1030 C   0  0  2  0  0  3  0  0  0  0  0  0
  189.8960  176.9630  138.6490 C   0  0  2  0  0  3  0  0  0  0  0  0
  189.2430  176.4410  137.3600 C   0  0  1  0  0  3  0  0  0  0  0  0
  187.7670  176.0770  137.5930 C   0  0  1  0  0  3  0  0  0  0  0  0
  186.7890  177.1410  137.1580 C   0  0  0  0  0  0  0  0  0  0  0  0
  186.8330  178.2690  134.9110 C   0  0  0  0  0  1  0  0  0  0  0  0
  187.2510  178.3450  136.3730 C   0  0  2  0  0  3  0  0  0  0  0  0
  188.6320  178.6180  136.5180 O   0  0  0  0  0  0  0  0  0  0  0  0
  189.3680  177.4560  136.2180 C   0  0  0  0  0  2  0  0  0  0  0  0
  185.6100  177.0310  137.4520 O   0  0  0  0  0  0  0  0  0  0  0  0
  187.3600  174.4320  136.9050 S   0  0  0  0  0  0  0  0  0  0  0  0
  189.0740  173.8260  136.8430 C   0  0  0  0  0  1  0  0  0  0  0  0
  188.1050  177.3260  142.4560 C   0  0  0  0  0  2  0  0  0  0  0  0
  190.1550  176.5940  143.7040 C   0  0  0  0  0  0  0  0  0  0  0  0
  188.0940  177.2800  144.9270 C   0  0  0  0  0  0  0  0  0  0  0  0
  189.3170  176.3820  142.4620 C   0  0  2  0  0  3  0  0  0  0  0  0
  189.4940  176.9790  144.9130 N   0  0  0  0  0  2  0  0  0  0  0  0
  191.6810  176.0030  143.8040 S   0  0  0  0  0  0  0  0  0  0  0  0
  187.3840  177.4140  146.2250 C   0  0  0  0  0  1  0  0  0  0  0  0
  187.4120  177.3810  143.7860 C   0  0  0  0  0  3  0  0  0  0  0  0
  191.9180  175.3780  138.4010 C   0  0  0  0  0  2  0  0  0  0  0  0
  192.7600  175.3160  137.2900 O   0  0  0  0  0  1  0  0  0  0  0  0
  2  5  1  6  0  0  0
  2 22  1  0  0  0  0
  4 27  1  1  0  0  0
  4  6  1  0  0  0  0
  6  1  1  1  0  0  0
  6  7  1  0  0  0  0
  7  3  1  6  0  0  0
  7  2  1  0  0  0  0
  8  4  1  0  0  0  0
  8  5  1  1  0  0  0
  9 15  1  6  0  0  0
  9 10  1  0  0  0  0
  9  8  1  0  0  0  0
 10 17  1  6  0  0  0
 11 16  2  0  0  0  0
 11 10  1  0  0  0  0
 13 12  1  6  0  0  0
 13 14  1  0  0  0  0
 13 11  1  0  0  0  0
 15 14  1  0  0  0  0
 18 17  1  0  0  0  0
 19 26  1  0  0  0  0
 20 24  2  0  0  0  0
 20 23  1  0  0  0  0
 21 25  1  0  0  0  0
 22 19  1  6  0  0  0
 22 20  1  0  0  0  0
 23 21  1  0  0  0  0
 26 21  2  0  0  0  0
 28 27  1  0  0  0  0
M  END
>  <MODEL>
9

>  <REMARK>
 VINA RESULT:      -4.9      5.276      7.045
  Name = 
  4 active torsions:
  status: ('A' for Active; 'I' for Inactive)
    1  A    between atoms: C_1  and  C_27
    2  A    between atoms: C_2  and  S_7
    3  A    between atoms: C_10  and  C_13
    4  A    between atoms: C_16  and  C_19
                            x       y       z     vdW  Elec       q    Type
                         _______ _______ _______ _____ _____    ______ ____

>  <TORSDO>
F 4

$$$$
