=
 OpenBabel10262419493D

 25 29  0  0  1  0  0  0  0  0999 V2000
  187.0770  177.9940  145.8650 C   0  0  0  0  0  0  0  0  0  0  0  0
  188.3530  177.5510  145.5170 C   0  0  0  0  0  0  0  0  0  0  0  0
  187.6470  178.0160  148.2040 C   0  0  0  0  0  3  0  0  0  0  0  0
  185.9520  178.2940  145.1270 C   0  0  0  0  0  0  0  0  0  0  0  0
  183.4060  179.0500  144.3450 C   0  0  0  0  0  3  0  0  0  0  0  0
  188.8990  177.5810  147.8720 N   0  0  0  0  0  0  0  0  0  0  0  0
  185.0100  178.6810  146.0560 C   0  0  0  0  0  0  0  0  0  0  0  0
  183.8070  179.0420  145.7310 N   0  0  0  0  0  0  0  0  0  0  0  0
  190.6020  176.8880  146.2620 N   0  0  0  0  0  0  0  0  0  0  0  0
  191.5860  176.6600  147.3070 C   0  0  0  0  0  1  0  0  0  0  0  0
  188.7140  177.3220  144.2480 C   0  0  0  0  0  3  0  0  0  0  0  0
  184.2590  178.6870  143.3680 C   0  0  0  0  0  3  0  0  0  0  0  0
  186.7300  178.2230  147.1780 C   0  0  0  0  0  0  0  0  0  0  0  0
  185.4850  178.6350  147.2830 O   0  0  0  0  0  0  0  0  0  0  0  0
  190.9670  176.6490  144.8950 C   0  0  0  0  0  3  0  0  0  0  0  0
  185.6820  178.2510  143.6540 C   0  0  0  0  0  2  0  0  0  0  0  0
  190.0800  176.8490  143.9140 C   0  0  0  0  0  0  0  0  0  0  0  0
  189.2740  177.3450  146.5730 C   0  0  0  0  0  0  0  0  0  0  0  0
  190.4860  176.5950  142.5270 C   0  0  0  0  0  3  0  0  0  0  0  0
  189.8700  177.1580  141.4920 C   0  0  0  0  0  3  0  0  0  0  0  0
  190.3060  176.8760  140.0940 C   0  0  2  0  0  3  0  0  0  0  0  0
  191.6660  177.1610  139.9750 O   0  0  0  0  0  1  0  0  0  0  0  0
  189.5220  177.7290  139.1080 C   0  0  0  0  0  3  0  0  0  0  0  0
  188.6450  176.8360  138.2520 C   0  0  0  0  0  2  0  0  0  0  0  0
  189.9400  177.3810  137.6930 C   0  0  0  0  0  2  0  0  0  0  0  0
  1 13  1  0  0  0  0
  2  1  1  0  0  0  0
  2 18  1  0  0  0  0
  4  1  2  0  0  0  0
  4  7  1  0  0  0  0
  5  8  1  0  0  0  0
  6  3  1  0  0  0  0
  7 14  1  0  0  0  0
  8  7  2  0  0  0  0
  9 18  1  0  0  0  0
  9 10  1  0  0  0  0
 11  2  2  0  0  0  0
 12 16  1  0  0  0  0
 12  5  2  0  0  0  0
 13 14  1  0  0  0  0
 13  3  2  0  0  0  0
 15  9  1  0  0  0  0
 16  4  1  0  0  0  0
 17 11  1  0  0  0  0
 17 15  2  0  0  0  0
 18  6  2  0  0  0  0
 19 17  1  0  0  0  0
 20 19  2  0  0  0  0
 21 22  1  1  0  0  0
 21 20  1  0  0  0  0
 23 21  1  0  0  0  0
 24 23  1  0  0  0  0
 25 24  1  0  0  0  0
 25 23  1  0  0  0  0
M  END
>  <MODEL>
1

>  <REMARK>
 VINA RESULT:     -10.5      0.000      0.000
  Name = 
  3 active torsions:
  status: ('A' for Active; 'I' for Inactive)
    1  A    between atoms: C_2  and  C_21
    2  A    between atoms: C_6  and  C_23
    3  A    between atoms: C_15  and  C_21
                            x       y       z     vdW  Elec       q    Type
                         _______ _______ _______ _____ _____    ______ ____

>  <TORSDO>
F 3

$$$$
=
 OpenBabel10262419493D

 25 29  0  0  1  0  0  0  0  0999 V2000
  187.0920  177.9000  145.5550 C   0  0  0  0  0  0  0  0  0  0  0  0
  188.3110  177.4830  145.0180 C   0  0  0  0  0  0  0  0  0  0  0  0
  187.9630  177.7890  147.7960 C   0  0  0  0  0  3  0  0  0  0  0  0
  185.8820  178.2380  144.9890 C   0  0  0  0  0  0  0  0  0  0  0  0
  183.2570  179.0270  144.5920 C   0  0  0  0  0  3  0  0  0  0  0  0
  189.1600  177.3800  147.2790 N   0  0  0  0  0  0  0  0  0  0  0  0
  185.0700  178.5660  146.0530 C   0  0  0  0  0  0  0  0  0  0  0  0
  183.8370  178.9400  145.9110 N   0  0  0  0  0  0  0  0  0  0  0  0
  190.6350  176.7870  145.4220 N   0  0  0  0  0  0  0  0  0  0  0  0
  191.7470  176.5040  146.3150 C   0  0  0  0  0  1  0  0  0  0  0  0
  188.5020  177.3290  143.7010 C   0  0  0  0  0  3  0  0  0  0  0  0
  183.9740  178.7250  143.4920 C   0  0  0  0  0  3  0  0  0  0  0  0
  186.9210  178.0510  146.9130 C   0  0  0  0  0  0  0  0  0  0  0  0
  185.7020  178.4520  147.2040 O   0  0  0  0  0  0  0  0  0  0  0  0
  190.8170  176.6290  144.0080 C   0  0  0  0  0  3  0  0  0  0  0  0
  185.4220  178.2790  143.5630 C   0  0  0  0  0  2  0  0  0  0  0  0
  189.8110  176.8820  143.1650 C   0  0  0  0  0  0  0  0  0  0  0  0
  189.3610  177.2210  145.9300 C   0  0  0  0  0  0  0  0  0  0  0  0
  190.0310  176.7110  141.7240 C   0  0  0  0  0  3  0  0  0  0  0  0
  189.5030  177.5320  140.8220 C   0  0  0  0  0  3  0  0  0  0  0  0
  189.7430  177.3260  139.3640 C   0  0  2  0  0  3  0  0  0  0  0  0
  188.5410  176.9740  138.7500 O   0  0  0  0  0  1  0  0  0  0  0  0
  190.7670  176.2230  139.1430 C   0  0  0  0  0  3  0  0  0  0  0  0
  191.6580  176.5870  137.9720 C   0  0  0  0  0  2  0  0  0  0  0  0
  190.5400  175.5860  137.7860 C   0  0  0  0  0  2  0  0  0  0  0  0
  1 13  1  0  0  0  0
  2  1  1  0  0  0  0
  2 18  1  0  0  0  0
  4  1  2  0  0  0  0
  4  7  1  0  0  0  0
  5  8  1  0  0  0  0
  6  3  1  0  0  0  0
  7 14  1  0  0  0  0
  8  7  2  0  0  0  0
  9 18  1  0  0  0  0
  9 10  1  0  0  0  0
 11  2  2  0  0  0  0
 12 16  1  0  0  0  0
 12  5  2  0  0  0  0
 13 14  1  0  0  0  0
 13  3  2  0  0  0  0
 15  9  1  0  0  0  0
 16  4  1  0  0  0  0
 17 11  1  0  0  0  0
 17 15  2  0  0  0  0
 18  6  2  0  0  0  0
 19 17  1  0  0  0  0
 20 19  2  0  0  0  0
 21 22  1  6  0  0  0
 21 20  1  0  0  0  0
 23 21  1  0  0  0  0
 24 23  1  0  0  0  0
 25 24  1  0  0  0  0
 25 23  1  0  0  0  0
M  END
>  <MODEL>
2

>  <REMARK>
 VINA RESULT:     -10.2      1.036      1.204
  Name = 
  3 active torsions:
  status: ('A' for Active; 'I' for Inactive)
    1  A    between atoms: C_2  and  C_21
    2  A    between atoms: C_6  and  C_23
    3  A    between atoms: C_15  and  C_21
                            x       y       z     vdW  Elec       q    Type
                         _______ _______ _______ _____ _____    ______ ____

>  <TORSDO>
F 3

$$$$
=
 OpenBabel10262419493D

 25 29  0  0  1  0  0  0  0  0999 V2000
  187.0300  177.8660  145.0890 C   0  0  0  0  0  0  0  0  0  0  0  0
  188.1460  177.5350  144.3190 C   0  0  0  0  0  0  0  0  0  0  0  0
  188.2120  177.3890  147.1310 C   0  0  0  0  0  3  0  0  0  0  0  0
  185.7610  178.2970  144.7680 C   0  0  0  0  0  0  0  0  0  0  0  0
  183.1300  179.1530  144.8930 C   0  0  0  0  0  3  0  0  0  0  0  0
  189.3100  177.0630  146.3850 N   0  0  0  0  0  0  0  0  0  0  0  0
  185.1210  178.4530  145.9790 C   0  0  0  0  0  0  0  0  0  0  0  0
  183.8910  178.8510  146.0810 N   0  0  0  0  0  0  0  0  0  0  0  0
  190.4830  176.7710  144.2610 N   0  0  0  0  0  0  0  0  0  0  0  0
  191.7030  176.3410  144.9230 C   0  0  0  0  0  1  0  0  0  0  0  0
  188.1400  177.5950  142.9810 C   0  0  0  0  0  3  0  0  0  0  0  0
  183.6720  179.0290  143.6650 C   0  0  0  0  0  3  0  0  0  0  0  0
  187.0610  177.7960  146.4640 C   0  0  0  0  0  0  0  0  0  0  0  0
  185.9090  178.1500  146.9910 O   0  0  0  0  0  0  0  0  0  0  0  0
  190.4550  176.8430  142.8280 C   0  0  0  0  0  3  0  0  0  0  0  0
  185.1010  178.5700  143.4510 C   0  0  0  0  0  3  0  0  0  0  0  0
  189.3450  177.2350  142.1940 C   0  0  0  0  0  0  0  0  0  0  0  0
  189.3090  177.1230  145.0130 C   0  0  2  0  0  3  0  0  0  0  0  0
  189.3490  177.2970  140.7270 C   0  0  0  0  0  3  0  0  0  0  0  0
  188.5130  178.0760  140.0470 C   0  0  0  0  0  3  0  0  0  0  0  0
  188.5420  178.1130  138.5560 C   0  0  2  0  0  3  0  0  0  0  0  0
  189.0390  179.3490  138.1420 O   0  0  0  0  0  1  0  0  0  0  0  0
  187.1440  177.9150  137.9900 C   0  0  0  0  0  3  0  0  0  0  0  0
  187.1350  176.7060  137.0750 C   0  0  0  0  0  2  0  0  0  0  0  0
  187.1750  178.0980  136.4860 C   0  0  0  0  0  2  0  0  0  0  0  0
  1 13  2  0  0  0  0
  2  1  1  0  0  0  0
  4  1  1  0  0  0  0
  4  7  1  0  0  0  0
  5  8  1  0  0  0  0
  6  3  2  0  0  0  0
  7  8  2  0  0  0  0
  7 14  1  0  0  0  0
  9 10  1  0  0  0  0
  9 18  1  0  0  0  0
 11  2  2  0  0  0  0
 12  5  2  0  0  0  0
 13 14  1  0  0  0  0
 13  3  1  0  0  0  0
 15  9  1  0  0  0  0
 16 12  1  0  0  0  0
 16  4  2  0  0  0  0
 17 15  2  0  0  0  0
 17 11  1  0  0  0  0
 18  2  1  1  0  0  0
 18  6  1  0  0  0  0
 19 17  1  0  0  0  0
 20 19  2  0  0  0  0
 21 22  1  1  0  0  0
 21 20  1  0  0  0  0
 23 21  1  0  0  0  0
 24 23  1  0  0  0  0
 25 24  1  0  0  0  0
 25 23  1  0  0  0  0
M  END
>  <MODEL>
3

>  <REMARK>
 VINA RESULT:      -9.8      1.398      1.837
  Name = 
  3 active torsions:
  status: ('A' for Active; 'I' for Inactive)
    1  A    between atoms: C_2  and  C_21
    2  A    between atoms: C_6  and  C_23
    3  A    between atoms: C_15  and  C_21
                            x       y       z     vdW  Elec       q    Type
                         _______ _______ _______ _____ _____    ______ ____

>  <TORSDO>
F 3

$$$$
=
 OpenBabel10262419493D

 25 29  0  0  1  0  0  0  0  0999 V2000
  187.4190  177.8800  145.5880 C   0  0  0  0  0  0  0  0  0  0  0  0
  186.5840  178.1700  144.5080 C   0  0  0  0  0  0  0  0  0  0  0  0
  185.6560  178.3400  147.1620 C   0  0  0  0  0  3  0  0  0  0  0  0
  188.7350  177.4840  145.6790 C   0  0  0  0  0  0  0  0  0  0  0  0
  191.2230  176.7090  146.6170 C   0  0  0  0  0  3  0  0  0  0  0  0
  184.8320  178.6270  146.1110 N   0  0  0  0  0  0  0  0  0  0  0  0
  188.9770  177.3590  147.0300 C   0  0  0  0  0  0  0  0  0  0  0  0
  190.1270  176.9990  147.5100 N   0  0  0  0  0  0  0  0  0  0  0  0
  184.3570  178.8620  143.7250 N   0  0  0  0  0  0  0  0  0  0  0  0
  182.9820  179.2610  143.9750 C   0  0  0  0  0  1  0  0  0  0  0  0
  187.0000  178.0970  143.2370 C   0  0  0  0  0  3  0  0  0  0  0  0
  191.0800  176.8050  145.2810 C   0  0  0  0  0  3  0  0  0  0  0  0
  186.9660  177.9620  146.8870 C   0  0  0  0  0  0  0  0  0  0  0  0
  187.9110  177.6470  147.7470 O   0  0  0  0  0  0  0  0  0  0  0  0
  184.8250  178.7770  142.3710 C   0  0  0  0  0  3  0  0  0  0  0  0
  189.7740  177.2180  144.6320 C   0  0  0  0  0  3  0  0  0  0  0  0
  186.0850  178.4130  142.1140 C   0  0  0  0  0  0  0  0  0  0  0  0
  185.2540  178.5530  144.8070 C   0  0  1  0  0  3  0  0  0  0  0  0
  186.5310  178.3370  140.7170 C   0  0  0  0  0  3  0  0  0  0  0  0
  187.8130  178.2130  140.3870 C   0  0  0  0  0  3  0  0  0  0  0  0
  188.2330  178.1410  138.9570 C   0  0  2  0  0  3  0  0  0  0  0  0
  189.0190  179.2540  138.6580 O   0  0  0  0  0  1  0  0  0  0  0  0
  187.0160  178.1220  138.0440 C   0  0  0  0  0  3  0  0  0  0  0  0
  187.1720  177.0180  137.0160 C   0  0  0  0  0  2  0  0  0  0  0  0
  187.4400  178.4550  136.6270 C   0  0  0  0  0  2  0  0  0  0  0  0
  1  4  1  0  0  0  0
  1 13  2  0  0  0  0
  2  1  1  0  0  0  0
  4  7  1  0  0  0  0
  5  8  1  0  0  0  0
  6  3  2  0  0  0  0
  7  8  2  0  0  0  0
  7 14  1  0  0  0  0
  9 10  1  0  0  0  0
  9 18  1  0  0  0  0
 11  2  2  0  0  0  0
 12  5  2  0  0  0  0
 13  3  1  0  0  0  0
 13 14  1  0  0  0  0
 15  9  1  0  0  0  0
 16 12  1  0  0  0  0
 16  4  2  0  0  0  0
 17 15  2  0  0  0  0
 17 11  1  0  0  0  0
 18  2  1  1  0  0  0
 18  6  1  0  0  0  0
 19 17  1  0  0  0  0
 20 19  2  0  0  0  0
 21 22  1  6  0  0  0
 21 20  1  0  0  0  0
 23 21  1  0  0  0  0
 24 23  1  0  0  0  0
 25 24  1  0  0  0  0
 25 23  1  0  0  0  0
M  END
>  <MODEL>
4

>  <REMARK>
 VINA RESULT:      -9.5      1.670      4.741
  Name = 
  3 active torsions:
  status: ('A' for Active; 'I' for Inactive)
    1  A    between atoms: C_2  and  C_21
    2  A    between atoms: C_6  and  C_23
    3  A    between atoms: C_15  and  C_21
                            x       y       z     vdW  Elec       q    Type
                         _______ _______ _______ _____ _____    ______ ____

>  <TORSDO>
F 3

$$$$
=
 OpenBabel10262419493D

 25 29  0  0  1  0  0  0  0  0999 V2000
  187.2040  178.2520  141.4620 C   0  0  0  0  0  0  0  0  0  0  0  0
  186.7880  178.2360  142.7940 C   0  0  0  0  0  0  0  0  0  0  0  0
  185.0400  179.0030  140.7230 C   0  0  0  0  0  3  0  0  0  0  0  0
  188.4000  177.9510  140.8470 C   0  0  0  0  0  0  0  0  0  0  0  0
  190.4020  177.5360  138.9800 C   0  0  0  0  0  3  0  0  0  0  0  0
  184.6230  178.9900  142.0240 N   0  0  0  0  0  0  0  0  0  0  0  0
  188.1750  178.1670  139.5050 C   0  0  0  0  0  0  0  0  0  0  0  0
  189.0850  177.9850  138.5990 N   0  0  0  0  0  0  0  0  0  0  0  0
  184.9770  178.6180  144.4140 N   0  0  0  0  0  0  0  0  0  0  0  0
  183.6140  179.0030  144.7380 C   0  0  0  0  0  1  0  0  0  0  0  0
  187.5990  177.8750  143.7970 C   0  0  0  0  0  3  0  0  0  0  0  0
  190.7140  177.2980  140.2680 C   0  0  0  0  0  3  0  0  0  0  0  0
  186.3510  178.6280  140.4480 C   0  0  0  0  0  0  0  0  0  0  0  0
  186.9430  178.5740  139.2740 O   0  0  0  0  0  0  0  0  0  0  0  0
  185.8630  178.2280  145.4720 C   0  0  0  0  0  3  0  0  0  0  0  0
  189.7150  177.4840  141.3930 C   0  0  0  0  0  2  0  0  0  0  0  0
  187.1220  177.8680  145.2010 C   0  0  0  0  0  0  0  0  0  0  0  0
  185.4510  178.6200  143.0550 C   0  0  0  0  0  0  0  0  0  0  0  0
  188.0020  177.4740  146.3080 C   0  0  0  0  0  3  0  0  0  0  0  0
  189.2790  177.1540  146.1200 C   0  0  0  0  0  3  0  0  0  0  0  0
  190.1450  176.7540  147.2670 C   0  0  2  0  0  3  0  0  0  0  0  0
  189.9620  177.6600  148.3120 O   0  0  0  0  0  1  0  0  0  0  0  0
  191.6090  176.7490  146.8530 C   0  0  0  0  0  3  0  0  0  0  0  0
  192.0550  175.3240  146.5900 C   0  0  0  0  0  2  0  0  0  0  0  0
  192.4260  176.0030  147.8900 C   0  0  0  0  0  2  0  0  0  0  0  0
  1  2  1  0  0  0  0
  2 18  1  0  0  0  0
  2 11  2  0  0  0  0
  3  6  1  0  0  0  0
  4 16  1  0  0  0  0
  4  1  2  0  0  0  0
  5 12  2  0  0  0  0
  6 18  2  0  0  0  0
  7  4  1  0  0  0  0
  8  5  1  0  0  0  0
  8  7  2  0  0  0  0
  9 10  1  0  0  0  0
  9 15  1  0  0  0  0
 11 17  1  0  0  0  0
 12 16  1  0  0  0  0
 13  3  2  0  0  0  0
 13  1  1  0  0  0  0
 14  7  1  0  0  0  0
 14 13  1  0  0  0  0
 17 15  2  0  0  0  0
 17 19  1  0  0  0  0
 18  9  1  0  0  0  0
 20 19  2  0  0  0  0
 20 21  1  0  0  0  0
 21 22  1  1  0  0  0
 23 21  1  0  0  0  0
 23 25  1  0  0  0  0
 24 23  1  0  0  0  0
 24 25  1  0  0  0  0
M  END
>  <MODEL>
5

>  <REMARK>
 VINA RESULT:      -9.4      2.616      6.885
  Name = 
  3 active torsions:
  status: ('A' for Active; 'I' for Inactive)
    1  A    between atoms: C_2  and  C_21
    2  A    between atoms: C_6  and  C_23
    3  A    between atoms: C_15  and  C_21
                            x       y       z     vdW  Elec       q    Type
                         _______ _______ _______ _____ _____    ______ ____

>  <TORSDO>
F 3

$$$$
=
 OpenBabel10262419493D

 25 29  0  0  1  0  0  0  0  0999 V2000
  187.9800  177.6250  145.5150 C   0  0  0  0  0  0  0  0  0  0  0  0
  187.2210  177.9490  144.3900 C   0  0  0  0  0  0  0  0  0  0  0  0
  186.1190  178.0610  146.9800 C   0  0  0  0  0  3  0  0  0  0  0  0
  189.2850  177.2160  145.6830 C   0  0  0  0  0  0  0  0  0  0  0  0
  191.6980  176.3960  146.7650 C   0  0  0  0  0  3  0  0  0  0  0  0
  185.3690  178.3810  145.8830 N   0  0  0  0  0  0  0  0  0  0  0  0
  189.4350  177.0550  147.0440 C   0  0  0  0  0  0  0  0  0  0  0  0
  190.5470  176.6730  147.5900 N   0  0  0  0  0  0  0  0  0  0  0  0
  185.0560  178.6810  143.4780 N   0  0  0  0  0  0  0  0  0  0  0  0
  183.6710  179.0850  143.6450 C   0  0  0  0  0  1  0  0  0  0  0  0
  187.7210  177.9050  143.1480 C   0  0  0  0  0  3  0  0  0  0  0  0
  191.6460  176.5270  145.4250 C   0  0  0  0  0  3  0  0  0  0  0  0
  187.4420  177.6790  146.7820 C   0  0  0  0  0  0  0  0  0  0  0  0
  188.3250  177.3340  147.6950 O   0  0  0  0  0  0  0  0  0  0  0  0
  185.6130  178.6260  142.1570 C   0  0  0  0  0  3  0  0  0  0  0  0
  190.3890  176.9680  144.7010 C   0  0  0  0  0  3  0  0  0  0  0  0
  186.8850  178.2580  141.9740 C   0  0  0  0  0  0  0  0  0  0  0  0
  185.8770  178.3370  144.6080 C   0  0  2  0  0  3  0  0  0  0  0  0
  187.4230  178.2130  140.6090 C   0  0  0  0  0  3  0  0  0  0  0  0
  188.7290  178.2310  140.3590 C   0  0  0  0  0  3  0  0  0  0  0  0
  189.2420  178.1870  138.9590 C   0  0  2  0  0  3  0  0  0  0  0  0
  188.9390  179.3930  138.3270 O   0  0  0  0  0  1  0  0  0  0  0  0
  188.6030  177.0390  138.1930 C   0  0  0  0  0  3  0  0  0  0  0  0
  189.6840  176.0970  137.6990 C   0  0  0  0  0  2  0  0  0  0  0  0
  189.0510  177.0860  136.7450 C   0  0  0  0  0  2  0  0  0  0  0  0
  1  4  1  0  0  0  0
  1 13  2  0  0  0  0
  2  1  1  0  0  0  0
  4  7  1  0  0  0  0
  5  8  1  0  0  0  0
  6  3  2  0  0  0  0
  7  8  2  0  0  0  0
  7 14  1  0  0  0  0
  9 10  1  0  0  0  0
  9 18  1  0  0  0  0
 11  2  2  0  0  0  0
 12  5  2  0  0  0  0
 13  3  1  0  0  0  0
 13 14  1  0  0  0  0
 15  9  1  0  0  0  0
 16 12  1  0  0  0  0
 16  4  2  0  0  0  0
 17 15  2  0  0  0  0
 17 11  1  0  0  0  0
 18  2  1  6  0  0  0
 18  6  1  0  0  0  0
 19 17  1  0  0  0  0
 20 19  2  0  0  0  0
 21 22  1  6  0  0  0
 21 20  1  0  0  0  0
 23 21  1  0  0  0  0
 24 23  1  0  0  0  0
 25 24  1  0  0  0  0
 25 23  1  0  0  0  0
M  END
>  <MODEL>
6

>  <REMARK>
 VINA RESULT:      -9.3      1.628      4.643
  Name = 
  3 active torsions:
  status: ('A' for Active; 'I' for Inactive)
    1  A    between atoms: C_2  and  C_21
    2  A    between atoms: C_6  and  C_23
    3  A    between atoms: C_15  and  C_21
                            x       y       z     vdW  Elec       q    Type
                         _______ _______ _______ _____ _____    ______ ____

>  <TORSDO>
F 3

$$$$
=
 OpenBabel10262419493D

 25 29  0  0  1  0  0  0  0  0999 V2000
  189.8310  177.4130  143.3860 C   0  0  0  0  0  0  0  0  0  0  0  0
  188.7970  177.8150  142.5400 C   0  0  0  0  0  0  0  0  0  0  0  0
  191.3380  177.1440  141.5290 C   0  0  0  0  0  3  0  0  0  0  0  0
  189.9180  177.2480  144.7520 C   0  0  0  0  0  0  0  0  0  0  0  0
  190.8170  176.7120  147.3150 C   0  0  0  0  0  3  0  0  0  0  0  0
  190.3310  177.5360  140.6920 N   0  0  0  0  0  0  0  0  0  0  0  0
  191.2120  176.8300  144.9780 C   0  0  0  0  0  0  0  0  0  0  0  0
  191.6720  176.5690  146.1620 N   0  0  0  0  0  0  0  0  0  0  0  0
  188.0460  178.2780  140.2440 N   0  0  0  0  0  0  0  0  0  0  0  0
  188.2840  178.3500  138.8120 C   0  0  0  0  0  1  0  0  0  0  0  0
  187.5790  178.1400  142.9960 C   0  0  0  0  0  3  0  0  0  0  0  0
  189.5370  177.1140  147.1920 C   0  0  0  0  0  3  0  0  0  0  0  0
  191.0740  177.0850  142.8930 C   0  0  0  0  0  0  0  0  0  0  0  0
  191.8990  176.7350  143.8570 O   0  0  0  0  0  0  0  0  0  0  0  0
  186.7500  178.6210  140.7540 C   0  0  0  0  0  3  0  0  0  0  0  0
  188.9150  177.4410  145.8480 C   0  0  0  0  0  3  0  0  0  0  0  0
  186.5030  178.5620  142.0670 C   0  0  0  0  0  0  0  0  0  0  0  0
  189.0820  177.8690  141.1550 C   0  0  2  0  0  3  0  0  0  0  0  0
  185.1660  178.9190  142.5560 C   0  0  0  0  0  3  0  0  0  0  0  0
  184.8590  178.9200  143.8490 C   0  0  0  0  0  3  0  0  0  0  0  0
  183.4880  179.2850  144.3120 C   0  0  2  0  0  3  0  0  0  0  0  0
  183.3780  179.0030  145.6730 O   0  0  0  0  0  1  0  0  0  0  0  0
  182.4380  178.4950  143.5450 C   0  0  0  0  0  3  0  0  0  0  0  0
  181.3900  179.4440  142.9980 C   0  0  0  0  0  2  0  0  0  0  0  0
  181.0970  178.6300  144.2390 C   0  0  0  0  0  2  0  0  0  0  0  0
  1  4  1  0  0  0  0
  2 11  2  0  0  0  0
  2  1  1  0  0  0  0
  3 13  1  0  0  0  0
  4  7  1  0  0  0  0
  4 16  2  0  0  0  0
  6  3  2  0  0  0  0
  7  8  2  0  0  0  0
  8  5  1  0  0  0  0
  9 15  1  0  0  0  0
  9 18  1  0  0  0  0
 10  9  1  0  0  0  0
 12  5  2  0  0  0  0
 13  1  2  0  0  0  0
 13 14  1  0  0  0  0
 14  7  1  0  0  0  0
 15 17  2  0  0  0  0
 16 12  1  0  0  0  0
 17 19  1  0  0  0  0
 17 11  1  0  0  0  0
 18  6  1  1  0  0  0
 18  2  1  0  0  0  0
 19 20  2  0  0  0  0
 20 21  1  0  0  0  0
 21 22  1  1  0  0  0
 23 25  1  0  0  0  0
 23 21  1  0  0  0  0
 24 23  1  0  0  0  0
 24 25  1  0  0  0  0
M  END
>  <MODEL>
7

>  <REMARK>
 VINA RESULT:      -9.3      2.400      7.008
  Name = 
  3 active torsions:
  status: ('A' for Active; 'I' for Inactive)
    1  A    between atoms: C_2  and  C_21
    2  A    between atoms: C_6  and  C_23
    3  A    between atoms: C_15  and  C_21
                            x       y       z     vdW  Elec       q    Type
                         _______ _______ _______ _____ _____    ______ ____

>  <TORSDO>
F 3

$$$$
=
 OpenBabel10262419493D

 25 29  0  0  1  0  0  0  0  0999 V2000
  189.7960  177.4480  143.9030 C   0  0  0  0  0  0  0  0  0  0  0  0
  188.7210  177.6330  144.7740 C   0  0  0  0  0  0  0  0  0  0  0  0
  191.2980  177.0290  145.7380 C   0  0  0  0  0  3  0  0  0  0  0  0
  189.9130  177.4920  142.5310 C   0  0  0  0  0  0  0  0  0  0  0  0
  190.8840  177.4170  139.9390 C   0  0  0  0  0  3  0  0  0  0  0  0
  190.2510  177.2100  146.5980 N   0  0  0  0  0  0  0  0  0  0  0  0
  191.2400  177.2200  142.2780 C   0  0  0  0  0  0  0  0  0  0  0  0
  191.7350  177.1760  141.0800 N   0  0  0  0  0  0  0  0  0  0  0  0
  187.9060  177.6900  147.0940 N   0  0  0  0  0  0  0  0  0  0  0  0
  188.1210  177.5700  148.5260 C   0  0  0  0  0  1  0  0  0  0  0  0
  187.4860  177.9220  144.3410 C   0  0  0  0  0  3  0  0  0  0  0  0
  189.5740  177.6910  140.0890 C   0  0  0  0  0  3  0  0  0  0  0  0
  191.0560  177.1520  144.3730 C   0  0  0  0  0  0  0  0  0  0  0  0
  191.9180  177.0170  143.3890 O   0  0  0  0  0  0  0  0  0  0  0  0
  186.5920  177.9980  146.6080 C   0  0  0  0  0  3  0  0  0  0  0  0
  188.9110  177.7640  141.4510 C   0  0  0  0  0  2  0  0  0  0  0  0
  186.3670  178.1140  145.2950 C   0  0  0  0  0  0  0  0  0  0  0  0
  188.9840  177.5060  146.1590 C   0  0  0  0  0  0  0  0  0  0  0  0
  185.0110  178.4300  144.8320 C   0  0  0  0  0  3  0  0  0  0  0  0
  184.7250  178.6170  143.5470 C   0  0  0  0  0  3  0  0  0  0  0  0
  183.3360  178.9410  143.1110 C   0  0  2  0  0  3  0  0  0  0  0  0
  182.4510  178.6370  144.1460 O   0  0  0  0  0  1  0  0  0  0  0  0
  182.9630  178.1350  141.8750 C   0  0  0  0  0  3  0  0  0  0  0  0
  182.7640  179.0730  140.7000 C   0  0  0  0  0  2  0  0  0  0  0  0
  181.5640  178.5100  141.4290 C   0  0  0  0  0  2  0  0  0  0  0  0
  1 13  1  0  0  0  0
  1  2  1  0  0  0  0
  2 18  1  0  0  0  0
  3  6  1  0  0  0  0
  4  1  2  0  0  0  0
  5 12  2  0  0  0  0
  5  8  1  0  0  0  0
  7  4  1  0  0  0  0
  7 14  1  0  0  0  0
  8  7  2  0  0  0  0
  9 10  1  0  0  0  0
 11  2  2  0  0  0  0
 11 17  1  0  0  0  0
 12 16  1  0  0  0  0
 13  3  2  0  0  0  0
 14 13  1  0  0  0  0
 15  9  1  0  0  0  0
 16  4  1  0  0  0  0
 17 15  2  0  0  0  0
 18  6  2  0  0  0  0
 18  9  1  0  0  0  0
 19 17  1  0  0  0  0
 20 19  2  0  0  0  0
 21 20  1  0  0  0  0
 21 22  1  1  0  0  0
 23 21  1  0  0  0  0
 24 25  1  0  0  0  0
 24 23  1  0  0  0  0
 25 23  1  0  0  0  0
M  END
>  <MODEL>
8

>  <REMARK>
 VINA RESULT:      -9.1      1.986      6.030
  Name = 
  3 active torsions:
  status: ('A' for Active; 'I' for Inactive)
    1  A    between atoms: C_2  and  C_21
    2  A    between atoms: C_6  and  C_23
    3  A    between atoms: C_15  and  C_21
                            x       y       z     vdW  Elec       q    Type
                         _______ _______ _______ _____ _____    ______ ____

>  <TORSDO>
F 3

$$$$
=
 OpenBabel10262419493D

 25 29  0  0  1  0  0  0  0  0999 V2000
  185.9900  178.4320  142.1000 C   0  0  0  0  0  0  0  0  0  0  0  0
  187.3370  178.0710  142.1560 C   0  0  0  0  0  0  0  0  0  0  0  0
  186.0900  178.6950  139.7090 C   0  0  0  0  0  3  0  0  0  0  0  0
  185.0130  178.5700  143.0620 C   0  0  0  0  0  0  0  0  0  0  0  0
  182.6220  179.0370  144.3780 C   0  0  0  0  0  3  0  0  0  0  0  0
  187.4100  178.3440  139.7550 N   0  0  0  0  0  0  0  0  0  0  0  0
  183.8840  178.9510  142.3690 C   0  0  0  0  0  0  0  0  0  0  0  0
  182.7460  179.1790  142.9480 N   0  0  0  0  0  0  0  0  0  0  0  0
  189.4380  177.6680  140.9410 N   0  0  0  0  0  0  0  0  0  0  0  0
  190.2130  177.6150  139.7130 C   0  0  0  0  0  1  0  0  0  0  0  0
  187.9540  177.7700  143.3060 C   0  0  0  0  0  3  0  0  0  0  0  0
  183.6730  178.6700  145.1380 C   0  0  0  0  0  3  0  0  0  0  0  0
  185.3790  178.7370  140.9040 C   0  0  0  0  0  0  0  0  0  0  0  0
  184.1120  179.0480  141.0760 O   0  0  0  0  0  0  0  0  0  0  0  0
  190.0780  177.3500  142.1840 C   0  0  0  0  0  3  0  0  0  0  0  0
  185.0400  178.3830  144.5480 C   0  0  0  0  0  3  0  0  0  0  0  0
  189.3880  177.3920  143.3290 C   0  0  0  0  0  0  0  0  0  0  0  0
  188.0460  178.0340  140.9310 C   0  0  1  0  0  3  0  0  0  0  0  0
  190.0730  177.0600  144.5840 C   0  0  0  0  0  3  0  0  0  0  0  0
  189.4450  177.0500  145.7560 C   0  0  0  0  0  3  0  0  0  0  0  0
  190.1720  176.7110  147.0130 C   0  0  2  0  0  3  0  0  0  0  0  0
  189.8640  177.6620  147.9860 O   0  0  0  0  0  1  0  0  0  0  0  0
  191.6750  176.7020  146.7740 C   0  0  0  0  0  3  0  0  0  0  0  0
  192.1810  175.2730  146.7890 C   0  0  0  0  0  2  0  0  0  0  0  0
  192.3790  176.1560  148.0010 C   0  0  0  0  0  2  0  0  0  0  0  0
  1  2  1  0  0  0  0
  1  4  1  0  0  0  0
  2 11  2  0  0  0  0
  3  6  2  0  0  0  0
  3 13  1  0  0  0  0
  4 16  2  0  0  0  0
  5 12  2  0  0  0  0
  7  8  2  0  0  0  0
  7  4  1  0  0  0  0
  8  5  1  0  0  0  0
  9 15  1  0  0  0  0
 10  9  1  0  0  0  0
 11 17  1  0  0  0  0
 13 14  1  0  0  0  0
 13  1  2  0  0  0  0
 14  7  1  0  0  0  0
 15 17  2  0  0  0  0
 16 12  1  0  0  0  0
 17 19  1  0  0  0  0
 18  6  1  1  0  0  0
 18  9  1  0  0  0  0
 18  2  1  0  0  0  0
 19 20  2  0  0  0  0
 20 21  1  0  0  0  0
 21 22  1  1  0  0  0
 23 24  1  0  0  0  0
 23 21  1  0  0  0  0
 23 25  1  0  0  0  0
 24 25  1  0  0  0  0
M  END
>  <MODEL>
9

>  <REMARK>
 VINA RESULT:      -9.0      2.959      5.758
  Name = 
  3 active torsions:
  status: ('A' for Active; 'I' for Inactive)
    1  A    between atoms: C_2  and  C_21
    2  A    between atoms: C_6  and  C_23
    3  A    between atoms: C_15  and  C_21
                            x       y       z     vdW  Elec       q    Type
                         _______ _______ _______ _____ _____    ______ ____

>  <TORSDO>
F 3

$$$$
