=
 OpenBabel10262420163D

 55 61  0  0  1  0  0  0  0  0999 V2000
  191.8750  175.9300  137.3190 C   0  0  0  0  0  2  0  0  0  0  0  0
  194.0140  174.9810  136.8230 O   0  0  0  0  0  1  0  0  0  0  0  0
  192.6650  177.1530  139.1510 C   0  0  1  0  0  3  0  0  0  0  0  0
  193.9120  176.7760  138.3970 C   0  0  0  0  0  2  0  0  0  0  0  0
  193.3670  176.1870  137.0940 C   0  0  2  0  0  3  0  0  0  0  0  0
  191.7130  176.0520  138.8160 C   0  0  1  0  0  3  0  0  0  0  0  0
  191.5520  177.6770  141.1750 C   0  0  1  0  0  3  0  0  0  0  0  0
  192.8190  177.1940  140.5930 N   0  0  0  0  0  2  0  0  0  0  0  0
  190.3530  176.4080  139.3540 C   0  0  0  0  0  0  0  0  0  0  0  0
  190.2850  177.1390  140.4920 C   0  0  0  0  0  0  0  0  0  0  0  0
  191.6820  176.1240  143.1030 N   0  0  0  0  0  0  0  0  0  0  0  0
  191.4980  176.8650  145.3720 C   0  0  0  0  0  0  0  0  0  0  0  0
  191.3700  178.4490  143.5460 C   0  0  0  0  0  3  0  0  0  0  0  0
  191.3500  178.1780  144.9140 C   0  0  0  0  0  3  0  0  0  0  0  0
  191.6650  175.8400  144.4340 C   0  0  0  0  0  3  0  0  0  0  0  0
  191.5410  177.3970  142.6440 C   0  0  0  0  0  0  0  0  0  0  0  0
  191.4750  176.5730  146.8140 C   0  0  0  0  0  0  0  0  0  0  0  0
  192.2350  175.5280  147.3290 O   0  0  0  0  0  0  0  0  0  0  0  0
  190.7690  177.2640  147.5960 O   0  0  0  0  0  1  0  0  0  0  0  0
  189.0620  177.3310  136.9020 O   0  0  0  0  0  0  0  0  0  0  0  0
  189.1530  175.8990  138.7510 N   0  0  0  0  0  2  0  0  0  0  0  0
  188.4760  176.4940  137.6380 C   0  0  0  0  0  0  0  0  0  0  0  0
  187.0780  176.0910  137.3140 C   0  0  0  0  0  2  0  0  0  0  0  0
  186.9500  175.6940  135.8560 C   0  0  0  0  0  2  0  0  0  0  0  0
  185.8020  176.4470  135.2170 C   0  0  0  0  0  2  0  0  0  0  0  0
  184.6910  175.4760  134.8690 C   0  0  0  0  0  2  0  0  0  0  0  0
  183.3360  176.1020  135.1680 C   0  0  0  0  0  2  0  0  0  0  0  0
  183.0600  179.0320  140.7890 C   0  0  0  0  0  0  0  0  0  0  0  0
  178.9330  176.8530  139.5880 F   0  0  0  0  0  0  0  0  0  0  0  0
  180.6930  177.1770  138.0430 C   0  0  0  0  0  0  0  0  0  0  0  0
  183.1830  176.9680  137.5700 C   0  0  0  0  0  2  0  0  0  0  0  0
  183.3640  177.3230  136.1010 C   0  0  2  0  0  3  0  0  0  0  0  0
  179.1120  178.8340  138.5370 F   0  0  0  0  0  0  0  0  0  0  0  0
  179.8260  177.7970  139.1100 C   0  0  0  0  0  0  0  0  0  0  0  0
  181.9650  177.8760  137.6210 C   0  0  1  0  0  0  0  0  0  0  0  0
  184.1710  179.4930  140.4150 O   0  0  0  0  0  0  0  0  0  0  0  0
  182.0780  178.1400  136.1290 C   0  0  0  0  0  2  0  0  0  0  0  0
  182.8920  178.6650  142.1180 O   0  0  0  0  0  1  0  0  0  0  0  0
  180.6980  178.3100  140.2880 C   0  0  1  0  0  3  0  0  0  0  0  0
  182.2280  179.1410  138.4340 C   0  0  0  0  0  2  0  0  0  0  0  0
  180.3470  176.1370  137.5050 O   0  0  0  0  0  0  0  0  0  0  0  0
  181.9850  178.8760  139.8510 N   0  0  0  0  0  0  0  0  0  0  0  0
  179.9810  179.2700  141.2520 C   0  0  1  0  0  3  0  0  0  0  0  0
  178.9670  179.9790  140.6030 O   0  0  0  0  0  1  0  0  0  0  0  0
  179.4340  178.5480  142.4710 C   0  0  0  0  0  2  0  0  0  0  0  0
  179.6760  177.1780  142.3590 O   0  0  0  0  0  1  0  0  0  0  0  0
  188.9580  177.5060  141.0880 C   0  0  0  0  0  2  0  0  0  0  0  0
  188.6170  176.5870  142.2490 C   0  0  0  0  0  2  0  0  0  0  0  0
  186.5920  178.1120  142.6750 C   0  0  0  0  0  3  0  0  0  0  0  0
  187.2110  177.9540  145.6000 C   0  0  2  0  0  3  0  0  0  0  0  0
  188.0020  177.2050  144.5450 C   0  0  0  0  0  3  0  0  0  0  0  0
  185.7170  178.6780  143.5130 C   0  0  0  0  0  3  0  0  0  0  0  0
  187.7360  177.3000  143.2130 C   0  0  0  0  0  0  0  0  0  0  0  0
  186.0220  177.3580  145.9250 C   0  0  0  0  0  2  0  0  0  0  0  0
  186.0070  178.4150  144.8680 N   0  0  0  0  0  0  0  0  0  0  0  0
  3  4  1  6  0  0  0
  3  8  1  0  0  0  0
  5  2  1  1  0  0  0
  5  1  1  0  0  0  0
  5  4  1  0  0  0  0
  6  1  1  6  0  0  0
  6  3  1  0  0  0  0
  6  9  1  0  0  0  0
  7 16  1  1  0  0  0
  8  7  1  0  0  0  0
  9 10  2  0  0  0  0
 10 47  1  0  0  0  0
 10  7  1  0  0  0  0
 11 15  1  0  0  0  0
 12 17  1  0  0  0  0
 13 14  2  0  0  0  0
 14 12  1  0  0  0  0
 15 12  2  0  0  0  0
 16 11  2  0  0  0  0
 16 13  1  0  0  0  0
 17 18  2  0  0  0  0
 17 19  1  0  0  0  0
 20 22  2  0  0  0  0
 21  9  1  0  0  0  0
 22 21  1  0  0  0  0
 23 22  1  0  0  0  0
 24 23  1  0  0  0  0
 25 24  1  0  0  0  0
 26 27  1  0  0  0  0
 26 25  1  0  0  0  0
 28 38  1  0  0  0  0
 30 34  1  0  0  0  0
 31 35  1  0  0  0  0
 32 27  1  6  0  0  0
 32 37  1  0  0  0  0
 32 31  1  0  0  0  0
 33 34  1  0  0  0  0
 34 29  1  0  0  0  0
 34 39  1  0  0  0  0
 35 37  1  6  0  0  0
 35 30  1  0  0  0  0
 35 40  1  0  0  0  0
 36 28  2  0  0  0  0
 39 43  1  6  0  0  0
 40 42  1  0  0  0  0
 41 30  2  0  0  0  0
 42 39  1  0  0  0  0
 42 28  1  0  0  0  0
 43 44  1  6  0  0  0
 43 45  1  0  0  0  0
 46 45  1  0  0  0  0
 47 48  1  0  0  0  0
 48 53  1  0  0  0  0
 49 53  1  0  0  0  0
 49 52  2  0  0  0  0
 50 51  1  6  0  0  0
 50 54  1  0  0  0  0
 52 55  1  0  0  0  0
 53 51  2  0  0  0  0
 55 50  1  0  0  0  0
 55 54  1  0  0  0  0
M  END
>  <MODEL>
1

>  <REMARK>
 VINA RESULT:      -7.9      0.000      0.000
  Name = 
  14 active torsions:
  status: ('A' for Active; 'I' for Inactive)
    1  A    between atoms: C_2  and  C_28
    2  A    between atoms: C_2  and  C_44
    3  A    between atoms: C_4  and  C_35
    4  A    between atoms: C_4  and  C_37
    5  A    between atoms: C_8  and  C_51
    6  A    between atoms: C_10  and  C_32
    7  A    between atoms: C_11  and  C_29
    8  A    between atoms: N_19  and  C_45
    9  A    between atoms: C_28  and  C_49
   10  A    between atoms: C_29  and  C_38
   11  A    between atoms: C_33  and  C_52
   12  A    between atoms: C_35  and  C_43
   13  A    between atoms: C_37  and  C_40
   14  A    between atoms: C_43  and  C_51
                            x       y       z     vdW  Elec       q    Type
                         _______ _______ _______ _____ _____    ______ ____

>  <TORSDO>
F 14

$$$$
=
 OpenBabel10262420163D

 55 61  0  0  1  0  0  0  0  0999 V2000
  185.0600  179.4140  144.0170 C   0  0  0  0  0  2  0  0  0  0  0  0
  184.7080  178.3110  146.1090 O   0  0  0  0  0  1  0  0  0  0  0  0
  182.8770  179.0350  143.2680 C   0  0  1  0  0  3  0  0  0  0  0  0
  182.8030  178.7920  144.7510 C   0  0  0  0  0  2  0  0  0  0  0  0
  184.1690  179.2680  145.2510 C   0  0  2  0  0  3  0  0  0  0  0  0
  184.2920  178.6950  142.9330 C   0  0  1  0  0  3  0  0  0  0  0  0
  182.1170  178.6160  141.0640 C   0  0  1  0  0  3  0  0  0  0  0  0
  182.0080  178.1880  142.4720 N   0  0  0  0  0  2  0  0  0  0  0  0
  184.5560  179.0830  141.5030 C   0  0  0  0  0  0  0  0  0  0  0  0
  183.5350  179.0020  140.6160 C   0  0  0  0  0  0  0  0  0  0  0  0
  180.2640  177.6920  139.7000 N   0  0  0  0  0  0  0  0  0  0  0  0
  180.4280  175.6000  138.5480 C   0  0  0  0  0  0  0  0  0  0  0  0
  182.2890  176.4370  139.8510 C   0  0  0  0  0  3  0  0  0  0  0  0
  181.7330  175.4540  139.0320 C   0  0  0  0  0  3  0  0  0  0  0  0
  179.7030  176.7440  138.9010 C   0  0  0  0  0  3  0  0  0  0  0  0
  181.5320  177.5630  140.1770 C   0  0  0  0  0  0  0  0  0  0  0  0
  179.8350  174.5660  137.6850 C   0  0  0  0  0  0  0  0  0  0  0  0
  179.8850  173.2280  138.0620 O   0  0  0  0  0  1  0  0  0  0  0  0
  179.2770  174.8810  136.6000 O   0  0  0  0  0  0  0  0  0  0  0  0
  186.4480  177.3710  140.0820 O   0  0  0  0  0  0  0  0  0  0  0  0
  185.8770  179.4230  141.0510 N   0  0  0  0  0  2  0  0  0  0  0  0
  186.8220  178.4970  140.5040 C   0  0  0  0  0  0  0  0  0  0  0  0
  188.2580  178.8790  140.3880 C   0  0  0  0  0  2  0  0  0  0  0  0
  188.8190  178.4860  139.0340 C   0  0  0  0  0  2  0  0  0  0  0  0
  189.5940  177.1900  139.1560 C   0  0  0  0  0  2  0  0  0  0  0  0
  189.9280  176.9350  140.6120 C   0  0  0  0  0  2  0  0  0  0  0  0
  191.4230  177.1090  140.8440 C   0  0  0  0  0  2  0  0  0  0  0  0
  191.6120  175.9700  147.0820 C   0  0  0  0  0  0  0  0  0  0  0  0
  187.1750  176.9360  145.4710 F   0  0  0  0  0  0  0  0  0  0  0  0
  189.1090  177.3070  144.1620 C   0  0  0  0  0  0  0  0  0  0  0  0
  191.3070  176.3700  143.2900 C   0  0  0  0  0  2  0  0  0  0  0  0
  191.8370  177.3950  142.2960 C   0  0  2  0  0  3  0  0  0  0  0  0
  188.3400  178.8390  145.7580 F   0  0  0  0  0  0  0  0  0  0  0  0
  188.4470  177.4830  145.5050 C   0  0  0  0  0  0  0  0  0  0  0  0
  190.6040  177.4900  144.0420 C   0  0  1  0  0  0  0  0  0  0  0  0
  192.8550  176.0300  146.8860 O   0  0  0  0  0  0  0  0  0  0  0  0
  191.0370  178.4940  142.9870 C   0  0  0  0  0  2  0  0  0  0  0  0
  191.1110  175.0140  147.9550 O   0  0  0  0  0  1  0  0  0  0  0  0
  189.2710  176.7770  146.6150 C   0  0  1  0  0  3  0  0  0  0  0  0
  191.2630  177.7760  145.3880 C   0  0  0  0  0  2  0  0  0  0  0  0
  188.4330  177.0510  143.1780 O   0  0  0  0  0  0  0  0  0  0  0  0
  190.7250  176.8700  146.4030 N   0  0  0  0  0  0  0  0  0  0  0  0
  188.9040  177.1840  148.0510 C   0  0  1  0  0  3  0  0  0  0  0  0
  189.5990  178.3290  148.4480 O   0  0  0  0  0  1  0  0  0  0  0  0
  187.4070  177.3820  148.2210 C   0  0  0  0  0  2  0  0  0  0  0  0
  187.1250  178.7370  148.4050 O   0  0  0  0  0  1  0  0  0  0  0  0
  183.7440  179.3530  139.1730 C   0  0  0  0  0  2  0  0  0  0  0  0
  182.7100  180.3660  138.7110 C   0  0  0  0  0  2  0  0  0  0  0  0
  182.4210  178.5340  136.9310 C   0  0  0  0  0  3  0  0  0  0  0  0
  180.0830  180.0730  135.8660 C   0  0  2  0  0  3  0  0  0  0  0  0
  180.8730  180.5070  137.0870 C   0  0  0  0  0  3  0  0  0  0  0  0
  181.7040  177.9580  135.9590 C   0  0  0  0  0  3  0  0  0  0  0  0
  181.9520  179.8200  137.5520 C   0  0  0  0  0  0  0  0  0  0  0  0
  179.1790  179.0760  136.1200 C   0  0  0  0  0  2  0  0  0  0  0  0
  180.5370  178.6810  135.6360 N   0  0  0  0  0  0  0  0  0  0  0  0
  1  5  1  0  0  0  0
  3  4  1  1  0  0  0
  4  5  1  0  0  0  0
  5  2  1  1  0  0  0
  6  3  1  0  0  0  0
  6  1  1  1  0  0  0
  7 16  1  6  0  0  0
  7  8  1  0  0  0  0
  8  3  1  0  0  0  0
  9  6  1  0  0  0  0
 10  7  1  0  0  0  0
 10  9  2  0  0  0  0
 11 16  1  0  0  0  0
 12 15  1  0  0  0  0
 12 14  2  0  0  0  0
 13 16  2  0  0  0  0
 14 13  1  0  0  0  0
 15 11  2  0  0  0  0
 17 18  1  0  0  0  0
 17 12  1  0  0  0  0
 19 17  2  0  0  0  0
 20 22  2  0  0  0  0
 21  9  1  0  0  0  0
 22 21  1  0  0  0  0
 23 22  1  0  0  0  0
 24 25  1  0  0  0  0
 24 23  1  0  0  0  0
 25 26  1  0  0  0  0
 26 27  1  0  0  0  0
 28 38  1  0  0  0  0
 29 34  1  0  0  0  0
 30 34  1  0  0  0  0
 31 35  1  0  0  0  0
 32 27  1  6  0  0  0
 32 37  1  0  0  0  0
 32 31  1  0  0  0  0
 34 33  1  0  0  0  0
 34 39  1  0  0  0  0
 35 37  1  6  0  0  0
 35 30  1  0  0  0  0
 35 40  1  0  0  0  0
 36 28  2  0  0  0  0
 39 43  1  1  0  0  0
 40 42  1  0  0  0  0
 41 30  2  0  0  0  0
 42 39  1  0  0  0  0
 42 28  1  0  0  0  0
 43 45  1  0  0  0  0
 43 44  1  6  0  0  0
 45 46  1  0  0  0  0
 47 10  1  0  0  0  0
 48 47  1  0  0  0  0
 49 53  1  0  0  0  0
 50 54  1  1  0  0  0
 50 51  1  0  0  0  0
 51 53  2  0  0  0  0
 52 49  2  0  0  0  0
 53 48  1  0  0  0  0
 55 50  1  0  0  0  0
 55 52  1  0  0  0  0
 55 54  1  0  0  0  0
M  END
>  <MODEL>
2

>  <REMARK>
 VINA RESULT:      -7.6      3.584     10.477
  Name = 
  14 active torsions:
  status: ('A' for Active; 'I' for Inactive)
    1  A    between atoms: C_2  and  C_28
    2  A    between atoms: C_2  and  C_44
    3  A    between atoms: C_4  and  C_35
    4  A    between atoms: C_4  and  C_37
    5  A    between atoms: C_8  and  C_51
    6  A    between atoms: C_10  and  C_32
    7  A    between atoms: C_11  and  C_29
    8  A    between atoms: N_19  and  C_45
    9  A    between atoms: C_28  and  C_49
   10  A    between atoms: C_29  and  C_38
   11  A    between atoms: C_33  and  C_52
   12  A    between atoms: C_35  and  C_43
   13  A    between atoms: C_37  and  C_40
   14  A    between atoms: C_43  and  C_51
                            x       y       z     vdW  Elec       q    Type
                         _______ _______ _______ _____ _____    ______ ____

>  <TORSDO>
F 14

$$$$
=
 OpenBabel10262420163D

 55 61  0  0  1  0  0  0  0  0999 V2000
  187.2760  178.3080  147.5040 C   0  0  0  0  0  2  0  0  0  0  0  0
  188.8600  178.6120  149.2700 O   0  0  0  0  0  1  0  0  0  0  0  0
  188.6450  176.8300  146.3150 C   0  0  1  0  0  3  0  0  0  0  0  0
  189.2480  176.8600  147.6930 C   0  0  0  0  0  2  0  0  0  0  0  0
  188.2140  177.6380  148.5100 C   0  0  2  0  0  3  0  0  0  0  0  0
  188.0060  178.1750  146.1890 C   0  0  1  0  0  3  0  0  0  0  0  0
  188.8590  176.5680  143.9700 C   0  0  1  0  0  3  0  0  0  0  0  0
  189.6060  176.6840  145.2370 N   0  0  0  0  0  2  0  0  0  0  0  0
  187.1950  178.2070  144.9220 C   0  0  0  0  0  0  0  0  0  0  0  0
  187.6270  177.4800  143.8640 C   0  0  0  0  0  0  0  0  0  0  0  0
  189.6060  176.1020  141.6520 N   0  0  0  0  0  0  0  0  0  0  0  0
  191.5360  177.1370  140.6870 C   0  0  0  0  0  0  0  0  0  0  0  0
  190.8680  177.6550  142.9550 C   0  0  0  0  0  3  0  0  0  0  0  0
  191.7400  177.8350  141.8820 C   0  0  0  0  0  3  0  0  0  0  0  0
  190.4460  176.2640  140.5950 C   0  0  0  0  0  3  0  0  0  0  0  0
  189.7920  176.7750  142.8210 C   0  0  0  0  0  0  0  0  0  0  0  0
  192.4540  177.3210  139.5510 C   0  0  0  0  0  0  0  0  0  0  0  0
  193.7850  177.6600  139.7750 O   0  0  0  0  0  1  0  0  0  0  0  0
  192.0460  177.1750  138.3680 O   0  0  0  0  0  0  0  0  0  0  0  0
  184.5110  177.7930  145.9980 O   0  0  0  0  0  0  0  0  0  0  0  0
  186.0530  179.0700  144.7860 N   0  0  0  0  0  2  0  0  0  0  0  0
  184.7220  178.7400  145.1950 C   0  0  0  0  0  0  0  0  0  0  0  0
  183.5700  179.5500  144.7050 C   0  0  0  0  0  2  0  0  0  0  0  0
  182.8370  178.8340  143.5870 C   0  0  0  0  0  2  0  0  0  0  0  0
  181.3980  178.5870  143.9910 C   0  0  0  0  0  2  0  0  0  0  0  0
  180.4740  179.3540  143.0680 C   0  0  0  0  0  2  0  0  0  0  0  0
  179.8700  178.4150  142.0320 C   0  0  0  0  0  2  0  0  0  0  0  0
  179.7200  177.5660  135.7470 C   0  0  0  0  0  0  0  0  0  0  0  0
  180.5750  173.4980  138.1830 F   0  0  0  0  0  0  0  0  0  0  0  0
  180.6680  175.6300  139.2010 C   0  0  0  0  0  0  0  0  0  0  0  0
  179.5300  177.8770  139.5540 C   0  0  0  0  0  2  0  0  0  0  0  0
  180.3660  178.6140  140.5920 C   0  0  2  0  0  3  0  0  0  0  0  0
  182.4580  174.7160  137.9980 F   0  0  0  0  0  0  0  0  0  0  0  0
  181.0750  174.7790  138.0250 C   0  0  0  0  0  0  0  0  0  0  0  0
  180.7770  177.1340  139.1030 C   0  0  1  0  0  0  0  0  0  0  0  0
  179.7050  178.8260  135.7450 O   0  0  0  0  0  1  0  0  0  0  0  0
  181.5870  177.7840  140.2120 C   0  0  0  0  0  2  0  0  0  0  0  0
  178.9310  176.8790  134.8330 O   0  0  0  0  0  0  0  0  0  0  0  0
  180.5250  175.3780  136.7030 C   0  0  1  0  0  3  0  0  0  0  0  0
  181.2480  177.5920  137.7250 C   0  0  0  0  0  2  0  0  0  0  0  0
  180.2840  175.1000  140.2320 O   0  0  0  0  0  0  0  0  0  0  0  0
  180.5320  176.8500  136.6880 N   0  0  0  0  0  0  0  0  0  0  0  0
  181.1650  174.8180  135.4230 C   0  0  1  0  0  3  0  0  0  0  0  0
  182.5480  175.0140  135.4180 O   0  0  0  0  0  1  0  0  0  0  0  0
  180.8330  173.3490  135.2170 C   0  0  0  0  0  2  0  0  0  0  0  0
  181.9680  172.5690  135.4490 O   0  0  0  0  0  1  0  0  0  0  0  0
  186.8720  177.4910  142.5680 C   0  0  0  0  0  2  0  0  0  0  0  0
  187.1940  178.7420  141.7680 C   0  0  0  0  0  2  0  0  0  0  0  0
  187.7900  178.2090  139.3250 C   0  0  0  0  0  3  0  0  0  0  0  0
  184.9120  178.6560  138.6280 C   0  0  2  0  0  3  0  0  0  0  0  0
  185.4430  178.7400  140.0460 C   0  0  0  0  0  3  0  0  0  0  0  0
  187.4180  177.9370  138.0690 C   0  0  0  0  0  3  0  0  0  0  0  0
  186.7570  178.5640  140.3570 C   0  0  0  0  0  0  0  0  0  0  0  0
  184.7120  177.3750  138.1890 C   0  0  0  0  0  2  0  0  0  0  0  0
  186.0230  178.0220  137.8790 N   0  0  0  0  0  0  0  0  0  0  0  0
  1  5  1  0  0  0  0
  3  4  1  1  0  0  0
  4  5  1  0  0  0  0
  5  2  1  6  0  0  0
  6  3  1  0  0  0  0
  6  1  1  1  0  0  0
  7 16  1  6  0  0  0
  7  8  1  0  0  0  0
  8  3  1  0  0  0  0
  9  6  1  0  0  0  0
 10  7  1  0  0  0  0
 10  9  2  0  0  0  0
 11 16  1  0  0  0  0
 12 14  2  0  0  0  0
 14 13  1  0  0  0  0
 15 12  1  0  0  0  0
 15 11  2  0  0  0  0
 16 13  2  0  0  0  0
 17 18  1  0  0  0  0
 17 12  1  0  0  0  0
 19 17  2  0  0  0  0
 21  9  1  0  0  0  0
 21 22  1  0  0  0  0
 22 20  2  0  0  0  0
 23 22  1  0  0  0  0
 24 25  1  0  0  0  0
 24 23  1  0  0  0  0
 26 25  1  0  0  0  0
 27 26  1  0  0  0  0
 28 42  1  0  0  0  0
 30 41  2  0  0  0  0
 31 32  1  0  0  0  0
 32 27  1  1  0  0  0
 33 34  1  0  0  0  0
 34 29  1  0  0  0  0
 34 30  1  0  0  0  0
 35 40  1  6  0  0  0
 35 30  1  0  0  0  0
 35 31  1  0  0  0  0
 35 37  1  0  0  0  0
 36 28  1  0  0  0  0
 37 32  1  0  0  0  0
 38 28  2  0  0  0  0
 39 43  1  6  0  0  0
 39 34  1  0  0  0  0
 42 39  1  0  0  0  0
 42 40  1  0  0  0  0
 43 44  1  1  0  0  0
 45 43  1  0  0  0  0
 45 46  1  0  0  0  0
 47 10  1  0  0  0  0
 48 47  1  0  0  0  0
 49 53  1  0  0  0  0
 50 54  1  1  0  0  0
 50 51  1  0  0  0  0
 51 53  2  0  0  0  0
 52 49  2  0  0  0  0
 53 48  1  0  0  0  0
 55 52  1  0  0  0  0
 55 54  1  0  0  0  0
 55 50  1  0  0  0  0
M  END
>  <MODEL>
3

>  <REMARK>
 VINA RESULT:      -7.5      2.615      6.938
  Name = 
  14 active torsions:
  status: ('A' for Active; 'I' for Inactive)
    1  A    between atoms: C_2  and  C_28
    2  A    between atoms: C_2  and  C_44
    3  A    between atoms: C_4  and  C_35
    4  A    between atoms: C_4  and  C_37
    5  A    between atoms: C_8  and  C_51
    6  A    between atoms: C_10  and  C_32
    7  A    between atoms: C_11  and  C_29
    8  A    between atoms: N_19  and  C_45
    9  A    between atoms: C_28  and  C_49
   10  A    between atoms: C_29  and  C_38
   11  A    between atoms: C_33  and  C_52
   12  A    between atoms: C_35  and  C_43
   13  A    between atoms: C_37  and  C_40
   14  A    between atoms: C_43  and  C_51
                            x       y       z     vdW  Elec       q    Type
                         _______ _______ _______ _____ _____    ______ ____

>  <TORSDO>
F 14

$$$$
=
 OpenBabel10262420163D

 55 61  0  0  1  0  0  0  0  0999 V2000
  184.0810  176.5660  138.2210 C   0  0  0  0  0  2  0  0  0  0  0  0
  185.7930  176.2920  136.5730 O   0  0  0  0  0  1  0  0  0  0  0  0
  182.5760  177.5500  136.7250 C   0  0  1  0  0  3  0  0  0  0  0  0
  183.6030  176.9000  135.8380 C   0  0  0  0  0  2  0  0  0  0  0  0
  184.4380  176.0720  136.8180 C   0  0  2  0  0  3  0  0  0  0  0  0
  183.3420  177.8590  137.9700 C   0  0  1  0  0  3  0  0  0  0  0  0
  180.9740  179.2460  137.1350 C   0  0  1  0  0  3  0  0  0  0  0  0
  182.0320  178.7930  136.2100 N   0  0  0  0  0  2  0  0  0  0  0  0
  182.3800  178.3400  139.0220 C   0  0  0  0  0  0  0  0  0  0  0  0
  181.2860  179.0320  138.6240 C   0  0  0  0  0  0  0  0  0  0  0  0
  179.9490  181.0080  135.7220 N   0  0  0  0  0  0  0  0  0  0  0  0
  180.0370  183.3310  136.2910 C   0  0  0  0  0  0  0  0  0  0  0  0
  181.0550  181.6720  137.7320 C   0  0  0  0  0  3  0  0  0  0  0  0
  180.7490  183.0040  137.4500 C   0  0  0  0  0  3  0  0  0  0  0  0
  179.6420  182.3000  135.4300 C   0  0  0  0  0  3  0  0  0  0  0  0
  180.6410  180.6750  136.8470 C   0  0  0  0  0  0  0  0  0  0  0  0
  179.7130  184.7350  135.9880 C   0  0  0  0  0  0  0  0  0  0  0  0
  179.6810  185.6810  137.0060 O   0  0  0  0  0  1  0  0  0  0  0  0
  179.4630  185.0920  134.8060 O   0  0  0  0  0  0  0  0  0  0  0  0
  184.4490  179.6740  140.5940 O   0  0  0  0  0  0  0  0  0  0  0  0
  182.6590  178.1770  140.4230 N   0  0  0  0  0  2  0  0  0  0  0  0
  183.7870  178.7330  141.1060 C   0  0  0  0  0  0  0  0  0  0  0  0
  184.1620  178.2280  142.4580 C   0  0  0  0  0  2  0  0  0  0  0  0
  183.9710  179.3020  143.5120 C   0  0  0  0  0  2  0  0  0  0  0  0
  185.2350  179.4470  144.3330 C   0  0  0  0  0  2  0  0  0  0  0  0
  185.6110  178.1030  144.9250 C   0  0  0  0  0  2  0  0  0  0  0  0
  187.0350  178.1480  145.4620 C   0  0  0  0  0  2  0  0  0  0  0  0
  191.9940  176.9330  141.6960 C   0  0  0  0  0  0  0  0  0  0  0  0
  188.3100  178.9870  139.3670 F   0  0  0  0  0  0  0  0  0  0  0  0
  188.1000  178.1160  141.5540 C   0  0  0  0  0  0  0  0  0  0  0  0
  189.0610  178.0010  143.9070 C   0  0  0  0  0  2  0  0  0  0  0  0
  188.0410  177.2380  144.7420 C   0  0  2  0  0  3  0  0  0  0  0  0
  187.9420  176.7830  139.6350 F   0  0  0  0  0  0  0  0  0  0  0  0
  188.6020  177.8840  140.1520 C   0  0  0  0  0  0  0  0  0  0  0  0
  188.6000  177.2360  142.6770 C   0  0  1  0  0  0  0  0  0  0  0  0
  192.3980  176.3050  142.7110 O   0  0  0  0  0  1  0  0  0  0  0  0
  187.5070  176.5580  143.4860 C   0  0  0  0  0  2  0  0  0  0  0  0
  192.9050  177.6670  140.9480 O   0  0  0  0  0  0  0  0  0  0  0  0
  190.1370  177.6570  140.1540 C   0  0  1  0  0  3  0  0  0  0  0  0
  189.6480  176.2320  142.2030 C   0  0  0  0  0  2  0  0  0  0  0  0
  187.2720  178.9870  141.7700 O   0  0  0  0  0  0  0  0  0  0  0  0
  190.6090  176.8990  141.3250 N   0  0  0  0  0  0  0  0  0  0  0  0
  190.7050  177.0600  138.8560 C   0  0  1  0  0  3  0  0  0  0  0  0
  190.7190  175.6640  138.9030 O   0  0  0  0  0  1  0  0  0  0  0  0
  189.9500  177.5450  137.6300 C   0  0  0  0  0  2  0  0  0  0  0  0
  189.3800  176.4600  136.9620 O   0  0  0  0  0  1  0  0  0  0  0  0
  180.3040  179.5560  139.6290 C   0  0  0  0  0  2  0  0  0  0  0  0
  178.9320  178.9380  139.4140 C   0  0  0  0  0  2  0  0  0  0  0  0
  178.9700  176.7110  138.1300 C   0  0  0  0  0  3  0  0  0  0  0  0
  179.2250  175.3100  140.7640 C   0  0  2  0  0  3  0  0  0  0  0  0
  179.1830  176.8200  140.6310 C   0  0  0  0  0  3  0  0  0  0  0  0
  179.1700  175.3890  138.1000 C   0  0  0  0  0  3  0  0  0  0  0  0
  179.0390  177.4540  139.4350 C   0  0  0  0  0  0  0  0  0  0  0  0
  180.4470  174.7640  140.4730 C   0  0  0  0  0  2  0  0  0  0  0  0
  179.4370  174.8450  139.3730 N   0  0  0  0  0  0  0  0  0  0  0  0
  3  4  1  6  0  0  0
  3  6  1  0  0  0  0
  4  5  1  0  0  0  0
  5  2  1  6  0  0  0
  5  1  1  0  0  0  0
  6  1  1  1  0  0  0
  6  9  1  0  0  0  0
  7 16  1  1  0  0  0
  7 10  1  0  0  0  0
  8  3  1  0  0  0  0
  8  7  1  0  0  0  0
  9 21  1  0  0  0  0
 10  9  2  0  0  0  0
 10 47  1  0  0  0  0
 11 16  1  0  0  0  0
 12 14  2  0  0  0  0
 14 13  1  0  0  0  0
 15 11  2  0  0  0  0
 15 12  1  0  0  0  0
 16 13  2  0  0  0  0
 17 12  1  0  0  0  0
 17 18  1  0  0  0  0
 19 17  2  0  0  0  0
 20 22  2  0  0  0  0
 21 22  1  0  0  0  0
 22 23  1  0  0  0  0
 23 24  1  0  0  0  0
 24 25  1  0  0  0  0
 25 26  1  0  0  0  0
 26 27  1  0  0  0  0
 28 36  1  0  0  0  0
 29 34  1  0  0  0  0
 30 41  2  0  0  0  0
 30 35  1  0  0  0  0
 31 32  1  0  0  0  0
 32 27  1  6  0  0  0
 33 34  1  0  0  0  0
 34 39  1  0  0  0  0
 34 30  1  0  0  0  0
 35 40  1  6  0  0  0
 35 37  1  0  0  0  0
 35 31  1  0  0  0  0
 37 32  1  0  0  0  0
 38 28  2  0  0  0  0
 39 43  1  6  0  0  0
 39 42  1  0  0  0  0
 42 28  1  0  0  0  0
 42 40  1  0  0  0  0
 43 44  1  1  0  0  0
 45 43  1  0  0  0  0
 46 45  1  0  0  0  0
 48 53  1  0  0  0  0
 48 47  1  0  0  0  0
 49 53  1  0  0  0  0
 50 54  1  1  0  0  0
 51 50  1  0  0  0  0
 52 49  2  0  0  0  0
 52 55  1  0  0  0  0
 53 51  2  0  0  0  0
 55 54  1  0  0  0  0
 55 50  1  0  0  0  0
M  END
>  <MODEL>
4

>  <REMARK>
 VINA RESULT:      -7.4      3.367     10.755
  Name = 
  14 active torsions:
  status: ('A' for Active; 'I' for Inactive)
    1  A    between atoms: C_2  and  C_28
    2  A    between atoms: C_2  and  C_44
    3  A    between atoms: C_4  and  C_35
    4  A    between atoms: C_4  and  C_37
    5  A    between atoms: C_8  and  C_51
    6  A    between atoms: C_10  and  C_32
    7  A    between atoms: C_11  and  C_29
    8  A    between atoms: N_19  and  C_45
    9  A    between atoms: C_28  and  C_49
   10  A    between atoms: C_29  and  C_38
   11  A    between atoms: C_33  and  C_52
   12  A    between atoms: C_35  and  C_43
   13  A    between atoms: C_37  and  C_40
   14  A    between atoms: C_43  and  C_51
                            x       y       z     vdW  Elec       q    Type
                         _______ _______ _______ _____ _____    ______ ____

>  <TORSDO>
F 14

$$$$
=
 OpenBabel10262420163D

 55 61  0  0  1  0  0  0  0  0999 V2000
  188.4900  177.2070  145.7880 C   0  0  0  0  0  2  0  0  0  0  0  0
  188.0420  176.6370  148.0680 O   0  0  0  0  0  1  0  0  0  0  0  0
  186.6290  178.6130  145.6070 C   0  0  1  0  0  3  0  0  0  0  0  0
  186.8130  178.4380  147.0900 C   0  0  0  0  0  2  0  0  0  0  0  0
  188.1590  177.7170  147.1920 C   0  0  2  0  0  3  0  0  0  0  0  0
  187.1860  177.3490  145.0390 C   0  0  1  0  0  3  0  0  0  0  0  0
  185.2400  178.9990  143.7270 C   0  0  1  0  0  3  0  0  0  0  0  0
  185.2470  178.7300  145.1790 N   0  0  0  0  0  2  0  0  0  0  0  0
  187.2410  177.4760  143.5400 C   0  0  0  0  0  0  0  0  0  0  0  0
  186.2940  178.2220  142.9240 C   0  0  0  0  0  0  0  0  0  0  0  0
  183.6860  178.4270  141.8820 N   0  0  0  0  0  0  0  0  0  0  0  0
  181.3090  178.3730  142.1670 C   0  0  0  0  0  0  0  0  0  0  0  0
  182.7590  178.9320  144.0250 C   0  0  0  0  0  3  0  0  0  0  0  0
  181.4780  178.7290  143.5100 C   0  0  0  0  0  3  0  0  0  0  0  0
  182.4450  178.2260  141.3620 C   0  0  0  0  0  3  0  0  0  0  0  0
  183.8640  178.7730  143.1870 C   0  0  0  0  0  0  0  0  0  0  0  0
  179.9610  178.1600  141.6180 C   0  0  0  0  0  0  0  0  0  0  0  0
  179.3600  179.1420  140.8380 O   0  0  0  0  0  0  0  0  0  0  0  0
  179.3380  177.0890  141.8480 O   0  0  0  0  0  1  0  0  0  0  0  0
  190.0580  178.1180  143.1110 O   0  0  0  0  0  0  0  0  0  0  0  0
  188.1990  176.7400  142.7610 N   0  0  0  0  0  2  0  0  0  0  0  0
  189.5240  177.1870  142.4530 C   0  0  0  0  0  0  0  0  0  0  0  0
  190.3020  176.5190  141.3720 C   0  0  0  0  0  2  0  0  0  0  0  0
  191.5520  177.3090  141.0320 C   0  0  0  0  0  2  0  0  0  0  0  0
  191.9310  177.0750  139.5850 C   0  0  0  0  0  2  0  0  0  0  0  0
  191.0600  175.9790  139.0040 C   0  0  0  0  0  2  0  0  0  0  0  0
  190.8700  176.1970  137.5090 C   0  0  0  0  0  2  0  0  0  0  0  0
  193.6870  170.6380  136.3230 C   0  0  0  0  0  0  0  0  0  0  0  0
  196.7000  173.9350  138.1300 F   0  0  0  0  0  0  0  0  0  0  0  0
  194.5380  174.4850  137.3480 C   0  0  0  0  0  0  0  0  0  0  0  0
  192.0550  173.9340  137.3730 C   0  0  0  0  0  2  0  0  0  0  0  0
  191.3660  175.0570  136.6080 C   0  0  2  0  0  3  0  0  0  0  0  0
  196.3890  174.2760  135.9280 F   0  0  0  0  0  0  0  0  0  0  0  0
  195.8230  173.7470  137.0750 C   0  0  0  0  0  0  0  0  0  0  0  0
  193.3060  174.1560  136.5370 C   0  0  1  0  0  0  0  0  0  0  0  0
  192.5890  170.3930  135.7560 O   0  0  0  0  0  0  0  0  0  0  0  0
  192.6590  175.3490  135.8540 C   0  0  0  0  0  2  0  0  0  0  0  0
  194.3070  169.6360  137.0580 O   0  0  0  0  0  1  0  0  0  0  0  0
  195.5530  172.2280  136.9070 C   0  0  1  0  0  3  0  0  0  0  0  0
  193.5470  173.0130  135.5550 C   0  0  0  0  0  2  0  0  0  0  0  0
  194.5080  175.3650  138.1950 O   0  0  0  0  0  0  0  0  0  0  0  0
  194.2830  171.9380  136.2200 N   0  0  0  0  0  0  0  0  0  0  0  0
  196.7060  171.4310  136.2760 C   0  0  1  0  0  3  0  0  0  0  0  0
  197.2600  172.1130  135.1900 O   0  0  0  0  0  1  0  0  0  0  0  0
  197.7800  171.0830  137.2930 C   0  0  0  0  0  2  0  0  0  0  0  0
  198.0160  169.7070  137.2820 O   0  0  0  0  0  1  0  0  0  0  0  0
  186.2840  178.3660  141.4310 C   0  0  0  0  0  2  0  0  0  0  0  0
  187.6670  178.7320  140.9170 C   0  0  0  0  0  2  0  0  0  0  0  0
  188.9510  179.0340  138.7110 C   0  0  0  0  0  3  0  0  0  0  0  0
  186.4670  178.1990  137.2630 C   0  0  2  0  0  3  0  0  0  0  0  0
  186.5680  178.2430  138.7760 C   0  0  0  0  0  3  0  0  0  0  0  0
  189.0440  178.8710  137.3870 C   0  0  0  0  0  3  0  0  0  0  0  0
  187.6900  178.6500  139.4310 C   0  0  0  0  0  0  0  0  0  0  0  0
  187.0420  177.0890  136.7040 C   0  0  0  0  0  2  0  0  0  0  0  0
  187.8750  178.3250  136.8180 N   0  0  0  0  0  0  0  0  0  0  0  0
  1  5  1  0  0  0  0
  3  4  1  1  0  0  0
  4  5  1  0  0  0  0
  5  2  1  1  0  0  0
  6  3  1  0  0  0  0
  6  1  1  1  0  0  0
  7 16  1  6  0  0  0
  7  8  1  0  0  0  0
  8  3  1  0  0  0  0
  9  6  1  0  0  0  0
 10  9  2  0  0  0  0
 10  7  1  0  0  0  0
 11 16  1  0  0  0  0
 12 14  2  0  0  0  0
 14 13  1  0  0  0  0
 15 11  2  0  0  0  0
 15 12  1  0  0  0  0
 16 13  2  0  0  0  0
 17 19  1  0  0  0  0
 17 12  1  0  0  0  0
 18 17  2  0  0  0  0
 21  9  1  0  0  0  0
 22 21  1  0  0  0  0
 22 20  2  0  0  0  0
 23 22  1  0  0  0  0
 24 23  1  0  0  0  0
 25 24  1  0  0  0  0
 26 25  1  0  0  0  0
 27 26  1  0  0  0  0
 28 38  1  0  0  0  0
 30 41  2  0  0  0  0
 32 31  1  0  0  0  0
 32 27  1  1  0  0  0
 33 34  1  0  0  0  0
 34 30  1  0  0  0  0
 34 29  1  0  0  0  0
 35 40  1  6  0  0  0
 35 30  1  0  0  0  0
 35 31  1  0  0  0  0
 36 28  2  0  0  0  0
 37 35  1  0  0  0  0
 37 32  1  0  0  0  0
 39 43  1  6  0  0  0
 39 34  1  0  0  0  0
 40 42  1  0  0  0  0
 42 28  1  0  0  0  0
 42 39  1  0  0  0  0
 43 44  1  6  0  0  0
 43 45  1  0  0  0  0
 46 45  1  0  0  0  0
 47 10  1  0  0  0  0
 48 47  1  0  0  0  0
 49 53  1  0  0  0  0
 50 54  1  1  0  0  0
 50 51  1  0  0  0  0
 51 53  2  0  0  0  0
 52 49  2  0  0  0  0
 53 48  1  0  0  0  0
 54 55  1  0  0  0  0
 55 50  1  0  0  0  0
 55 52  1  0  0  0  0
M  END
>  <MODEL>
5

>  <REMARK>
 VINA RESULT:      -7.2      4.537     11.483
  Name = 
  14 active torsions:
  status: ('A' for Active; 'I' for Inactive)
    1  A    between atoms: C_2  and  C_28
    2  A    between atoms: C_2  and  C_44
    3  A    between atoms: C_4  and  C_35
    4  A    between atoms: C_4  and  C_37
    5  A    between atoms: C_8  and  C_51
    6  A    between atoms: C_10  and  C_32
    7  A    between atoms: C_11  and  C_29
    8  A    between atoms: N_19  and  C_45
    9  A    between atoms: C_28  and  C_49
   10  A    between atoms: C_29  and  C_38
   11  A    between atoms: C_33  and  C_52
   12  A    between atoms: C_35  and  C_43
   13  A    between atoms: C_37  and  C_40
   14  A    between atoms: C_43  and  C_51
                            x       y       z     vdW  Elec       q    Type
                         _______ _______ _______ _____ _____    ______ ____

>  <TORSDO>
F 14

$$$$
=
 OpenBabel10262420163D

 55 61  0  0  1  0  0  0  0  0999 V2000
  189.2940  177.8430  147.1780 C   0  0  0  0  0  2  0  0  0  0  0  0
  191.2600  178.0750  148.5200 O   0  0  0  0  0  1  0  0  0  0  0  0
  190.3130  176.3940  145.6500 C   0  0  1  0  0  3  0  0  0  0  0  0
  191.2300  176.3730  146.8440 C   0  0  0  0  0  2  0  0  0  0  0  0
  190.4340  177.1320  147.9080 C   0  0  2  0  0  3  0  0  0  0  0  0
  189.6850  177.7480  145.7220 C   0  0  1  0  0  3  0  0  0  0  0  0
  189.9540  176.2080  143.3160 C   0  0  1  0  0  3  0  0  0  0  0  0
  190.9860  176.2760  144.3690 N   0  0  0  0  0  2  0  0  0  0  0  0
  188.5940  177.8300  144.6890 C   0  0  0  0  0  0  0  0  0  0  0  0
  188.7470  177.1340  143.5370 C   0  0  0  0  0  0  0  0  0  0  0  0
  189.9860  176.0010  140.8460 N   0  0  0  0  0  0  0  0  0  0  0  0
  191.7700  176.8620  139.5020 C   0  0  0  0  0  0  0  0  0  0  0  0
  191.8100  177.1150  141.9090 C   0  0  0  0  0  3  0  0  0  0  0  0
  192.4000  177.3230  140.6620 C   0  0  0  0  0  3  0  0  0  0  0  0
  190.5450  176.1940  139.6210 C   0  0  0  0  0  3  0  0  0  0  0  0
  190.5870  176.4450  141.9830 C   0  0  0  0  0  0  0  0  0  0  0  0
  192.3880  177.0760  138.1830 C   0  0  0  0  0  0  0  0  0  0  0  0
  191.6700  176.8110  137.0220 O   0  0  0  0  0  0  0  0  0  0  0  0
  193.5710  177.5010  138.0940 O   0  0  0  0  0  1  0  0  0  0  0  0
  186.0730  177.2490  146.0440 O   0  0  0  0  0  0  0  0  0  0  0  0
  187.4680  178.7060  144.8570 N   0  0  0  0  0  2  0  0  0  0  0  0
  186.1960  178.3170  145.3870 C   0  0  0  0  0  0  0  0  0  0  0  0
  185.0100  179.2010  145.2030 C   0  0  0  0  0  2  0  0  0  0  0  0
  184.0740  178.6420  144.1480 C   0  0  0  0  0  2  0  0  0  0  0  0
  182.6420  178.9960  144.4920 C   0  0  0  0  0  2  0  0  0  0  0  0
  181.8840  179.3290  143.2230 C   0  0  0  0  0  2  0  0  0  0  0  0
  180.4020  179.0280  143.4040 C   0  0  0  0  0  2  0  0  0  0  0  0
  180.5100  175.3410  138.2420 C   0  0  0  0  0  0  0  0  0  0  0  0
  181.3940  179.9780  137.2720 F   0  0  0  0  0  0  0  0  0  0  0  0
  180.5600  179.2550  139.3630 C   0  0  0  0  0  0  0  0  0  0  0  0
  180.7810  177.6230  141.3010 C   0  0  0  0  0  2  0  0  0  0  0  0
  179.7880  178.0860  142.3580 C   0  0  2  0  0  3  0  0  0  0  0  0
  179.1840  179.6300  137.5040 F   0  0  0  0  0  0  0  0  0  0  0  0
  180.4390  179.1680  137.8630 C   0  0  0  0  0  0  0  0  0  0  0  0
  179.8840  178.2130  140.2240 C   0  0  1  0  0  0  0  0  0  0  0  0
  180.0470  174.4890  139.0460 O   0  0  0  0  0  1  0  0  0  0  0  0
  178.9520  178.7750  141.2840 C   0  0  0  0  0  2  0  0  0  0  0  0
  181.4470  174.9420  137.2990 O   0  0  0  0  0  0  0  0  0  0  0  0
  180.6470  177.7060  137.3840 C   0  0  1  0  0  3  0  0  0  0  0  0
  179.1990  177.1310  139.3940 C   0  0  0  0  0  2  0  0  0  0  0  0
  181.1720  180.1810  139.8720 O   0  0  0  0  0  0  0  0  0  0  0  0
  180.0820  176.7090  138.3080 N   0  0  0  0  0  0  0  0  0  0  0  0
  180.1950  177.4280  135.9410 C   0  0  1  0  0  3  0  0  0  0  0  0
  179.0580  178.1690  135.6130 O   0  0  0  0  0  1  0  0  0  0  0  0
  181.3080  177.6820  134.9380 C   0  0  0  0  0  2  0  0  0  0  0  0
  182.5490  177.5560  135.5640 O   0  0  0  0  0  1  0  0  0  0  0  0
  187.7040  177.1940  142.4610 C   0  0  0  0  0  2  0  0  0  0  0  0
  188.0030  178.3180  141.4830 C   0  0  0  0  0  2  0  0  0  0  0  0
  187.1680  178.2480  139.0530 C   0  0  0  0  0  3  0  0  0  0  0  0
  184.4550  179.0100  140.0670 C   0  0  2  0  0  3  0  0  0  0  0  0
  185.6440  178.7750  140.9790 C   0  0  0  0  0  3  0  0  0  0  0  0
  186.1670  178.2570  138.1660 C   0  0  0  0  0  3  0  0  0  0  0  0
  186.8830  178.4550  140.5140 C   0  0  0  0  0  0  0  0  0  0  0  0
  183.8560  177.8580  139.6330 C   0  0  0  0  0  2  0  0  0  0  0  0
  184.9070  178.4690  138.7630 N   0  0  0  0  0  0  0  0  0  0  0  0
  1  5  1  0  0  0  0
  3  6  1  0  0  0  0
  3  4  1  1  0  0  0
  4  5  1  0  0  0  0
  5  2  1  6  0  0  0
  6  1  1  1  0  0  0
  7 16  1  6  0  0  0
  7 10  1  0  0  0  0
  7  8  1  0  0  0  0
  8  3  1  0  0  0  0
  9 21  1  0  0  0  0
  9  6  1  0  0  0  0
 10  9  2  0  0  0  0
 11 16  1  0  0  0  0
 12 15  1  0  0  0  0
 12 14  2  0  0  0  0
 13 16  2  0  0  0  0
 14 13  1  0  0  0  0
 15 11  2  0  0  0  0
 17 12  1  0  0  0  0
 18 17  2  0  0  0  0
 19 17  1  0  0  0  0
 21 22  1  0  0  0  0
 22 20  2  0  0  0  0
 23 22  1  0  0  0  0
 24 25  1  0  0  0  0
 24 23  1  0  0  0  0
 26 27  1  0  0  0  0
 26 25  1  0  0  0  0
 28 42  1  0  0  0  0
 28 36  1  0  0  0  0
 29 34  1  0  0  0  0
 30 41  2  0  0  0  0
 30 35  1  0  0  0  0
 31 32  1  0  0  0  0
 32 27  1  1  0  0  0
 33 34  1  0  0  0  0
 34 30  1  0  0  0  0
 35 40  1  6  0  0  0
 35 37  1  0  0  0  0
 35 31  1  0  0  0  0
 37 32  1  0  0  0  0
 38 28  2  0  0  0  0
 39 43  1  6  0  0  0
 39 34  1  0  0  0  0
 39 42  1  0  0  0  0
 42 40  1  0  0  0  0
 43 44  1  6  0  0  0
 45 46  1  0  0  0  0
 45 43  1  0  0  0  0
 47 10  1  0  0  0  0
 48 47  1  0  0  0  0
 49 53  1  0  0  0  0
 50 54  1  1  0  0  0
 50 51  1  0  0  0  0
 52 55  1  0  0  0  0
 52 49  2  0  0  0  0
 53 51  2  0  0  0  0
 53 48  1  0  0  0  0
 55 54  1  0  0  0  0
 55 50  1  0  0  0  0
M  END
>  <MODEL>
6

>  <REMARK>
 VINA RESULT:      -7.2      2.085      6.560
  Name = 
  14 active torsions:
  status: ('A' for Active; 'I' for Inactive)
    1  A    between atoms: C_2  and  C_28
    2  A    between atoms: C_2  and  C_44
    3  A    between atoms: C_4  and  C_35
    4  A    between atoms: C_4  and  C_37
    5  A    between atoms: C_8  and  C_51
    6  A    between atoms: C_10  and  C_32
    7  A    between atoms: C_11  and  C_29
    8  A    between atoms: N_19  and  C_45
    9  A    between atoms: C_28  and  C_49
   10  A    between atoms: C_29  and  C_38
   11  A    between atoms: C_33  and  C_52
   12  A    between atoms: C_35  and  C_43
   13  A    between atoms: C_37  and  C_40
   14  A    between atoms: C_43  and  C_51
                            x       y       z     vdW  Elec       q    Type
                         _______ _______ _______ _____ _____    ______ ____

>  <TORSDO>
F 14

$$$$
=
 OpenBabel10262420163D

 55 61  0  0  1  0  0  0  0  0999 V2000
  192.4670  175.6820  136.9030 C   0  0  0  0  0  2  0  0  0  0  0  0
  194.7330  174.9710  136.6140 O   0  0  0  0  0  1  0  0  0  0  0  0
  192.9640  177.0600  138.7270 C   0  0  1  0  0  3  0  0  0  0  0  0
  194.3020  176.8020  138.0880 C   0  0  0  0  0  2  0  0  0  0  0  0
  193.9330  176.1020  136.7770 C   0  0  2  0  0  3  0  0  0  0  0  0
  192.1730  175.8420  138.3760 C   0  0  1  0  0  3  0  0  0  0  0  0
  191.6410  177.5290  140.6350 C   0  0  1  0  0  3  0  0  0  0  0  0
  192.9970  177.1750  140.1730 N   0  0  0  0  0  2  0  0  0  0  0  0
  190.7430  176.0580  138.7920 C   0  0  0  0  0  0  0  0  0  0  0  0
  190.5010  176.8210  139.8860 C   0  0  0  0  0  0  0  0  0  0  0  0
  191.7070  176.0610  142.6320 N   0  0  0  0  0  0  0  0  0  0  0  0
  191.3430  176.8840  144.8500 C   0  0  0  0  0  0  0  0  0  0  0  0
  191.2720  178.3870  142.9530 C   0  0  0  0  0  3  0  0  0  0  0  0
  191.1730  178.1710  144.3280 C   0  0  0  0  0  3  0  0  0  0  0  0
  191.6140  175.8300  143.9690 C   0  0  0  0  0  3  0  0  0  0  0  0
  191.5440  177.3080  142.1100 C   0  0  0  0  0  0  0  0  0  0  0  0
  191.2380  176.6490  146.2990 C   0  0  0  0  0  0  0  0  0  0  0  0
  190.0610  176.9570  146.9740 O   0  0  0  0  0  1  0  0  0  0  0  0
  192.2100  176.1690  146.9420 O   0  0  0  0  0  0  0  0  0  0  0  0
  189.3870  176.8710  136.3370 O   0  0  0  0  0  0  0  0  0  0  0  0
  189.6600  175.3890  138.1270 N   0  0  0  0  0  2  0  0  0  0  0  0
  188.9260  175.9160  137.0170 C   0  0  0  0  0  0  0  0  0  0  0  0
  187.6230  175.3060  136.6270 C   0  0  0  0  0  2  0  0  0  0  0  0
  186.5420  176.3630  136.5030 C   0  0  0  0  0  2  0  0  0  0  0  0
  185.1820  175.7010  136.4350 C   0  0  0  0  0  2  0  0  0  0  0  0
  184.4260  176.2230  135.2290 C   0  0  0  0  0  2  0  0  0  0  0  0
  183.0490  175.5750  135.1540 C   0  0  0  0  0  2  0  0  0  0  0  0
  180.3230  180.4010  138.2420 C   0  0  0  0  0  0  0  0  0  0  0  0
  182.0530  177.0060  141.1920 F   0  0  0  0  0  0  0  0  0  0  0  0
  181.8380  176.6730  138.8610 C   0  0  0  0  0  0  0  0  0  0  0  0
  182.2650  177.5870  136.5260 C   0  0  0  0  0  2  0  0  0  0  0  0
  181.8730  176.4770  135.5600 C   0  0  2  0  0  3  0  0  0  0  0  0
  180.0590  176.3820  140.3560 F   0  0  0  0  0  0  0  0  0  0  0  0
  181.1810  177.1600  140.1270 C   0  0  0  0  0  0  0  0  0  0  0  0
  181.2480  177.0550  137.5230 C   0  0  1  0  0  0  0  0  0  0  0  0
  179.9550  180.7180  137.0790 O   0  0  0  0  0  0  0  0  0  0  0  0
  180.9390  175.8820  136.6080 C   0  0  0  0  0  2  0  0  0  0  0  0
  180.7230  181.3990  139.1210 O   0  0  0  0  0  1  0  0  0  0  0  0
  180.7970  178.6580  139.9990 C   0  0  1  0  0  3  0  0  0  0  0  0
  180.0460  177.9840  137.6640 C   0  0  0  0  0  2  0  0  0  0  0  0
  182.8200  175.9490  138.9230 O   0  0  0  0  0  0  0  0  0  0  0  0
  180.3400  179.0260  138.6480 N   0  0  0  0  0  0  0  0  0  0  0  0
  179.8110  179.1670  141.0630 C   0  0  1  0  0  3  0  0  0  0  0  0
  178.9310  178.1580  141.4630 O   0  0  0  0  0  1  0  0  0  0  0  0
  180.5270  179.7580  142.2660 C   0  0  0  0  0  2  0  0  0  0  0  0
  179.6410  179.8700  143.3380 O   0  0  0  0  0  1  0  0  0  0  0  0
  189.0980  177.0520  140.3620 C   0  0  0  0  0  2  0  0  0  0  0  0
  188.4470  178.1850  139.5860 C   0  0  0  0  0  2  0  0  0  0  0  0
  185.9520  178.7270  139.2810 C   0  0  0  0  0  3  0  0  0  0  0  0
  185.7590  179.0460  142.2520 C   0  0  2  0  0  3  0  0  0  0  0  0
  187.0370  178.6360  141.5450 C   0  0  0  0  0  3  0  0  0  0  0  0
  184.7330  178.9220  139.7940 C   0  0  0  0  0  3  0  0  0  0  0  0
  187.1290  178.5180  140.1920 C   0  0  0  0  0  0  0  0  0  0  0  0
  184.8610  178.0230  142.4070 C   0  0  0  0  0  2  0  0  0  0  0  0
  184.7210  178.8990  141.2040 N   0  0  0  0  0  0  0  0  0  0  0  0
  3  4  1  1  0  0  0
  3  8  1  0  0  0  0
  5  2  1  1  0  0  0
  5  1  1  0  0  0  0
  5  4  1  0  0  0  0
  6  1  1  6  0  0  0
  6  3  1  0  0  0  0
  6  9  1  0  0  0  0
  7 16  1  1  0  0  0
  8  7  1  0  0  0  0
  9 10  2  0  0  0  0
 10 47  1  0  0  0  0
 10  7  1  0  0  0  0
 11 15  1  0  0  0  0
 12 17  1  0  0  0  0
 13 14  2  0  0  0  0
 14 12  1  0  0  0  0
 15 12  2  0  0  0  0
 16 11  2  0  0  0  0
 16 13  1  0  0  0  0
 17 19  2  0  0  0  0
 17 18  1  0  0  0  0
 20 22  2  0  0  0  0
 21  9  1  0  0  0  0
 22 21  1  0  0  0  0
 23 22  1  0  0  0  0
 24 23  1  0  0  0  0
 25 24  1  0  0  0  0
 26 25  1  0  0  0  0
 27 26  1  0  0  0  0
 28 42  1  0  0  0  0
 28 38  1  0  0  0  0
 30 41  2  0  0  0  0
 30 34  1  0  0  0  0
 32 27  1  1  0  0  0
 32 31  1  0  0  0  0
 32 37  1  0  0  0  0
 34 33  1  0  0  0  0
 34 29  1  0  0  0  0
 35 31  1  6  0  0  0
 35 40  1  0  0  0  0
 35 30  1  0  0  0  0
 36 28  2  0  0  0  0
 37 35  1  0  0  0  0
 39 34  1  0  0  0  0
 39 43  1  1  0  0  0
 40 42  1  0  0  0  0
 42 39  1  0  0  0  0
 43 44  1  1  0  0  0
 43 45  1  0  0  0  0
 45 46  1  0  0  0  0
 48 53  1  0  0  0  0
 48 47  1  0  0  0  0
 49 52  2  0  0  0  0
 49 53  1  0  0  0  0
 50 51  1  6  0  0  0
 50 54  1  0  0  0  0
 52 55  1  0  0  0  0
 53 51  2  0  0  0  0
 55 50  1  0  0  0  0
 55 54  1  0  0  0  0
M  END
>  <MODEL>
7

>  <REMARK>
 VINA RESULT:      -7.1      1.728      2.228
  Name = 
  14 active torsions:
  status: ('A' for Active; 'I' for Inactive)
    1  A    between atoms: C_2  and  C_28
    2  A    between atoms: C_2  and  C_44
    3  A    between atoms: C_4  and  C_35
    4  A    between atoms: C_4  and  C_37
    5  A    between atoms: C_8  and  C_51
    6  A    between atoms: C_10  and  C_32
    7  A    between atoms: C_11  and  C_29
    8  A    between atoms: N_19  and  C_45
    9  A    between atoms: C_28  and  C_49
   10  A    between atoms: C_29  and  C_38
   11  A    between atoms: C_33  and  C_52
   12  A    between atoms: C_35  and  C_43
   13  A    between atoms: C_37  and  C_40
   14  A    between atoms: C_43  and  C_51
                            x       y       z     vdW  Elec       q    Type
                         _______ _______ _______ _____ _____    ______ ____

>  <TORSDO>
F 14

$$$$
=
 OpenBabel10262420163D

 55 61  0  0  1  0  0  0  0  0999 V2000
  186.3190  176.0480  136.9620 C   0  0  0  0  0  2  0  0  0  0  0  0
  186.1020  175.3820  134.6750 O   0  0  0  0  0  1  0  0  0  0  0  0
  184.0230  176.3950  137.2450 C   0  0  1  0  0  3  0  0  0  0  0  0
  184.1170  175.5700  135.9900 C   0  0  0  0  0  2  0  0  0  0  0  0
  185.5900  175.1580  135.9530 C   0  0  2  0  0  3  0  0  0  0  0  0
  185.3190  177.1380  137.2670 C   0  0  1  0  0  3  0  0  0  0  0  0
  182.9210  178.0170  138.5750 C   0  0  1  0  0  3  0  0  0  0  0  0
  182.9450  177.3670  137.2500 N   0  0  0  0  0  2  0  0  0  0  0  0
  185.4390  177.8610  138.5810 C   0  0  0  0  0  0  0  0  0  0  0  0
  184.3060  178.3110  139.1720 C   0  0  0  0  0  0  0  0  0  0  0  0
  182.6560  180.4820  138.6050 N   0  0  0  0  0  0  0  0  0  0  0  0
  180.5250  181.5530  138.4090 C   0  0  0  0  0  0  0  0  0  0  0  0
  180.6970  179.1390  138.3600 C   0  0  0  0  0  3  0  0  0  0  0  0
  179.9200  180.2960  138.3090 C   0  0  0  0  0  3  0  0  0  0  0  0
  181.9150  181.6210  138.5580 C   0  0  0  0  0  3  0  0  0  0  0  0
  182.0810  179.2520  138.5080 C   0  0  0  0  0  0  0  0  0  0  0  0
  179.7090  182.7770  138.3590 C   0  0  0  0  0  0  0  0  0  0  0  0
  179.7900  183.6270  137.2600 O   0  0  0  0  0  0  0  0  0  0  0  0
  178.9330  183.0670  139.3070 O   0  0  0  0  0  1  0  0  0  0  0  0
  187.7060  179.1470  137.2640 O   0  0  0  0  0  0  0  0  0  0  0  0
  186.7210  178.1730  139.1500 N   0  0  0  0  0  2  0  0  0  0  0  0
  187.8500  178.6550  138.4140 C   0  0  0  0  0  0  0  0  0  0  0  0
  189.2080  178.6210  139.0280 C   0  0  0  0  0  2  0  0  0  0  0  0
  189.3180  177.5000  140.0440 C   0  0  0  0  0  2  0  0  0  0  0  0
  190.3700  176.5050  139.6010 C   0  0  0  0  0  2  0  0  0  0  0  0
  190.1170  176.1090  138.1600 C   0  0  0  0  0  2  0  0  0  0  0  0
  191.3260  176.4570  137.3010 C   0  0  0  0  0  2  0  0  0  0  0  0
  193.8450  170.7620  136.0890 C   0  0  0  0  0  0  0  0  0  0  0  0
  196.8700  173.7130  138.4050 F   0  0  0  0  0  0  0  0  0  0  0  0
  194.8540  174.4720  137.4300 C   0  0  0  0  0  0  0  0  0  0  0  0
  192.3500  174.1180  137.1560 C   0  0  0  0  0  2  0  0  0  0  0  0
  191.8350  175.3290  136.3910 C   0  0  2  0  0  3  0  0  0  0  0  0
  196.8320  174.1910  136.2060 F   0  0  0  0  0  0  0  0  0  0  0  0
  196.1050  173.6490  137.2520 C   0  0  0  0  0  0  0  0  0  0  0  0
  193.6990  174.2830  136.4740 C   0  0  1  0  0  0  0  0  0  0  0  0
  192.8020  170.6340  135.3940 O   0  0  0  0  0  0  0  0  0  0  0  0
  193.2210  175.5580  135.7980 C   0  0  0  0  0  2  0  0  0  0  0  0
  194.3050  169.6780  136.8250 O   0  0  0  0  0  1  0  0  0  0  0  0
  195.7450  172.1670  136.9650 C   0  0  1  0  0  3  0  0  0  0  0  0
  193.9640  173.1780  135.4560 C   0  0  0  0  0  2  0  0  0  0  0  0
  194.7940  175.3050  138.3210 O   0  0  0  0  0  0  0  0  0  0  0  0
  194.5420  172.0150  136.1290 N   0  0  0  0  0  0  0  0  0  0  0  0
  196.9010  171.3160  136.4140 C   0  0  1  0  0  3  0  0  0  0  0  0
  197.1310  171.5860  135.0630 O   0  0  0  0  0  1  0  0  0  0  0  0
  198.1750  171.4980  137.2200 C   0  0  0  0  0  2  0  0  0  0  0  0
  199.1800  172.0250  136.4070 O   0  0  0  0  0  1  0  0  0  0  0  0
  184.3650  179.0590  140.4710 C   0  0  0  0  0  2  0  0  0  0  0  0
  183.7040  178.2590  141.5820 C   0  0  0  0  0  2  0  0  0  0  0  0
  183.8120  178.8670  144.0780 C   0  0  0  0  0  3  0  0  0  0  0  0
  186.7370  178.2300  144.0060 C   0  0  2  0  0  3  0  0  0  0  0  0
  185.8240  178.0660  142.8050 C   0  0  0  0  0  3  0  0  0  0  0  0
  184.4680  178.8880  145.2430 C   0  0  0  0  0  3  0  0  0  0  0  0
  184.5010  178.3820  142.8330 C   0  0  0  0  0  0  0  0  0  0  0  0
  186.6430  177.2100  144.9140 C   0  0  0  0  0  2  0  0  0  0  0  0
  185.7950  178.4210  145.1340 N   0  0  0  0  0  0  0  0  0  0  0  0
  3  4  1  6  0  0  0
  3  8  1  0  0  0  0
  3  6  1  0  0  0  0
  5  2  1  6  0  0  0
  5  4  1  0  0  0  0
  5  1  1  0  0  0  0
  6  1  1  1  0  0  0
  6  9  1  0  0  0  0
  7 16  1  6  0  0  0
  7 10  1  0  0  0  0
  8  7  1  0  0  0  0
  9 21  1  0  0  0  0
  9 10  2  0  0  0  0
 10 47  1  0  0  0  0
 12 15  2  0  0  0  0
 13 16  1  0  0  0  0
 14 13  2  0  0  0  0
 14 12  1  0  0  0  0
 15 11  1  0  0  0  0
 16 11  2  0  0  0  0
 17 12  1  0  0  0  0
 17 19  1  0  0  0  0
 18 17  2  0  0  0  0
 20 22  2  0  0  0  0
 22 23  1  0  0  0  0
 22 21  1  0  0  0  0
 23 24  1  0  0  0  0
 25 24  1  0  0  0  0
 26 25  1  0  0  0  0
 27 26  1  0  0  0  0
 28 42  1  0  0  0  0
 28 38  1  0  0  0  0
 30 41  2  0  0  0  0
 32 31  1  0  0  0  0
 32 27  1  1  0  0  0
 33 34  1  0  0  0  0
 34 30  1  0  0  0  0
 34 29  1  0  0  0  0
 35 40  1  6  0  0  0
 35 31  1  0  0  0  0
 35 30  1  0  0  0  0
 36 28  2  0  0  0  0
 37 32  1  0  0  0  0
 37 35  1  0  0  0  0
 39 43  1  6  0  0  0
 39 34  1  0  0  0  0
 40 42  1  0  0  0  0
 42 39  1  0  0  0  0
 43 44  1  6  0  0  0
 43 45  1  0  0  0  0
 46 45  1  0  0  0  0
 47 48  1  0  0  0  0
 48 53  1  0  0  0  0
 49 52  2  0  0  0  0
 50 51  1  6  0  0  0
 50 54  1  0  0  0  0
 50 55  1  0  0  0  0
 51 53  2  0  0  0  0
 53 49  1  0  0  0  0
 54 55  1  0  0  0  0
 55 52  1  0  0  0  0
M  END
>  <MODEL>
8

>  <REMARK>
 VINA RESULT:      -7.0      4.994     11.652
  Name = 
  14 active torsions:
  status: ('A' for Active; 'I' for Inactive)
    1  A    between atoms: C_2  and  C_28
    2  A    between atoms: C_2  and  C_44
    3  A    between atoms: C_4  and  C_35
    4  A    between atoms: C_4  and  C_37
    5  A    between atoms: C_8  and  C_51
    6  A    between atoms: C_10  and  C_32
    7  A    between atoms: C_11  and  C_29
    8  A    between atoms: N_19  and  C_45
    9  A    between atoms: C_28  and  C_49
   10  A    between atoms: C_29  and  C_38
   11  A    between atoms: C_33  and  C_52
   12  A    between atoms: C_35  and  C_43
   13  A    between atoms: C_37  and  C_40
   14  A    between atoms: C_43  and  C_51
                            x       y       z     vdW  Elec       q    Type
                         _______ _______ _______ _____ _____    ______ ____

>  <TORSDO>
F 14

$$$$
=
 OpenBabel10262420163D

 55 61  0  0  1  0  0  0  0  0999 V2000
  185.0230  179.4740  143.7030 C   0  0  0  0  0  2  0  0  0  0  0  0
  184.4400  178.5020  145.8100 O   0  0  0  0  0  1  0  0  0  0  0  0
  182.9160  179.0880  142.7620 C   0  0  1  0  0  3  0  0  0  0  0  0
  182.6900  178.9340  144.2420 C   0  0  0  0  0  2  0  0  0  0  0  0
  184.0100  179.4160  144.8490 C   0  0  2  0  0  3  0  0  0  0  0  0
  184.3500  178.7060  142.5910 C   0  0  1  0  0  3  0  0  0  0  0  0
  182.3700  178.5520  140.5200 C   0  0  1  0  0  3  0  0  0  0  0  0
  182.1120  178.2100  141.9320 N   0  0  0  0  0  2  0  0  0  0  0  0
  184.7640  179.0040  141.1740 C   0  0  0  0  0  0  0  0  0  0  0  0
  183.8340  178.8880  140.1960 C   0  0  0  0  0  0  0  0  0  0  0  0
  180.8930  177.7190  138.7120 N   0  0  0  0  0  0  0  0  0  0  0  0
  180.8690  175.4280  138.0170 C   0  0  0  0  0  0  0  0  0  0  0  0
  182.3510  176.1630  139.7860 C   0  0  0  0  0  3  0  0  0  0  0  0
  181.8550  175.1470  138.9690 C   0  0  0  0  0  3  0  0  0  0  0  0
  180.3970  176.7410  137.9060 C   0  0  0  0  0  3  0  0  0  0  0  0
  181.8530  177.4590  139.6410 C   0  0  0  0  0  0  0  0  0  0  0  0
  180.3410  174.3590  137.1540 C   0  0  0  0  0  0  0  0  0  0  0  0
  181.1360  173.2650  136.8310 O   0  0  0  0  0  1  0  0  0  0  0  0
  179.1670  174.4250  136.7010 O   0  0  0  0  0  0  0  0  0  0  0  0
  186.8210  177.1260  140.2960 O   0  0  0  0  0  0  0  0  0  0  0  0
  186.1300  179.2950  140.8390 N   0  0  0  0  0  2  0  0  0  0  0  0
  187.1370  178.3130  140.5710 C   0  0  0  0  0  0  0  0  0  0  0  0
  188.5760  178.7030  140.5710 C   0  0  0  0  0  2  0  0  0  0  0  0
  189.2270  178.3830  139.2390 C   0  0  0  0  0  2  0  0  0  0  0  0
  189.9250  177.0410  139.3180 C   0  0  0  0  0  2  0  0  0  0  0  0
  190.2900  176.7440  140.7590 C   0  0  0  0  0  2  0  0  0  0  0  0
  191.7230  177.1780  141.0360 C   0  0  0  0  0  2  0  0  0  0  0  0
  191.5540  175.9100  147.2500 C   0  0  0  0  0  0  0  0  0  0  0  0
  187.2290  176.9950  145.4240 F   0  0  0  0  0  0  0  0  0  0  0  0
  189.2370  177.3540  144.2290 C   0  0  0  0  0  0  0  0  0  0  0  0
  191.4620  176.3930  143.4570 C   0  0  0  0  0  2  0  0  0  0  0  0
  192.0630  177.4270  142.5140 C   0  0  2  0  0  3  0  0  0  0  0  0
  188.4120  178.8690  145.8140 F   0  0  0  0  0  0  0  0  0  0  0  0
  188.5070  177.5160  145.5380 C   0  0  0  0  0  0  0  0  0  0  0  0
  190.7400  177.5100  144.1930 C   0  0  1  0  0  0  0  0  0  0  0  0
  192.8070  175.9510  147.1220 O   0  0  0  0  0  0  0  0  0  0  0  0
  191.2470  178.5270  143.1840 C   0  0  0  0  0  2  0  0  0  0  0  0
  190.9890  174.9470  148.0750 O   0  0  0  0  0  1  0  0  0  0  0  0
  189.2570  176.7720  146.6750 C   0  0  1  0  0  3  0  0  0  0  0  0
  191.3310  177.7560  145.5790 C   0  0  0  0  0  2  0  0  0  0  0  0
  188.6100  177.1310  143.2050 O   0  0  0  0  0  0  0  0  0  0  0  0
  190.7220  176.8410  146.5440 N   0  0  0  0  0  0  0  0  0  0  0  0
  188.8210  177.1580  148.0980 C   0  0  1  0  0  3  0  0  0  0  0  0
  189.3520  178.3930  148.4760 O   0  0  0  0  0  1  0  0  0  0  0  0
  187.3090  177.1570  148.2490 C   0  0  0  0  0  2  0  0  0  0  0  0
  186.8190  178.4590  148.1280 O   0  0  0  0  0  1  0  0  0  0  0  0
  184.1930  179.1500  138.7640 C   0  0  0  0  0  2  0  0  0  0  0  0
  184.1020  177.8740  137.9440 C   0  0  0  0  0  2  0  0  0  0  0  0
  186.3250  178.8160  137.0600 C   0  0  0  0  0  3  0  0  0  0  0  0
  186.8560  176.1400  135.8260 C   0  0  2  0  0  3  0  0  0  0  0  0
  185.6270  176.4360  136.6640 C   0  0  0  0  0  3  0  0  0  0  0  0
  187.5230  178.6340  136.4940 C   0  0  0  0  0  3  0  0  0  0  0  0
  185.3740  177.6610  137.2010 C   0  0  0  0  0  0  0  0  0  0  0  0
  187.9850  175.9070  136.5660 C   0  0  0  0  0  2  0  0  0  0  0  0
  187.7400  177.3010  136.0850 N   0  0  0  0  0  0  0  0  0  0  0  0
  1  5  1  0  0  0  0
  3  4  1  1  0  0  0
  4  5  1  0  0  0  0
  5  2  1  1  0  0  0
  6  3  1  0  0  0  0
  6  1  1  1  0  0  0
  7 16  1  6  0  0  0
  7  8  1  0  0  0  0
  8  3  1  0  0  0  0
  9  6  1  0  0  0  0
 10  7  1  0  0  0  0
 10  9  2  0  0  0  0
 11 16  1  0  0  0  0
 12 14  2  0  0  0  0
 14 13  1  0  0  0  0
 15 12  1  0  0  0  0
 15 11  2  0  0  0  0
 16 13  2  0  0  0  0
 17 12  1  0  0  0  0
 18 17  1  0  0  0  0
 19 17  2  0  0  0  0
 20 22  2  0  0  0  0
 21  9  1  0  0  0  0
 22 21  1  0  0  0  0
 23 22  1  0  0  0  0
 24 25  1  0  0  0  0
 24 23  1  0  0  0  0
 25 26  1  0  0  0  0
 26 27  1  0  0  0  0
 28 38  1  0  0  0  0
 29 34  1  0  0  0  0
 30 34  1  0  0  0  0
 31 35  1  0  0  0  0
 32 27  1  6  0  0  0
 32 37  1  0  0  0  0
 32 31  1  0  0  0  0
 34 33  1  0  0  0  0
 34 39  1  0  0  0  0
 35 37  1  6  0  0  0
 35 30  1  0  0  0  0
 35 40  1  0  0  0  0
 36 28  2  0  0  0  0
 39 43  1  1  0  0  0
 40 42  1  0  0  0  0
 41 30  2  0  0  0  0
 42 39  1  0  0  0  0
 42 28  1  0  0  0  0
 43 45  1  0  0  0  0
 43 44  1  6  0  0  0
 46 45  1  0  0  0  0
 47 10  1  0  0  0  0
 48 47  1  0  0  0  0
 49 53  1  0  0  0  0
 50 55  1  0  0  0  0
 50 54  1  1  0  0  0
 50 51  1  0  0  0  0
 51 53  2  0  0  0  0
 52 49  2  0  0  0  0
 53 48  1  0  0  0  0
 55 52  1  0  0  0  0
 55 54  1  0  0  0  0
M  END
>  <MODEL>
9

>  <REMARK>
 VINA RESULT:      -7.0      3.445     10.224
  Name = 
  14 active torsions:
  status: ('A' for Active; 'I' for Inactive)
    1  A    between atoms: C_2  and  C_28
    2  A    between atoms: C_2  and  C_44
    3  A    between atoms: C_4  and  C_35
    4  A    between atoms: C_4  and  C_37
    5  A    between atoms: C_8  and  C_51
    6  A    between atoms: C_10  and  C_32
    7  A    between atoms: C_11  and  C_29
    8  A    between atoms: N_19  and  C_45
    9  A    between atoms: C_28  and  C_49
   10  A    between atoms: C_29  and  C_38
   11  A    between atoms: C_33  and  C_52
   12  A    between atoms: C_35  and  C_43
   13  A    between atoms: C_37  and  C_40
   14  A    between atoms: C_43  and  C_51
                            x       y       z     vdW  Elec       q    Type
                         _______ _______ _______ _____ _____    ______ ____

>  <TORSDO>
F 14

$$$$
