=
 OpenBabel10262421443D

 30 34  0  0  1  0  0  0  0  0999 V2000
  182.2680  178.1030  139.8980 C   0  0  0  0  0  0  0  0  0  0  0  0
  181.9660  177.0980  138.9170 C   0  0  0  0  0  0  0  0  0  0  0  0
  183.5290  178.7220  139.8890 C   0  0  0  0  0  3  0  0  0  0  0  0
  185.3590  177.2530  137.0850 C   0  0  0  0  0  2  0  0  0  0  0  0
  184.1730  177.4360  137.9660 C   0  0  0  0  0  0  0  0  0  0  0  0
  185.7290  178.8610  138.7840 O   0  0  0  0  0  0  0  0  0  0  0  0
  184.4530  178.3630  138.9190 C   0  0  0  0  0  0  0  0  0  0  0  0
  182.9380  176.7770  137.9290 C   0  0  0  0  0  0  0  0  0  0  0  0
  187.6110  177.5080  138.1420 C   0  0  0  0  0  1  0  0  0  0  0  0
  186.3780  178.2530  137.6700 C   0  0  1  0  0  3  0  0  0  0  0  0
  180.2880  179.6120  140.4860 C   0  0  1  0  0  3  0  0  0  0  0  0
  179.3430  179.9410  141.6380 C   0  0  0  0  0  2  0  0  0  0  0  0
  180.8940  180.7790  140.0200 O   0  0  0  0  0  1  0  0  0  0  0  0
  181.9400  178.9400  142.3260 C   0  0  0  0  0  2  0  0  0  0  0  0
  180.0510  178.2730  143.8940 C   0  0  0  0  0  1  0  0  0  0  0  0
  181.3250  178.5950  140.9700 C   0  0  2  0  0  3  0  0  0  0  0  0
  180.0530  180.4460  142.7510 O   0  0  0  0  0  0  0  0  0  0  0  0
  180.8630  179.4220  143.3040 C   0  0  2  0  0  3  0  0  0  0  0  0
  182.3840  176.1940  135.5600 C   0  0  0  0  0  1  0  0  0  0  0  0
  182.6830  175.7860  136.9240 N   0  0  0  0  0  0  0  0  0  0  0  0
  183.0020  174.3920  137.1880 C   0  0  0  0  0  2  0  0  0  0  0  0
  183.8050  174.2950  138.3100 F   0  0  0  0  0  0  0  0  0  0  0  0
  180.6680  176.4640  138.8600 N   0  0  0  0  0  0  0  0  0  0  0  0
  179.0520  174.8450  139.3380 C   0  0  0  0  0  2  0  0  0  0  0  0
  179.4970  175.4230  140.5960 C   0  0  1  0  0  3  0  0  0  0  0  0
  179.6760  174.3250  141.6220 C   0  0  0  0  0  1  0  0  0  0  0  0
  180.4670  175.2230  139.5020 N   0  0  0  0  0  0  0  0  0  0  0  0
  179.5110  177.2050  138.3460 C   0  0  1  0  0  3  0  0  0  0  0  0
  179.9340  178.1150  137.3560 O   0  0  0  0  0  0  0  0  0  0  0  0
  179.3040  176.9440  136.9010 C   0  0  0  0  0  2  0  0  0  0  0  0
  2  1  2  0  0  0  0
  3  1  1  0  0  0  0
  4 10  1  0  0  0  0
  4  5  1  0  0  0  0
  5  7  1  0  0  0  0
  6  7  1  0  0  0  0
  7  3  2  0  0  0  0
  8  5  2  0  0  0  0
  8  2  1  0  0  0  0
 10  9  1  1  0  0  0
 10  6  1  0  0  0  0
 11 13  1  1  0  0  0
 11 16  1  0  0  0  0
 11 12  1  0  0  0  0
 12 17  1  0  0  0  0
 14 18  1  0  0  0  0
 16  1  1  6  0  0  0
 16 14  1  0  0  0  0
 17 18  1  0  0  0  0
 18 15  1  6  0  0  0
 19 20  1  0  0  0  0
 20 21  1  0  0  0  0
 20  8  1  0  0  0  0
 21 22  1  0  0  0  0
 23  2  1  0  0  0  0
 23 27  1  0  0  0  0
 24 27  1  0  0  0  0
 24 25  1  0  0  0  0
 25 26  1  1  0  0  0
 27 25  1  0  0  0  0
 28 23  1  6  0  0  0
 29 28  1  0  0  0  0
 30 29  1  0  0  0  0
 30 28  1  0  0  0  0
M  END
>  <MODEL>
1

>  <REMARK>
 VINA RESULT:      -4.9      0.000      0.000
  Name = 
  6 active torsions:
  status: ('A' for Active; 'I' for Inactive)
    1  A    between atoms: C_1  and  C_22
    2  A    between atoms: C_4  and  N_23
    3  A    between atoms: C_7  and  N_30
    4  A    between atoms: C_10  and  N_23
    5  A    between atoms: C_13  and  N_30
    6  A    between atoms: N_23  and  N_25
                            x       y       z     vdW  Elec       q    Type
                         _______ _______ _______ _____ _____    ______ ____

>  <TORSDO>
F 6

$$$$
=
 OpenBabel10262421443D

 30 34  0  0  1  0  0  0  0  0999 V2000
  184.4010  177.9400  138.5740 C   0  0  0  0  0  0  0  0  0  0  0  0
  184.6880  177.1520  137.4070 C   0  0  0  0  0  0  0  0  0  0  0  0
  185.4620  178.4700  139.3280 C   0  0  0  0  0  3  0  0  0  0  0  0
  188.5300  177.4310  137.6330 C   0  0  0  0  0  2  0  0  0  0  0  0
  187.0530  177.5210  137.8010 C   0  0  0  0  0  0  0  0  0  0  0  0
  187.9090  178.6740  139.5510 O   0  0  0  0  0  0  0  0  0  0  0  0
  186.7660  178.2400  138.9190 C   0  0  0  0  0  0  0  0  0  0  0  0
  186.0420  176.9590  137.0150 C   0  0  0  0  0  0  0  0  0  0  0  0
  189.9080  177.3470  139.7180 C   0  0  0  0  0  1  0  0  0  0  0  0
  189.0620  178.2410  138.8330 C   0  0  1  0  0  3  0  0  0  0  0  0
  182.4420  179.5830  138.5190 C   0  0  1  0  0  3  0  0  0  0  0  0
  181.0160  179.7530  139.0340 C   0  0  0  0  0  2  0  0  0  0  0  0
  183.2130  180.6890  138.8810 O   0  0  0  0  0  1  0  0  0  0  0  0
  182.7730  178.0980  140.5800 C   0  0  0  0  0  2  0  0  0  0  0  0
  180.3250  177.4040  140.5750 C   0  0  0  0  0  1  0  0  0  0  0  0
  183.0230  178.2840  139.0840 C   0  0  2  0  0  3  0  0  0  0  0  0
  180.9820  179.7660  140.4470 O   0  0  0  0  0  0  0  0  0  0  0  0
  181.3360  178.4860  140.9440 C   0  0  2  0  0  3  0  0  0  0  0  0
  186.6610  176.8550  134.5940 C   0  0  0  0  0  1  0  0  0  0  0  0
  186.3800  176.1860  135.8540 N   0  0  0  0  0  0  0  0  0  0  0  0
  186.7230  174.7810  135.9980 C   0  0  0  0  0  2  0  0  0  0  0  0
  186.7140  174.4260  137.3340 F   0  0  0  0  0  0  0  0  0  0  0  0
  183.6310  176.6210  136.5760 N   0  0  0  0  0  0  0  0  0  0  0  0
  183.5750  174.7330  137.9530 C   0  0  0  0  0  2  0  0  0  0  0  0
  183.2580  174.3130  136.5980 C   0  0  1  0  0  3  0  0  0  0  0  0
  182.1150  173.3220  136.6310 C   0  0  0  0  0  1  0  0  0  0  0  0
  182.7770  175.6190  137.0870 N   0  0  0  0  0  0  0  0  0  0  0  0
  183.2970  177.2750  135.3070 C   0  0  1  0  0  3  0  0  0  0  0  0
  182.1340  176.6910  134.7650 O   0  0  0  0  0  0  0  0  0  0  0  0
  181.9760  177.9460  135.3790 C   0  0  0  0  0  2  0  0  0  0  0  0
  1  3  1  0  0  0  0
  2  1  2  0  0  0  0
  4  5  1  0  0  0  0
  4 10  1  0  0  0  0
  5  7  1  0  0  0  0
  7  3  2  0  0  0  0
  7  6  1  0  0  0  0
  8  2  1  0  0  0  0
  8  5  2  0  0  0  0
 10  6  1  0  0  0  0
 10  9  1  1  0  0  0
 11 13  1  1  0  0  0
 11 12  1  0  0  0  0
 11 16  1  0  0  0  0
 12 17  1  0  0  0  0
 14 18  1  0  0  0  0
 16  1  1  1  0  0  0
 16 14  1  0  0  0  0
 17 18  1  0  0  0  0
 18 15  1  6  0  0  0
 19 20  1  0  0  0  0
 20 21  1  0  0  0  0
 20  8  1  0  0  0  0
 21 22  1  0  0  0  0
 23 27  1  0  0  0  0
 23  2  1  0  0  0  0
 25 26  1  1  0  0  0
 25 27  1  0  0  0  0
 25 24  1  0  0  0  0
 27 24  1  0  0  0  0
 28 30  1  0  0  0  0
 28 23  1  1  0  0  0
 29 28  1  0  0  0  0
 29 30  1  0  0  0  0
M  END
>  <MODEL>
2

>  <REMARK>
 VINA RESULT:      -4.8      2.154      3.442
  Name = 
  6 active torsions:
  status: ('A' for Active; 'I' for Inactive)
    1  A    between atoms: C_1  and  C_22
    2  A    between atoms: C_4  and  N_23
    3  A    between atoms: C_7  and  N_30
    4  A    between atoms: C_10  and  N_23
    5  A    between atoms: C_13  and  N_30
    6  A    between atoms: N_23  and  N_25
                            x       y       z     vdW  Elec       q    Type
                         _______ _______ _______ _____ _____    ______ ____

>  <TORSDO>
F 6

$$$$
=
 OpenBabel10262421443D

 30 34  0  0  1  0  0  0  0  0999 V2000
  183.0800  178.2600  138.5840 C   0  0  0  0  0  0  0  0  0  0  0  0
  183.0570  177.1710  137.6470 C   0  0  0  0  0  0  0  0  0  0  0  0
  184.3120  178.8100  138.9750 C   0  0  0  0  0  3  0  0  0  0  0  0
  186.8770  176.9570  137.1430 C   0  0  0  0  0  2  0  0  0  0  0  0
  185.4770  177.2930  137.5240 C   0  0  0  0  0  0  0  0  0  0  0  0
  186.7630  178.7180  138.7220 O   0  0  0  0  0  0  0  0  0  0  0  0
  185.4830  178.3030  138.4330 C   0  0  0  0  0  0  0  0  0  0  0  0
  184.2830  176.6970  137.1020 C   0  0  0  0  0  0  0  0  0  0  0  0
  188.6280  177.2100  138.9100 C   0  0  0  0  0  1  0  0  0  0  0  0
  187.7070  177.9610  137.9680 C   0  0  1  0  0  3  0  0  0  0  0  0
  181.4110  180.1970  138.5070 C   0  0  1  0  0  3  0  0  0  0  0  0
  180.1250  180.6870  139.1660 C   0  0  0  0  0  2  0  0  0  0  0  0
  182.3890  181.1900  138.5750 O   0  0  0  0  0  1  0  0  0  0  0  0
  181.8270  178.9900  140.7290 C   0  0  0  0  0  2  0  0  0  0  0  0
  179.3320  178.7440  141.1580 C   0  0  0  0  0  1  0  0  0  0  0  0
  181.8670  178.9120  139.2030 C   0  0  2  0  0  3  0  0  0  0  0  0
  180.3150  180.9100  140.5490 O   0  0  0  0  0  0  0  0  0  0  0  0
  180.5410  179.6740  141.2050 C   0  0  2  0  0  3  0  0  0  0  0  0
  184.4980  175.8950  134.7430 C   0  0  0  0  0  1  0  0  0  0  0  0
  184.3120  175.6170  136.1590 N   0  0  0  0  0  0  0  0  0  0  0  0
  184.4490  174.2490  136.6320 C   0  0  0  0  0  2  0  0  0  0  0  0
  184.2680  174.2030  138.0020 F   0  0  0  0  0  0  0  0  0  0  0  0
  181.8130  176.6010  137.1830 N   0  0  0  0  0  0  0  0  0  0  0  0
  179.8530  175.3700  137.5170 C   0  0  0  0  0  2  0  0  0  0  0  0
  180.2990  175.8690  138.8080 C   0  0  1  0  0  3  0  0  0  0  0  0
  180.1490  174.7810  139.8490 C   0  0  0  0  0  1  0  0  0  0  0  0
  181.2970  175.4440  137.8070 N   0  0  0  0  0  0  0  0  0  0  0  0
  180.9740  177.3420  136.2350 C   0  0  1  0  0  3  0  0  0  0  0  0
  181.7910  178.1190  135.3880 O   0  0  0  0  0  0  0  0  0  0  0  0
  181.2590  176.9400  134.8360 C   0  0  0  0  0  2  0  0  0  0  0  0
  1  3  1  0  0  0  0
  2  1  2  0  0  0  0
  4  5  1  0  0  0  0
  4 10  1  0  0  0  0
  5  7  1  0  0  0  0
  7  6  1  0  0  0  0
  7  3  2  0  0  0  0
  8  5  2  0  0  0  0
  8  2  1  0  0  0  0
 10  6  1  0  0  0  0
 10  9  1  1  0  0  0
 11 13  1  1  0  0  0
 11 12  1  0  0  0  0
 11 16  1  0  0  0  0
 12 17  1  0  0  0  0
 14 18  1  0  0  0  0
 16  1  1  1  0  0  0
 16 14  1  0  0  0  0
 17 18  1  0  0  0  0
 18 15  1  6  0  0  0
 19 20  1  0  0  0  0
 20 21  1  0  0  0  0
 20  8  1  0  0  0  0
 21 22  1  0  0  0  0
 23  2  1  0  0  0  0
 23 27  1  0  0  0  0
 24 27  1  0  0  0  0
 24 25  1  0  0  0  0
 25 26  1  1  0  0  0
 27 25  1  0  0  0  0
 28 23  1  1  0  0  0
 29 28  1  0  0  0  0
 30 29  1  0  0  0  0
 30 28  1  0  0  0  0
M  END
>  <MODEL>
3

>  <REMARK>
 VINA RESULT:      -4.7      1.486      1.947
  Name = 
  6 active torsions:
  status: ('A' for Active; 'I' for Inactive)
    1  A    between atoms: C_1  and  C_22
    2  A    between atoms: C_4  and  N_23
    3  A    between atoms: C_7  and  N_30
    4  A    between atoms: C_10  and  N_23
    5  A    between atoms: C_13  and  N_30
    6  A    between atoms: N_23  and  N_25
                            x       y       z     vdW  Elec       q    Type
                         _______ _______ _______ _____ _____    ______ ____

>  <TORSDO>
F 6

$$$$
=
 OpenBabel10262421443D

 30 34  0  0  1  0  0  0  0  0999 V2000
  183.0480  177.5480  139.0120 C   0  0  0  0  0  0  0  0  0  0  0  0
  181.7270  177.9760  139.3820 C   0  0  0  0  0  0  0  0  0  0  0  0
  184.0810  177.5930  139.9630 C   0  0  0  0  0  3  0  0  0  0  0  0
  182.5660  178.8440  143.0470 C   0  0  0  0  0  2  0  0  0  0  0  0
  182.5500  178.4110  141.6220 C   0  0  0  0  0  0  0  0  0  0  0  0
  184.6980  178.1470  142.2860 O   0  0  0  0  0  0  0  0  0  0  0  0
  183.8000  178.0310  141.2490 C   0  0  0  0  0  0  0  0  0  0  0  0
  181.4820  178.3990  140.7180 C   0  0  0  0  0  0  0  0  0  0  0  0
  184.6490  179.9520  143.8750 C   0  0  0  0  0  1  0  0  0  0  0  0
  184.0390  178.6300  143.4540 C   0  0  1  0  0  3  0  0  0  0  0  0
  183.1070  175.5460  137.4220 C   0  0  1  0  0  3  0  0  0  0  0  0
  183.4740  175.1750  135.9880 C   0  0  0  0  0  2  0  0  0  0  0  0
  183.7820  174.7130  138.3160 O   0  0  0  0  0  1  0  0  0  0  0  0
  184.8360  177.4170  137.1440 C   0  0  0  0  0  2  0  0  0  0  0  0
  184.3970  177.5660  134.6430 C   0  0  0  0  0  1  0  0  0  0  0  0
  183.4530  177.0190  137.6570 C   0  0  2  0  0  3  0  0  0  0  0  0
  184.8450  175.4130  135.7350 O   0  0  0  0  0  0  0  0  0  0  0  0
  185.1010  176.8060  135.7650 C   0  0  2  0  0  3  0  0  0  0  0  0
  179.2760  177.8860  141.7790 C   0  0  0  0  0  1  0  0  0  0  0  0
  180.1790  178.8280  141.1380 N   0  0  0  0  0  0  0  0  0  0  0  0
  179.8710  180.2480  141.1920 C   0  0  0  0  0  2  0  0  0  0  0  0
  180.6770  180.9410  140.3080 F   0  0  0  0  0  0  0  0  0  0  0  0
  180.6230  177.9090  138.4510 N   0  0  0  0  0  0  0  0  0  0  0  0
  180.0860  178.9200  136.4130 C   0  0  0  0  0  2  0  0  0  0  0  0
  181.1720  179.6740  137.0180 C   0  0  1  0  0  3  0  0  0  0  0  0
  180.9140  181.1560  136.8500 C   0  0  0  0  0  1  0  0  0  0  0  0
  180.1200  179.0970  137.8760 N   0  0  0  0  0  0  0  0  0  0  0  0
  180.1840  176.6120  137.9250 C   0  0  1  0  0  3  0  0  0  0  0  0
  180.1840  175.6570  138.9620 O   0  0  0  0  0  0  0  0  0  0  0  0
  178.9310  176.1640  138.5790 C   0  0  0  0  0  2  0  0  0  0  0  0
  1  2  2  0  0  0  0
  1  3  1  0  0  0  0
  2  8  1  0  0  0  0
  3  7  2  0  0  0  0
  4 10  1  0  0  0  0
  5  4  1  0  0  0  0
  6 10  1  0  0  0  0
  7  5  1  0  0  0  0
  7  6  1  0  0  0  0
  8 20  1  0  0  0  0
  8  5  2  0  0  0  0
 10  9  1  6  0  0  0
 11 16  1  0  0  0  0
 11 13  1  1  0  0  0
 12 11  1  0  0  0  0
 14 16  1  0  0  0  0
 16  1  1  1  0  0  0
 17 18  1  0  0  0  0
 17 12  1  0  0  0  0
 18 15  1  6  0  0  0
 18 14  1  0  0  0  0
 20 21  1  0  0  0  0
 20 19  1  0  0  0  0
 22 21  1  0  0  0  0
 23  2  1  0  0  0  0
 24 25  1  0  0  0  0
 24 27  1  0  0  0  0
 25 26  1  6  0  0  0
 25 27  1  0  0  0  0
 27 23  1  0  0  0  0
 28 23  1  1  0  0  0
 28 30  1  0  0  0  0
 28 29  1  0  0  0  0
 30 29  1  0  0  0  0
M  END
>  <MODEL>
4

>  <REMARK>
 VINA RESULT:      -4.4      2.718      5.905
  Name = 
  6 active torsions:
  status: ('A' for Active; 'I' for Inactive)
    1  A    between atoms: C_1  and  C_22
    2  A    between atoms: C_4  and  N_23
    3  A    between atoms: C_7  and  N_30
    4  A    between atoms: C_10  and  N_23
    5  A    between atoms: C_13  and  N_30
    6  A    between atoms: N_23  and  N_25
                            x       y       z     vdW  Elec       q    Type
                         _______ _______ _______ _____ _____    ______ ____

>  <TORSDO>
F 6

$$$$
=
 OpenBabel10262421443D

 30 34  0  0  1  0  0  0  0  0999 V2000
  185.6040  177.8290  137.8740 C   0  0  0  0  0  0  0  0  0  0  0  0
  184.6650  176.9520  137.2310 C   0  0  0  0  0  0  0  0  0  0  0  0
  185.1320  178.9440  138.5860 C   0  0  0  0  0  3  0  0  0  0  0  0
  181.4860  178.8360  138.3430 C   0  0  0  0  0  2  0  0  0  0  0  0
  182.8640  178.3290  138.0950 C   0  0  0  0  0  0  0  0  0  0  0  0
  183.1480  180.2140  139.3150 O   0  0  0  0  0  0  0  0  0  0  0  0
  183.7660  179.1660  138.6720 C   0  0  0  0  0  0  0  0  0  0  0  0
  183.2710  177.2080  137.3640 C   0  0  0  0  0  0  0  0  0  0  0  0
  181.1900  181.3170  138.4590 C   0  0  0  0  0  1  0  0  0  0  0  0
  181.7330  180.1030  139.1880 C   0  0  1  0  0  3  0  0  0  0  0  0
  187.7210  177.4860  139.2670 C   0  0  1  0  0  3  0  0  0  0  0  0
  189.2160  177.2220  139.1150 C   0  0  0  0  0  2  0  0  0  0  0  0
  187.5160  178.6160  140.0610 O   0  0  0  0  0  1  0  0  0  0  0  0
  187.9050  178.5790  136.9560 C   0  0  0  0  0  2  0  0  0  0  0  0
  189.8210  177.0420  136.2910 C   0  0  0  0  0  1  0  0  0  0  0  0
  187.1040  177.6590  137.8770 C   0  0  2  0  0  3  0  0  0  0  0  0
  189.8510  178.2740  138.4140 O   0  0  0  0  0  0  0  0  0  0  0  0
  189.4050  178.2880  137.0690 C   0  0  2  0  0  3  0  0  0  0  0  0
  181.6510  175.3090  137.5230 C   0  0  0  0  0  1  0  0  0  0  0  0
  182.2940  176.3580  136.7470 N   0  0  0  0  0  0  0  0  0  0  0  0
  181.7370  176.7190  135.4540 C   0  0  0  0  0  2  0  0  0  0  0  0
  182.3430  177.8700  134.9830 F   0  0  0  0  0  0  0  0  0  0  0  0
  185.0980  175.7690  136.5230 N   0  0  0  0  0  0  0  0  0  0  0  0
  186.0530  173.6390  136.3990 C   0  0  0  0  0  2  0  0  0  0  0  0
  184.6070  173.4860  136.3980 C   0  0  1  0  0  3  0  0  0  0  0  0
  184.2200  172.3310  137.2960 C   0  0  0  0  0  1  0  0  0  0  0  0
  185.2270  174.5450  137.2170 N   0  0  0  0  0  0  0  0  0  0  0  0
  185.1770  175.7780  135.0580 C   0  0  1  0  0  3  0  0  0  0  0  0
  185.3430  177.1010  134.6020 O   0  0  0  0  0  0  0  0  0  0  0  0
  186.4900  176.2880  134.5940 C   0  0  0  0  0  2  0  0  0  0  0  0
  1  3  1  0  0  0  0
  2  8  1  0  0  0  0
  2  1  2  0  0  0  0
  3  7  2  0  0  0  0
  4 10  1  0  0  0  0
  5  4  1  0  0  0  0
  5  7  1  0  0  0  0
  7  6  1  0  0  0  0
  8  5  2  0  0  0  0
 10  9  1  6  0  0  0
 10  6  1  0  0  0  0
 11 13  1  1  0  0  0
 12 11  1  0  0  0  0
 14 18  1  0  0  0  0
 14 16  1  0  0  0  0
 16  1  1  1  0  0  0
 16 11  1  0  0  0  0
 17 12  1  0  0  0  0
 18 15  1  1  0  0  0
 18 17  1  0  0  0  0
 20  8  1  0  0  0  0
 20 19  1  0  0  0  0
 21 20  1  0  0  0  0
 22 21  1  0  0  0  0
 23 27  1  0  0  0  0
 23  2  1  0  0  0  0
 24 27  1  0  0  0  0
 25 24  1  0  0  0  0
 25 27  1  0  0  0  0
 25 26  1  1  0  0  0
 28 23  1  1  0  0  0
 29 28  1  0  0  0  0
 30 29  1  0  0  0  0
 30 28  1  0  0  0  0
M  END
>  <MODEL>
5

>  <REMARK>
 VINA RESULT:      -4.3      2.901      6.449
  Name = 
  6 active torsions:
  status: ('A' for Active; 'I' for Inactive)
    1  A    between atoms: C_1  and  C_22
    2  A    between atoms: C_4  and  N_23
    3  A    between atoms: C_7  and  N_30
    4  A    between atoms: C_10  and  N_23
    5  A    between atoms: C_13  and  N_30
    6  A    between atoms: N_23  and  N_25
                            x       y       z     vdW  Elec       q    Type
                         _______ _______ _______ _____ _____    ______ ____

>  <TORSDO>
F 6

$$$$
=
 OpenBabel10262421443D

 30 34  0  0  1  0  0  0  0  0999 V2000
  186.3500  177.7820  138.7290 C   0  0  0  0  0  0  0  0  0  0  0  0
  187.1000  177.0090  137.7780 C   0  0  0  0  0  0  0  0  0  0  0  0
  186.9720  178.2170  139.9110 C   0  0  0  0  0  3  0  0  0  0  0  0
  190.4220  177.0170  139.7420 C   0  0  0  0  0  2  0  0  0  0  0  0
  189.0380  177.2040  139.2250 C   0  0  0  0  0  0  0  0  0  0  0  0
  189.0540  178.2460  141.2340 O   0  0  0  0  0  0  0  0  0  0  0  0
  188.3070  177.9090  140.1280 C   0  0  0  0  0  0  0  0  0  0  0  0
  188.4720  176.7340  138.0340 C   0  0  0  0  0  0  0  0  0  0  0  0
  190.6880  176.7810  142.2180 C   0  0  0  0  0  1  0  0  0  0  0  0
  190.3850  177.7550  141.0960 C   0  0  1  0  0  3  0  0  0  0  0  0
  184.6080  179.6230  139.0690 C   0  0  1  0  0  3  0  0  0  0  0  0
  183.1510  179.9560  138.7590 C   0  0  0  0  0  2  0  0  0  0  0  0
  184.8430  179.7490  140.4390 O   0  0  0  0  0  1  0  0  0  0  0  0
  183.8420  177.1810  138.9570 C   0  0  0  0  0  2  0  0  0  0  0  0
  182.0130  177.7440  137.2810 C   0  0  0  0  0  1  0  0  0  0  0  0
  184.9090  178.2060  138.5750 C   0  0  2  0  0  3  0  0  0  0  0  0
  182.2760  179.0220  139.3600 O   0  0  0  0  0  0  0  0  0  0  0  0
  182.4370  177.7540  138.7470 C   0  0  2  0  0  3  0  0  0  0  0  0
  190.1380  176.6540  136.1700 C   0  0  0  0  0  1  0  0  0  0  0  0
  189.2660  175.9730  137.1130 N   0  0  0  0  0  0  0  0  0  0  0  0
  189.4210  174.5400  137.3080 C   0  0  0  0  0  2  0  0  0  0  0  0
  190.7600  174.2260  137.4530 F   0  0  0  0  0  0  0  0  0  0  0  0
  186.5160  176.5750  136.5300 N   0  0  0  0  0  0  0  0  0  0  0  0
  185.0120  175.1740  135.4160 C   0  0  0  0  0  2  0  0  0  0  0  0
  184.7510  175.0730  136.8430 C   0  0  1  0  0  3  0  0  0  0  0  0
  184.5100  173.6260  137.2120 C   0  0  0  0  0  1  0  0  0  0  0  0
  186.1390  175.2240  136.3660 N   0  0  0  0  0  0  0  0  0  0  0  0
  186.1000  177.5650  135.5300 C   0  0  1  0  0  3  0  0  0  0  0  0
  186.8740  178.7350  135.6730 O   0  0  0  0  0  0  0  0  0  0  0  0
  187.2100  177.8890  134.6010 C   0  0  0  0  0  2  0  0  0  0  0  0
  1  3  1  0  0  0  0
  2  8  1  0  0  0  0
  2  1  2  0  0  0  0
  3  7  2  0  0  0  0
  4 10  1  0  0  0  0
  5  4  1  0  0  0  0
  5  7  1  0  0  0  0
  7  6  1  0  0  0  0
  8  5  2  0  0  0  0
 10  6  1  0  0  0  0
 10  9  1  1  0  0  0
 11 13  1  1  0  0  0
 12 11  1  0  0  0  0
 12 17  1  0  0  0  0
 16  1  1  1  0  0  0
 16 14  1  0  0  0  0
 16 11  1  0  0  0  0
 18 15  1  6  0  0  0
 18 14  1  0  0  0  0
 18 17  1  0  0  0  0
 19 20  1  0  0  0  0
 20 21  1  0  0  0  0
 20  8  1  0  0  0  0
 21 22  1  0  0  0  0
 23  2  1  0  0  0  0
 24 27  1  0  0  0  0
 24 25  1  0  0  0  0
 25 26  1  6  0  0  0
 27 23  1  0  0  0  0
 27 25  1  0  0  0  0
 28 29  1  0  0  0  0
 28 23  1  1  0  0  0
 30 28  1  0  0  0  0
 30 29  1  0  0  0  0
M  END
>  <MODEL>
6

>  <REMARK>
 VINA RESULT:      -4.2      3.635      5.798
  Name = 
  6 active torsions:
  status: ('A' for Active; 'I' for Inactive)
    1  A    between atoms: C_1  and  C_22
    2  A    between atoms: C_4  and  N_23
    3  A    between atoms: C_7  and  N_30
    4  A    between atoms: C_10  and  N_23
    5  A    between atoms: C_13  and  N_30
    6  A    between atoms: N_23  and  N_25
                            x       y       z     vdW  Elec       q    Type
                         _______ _______ _______ _____ _____    ______ ____

>  <TORSDO>
F 6

$$$$
=
 OpenBabel10262421443D

 30 34  0  0  1  0  0  0  0  0999 V2000
  186.7310  178.0080  143.4880 C   0  0  0  0  0  0  0  0  0  0  0  0
  187.8210  177.9090  142.5570 C   0  0  0  0  0  0  0  0  0  0  0  0
  185.4330  178.2520  143.0090 C   0  0  0  0  0  3  0  0  0  0  0  0
  185.7130  178.4470  139.3690 C   0  0  0  0  0  2  0  0  0  0  0  0
  186.2400  178.2530  140.7480 C   0  0  0  0  0  0  0  0  0  0  0  0
  184.0240  178.6260  141.0200 O   0  0  0  0  0  0  0  0  0  0  0  0
  185.2250  178.3730  141.6440 C   0  0  0  0  0  0  0  0  0  0  0  0
  187.5560  178.0200  141.1630 C   0  0  0  0  0  0  0  0  0  0  0  0
  183.8140  180.0510  139.0940 C   0  0  0  0  0  1  0  0  0  0  0  0
  184.2060  178.6790  139.6070 C   0  0  1  0  0  3  0  0  0  0  0  0
  185.5790  178.2540  145.7580 C   0  0  1  0  0  3  0  0  0  0  0  0
  185.7900  177.9520  147.2390 C   0  0  0  0  0  2  0  0  0  0  0  0
  185.2820  179.6070  145.5870 O   0  0  0  0  0  1  0  0  0  0  0  0
  188.1380  178.3270  145.6370 C   0  0  0  0  0  2  0  0  0  0  0  0
  188.3590  176.6540  147.5410 C   0  0  0  0  0  1  0  0  0  0  0  0
  186.8390  177.8540  144.9860 C   0  0  2  0  0  3  0  0  0  0  0  0
  186.9220  178.6340  147.7420 O   0  0  0  0  0  0  0  0  0  0  0  0
  188.0980  178.1070  147.1530 C   0  0  2  0  0  3  0  0  0  0  0  0
  189.0250  176.6160  139.7040 C   0  0  0  0  0  1  0  0  0  0  0  0
  188.6080  177.9210  140.1930 N   0  0  0  0  0  0  0  0  0  0  0  0
  189.0550  179.1130  139.4900 C   0  0  0  0  0  2  0  0  0  0  0  0
  189.0560  178.8840  138.1260 F   0  0  0  0  0  0  0  0  0  0  0  0
  189.1660  177.6170  142.9970 N   0  0  0  0  0  0  0  0  0  0  0  0
  191.4650  177.9570  142.7460 C   0  0  0  0  0  2  0  0  0  0  0  0
  191.0790  178.4400  144.0620 C   0  0  1  0  0  3  0  0  0  0  0  0
  191.7760  179.7530  144.3430 C   0  0  0  0  0  1  0  0  0  0  0  0
  190.1590  178.6180  142.9210 N   0  0  0  0  0  0  0  0  0  0  0  0
  189.4450  176.3790  143.7320 C   0  0  1  0  0  3  0  0  0  0  0  0
  188.6770  175.3270  143.1950 O   0  0  0  0  0  0  0  0  0  0  0  0
  190.0370  175.3490  142.8430 C   0  0  0  0  0  2  0  0  0  0  0  0
  2 23  1  0  0  0  0
  2  1  2  0  0  0  0
  3  1  1  0  0  0  0
  4 10  1  0  0  0  0
  4  5  1  0  0  0  0
  5  8  2  0  0  0  0
  5  7  1  0  0  0  0
  6  7  1  0  0  0  0
  7  3  2  0  0  0  0
  8  2  1  0  0  0  0
 10  9  1  1  0  0  0
 10  6  1  0  0  0  0
 11 13  1  1  0  0  0
 11 12  1  0  0  0  0
 12 17  1  0  0  0  0
 14 18  1  0  0  0  0
 16  1  1  6  0  0  0
 16 14  1  0  0  0  0
 16 11  1  0  0  0  0
 18 15  1  6  0  0  0
 18 17  1  0  0  0  0
 19 20  1  0  0  0  0
 20  8  1  0  0  0  0
 21 20  1  0  0  0  0
 22 21  1  0  0  0  0
 24 27  1  0  0  0  0
 24 25  1  0  0  0  0
 25 26  1  6  0  0  0
 27 23  1  0  0  0  0
 27 25  1  0  0  0  0
 28 23  1  6  0  0  0
 29 28  1  0  0  0  0
 30 29  1  0  0  0  0
 30 28  1  0  0  0  0
M  END
>  <MODEL>
7

>  <REMARK>
 VINA RESULT:      -4.2      5.868      8.271
  Name = 
  6 active torsions:
  status: ('A' for Active; 'I' for Inactive)
    1  A    between atoms: C_1  and  C_22
    2  A    between atoms: C_4  and  N_23
    3  A    between atoms: C_7  and  N_30
    4  A    between atoms: C_10  and  N_23
    5  A    between atoms: C_13  and  N_30
    6  A    between atoms: N_23  and  N_25
                            x       y       z     vdW  Elec       q    Type
                         _______ _______ _______ _____ _____    ______ ____

>  <TORSDO>
F 6

$$$$
=
 OpenBabel10262421443D

 30 34  0  0  1  0  0  0  0  0999 V2000
  183.3310  177.8170  139.2210 C   0  0  0  0  0  0  0  0  0  0  0  0
  181.9880  178.2800  139.4360 C   0  0  0  0  0  0  0  0  0  0  0  0
  184.2350  177.7940  140.2960 C   0  0  0  0  0  3  0  0  0  0  0  0
  182.3810  179.0000  143.2070 C   0  0  0  0  0  2  0  0  0  0  0  0
  182.5320  178.6140  141.7770 C   0  0  0  0  0  0  0  0  0  0  0  0
  184.5690  178.2510  142.6960 O   0  0  0  0  0  0  0  0  0  0  0  0
  183.8070  178.2000  141.5500 C   0  0  0  0  0  0  0  0  0  0  0  0
  181.5880  178.6690  140.7460 C   0  0  0  0  0  0  0  0  0  0  0  0
  184.3770  180.0050  144.3300 C   0  0  0  0  0  1  0  0  0  0  0  0
  183.7820  178.7200  143.7880 C   0  0  1  0  0  3  0  0  0  0  0  0
  183.3150  175.9730  137.4490 C   0  0  1  0  0  3  0  0  0  0  0  0
  183.8820  175.6410  136.0710 C   0  0  0  0  0  2  0  0  0  0  0  0
  183.6220  174.9510  138.3480 O   0  0  0  0  0  1  0  0  0  0  0  0
  185.3960  177.4470  137.7040 C   0  0  0  0  0  2  0  0  0  0  0  0
  185.5040  177.8730  135.1980 C   0  0  0  0  0  1  0  0  0  0  0  0
  183.8870  177.3160  137.9100 C   0  0  2  0  0  3  0  0  0  0  0  0
  185.2950  175.5990  136.0990 O   0  0  0  0  0  0  0  0  0  0  0  0
  185.8070  176.8990  136.3340 C   0  0  2  0  0  3  0  0  0  0  0  0
  179.2810  178.2330  141.6060 C   0  0  0  0  0  1  0  0  0  0  0  0
  180.2570  179.1320  141.0130 N   0  0  0  0  0  0  0  0  0  0  0  0
  179.9660  180.5570  140.9680 C   0  0  0  0  0  2  0  0  0  0  0  0
  179.6750  181.0200  142.2370 F   0  0  0  0  0  0  0  0  0  0  0  0
  181.0100  178.2830  138.3720 N   0  0  0  0  0  0  0  0  0  0  0  0
  179.0400  177.0430  138.1550 C   0  0  0  0  0  2  0  0  0  0  0  0
  179.9350  176.3180  139.0430 C   0  0  1  0  0  3  0  0  0  0  0  0
  179.8960  174.8430  138.7050 C   0  0  0  0  0  1  0  0  0  0  0  0
  180.4910  177.0600  137.8950 N   0  0  0  0  0  0  0  0  0  0  0  0
  180.3860  179.5430  137.9520 C   0  0  1  0  0  3  0  0  0  0  0  0
  181.3810  180.5190  137.7470 O   0  0  0  0  0  0  0  0  0  0  0  0
  180.8290  179.9360  136.5930 C   0  0  0  0  0  2  0  0  0  0  0  0
  1  2  2  0  0  0  0
  1  3  1  0  0  0  0
  2  8  1  0  0  0  0
  3  7  2  0  0  0  0
  4 10  1  0  0  0  0
  5  4  1  0  0  0  0
  6 10  1  0  0  0  0
  7  5  1  0  0  0  0
  7  6  1  0  0  0  0
  8 20  1  0  0  0  0
  8  5  2  0  0  0  0
 10  9  1  6  0  0  0
 11 16  1  0  0  0  0
 11 13  1  1  0  0  0
 12 17  1  0  0  0  0
 12 11  1  0  0  0  0
 14 16  1  0  0  0  0
 16  1  1  1  0  0  0
 17 18  1  0  0  0  0
 18 15  1  6  0  0  0
 18 14  1  0  0  0  0
 20 19  1  0  0  0  0
 21 20  1  0  0  0  0
 21 22  1  0  0  0  0
 23  2  1  0  0  0  0
 24 25  1  0  0  0  0
 25 26  1  6  0  0  0
 27 24  1  0  0  0  0
 27 23  1  0  0  0  0
 27 25  1  0  0  0  0
 28 23  1  1  0  0  0
 29 28  1  0  0  0  0
 30 29  1  0  0  0  0
 30 28  1  0  0  0  0
M  END
>  <MODEL>
8

>  <REMARK>
 VINA RESULT:      -4.0      2.670      5.676
  Name = 
  6 active torsions:
  status: ('A' for Active; 'I' for Inactive)
    1  A    between atoms: C_1  and  C_22
    2  A    between atoms: C_4  and  N_23
    3  A    between atoms: C_7  and  N_30
    4  A    between atoms: C_10  and  N_23
    5  A    between atoms: C_13  and  N_30
    6  A    between atoms: N_23  and  N_25
                            x       y       z     vdW  Elec       q    Type
                         _______ _______ _______ _____ _____    ______ ____

>  <TORSDO>
F 6

$$$$
=
 OpenBabel10262421443D

 30 34  0  0  1  0  0  0  0  0999 V2000
  183.2440  177.6410  138.6430 C   0  0  0  0  0  0  0  0  0  0  0  0
  181.9200  178.1860  138.7600 C   0  0  0  0  0  0  0  0  0  0  0  0
  184.0650  177.5690  139.7820 C   0  0  0  0  0  3  0  0  0  0  0  0
  182.0800  178.9000  142.5490 C   0  0  0  0  0  2  0  0  0  0  0  0
  182.3110  178.4970  141.1340 C   0  0  0  0  0  0  0  0  0  0  0  0
  184.2490  178.0170  142.2000 O   0  0  0  0  0  0  0  0  0  0  0  0
  183.5720  178.0070  141.0020 C   0  0  0  0  0  0  0  0  0  0  0  0
  181.4500  178.6040  140.0360 C   0  0  0  0  0  0  0  0  0  0  0  0
  184.0450  179.7880  143.8140 C   0  0  0  0  0  1  0  0  0  0  0  0
  183.4150  178.5390  143.2310 C   0  0  1  0  0  3  0  0  0  0  0  0
  183.4760  175.6570  137.0460 C   0  0  1  0  0  3  0  0  0  0  0  0
  184.0840  175.2780  135.6980 C   0  0  0  0  0  2  0  0  0  0  0  0
  183.9160  174.7710  138.0310 O   0  0  0  0  0  1  0  0  0  0  0  0
  185.3420  177.4120  137.1430 C   0  0  0  0  0  2  0  0  0  0  0  0
  185.3940  177.6170  134.6080 C   0  0  0  0  0  1  0  0  0  0  0  0
  183.8640  177.1010  137.3770 C   0  0  2  0  0  3  0  0  0  0  0  0
  185.4900  175.4270  135.7130 O   0  0  0  0  0  0  0  0  0  0  0  0
  185.8230  176.8000  135.8240 C   0  0  2  0  0  3  0  0  0  0  0  0
  179.0770  178.3280  140.7750 C   0  0  0  0  0  1  0  0  0  0  0  0
  180.1340  179.1480  140.2050 N   0  0  0  0  0  0  0  0  0  0  0  0
  179.9250  180.5820  140.0850 C   0  0  0  0  0  2  0  0  0  0  0  0
  181.1010  181.2010  139.7040 F   0  0  0  0  0  0  0  0  0  0  0  0
  181.0240  178.2420  137.6270 N   0  0  0  0  0  0  0  0  0  0  0  0
  180.2640  176.1060  138.1960 C   0  0  0  0  0  2  0  0  0  0  0  0
  180.2260  176.2270  136.7480 C   0  0  1  0  0  3  0  0  0  0  0  0
  178.9450  175.6160  136.2230 C   0  0  0  0  0  1  0  0  0  0  0  0
  179.8940  177.3960  137.5860 N   0  0  0  0  0  0  0  0  0  0  0  0
  181.1500  179.3250  136.6450 C   0  0  1  0  0  3  0  0  0  0  0  0
  180.0820  179.2580  135.7280 O   0  0  0  0  0  0  0  0  0  0  0  0
  179.9960  180.2530  136.7170 C   0  0  0  0  0  2  0  0  0  0  0  0
  1  2  2  0  0  0  0
  1  3  1  0  0  0  0
  2  8  1  0  0  0  0
  3  7  2  0  0  0  0
  4 10  1  0  0  0  0
  5  4  1  0  0  0  0
  6 10  1  0  0  0  0
  7  5  1  0  0  0  0
  7  6  1  0  0  0  0
  8 20  1  0  0  0  0
  8  5  2  0  0  0  0
 10  9  1  6  0  0  0
 11 16  1  0  0  0  0
 11 13  1  1  0  0  0
 12 17  1  0  0  0  0
 12 11  1  0  0  0  0
 14 16  1  0  0  0  0
 16  1  1  1  0  0  0
 17 18  1  0  0  0  0
 18 15  1  6  0  0  0
 18 14  1  0  0  0  0
 20 19  1  0  0  0  0
 21 20  1  0  0  0  0
 22 21  1  0  0  0  0
 23  2  1  0  0  0  0
 25 26  1  1  0  0  0
 25 27  1  0  0  0  0
 25 24  1  0  0  0  0
 27 23  1  0  0  0  0
 27 24  1  0  0  0  0
 28 30  1  0  0  0  0
 28 23  1  1  0  0  0
 29 28  1  0  0  0  0
 29 30  1  0  0  0  0
M  END
>  <MODEL>
9

>  <REMARK>
 VINA RESULT:      -3.7      2.622      5.756
  Name = 
  6 active torsions:
  status: ('A' for Active; 'I' for Inactive)
    1  A    between atoms: C_1  and  C_22
    2  A    between atoms: C_4  and  N_23
    3  A    between atoms: C_7  and  N_30
    4  A    between atoms: C_10  and  N_23
    5  A    between atoms: C_13  and  N_30
    6  A    between atoms: N_23  and  N_25
                            x       y       z     vdW  Elec       q    Type
                         _______ _______ _______ _____ _____    ______ ____

>  <TORSDO>
F 6

$$$$
