=
 OpenBabel10262420393D

 55 59  0  0  1  0  0  0  0  0999 V2000
  186.0180  178.6230  139.5780 O   0  0  0  0  0  0  0  0  0  0  0  0
  184.0440  179.0270  140.7690 N   0  0  0  0  0  0  0  0  0  0  0  0
  185.0910  179.1020  138.6490 C   0  0  0  0  0  2  0  0  0  0  0  0
  185.2450  178.2080  140.6750 C   0  0  2  0  0  3  0  0  0  0  0  0
  183.8570  179.5050  139.4120 C   0  0  0  0  0  2  0  0  0  0  0  0
  182.9390  178.1350  141.0920 C   0  0  0  0  0  2  0  0  0  0  0  0
  181.7960  178.3210  140.0990 C   0  0  0  0  0  2  0  0  0  0  0  0
  182.3200  175.9000  139.5680 C   0  0  0  0  0  1  0  0  0  0  0  0
  181.2440  176.9800  139.6190 C   0  0  2  0  0  3  0  0  0  0  0  0
  180.5690  177.1380  138.2580 C   0  0  0  0  0  2  0  0  0  0  0  0
  181.4720  177.8280  137.2420 C   0  0  0  0  0  2  0  0  0  0  0  0
  179.7640  177.6560  135.1710 O   0  0  0  0  0  0  0  0  0  0  0  0
  181.1390  177.2270  135.6010 S   0  0  0  0  0  0  0  0  0  0  0  0
  182.1520  177.7890  134.6470 O   0  0  0  0  0  0  0  0  0  0  0  0
  182.4070  174.7940  136.0000 C   0  0  0  0  0  0  0  0  0  0  0  0
  183.4390  175.4380  136.3260 O   0  0  0  0  0  0  0  0  0  0  0  0
  181.2350  175.4980  135.5770 N   0  0  0  0  0  2  0  0  0  0  0  0
  182.4460  173.2740  135.9410 C   0  0  2  0  0  0  0  0  0  0  0  0
  183.2080  170.7560  136.7690 O   0  0  0  0  0  1  0  0  0  0  0  0
  184.4610  172.7890  137.2690 C   0  0  1  0  0  3  0  0  0  0  0  0
  185.4300  170.9660  135.6550 C   0  0  0  0  0  1  0  0  0  0  0  0
  184.2790  171.5910  136.4330 C   0  0  1  0  0  0  0  0  0  0  0  0
  185.8830  173.3270  137.2700 C   0  0  0  0  0  1  0  0  0  0  0  0
  183.8920  172.9220  135.9040 N   0  0  0  0  0  0  0  0  0  0  0  0
  180.4150  172.3720  134.6730 C   0  0  0  0  0  2  0  0  0  0  0  0
  181.4490  171.4190  134.6690 O   0  0  0  0  0  0  0  0  0  0  0  0
  181.8420  172.7710  134.5960 C   0  0  2  0  0  3  0  0  0  0  0  0
  181.7910  172.7010  137.0770 O   0  0  0  0  0  0  0  0  0  0  0  0
  180.9810  173.6040  137.6020 O   0  0  0  0  0  1  0  0  0  0  0  0
  186.0640  178.2560  141.9680 C   0  0  1  0  0  3  0  0  0  0  0  0
  187.3640  178.6780  141.6730 O   0  0  0  0  0  0  0  0  0  0  0  0
  191.2650  179.3670  144.0260 C   0  0  0  0  0  1  0  0  0  0  0  0
  190.8250  177.0700  143.4110 C   0  0  2  0  0  3  0  0  0  0  0  0
  190.5010  178.4890  143.1510 N   0  0  0  0  0  0  0  0  0  0  0  0
  189.0160  176.8680  141.5880 C   0  0  1  0  0  3  0  0  0  0  0  0
  189.9990  176.1240  142.5210 C   0  0  0  0  0  2  0  0  0  0  0  0
  189.0770  178.7470  143.3600 C   0  0  0  0  0  2  0  0  0  0  0  0
  188.2040  177.8700  142.4480 C   0  0  1  0  0  3  0  0  0  0  0  0
  190.9570  176.8610  140.1470 C   0  0  0  0  0  2  0  0  0  0  0  0
  188.8960  177.3410  139.2610 C   0  0  0  0  0  2  0  0  0  0  0  0
  189.8370  177.3310  138.0790 C   0  0  0  0  0  2  0  0  0  0  0  0
  191.1810  176.9560  138.6540 C   0  0  2  0  0  3  0  0  0  0  0  0
  189.7000  177.5390  140.4620 N   0  0  1  0  0  0  0  0  0  0  0  0
  191.6000  175.6900  138.1610 O   0  0  0  0  0  0  0  0  0  0  0  0
  192.9140  175.4360  137.7630 C   0  0  0  0  0  0  0  0  0  0  0  0
  193.7410  176.5200  137.3550 N   0  0  0  0  0  1  0  0  0  0  0  0
  193.3750  174.2620  137.7550 O   0  0  0  0  0  0  0  0  0  0  0  0
  189.5550  176.6870  145.4020 O   0  0  0  0  0  0  0  0  0  0  0  0
  190.6890  176.6680  144.8550 C   0  0  0  0  0  0  0  0  0  0  0  0
  191.7980  176.2590  145.5860 O   0  0  0  0  0  1  0  0  0  0  0  0
  185.4480  179.1970  143.0020 C   0  0  0  0  0  2  0  0  0  0  0  0
  183.7060  179.2310  144.7530 C   0  0  0  0  0  1  0  0  0  0  0  0
  184.8280  178.4100  144.1450 C   0  0  2  0  0  3  0  0  0  0  0  0
  185.8810  178.1110  145.2010 C   0  0  0  0  0  2  0  0  0  0  0  0
  185.4060  178.5620  146.5690 C   0  0  0  0  0  1  0  0  0  0  0  0
  1  4  1  0  0  0  0
  2  6  1  0  0  0  0
  3  5  1  0  0  0  0
  3  1  1  0  0  0  0
  4  2  1  0  0  0  0
  4 30  1  1  0  0  0
  5  2  1  0  0  0  0
  7  6  1  0  0  0  0
  9  8  1  6  0  0  0
  9  7  1  0  0  0  0
 10  9  1  0  0  0  0
 11 10  1  0  0  0  0
 12 13  2  0  0  0  0
 13 11  1  0  0  0  0
 14 13  2  0  0  0  0
 15 16  2  0  0  0  0
 17 13  1  0  0  0  0
 17 15  1  0  0  0  0
 18 15  1  1  0  0  0
 18 28  1  0  0  0  0
 20 23  1  6  0  0  0
 22 21  1  6  0  0  0
 22 19  1  0  0  0  0
 22 20  1  0  0  0  0
 24 18  1  0  0  0  0
 24 22  1  0  0  0  0
 24 20  1  0  0  0  0
 26 25  1  0  0  0  0
 27 26  1  0  0  0  0
 27 25  1  0  0  0  0
 27 18  1  1  0  0  0
 28 29  1  0  0  0  0
 30 51  1  1  0  0  0
 31 30  1  0  0  0  0
 33 49  1  1  0  0  0
 34 37  1  0  0  0  0
 34 33  1  0  0  0  0
 34 32  1  0  0  0  0
 35 38  1  0  0  0  0
 35 36  1  1  0  0  0
 36 33  1  0  0  0  0
 38 31  1  6  0  0  0
 38 37  1  0  0  0  0
 39 43  1  0  0  0  0
 41 42  1  0  0  0  0
 41 40  1  0  0  0  0
 42 44  1  6  0  0  0
 42 39  1  0  0  0  0
 43 40  1  6  0  0  0
 43 35  1  0  0  0  0
 45 44  1  0  0  0  0
 46 45  1  0  0  0  0
 47 45  2  0  0  0  0
 49 48  2  0  0  0  0
 49 50  1  0  0  0  0
 51 53  1  0  0  0  0
 53 52  1  1  0  0  0
 53 54  1  0  0  0  0
 54 55  1  0  0  0  0
M  END
>  <MODEL>
1

>  <REMARK>
 VINA RESULT:      -6.6      0.000      0.000
  Name = 
  21 active torsions:
  status: ('A' for Active; 'I' for Inactive)
    1  A    between atoms: C_1  and  C_21
    2  A    between atoms: C_1  and  O_29
    3  A    between atoms: C_1  and  C_38
    4  A    between atoms: C_1  and  N_53
    5  A    between atoms: C_2  and  C_19
    6  A    between atoms: C_2  and  O_28
    7  A    between atoms: C_2  and  C_44
    8  A    between atoms: C_4  and  C_40
    9  A    between atoms: C_8  and  S_20
   10  A    between atoms: C_8  and  C_43
   11  A    between atoms: C_10  and  O_32
   12  A    between atoms: C_16  and  C_17
   13  A    between atoms: C_19  and  C_40
   14  A    between atoms: S_20  and  N_42
   15  A    between atoms: N_27  and  C_31
   16  A    between atoms: O_28  and  C_49
   17  A    between atoms: C_31  and  C_54
   18  A    between atoms: O_32  and  C_48
   19  A    between atoms: C_33  and  N_52
   20  A    between atoms: C_43  and  C_51
   21  A    between atoms: C_51  and  C_54
                            x       y       z     vdW  Elec       q    Type
                         _______ _______ _______ _____ _____    ______ ____

>  <TORSDO>
F 21

$$$$
=
 OpenBabel10262420393D

 55 59  0  0  1  0  0  0  0  0999 V2000
  187.1690  177.8510  143.6670 O   0  0  0  0  0  0  0  0  0  0  0  0
  188.0790  178.5450  141.6250 N   0  0  0  0  0  0  0  0  0  0  0  0
  188.5430  177.6110  143.7480 C   0  0  0  0  0  2  0  0  0  0  0  0
  186.9090  177.9900  142.2930 C   0  0  2  0  0  3  0  0  0  0  0  0
  189.1730  178.1790  142.5040 C   0  0  0  0  0  2  0  0  0  0  0  0
  188.2430  177.8210  140.3720 C   0  0  0  0  0  2  0  0  0  0  0  0
  189.6140  178.1050  139.7670 C   0  0  0  0  0  2  0  0  0  0  0  0
  191.9970  177.4300  140.2990 C   0  0  0  0  0  1  0  0  0  0  0  0
  190.5820  176.9470  139.9980 C   0  0  2  0  0  3  0  0  0  0  0  0
  190.5750  175.9990  138.8000 C   0  0  0  0  0  2  0  0  0  0  0  0
  191.3680  176.5520  137.6220 C   0  0  0  0  0  2  0  0  0  0  0  0
  190.5080  174.2380  136.5560 O   0  0  0  0  0  0  0  0  0  0  0  0
  191.5230  175.3260  136.3430 S   0  0  0  0  0  0  0  0  0  0  0  0
  191.2870  175.9650  135.0050 O   0  0  0  0  0  0  0  0  0  0  0  0
  194.2880  175.4360  136.1740 C   0  0  0  0  0  0  0  0  0  0  0  0
  194.1750  176.6570  135.8870 O   0  0  0  0  0  0  0  0  0  0  0  0
  193.1130  174.6430  136.3720 N   0  0  0  0  0  2  0  0  0  0  0  0
  195.6620  174.7820  136.1910 C   0  0  2  0  0  0  0  0  0  0  0  0
  197.2860  172.9340  137.4360 O   0  0  0  0  0  1  0  0  0  0  0  0
  195.6460  174.3100  138.6070 C   0  0  1  0  0  3  0  0  0  0  0  0
  198.2170  174.6600  138.9780 C   0  0  0  0  0  1  0  0  0  0  0  0
  197.0420  174.0800  138.2000 C   0  0  1  0  0  0  0  0  0  0  0  0
  195.5030  175.1710  139.8530 C   0  0  0  0  0  1  0  0  0  0  0  0
  196.2410  175.1270  137.5180 N   0  0  0  0  0  0  0  0  0  0  0  0
  198.0230  175.0940  135.2570 C   0  0  0  0  0  2  0  0  0  0  0  0
  197.5190  176.3240  135.7160 O   0  0  0  0  0  0  0  0  0  0  0  0
  196.5880  175.4450  135.1280 C   0  0  2  0  0  3  0  0  0  0  0  0
  195.5570  173.3660  136.0110 O   0  0  0  0  0  0  0  0  0  0  0  0
  195.3220  173.1160  134.7350 O   0  0  0  0  0  1  0  0  0  0  0  0
  185.6640  178.8490  142.0570 C   0  0  1  0  0  3  0  0  0  0  0  0
  184.5860  178.0180  141.7380 O   0  0  0  0  0  0  0  0  0  0  0  0
  180.1490  177.5830  140.5730 C   0  0  0  0  0  1  0  0  0  0  0  0
  181.3660  179.2970  139.3770 C   0  0  2  0  0  3  0  0  0  0  0  0
  181.4690  178.0790  140.2070 N   0  0  0  0  0  0  0  0  0  0  0  0
  183.9180  179.0390  139.6110 C   0  0  1  0  0  3  0  0  0  0  0  0
  182.7520  179.8580  139.0120 C   0  0  0  0  0  2  0  0  0  0  0  0
  182.2220  178.3440  141.4330 C   0  0  0  0  0  2  0  0  0  0  0  0
  183.6420  178.8490  141.1250 C   0  0  1  0  0  3  0  0  0  0  0  0
  183.1390  177.5810  137.8480 C   0  0  0  0  0  2  0  0  0  0  0  0
  185.3930  177.8010  138.2160 C   0  0  0  0  0  2  0  0  0  0  0  0
  185.2810  176.9090  137.0030 C   0  0  0  0  0  2  0  0  0  0  0  0
  183.8000  176.8130  136.7240 C   0  0  2  0  0  3  0  0  0  0  0  0
  184.1170  177.7460  138.9220 N   0  0  1  0  0  0  0  0  0  0  0  0
  183.4840  177.4320  135.4840 O   0  0  0  0  0  0  0  0  0  0  0  0
  182.1810  177.4880  134.9840 C   0  0  0  0  0  0  0  0  0  0  0  0
  181.6360  178.7430  134.5970 N   0  0  0  0  0  1  0  0  0  0  0  0
  181.4820  176.4440  134.8780 O   0  0  0  0  0  0  0  0  0  0  0  0
  180.4370  180.4790  141.2380 O   0  0  0  0  0  1  0  0  0  0  0  0
  180.5160  180.3800  139.9850 C   0  0  0  0  0  0  0  0  0  0  0  0
  179.8330  181.2840  139.1800 O   0  0  0  0  0  0  0  0  0  0  0  0
  185.3100  179.6920  143.2810 C   0  0  0  0  0  2  0  0  0  0  0  0
  183.3110  179.0430  144.5780 C   0  0  0  0  0  1  0  0  0  0  0  0
  184.8020  178.8140  144.4120 C   0  0  2  0  0  3  0  0  0  0  0  0
  185.5250  179.1630  145.7050 C   0  0  0  0  0  2  0  0  0  0  0  0
  185.6090  177.9510  146.6120 C   0  0  0  0  0  1  0  0  0  0  0  0
  1  3  1  0  0  0  0
  2  4  1  0  0  0  0
  2  5  1  0  0  0  0
  4 30  1  1  0  0  0
  4  1  1  0  0  0  0
  5  3  1  0  0  0  0
  6  2  1  0  0  0  0
  7  9  1  0  0  0  0
  7  6  1  0  0  0  0
  9  8  1  6  0  0  0
 10  9  1  0  0  0  0
 11 10  1  0  0  0  0
 13 17  1  0  0  0  0
 13 12  2  0  0  0  0
 13 11  1  0  0  0  0
 14 13  2  0  0  0  0
 15 18  1  0  0  0  0
 15 17  1  0  0  0  0
 16 15  2  0  0  0  0
 18 28  1  6  0  0  0
 18 24  1  0  0  0  0
 19 22  1  0  0  0  0
 20 23  1  1  0  0  0
 22 20  1  0  0  0  0
 22 21  1  1  0  0  0
 24 22  1  0  0  0  0
 24 20  1  0  0  0  0
 25 26  1  0  0  0  0
 27 25  1  0  0  0  0
 27 26  1  0  0  0  0
 27 18  1  1  0  0  0
 29 28  1  0  0  0  0
 30 51  1  1  0  0  0
 31 30  1  0  0  0  0
 33 49  1  1  0  0  0
 33 34  1  0  0  0  0
 34 32  1  0  0  0  0
 34 37  1  0  0  0  0
 35 36  1  6  0  0  0
 35 38  1  0  0  0  0
 36 33  1  0  0  0  0
 38 37  1  0  0  0  0
 38 31  1  6  0  0  0
 40 43  1  0  0  0  0
 41 40  1  0  0  0  0
 42 44  1  6  0  0  0
 42 41  1  0  0  0  0
 42 39  1  0  0  0  0
 43 39  1  6  0  0  0
 43 35  1  0  0  0  0
 45 44  1  0  0  0  0
 46 45  1  0  0  0  0
 47 45  2  0  0  0  0
 49 48  1  0  0  0  0
 50 49  2  0  0  0  0
 51 53  1  0  0  0  0
 53 52  1  1  0  0  0
 53 54  1  0  0  0  0
 54 55  1  0  0  0  0
M  END
>  <MODEL>
2

>  <REMARK>
 VINA RESULT:      -5.2      3.271      9.913
  Name = 
  21 active torsions:
  status: ('A' for Active; 'I' for Inactive)
    1  A    between atoms: C_1  and  C_21
    2  A    between atoms: C_1  and  O_29
    3  A    between atoms: C_1  and  C_38
    4  A    between atoms: C_1  and  N_53
    5  A    between atoms: C_2  and  C_19
    6  A    between atoms: C_2  and  O_28
    7  A    between atoms: C_2  and  C_44
    8  A    between atoms: C_4  and  C_40
    9  A    between atoms: C_8  and  S_20
   10  A    between atoms: C_8  and  C_43
   11  A    between atoms: C_10  and  O_32
   12  A    between atoms: C_16  and  C_17
   13  A    between atoms: C_19  and  C_40
   14  A    between atoms: S_20  and  N_42
   15  A    between atoms: N_27  and  C_31
   16  A    between atoms: O_28  and  C_49
   17  A    between atoms: C_31  and  C_54
   18  A    between atoms: O_32  and  C_48
   19  A    between atoms: C_33  and  N_52
   20  A    between atoms: C_43  and  C_51
   21  A    between atoms: C_51  and  C_54
                            x       y       z     vdW  Elec       q    Type
                         _______ _______ _______ _____ _____    ______ ____

>  <TORSDO>
F 21

$$$$
=
 OpenBabel10262420393D

 55 59  0  0  1  0  0  0  0  0999 V2000
  183.8250  177.2990  135.5170 O   0  0  0  0  0  0  0  0  0  0  0  0
  185.5350  175.7120  135.7150 N   0  0  0  0  0  0  0  0  0  0  0  0
  184.8120  177.6680  134.5980 C   0  0  0  0  0  2  0  0  0  0  0  0
  184.4740  176.4290  136.4100 C   0  0  2  0  0  3  0  0  0  0  0  0
  185.8580  176.5850  134.6030 C   0  0  0  0  0  2  0  0  0  0  0  0
  186.6840  175.6720  136.6090 C   0  0  0  0  0  2  0  0  0  0  0  0
  187.6860  176.7600  136.2380 C   0  0  0  0  0  2  0  0  0  0  0  0
  189.6060  175.3400  135.3910 C   0  0  0  0  0  1  0  0  0  0  0  0
  189.1250  176.3030  136.4720 C   0  0  2  0  0  3  0  0  0  0  0  0
  189.2670  175.6780  137.8590 C   0  0  0  0  0  2  0  0  0  0  0  0
  190.2590  176.4350  138.7340 C   0  0  0  0  0  2  0  0  0  0  0  0
  189.6080  178.9220  139.5230 O   0  0  0  0  0  0  0  0  0  0  0  0
  189.4010  177.4790  139.8910 S   0  0  0  0  0  0  0  0  0  0  0  0
  187.9330  177.1670  139.8550 O   0  0  0  0  0  0  0  0  0  0  0  0
  189.2630  177.5800  142.6580 C   0  0  0  0  0  0  0  0  0  0  0  0
  188.1790  178.2080  142.5350 O   0  0  0  0  0  0  0  0  0  0  0  0
  190.0010  177.2020  141.4910 N   0  0  0  0  0  2  0  0  0  0  0  0
  189.8440  177.3310  144.0410 C   0  0  2  0  0  0  0  0  0  0  0  0
  190.1260  176.7680  146.7270 O   0  0  0  0  0  1  0  0  0  0  0  0
  187.9800  176.8220  145.5660 C   0  0  1  0  0  3  0  0  0  0  0  0
  188.5900  178.6260  147.3670 C   0  0  0  0  0  1  0  0  0  0  0  0
  188.9730  177.4980  146.4180 C   0  0  1  0  0  0  0  0  0  0  0  0
  186.5660  177.3600  145.7250 C   0  0  0  0  0  1  0  0  0  0  0  0
  188.8430  177.8860  144.9910 N   0  0  0  0  0  0  0  0  0  0  0  0
  190.9690  179.6290  144.0380 C   0  0  0  0  0  2  0  0  0  0  0  0
  191.5430  178.8090  143.0500 O   0  0  0  0  0  0  0  0  0  0  0  0
  191.1430  178.1690  144.2400 C   0  0  2  0  0  3  0  0  0  0  0  0
  190.0640  175.9330  144.2600 O   0  0  0  0  0  0  0  0  0  0  0  0
  191.0700  175.5360  143.5010 O   0  0  0  0  0  1  0  0  0  0  0  0
  183.4730  175.4680  137.0580 C   0  0  1  0  0  3  0  0  0  0  0  0
  182.2270  176.0950  137.1500 O   0  0  0  0  0  0  0  0  0  0  0  0
  179.8160  176.7490  141.0210 C   0  0  0  0  0  1  0  0  0  0  0  0
  181.1590  178.6320  140.3130 C   0  0  2  0  0  3  0  0  0  0  0  0
  180.5340  177.3550  139.9080 N   0  0  0  0  0  0  0  0  0  0  0  0
  181.9370  178.4220  137.8670 C   0  0  1  0  0  3  0  0  0  0  0  0
  181.9550  179.2690  139.1600 C   0  0  0  0  0  2  0  0  0  0  0  0
  181.5420  176.4070  139.4350 C   0  0  0  0  0  2  0  0  0  0  0  0
  182.3280  176.9690  138.2380 C   0  0  1  0  0  3  0  0  0  0  0  0
  179.8010  179.5460  137.7240 C   0  0  0  0  0  2  0  0  0  0  0  0
  180.8730  178.9120  135.7970 C   0  0  0  0  0  2  0  0  0  0  0  0
  179.6430  179.6570  135.3330 C   0  0  0  0  0  2  0  0  0  0  0  0
  178.9700  180.1260  136.6000 C   0  0  2  0  0  3  0  0  0  0  0  0
  180.6340  178.4790  137.1700 N   0  0  1  0  0  0  0  0  0  0  0  0
  178.9940  181.5450  136.6830 O   0  0  0  0  0  0  0  0  0  0  0  0
  179.7590  182.2280  137.6320 C   0  0  0  0  0  0  0  0  0  0  0  0
  179.1490  182.6530  138.8450 N   0  0  0  0  0  1  0  0  0  0  0  0
  180.9780  182.4770  137.4250 O   0  0  0  0  0  0  0  0  0  0  0  0
  183.1520  177.9700  141.4600 O   0  0  0  0  0  0  0  0  0  0  0  0
  182.0250  178.5260  141.5400 C   0  0  0  0  0  0  0  0  0  0  0  0
  181.6030  179.0510  142.7550 O   0  0  0  0  0  1  0  0  0  0  0  0
  183.3310  174.1690  136.2670 C   0  0  0  0  0  2  0  0  0  0  0  0
  184.2650  171.9140  136.6410 C   0  0  0  0  0  1  0  0  0  0  0  0
  183.3270  172.9690  137.1990 C   0  0  2  0  0  3  0  0  0  0  0  0
  181.9200  172.4020  137.3100 C   0  0  0  0  0  2  0  0  0  0  0  0
  180.9950  173.0740  136.3130 C   0  0  0  0  0  1  0  0  0  0  0  0
  1  4  1  0  0  0  0
  2  4  1  0  0  0  0
  2  6  1  0  0  0  0
  3  5  1  0  0  0  0
  3  1  1  0  0  0  0
  4 30  1  6  0  0  0
  5  2  1  0  0  0  0
  7  9  1  0  0  0  0
  7  6  1  0  0  0  0
  9  8  1  6  0  0  0
  9 10  1  0  0  0  0
 10 11  1  0  0  0  0
 11 13  1  0  0  0  0
 12 13  2  0  0  0  0
 13 17  1  0  0  0  0
 14 13  2  0  0  0  0
 16 15  2  0  0  0  0
 17 15  1  0  0  0  0
 18 15  1  6  0  0  0
 18 28  1  0  0  0  0
 18 24  1  0  0  0  0
 20 23  1  1  0  0  0
 20 22  1  0  0  0  0
 22 19  1  0  0  0  0
 22 21  1  1  0  0  0
 24 20  1  0  0  0  0
 24 22  1  0  0  0  0
 25 27  1  0  0  0  0
 26 25  1  0  0  0  0
 26 27  1  0  0  0  0
 27 18  1  6  0  0  0
 29 28  1  0  0  0  0
 30 51  1  6  0  0  0
 30 31  1  0  0  0  0
 33 49  1  1  0  0  0
 34 33  1  0  0  0  0
 34 32  1  0  0  0  0
 35 38  1  0  0  0  0
 35 36  1  1  0  0  0
 36 33  1  0  0  0  0
 37 34  1  0  0  0  0
 38 31  1  6  0  0  0
 38 37  1  0  0  0  0
 41 40  1  0  0  0  0
 41 42  1  0  0  0  0
 42 44  1  1  0  0  0
 42 39  1  0  0  0  0
 43 40  1  6  0  0  0
 43 39  1  0  0  0  0
 43 35  1  0  0  0  0
 44 45  1  0  0  0  0
 45 46  1  0  0  0  0
 47 45  2  0  0  0  0
 48 49  2  0  0  0  0
 49 50  1  0  0  0  0
 51 53  1  0  0  0  0
 53 52  1  6  0  0  0
 53 54  1  0  0  0  0
 55 54  1  0  0  0  0
M  END
>  <MODEL>
3

>  <REMARK>
 VINA RESULT:      -4.7      2.983     10.500
  Name = 
  21 active torsions:
  status: ('A' for Active; 'I' for Inactive)
    1  A    between atoms: C_1  and  C_21
    2  A    between atoms: C_1  and  O_29
    3  A    between atoms: C_1  and  C_38
    4  A    between atoms: C_1  and  N_53
    5  A    between atoms: C_2  and  C_19
    6  A    between atoms: C_2  and  O_28
    7  A    between atoms: C_2  and  C_44
    8  A    between atoms: C_4  and  C_40
    9  A    between atoms: C_8  and  S_20
   10  A    between atoms: C_8  and  C_43
   11  A    between atoms: C_10  and  O_32
   12  A    between atoms: C_16  and  C_17
   13  A    between atoms: C_19  and  C_40
   14  A    between atoms: S_20  and  N_42
   15  A    between atoms: N_27  and  C_31
   16  A    between atoms: O_28  and  C_49
   17  A    between atoms: C_31  and  C_54
   18  A    between atoms: O_32  and  C_48
   19  A    between atoms: C_33  and  N_52
   20  A    between atoms: C_43  and  C_51
   21  A    between atoms: C_51  and  C_54
                            x       y       z     vdW  Elec       q    Type
                         _______ _______ _______ _____ _____    ______ ____

>  <TORSDO>
F 21

$$$$
=
 OpenBabel10262420393D

 55 59  0  0  1  0  0  0  0  0999 V2000
  186.8210  178.4880  136.6190 O   0  0  0  0  0  0  0  0  0  0  0  0
  188.3810  176.7740  136.9470 N   0  0  0  0  0  0  0  0  0  0  0  0
  188.0700  179.1070  136.7090 C   0  0  0  0  0  2  0  0  0  0  0  0
  187.0100  177.2130  137.1780 C   0  0  2  0  0  3  0  0  0  0  0  0
  189.1070  178.0180  136.7780 C   0  0  0  0  0  2  0  0  0  0  0  0
  188.8420  176.1430  138.1770 C   0  0  0  0  0  2  0  0  0  0  0  0
  190.3460  175.8950  138.1150 C   0  0  0  0  0  2  0  0  0  0  0  0
  192.6310  176.7960  138.7360 C   0  0  0  0  0  1  0  0  0  0  0  0
  191.1220  176.9420  138.9110 C   0  0  2  0  0  3  0  0  0  0  0  0
  190.7390  176.8810  140.3890 C   0  0  0  0  0  2  0  0  0  0  0  0
  189.2570  176.5880  140.5890 C   0  0  0  0  0  2  0  0  0  0  0  0
  188.5130  179.1720  140.6380 O   0  0  0  0  0  0  0  0  0  0  0  0
  188.4700  177.9190  141.4680 S   0  0  0  0  0  0  0  0  0  0  0  0
  187.0390  177.5610  141.7450 O   0  0  0  0  0  0  0  0  0  0  0  0
  189.7160  177.1220  143.8130 C   0  0  0  0  0  0  0  0  0  0  0  0
  189.4290  175.9350  143.5070 O   0  0  0  0  0  0  0  0  0  0  0  0
  189.2860  178.1960  142.9700 N   0  0  0  0  0  2  0  0  0  0  0  0
  190.4130  177.4200  145.1320 C   0  0  2  0  0  0  0  0  0  0  0  0
  189.6530  176.2380  147.5060 O   0  0  0  0  0  1  0  0  0  0  0  0
  188.1050  177.3550  145.9860 C   0  0  1  0  0  3  0  0  0  0  0  0
  188.6490  178.3620  148.3430 C   0  0  0  0  0  1  0  0  0  0  0  0
  188.9400  177.4020  147.1980 C   0  0  1  0  0  0  0  0  0  0  0  0
  186.9520  178.3470  145.9960 C   0  0  0  0  0  1  0  0  0  0  0  0
  189.3880  178.1030  145.9680 N   0  0  0  0  0  0  0  0  0  0  0  0
  191.2060  179.5810  144.0160 C   0  0  0  0  0  2  0  0  0  0  0  0
  191.9830  178.4960  143.5730 O   0  0  0  0  0  0  0  0  0  0  0  0
  191.5570  178.4550  144.9160 C   0  0  2  0  0  3  0  0  0  0  0  0
  190.8810  176.2150  145.7470 O   0  0  0  0  0  0  0  0  0  0  0  0
  192.0550  176.4510  146.3070 O   0  0  0  0  0  1  0  0  0  0  0  0
  185.9950  176.2150  136.6150 C   0  0  1  0  0  3  0  0  0  0  0  0
  184.7610  176.8520  136.4600 O   0  0  0  0  0  0  0  0  0  0  0  0
  180.2120  176.3700  135.9100 C   0  0  0  0  0  1  0  0  0  0  0  0
  181.1420  175.2450  137.8380 C   0  0  2  0  0  3  0  0  0  0  0  0
  181.3530  176.2880  136.8120 N   0  0  0  0  0  0  0  0  0  0  0  0
  183.5070  176.0810  138.4210 C   0  0  1  0  0  3  0  0  0  0  0  0
  182.3540  175.1160  138.7790 C   0  0  0  0  0  2  0  0  0  0  0  0
  182.5510  176.0100  136.0220 C   0  0  0  0  0  2  0  0  0  0  0  0
  183.8060  175.9330  136.9070 C   0  0  1  0  0  3  0  0  0  0  0  0
  182.4870  177.5390  140.0580 C   0  0  0  0  0  2  0  0  0  0  0  0
  184.4710  178.1530  139.0810 C   0  0  0  0  0  2  0  0  0  0  0  0
  184.1880  179.2310  140.1010 C   0  0  0  0  0  2  0  0  0  0  0  0
  182.9150  178.7960  140.7860 C   0  0  2  0  0  3  0  0  0  0  0  0
  183.2090  177.4830  138.7870 N   0  0  1  0  0  0  0  0  0  0  0  0
  183.1620  178.4860  142.1510 O   0  0  0  0  0  0  0  0  0  0  0  0
  182.3670  178.9790  143.1880 C   0  0  0  0  0  0  0  0  0  0  0  0
  182.8580  178.9400  144.5220 N   0  0  0  0  0  1  0  0  0  0  0  0
  181.2210  179.4530  142.9580 O   0  0  0  0  0  0  0  0  0  0  0  0
  179.7600  173.2970  137.6970 O   0  0  0  0  0  1  0  0  0  0  0  0
  180.7840  173.8960  137.2730 C   0  0  0  0  0  0  0  0  0  0  0  0
  181.5590  173.3140  136.2780 O   0  0  0  0  0  0  0  0  0  0  0  0
  186.4420  175.6390  135.2730 C   0  0  0  0  0  2  0  0  0  0  0  0
  185.0830  173.6610  134.6900 C   0  0  0  0  0  1  0  0  0  0  0  0
  186.3960  174.1200  135.2960 C   0  0  2  0  0  3  0  0  0  0  0  0
  186.5080  173.6190  136.7280 C   0  0  0  0  0  2  0  0  0  0  0  0
  187.7690  172.7960  136.9070 C   0  0  0  0  0  1  0  0  0  0  0  0
  1  3  1  0  0  0  0
  1  4  1  0  0  0  0
  2  4  1  0  0  0  0
  2  6  1  0  0  0  0
  3  5  1  0  0  0  0
  4 30  1  6  0  0  0
  5  2  1  0  0  0  0
  7  6  1  0  0  0  0
  7  9  1  0  0  0  0
  9  8  1  1  0  0  0
  9 10  1  0  0  0  0
 10 11  1  0  0  0  0
 11 13  1  0  0  0  0
 12 13  2  0  0  0  0
 13 14  2  0  0  0  0
 13 17  1  0  0  0  0
 16 15  2  0  0  0  0
 17 15  1  0  0  0  0
 18 15  1  6  0  0  0
 18 28  1  0  0  0  0
 18 24  1  0  0  0  0
 20 23  1  1  0  0  0
 20 22  1  0  0  0  0
 22 19  1  0  0  0  0
 22 21  1  1  0  0  0
 24 20  1  0  0  0  0
 24 22  1  0  0  0  0
 25 27  1  0  0  0  0
 26 25  1  0  0  0  0
 26 27  1  0  0  0  0
 27 18  1  6  0  0  0
 28 29  1  0  0  0  0
 30 51  1  6  0  0  0
 31 30  1  0  0  0  0
 32 34  1  0  0  0  0
 33 49  1  6  0  0  0
 33 36  1  0  0  0  0
 34 33  1  0  0  0  0
 35 36  1  6  0  0  0
 35 43  1  0  0  0  0
 37 34  1  0  0  0  0
 37 38  1  0  0  0  0
 38 31  1  6  0  0  0
 38 35  1  0  0  0  0
 39 42  1  0  0  0  0
 40 41  1  0  0  0  0
 41 42  1  0  0  0  0
 42 44  1  1  0  0  0
 43 40  1  1  0  0  0
 43 39  1  0  0  0  0
 44 45  1  0  0  0  0
 45 46  1  0  0  0  0
 47 45  2  0  0  0  0
 49 48  1  0  0  0  0
 50 49  2  0  0  0  0
 51 53  1  0  0  0  0
 53 52  1  1  0  0  0
 53 54  1  0  0  0  0
 54 55  1  0  0  0  0
M  END
>  <MODEL>
4

>  <REMARK>
 VINA RESULT:      -4.6      2.772     10.617
  Name = 
  21 active torsions:
  status: ('A' for Active; 'I' for Inactive)
    1  A    between atoms: C_1  and  C_21
    2  A    between atoms: C_1  and  O_29
    3  A    between atoms: C_1  and  C_38
    4  A    between atoms: C_1  and  N_53
    5  A    between atoms: C_2  and  C_19
    6  A    between atoms: C_2  and  O_28
    7  A    between atoms: C_2  and  C_44
    8  A    between atoms: C_4  and  C_40
    9  A    between atoms: C_8  and  S_20
   10  A    between atoms: C_8  and  C_43
   11  A    between atoms: C_10  and  O_32
   12  A    between atoms: C_16  and  C_17
   13  A    between atoms: C_19  and  C_40
   14  A    between atoms: S_20  and  N_42
   15  A    between atoms: N_27  and  C_31
   16  A    between atoms: O_28  and  C_49
   17  A    between atoms: C_31  and  C_54
   18  A    between atoms: O_32  and  C_48
   19  A    between atoms: C_33  and  N_52
   20  A    between atoms: C_43  and  C_51
   21  A    between atoms: C_51  and  C_54
                            x       y       z     vdW  Elec       q    Type
                         _______ _______ _______ _____ _____    ______ ____

>  <TORSDO>
F 21

$$$$
=
 OpenBabel10262420393D

 55 59  0  0  1  0  0  0  0  0999 V2000
  185.5470  178.7680  140.1000 O   0  0  0  0  0  0  0  0  0  0  0  0
  187.8050  178.3500  139.6510 N   0  0  0  0  0  0  0  0  0  0  0  0
  186.2620  179.2500  141.2000 C   0  0  0  0  0  2  0  0  0  0  0  0
  186.4350  177.8970  139.4480 C   0  0  2  0  0  3  0  0  0  0  0  0
  187.7260  179.1220  140.8750 C   0  0  0  0  0  2  0  0  0  0  0  0
  188.6150  177.1670  139.9120 C   0  0  0  0  0  2  0  0  0  0  0  0
  189.8520  177.1600  139.0210 C   0  0  0  0  0  2  0  0  0  0  0  0
  192.3490  176.7850  139.2330 C   0  0  0  0  0  1  0  0  0  0  0  0
  191.1190  177.4750  139.8150 C   0  0  2  0  0  3  0  0  0  0  0  0
  190.9330  177.1040  141.2850 C   0  0  0  0  0  2  0  0  0  0  0  0
  191.1900  178.2840  142.2140 C   0  0  0  0  0  2  0  0  0  0  0  0
  191.8240  176.2990  143.9140 O   0  0  0  0  0  0  0  0  0  0  0  0
  191.3620  177.7300  143.8960 S   0  0  0  0  0  0  0  0  0  0  0  0
  192.3720  178.5830  144.6050 O   0  0  0  0  0  0  0  0  0  0  0  0
  189.7040  177.5850  146.1130 C   0  0  0  0  0  0  0  0  0  0  0  0
  190.6950  177.1680  146.7690 O   0  0  0  0  0  0  0  0  0  0  0  0
  189.8410  177.8530  144.7140 N   0  0  0  0  0  2  0  0  0  0  0  0
  188.3400  177.6900  146.7800 C   0  0  2  0  0  0  0  0  0  0  0  0
  185.6490  177.8810  147.3500 O   0  0  0  0  0  1  0  0  0  0  0  0
  186.5350  177.1100  145.2110 C   0  0  1  0  0  3  0  0  0  0  0  0
  185.2540  179.3880  145.4030 C   0  0  0  0  0  1  0  0  0  0  0  0
  185.9720  178.1990  146.0270 C   0  0  1  0  0  0  0  0  0  0  0  0
  186.3320  177.2950  143.7150 C   0  0  0  0  0  1  0  0  0  0  0  0
  187.4240  178.1870  145.7180 N   0  0  0  0  0  0  0  0  0  0  0  0
  189.4820  178.6690  148.8500 C   0  0  0  0  0  2  0  0  0  0  0  0
  188.1790  178.2480  149.1710 O   0  0  0  0  0  0  0  0  0  0  0  0
  188.3630  178.7900  147.8830 C   0  0  2  0  0  3  0  0  0  0  0  0
  187.9220  176.4200  147.2900 O   0  0  0  0  0  0  0  0  0  0  0  0
  188.9920  175.6850  147.5350 O   0  0  0  0  0  1  0  0  0  0  0  0
  186.0920  177.7820  137.9600 C   0  0  1  0  0  3  0  0  0  0  0  0
  184.7350  178.0600  137.7790 O   0  0  0  0  0  0  0  0  0  0  0  0
  182.0790  176.0510  134.5950 C   0  0  0  0  0  1  0  0  0  0  0  0
  181.9110  175.1140  136.8170 C   0  0  2  0  0  3  0  0  0  0  0  0
  182.3370  176.2770  136.0110 N   0  0  0  0  0  0  0  0  0  0  0  0
  182.9010  176.6660  138.6190 C   0  0  1  0  0  3  0  0  0  0  0  0
  182.2100  175.3170  138.3140 C   0  0  0  0  0  2  0  0  0  0  0  0
  183.7640  176.5410  136.1870 C   0  0  0  0  0  2  0  0  0  0  0  0
  184.1100  176.8140  137.6600 C   0  0  1  0  0  3  0  0  0  0  0  0
  180.7010  177.5070  139.1670 C   0  0  0  0  0  2  0  0  0  0  0  0
  182.5140  178.9050  139.3210 C   0  0  0  0  0  2  0  0  0  0  0  0
  181.3470  179.7220  139.8220 C   0  0  0  0  0  2  0  0  0  0  0  0
  180.1650  178.7830  139.7780 C   0  0  2  0  0  3  0  0  0  0  0  0
  181.9750  177.8140  138.5160 N   0  0  1  0  0  0  0  0  0  0  0  0
  179.6930  178.5120  141.0910 O   0  0  0  0  0  0  0  0  0  0  0  0
  180.1620  179.1990  142.2130 C   0  0  0  0  0  0  0  0  0  0  0  0
  179.2310  179.8260  143.0870 N   0  0  0  0  0  1  0  0  0  0  0  0
  181.3970  179.2750  142.4580 O   0  0  0  0  0  0  0  0  0  0  0  0
  181.7140  172.8450  136.0830 O   0  0  0  0  0  0  0  0  0  0  0  0
  182.4860  173.8030  136.3510 C   0  0  0  0  0  0  0  0  0  0  0  0
  183.8580  173.6440  136.1950 O   0  0  0  0  0  1  0  0  0  0  0  0
  186.9250  178.7350  137.1050 C   0  0  0  0  0  2  0  0  0  0  0  0
  186.7960  178.2220  134.6920 C   0  0  0  0  0  1  0  0  0  0  0  0
  187.5940  177.9890  135.9620 C   0  0  2  0  0  3  0  0  0  0  0  0
  187.6460  176.5010  136.2740 C   0  0  0  0  0  2  0  0  0  0  0  0
  188.6550  175.8050  135.3810 C   0  0  0  0  0  1  0  0  0  0  0  0
  1  3  1  0  0  0  0
  2  6  1  0  0  0  0
  2  5  1  0  0  0  0
  4 30  1  6  0  0  0
  4  2  1  0  0  0  0
  4  1  1  0  0  0  0
  5  3  1  0  0  0  0
  7  9  1  0  0  0  0
  7  6  1  0  0  0  0
  9  8  1  6  0  0  0
  9 10  1  0  0  0  0
 10 11  1  0  0  0  0
 11 13  1  0  0  0  0
 13 12  2  0  0  0  0
 13 14  2  0  0  0  0
 13 17  1  0  0  0  0
 15 16  2  0  0  0  0
 17 15  1  0  0  0  0
 18 15  1  6  0  0  0
 18 28  1  0  0  0  0
 20 23  1  6  0  0  0
 20 24  1  0  0  0  0
 20 22  1  0  0  0  0
 22 21  1  6  0  0  0
 22 19  1  0  0  0  0
 24 22  1  0  0  0  0
 24 18  1  0  0  0  0
 25 26  1  0  0  0  0
 27 18  1  6  0  0  0
 27 25  1  0  0  0  0
 27 26  1  0  0  0  0
 28 29  1  0  0  0  0
 30 51  1  6  0  0  0
 31 30  1  0  0  0  0
 32 34  1  0  0  0  0
 33 49  1  6  0  0  0
 33 36  1  0  0  0  0
 34 37  1  0  0  0  0
 34 33  1  0  0  0  0
 35 36  1  6  0  0  0
 37 38  1  0  0  0  0
 38 31  1  6  0  0  0
 38 35  1  0  0  0  0
 39 42  1  0  0  0  0
 40 41  1  0  0  0  0
 42 41  1  0  0  0  0
 42 44  1  1  0  0  0
 43 35  1  0  0  0  0
 43 39  1  1  0  0  0
 43 40  1  0  0  0  0
 44 45  1  0  0  0  0
 45 47  2  0  0  0  0
 45 46  1  0  0  0  0
 48 49  2  0  0  0  0
 50 49  1  0  0  0  0
 53 52  1  6  0  0  0
 53 54  1  0  0  0  0
 53 51  1  0  0  0  0
 55 54  1  0  0  0  0
M  END
>  <MODEL>
5

>  <REMARK>
 VINA RESULT:      -4.5      3.142     11.010
  Name = 
  21 active torsions:
  status: ('A' for Active; 'I' for Inactive)
    1  A    between atoms: C_1  and  C_21
    2  A    between atoms: C_1  and  O_29
    3  A    between atoms: C_1  and  C_38
    4  A    between atoms: C_1  and  N_53
    5  A    between atoms: C_2  and  C_19
    6  A    between atoms: C_2  and  O_28
    7  A    between atoms: C_2  and  C_44
    8  A    between atoms: C_4  and  C_40
    9  A    between atoms: C_8  and  S_20
   10  A    between atoms: C_8  and  C_43
   11  A    between atoms: C_10  and  O_32
   12  A    between atoms: C_16  and  C_17
   13  A    between atoms: C_19  and  C_40
   14  A    between atoms: S_20  and  N_42
   15  A    between atoms: N_27  and  C_31
   16  A    between atoms: O_28  and  C_49
   17  A    between atoms: C_31  and  C_54
   18  A    between atoms: O_32  and  C_48
   19  A    between atoms: C_33  and  N_52
   20  A    between atoms: C_43  and  C_51
   21  A    between atoms: C_51  and  C_54
                            x       y       z     vdW  Elec       q    Type
                         _______ _______ _______ _____ _____    ______ ____

>  <TORSDO>
F 21

$$$$
=
 OpenBabel10262420393D

 55 59  0  0  1  0  0  0  0  0999 V2000
  185.0800  178.2720  137.4560 O   0  0  0  0  0  0  0  0  0  0  0  0
  184.3520  178.1450  139.6770 N   0  0  0  0  0  0  0  0  0  0  0  0
  186.2020  178.5190  138.2510 C   0  0  0  0  0  2  0  0  0  0  0  0
  183.9820  178.4820  138.3090 C   0  0  2  0  0  3  0  0  0  0  0  0
  185.7930  178.3030  139.6840 C   0  0  0  0  0  2  0  0  0  0  0  0
  183.7790  179.1690  140.5410 C   0  0  0  0  0  2  0  0  0  0  0  0
  182.9310  178.5290  141.6350 C   0  0  0  0  0  2  0  0  0  0  0  0
  182.7890  179.0400  144.1120 C   0  0  0  0  0  1  0  0  0  0  0  0
  183.6600  178.5140  142.9760 C   0  0  2  0  0  3  0  0  0  0  0  0
  184.9650  179.3020  142.8830 C   0  0  0  0  0  2  0  0  0  0  0  0
  186.1900  178.4150  143.0670 C   0  0  0  0  0  2  0  0  0  0  0  0
  185.9580  179.2740  145.6050 O   0  0  0  0  0  0  0  0  0  0  0  0
  186.5000  178.1290  144.7960 S   0  0  0  0  0  0  0  0  0  0  0  0
  185.8240  176.8590  145.2230 O   0  0  0  0  0  0  0  0  0  0  0  0
  189.0110  177.0290  144.3770 C   0  0  0  0  0  0  0  0  0  0  0  0
  188.4680  176.2050  143.5960 O   0  0  0  0  0  0  0  0  0  0  0  0
  188.2030  177.9850  145.0720 N   0  0  0  0  0  2  0  0  0  0  0  0
  190.5000  176.9320  144.6710 C   0  0  2  0  0  0  0  0  0  0  0  0
  191.2710  175.0910  146.5750 O   0  0  0  0  0  1  0  0  0  0  0  0
  189.5940  176.8220  146.9570 C   0  0  1  0  0  3  0  0  0  0  0  0
  191.9110  176.8900  148.1800 C   0  0  0  0  0  1  0  0  0  0  0  0
  190.9850  176.3590  147.0940 C   0  0  1  0  0  0  0  0  0  0  0  0
  189.1910  177.8660  147.9870 C   0  0  0  0  0  1  0  0  0  0  0  0
  190.6500  177.3890  146.0790 N   0  0  0  0  0  0  0  0  0  0  0  0
  190.9500  179.3730  144.0510 C   0  0  0  0  0  2  0  0  0  0  0  0
  190.4400  178.6790  142.9400 O   0  0  0  0  0  0  0  0  0  0  0  0
  191.2900  177.9510  143.7970 C   0  0  2  0  0  3  0  0  0  0  0  0
  190.9690  175.5910  144.4960 O   0  0  0  0  0  0  0  0  0  0  0  0
  190.7550  175.2240  143.2450 O   0  0  0  0  0  1  0  0  0  0  0  0
  182.7660  177.6790  137.8380 C   0  0  1  0  0  3  0  0  0  0  0  0
  182.9470  176.3330  138.1690 O   0  0  0  0  0  0  0  0  0  0  0  0
  180.2400  172.6100  138.3440 C   0  0  0  0  0  1  0  0  0  0  0  0
  181.1250  173.1390  136.1560 C   0  0  2  0  0  3  0  0  0  0  0  0
  181.2590  173.3500  137.6130 N   0  0  0  0  0  0  0  0  0  0  0  0
  183.0930  174.7960  136.2640 C   0  0  1  0  0  3  0  0  0  0  0  0
  182.1700  173.9440  135.3630 C   0  0  0  0  0  2  0  0  0  0  0  0
  181.1350  174.7680  137.9490 C   0  0  0  0  0  2  0  0  0  0  0  0
  182.1990  175.6140  137.2310 C   0  0  1  0  0  3  0  0  0  0  0  0
  184.5770  172.8900  136.1480 C   0  0  0  0  0  2  0  0  0  0  0  0
  185.2730  174.7990  137.2150 C   0  0  0  0  0  2  0  0  0  0  0  0
  186.4660  173.8740  137.2510 C   0  0  0  0  0  2  0  0  0  0  0  0
  186.0280  172.6420  136.4970 C   0  0  2  0  0  3  0  0  0  0  0  0
  184.0870  173.9790  136.9930 N   0  0  1  0  0  0  0  0  0  0  0  0
  186.7790  172.4960  135.2990 O   0  0  0  0  0  0  0  0  0  0  0  0
  187.9430  171.7260  135.2320 C   0  0  0  0  0  0  0  0  0  0  0  0
  189.2020  172.3430  135.4720 N   0  0  0  0  0  1  0  0  0  0  0  0
  187.8920  170.4970  134.9560 O   0  0  0  0  0  0  0  0  0  0  0  0
  178.9310  172.4720  135.4740 O   0  0  0  0  0  1  0  0  0  0  0  0
  179.7450  173.4200  135.6230 C   0  0  0  0  0  0  0  0  0  0  0  0
  179.3550  174.7170  135.3110 O   0  0  0  0  0  0  0  0  0  0  0  0
  181.4680  178.1860  138.4650 C   0  0  0  0  0  2  0  0  0  0  0  0
  181.2350  179.0230  136.1530 C   0  0  0  0  0  1  0  0  0  0  0  0
  180.8340  179.2600  137.5970 C   0  0  2  0  0  3  0  0  0  0  0  0
  181.3050  180.6350  138.0460 C   0  0  0  0  0  2  0  0  0  0  0  0
  180.5240  181.7240  137.3350 C   0  0  0  0  0  1  0  0  0  0  0  0
  1  3  1  0  0  0  0
  1  4  1  0  0  0  0
  2  5  1  0  0  0  0
  2  6  1  0  0  0  0
  3  5  1  0  0  0  0
  4 30  1  6  0  0  0
  4  2  1  0  0  0  0
  6  7  1  0  0  0  0
  7  9  1  0  0  0  0
  9  8  1  1  0  0  0
 10  9  1  0  0  0  0
 10 11  1  0  0  0  0
 11 13  1  0  0  0  0
 13 17  1  0  0  0  0
 13 14  2  0  0  0  0
 13 12  2  0  0  0  0
 15 17  1  0  0  0  0
 16 15  2  0  0  0  0
 18 15  1  6  0  0  0
 18 24  1  0  0  0  0
 19 22  1  0  0  0  0
 20 22  1  0  0  0  0
 20 23  1  1  0  0  0
 22 21  1  1  0  0  0
 24 20  1  0  0  0  0
 24 22  1  0  0  0  0
 26 27  1  0  0  0  0
 26 25  1  0  0  0  0
 27 25  1  0  0  0  0
 27 18  1  1  0  0  0
 28 18  1  0  0  0  0
 29 28  1  0  0  0  0
 30 31  1  0  0  0  0
 30 51  1  1  0  0  0
 33 49  1  6  0  0  0
 33 34  1  0  0  0  0
 34 37  1  0  0  0  0
 34 32  1  0  0  0  0
 35 36  1  1  0  0  0
 35 43  1  0  0  0  0
 35 38  1  0  0  0  0
 36 33  1  0  0  0  0
 38 37  1  0  0  0  0
 38 31  1  1  0  0  0
 39 42  1  0  0  0  0
 40 41  1  0  0  0  0
 42 44  1  6  0  0  0
 42 41  1  0  0  0  0
 43 39  1  6  0  0  0
 43 40  1  0  0  0  0
 45 44  1  0  0  0  0
 45 46  1  0  0  0  0
 47 45  2  0  0  0  0
 48 49  1  0  0  0  0
 50 49  2  0  0  0  0
 53 52  1  6  0  0  0
 53 54  1  0  0  0  0
 53 51  1  0  0  0  0
 55 54  1  0  0  0  0
M  END
>  <MODEL>
6

>  <REMARK>
 VINA RESULT:      -4.1      3.172      9.966
  Name = 
  21 active torsions:
  status: ('A' for Active; 'I' for Inactive)
    1  A    between atoms: C_1  and  C_21
    2  A    between atoms: C_1  and  O_29
    3  A    between atoms: C_1  and  C_38
    4  A    between atoms: C_1  and  N_53
    5  A    between atoms: C_2  and  C_19
    6  A    between atoms: C_2  and  O_28
    7  A    between atoms: C_2  and  C_44
    8  A    between atoms: C_4  and  C_40
    9  A    between atoms: C_8  and  S_20
   10  A    between atoms: C_8  and  C_43
   11  A    between atoms: C_10  and  O_32
   12  A    between atoms: C_16  and  C_17
   13  A    between atoms: C_19  and  C_40
   14  A    between atoms: S_20  and  N_42
   15  A    between atoms: N_27  and  C_31
   16  A    between atoms: O_28  and  C_49
   17  A    between atoms: C_31  and  C_54
   18  A    between atoms: O_32  and  C_48
   19  A    between atoms: C_33  and  N_52
   20  A    between atoms: C_43  and  C_51
   21  A    between atoms: C_51  and  C_54
                            x       y       z     vdW  Elec       q    Type
                         _______ _______ _______ _____ _____    ______ ____

>  <TORSDO>
F 21

$$$$
=
 OpenBabel10262420393D

 55 59  0  0  1  0  0  0  0  0999 V2000
  188.2830  177.7750  136.4460 O   0  0  0  0  0  0  0  0  0  0  0  0
  186.2870  176.5790  136.1920 N   0  0  0  0  0  0  0  0  0  0  0  0
  187.2640  178.6100  136.9120 C   0  0  0  0  0  2  0  0  0  0  0  0
  187.6270  176.8070  135.6670 C   0  0  2  0  0  3  0  0  0  0  0  0
  185.9860  177.8130  136.8920 C   0  0  0  0  0  2  0  0  0  0  0  0
  185.3900  176.4750  135.0490 C   0  0  0  0  0  2  0  0  0  0  0  0
  184.2360  175.5290  135.3620 C   0  0  0  0  0  2  0  0  0  0  0  0
  182.4490  177.2950  135.0370 C   0  0  0  0  0  1  0  0  0  0  0  0
  182.9650  175.9240  134.6130 C   0  0  2  0  0  3  0  0  0  0  0  0
  181.8860  174.8580  134.7940 C   0  0  0  0  0  2  0  0  0  0  0  0
  180.7180  175.3560  135.6360 C   0  0  0  0  0  2  0  0  0  0  0  0
  179.5620  174.4160  137.8750 O   0  0  0  0  0  0  0  0  0  0  0  0
  180.8990  174.8330  137.3270 S   0  0  0  0  0  0  0  0  0  0  0  0
  181.8430  173.6680  137.3920 O   0  0  0  0  0  0  0  0  0  0  0  0
  180.8350  177.3720  138.4380 C   0  0  0  0  0  0  0  0  0  0  0  0
  179.7640  177.5710  137.8060 O   0  0  0  0  0  0  0  0  0  0  0  0
  181.5320  176.1320  138.2800 N   0  0  0  0  0  2  0  0  0  0  0  0
  181.4440  178.4880  139.2720 C   0  0  2  0  0  0  0  0  0  0  0  0
  180.4890  180.9360  140.1110 O   0  0  0  0  0  1  0  0  0  0  0  0
  180.2290  180.0800  137.8400 C   0  0  1  0  0  3  0  0  0  0  0  0
  181.7700  182.1400  138.3410 C   0  0  0  0  0  1  0  0  0  0  0  0
  180.9600  180.9320  138.7930 C   0  0  1  0  0  0  0  0  0  0  0  0
  180.3690  180.5190  136.3910 C   0  0  0  0  0  1  0  0  0  0  0  0
  181.5580  179.6480  138.3470 N   0  0  0  0  0  0  0  0  0  0  0  0
  183.3490  178.7240  140.9640 C   0  0  0  0  0  2  0  0  0  0  0  0
  183.7400  179.2500  139.7200 O   0  0  0  0  0  0  0  0  0  0  0  0
  182.9000  178.1190  139.6860 C   0  0  2  0  0  3  0  0  0  0  0  0
  180.6200  178.7910  140.4030 O   0  0  0  0  0  0  0  0  0  0  0  0
  180.6100  177.7480  141.2140 O   0  0  0  0  0  1  0  0  0  0  0  0
  188.4400  175.5110  135.6110 C   0  0  1  0  0  3  0  0  0  0  0  0
  189.0280  175.2820  136.8580 O   0  0  0  0  0  0  0  0  0  0  0  0
  193.1590  173.3390  137.4780 C   0  0  0  0  0  1  0  0  0  0  0  0
  193.1340  175.7550  137.5680 C   0  0  2  0  0  3  0  0  0  0  0  0
  192.3240  174.5210  137.6430 N   0  0  0  0  0  0  0  0  0  0  0  0
  190.7570  176.7050  137.8580 C   0  0  1  0  0  3  0  0  0  0  0  0
  192.2630  177.0170  137.7010 C   0  0  0  0  0  2  0  0  0  0  0  0
  191.2920  174.5080  136.6080 C   0  0  0  0  0  2  0  0  0  0  0  0
  190.3520  175.7190  136.7330 C   0  0  1  0  0  3  0  0  0  0  0  0
  191.3940  176.6410  140.1900 C   0  0  0  0  0  2  0  0  0  0  0  0
  189.1730  176.7920  139.6300 C   0  0  0  0  0  2  0  0  0  0  0  0
  189.2020  176.8740  141.1380 C   0  0  0  0  0  2  0  0  0  0  0  0
  190.6670  176.8360  141.5030 C   0  0  2  0  0  3  0  0  0  0  0  0
  190.4240  176.1770  139.1990 N   0  0  1  0  0  0  0  0  0  0  0  0
  191.0700  178.0690  142.0830 O   0  0  0  0  0  0  0  0  0  0  0  0
  190.8810  178.3590  143.4370 C   0  0  0  0  0  0  0  0  0  0  0  0
  191.8960  178.0160  144.3720 N   0  0  0  0  0  1  0  0  0  0  0  0
  189.8220  178.9140  143.8390 O   0  0  0  0  0  0  0  0  0  0  0  0
  195.1590  175.3800  136.3510 O   0  0  0  0  0  1  0  0  0  0  0  0
  193.9910  175.8490  136.3330 C   0  0  0  0  0  0  0  0  0  0  0  0
  193.5010  176.4310  135.1710 O   0  0  0  0  0  0  0  0  0  0  0  0
  187.5780  174.3090  135.2290 C   0  0  0  0  0  2  0  0  0  0  0  0
  188.8280  172.2160  135.6230 C   0  0  0  0  0  1  0  0  0  0  0  0
  187.7910  173.1610  136.2010 C   0  0  2  0  0  3  0  0  0  0  0  0
  186.4810  172.4190  136.4230 C   0  0  0  0  0  2  0  0  0  0  0  0
  185.6770  173.0760  137.5280 C   0  0  0  0  0  1  0  0  0  0  0  0
  1  3  1  0  0  0  0
  2  5  1  0  0  0  0
  4 30  1  1  0  0  0
  4  2  1  0  0  0  0
  4  1  1  0  0  0  0
  5  3  1  0  0  0  0
  6  7  1  0  0  0  0
  6  2  1  0  0  0  0
  9 10  1  0  0  0  0
  9  8  1  1  0  0  0
  9  7  1  0  0  0  0
 10 11  1  0  0  0  0
 11 13  1  0  0  0  0
 13 14  2  0  0  0  0
 13 12  2  0  0  0  0
 13 17  1  0  0  0  0
 16 15  2  0  0  0  0
 17 15  1  0  0  0  0
 18 15  1  6  0  0  0
 18 28  1  0  0  0  0
 20 23  1  6  0  0  0
 20 24  1  0  0  0  0
 20 22  1  0  0  0  0
 22 21  1  6  0  0  0
 22 19  1  0  0  0  0
 24 22  1  0  0  0  0
 24 18  1  0  0  0  0
 26 25  1  0  0  0  0
 27 18  1  6  0  0  0
 27 26  1  0  0  0  0
 27 25  1  0  0  0  0
 28 29  1  0  0  0  0
 30 51  1  1  0  0  0
 30 31  1  0  0  0  0
 32 34  1  0  0  0  0
 33 49  1  6  0  0  0
 33 34  1  0  0  0  0
 33 36  1  0  0  0  0
 35 36  1  1  0  0  0
 35 43  1  0  0  0  0
 37 38  1  0  0  0  0
 37 34  1  0  0  0  0
 38 31  1  1  0  0  0
 38 35  1  0  0  0  0
 39 42  1  0  0  0  0
 40 41  1  0  0  0  0
 41 42  1  0  0  0  0
 42 44  1  6  0  0  0
 43 40  1  1  0  0  0
 43 39  1  0  0  0  0
 44 45  1  0  0  0  0
 45 47  2  0  0  0  0
 45 46  1  0  0  0  0
 49 48  1  0  0  0  0
 50 49  2  0  0  0  0
 51 53  1  0  0  0  0
 53 52  1  6  0  0  0
 53 54  1  0  0  0  0
 54 55  1  0  0  0  0
M  END
>  <MODEL>
7

>  <REMARK>
 VINA RESULT:      -4.0      2.689      7.150
  Name = 
  21 active torsions:
  status: ('A' for Active; 'I' for Inactive)
    1  A    between atoms: C_1  and  C_21
    2  A    between atoms: C_1  and  O_29
    3  A    between atoms: C_1  and  C_38
    4  A    between atoms: C_1  and  N_53
    5  A    between atoms: C_2  and  C_19
    6  A    between atoms: C_2  and  O_28
    7  A    between atoms: C_2  and  C_44
    8  A    between atoms: C_4  and  C_40
    9  A    between atoms: C_8  and  S_20
   10  A    between atoms: C_8  and  C_43
   11  A    between atoms: C_10  and  O_32
   12  A    between atoms: C_16  and  C_17
   13  A    between atoms: C_19  and  C_40
   14  A    between atoms: S_20  and  N_42
   15  A    between atoms: N_27  and  C_31
   16  A    between atoms: O_28  and  C_49
   17  A    between atoms: C_31  and  C_54
   18  A    between atoms: O_32  and  C_48
   19  A    between atoms: C_33  and  N_52
   20  A    between atoms: C_43  and  C_51
   21  A    between atoms: C_51  and  C_54
                            x       y       z     vdW  Elec       q    Type
                         _______ _______ _______ _____ _____    ______ ____

>  <TORSDO>
F 21

$$$$
=
 OpenBabel10262420393D

 55 59  0  0  1  0  0  0  0  0999 V2000
  186.0180  178.1270  136.9690 O   0  0  0  0  0  0  0  0  0  0  0  0
  187.7080  176.5100  136.8770 N   0  0  0  0  0  0  0  0  0  0  0  0
  187.2230  178.8250  136.8550 C   0  0  0  0  0  2  0  0  0  0  0  0
  186.3870  176.8400  137.3960 C   0  0  2  0  0  3  0  0  0  0  0  0
  188.3140  177.8080  136.6510 C   0  0  0  0  0  2  0  0  0  0  0  0
  188.4380  175.8480  137.9500 C   0  0  0  0  0  2  0  0  0  0  0  0
  189.9410  175.9780  137.7300 C   0  0  0  0  0  2  0  0  0  0  0  0
  192.0880  176.8790  138.7300 C   0  0  0  0  0  1  0  0  0  0  0  0
  190.5660  176.9840  138.6950 C   0  0  2  0  0  3  0  0  0  0  0  0
  189.9780  176.8160  140.0950 C   0  0  0  0  0  2  0  0  0  0  0  0
  190.6970  177.6730  141.1300 C   0  0  0  0  0  2  0  0  0  0  0  0
  190.4510  175.3850  142.5220 O   0  0  0  0  0  0  0  0  0  0  0  0
  190.7330  176.8500  142.7070 S   0  0  0  0  0  0  0  0  0  0  0  0
  192.0900  177.0160  143.3270 O   0  0  0  0  0  0  0  0  0  0  0  0
  188.2150  177.0090  143.8550 C   0  0  0  0  0  0  0  0  0  0  0  0
  187.8630  176.0640  143.1010 O   0  0  0  0  0  0  0  0  0  0  0  0
  189.5410  177.5380  143.7560 N   0  0  0  0  0  2  0  0  0  0  0  0
  187.1990  177.6630  144.7790 C   0  0  2  0  0  0  0  0  0  0  0  0
  184.5760  178.1970  145.4440 O   0  0  0  0  0  1  0  0  0  0  0  0
  185.3620  177.8780  143.1550 C   0  0  1  0  0  3  0  0  0  0  0  0
  184.5270  180.2200  143.9850 C   0  0  0  0  0  1  0  0  0  0  0  0
  184.9910  178.7930  144.2480 C   0  0  1  0  0  0  0  0  0  0  0  0
  185.2410  178.4950  141.7700 C   0  0  0  0  0  1  0  0  0  0  0  0
  186.4230  178.5910  143.9130 N   0  0  0  0  0  0  0  0  0  0  0  0
  188.2550  177.8630  147.1020 C   0  0  0  0  0  2  0  0  0  0  0  0
  187.1500  178.7270  146.9970 O   0  0  0  0  0  0  0  0  0  0  0  0
  187.9240  178.5550  145.8310 C   0  0  2  0  0  3  0  0  0  0  0  0
  186.3570  176.6800  145.3910 O   0  0  0  0  0  0  0  0  0  0  0  0
  187.0990  175.9000  146.1570 O   0  0  0  0  0  1  0  0  0  0  0  0
  185.3400  175.8050  136.9750 C   0  0  1  0  0  3  0  0  0  0  0  0
  184.0930  176.4290  136.8690 O   0  0  0  0  0  0  0  0  0  0  0  0
  179.9210  175.0620  135.4720 C   0  0  0  0  0  1  0  0  0  0  0  0
  180.4430  174.5800  137.7840 C   0  0  2  0  0  3  0  0  0  0  0  0
  180.7930  175.3830  136.5940 N   0  0  0  0  0  0  0  0  0  0  0  0
  182.4710  175.9190  138.6360 C   0  0  1  0  0  3  0  0  0  0  0  0
  181.3790  174.8770  138.9690 C   0  0  0  0  0  2  0  0  0  0  0  0
  182.1780  175.1430  136.1890 C   0  0  0  0  0  2  0  0  0  0  0  0
  183.1640  175.4850  137.3190 C   0  0  1  0  0  3  0  0  0  0  0  0
  180.6430  177.3870  139.2260 C   0  0  0  0  0  2  0  0  0  0  0  0
  182.7980  178.1680  139.3360 C   0  0  0  0  0  2  0  0  0  0  0  0
  181.9440  179.3010  139.8570 C   0  0  0  0  0  2  0  0  0  0  0  0
  180.5330  178.7650  139.8420 C   0  0  2  0  0  3  0  0  0  0  0  0
  181.9350  177.2940  138.5470 N   0  0  1  0  0  0  0  0  0  0  0  0
  180.0280  178.6480  141.1660 O   0  0  0  0  0  0  0  0  0  0  0  0
  180.5530  179.3770  142.2360 C   0  0  0  0  0  0  0  0  0  0  0  0
  179.9850  180.6380  142.5650 N   0  0  0  0  0  1  0  0  0  0  0  0
  181.5240  178.9340  142.9080 O   0  0  0  0  0  0  0  0  0  0  0  0
  181.4660  172.4410  137.4610 O   0  0  0  0  0  1  0  0  0  0  0  0
  180.3930  173.0970  137.5260 C   0  0  0  0  0  0  0  0  0  0  0  0
  179.1770  172.4420  137.3780 O   0  0  0  0  0  0  0  0  0  0  0  0
  185.6910  175.1420  135.6440 C   0  0  0  0  0  2  0  0  0  0  0  0
  186.0200  173.3540  137.3160 C   0  0  0  0  0  1  0  0  0  0  0  0
  185.9360  173.6540  135.8310 C   0  0  2  0  0  3  0  0  0  0  0  0
  187.2340  173.2520  135.1480 C   0  0  0  0  0  2  0  0  0  0  0  0
  187.7190  171.9140  135.6710 C   0  0  0  0  0  1  0  0  0  0  0  0
  1  4  1  0  0  0  0
  2  4  1  0  0  0  0
  2  6  1  0  0  0  0
  3  1  1  0  0  0  0
  4 30  1  6  0  0  0
  5  3  1  0  0  0  0
  5  2  1  0  0  0  0
  7  6  1  0  0  0  0
  7  9  1  0  0  0  0
  9  8  1  1  0  0  0
  9 10  1  0  0  0  0
 10 11  1  0  0  0  0
 11 13  1  0  0  0  0
 12 13  2  0  0  0  0
 13 14  2  0  0  0  0
 13 17  1  0  0  0  0
 16 15  2  0  0  0  0
 17 15  1  0  0  0  0
 18 15  1  6  0  0  0
 18 28  1  0  0  0  0
 20 23  1  6  0  0  0
 20 24  1  0  0  0  0
 20 22  1  0  0  0  0
 22 21  1  6  0  0  0
 22 19  1  0  0  0  0
 24 22  1  0  0  0  0
 24 18  1  0  0  0  0
 26 25  1  0  0  0  0
 27 18  1  6  0  0  0
 27 26  1  0  0  0  0
 27 25  1  0  0  0  0
 28 29  1  0  0  0  0
 30 51  1  6  0  0  0
 31 30  1  0  0  0  0
 32 34  1  0  0  0  0
 33 49  1  6  0  0  0
 33 36  1  0  0  0  0
 34 33  1  0  0  0  0
 35 36  1  6  0  0  0
 37 34  1  0  0  0  0
 37 38  1  0  0  0  0
 38 31  1  6  0  0  0
 38 35  1  0  0  0  0
 39 42  1  0  0  0  0
 40 41  1  0  0  0  0
 42 41  1  0  0  0  0
 42 44  1  1  0  0  0
 43 35  1  0  0  0  0
 43 39  1  1  0  0  0
 43 40  1  0  0  0  0
 44 45  1  0  0  0  0
 45 46  1  0  0  0  0
 45 47  2  0  0  0  0
 48 49  1  0  0  0  0
 50 49  2  0  0  0  0
 51 53  1  0  0  0  0
 53 52  1  1  0  0  0
 54 55  1  0  0  0  0
 54 53  1  0  0  0  0
M  END
>  <MODEL>
8

>  <REMARK>
 VINA RESULT:      -3.9      2.996     10.611
  Name = 
  21 active torsions:
  status: ('A' for Active; 'I' for Inactive)
    1  A    between atoms: C_1  and  C_21
    2  A    between atoms: C_1  and  O_29
    3  A    between atoms: C_1  and  C_38
    4  A    between atoms: C_1  and  N_53
    5  A    between atoms: C_2  and  C_19
    6  A    between atoms: C_2  and  O_28
    7  A    between atoms: C_2  and  C_44
    8  A    between atoms: C_4  and  C_40
    9  A    between atoms: C_8  and  S_20
   10  A    between atoms: C_8  and  C_43
   11  A    between atoms: C_10  and  O_32
   12  A    between atoms: C_16  and  C_17
   13  A    between atoms: C_19  and  C_40
   14  A    between atoms: S_20  and  N_42
   15  A    between atoms: N_27  and  C_31
   16  A    between atoms: O_28  and  C_49
   17  A    between atoms: C_31  and  C_54
   18  A    between atoms: O_32  and  C_48
   19  A    between atoms: C_33  and  N_52
   20  A    between atoms: C_43  and  C_51
   21  A    between atoms: C_51  and  C_54
                            x       y       z     vdW  Elec       q    Type
                         _______ _______ _______ _____ _____    ______ ____

>  <TORSDO>
F 21

$$$$
=
 OpenBabel10262420393D

 55 59  0  0  1  0  0  0  0  0999 V2000
  186.9140  177.4040  143.6250 O   0  0  0  0  0  0  0  0  0  0  0  0
  187.9990  178.3390  141.7740 N   0  0  0  0  0  0  0  0  0  0  0  0
  188.2650  177.0740  143.7540 C   0  0  0  0  0  2  0  0  0  0  0  0
  186.7590  177.7600  142.2740 C   0  0  2  0  0  3  0  0  0  0  0  0
  189.0090  177.7820  142.6530 C   0  0  0  0  0  2  0  0  0  0  0  0
  188.2150  177.8010  140.4370 C   0  0  0  0  0  2  0  0  0  0  0  0
  189.6330  178.1030  139.9650 C   0  0  0  0  0  2  0  0  0  0  0  0
  191.9130  177.5420  140.9160 C   0  0  0  0  0  1  0  0  0  0  0  0
  190.6060  176.9920  140.3550 C   0  0  2  0  0  3  0  0  0  0  0  0
  190.8700  176.0720  139.1640 C   0  0  0  0  0  2  0  0  0  0  0  0
  190.4270  176.6940  137.8450 C   0  0  0  0  0  2  0  0  0  0  0  0
  189.6050  174.5820  136.3970 O   0  0  0  0  0  0  0  0  0  0  0  0
  190.7290  175.5760  136.4950 S   0  0  0  0  0  0  0  0  0  0  0  0
  190.8150  176.3500  135.2120 O   0  0  0  0  0  0  0  0  0  0  0  0
  193.4690  175.2270  136.2540 C   0  0  0  0  0  0  0  0  0  0  0  0
  193.4910  176.2620  135.5370 O   0  0  0  0  0  0  0  0  0  0  0  0
  192.2200  174.7340  136.7500 N   0  0  0  0  0  2  0  0  0  0  0  0
  194.7490  174.4390  136.4900 C   0  0  2  0  0  0  0  0  0  0  0  0
  196.5890  172.8160  135.2300 O   0  0  0  0  0  1  0  0  0  0  0  0
  194.1910  172.7520  134.7860 C   0  0  1  0  0  3  0  0  0  0  0  0
  195.4010  170.7500  135.9660 C   0  0  0  0  0  1  0  0  0  0  0  0
  195.3620  172.1930  135.4810 C   0  0  1  0  0  0  0  0  0  0  0  0
  193.0490  171.7620  134.6110 C   0  0  0  0  0  1  0  0  0  0  0  0
  194.3840  173.0190  136.2350 N   0  0  0  0  0  0  0  0  0  0  0  0
  196.3120  173.6570  138.3580 C   0  0  0  0  0  2  0  0  0  0  0  0
  194.9880  173.2840  138.6500 O   0  0  0  0  0  0  0  0  0  0  0  0
  195.1610  174.5180  137.9910 C   0  0  2  0  0  3  0  0  0  0  0  0
  195.7920  174.8830  135.6170 O   0  0  0  0  0  0  0  0  0  0  0  0
  196.3620  175.9530  136.1440 O   0  0  0  0  0  1  0  0  0  0  0  0
  185.5770  178.7160  142.0950 C   0  0  1  0  0  3  0  0  0  0  0  0
  184.4200  177.9740  141.8370 O   0  0  0  0  0  0  0  0  0  0  0  0
  180.3670  177.4670  139.7060 C   0  0  0  0  0  1  0  0  0  0  0  0
  181.8180  179.1600  138.7710 C   0  0  2  0  0  3  0  0  0  0  0  0
  181.7340  177.9650  139.6360 N   0  0  0  0  0  0  0  0  0  0  0  0
  184.2510  178.9340  139.5870 C   0  0  1  0  0  3  0  0  0  0  0  0
  183.2490  179.7250  138.7150 C   0  0  0  0  0  2  0  0  0  0  0  0
  182.1870  178.2690  140.9930 C   0  0  0  0  0  2  0  0  0  0  0  0
  183.6380  178.7800  141.0020 C   0  0  1  0  0  3  0  0  0  0  0  0
  183.4360  177.0070  138.3740 C   0  0  0  0  0  2  0  0  0  0  0  0
  185.5050  177.8640  137.8720 C   0  0  0  0  0  2  0  0  0  0  0  0
  185.2900  176.7520  136.8730 C   0  0  0  0  0  2  0  0  0  0  0  0
  183.9040  176.2290  137.1640 C   0  0  2  0  0  3  0  0  0  0  0  0
  184.6060  177.6250  138.9970 N   0  0  1  0  0  0  0  0  0  0  0  0
  183.0310  176.4900  136.0720 O   0  0  0  0  0  0  0  0  0  0  0  0
  181.9770  175.6390  135.7340 C   0  0  0  0  0  0  0  0  0  0  0  0
  181.5650  174.6370  136.6560 N   0  0  0  0  0  1  0  0  0  0  0  0
  181.3910  175.7430  134.6210 O   0  0  0  0  0  0  0  0  0  0  0  0
  181.2200  181.4540  139.0970 O   0  0  0  0  0  0  0  0  0  0  0  0
  180.8480  180.2510  139.1390 C   0  0  0  0  0  0  0  0  0  0  0  0
  179.5430  179.9470  139.5080 O   0  0  0  0  0  1  0  0  0  0  0  0
  185.3540  179.5900  143.3280 C   0  0  0  0  0  2  0  0  0  0  0  0
  183.3180  179.0400  144.6130 C   0  0  0  0  0  1  0  0  0  0  0  0
  184.8050  178.7670  144.4810 C   0  0  2  0  0  3  0  0  0  0  0  0
  185.5160  179.1420  145.7720 C   0  0  0  0  0  2  0  0  0  0  0  0
  185.0790  178.2330  146.9050 C   0  0  0  0  0  1  0  0  0  0  0  0
  1  3  1  0  0  0  0
  2  4  1  0  0  0  0
  2  5  1  0  0  0  0
  4 30  1  1  0  0  0
  4  1  1  0  0  0  0
  5  3  1  0  0  0  0
  6  2  1  0  0  0  0
  7  9  1  0  0  0  0
  7  6  1  0  0  0  0
  9  8  1  6  0  0  0
 10  9  1  0  0  0  0
 11 10  1  0  0  0  0
 12 13  2  0  0  0  0
 13 17  1  0  0  0  0
 13 11  1  0  0  0  0
 14 13  2  0  0  0  0
 15 18  1  0  0  0  0
 15 17  1  0  0  0  0
 16 15  2  0  0  0  0
 18 28  1  6  0  0  0
 19 22  1  0  0  0  0
 20 23  1  1  0  0  0
 20 22  1  0  0  0  0
 20 24  1  0  0  0  0
 22 21  1  1  0  0  0
 22 24  1  0  0  0  0
 24 18  1  0  0  0  0
 25 26  1  0  0  0  0
 27 18  1  6  0  0  0
 27 25  1  0  0  0  0
 27 26  1  0  0  0  0
 28 29  1  0  0  0  0
 30 51  1  1  0  0  0
 31 30  1  0  0  0  0
 33 49  1  1  0  0  0
 33 34  1  0  0  0  0
 34 32  1  0  0  0  0
 34 37  1  0  0  0  0
 35 36  1  6  0  0  0
 35 38  1  0  0  0  0
 36 33  1  0  0  0  0
 37 38  1  0  0  0  0
 38 31  1  1  0  0  0
 39 43  1  0  0  0  0
 41 42  1  0  0  0  0
 41 40  1  0  0  0  0
 42 44  1  6  0  0  0
 42 39  1  0  0  0  0
 43 40  1  6  0  0  0
 43 35  1  0  0  0  0
 45 44  1  0  0  0  0
 45 46  1  0  0  0  0
 47 45  2  0  0  0  0
 48 49  2  0  0  0  0
 49 50  1  0  0  0  0
 51 53  1  0  0  0  0
 53 52  1  1  0  0  0
 53 54  1  0  0  0  0
 54 55  1  0  0  0  0
M  END
>  <MODEL>
9

>  <REMARK>
 VINA RESULT:      -3.9      2.885      9.394
  Name = 
  21 active torsions:
  status: ('A' for Active; 'I' for Inactive)
    1  A    between atoms: C_1  and  C_21
    2  A    between atoms: C_1  and  O_29
    3  A    between atoms: C_1  and  C_38
    4  A    between atoms: C_1  and  N_53
    5  A    between atoms: C_2  and  C_19
    6  A    between atoms: C_2  and  O_28
    7  A    between atoms: C_2  and  C_44
    8  A    between atoms: C_4  and  C_40
    9  A    between atoms: C_8  and  S_20
   10  A    between atoms: C_8  and  C_43
   11  A    between atoms: C_10  and  O_32
   12  A    between atoms: C_16  and  C_17
   13  A    between atoms: C_19  and  C_40
   14  A    between atoms: S_20  and  N_42
   15  A    between atoms: N_27  and  C_31
   16  A    between atoms: O_28  and  C_49
   17  A    between atoms: C_31  and  C_54
   18  A    between atoms: O_32  and  C_48
   19  A    between atoms: C_33  and  N_52
   20  A    between atoms: C_43  and  C_51
   21  A    between atoms: C_51  and  C_54
                            x       y       z     vdW  Elec       q    Type
                         _______ _______ _______ _____ _____    ______ ____

>  <TORSDO>
F 21

$$$$
