=
 OpenBabel10262421323D

 32 36  0  0  1  0  0  0  0  0999 V2000
  180.2520  179.2120  142.6990 C   0  0  1  0  0  3  0  0  0  0  0  0
  185.3300  178.0890  142.8250 C   0  0  2  0  0  3  0  0  0  0  0  0
  186.5420  178.4230  147.5180 C   0  0  0  0  0  3  0  0  0  0  0  0
  187.8040  177.9010  147.2160 C   0  0  0  0  0  3  0  0  0  0  0  0
  183.0440  178.6950  142.1590 C   0  0  0  0  0  0  0  0  0  0  0  0
  183.6490  178.8690  144.4970 N   0  0  0  0  0  0  0  0  0  0  0  0
  181.2890  179.4840  143.7820 C   0  0  0  0  0  2  0  0  0  0  0  0
  185.5930  178.5980  146.5070 C   0  0  0  0  0  3  0  0  0  0  0  0
  184.9840  178.4170  144.2160 C   0  0  0  0  0  0  0  0  0  0  0  0
  185.9040  178.2650  145.1790 C   0  0  0  0  0  0  0  0  0  0  0  0
  187.5470  177.4460  143.5820 C   0  0  0  0  0  0  0  0  0  0  0  0
  180.8080  179.5320  141.3130 C   0  0  0  0  0  2  0  0  0  0  0  0
  182.6790  178.9800  143.4380 C   0  0  0  0  0  0  0  0  0  0  0  0
  182.0630  178.7310  141.0150 C   0  0  0  0  0  2  0  0  0  0  0  0
  188.1310  177.5660  145.9050 C   0  0  0  0  0  3  0  0  0  0  0  0
  187.2040  177.7500  144.8640 C   0  0  0  0  0  0  0  0  0  0  0  0
  184.4170  178.2220  141.8600 C   0  0  0  0  0  3  0  0  0  0  0  0
  186.6170  177.6290  142.5420 O   0  0  0  0  0  0  0  0  0  0  0  0
  179.6890  177.7960  142.7760 C   0  0  0  0  0  2  0  0  0  0  0  0
  178.9310  177.4610  141.5740 N   0  0  0  0  0  2  0  0  0  0  0  0
  179.1100  176.2390  140.8850 N   0  0  0  0  0  0  0  0  0  0  0  0
  179.1560  175.1720  141.5360 O   0  0  0  0  0  0  0  0  0  0  0  0
  179.4280  176.2270  139.5420 O   0  0  0  0  0  0  0  0  0  0  0  0
  188.9170  176.9490  143.2220 C   0  0  0  0  0  2  0  0  0  0  0  0
  191.2120  177.8220  143.2110 C   0  0  1  0  0  3  0  0  0  0  0  0
  190.8720  177.7260  141.7900 C   0  0  2  0  0  3  0  0  0  0  0  0
  189.8080  178.0840  142.8120 N   0  0  0  0  0  0  0  0  0  0  0  0
  190.1040  177.0180  140.6270 C   0  0  0  0  0  3  0  0  0  0  0  0
  190.8940  176.0650  139.9650 O   0  0  0  0  0  1  0  0  0  0  0  0
  189.5840  177.9350  139.7160 O   0  0  0  0  0  1  0  0  0  0  0  0
  191.6130  176.4090  143.7090 C   0  0  0  0  0  2  0  0  0  0  0  0
  191.6880  176.4000  145.2410 C   0  0  0  0  0  1  0  0  0  0  0  0
  1 19  1  6  0  0  0
  1  7  1  0  0  0  0
  2 17  1  1  0  0  0
  2  9  1  0  0  0  0
  4  3  1  0  0  0  0
  5 13  1  0  0  0  0
  8  3  2  0  0  0  0
  9  6  1  0  0  0  0
  9 10  2  0  0  0  0
 10  8  1  0  0  0  0
 11 16  2  0  0  0  0
 12  1  1  0  0  0  0
 13  7  1  0  0  0  0
 13  6  2  0  0  0  0
 14 12  1  0  0  0  0
 14  5  1  0  0  0  0
 15  4  2  0  0  0  0
 16 10  1  0  0  0  0
 16 15  1  0  0  0  0
 17  5  2  0  0  0  0
 18  2  1  0  0  0  0
 18 11  1  0  0  0  0
 20 19  1  0  0  0  0
 21 22  2  0  0  0  0
 21 20  1  0  0  0  0
 23 21  2  0  0  0  0
 24 11  1  0  0  0  0
 25 31  1  1  0  0  0
 26 28  1  1  0  0  0
 26 27  1  0  0  0  0
 26 25  1  0  0  0  0
 27 25  1  0  0  0  0
 27 24  1  0  0  0  0
 29 28  1  0  0  0  0
 30 28  1  0  0  0  0
 31 32  1  0  0  0  0
M  END
>  <MODEL>
1

>  <REMARK>
 VINA RESULT:      -9.0      0.000      0.000
  Name = 
  7 active torsions:
  status: ('A' for Active; 'I' for Inactive)
    1  A    between atoms: N_1  and  N_10
    2  A    between atoms: C_2  and  C_24
    3  A    between atoms: C_6  and  C_7
    4  A    between atoms: N_10  and  C_24
    5  A    between atoms: C_11  and  C_22
    6  A    between atoms: C_16  and  C_27
    7  A    between atoms: C_27  and  N_32
                            x       y       z     vdW  Elec       q    Type
                         _______ _______ _______ _____ _____    ______ ____

>  <TORSDO>
F 7

$$$$
=
 OpenBabel10262421323D

 32 36  0  0  1  0  0  0  0  0999 V2000
  185.4540  178.3850  137.3790 C   0  0  1  0  0  3  0  0  0  0  0  0
  187.7620  177.7830  142.0020 C   0  0  0  0  0  0  0  0  0  0  0  0
  184.2850  178.7790  145.2460 C   0  0  0  0  0  3  0  0  0  0  0  0
  185.1350  178.3500  146.2700 C   0  0  0  0  0  3  0  0  0  0  0  0
  187.2590  178.0830  139.6160 C   0  0  0  0  0  0  0  0  0  0  0  0
  185.5280  178.5860  141.2320 N   0  0  0  0  0  2  0  0  0  0  0  0
  185.0310  178.8810  138.7570 C   0  0  0  0  0  2  0  0  0  0  0  0
  184.7120  178.7410  143.9160 C   0  0  0  0  0  3  0  0  0  0  0  0
  186.3990  178.2360  142.3190 C   0  0  0  0  0  0  0  0  0  0  0  0
  186.0020  178.2870  143.5990 C   0  0  0  0  0  0  0  0  0  0  0  0
  188.1500  177.4520  144.3770 C   0  0  0  0  0  0  0  0  0  0  0  0
  186.9500  178.5940  137.1540 C   0  0  0  0  0  2  0  0  0  0  0  0
  185.9820  178.4780  139.8690 C   0  0  0  0  0  0  0  0  0  0  0  0
  187.7780  177.8890  138.2140 C   0  0  0  0  0  2  0  0  0  0  0  0
  186.4190  177.8970  145.9750 C   0  0  0  0  0  3  0  0  0  0  0  0
  186.8830  177.8680  144.6480 C   0  0  0  0  0  0  0  0  0  0  0  0
  188.1640  177.7140  140.7310 C   0  0  0  0  0  3  0  0  0  0  0  0
  188.6120  177.4200  143.0490 O   0  0  0  0  0  0  0  0  0  0  0  0
  185.0350  176.9400  137.1280 C   0  0  0  0  0  2  0  0  0  0  0  0
  183.6410  176.7190  137.5040 N   0  0  0  0  0  2  0  0  0  0  0  0
  183.2520  175.6810  138.3820 N   0  0  0  0  0  0  0  0  0  0  0  0
  183.2270  174.5030  137.9610 O   0  0  0  0  0  0  0  0  0  0  0  0
  182.7190  175.9690  139.6210 O   0  0  0  0  0  0  0  0  0  0  0  0
  189.1050  177.0510  145.4640 C   0  0  0  0  0  2  0  0  0  0  0  0
  191.2120  177.6080  146.5970 C   0  0  1  0  0  3  0  0  0  0  0  0
  191.6400  177.1580  145.2710 C   0  0  2  0  0  3  0  0  0  0  0  0
  190.3340  177.9120  145.4410 N   0  0  0  0  0  0  0  0  0  0  0  0
  191.4310  176.2490  144.0170 C   0  0  0  0  0  3  0  0  0  0  0  0
  192.0800  175.0100  144.1390 O   0  0  0  0  0  1  0  0  0  0  0  0
  191.8230  176.8890  142.8420 O   0  0  0  0  0  1  0  0  0  0  0  0
  190.9250  176.3540  147.4640 C   0  0  0  0  0  2  0  0  0  0  0  0
  192.2200  175.5580  147.6690 C   0  0  0  0  0  1  0  0  0  0  0  0
  1 19  1  1  0  0  0
  1  7  1  0  0  0  0
  2  9  1  0  0  0  0
  2 18  1  0  0  0  0
  3  4  1  0  0  0  0
  5 13  2  0  0  0  0
  5 17  1  0  0  0  0
  6  9  1  0  0  0  0
  7 13  1  0  0  0  0
  8  3  2  0  0  0  0
  9 10  2  0  0  0  0
 10  8  1  0  0  0  0
 10 16  1  0  0  0  0
 11 16  2  0  0  0  0
 11 24  1  0  0  0  0
 12  1  1  0  0  0  0
 12 14  1  0  0  0  0
 13  6  1  0  0  0  0
 14  5  1  0  0  0  0
 15  4  2  0  0  0  0
 16 15  1  0  0  0  0
 17  2  2  0  0  0  0
 18 11  1  0  0  0  0
 19 20  1  0  0  0  0
 20 21  1  0  0  0  0
 21 23  2  0  0  0  0
 22 21  2  0  0  0  0
 25 31  1  1  0  0  0
 26 28  1  1  0  0  0
 26 27  1  0  0  0  0
 26 25  1  0  0  0  0
 27 24  1  0  0  0  0
 27 25  1  0  0  0  0
 28 29  1  0  0  0  0
 30 28  1  0  0  0  0
 31 32  1  0  0  0  0
M  END
>  <MODEL>
2

>  <REMARK>
 VINA RESULT:      -8.3      2.976      4.307
  Name = 
  7 active torsions:
  status: ('A' for Active; 'I' for Inactive)
    1  A    between atoms: N_1  and  N_10
    2  A    between atoms: C_2  and  C_24
    3  A    between atoms: C_6  and  C_7
    4  A    between atoms: N_10  and  C_24
    5  A    between atoms: C_11  and  C_22
    6  A    between atoms: C_16  and  C_27
    7  A    between atoms: C_27  and  N_32
                            x       y       z     vdW  Elec       q    Type
                         _______ _______ _______ _____ _____    ______ ____

>  <TORSDO>
F 7

$$$$
=
 OpenBabel10262421323D

 32 36  0  0  1  0  0  0  0  0999 V2000
  187.8700  177.9370  135.7510 C   0  0  1  0  0  3  0  0  0  0  0  0
  188.4420  177.6370  140.9130 C   0  0  0  0  0  0  0  0  0  0  0  0
  184.1550  179.0590  142.7050 C   0  0  0  0  0  3  0  0  0  0  0  0
  184.5800  178.6840  143.9840 C   0  0  0  0  0  3  0  0  0  0  0  0
  188.7920  177.7520  138.4840 C   0  0  0  0  0  0  0  0  0  0  0  0
  186.6590  178.4670  139.3760 N   0  0  0  0  0  2  0  0  0  0  0  0
  187.0450  178.5690  136.8660 C   0  0  0  0  0  2  0  0  0  0  0  0
  185.0010  178.8890  141.6050 C   0  0  0  0  0  3  0  0  0  0  0  0
  187.0870  178.1750  140.7170 C   0  0  0  0  0  0  0  0  0  0  0  0
  186.2870  178.3530  141.7780 C   0  0  0  0  0  0  0  0  0  0  0  0
  187.9840  177.4960  143.2950 C   0  0  0  0  0  0  0  0  0  0  0  0
  189.3660  178.0610  136.0360 C   0  0  0  0  0  2  0  0  0  0  0  0
  187.5360  178.2220  138.2600 C   0  0  0  0  0  0  0  0  0  0  0  0
  189.7380  177.4160  137.3590 C   0  0  0  0  0  2  0  0  0  0  0  0
  185.8530  178.1530  144.1740 C   0  0  0  0  0  3  0  0  0  0  0  0
  186.7330  177.9890  143.0900 C   0  0  0  0  0  0  0  0  0  0  0  0
  189.2420  177.4420  139.8630 C   0  0  0  0  0  3  0  0  0  0  0  0
  188.8620  177.3300  142.2080 O   0  0  0  0  0  0  0  0  0  0  0  0
  187.4600  176.4960  135.4690 C   0  0  0  0  0  2  0  0  0  0  0  0
  186.0580  176.2680  135.8080 N   0  0  0  0  0  2  0  0  0  0  0  0
  185.6660  175.3990  136.8520 N   0  0  0  0  0  0  0  0  0  0  0  0
  186.4400  174.4840  137.2080 O   0  0  0  0  0  0  0  0  0  0  0  0
  184.3760  175.4240  137.3420 O   0  0  0  0  0  0  0  0  0  0  0  0
  188.4880  177.1490  144.6660 C   0  0  0  0  0  2  0  0  0  0  0  0
  189.8110  177.9900  146.5570 C   0  0  1  0  0  3  0  0  0  0  0  0
  190.8190  177.4520  145.6410 C   0  0  2  0  0  3  0  0  0  0  0  0
  189.5600  178.1040  145.1000 N   0  0  0  0  0  0  0  0  0  0  0  0
  191.2430  176.4100  144.5560 C   0  0  0  0  0  3  0  0  0  0  0  0
  192.0400  175.3810  145.0820 O   0  0  0  0  0  1  0  0  0  0  0  0
  191.8830  177.0180  143.4770 O   0  0  0  0  0  1  0  0  0  0  0  0
  189.1930  176.8060  147.3460 C   0  0  0  0  0  2  0  0  0  0  0  0
  188.1720  177.3360  148.3610 C   0  0  0  0  0  1  0  0  0  0  0  0
  1 19  1  1  0  0  0
  1 12  1  0  0  0  0
  1  7  1  0  0  0  0
  2 18  1  0  0  0  0
  3  4  1  0  0  0  0
  4 15  2  0  0  0  0
  5 17  1  0  0  0  0
  6  9  1  0  0  0  0
  7 13  1  0  0  0  0
  8 10  1  0  0  0  0
  8  3  2  0  0  0  0
  9  2  1  0  0  0  0
  9 10  2  0  0  0  0
 10 16  1  0  0  0  0
 11 24  1  0  0  0  0
 12 14  1  0  0  0  0
 13  5  2  0  0  0  0
 13  6  1  0  0  0  0
 14  5  1  0  0  0  0
 16 11  2  0  0  0  0
 16 15  1  0  0  0  0
 17  2  2  0  0  0  0
 18 11  1  0  0  0  0
 19 20  1  0  0  0  0
 20 21  1  0  0  0  0
 21 22  2  0  0  0  0
 21 23  2  0  0  0  0
 24 27  1  0  0  0  0
 25 31  1  1  0  0  0
 26 28  1  1  0  0  0
 26 25  1  0  0  0  0
 27 26  1  0  0  0  0
 27 25  1  0  0  0  0
 28 29  1  0  0  0  0
 30 28  1  0  0  0  0
 31 32  1  0  0  0  0
M  END
>  <MODEL>
3

>  <REMARK>
 VINA RESULT:      -8.2      3.686      6.046
  Name = 
  7 active torsions:
  status: ('A' for Active; 'I' for Inactive)
    1  A    between atoms: N_1  and  N_10
    2  A    between atoms: C_2  and  C_24
    3  A    between atoms: C_6  and  C_7
    4  A    between atoms: N_10  and  C_24
    5  A    between atoms: C_11  and  C_22
    6  A    between atoms: C_16  and  C_27
    7  A    between atoms: C_27  and  N_32
                            x       y       z     vdW  Elec       q    Type
                         _______ _______ _______ _____ _____    ______ ____

>  <TORSDO>
F 7

$$$$
=
 OpenBabel10262421323D

 32 36  0  0  1  0  0  0  0  0999 V2000
  180.5250  178.5480  140.6960 C   0  0  1  0  0  3  0  0  0  0  0  0
  185.5040  178.3650  142.1950 C   0  0  2  0  0  3  0  0  0  0  0  0
  185.3230  178.3910  147.0500 C   0  0  0  0  0  3  0  0  0  0  0  0
  186.6990  178.1450  147.0900 C   0  0  0  0  0  3  0  0  0  0  0  0
  183.4040  178.6140  140.9430 C   0  0  0  0  0  0  0  0  0  0  0  0
  183.3140  178.6340  143.3620 N   0  0  0  0  0  0  0  0  0  0  0  0
  181.1560  178.8830  142.0430 C   0  0  0  0  0  2  0  0  0  0  0  0
  184.6630  178.5010  145.8230 C   0  0  0  0  0  3  0  0  0  0  0  0
  184.7390  178.4680  143.4470 C   0  0  0  0  0  0  0  0  0  0  0  0
  185.3800  178.3800  144.6210 C   0  0  0  0  0  0  0  0  0  0  0  0
  187.5210  178.0580  143.5130 C   0  0  0  0  0  0  0  0  0  0  0  0
  181.3530  179.1170  139.5450 C   0  0  0  0  0  2  0  0  0  0  0  0
  182.6600  178.6830  142.0800 C   0  0  0  0  0  0  0  0  0  0  0  0
  182.7790  178.5970  139.5710 C   0  0  0  0  0  2  0  0  0  0  0  0
  187.4260  178.0230  145.9090 C   0  0  0  0  0  3  0  0  0  0  0  0
  186.7940  178.1500  144.6600 C   0  0  0  0  0  0  0  0  0  0  0  0
  184.8740  178.4360  141.0200 C   0  0  0  0  0  3  0  0  0  0  0  0
  186.8860  178.1820  142.2640 O   0  0  0  0  0  0  0  0  0  0  0  0
  180.2670  177.0540  140.5310 C   0  0  0  0  0  2  0  0  0  0  0  0
  179.7460  176.7500  139.2010 N   0  0  0  0  0  2  0  0  0  0  0  0
  180.3510  175.7910  138.3550 N   0  0  0  0  0  0  0  0  0  0  0  0
  179.6640  175.2420  137.4660 O   0  0  0  0  0  0  0  0  0  0  0  0
  181.6180  175.3150  138.6230 O   0  0  0  0  0  0  0  0  0  0  0  0
  189.0100  177.8620  143.5290 C   0  0  0  0  0  2  0  0  0  0  0  0
  190.2330  176.0670  142.3830 C   0  0  1  0  0  3  0  0  0  0  0  0
  190.8330  176.0960  143.7190 C   0  0  2  0  0  3  0  0  0  0  0  0
  189.3580  176.4030  143.5320 N   0  0  0  0  0  0  0  0  0  0  0  0
  191.2610  176.8940  144.9930 C   0  0  0  0  0  3  0  0  0  0  0  0
  192.0370  178.0220  144.6830 O   0  0  0  0  0  1  0  0  0  0  0  0
  191.9270  176.0830  145.9110 O   0  0  0  0  0  1  0  0  0  0  0  0
  190.8630  177.2110  141.5450 C   0  0  0  0  0  2  0  0  0  0  0  0
  190.3310  177.1540  140.1080 C   0  0  0  0  0  1  0  0  0  0  0  0
  1 19  1  6  0  0  0
  1  7  1  0  0  0  0
  2 17  1  1  0  0  0
  2 18  1  0  0  0  0
  2  9  1  0  0  0  0
  3  4  1  0  0  0  0
  5 17  2  0  0  0  0
  5 13  1  0  0  0  0
  6  9  1  0  0  0  0
  7 13  1  0  0  0  0
  8  3  2  0  0  0  0
  9 10  2  0  0  0  0
 10 16  1  0  0  0  0
 10  8  1  0  0  0  0
 11 24  1  0  0  0  0
 11 16  2  0  0  0  0
 12 14  1  0  0  0  0
 12  1  1  0  0  0  0
 13  6  2  0  0  0  0
 14  5  1  0  0  0  0
 15  4  2  0  0  0  0
 16 15  1  0  0  0  0
 18 11  1  0  0  0  0
 20 19  1  0  0  0  0
 21 23  2  0  0  0  0
 21 20  1  0  0  0  0
 22 21  2  0  0  0  0
 24 27  1  0  0  0  0
 25 31  1  6  0  0  0
 25 27  1  0  0  0  0
 25 26  1  0  0  0  0
 26 28  1  6  0  0  0
 27 26  1  0  0  0  0
 28 30  1  0  0  0  0
 29 28  1  0  0  0  0
 32 31  1  0  0  0  0
M  END
>  <MODEL>
4

>  <REMARK>
 VINA RESULT:      -8.1      1.939      2.608
  Name = 
  7 active torsions:
  status: ('A' for Active; 'I' for Inactive)
    1  A    between atoms: N_1  and  N_10
    2  A    between atoms: C_2  and  C_24
    3  A    between atoms: C_6  and  C_7
    4  A    between atoms: N_10  and  C_24
    5  A    between atoms: C_11  and  C_22
    6  A    between atoms: C_16  and  C_27
    7  A    between atoms: C_27  and  N_32
                            x       y       z     vdW  Elec       q    Type
                         _______ _______ _______ _____ _____    ______ ____

>  <TORSDO>
F 7

$$$$
=
 OpenBabel10262421323D

 32 36  0  0  1  0  0  0  0  0999 V2000
  187.6530  177.7520  136.0500 C   0  0  1  0  0  3  0  0  0  0  0  0
  187.8670  178.2330  141.2260 C   0  0  0  0  0  0  0  0  0  0  0  0
  183.2390  178.7920  142.5960 C   0  0  0  0  0  3  0  0  0  0  0  0
  183.6360  178.6900  143.9330 C   0  0  0  0  0  3  0  0  0  0  0  0
  188.3730  178.1300  138.8240 C   0  0  0  0  0  0  0  0  0  0  0  0
  186.0680  178.4150  139.5050 N   0  0  0  0  0  2  0  0  0  0  0  0
  186.6180  178.2980  137.0270 C   0  0  0  0  0  2  0  0  0  0  0  0
  184.1850  178.6960  141.5720 C   0  0  0  0  0  3  0  0  0  0  0  0
  186.4440  178.4010  140.8920 C   0  0  0  0  0  0  0  0  0  0  0  0
  185.5430  178.5110  141.8790 C   0  0  0  0  0  0  0  0  0  0  0  0
  187.2670  178.2790  143.5790 C   0  0  0  0  0  0  0  0  0  0  0  0
  189.0520  178.2650  136.3870 C   0  0  0  0  0  2  0  0  0  0  0  0
  187.0630  178.2530  138.4770 C   0  0  0  0  0  0  0  0  0  0  0  0
  189.4570  177.8950  137.8020 C   0  0  0  0  0  2  0  0  0  0  0  0
  184.9780  178.5070  144.2560 C   0  0  0  0  0  3  0  0  0  0  0  0
  185.9550  178.4280  143.2480 C   0  0  0  0  0  0  0  0  0  0  0  0
  188.7710  178.1080  140.2520 C   0  0  0  0  0  3  0  0  0  0  0  0
  188.2430  178.1970  142.5690 O   0  0  0  0  0  0  0  0  0  0  0  0
  187.6120  176.2300  135.9500 C   0  0  0  0  0  2  0  0  0  0  0  0
  186.2410  175.7310  136.0250 N   0  0  0  0  0  2  0  0  0  0  0  0
  185.8770  174.6500  136.8600 N   0  0  0  0  0  0  0  0  0  0  0  0
  184.7570  174.6590  137.4180 O   0  0  0  0  0  0  0  0  0  0  0  0
  186.8050  173.6940  137.2190 O   0  0  0  0  0  0  0  0  0  0  0  0
  187.7270  178.2350  145.0080 C   0  0  0  0  0  2  0  0  0  0  0  0
  189.9140  177.1300  145.1690 C   0  0  1  0  0  3  0  0  0  0  0  0
  189.3550  176.9880  146.5150 C   0  0  2  0  0  3  0  0  0  0  0  0
  188.4480  176.9510  145.2990 N   0  0  0  0  0  0  0  0  0  0  0  0
  188.4650  177.5390  147.6760 C   0  0  0  0  0  3  0  0  0  0  0  0
  189.1420  178.4760  148.4720 O   0  0  0  0  0  1  0  0  0  0  0  0
  187.9500  176.5120  148.4660 O   0  0  0  0  0  1  0  0  0  0  0  0
  190.4990  178.5600  145.0370 C   0  0  0  0  0  2  0  0  0  0  0  0
  191.5950  178.5760  143.9640 C   0  0  0  0  0  1  0  0  0  0  0  0
  1 19  1  1  0  0  0
  1 12  1  0  0  0  0
  1  7  1  0  0  0  0
  2 18  1  0  0  0  0
  3  4  1  0  0  0  0
  4 15  2  0  0  0  0
  5 17  1  0  0  0  0
  6  9  1  0  0  0  0
  7 13  1  0  0  0  0
  8 10  1  0  0  0  0
  8  3  2  0  0  0  0
  9  2  1  0  0  0  0
  9 10  2  0  0  0  0
 10 16  1  0  0  0  0
 11 24  1  0  0  0  0
 12 14  1  0  0  0  0
 13  5  2  0  0  0  0
 13  6  1  0  0  0  0
 14  5  1  0  0  0  0
 16 11  2  0  0  0  0
 16 15  1  0  0  0  0
 17  2  2  0  0  0  0
 18 11  1  0  0  0  0
 19 20  1  0  0  0  0
 20 21  1  0  0  0  0
 21 23  2  0  0  0  0
 21 22  2  0  0  0  0
 24 27  1  0  0  0  0
 25 31  1  1  0  0  0
 25 27  1  0  0  0  0
 25 26  1  0  0  0  0
 26 28  1  1  0  0  0
 27 26  1  0  0  0  0
 28 30  1  0  0  0  0
 28 29  1  0  0  0  0
 32 31  1  0  0  0  0
M  END
>  <MODEL>
5

>  <REMARK>
 VINA RESULT:      -7.8      3.862      6.307
  Name = 
  7 active torsions:
  status: ('A' for Active; 'I' for Inactive)
    1  A    between atoms: N_1  and  N_10
    2  A    between atoms: C_2  and  C_24
    3  A    between atoms: C_6  and  C_7
    4  A    between atoms: N_10  and  C_24
    5  A    between atoms: C_11  and  C_22
    6  A    between atoms: C_16  and  C_27
    7  A    between atoms: C_27  and  N_32
                            x       y       z     vdW  Elec       q    Type
                         _______ _______ _______ _____ _____    ______ ____

>  <TORSDO>
F 7

$$$$
=
 OpenBabel10262421323D

 32 36  0  0  1  0  0  0  0  0999 V2000
  180.4170  179.2010  139.8340 C   0  0  1  0  0  3  0  0  0  0  0  0
  185.1440  178.2490  141.7850 C   0  0  2  0  0  3  0  0  0  0  0  0
  184.5830  178.6230  146.5960 C   0  0  0  0  0  3  0  0  0  0  0  0
  185.8840  178.1430  146.7730 C   0  0  0  0  0  3  0  0  0  0  0  0
  183.2320  178.7790  140.3370 C   0  0  0  0  0  0  0  0  0  0  0  0
  182.9520  178.9720  142.7340 N   0  0  0  0  0  0  0  0  0  0  0  0
  180.9870  179.5080  141.2140 C   0  0  0  0  0  2  0  0  0  0  0  0
  184.0540  178.7660  145.3100 C   0  0  0  0  0  3  0  0  0  0  0  0
  184.3120  178.5650  142.9560 C   0  0  0  0  0  0  0  0  0  0  0  0
  184.8310  178.4430  144.1860 C   0  0  0  0  0  0  0  0  0  0  0  0
  186.9610  177.6800  143.2940 C   0  0  0  0  0  0  0  0  0  0  0  0
  181.4230  179.5400  138.7350 C   0  0  0  0  0  2  0  0  0  0  0  0
  182.4230  179.0510  141.3970 C   0  0  0  0  0  0  0  0  0  0  0  0
  182.7250  178.7820  138.9170 C   0  0  0  0  0  2  0  0  0  0  0  0
  186.6700  177.8190  145.6700 C   0  0  0  0  0  3  0  0  0  0  0  0
  186.1730  177.9730  144.3640 C   0  0  0  0  0  0  0  0  0  0  0  0
  184.6350  178.3520  140.5550 C   0  0  0  0  0  3  0  0  0  0  0  0
  186.4610  177.8320  141.9880 O   0  0  0  0  0  0  0  0  0  0  0  0
  179.9080  177.7680  139.7210 C   0  0  0  0  0  2  0  0  0  0  0  0
  179.4760  177.4640  138.3590 N   0  0  0  0  0  2  0  0  0  0  0  0
  179.8280  176.2600  137.7070 N   0  0  0  0  0  0  0  0  0  0  0  0
  181.0070  175.8490  137.7770 O   0  0  0  0  0  0  0  0  0  0  0  0
  178.9460  175.6440  136.8430 O   0  0  0  0  0  0  0  0  0  0  0  0
  188.3840  177.2290  143.4550 C   0  0  0  0  0  2  0  0  0  0  0  0
  190.1920  178.3550  144.6780 C   0  0  1  0  0  3  0  0  0  0  0  0
  190.7920  178.0500  143.3760 C   0  0  2  0  0  3  0  0  0  0  0  0
  189.3190  178.4020  143.4800 N   0  0  0  0  0  0  0  0  0  0  0  0
  190.9070  177.1240  142.1230 C   0  0  0  0  0  3  0  0  0  0  0  0
  190.9880  175.7650  142.4650 O   0  0  0  0  0  1  0  0  0  0  0  0
  191.9800  177.4850  141.3090 O   0  0  0  0  0  1  0  0  0  0  0  0
  190.2320  177.0670  145.5410 C   0  0  0  0  0  2  0  0  0  0  0  0
  191.6710  176.7930  145.9970 C   0  0  0  0  0  1  0  0  0  0  0  0
  1 19  1  1  0  0  0
  1  7  1  0  0  0  0
  2 17  1  1  0  0  0
  2 18  1  0  0  0  0
  2  9  1  0  0  0  0
  3  4  1  0  0  0  0
  5 17  2  0  0  0  0
  5 13  1  0  0  0  0
  6  9  1  0  0  0  0
  7 13  1  0  0  0  0
  8  3  2  0  0  0  0
  9 10  2  0  0  0  0
 10 16  1  0  0  0  0
 10  8  1  0  0  0  0
 11 24  1  0  0  0  0
 11 16  2  0  0  0  0
 12 14  1  0  0  0  0
 12  1  1  0  0  0  0
 13  6  2  0  0  0  0
 14  5  1  0  0  0  0
 15  4  2  0  0  0  0
 16 15  1  0  0  0  0
 18 11  1  0  0  0  0
 20 19  1  0  0  0  0
 21 22  2  0  0  0  0
 21 20  1  0  0  0  0
 23 21  2  0  0  0  0
 24 27  1  0  0  0  0
 25 31  1  1  0  0  0
 26 28  1  1  0  0  0
 26 27  1  0  0  0  0
 26 25  1  0  0  0  0
 27 25  1  0  0  0  0
 28 29  1  0  0  0  0
 30 28  1  0  0  0  0
 31 32  1  0  0  0  0
M  END
>  <MODEL>
6

>  <REMARK>
 VINA RESULT:      -7.5      1.780      2.165
  Name = 
  7 active torsions:
  status: ('A' for Active; 'I' for Inactive)
    1  A    between atoms: N_1  and  N_10
    2  A    between atoms: C_2  and  C_24
    3  A    between atoms: C_6  and  C_7
    4  A    between atoms: N_10  and  C_24
    5  A    between atoms: C_11  and  C_22
    6  A    between atoms: C_16  and  C_27
    7  A    between atoms: C_27  and  N_32
                            x       y       z     vdW  Elec       q    Type
                         _______ _______ _______ _____ _____    ______ ____

>  <TORSDO>
F 7

$$$$
=
 OpenBabel10262421323D

 32 36  0  0  1  0  0  0  0  0999 V2000
  191.8360  177.3380  143.7010 C   0  0  1  0  0  3  0  0  0  0  0  0
  187.7490  178.3300  140.6390 C   0  0  0  0  0  0  0  0  0  0  0  0
  188.9370  176.3960  136.3440 C   0  0  0  0  0  3  0  0  0  0  0  0
  187.6400  176.6490  135.8850 C   0  0  0  0  0  3  0  0  0  0  0  0
  189.4190  178.3000  142.4400 C   0  0  0  0  0  0  0  0  0  0  0  0
  190.0150  177.3420  140.2980 N   0  0  0  0  0  2  0  0  0  0  0  0
  191.7230  177.3170  142.1810 C   0  0  0  0  0  2  0  0  0  0  0  0
  189.3010  176.7380  137.6490 C   0  0  0  0  0  3  0  0  0  0  0  0
  188.7220  177.6630  139.7610 C   0  0  0  0  0  0  0  0  0  0  0  0
  188.3720  177.3530  138.5040 C   0  0  0  0  0  0  0  0  0  0  0  0
  186.1370  178.2570  138.8240 C   0  0  0  0  0  0  0  0  0  0  0  0
  191.1330  178.5600  144.2880 C   0  0  0  0  0  2  0  0  0  0  0  0
  190.3350  177.6560  141.6670 C   0  0  0  0  0  0  0  0  0  0  0  0
  189.6670  178.6030  143.8970 C   0  0  0  0  0  2  0  0  0  0  0  0
  186.7060  177.2600  136.7190 C   0  0  0  0  0  3  0  0  0  0  0  0
  187.0500  177.6340  138.0300 C   0  0  0  0  0  0  0  0  0  0  0  0
  188.0800  178.6300  141.8970 C   0  0  0  0  0  3  0  0  0  0  0  0
  186.4810  178.6280  140.1360 O   0  0  0  0  0  0  0  0  0  0  0  0
  191.3520  176.0390  144.3370 C   0  0  0  0  0  2  0  0  0  0  0  0
  192.0500  175.7700  145.5910 N   0  0  0  0  0  2  0  0  0  0  0  0
  191.6300  176.3250  146.8220 N   0  0  0  0  0  0  0  0  0  0  0  0
  192.4410  176.3900  147.7720 O   0  0  0  0  0  0  0  0  0  0  0  0
  190.2990  176.6120  147.0470 O   0  0  0  0  0  0  0  0  0  0  0  0
  184.7600  178.6020  138.3330 C   0  0  0  0  0  2  0  0  0  0  0  0
  182.8270  180.0890  138.6250 C   0  0  1  0  0  3  0  0  0  0  0  0
  182.9230  179.3900  139.9090 C   0  0  2  0  0  3  0  0  0  0  0  0
  184.1770  179.7340  139.1260 N   0  0  0  0  0  0  0  0  0  0  0  0
  183.2880  178.1100  140.7290 C   0  0  0  0  0  3  0  0  0  0  0  0
  182.5070  177.0010  140.3690 O   0  0  0  0  0  1  0  0  0  0  0  0
  183.2090  178.3360  142.1020 O   0  0  0  0  0  1  0  0  0  0  0  0
  182.1180  179.1490  137.6150 C   0  0  0  0  0  2  0  0  0  0  0  0
  180.6530  178.9560  138.0270 C   0  0  0  0  0  1  0  0  0  0  0  0
  1 12  1  0  0  0  0
  1 19  1  1  0  0  0
  2 17  2  0  0  0  0
  3  8  2  0  0  0  0
  4  3  1  0  0  0  0
  4 15  2  0  0  0  0
  5 14  1  0  0  0  0
  6 13  1  0  0  0  0
  7  1  1  0  0  0  0
  8 10  1  0  0  0  0
  9  6  1  0  0  0  0
  9  2  1  0  0  0  0
 10  9  2  0  0  0  0
 11 18  1  0  0  0  0
 13  7  1  0  0  0  0
 13  5  2  0  0  0  0
 14 12  1  0  0  0  0
 15 16  1  0  0  0  0
 16 10  1  0  0  0  0
 16 11  2  0  0  0  0
 17  5  1  0  0  0  0
 18  2  1  0  0  0  0
 19 20  1  0  0  0  0
 20 21  1  0  0  0  0
 21 23  2  0  0  0  0
 21 22  2  0  0  0  0
 24 11  1  0  0  0  0
 24 27  1  0  0  0  0
 25 31  1  6  0  0  0
 25 27  1  0  0  0  0
 25 26  1  0  0  0  0
 26 28  1  6  0  0  0
 27 26  1  0  0  0  0
 28 30  1  0  0  0  0
 29 28  1  0  0  0  0
 31 32  1  0  0  0  0
M  END
>  <MODEL>
7

>  <REMARK>
 VINA RESULT:      -7.2      3.535      9.508
  Name = 
  7 active torsions:
  status: ('A' for Active; 'I' for Inactive)
    1  A    between atoms: N_1  and  N_10
    2  A    between atoms: C_2  and  C_24
    3  A    between atoms: C_6  and  C_7
    4  A    between atoms: N_10  and  C_24
    5  A    between atoms: C_11  and  C_22
    6  A    between atoms: C_16  and  C_27
    7  A    between atoms: C_27  and  N_32
                            x       y       z     vdW  Elec       q    Type
                         _______ _______ _______ _____ _____    ______ ____

>  <TORSDO>
F 7

$$$$
=
 OpenBabel10262421323D

 32 36  0  0  1  0  0  0  0  0999 V2000
  191.4620  175.8760  136.3470 C   0  0  1  0  0  3  0  0  0  0  0  0
  188.8690  177.7730  140.4390 C   0  0  0  0  0  0  0  0  0  0  0  0
  184.4490  178.8160  138.7120 C   0  0  0  0  0  3  0  0  0  0  0  0
  184.0160  179.0790  140.0160 C   0  0  0  0  0  3  0  0  0  0  0  0
  190.5870  176.9910  138.8660 C   0  0  0  0  0  0  0  0  0  0  0  0
  188.3870  177.5170  138.0030 N   0  0  0  0  0  2  0  0  0  0  0  0
  190.1800  176.7000  136.3980 C   0  0  0  0  0  2  0  0  0  0  0  0
  185.7670  178.4130  138.4770 C   0  0  0  0  0  3  0  0  0  0  0  0
  187.9260  177.8800  139.3150 C   0  0  0  0  0  0  0  0  0  0  0  0
  186.6690  178.2840  139.5450 C   0  0  0  0  0  0  0  0  0  0  0  0
  187.0910  178.4880  141.9310 C   0  0  0  0  0  0  0  0  0  0  0  0
  192.5080  176.4250  137.3150 C   0  0  0  0  0  2  0  0  0  0  0  0
  189.7350  177.0490  137.8070 C   0  0  0  0  0  0  0  0  0  0  0  0
  191.9900  176.4530  138.7410 C   0  0  0  0  0  2  0  0  0  0  0  0
  184.8970  178.9580  141.0870 C   0  0  0  0  0  3  0  0  0  0  0  0
  186.2330  178.5750  140.8790 C   0  0  0  0  0  0  0  0  0  0  0  0
  190.1190  177.3570  140.2240 C   0  0  0  0  0  3  0  0  0  0  0  0
  188.4280  178.1020  141.7210 O   0  0  0  0  0  0  0  0  0  0  0  0
  191.2050  174.3880  136.5660 C   0  0  0  0  0  2  0  0  0  0  0  0
  192.1080  173.5700  135.7620 N   0  0  0  0  0  2  0  0  0  0  0  0
  193.1590  172.8190  136.3370 N   0  0  0  0  0  0  0  0  0  0  0  0
  193.3300  171.6330  135.9770 O   0  0  0  0  0  0  0  0  0  0  0  0
  193.8650  173.3070  137.4180 O   0  0  0  0  0  0  0  0  0  0  0  0
  186.6690  178.8310  143.3320 C   0  0  0  0  0  2  0  0  0  0  0  0
  187.2060  177.0310  144.9140 C   0  0  1  0  0  3  0  0  0  0  0  0
  186.0990  177.7420  145.5600 C   0  0  2  0  0  3  0  0  0  0  0  0
  186.1540  177.6180  144.0480 N   0  0  0  0  0  0  0  0  0  0  0  0
  185.3210  179.0680  145.8360 C   0  0  0  0  0  3  0  0  0  0  0  0
  185.6810  179.6570  147.0580 O   0  0  0  0  0  1  0  0  0  0  0  0
  183.9410  178.8810  145.7750 O   0  0  0  0  0  1  0  0  0  0  0  0
  188.5100  177.8280  145.1760 C   0  0  0  0  0  2  0  0  0  0  0  0
  188.8020  177.8660  146.6810 C   0  0  0  0  0  1  0  0  0  0  0  0
  1  7  1  0  0  0  0
  1 19  1  1  0  0  0
  1 12  1  0  0  0  0
  2 18  1  0  0  0  0
  3  4  1  0  0  0  0
  4 15  2  0  0  0  0
  5 17  1  0  0  0  0
  6  9  1  0  0  0  0
  7 13  1  0  0  0  0
  8  3  2  0  0  0  0
  8 10  1  0  0  0  0
  9 10  2  0  0  0  0
  9  2  1  0  0  0  0
 10 16  1  0  0  0  0
 11 24  1  0  0  0  0
 12 14  1  0  0  0  0
 13  6  1  0  0  0  0
 13  5  2  0  0  0  0
 14  5  1  0  0  0  0
 16 15  1  0  0  0  0
 16 11  2  0  0  0  0
 17  2  2  0  0  0  0
 18 11  1  0  0  0  0
 20 21  1  0  0  0  0
 20 19  1  0  0  0  0
 21 23  2  0  0  0  0
 22 21  2  0  0  0  0
 24 27  1  0  0  0  0
 25 31  1  6  0  0  0
 25 26  1  0  0  0  0
 26 28  1  6  0  0  0
 27 25  1  0  0  0  0
 27 26  1  0  0  0  0
 28 29  1  0  0  0  0
 30 28  1  0  0  0  0
 31 32  1  0  0  0  0
M  END
>  <MODEL>
8

>  <REMARK>
 VINA RESULT:      -7.1      3.819      9.064
  Name = 
  7 active torsions:
  status: ('A' for Active; 'I' for Inactive)
    1  A    between atoms: N_1  and  N_10
    2  A    between atoms: C_2  and  C_24
    3  A    between atoms: C_6  and  C_7
    4  A    between atoms: N_10  and  C_24
    5  A    between atoms: C_11  and  C_22
    6  A    between atoms: C_16  and  C_27
    7  A    between atoms: C_27  and  N_32
                            x       y       z     vdW  Elec       q    Type
                         _______ _______ _______ _____ _____    ______ ____

>  <TORSDO>
F 7

$$$$
=
 OpenBabel10262421323D

 32 36  0  0  1  0  0  0  0  0999 V2000
  181.0500  179.7510  138.1770 C   0  0  1  0  0  3  0  0  0  0  0  0
  184.6250  178.6030  141.7780 C   0  0  0  0  0  0  0  0  0  0  0  0
  188.7530  178.0550  139.2760 C   0  0  0  0  0  3  0  0  0  0  0  0
  189.4570  177.9700  140.4810 C   0  0  0  0  0  3  0  0  0  0  0  0
  182.5430  178.9940  140.5340 C   0  0  0  0  0  0  0  0  0  0  0  0
  184.5980  178.7140  139.2850 N   0  0  0  0  0  2  0  0  0  0  0  0
  182.4310  179.1250  138.0220 C   0  0  0  0  0  2  0  0  0  0  0  0
  187.3680  178.2440  139.2820 C   0  0  0  0  0  3  0  0  0  0  0  0
  185.3470  178.5350  140.4990 C   0  0  0  0  0  0  0  0  0  0  0  0
  186.6720  178.3360  140.4990 C   0  0  0  0  0  0  0  0  0  0  0  0
  186.7400  178.2810  142.9290 C   0  0  0  0  0  0  0  0  0  0  0  0
  180.3010  179.1450  139.3630 C   0  0  0  0  0  2  0  0  0  0  0  0
  183.1810  178.9670  139.3330 C   0  0  0  0  0  0  0  0  0  0  0  0
  181.0750  179.3140  140.6580 C   0  0  0  0  0  2  0  0  0  0  0  0
  188.7840  178.0570  141.6960 C   0  0  0  0  0  3  0  0  0  0  0  0
  187.3890  178.2270  141.7340 C   0  0  0  0  0  0  0  0  0  0  0  0
  183.3070  178.8170  141.7920 C   0  0  0  0  0  3  0  0  0  0  0  0
  185.3440  178.4530  142.9650 O   0  0  0  0  0  0  0  0  0  0  0  0
  181.1070  181.2730  138.2560 C   0  0  0  0  0  2  0  0  0  0  0  0
  180.4200  181.8890  137.1240 N   0  0  0  0  0  2  0  0  0  0  0  0
  180.8510  183.1080  136.5520 N   0  0  0  0  0  0  0  0  0  0  0  0
  180.8010  183.2520  135.3110 O   0  0  0  0  0  0  0  0  0  0  0  0
  181.5020  184.0540  137.3180 O   0  0  0  0  0  0  0  0  0  0  0  0
  187.4640  178.1240  144.2360 C   0  0  0  0  0  2  0  0  0  0  0  0
  187.6220  176.7650  146.2750 C   0  0  1  0  0  3  0  0  0  0  0  0
  186.4530  177.6140  146.5150 C   0  0  2  0  0  3  0  0  0  0  0  0
  186.7720  177.1230  145.1140 N   0  0  0  0  0  0  0  0  0  0  0  0
  185.7010  178.9690  146.3150 C   0  0  0  0  0  3  0  0  0  0  0  0
  185.9880  179.8960  147.3290 O   0  0  0  0  0  1  0  0  0  0  0  0
  184.3240  178.7850  146.2000 O   0  0  0  0  0  1  0  0  0  0  0  0
  188.8950  177.6000  146.5750 C   0  0  0  0  0  2  0  0  0  0  0  0
  188.9680  177.9130  148.0740 C   0  0  0  0  0  1  0  0  0  0  0  0
  1 19  1  1  0  0  0
  1 12  1  0  0  0  0
  2 17  2  0  0  0  0
  2 18  1  0  0  0  0
  3  8  2  0  0  0  0
  3  4  1  0  0  0  0
  4 15  2  0  0  0  0
  5 14  1  0  0  0  0
  5 17  1  0  0  0  0
  6 13  1  0  0  0  0
  6  9  1  0  0  0  0
  7  1  1  0  0  0  0
  7 13  1  0  0  0  0
  8 10  1  0  0  0  0
  9  2  1  0  0  0  0
 10  9  2  0  0  0  0
 10 16  1  0  0  0  0
 11 18  1  0  0  0  0
 11 24  1  0  0  0  0
 12 14  1  0  0  0  0
 13  5  2  0  0  0  0
 15 16  1  0  0  0  0
 16 11  2  0  0  0  0
 20 19  1  0  0  0  0
 21 20  1  0  0  0  0
 21 23  2  0  0  0  0
 22 21  2  0  0  0  0
 24 27  1  0  0  0  0
 25 26  1  0  0  0  0
 25 31  1  6  0  0  0
 26 28  1  6  0  0  0
 27 25  1  0  0  0  0
 27 26  1  0  0  0  0
 28 29  1  0  0  0  0
 30 28  1  0  0  0  0
 31 32  1  0  0  0  0
M  END
>  <MODEL>
9

>  <REMARK>
 VINA RESULT:      -7.1      3.616      5.647
  Name = 
  7 active torsions:
  status: ('A' for Active; 'I' for Inactive)
    1  A    between atoms: N_1  and  N_10
    2  A    between atoms: C_2  and  C_24
    3  A    between atoms: C_6  and  C_7
    4  A    between atoms: N_10  and  C_24
    5  A    between atoms: C_11  and  C_22
    6  A    between atoms: C_16  and  C_27
    7  A    between atoms: C_27  and  N_32
                            x       y       z     vdW  Elec       q    Type
                         _______ _______ _______ _____ _____    ______ ____

>  <TORSDO>
F 7

$$$$
