=
 OpenBabel10262422493D

 37 42  0  0  1  0  0  0  0  0999 V2000
  183.3680  179.3180  139.9480 C   0  0  0  0  0  3  0  0  0  0  0  0
  186.4740  177.6890  136.4890 C   0  0  0  0  0  2  0  0  0  0  0  0
  182.0830  176.8300  136.2080 C   0  0  1  0  0  3  0  0  0  0  0  0
  184.5350  176.0300  136.1080 C   0  0  2  0  0  3  0  0  0  0  0  0
  181.4620  178.0630  136.8810 C   0  0  1  0  0  3  0  0  0  0  0  0
  183.5890  177.2320  136.2300 C   0  0  2  0  0  3  0  0  0  0  0  0
  179.9400  178.3410  137.0520 C   0  0  2  0  0  0  0  0  0  0  0  0
  184.1870  174.7890  137.3810 S   0  0  0  0  0  0  0  0  0  0  0  0
  183.7150  178.0590  137.4870 C   0  0  0  0  0  0  0  0  0  0  0  0
  184.6540  178.9460  139.5250 C   0  0  0  0  0  3  0  0  0  0  0  0
  180.3880  175.1030  136.9720 C   0  0  0  0  0  1  0  0  0  0  0  0
  182.6500  174.5010  136.6620 O   0  0  0  0  0  0  0  0  0  0  0  0
  184.8460  178.3010  138.2940 C   0  0  0  0  0  0  0  0  0  0  0  0
  180.1380  177.8890  139.4110 C   0  0  0  0  0  2  0  0  0  0  0  0
  181.8310  175.5620  137.0700 C   0  0  1  0  0  3  0  0  0  0  0  0
  182.4760  178.5280  137.8620 C   0  0  0  0  0  0  0  0  0  0  0  0
  186.0300  176.3310  135.9560 C   0  0  0  0  0  2  0  0  0  0  0  0
  179.3470  177.8010  138.2350 O   0  0  0  0  0  0  0  0  0  0  0  0
  186.2170  177.7850  137.9820 C   0  0  0  0  0  2  0  0  0  0  0  0
  180.8320  179.2440  139.6130 C   0  0  2  0  0  3  0  0  0  0  0  0
  182.2510  179.0890  139.1250 C   0  0  0  0  0  0  0  0  0  0  0  0
  179.2190  177.7380  135.8560 C   0  0  0  0  0  1  0  0  0  0  0  0
  179.7180  179.8630  136.9740 C   0  0  0  0  0  2  0  0  0  0  0  0
  180.0350  180.4620  135.6040 C   0  0  0  0  0  2  0  0  0  0  0  0
  180.3890  184.2790  135.2410 C   0  0  0  0  0  2  0  0  0  0  0  0
  180.0170  182.8410  134.8470 C   0  0  0  0  0  2  0  0  0  0  0  0
  180.7240  181.8090  135.7300 C   0  0  0  0  0  3  0  0  0  0  0  0
  181.0570  183.7610  137.3240 C   0  0  0  0  0  2  0  0  0  0  0  0
  180.7800  182.2550  137.1970 C   0  0  0  0  0  2  0  0  0  0  0  0
  181.5000  184.3030  136.1040 O   0  0  0  0  0  0  0  0  0  0  0  0
  180.7010  179.7520  141.0650 C   0  0  2  0  0  3  0  0  0  0  0  0
  181.8330  179.0260  143.0400 C   0  0  0  0  0  1  0  0  0  0  0  0
  180.8210  178.6660  142.0580 N   0  0  0  0  0  0  0  0  0  0  0  0
  179.8280  178.3160  144.2510 C   0  0  0  0  0  1  0  0  0  0  0  0
  179.5650  178.4340  142.7630 C   0  0  0  0  0  2  0  0  0  0  0  0
  179.4890  180.6850  141.2860 C   0  0  0  0  0  2  0  0  0  0  0  0
  179.2900  181.6910  140.1610 C   0  0  0  0  0  1  0  0  0  0  0  0
  2 19  1  0  0  0  0
  3  6  1  0  0  0  0
  3  5  1  0  0  0  0
  3 15  1  0  0  0  0
  4  6  1  0  0  0  0
  4  8  1  0  0  0  0
  5  7  1  0  0  0  0
  5 16  1  0  0  0  0
  6  9  1  0  0  0  0
  7 18  1  0  0  0  0
  9 16  2  0  0  0  0
  9 13  1  0  0  0  0
 10  1  1  0  0  0  0
 11 15  1  0  0  0  0
 12 15  1  0  0  0  0
 12  8  1  0  0  0  0
 13 10  2  0  0  0  0
 14 20  1  0  0  0  0
 16 21  1  0  0  0  0
 17  4  1  0  0  0  0
 17  2  1  0  0  0  0
 18 14  1  0  0  0  0
 19 13  1  0  0  0  0
 20 31  1  0  0  0  0
 21 20  1  0  0  0  0
 21  1  2  0  0  0  0
 22  7  1  0  0  0  0
 23  7  1  0  0  0  0
 24 27  1  0  0  0  0
 24 23  1  0  0  0  0
 25 30  1  0  0  0  0
 26 25  1  0  0  0  0
 26 27  1  0  0  0  0
 27 29  1  0  0  0  0
 29 28  1  0  0  0  0
 30 28  1  0  0  0  0
 31 36  1  0  0  0  0
 31 33  1  0  0  0  0
 33 35  1  0  0  0  0
 33 32  1  0  0  0  0
 35 34  1  0  0  0  0
 37 36  1  0  0  0  0
M  END
>  <MODEL>
1

>  <REMARK>
 VINA RESULT:      -5.8      0.000      0.000
  Name = 
  7 active torsions:
  status: ('A' for Active; 'I' for Inactive)
    1  A    between atoms: C_7  and  C_14
    2  A    between atoms: C_7  and  C_15
    3  A    between atoms: C_8  and  C_15
    4  A    between atoms: C_11  and  C_26
    5  A    between atoms: N_17  and  C_23
    6  A    between atoms: N_17  and  C_26
    7  A    between atoms: C_26  and  C_33
                            x       y       z     vdW  Elec       q    Type
                         _______ _______ _______ _____ _____    ______ ____

>  <TORSDO>
F 7

$$$$
=
 OpenBabel10262422493D

 37 42  0  0  1  0  0  0  0  0999 V2000
  179.5200  176.9540  139.0200 C   0  0  0  0  0  3  0  0  0  0  0  0
  180.7890  172.3530  137.8010 C   0  0  0  0  0  2  0  0  0  0  0  0
  183.7680  175.6920  137.5370 C   0  0  1  0  0  3  0  0  0  0  0  0
  182.6080  173.6340  136.4960 C   0  0  2  0  0  3  0  0  0  0  0  0
  183.3130  176.6300  138.6650 C   0  0  1  0  0  3  0  0  0  0  0  0
  182.7780  174.5060  137.7480 C   0  0  2  0  0  3  0  0  0  0  0  0
  183.9990  177.9650  139.0760 C   0  0  2  0  0  0  0  0  0  0  0  0
  182.1150  174.6300  135.0650 S   0  0  0  0  0  0  0  0  0  0  0  0
  181.5300  175.1760  138.2730 C   0  0  0  0  0  0  0  0  0  0  0  0
  179.1880  175.6570  138.5970 C   0  0  0  0  0  3  0  0  0  0  0  0
  184.5710  177.4540  135.8970 C   0  0  0  0  0  1  0  0  0  0  0  0
  183.6370  175.4320  135.1150 O   0  0  0  0  0  0  0  0  0  0  0  0
  180.1880  174.7520  138.2070 C   0  0  0  0  0  0  0  0  0  0  0  0
  182.1570  179.1900  138.1190 C   0  0  0  0  0  2  0  0  0  0  0  0
  183.5450  176.3660  136.1540 C   0  0  1  0  0  3  0  0  0  0  0  0
  181.8490  176.4110  138.7930 C   0  0  0  0  0  0  0  0  0  0  0  0
  181.7840  172.3510  136.6470 C   0  0  0  0  0  2  0  0  0  0  0  0
  183.5530  179.1260  138.3730 O   0  0  0  0  0  0  0  0  0  0  0  0
  179.7550  173.4480  137.6120 C   0  0  0  0  0  2  0  0  0  0  0  0
  181.2740  178.7940  139.3120 C   0  0  2  0  0  3  0  0  0  0  0  0
  180.8650  177.3580  139.0990 C   0  0  0  0  0  0  0  0  0  0  0  0
  185.4920  177.8170  138.8250 C   0  0  0  0  0  1  0  0  0  0  0  0
  183.8280  178.1460  140.5950 C   0  0  0  0  0  2  0  0  0  0  0  0
  185.0010  178.8600  141.2670 C   0  0  0  0  0  2  0  0  0  0  0  0
  182.9840  178.7630  144.5460 C   0  0  0  0  0  2  0  0  0  0  0  0
  183.2360  178.8580  143.0330 C   0  0  0  0  0  2  0  0  0  0  0  0
  184.6990  179.1820  142.7210 C   0  0  0  0  0  3  0  0  0  0  0  0
  185.1300  178.3800  145.0930 C   0  0  0  0  0  2  0  0  0  0  0  0
  185.6620  178.4350  143.6520 C   0  0  0  0  0  2  0  0  0  0  0  0
  184.0670  179.2810  145.2790 O   0  0  0  0  0  0  0  0  0  0  0  0
  180.1010  179.7760  139.5160 C   0  0  2  0  0  3  0  0  0  0  0  0
  178.9310  180.4060  137.5310 C   0  0  0  0  0  1  0  0  0  0  0  0
  180.0070  180.7790  138.4360 N   0  0  0  0  0  0  0  0  0  0  0  0
  179.9500  183.1440  137.8700 C   0  0  0  0  0  1  0  0  0  0  0  0
  179.7230  182.1120  138.9570 C   0  0  0  0  0  2  0  0  0  0  0  0
  180.0320  180.3680  140.9420 C   0  0  0  0  0  2  0  0  0  0  0  0
  179.6070  179.3550  141.9960 C   0  0  0  0  0  1  0  0  0  0  0  0
  1 21  1  0  0  0  0
  3  6  1  0  0  0  0
  3  5  1  0  0  0  0
  4 17  1  0  0  0  0
  4  6  1  0  0  0  0
  5 16  1  0  0  0  0
  5  7  1  0  0  0  0
  6  9  1  0  0  0  0
  7 23  1  0  0  0  0
  8 12  1  0  0  0  0
  8  4  1  0  0  0  0
  9 16  1  0  0  0  0
 10  1  2  0  0  0  0
 11 15  1  0  0  0  0
 12 15  1  0  0  0  0
 13  9  2  0  0  0  0
 13 10  1  0  0  0  0
 14 18  1  0  0  0  0
 14 20  1  0  0  0  0
 15  3  1  0  0  0  0
 16 21  2  0  0  0  0
 17  2  1  0  0  0  0
 18  7  1  0  0  0  0
 19  2  1  0  0  0  0
 19 13  1  0  0  0  0
 20 31  1  0  0  0  0
 21 20  1  0  0  0  0
 22  7  1  0  0  0  0
 23 24  1  0  0  0  0
 24 27  1  0  0  0  0
 25 30  1  0  0  0  0
 26 25  1  0  0  0  0
 27 26  1  0  0  0  0
 27 29  1  0  0  0  0
 28 30  1  0  0  0  0
 29 28  1  0  0  0  0
 31 36  1  0  0  0  0
 32 33  1  0  0  0  0
 33 35  1  0  0  0  0
 33 31  1  0  0  0  0
 34 35  1  0  0  0  0
 36 37  1  0  0  0  0
M  END
>  <MODEL>
2

>  <REMARK>
 VINA RESULT:      -5.5      2.534      5.924
  Name = 
  7 active torsions:
  status: ('A' for Active; 'I' for Inactive)
    1  A    between atoms: C_7  and  C_14
    2  A    between atoms: C_7  and  C_15
    3  A    between atoms: C_8  and  C_15
    4  A    between atoms: C_11  and  C_26
    5  A    between atoms: N_17  and  C_23
    6  A    between atoms: N_17  and  C_26
    7  A    between atoms: C_26  and  C_33
                            x       y       z     vdW  Elec       q    Type
                         _______ _______ _______ _____ _____    ______ ____

>  <TORSDO>
F 7

$$$$
=
 OpenBabel10262422493D

 37 42  0  0  1  0  0  0  0  0999 V2000
  180.8030  177.9460  135.5110 C   0  0  0  0  0  3  0  0  0  0  0  0
  180.5090  182.8090  136.2380 C   0  0  0  0  0  2  0  0  0  0  0  0
  181.9100  180.0880  139.5140 C   0  0  1  0  0  3  0  0  0  0  0  0
  180.4140  182.0250  138.6950 C   0  0  2  0  0  3  0  0  0  0  0  0
  182.5970  178.9580  138.7330 C   0  0  1  0  0  3  0  0  0  0  0  0
  181.5480  181.0520  138.3440 C   0  0  2  0  0  3  0  0  0  0  0  0
  183.3110  177.7210  139.3530 C   0  0  2  0  0  0  0  0  0  0  0  0
  178.9430  181.1380  139.2700 S   0  0  0  0  0  0  0  0  0  0  0  0
  181.2960  180.1200  137.1830 C   0  0  0  0  0  0  0  0  0  0  0  0
  180.2750  179.2080  135.1960 C   0  0  0  0  0  3  0  0  0  0  0  0
  180.9740  178.7000  141.4200 C   0  0  0  0  0  1  0  0  0  0  0  0
  179.8180  180.6100  140.6540 O   0  0  0  0  0  0  0  0  0  0  0  0
  180.5040  180.3110  136.0320 C   0  0  0  0  0  0  0  0  0  0  0  0
  181.4920  176.3210  138.6180 C   0  0  0  0  0  2  0  0  0  0  0  0
  180.6300  179.5560  140.2160 C   0  0  1  0  0  3  0  0  0  0  0  0
  181.8990  178.9050  137.4220 C   0  0  0  0  0  0  0  0  0  0  0  0
  180.0930  183.1200  137.6710 C   0  0  0  0  0  2  0  0  0  0  0  0
  182.4720  176.5930  139.6090 O   0  0  0  0  0  0  0  0  0  0  0  0
  179.7760  181.5830  135.7250 C   0  0  0  0  0  2  0  0  0  0  0  0
  182.0030  176.4140  137.1730 C   0  0  2  0  0  3  0  0  0  0  0  0
  181.6080  177.7720  136.6520 C   0  0  0  0  0  0  0  0  0  0  0  0
  183.9240  178.1530  140.6760 C   0  0  0  0  0  1  0  0  0  0  0  0
  184.4840  177.3340  138.4340 C   0  0  0  0  0  2  0  0  0  0  0  0
  185.4680  178.4750  138.1770 C   0  0  0  0  0  2  0  0  0  0  0  0
  189.0680  178.4640  136.8110 C   0  0  0  0  0  2  0  0  0  0  0  0
  187.5390  178.6160  136.7890 C   0  0  0  0  0  2  0  0  0  0  0  0
  186.8870  177.9600  138.0100 C   0  0  0  0  0  3  0  0  0  0  0  0
  189.2130  178.0990  139.0240 C   0  0  0  0  0  2  0  0  0  0  0  0
  187.7030  178.1940  139.2880 C   0  0  0  0  0  2  0  0  0  0  0  0
  189.4770  177.5200  137.7690 O   0  0  0  0  0  0  0  0  0  0  0  0
  181.5230  175.2270  136.3110 C   0  0  2  0  0  3  0  0  0  0  0  0
  179.4490  174.0510  136.4540 C   0  0  0  0  0  1  0  0  0  0  0  0
  180.7450  174.2410  137.0870 N   0  0  0  0  0  0  0  0  0  0  0  0
  180.4010  171.8580  137.4370 C   0  0  0  0  0  1  0  0  0  0  0  0
  181.4160  172.9470  137.1490 C   0  0  0  0  0  2  0  0  0  0  0  0
  182.6360  174.6100  135.4330 C   0  0  0  0  0  2  0  0  0  0  0  0
  184.0240  175.1450  135.7560 C   0  0  0  0  0  1  0  0  0  0  0  0
  1 21  1  0  0  0  0
  2 17  1  0  0  0  0
  3 15  1  0  0  0  0
  4  8  1  0  0  0  0
  5  7  1  0  0  0  0
  5  3  1  0  0  0  0
  6  4  1  0  0  0  0
  6  3  1  0  0  0  0
  7 18  1  0  0  0  0
  7 22  1  0  0  0  0
  8 12  1  0  0  0  0
  9 16  1  0  0  0  0
  9  6  1  0  0  0  0
 10  1  2  0  0  0  0
 10 13  1  0  0  0  0
 13  9  2  0  0  0  0
 14 18  1  0  0  0  0
 15 12  1  0  0  0  0
 15 11  1  0  0  0  0
 16  5  1  0  0  0  0
 17  4  1  0  0  0  0
 19 13  1  0  0  0  0
 19  2  1  0  0  0  0
 20 14  1  0  0  0  0
 21 20  1  0  0  0  0
 21 16  2  0  0  0  0
 23  7  1  0  0  0  0
 24 23  1  0  0  0  0
 25 30  1  0  0  0  0
 26 25  1  0  0  0  0
 26 27  1  0  0  0  0
 27 24  1  0  0  0  0
 27 29  1  0  0  0  0
 28 29  1  0  0  0  0
 30 28  1  0  0  0  0
 31 33  1  0  0  0  0
 31 20  1  0  0  0  0
 32 33  1  0  0  0  0
 33 35  1  0  0  0  0
 35 34  1  0  0  0  0
 36 37  1  0  0  0  0
 36 31  1  0  0  0  0
M  END
>  <MODEL>
3

>  <REMARK>
 VINA RESULT:      -5.5      2.751      6.979
  Name = 
  7 active torsions:
  status: ('A' for Active; 'I' for Inactive)
    1  A    between atoms: C_7  and  C_14
    2  A    between atoms: C_7  and  C_15
    3  A    between atoms: C_8  and  C_15
    4  A    between atoms: C_11  and  C_26
    5  A    between atoms: N_17  and  C_23
    6  A    between atoms: N_17  and  C_26
    7  A    between atoms: C_26  and  C_33
                            x       y       z     vdW  Elec       q    Type
                         _______ _______ _______ _____ _____    ______ ____

>  <TORSDO>
F 7

$$$$
=
 OpenBabel10262422493D

 37 42  0  0  1  0  0  0  0  0999 V2000
  186.3030  178.6040  141.1910 C   0  0  0  0  0  3  0  0  0  0  0  0
  189.2380  178.4480  137.2380 C   0  0  0  0  0  2  0  0  0  0  0  0
  184.8770  177.4710  136.8880 C   0  0  1  0  0  3  0  0  0  0  0  0
  187.3480  176.9040  136.4010 C   0  0  2  0  0  3  0  0  0  0  0  0
  184.2520  178.3590  137.9740 C   0  0  1  0  0  3  0  0  0  0  0  0
  186.3640  177.9320  136.9750 C   0  0  2  0  0  3  0  0  0  0  0  0
  182.7350  178.4680  138.3030 C   0  0  2  0  0  0  0  0  0  0  0  0
  187.1350  175.2840  137.1840 S   0  0  0  0  0  0  0  0  0  0  0  0
  186.5390  178.2860  138.4340 C   0  0  0  0  0  0  0  0  0  0  0  0
  187.5720  178.4780  140.6050 C   0  0  0  0  0  3  0  0  0  0  0  0
  183.3080  175.4870  137.0890 C   0  0  0  0  0  1  0  0  0  0  0  0
  185.5670  175.1660  136.4840 O   0  0  0  0  0  0  0  0  0  0  0  0
  187.7090  178.3060  139.2190 C   0  0  0  0  0  0  0  0  0  0  0  0
  183.1060  177.2500  140.3490 C   0  0  0  0  0  2  0  0  0  0  0  0
  184.7340  175.9710  137.2710 C   0  0  1  0  0  3  0  0  0  0  0  0
  185.3080  178.5210  139.0060 C   0  0  0  0  0  0  0  0  0  0  0  0
  188.8160  177.3300  136.2920 C   0  0  0  0  0  2  0  0  0  0  0  0
  182.2430  177.5220  139.2540 O   0  0  0  0  0  0  0  0  0  0  0  0
  189.0760  178.0120  138.6830 C   0  0  0  0  0  2  0  0  0  0  0  0
  183.7550  178.4940  140.9730 C   0  0  2  0  0  3  0  0  0  0  0  0
  185.1440  178.6020  140.3940 C   0  0  0  0  0  0  0  0  0  0  0  0
  181.9610  178.2680  137.0090 C   0  0  0  0  0  1  0  0  0  0  0  0
  182.4460  179.9090  138.7650 C   0  0  0  0  0  2  0  0  0  0  0  0
  180.9570  180.2190  138.9200 C   0  0  0  0  0  2  0  0  0  0  0  0
  181.6630  183.6720  137.3690 C   0  0  0  0  0  2  0  0  0  0  0  0
  181.8360  182.4780  138.3200 C   0  0  0  0  0  2  0  0  0  0  0  0
  180.6040  181.5690  138.3190 C   0  0  0  0  0  3  0  0  0  0  0  0
  180.0600  182.7150  136.1180 C   0  0  0  0  0  2  0  0  0  0  0  0
  180.0180  181.4010  136.9120 C   0  0  0  0  0  2  0  0  0  0  0  0
  180.3250  183.8110  136.9590 O   0  0  0  0  0  0  0  0  0  0  0  0
  183.7000  178.4660  142.5150 C   0  0  2  0  0  3  0  0  0  0  0  0
  182.3220  178.6990  144.4520 C   0  0  0  0  0  1  0  0  0  0  0  0
  182.3180  178.3910  143.0300 N   0  0  0  0  0  0  0  0  0  0  0  0
  180.0650  178.7240  142.1750 C   0  0  0  0  0  1  0  0  0  0  0  0
  181.4370  179.3420  142.3610 C   0  0  0  0  0  2  0  0  0  0  0  0
  184.5700  179.5540  143.1850 C   0  0  0  0  0  2  0  0  0  0  0  0
  185.3790  179.0360  144.3660 C   0  0  0  0  0  1  0  0  0  0  0  0
  2 19  1  0  0  0  0
  3  6  1  0  0  0  0
  3 15  1  0  0  0  0
  3  5  1  0  0  0  0
  4  6  1  0  0  0  0
  4  8  1  0  0  0  0
  5  7  1  0  0  0  0
  5 16  1  0  0  0  0
  6  9  1  0  0  0  0
  7 23  1  0  0  0  0
  7 18  1  0  0  0  0
  9 16  2  0  0  0  0
  9 13  1  0  0  0  0
 10  1  1  0  0  0  0
 11 15  1  0  0  0  0
 12  8  1  0  0  0  0
 12 15  1  0  0  0  0
 13 10  2  0  0  0  0
 14 20  1  0  0  0  0
 16 21  1  0  0  0  0
 17  4  1  0  0  0  0
 17  2  1  0  0  0  0
 18 14  1  0  0  0  0
 19 13  1  0  0  0  0
 20 31  1  0  0  0  0
 21 20  1  0  0  0  0
 21  1  2  0  0  0  0
 22  7  1  0  0  0  0
 23 24  1  0  0  0  0
 25 26  1  0  0  0  0
 27 26  1  0  0  0  0
 27 24  1  0  0  0  0
 28 29  1  0  0  0  0
 28 30  1  0  0  0  0
 29 27  1  0  0  0  0
 30 25  1  0  0  0  0
 31 33  1  0  0  0  0
 31 36  1  0  0  0  0
 33 32  1  0  0  0  0
 34 35  1  0  0  0  0
 35 33  1  0  0  0  0
 36 37  1  0  0  0  0
M  END
>  <MODEL>
4

>  <REMARK>
 VINA RESULT:      -5.2      1.888      3.216
  Name = 
  7 active torsions:
  status: ('A' for Active; 'I' for Inactive)
    1  A    between atoms: C_7  and  C_14
    2  A    between atoms: C_7  and  C_15
    3  A    between atoms: C_8  and  C_15
    4  A    between atoms: C_11  and  C_26
    5  A    between atoms: N_17  and  C_23
    6  A    between atoms: N_17  and  C_26
    7  A    between atoms: C_26  and  C_33
                            x       y       z     vdW  Elec       q    Type
                         _______ _______ _______ _____ _____    ______ ____

>  <TORSDO>
F 7

$$$$
=
 OpenBabel10262422493D

 37 42  0  0  1  0  0  0  0  0999 V2000
  185.3540  178.6730  141.0170 C   0  0  0  0  0  3  0  0  0  0  0  0
  188.8420  178.5090  137.5430 C   0  0  0  0  0  2  0  0  0  0  0  0
  184.6460  177.2220  136.6310 C   0  0  1  0  0  3  0  0  0  0  0  0
  187.1900  176.7990  136.5400 C   0  0  2  0  0  3  0  0  0  0  0  0
  183.8160  178.1210  137.5600 C   0  0  1  0  0  3  0  0  0  0  0  0
  186.0730  177.7870  136.9030 C   0  0  2  0  0  3  0  0  0  0  0  0
  182.2630  178.1440  137.6610 C   0  0  2  0  0  0  0  0  0  0  0  0
  186.9620  175.2110  137.3820 S   0  0  0  0  0  0  0  0  0  0  0  0
  186.0100  178.2270  138.3460 C   0  0  0  0  0  0  0  0  0  0  0  0
  186.7000  178.6020  140.6270 C   0  0  0  0  0  3  0  0  0  0  0  0
  183.1850  175.1490  136.7280 C   0  0  0  0  0  1  0  0  0  0  0  0
  185.5240  174.9510  136.4730 O   0  0  0  0  0  0  0  0  0  0  0  0
  187.0500  178.3680  139.2880 C   0  0  0  0  0  0  0  0  0  0  0  0
  182.4010  177.0620  139.8100 C   0  0  0  0  0  2  0  0  0  0  0  0
  184.5380  175.7380  137.0820 C   0  0  1  0  0  3  0  0  0  0  0  0
  184.6970  178.4080  138.7210 C   0  0  0  0  0  0  0  0  0  0  0  0
  188.6310  177.3180  136.6160 C   0  0  0  0  0  2  0  0  0  0  0  0
  181.6940  177.2180  138.5880 O   0  0  0  0  0  0  0  0  0  0  0  0
  188.4950  178.1400  138.9740 C   0  0  0  0  0  2  0  0  0  0  0  0
  182.8770  178.3790  140.4420 C   0  0  2  0  0  3  0  0  0  0  0  0
  184.3260  178.5500  140.0630 C   0  0  0  0  0  0  0  0  0  0  0  0
  181.7020  177.8250  136.2830 C   0  0  0  0  0  1  0  0  0  0  0  0
  181.8240  179.5840  137.9870 C   0  0  0  0  0  2  0  0  0  0  0  0
  180.3950  179.9060  137.5500 C   0  0  0  0  0  2  0  0  0  0  0  0
  181.3830  183.6250  137.4030 C   0  0  0  0  0  2  0  0  0  0  0  0
  181.1760  182.2310  138.0170 C   0  0  0  0  0  2  0  0  0  0  0  0
  180.2470  181.3660  137.1600 C   0  0  0  0  0  3  0  0  0  0  0  0
  180.8000  183.0250  135.3170 C   0  0  0  0  0  2  0  0  0  0  0  0
  180.5100  181.5570  135.6610 C   0  0  0  0  0  2  0  0  0  0  0  0
  180.4510  183.8780  136.3800 O   0  0  0  0  0  0  0  0  0  0  0  0
  182.5970  178.4280  141.9590 C   0  0  2  0  0  3  0  0  0  0  0  0
  180.8520  179.8200  141.1080 C   0  0  0  0  0  1  0  0  0  0  0  0
  181.3140  179.0870  142.2770 N   0  0  0  0  0  0  0  0  0  0  0  0
  179.8250  178.3810  144.0670 C   0  0  0  0  0  1  0  0  0  0  0  0
  180.2840  178.1220  142.6460 C   0  0  0  0  0  2  0  0  0  0  0  0
  183.7960  178.9330  142.7930 C   0  0  0  0  0  2  0  0  0  0  0  0
  183.5220  178.9570  144.2910 C   0  0  0  0  0  1  0  0  0  0  0  0
  2 19  1  0  0  0  0
  3  6  1  0  0  0  0
  3 15  1  0  0  0  0
  3  5  1  0  0  0  0
  4 17  1  0  0  0  0
  4  6  1  0  0  0  0
  4  8  1  0  0  0  0
  5  7  1  0  0  0  0
  5 16  1  0  0  0  0
  6  9  1  0  0  0  0
  7 23  1  0  0  0  0
  7 18  1  0  0  0  0
  9 16  2  0  0  0  0
  9 13  1  0  0  0  0
 10  1  1  0  0  0  0
 11 15  1  0  0  0  0
 12 15  1  0  0  0  0
 12  8  1  0  0  0  0
 13 10  2  0  0  0  0
 14 20  1  0  0  0  0
 16 21  1  0  0  0  0
 17  2  1  0  0  0  0
 18 14  1  0  0  0  0
 19 13  1  0  0  0  0
 20 31  1  0  0  0  0
 21 20  1  0  0  0  0
 21  1  2  0  0  0  0
 22  7  1  0  0  0  0
 24 23  1  0  0  0  0
 25 26  1  0  0  0  0
 27 24  1  0  0  0  0
 27 26  1  0  0  0  0
 28 29  1  0  0  0  0
 28 30  1  0  0  0  0
 29 27  1  0  0  0  0
 30 25  1  0  0  0  0
 31 33  1  0  0  0  0
 31 36  1  0  0  0  0
 32 33  1  0  0  0  0
 33 35  1  0  0  0  0
 35 34  1  0  0  0  0
 36 37  1  0  0  0  0
M  END
>  <MODEL>
5

>  <REMARK>
 VINA RESULT:      -5.1      1.508      2.665
  Name = 
  7 active torsions:
  status: ('A' for Active; 'I' for Inactive)
    1  A    between atoms: C_7  and  C_14
    2  A    between atoms: C_7  and  C_15
    3  A    between atoms: C_8  and  C_15
    4  A    between atoms: C_11  and  C_26
    5  A    between atoms: N_17  and  C_23
    6  A    between atoms: N_17  and  C_26
    7  A    between atoms: C_26  and  C_33
                            x       y       z     vdW  Elec       q    Type
                         _______ _______ _______ _____ _____    ______ ____

>  <TORSDO>
F 7

$$$$
=
 OpenBabel10262422493D

 37 42  0  0  1  0  0  0  0  0999 V2000
  186.9140  178.6270  140.0720 C   0  0  0  0  0  3  0  0  0  0  0  0
  187.1090  177.4560  135.2910 C   0  0  0  0  0  2  0  0  0  0  0  0
  183.3040  176.9670  137.6110 C   0  0  1  0  0  3  0  0  0  0  0  0
  185.0680  176.0330  135.9740 C   0  0  2  0  0  3  0  0  0  0  0  0
  183.4050  178.0940  138.6500 C   0  0  1  0  0  3  0  0  0  0  0  0
  184.5840  177.2550  136.7680 C   0  0  2  0  0  3  0  0  0  0  0  0
  182.3370  178.4390  139.7290 C   0  0  2  0  0  0  0  0  0  0  0  0
  185.3250  174.6050  137.0590 S   0  0  0  0  0  0  0  0  0  0  0  0
  185.5520  177.8240  137.7780 C   0  0  0  0  0  0  0  0  0  0  0  0
  187.6310  178.2520  138.9250 C   0  0  0  0  0  3  0  0  0  0  0  0
  182.1120  175.2490  139.0480 C   0  0  0  0  0  1  0  0  0  0  0  0
  183.6350  174.5620  137.3810 O   0  0  0  0  0  0  0  0  0  0  0  0
  186.9620  177.8350  137.7640 C   0  0  0  0  0  0  0  0  0  0  0  0
  183.7910  177.5460  141.4320 C   0  0  0  0  0  2  0  0  0  0  0  0
  183.3950  175.5820  138.3100 C   0  0  1  0  0  3  0  0  0  0  0  0
  184.8590  178.2990  138.8700 C   0  0  0  0  0  0  0  0  0  0  0  0
  186.2210  176.2550  134.9890 C   0  0  0  0  0  2  0  0  0  0  0  0
  182.4630  177.7330  140.9650 O   0  0  0  0  0  0  0  0  0  0  0  0
  187.7870  177.2920  136.6390 C   0  0  0  0  0  2  0  0  0  0  0  0
  184.6860  178.7900  141.3210 C   0  0  2  0  0  3  0  0  0  0  0  0
  185.5070  178.6310  140.0660 C   0  0  0  0  0  0  0  0  0  0  0  0
  180.9680  178.1190  139.1490 C   0  0  0  0  0  1  0  0  0  0  0  0
  182.3670  179.9610  139.9640 C   0  0  0  0  0  2  0  0  0  0  0  0
  182.6910  180.7720  138.7090 C   0  0  0  0  0  2  0  0  0  0  0  0
  181.0140  183.9210  137.2610 C   0  0  0  0  0  2  0  0  0  0  0  0
  182.0330  183.0900  138.0570 C   0  0  0  0  0  2  0  0  0  0  0  0
  181.5310  181.6650  138.3070 C   0  0  0  0  0  3  0  0  0  0  0  0
  179.9310  182.1520  136.3940 C   0  0  0  0  0  2  0  0  0  0  0  0
  180.8030  181.0930  137.0850 C   0  0  0  0  0  2  0  0  0  0  0  0
  179.7600  183.2840  137.2110 O   0  0  0  0  0  0  0  0  0  0  0  0
  185.5090  179.0290  142.6050 C   0  0  2  0  0  3  0  0  0  0  0  0
  187.3190  177.4970  142.8960 C   0  0  0  0  0  1  0  0  0  0  0  0
  185.9330  177.7690  143.2480 N   0  0  0  0  0  0  0  0  0  0  0  0
  187.1940  177.5580  145.3170 C   0  0  0  0  0  1  0  0  0  0  0  0
  185.8380  177.8430  144.7010 C   0  0  0  0  0  2  0  0  0  0  0  0
  184.8650  180.0510  143.5700 C   0  0  0  0  0  2  0  0  0  0  0  0
  183.4410  179.6900  143.9680 C   0  0  0  0  0  1  0  0  0  0  0  0
  2 19  1  0  0  0  0
  3 15  1  0  0  0  0
  3  5  1  0  0  0  0
  4  6  1  0  0  0  0
  4  8  1  0  0  0  0
  5 16  1  0  0  0  0
  5  7  1  0  0  0  0
  6  3  1  0  0  0  0
  6  9  1  0  0  0  0
  7 23  1  0  0  0  0
  7 18  1  0  0  0  0
  8 12  1  0  0  0  0
  9 16  1  0  0  0  0
 10  1  2  0  0  0  0
 12 15  1  0  0  0  0
 13  9  2  0  0  0  0
 13 10  1  0  0  0  0
 15 11  1  0  0  0  0
 16 21  2  0  0  0  0
 17  2  1  0  0  0  0
 17  4  1  0  0  0  0
 18 14  1  0  0  0  0
 19 13  1  0  0  0  0
 20 14  1  0  0  0  0
 20 31  1  0  0  0  0
 21  1  1  0  0  0  0
 21 20  1  0  0  0  0
 22  7  1  0  0  0  0
 24 23  1  0  0  0  0
 25 26  1  0  0  0  0
 26 27  1  0  0  0  0
 27 24  1  0  0  0  0
 28 29  1  0  0  0  0
 28 30  1  0  0  0  0
 29 27  1  0  0  0  0
 30 25  1  0  0  0  0
 31 33  1  0  0  0  0
 31 36  1  0  0  0  0
 32 33  1  0  0  0  0
 33 35  1  0  0  0  0
 35 34  1  0  0  0  0
 36 37  1  0  0  0  0
M  END
>  <MODEL>
6

>  <REMARK>
 VINA RESULT:      -4.9      2.356      3.639
  Name = 
  7 active torsions:
  status: ('A' for Active; 'I' for Inactive)
    1  A    between atoms: C_7  and  C_14
    2  A    between atoms: C_7  and  C_15
    3  A    between atoms: C_8  and  C_15
    4  A    between atoms: C_11  and  C_26
    5  A    between atoms: N_17  and  C_23
    6  A    between atoms: N_17  and  C_26
    7  A    between atoms: C_26  and  C_33
                            x       y       z     vdW  Elec       q    Type
                         _______ _______ _______ _____ _____    ______ ____

>  <TORSDO>
F 7

$$$$
=
 OpenBabel10262422493D

 37 42  0  0  1  0  0  0  0  0999 V2000
  186.9430  178.4680  140.8370 C   0  0  0  0  0  3  0  0  0  0  0  0
  188.8570  178.2190  136.3060 C   0  0  0  0  0  2  0  0  0  0  0  0
  184.5190  177.3340  137.0060 C   0  0  1  0  0  3  0  0  0  0  0  0
  186.7930  176.7110  135.9570 C   0  0  2  0  0  3  0  0  0  0  0  0
  184.1850  178.2440  138.1980 C   0  0  1  0  0  3  0  0  0  0  0  0
  185.9930  177.7640  136.7350 C   0  0  2  0  0  3  0  0  0  0  0  0
  182.7910  178.3880  138.8750 C   0  0  2  0  0  0  0  0  0  0  0  0
  186.7400  175.1010  136.7880 S   0  0  0  0  0  0  0  0  0  0  0  0
  186.5140  178.1240  138.1060 C   0  0  0  0  0  0  0  0  0  0  0  0
  188.0350  178.3100  139.9700 C   0  0  0  0  0  3  0  0  0  0  0  0
  183.0040  175.3860  137.5960 C   0  0  0  0  0  1  0  0  0  0  0  0
  185.0500  175.0120  136.4790 O   0  0  0  0  0  0  0  0  0  0  0  0
  187.8370  178.1240  138.5930 C   0  0  0  0  0  0  0  0  0  0  0  0
  183.6110  177.1760  140.7900 C   0  0  0  0  0  2  0  0  0  0  0  0
  184.4420  175.8410  137.4310 C   0  0  1  0  0  3  0  0  0  0  0  0
  185.4580  178.3900  138.9500 C   0  0  0  0  0  0  0  0  0  0  0  0
  188.2020  177.1040  135.4990 C   0  0  0  0  0  2  0  0  0  0  0  0
  182.5200  177.4590  139.9260 O   0  0  0  0  0  0  0  0  0  0  0  0
  189.0330  177.7980  137.7530 C   0  0  0  0  0  2  0  0  0  0  0  0
  184.4140  178.4110  141.2280 C   0  0  2  0  0  3  0  0  0  0  0  0
  185.6280  178.4850  140.3370 C   0  0  0  0  0  0  0  0  0  0  0  0
  181.7300  178.1950  137.8020 C   0  0  0  0  0  1  0  0  0  0  0  0
  182.6480  179.8370  139.3750 C   0  0  0  0  0  2  0  0  0  0  0  0
  182.3130  180.8400  138.2690 C   0  0  0  0  0  2  0  0  0  0  0  0
  178.9980  182.7490  137.8320 C   0  0  0  0  0  2  0  0  0  0  0  0
  180.3700  182.1730  137.4460 C   0  0  0  0  0  2  0  0  0  0  0  0
  181.1800  181.7640  138.6800 C   0  0  0  0  0  3  0  0  0  0  0  0
  178.9330  181.7940  139.8660 C   0  0  0  0  0  2  0  0  0  0  0  0
  180.3000  181.1030  139.7480 C   0  0  0  0  0  2  0  0  0  0  0  0
  178.9310  183.0370  139.2070 O   0  0  0  0  0  0  0  0  0  0  0  0
  184.7230  178.3950  142.7400 C   0  0  2  0  0  3  0  0  0  0  0  0
  182.6400  179.0960  143.6750 C   0  0  0  0  0  1  0  0  0  0  0  0
  184.0300  179.4750  143.4710 N   0  0  0  0  0  0  0  0  0  0  0  0
  183.9890  178.8180  145.8130 C   0  0  0  0  0  1  0  0  0  0  0  0
  184.6320  179.7190  144.7770 C   0  0  0  0  0  2  0  0  0  0  0  0
  186.2310  178.2750  143.0610 C   0  0  0  0  0  2  0  0  0  0  0  0
  186.5690  177.0690  143.9260 C   0  0  0  0  0  1  0  0  0  0  0  0
  2 19  1  0  0  0  0
  3 15  1  0  0  0  0
  3  5  1  0  0  0  0
  4  6  1  0  0  0  0
  4  8  1  0  0  0  0
  5  7  1  0  0  0  0
  5 16  1  0  0  0  0
  6  3  1  0  0  0  0
  6  9  1  0  0  0  0
  7 23  1  0  0  0  0
  7 18  1  0  0  0  0
  9 13  2  0  0  0  0
  9 16  1  0  0  0  0
 10  1  2  0  0  0  0
 12  8  1  0  0  0  0
 12 15  1  0  0  0  0
 13 10  1  0  0  0  0
 14 20  1  0  0  0  0
 15 11  1  0  0  0  0
 16 21  2  0  0  0  0
 17  4  1  0  0  0  0
 17  2  1  0  0  0  0
 18 14  1  0  0  0  0
 19 13  1  0  0  0  0
 20 31  1  0  0  0  0
 21  1  1  0  0  0  0
 21 20  1  0  0  0  0
 22  7  1  0  0  0  0
 24 27  1  0  0  0  0
 24 23  1  0  0  0  0
 25 30  1  0  0  0  0
 26 25  1  0  0  0  0
 26 27  1  0  0  0  0
 27 29  1  0  0  0  0
 29 28  1  0  0  0  0
 30 28  1  0  0  0  0
 31 36  1  0  0  0  0
 31 33  1  0  0  0  0
 33 32  1  0  0  0  0
 33 35  1  0  0  0  0
 35 34  1  0  0  0  0
 36 37  1  0  0  0  0
M  END
>  <MODEL>
7

>  <REMARK>
 VINA RESULT:      -4.8      2.330      3.788
  Name = 
  7 active torsions:
  status: ('A' for Active; 'I' for Inactive)
    1  A    between atoms: C_7  and  C_14
    2  A    between atoms: C_7  and  C_15
    3  A    between atoms: C_8  and  C_15
    4  A    between atoms: C_11  and  C_26
    5  A    between atoms: N_17  and  C_23
    6  A    between atoms: N_17  and  C_26
    7  A    between atoms: C_26  and  C_33
                            x       y       z     vdW  Elec       q    Type
                         _______ _______ _______ _____ _____    ______ ____

>  <TORSDO>
F 7

$$$$
=
 OpenBabel10262422493D

 37 42  0  0  1  0  0  0  0  0999 V2000
  183.9580  177.3860  140.1250 C   0  0  0  0  0  3  0  0  0  0  0  0
  180.5870  178.9010  143.3830 C   0  0  0  0  0  2  0  0  0  0  0  0
  179.4100  177.8930  139.1760 C   0  0  1  0  0  3  0  0  0  0  0  0
  179.3380  179.4890  141.2040 C   0  0  2  0  0  3  0  0  0  0  0  0
  180.4180  176.7950  138.8060 C   0  0  1  0  0  3  0  0  0  0  0  0
  179.7880  178.1220  140.6720 C   0  0  2  0  0  3  0  0  0  0  0  0
  180.4780  176.0290  137.4520 C   0  0  2  0  0  0  0  0  0  0  0  0
  179.9740  180.8360  140.1710 S   0  0  0  0  0  0  0  0  0  0  0  0
  181.2720  177.8430  140.7080 C   0  0  0  0  0  0  0  0  0  0  0  0
  183.6000  178.0660  141.3000 C   0  0  0  0  0  3  0  0  0  0  0  0
  179.2130  178.9930  136.8980 C   0  0  0  0  0  1  0  0  0  0  0  0
  179.0010  180.2780  138.8670 O   0  0  0  0  0  0  0  0  0  0  0  0
  182.2530  178.3150  141.6040 C   0  0  0  0  0  0  0  0  0  0  0  0
  182.4830  177.2360  136.8750 C   0  0  0  0  0  2  0  0  0  0  0  0
  179.6730  179.1720  138.3320 C   0  0  1  0  0  3  0  0  0  0  0  0
  181.6290  177.0820  139.6170 C   0  0  0  0  0  0  0  0  0  0  0  0
  179.5170  179.7470  142.7040 C   0  0  0  0  0  2  0  0  0  0  0  0
  181.2690  176.6440  136.4340 O   0  0  0  0  0  0  0  0  0  0  0  0
  181.9520  179.1870  142.7840 C   0  0  0  0  0  2  0  0  0  0  0  0
  183.2840  176.3830  137.8690 C   0  0  2  0  0  3  0  0  0  0  0  0
  182.9680  176.9040  139.2490 C   0  0  0  0  0  0  0  0  0  0  0  0
  179.0570  175.9050  136.9240 C   0  0  0  0  0  1  0  0  0  0  0  0
  180.9660  174.5950  137.7330 C   0  0  0  0  0  2  0  0  0  0  0  0
  180.0650  173.5110  137.1390 C   0  0  0  0  0  2  0  0  0  0  0  0
  182.8000  172.4620  134.6410 C   0  0  0  0  0  2  0  0  0  0  0  0
  181.6910  173.3310  135.2530 C   0  0  0  0  0  2  0  0  0  0  0  0
  180.8530  172.5480  136.2680 C   0  0  0  0  0  3  0  0  0  0  0  0
  182.8290  170.9520  136.3060 C   0  0  0  0  0  2  0  0  0  0  0  0
  181.7180  171.6200  137.1290 C   0  0  0  0  0  2  0  0  0  0  0  0
  182.6010  171.0990  134.9260 O   0  0  0  0  0  0  0  0  0  0  0  0
  184.7870  176.3460  137.5210 C   0  0  2  0  0  3  0  0  0  0  0  0
  186.2880  178.2020  137.4290 C   0  0  0  0  0  1  0  0  0  0  0  0
  185.2140  177.5150  136.7270 N   0  0  0  0  0  0  0  0  0  0  0  0
  186.8210  178.0620  134.9840 C   0  0  0  0  0  1  0  0  0  0  0  0
  185.7070  177.1260  135.4110 C   0  0  0  0  0  2  0  0  0  0  0  0
  185.2570  174.9860  136.9550 C   0  0  0  0  0  2  0  0  0  0  0  0
  184.6290  173.7910  137.6590 C   0  0  0  0  0  1  0  0  0  0  0  0
  1 10  1  0  0  0  0
  3  6  1  0  0  0  0
  4 17  1  0  0  0  0
  5  3  1  0  0  0  0
  5 16  1  0  0  0  0
  6  9  1  0  0  0  0
  6  4  1  0  0  0  0
  7 23  1  0  0  0  0
  7  5  1  0  0  0  0
  8  4  1  0  0  0  0
  9 13  1  0  0  0  0
 10 13  2  0  0  0  0
 11 15  1  0  0  0  0
 12  8  1  0  0  0  0
 13 19  1  0  0  0  0
 14 20  1  0  0  0  0
 15 12  1  0  0  0  0
 15  3  1  0  0  0  0
 16  9  2  0  0  0  0
 17  2  1  0  0  0  0
 18 14  1  0  0  0  0
 18  7  1  0  0  0  0
 19  2  1  0  0  0  0
 20 21  1  0  0  0  0
 21 16  1  0  0  0  0
 21  1  2  0  0  0  0
 22  7  1  0  0  0  0
 24 23  1  0  0  0  0
 25 30  1  0  0  0  0
 25 26  1  0  0  0  0
 26 27  1  0  0  0  0
 27 29  1  0  0  0  0
 27 24  1  0  0  0  0
 28 29  1  0  0  0  0
 30 28  1  0  0  0  0
 31 20  1  0  0  0  0
 33 32  1  0  0  0  0
 33 31  1  0  0  0  0
 34 35  1  0  0  0  0
 35 33  1  0  0  0  0
 36 31  1  0  0  0  0
 36 37  1  0  0  0  0
M  END
>  <MODEL>
8

>  <REMARK>
 VINA RESULT:      -4.7      2.899      7.387
  Name = 
  7 active torsions:
  status: ('A' for Active; 'I' for Inactive)
    1  A    between atoms: C_7  and  C_14
    2  A    between atoms: C_7  and  C_15
    3  A    between atoms: C_8  and  C_15
    4  A    between atoms: C_11  and  C_26
    5  A    between atoms: N_17  and  C_23
    6  A    between atoms: N_17  and  C_26
    7  A    between atoms: C_26  and  C_33
                            x       y       z     vdW  Elec       q    Type
                         _______ _______ _______ _____ _____    ______ ____

>  <TORSDO>
F 7

$$$$
=
 OpenBabel10262422493D

 37 42  0  0  1  0  0  0  0  0999 V2000
  185.0880  178.5790  140.6830 C   0  0  0  0  0  3  0  0  0  0  0  0
  181.2440  178.5630  143.7630 C   0  0  0  0  0  2  0  0  0  0  0  0
  180.7130  177.5100  139.4380 C   0  0  1  0  0  3  0  0  0  0  0  0
  179.9750  178.8270  141.5320 C   0  0  2  0  0  3  0  0  0  0  0  0
  182.0640  176.8690  139.0870 C   0  0  1  0  0  3  0  0  0  0  0  0
  180.9100  177.7490  140.9670 C   0  0  2  0  0  3  0  0  0  0  0  0
  182.4600  176.2740  137.7040 C   0  0  2  0  0  0  0  0  0  0  0  0
  180.1360  180.3820  140.6170 S   0  0  0  0  0  0  0  0  0  0  0  0
  182.3920  178.0130  141.0950 C   0  0  0  0  0  0  0  0  0  0  0  0
  184.4540  179.0020  141.8620 C   0  0  0  0  0  3  0  0  0  0  0  0
  180.2460  178.6290  137.2090 C   0  0  0  0  0  1  0  0  0  0  0  0
  179.4930  179.6110  139.2200 O   0  0  0  0  0  0  0  0  0  0  0  0
  183.0940  178.7350  142.0810 C   0  0  0  0  0  0  0  0  0  0  0  0
  183.9250  178.1510  137.3320 C   0  0  0  0  0  2  0  0  0  0  0  0
  180.5420  178.8560  138.6800 C   0  0  1  0  0  3  0  0  0  0  0  0
  183.0510  177.5080  139.9950 C   0  0  0  0  0  0  0  0  0  0  0  0
  179.9760  179.0220  143.0530 C   0  0  0  0  0  2  0  0  0  0  0  0
  183.0280  177.2010  136.7770 O   0  0  0  0  0  0  0  0  0  0  0  0
  182.4440  179.3560  143.2780 C   0  0  0  0  0  2  0  0  0  0  0  0
  184.9290  177.5680  138.3370 C   0  0  2  0  0  3  0  0  0  0  0  0
  184.3810  177.8420  139.7160 C   0  0  0  0  0  0  0  0  0  0  0  0
  181.2050  175.6930  137.0700 C   0  0  0  0  0  1  0  0  0  0  0  0
  183.4140  175.0900  137.9470 C   0  0  0  0  0  2  0  0  0  0  0  0
  182.9080  173.7640  137.3780 C   0  0  0  0  0  2  0  0  0  0  0  0
  185.5630  172.6680  134.8150 C   0  0  0  0  0  2  0  0  0  0  0  0
  184.2000  173.1540  135.3310 C   0  0  0  0  0  2  0  0  0  0  0  0
  184.0470  172.9190  136.8360 C   0  0  0  0  0  3  0  0  0  0  0  0
  186.5800  172.7240  136.8180 C   0  0  0  0  0  2  0  0  0  0  0  0
  185.3470  173.2090  137.5960 C   0  0  0  0  0  2  0  0  0  0  0  0
  186.2160  171.8640  135.7670 O   0  0  0  0  0  0  0  0  0  0  0  0
  186.3610  178.0900  138.0970 C   0  0  2  0  0  3  0  0  0  0  0  0
  187.5710  179.3820  136.4920 C   0  0  0  0  0  1  0  0  0  0  0  0
  186.6720  178.2500  136.6620 N   0  0  0  0  0  0  0  0  0  0  0  0
  186.3530  176.3180  135.2180 C   0  0  0  0  0  1  0  0  0  0  0  0
  187.3220  177.0660  136.1120 C   0  0  0  0  0  2  0  0  0  0  0  0
  187.4400  177.3290  138.9000 C   0  0  0  0  0  2  0  0  0  0  0  0
  188.4220  178.2480  139.6130 C   0  0  0  0  0  1  0  0  0  0  0  0
  1 10  1  0  0  0  0
  3  6  1  0  0  0  0
  4 17  1  0  0  0  0
  5  3  1  0  0  0  0
  5 16  1  0  0  0  0
  6  9  1  0  0  0  0
  6  4  1  0  0  0  0
  7 23  1  0  0  0  0
  7  5  1  0  0  0  0
  8  4  1  0  0  0  0
  9 13  1  0  0  0  0
 10 13  2  0  0  0  0
 11 15  1  0  0  0  0
 12  8  1  0  0  0  0
 13 19  1  0  0  0  0
 14 20  1  0  0  0  0
 15 12  1  0  0  0  0
 15  3  1  0  0  0  0
 16  9  2  0  0  0  0
 17  2  1  0  0  0  0
 18 14  1  0  0  0  0
 18  7  1  0  0  0  0
 19  2  1  0  0  0  0
 20 21  1  0  0  0  0
 21 16  1  0  0  0  0
 21  1  2  0  0  0  0
 22  7  1  0  0  0  0
 24 23  1  0  0  0  0
 25 26  1  0  0  0  0
 25 30  1  0  0  0  0
 26 27  1  0  0  0  0
 27 24  1  0  0  0  0
 27 29  1  0  0  0  0
 28 29  1  0  0  0  0
 30 28  1  0  0  0  0
 31 20  1  0  0  0  0
 31 36  1  0  0  0  0
 32 33  1  0  0  0  0
 33 31  1  0  0  0  0
 34 35  1  0  0  0  0
 35 33  1  0  0  0  0
 36 37  1  0  0  0  0
M  END
>  <MODEL>
9

>  <REMARK>
 VINA RESULT:      -4.6      3.023      7.481
  Name = 
  7 active torsions:
  status: ('A' for Active; 'I' for Inactive)
    1  A    between atoms: C_7  and  C_14
    2  A    between atoms: C_7  and  C_15
    3  A    between atoms: C_8  and  C_15
    4  A    between atoms: C_11  and  C_26
    5  A    between atoms: N_17  and  C_23
    6  A    between atoms: N_17  and  C_26
    7  A    between atoms: C_26  and  C_33
                            x       y       z     vdW  Elec       q    Type
                         _______ _______ _______ _____ _____    ______ ____

>  <TORSDO>
F 7

$$$$
