=
 OpenBabel10262422463D

 37 44  0  0  1  0  0  0  0  0999 V2000
  184.9210  180.1490  143.7960 O   0  0  0  0  0  0  0  0  0  0  0  0
  183.0640  176.9120  139.0710 C   0  0  0  0  0  3  0  0  0  0  0  0
  190.2450  177.5370  143.5480 C   0  0  0  0  0  2  0  0  0  0  0  0
  187.6610  178.4060  140.6110 C   0  0  0  0  0  0  0  0  0  0  0  0
  184.5090  179.9350  145.1350 C   0  0  1  0  0  3  0  0  0  0  0  0
  183.6110  178.3050  139.3200 C   0  0  2  0  0  0  0  0  0  0  0  0
  183.8970  178.6910  140.6930 C   0  0  2  0  0  3  0  0  0  0  0  0
  182.8290  179.3640  138.5820 C   0  0  0  0  0  3  0  0  0  0  0  0
  189.1800  176.5520  141.4200 C   0  0  1  0  0  3  0  0  0  0  0  0
  186.5100  179.2270  141.1180 C   0  0  1  0  0  3  0  0  0  0  0  0
  188.1480  177.6380  141.5900 C   0  0  0  0  0  0  0  0  0  0  0  0
  185.3140  178.8390  140.4100 N   0  0  0  0  0  0  0  0  0  0  0  0
  181.5510  180.0360  136.7470 F   0  0  0  0  0  0  0  0  0  0  0  0
  190.4510  177.1250  141.2070 O   0  0  0  0  0  0  0  0  0  0  0  0
  183.4570  178.9720  145.2930 O   0  0  0  0  0  0  0  0  0  0  0  0
  182.3240  177.6800  136.8340 C   0  0  0  0  0  2  0  0  0  0  0  0
  182.2200  179.0670  137.4230 C   0  0  0  0  0  0  0  0  0  0  0  0
  187.2970  177.8090  142.7600 C   0  0  0  0  0  0  0  0  0  0  0  0
  188.2030  177.4490  145.0010 C   0  0  0  0  0  2  0  0  0  0  0  0
  187.3700  178.3060  138.1100 C   0  0  0  0  0  3  0  0  0  0  0  0
  189.4860  178.4680  139.0010 F   0  0  0  0  0  0  0  0  0  0  0  0
  187.3600  177.0530  143.9280 O   0  0  0  0  0  0  0  0  0  0  0  0
  182.9580  178.4700  144.0600 C   0  0  2  0  0  3  0  0  0  0  0  0
  183.6990  177.5810  141.7450 C   0  0  0  0  0  2  0  0  0  0  0  0
  188.1480  178.4120  139.2060 C   0  0  0  0  0  0  0  0  0  0  0  0
  186.3970  178.7430  142.5170 C   0  0  0  0  0  0  0  0  0  0  0  0
  190.2710  176.4850  142.4450 C   0  0  1  0  0  3  0  0  0  0  0  0
  185.0800  178.3970  139.0320 C   0  0  0  0  0  0  0  0  0  0  0  0
  189.6240  176.9430  144.7990 C   0  0  0  0  0  2  0  0  0  0  0  0
  184.1080  177.9620  143.1860 C   0  0  1  0  0  3  0  0  0  0  0  0
  182.4570  176.6290  137.9090 C   0  0  0  0  0  3  0  0  0  0  0  0
  185.2000  178.9250  143.2750 N   0  0  0  0  0  0  0  0  0  0  0  0
  185.8970  178.1780  138.0110 C   0  0  0  0  0  3  0  0  0  0  0  0
  182.0680  179.5020  143.3660 C   0  0  0  0  0  2  0  0  0  0  0  0
  180.7670  179.0090  143.2610 O   0  0  0  0  0  1  0  0  0  0  0  0
  185.2110  178.5270  146.8670 C   0  0  0  0  0  1  0  0  0  0  0  0
  185.6480  179.5810  145.9690 N   0  0  0  0  0  2  0  0  0  0  0  0
  1  5  1  0  0  0  0
  2  6  1  0  0  0  0
  3 29  1  0  0  0  0
  4 11  2  0  0  0  0
  5 15  1  0  0  0  0
  5 37  1  1  0  0  0
  6  8  1  6  0  0  0
  6  7  1  0  0  0  0
  7 24  1  1  0  0  0
  9 14  1  6  0  0  0
  9 11  1  0  0  0  0
  9 27  1  0  0  0  0
 10  4  1  6  0  0  0
 10 26  1  0  0  0  0
 11 18  1  0  0  0  0
 12  7  1  0  0  0  0
 12 10  1  0  0  0  0
 13 17  1  0  0  0  0
 14 27  1  0  0  0  0
 16 17  1  0  0  0  0
 16 31  1  0  0  0  0
 17  8  2  0  0  0  0
 18 22  1  0  0  0  0
 20 25  2  0  0  0  0
 21 25  1  0  0  0  0
 22 19  1  0  0  0  0
 23 34  1  6  0  0  0
 23 15  1  0  0  0  0
 25  4  1  0  0  0  0
 26 18  2  0  0  0  0
 26 32  1  0  0  0  0
 27  3  1  1  0  0  0
 28  6  1  0  0  0  0
 28 12  1  0  0  0  0
 29 19  1  0  0  0  0
 30 24  1  6  0  0  0
 30 32  1  0  0  0  0
 30 23  1  0  0  0  0
 31  2  2  0  0  0  0
 32  1  1  0  0  0  0
 33 20  1  0  0  0  0
 33 28  2  0  0  0  0
 35 34  1  0  0  0  0
 37 36  1  0  0  0  0
M  END
>  <MODEL>
1

>  <REMARK>
 VINA RESULT:      -8.2      0.000      0.000
  Name = 
  2 active torsions:
  status: ('A' for Active; 'I' for Inactive)
    1  A    between atoms: C_5  and  N_23
    2  A    between atoms: C_11  and  C_26
                            x       y       z     vdW  Elec       q    Type
                         _______ _______ _______ _____ _____    ______ ____

>  <TORSDO>
F 2

$$$$
=
 OpenBabel10262422463D

 37 44  0  0  1  0  0  0  0  0999 V2000
  189.9660  177.8450  136.8240 O   0  0  0  0  0  0  0  0  0  0  0  0
  188.8440  176.4350  142.5680 C   0  0  0  0  0  3  0  0  0  0  0  0
  184.2420  177.0590  135.4670 C   0  0  0  0  0  2  0  0  0  0  0  0
  185.9330  178.3290  138.8700 C   0  0  0  0  0  0  0  0  0  0  0  0
  190.6440  177.0070  135.9030 C   0  0  1  0  0  3  0  0  0  0  0  0
  189.0040  177.6980  141.7440 C   0  0  2  0  0  0  0  0  0  0  0  0
  189.3280  177.5560  140.3330 C   0  0  2  0  0  3  0  0  0  0  0  0
  189.8790  178.7190  142.4280 C   0  0  0  0  0  3  0  0  0  0  0  0
  184.1230  176.7780  138.0240 C   0  0  1  0  0  3  0  0  0  0  0  0
  187.4110  178.5400  138.7040 C   0  0  1  0  0  3  0  0  0  0  0  0
  185.5020  177.3880  138.0250 C   0  0  0  0  0  0  0  0  0  0  0  0
  188.0760  178.1720  139.9300 N   0  0  0  0  0  0  0  0  0  0  0  0
  190.6980  179.7140  144.3750 F   0  0  0  0  0  0  0  0  0  0  0  0
  183.1890  177.7000  137.5090 O   0  0  0  0  0  0  0  0  0  0  0  0
  191.2150  175.8220  136.4770 O   0  0  0  0  0  0  0  0  0  0  0  0
  189.1120  177.8200  144.6070 C   0  0  0  0  0  2  0  0  0  0  0  0
  189.9370  178.7670  143.7680 C   0  0  0  0  0  0  0  0  0  0  0  0
  186.6610  176.8400  137.3340 C   0  0  0  0  0  0  0  0  0  0  0  0
  186.4140  175.8560  135.1110 C   0  0  0  0  0  2  0  0  0  0  0  0
  185.3860  179.1780  141.1790 C   0  0  0  0  0  3  0  0  0  0  0  0
  183.8910  179.5160  139.4620 F   0  0  0  0  0  0  0  0  0  0  0  0
  186.6590  175.7210  136.5040 O   0  0  0  0  0  0  0  0  0  0  0  0
  191.0730  175.7510  137.8890 C   0  0  2  0  0  3  0  0  0  0  0  0
  189.3730  176.1050  139.8100 C   0  0  0  0  0  2  0  0  0  0  0  0
  185.0880  179.0320  139.8720 C   0  0  0  0  0  0  0  0  0  0  0  0
  187.7400  177.5200  137.6750 C   0  0  0  0  0  0  0  0  0  0  0  0
  183.4640  176.5910  136.6910 C   0  0  1  0  0  3  0  0  0  0  0  0
  187.6820  178.2820  141.3390 C   0  0  0  0  0  0  0  0  0  0  0  0
  184.9210  175.8680  134.8130 C   0  0  0  0  0  2  0  0  0  0  0  0
  189.6100  175.9620  138.2890 C   0  0  1  0  0  3  0  0  0  0  0  0
  188.9020  176.4980  143.9070 C   0  0  0  0  0  3  0  0  0  0  0  0
  189.0780  177.0570  137.4850 N   0  0  0  0  0  0  0  0  0  0  0  0
  186.5790  178.7180  141.9290 C   0  0  0  0  0  3  0  0  0  0  0  0
  192.0450  176.7010  138.5900 C   0  0  0  0  0  2  0  0  0  0  0  0
  193.3350  176.5050  138.0990 O   0  0  0  0  0  1  0  0  0  0  0  0
  189.8780  175.2240  134.5940 C   0  0  0  0  0  1  0  0  0  0  0  0
  189.7700  176.6580  134.7920 N   0  0  0  0  0  2  0  0  0  0  0  0
  1 32  1  0  0  0  0
  2 31  2  0  0  0  0
  4 25  1  0  0  0  0
  5 37  1  6  0  0  0
  5 15  1  0  0  0  0
  5  1  1  0  0  0  0
  6  8  1  1  0  0  0
  6  2  1  0  0  0  0
  7 24  1  6  0  0  0
  7  6  1  0  0  0  0
  8 17  2  0  0  0  0
  9 14  1  1  0  0  0
  9 11  1  0  0  0  0
 10 26  1  6  0  0  0
 10  4  1  0  0  0  0
 10 12  1  0  0  0  0
 11  4  2  0  0  0  0
 12  7  1  0  0  0  0
 12 28  1  0  0  0  0
 15 23  1  0  0  0  0
 17 13  1  0  0  0  0
 17 16  1  0  0  0  0
 18 26  2  0  0  0  0
 18 11  1  0  0  0  0
 19 22  1  0  0  0  0
 20 33  1  0  0  0  0
 21 25  1  0  0  0  0
 22 18  1  0  0  0  0
 23 30  1  0  0  0  0
 23 34  1  1  0  0  0
 25 20  2  0  0  0  0
 27  3  1  6  0  0  0
 27 14  1  0  0  0  0
 27  9  1  0  0  0  0
 28  6  1  0  0  0  0
 28 33  2  0  0  0  0
 29 19  1  0  0  0  0
 29  3  1  0  0  0  0
 30 24  1  1  0  0  0
 31 16  1  0  0  0  0
 32 26  1  0  0  0  0
 32 30  1  0  0  0  0
 35 34  1  0  0  0  0
 36 37  1  0  0  0  0
M  END
>  <MODEL>
2

>  <REMARK>
 VINA RESULT:      -7.1      3.554      8.429
  Name = 
  2 active torsions:
  status: ('A' for Active; 'I' for Inactive)
    1  A    between atoms: C_5  and  N_23
    2  A    between atoms: C_11  and  C_26
                            x       y       z     vdW  Elec       q    Type
                         _______ _______ _______ _____ _____    ______ ____

>  <TORSDO>
F 2

$$$$
=
 OpenBabel10262422463D

 37 44  0  0  1  0  0  0  0  0999 V2000
  187.5250  179.0510  137.2380 O   0  0  0  0  0  0  0  0  0  0  0  0
  188.7270  176.3570  142.4860 C   0  0  0  0  0  3  0  0  0  0  0  0
  181.7790  177.6720  137.7970 C   0  0  0  0  0  2  0  0  0  0  0  0
  184.5210  178.4790  140.6050 C   0  0  0  0  0  0  0  0  0  0  0  0
  187.8680  178.5310  135.9650 C   0  0  1  0  0  3  0  0  0  0  0  0
  188.4780  177.7690  141.9910 C   0  0  2  0  0  0  0  0  0  0  0  0
  188.2620  177.9660  140.5660 C   0  0  2  0  0  3  0  0  0  0  0  0
  189.4700  178.7550  142.5580 C   0  0  0  0  0  3  0  0  0  0  0  0
  182.6420  176.8670  140.0860 C   0  0  1  0  0  3  0  0  0  0  0  0
  185.8110  178.9470  139.9940 C   0  0  1  0  0  3  0  0  0  0  0  0
  183.8750  177.6720  139.7590 C   0  0  0  0  0  0  0  0  0  0  0  0
  186.9100  178.4480  140.7860 N   0  0  0  0  0  0  0  0  0  0  0  0
  190.8810  179.4540  144.2820 F   0  0  0  0  0  0  0  0  0  0  0  0
  181.5200  177.7170  140.1680 O   0  0  0  0  0  0  0  0  0  0  0  0
  188.6960  177.3590  135.9970 O   0  0  0  0  0  0  0  0  0  0  0  0
  189.6370  177.3280  144.5780 C   0  0  0  0  0  2  0  0  0  0  0  0
  190.0190  178.5420  143.7640 C   0  0  0  0  0  0  0  0  0  0  0  0
  184.7280  177.4610  138.5980 C   0  0  0  0  0  0  0  0  0  0  0  0
  183.7410  176.9180  136.4290 C   0  0  0  0  0  2  0  0  0  0  0  0
  184.8150  178.7500  143.0930 C   0  0  0  0  0  3  0  0  0  0  0  0
  182.7670  179.1890  142.1370 F   0  0  0  0  0  0  0  0  0  0  0  0
  184.4970  176.5460  137.5740 O   0  0  0  0  0  0  0  0  0  0  0  0
  189.0950  176.9840  137.3090 C   0  0  2  0  0  3  0  0  0  0  0  0
  188.2130  176.6750  139.7230 C   0  0  0  0  0  2  0  0  0  0  0  0
  184.0620  178.8250  141.9770 C   0  0  0  0  0  0  0  0  0  0  0  0
  185.8050  178.2180  138.7000 C   0  0  0  0  0  0  0  0  0  0  0  0
  181.5490  176.8520  139.0610 C   0  0  1  0  0  3  0  0  0  0  0  0
  187.0630  178.2090  142.2240 C   0  0  0  0  0  0  0  0  0  0  0  0
  182.2490  176.7570  136.6800 C   0  0  0  0  0  2  0  0  0  0  0  0
  187.8750  176.8800  138.2280 C   0  0  1  0  0  3  0  0  0  0  0  0
  189.2760  176.1580  143.6930 C   0  0  0  0  0  3  0  0  0  0  0  0
  187.0050  178.0180  137.9520 N   0  0  0  0  0  0  0  0  0  0  0  0
  186.2300  178.3410  143.2470 C   0  0  0  0  0  3  0  0  0  0  0  0
  190.1870  177.9140  137.8390 C   0  0  0  0  0  2  0  0  0  0  0  0
  191.2850  177.1620  138.2580 O   0  0  0  0  0  1  0  0  0  0  0  0
  186.8070  176.9580  134.5940 C   0  0  0  0  0  1  0  0  0  0  0  0
  186.6700  178.2820  135.1750 N   0  0  0  0  0  2  0  0  0  0  0  0
  1 32  1  0  0  0  0
  2 31  2  0  0  0  0
  4 25  1  0  0  0  0
  5 37  1  1  0  0  0
  5 15  1  0  0  0  0
  5  1  1  0  0  0  0
  6 28  1  0  0  0  0
  6  2  1  1  0  0  0
  6  8  1  0  0  0  0
  7 24  1  6  0  0  0
  7 12  1  0  0  0  0
  7  6  1  0  0  0  0
  8 17  2  0  0  0  0
  9 11  1  6  0  0  0
  9 14  1  0  0  0  0
 10 26  1  6  0  0  0
 10  4  1  0  0  0  0
 10 12  1  0  0  0  0
 11  4  2  0  0  0  0
 12 28  1  0  0  0  0
 15 23  1  0  0  0  0
 17 13  1  0  0  0  0
 17 16  1  0  0  0  0
 18 26  2  0  0  0  0
 18 11  1  0  0  0  0
 19 29  1  0  0  0  0
 19 22  1  0  0  0  0
 20 33  1  0  0  0  0
 22 18  1  0  0  0  0
 23 34  1  1  0  0  0
 23 30  1  0  0  0  0
 25 21  1  0  0  0  0
 25 20  2  0  0  0  0
 27  3  1  6  0  0  0
 27  9  1  0  0  0  0
 27 14  1  0  0  0  0
 28 33  2  0  0  0  0
 29  3  1  0  0  0  0
 30 24  1  1  0  0  0
 31 16  1  0  0  0  0
 32 30  1  0  0  0  0
 32 26  1  0  0  0  0
 34 35  1  0  0  0  0
 36 37  1  0  0  0  0
M  END
>  <MODEL>
3

>  <REMARK>
 VINA RESULT:      -6.8      2.833      7.995
  Name = 
  2 active torsions:
  status: ('A' for Active; 'I' for Inactive)
    1  A    between atoms: C_5  and  N_23
    2  A    between atoms: C_11  and  C_26
                            x       y       z     vdW  Elec       q    Type
                         _______ _______ _______ _____ _____    ______ ____

>  <TORSDO>
F 2

$$$$
=
 OpenBabel10262422463D

 37 44  0  0  1  0  0  0  0  0999 V2000
  183.2540  180.1100  139.1090 O   0  0  0  0  0  0  0  0  0  0  0  0
  186.8360  175.5380  137.5230 C   0  0  0  0  0  3  0  0  0  0  0  0
  184.5470  179.1960  144.8290 C   0  0  0  0  0  2  0  0  0  0  0  0
  186.7850  178.6150  141.5560 C   0  0  0  0  0  0  0  0  0  0  0  0
  181.8380  180.0750  139.0790 C   0  0  1  0  0  3  0  0  0  0  0  0
  186.9320  177.0500  137.6050 C   0  0  2  0  0  0  0  0  0  0  0  0
  185.7490  177.7870  138.0200 C   0  0  2  0  0  3  0  0  0  0  0  0
  187.5730  177.6480  136.3760 C   0  0  0  0  0  3  0  0  0  0  0  0
  186.1640  177.5090  143.7440 C   0  0  1  0  0  3  0  0  0  0  0  0
  186.1070  179.1480  140.3260 C   0  0  1  0  0  3  0  0  0  0  0  0
  185.8750  178.2530  142.4650 C   0  0  0  0  0  0  0  0  0  0  0  0
  186.4130  178.2830  139.2130 N   0  0  0  0  0  0  0  0  0  0  0  0
  189.0770  177.5050  134.5960 F   0  0  0  0  0  0  0  0  0  0  0  0
  186.7810  178.3720  144.6730 O   0  0  0  0  0  0  0  0  0  0  0  0
  181.2780  178.9020  138.4720 O   0  0  0  0  0  0  0  0  0  0  0  0
  188.8810  175.5580  136.1210 C   0  0  0  0  0  2  0  0  0  0  0  0
  188.4770  176.9440  135.6780 C   0  0  0  0  0  0  0  0  0  0  0  0
  184.5560  178.4100  141.8680 C   0  0  0  0  0  0  0  0  0  0  0  0
  182.6070  178.8220  143.2840 C   0  0  0  0  0  2  0  0  0  0  0  0
  189.0820  177.9010  140.8060 C   0  0  0  0  0  3  0  0  0  0  0  0
  188.8130  178.8670  142.8780 F   0  0  0  0  0  0  0  0  0  0  0  0
  183.3540  177.9740  142.4220 O   0  0  0  0  0  0  0  0  0  0  0  0
  182.2550  178.0240  137.9290 C   0  0  2  0  0  3  0  0  0  0  0  0
  184.5410  176.9200  138.4320 C   0  0  0  0  0  2  0  0  0  0  0  0
  188.2560  178.4640  141.7110 C   0  0  0  0  0  0  0  0  0  0  0  0
  184.6750  178.9630  140.6750 C   0  0  0  0  0  0  0  0  0  0  0  0
  185.4640  177.9880  144.9810 C   0  0  1  0  0  3  0  0  0  0  0  0
  187.6080  177.5080  138.8630 C   0  0  0  0  0  0  0  0  0  0  0  0
  183.1070  178.7260  144.7180 C   0  0  0  0  0  2  0  0  0  0  0  0
  183.3250  177.7030  138.9760 C   0  0  1  0  0  3  0  0  0  0  0  0
  187.7470  174.8470  136.8210 C   0  0  0  0  0  3  0  0  0  0  0  0
  183.6600  178.9410  139.6710 N   0  0  0  0  0  0  0  0  0  0  0  0
  188.7690  177.3270  139.4760 C   0  0  0  0  0  3  0  0  0  0  0  0
  182.8220  178.5740  136.6190 C   0  0  0  0  0  2  0  0  0  0  0  0
  182.2780  177.8780  135.5400 O   0  0  0  0  0  1  0  0  0  0  0  0
  180.0420  179.5270  140.4770 C   0  0  0  0  0  1  0  0  0  0  0  0
  181.2940  180.2600  140.4170 N   0  0  0  0  0  2  0  0  0  0  0  0
  1 32  1  0  0  0  0
  2  6  1  0  0  0  0
  4 25  1  0  0  0  0
  4 11  2  0  0  0  0
  5  1  1  0  0  0  0
  5 37  1  1  0  0  0
  6  8  1  6  0  0  0
  6  7  1  0  0  0  0
  6 28  1  0  0  0  0
  7 24  1  1  0  0  0
  7 12  1  0  0  0  0
  9 11  1  6  0  0  0
  9 14  1  0  0  0  0
  9 27  1  0  0  0  0
 10 26  1  1  0  0  0
 10  4  1  0  0  0  0
 12 10  1  0  0  0  0
 13 17  1  0  0  0  0
 14 27  1  0  0  0  0
 15  5  1  0  0  0  0
 16 31  1  0  0  0  0
 17 16  1  0  0  0  0
 17  8  2  0  0  0  0
 18 22  1  0  0  0  0
 18 11  1  0  0  0  0
 19 29  1  0  0  0  0
 20 25  2  0  0  0  0
 22 19  1  0  0  0  0
 23 34  1  6  0  0  0
 23 15  1  0  0  0  0
 23 30  1  0  0  0  0
 25 21  1  0  0  0  0
 26 18  2  0  0  0  0
 27  3  1  6  0  0  0
 28 12  1  0  0  0  0
 28 33  2  0  0  0  0
 29  3  1  0  0  0  0
 30 24  1  6  0  0  0
 30 32  1  0  0  0  0
 31  2  2  0  0  0  0
 32 26  1  0  0  0  0
 33 20  1  0  0  0  0
 35 34  1  0  0  0  0
 37 36  1  0  0  0  0
M  END
>  <MODEL>
4

>  <REMARK>
 VINA RESULT:      -6.5      2.697      5.180
  Name = 
  2 active torsions:
  status: ('A' for Active; 'I' for Inactive)
    1  A    between atoms: C_5  and  N_23
    2  A    between atoms: C_11  and  C_26
                            x       y       z     vdW  Elec       q    Type
                         _______ _______ _______ _____ _____    ______ ____

>  <TORSDO>
F 2

$$$$
=
 OpenBabel10262422463D

 37 44  0  0  1  0  0  0  0  0999 V2000
  185.6300  180.0220  142.2570 O   0  0  0  0  0  0  0  0  0  0  0  0
  186.4630  176.2380  137.6490 C   0  0  0  0  0  3  0  0  0  0  0  0
  189.9020  177.2840  145.3360 C   0  0  0  0  0  2  0  0  0  0  0  0
  189.5110  177.8190  141.3830 C   0  0  0  0  0  0  0  0  0  0  0  0
  184.5180  179.9940  143.1350 C   0  0  1  0  0  3  0  0  0  0  0  0
  186.9010  177.6390  138.0310 C   0  0  2  0  0  0  0  0  0  0  0  0
  186.3990  178.1950  139.2780 C   0  0  2  0  0  3  0  0  0  0  0  0
  186.7720  178.6100  136.8830 C   0  0  0  0  0  3  0  0  0  0  0  0
  190.1340  176.0540  143.0840 C   0  0  1  0  0  3  0  0  0  0  0  0
  188.3560  178.7240  141.0630 C   0  0  1  0  0  3  0  0  0  0  0  0
  189.2900  177.1750  142.5330 C   0  0  0  0  0  0  0  0  0  0  0  0
  187.7360  178.2740  139.8410 N   0  0  0  0  0  0  0  0  0  0  0  0
  186.8160  179.0650  134.5940 F   0  0  0  0  0  0  0  0  0  0  0  0
  191.3500  176.5660  143.5800 O   0  0  0  0  0  0  0  0  0  0  0  0
  183.4760  179.0830  142.7570 O   0  0  0  0  0  0  0  0  0  0  0  0
  187.1850  176.7240  135.3280 C   0  0  0  0  0  2  0  0  0  0  0  0
  186.8950  178.1780  135.6180 C   0  0  0  0  0  0  0  0  0  0  0  0
  187.9490  177.5150  142.9870 C   0  0  0  0  0  0  0  0  0  0  0  0
  187.3990  177.4320  145.3670 C   0  0  0  0  0  2  0  0  0  0  0  0
  190.6700  177.4000  139.1850 C   0  0  0  0  0  3  0  0  0  0  0  0
  191.9230  177.6300  141.1030 F   0  0  0  0  0  0  0  0  0  0  0  0
  187.2730  176.9170  144.0480 O   0  0  0  0  0  0  0  0  0  0  0  0
  183.7130  178.4360  141.5140 C   0  0  2  0  0  3  0  0  0  0  0  0
  185.5420  177.2360  140.1300 C   0  0  0  0  0  2  0  0  0  0  0  0
  190.7030  177.6310  140.5130 C   0  0  0  0  0  0  0  0  0  0  0  0
  187.4310  178.4300  142.1870 C   0  0  0  0  0  0  0  0  0  0  0  0
  190.4470  176.0970  144.5500 C   0  0  1  0  0  3  0  0  0  0  0  0
  188.2790  177.6610  138.6250 C   0  0  0  0  0  0  0  0  0  0  0  0
  188.6330  176.8730  146.0600 C   0  0  0  0  0  2  0  0  0  0  0  0
  185.1030  177.7930  141.5040 C   0  0  1  0  0  3  0  0  0  0  0  0
  186.5920  175.8190  136.3820 C   0  0  0  0  0  3  0  0  0  0  0  0
  186.0390  178.7350  142.1060 N   0  0  0  0  0  0  0  0  0  0  0  0
  189.5040  177.2920  138.2780 C   0  0  0  0  0  3  0  0  0  0  0  0
  183.4670  179.3870  140.3420 C   0  0  0  0  0  2  0  0  0  0  0  0
  182.1290  179.3240  139.9540 O   0  0  0  0  0  1  0  0  0  0  0  0
  183.9080  178.9440  145.1360 C   0  0  0  0  0  1  0  0  0  0  0  0
  184.9520  179.7270  144.4990 N   0  0  0  0  0  2  0  0  0  0  0  0
  1  5  1  0  0  0  0
  2  6  1  0  0  0  0
  3 29  1  0  0  0  0
  4 11  2  0  0  0  0
  5 37  1  1  0  0  0
  6  8  1  6  0  0  0
  6 28  1  0  0  0  0
  6  7  1  0  0  0  0
  7 12  1  0  0  0  0
  7 24  1  1  0  0  0
  9 11  1  1  0  0  0
  9 14  1  0  0  0  0
  9 27  1  0  0  0  0
 10  4  1  1  0  0  0
 10 26  1  0  0  0  0
 11 18  1  0  0  0  0
 12 10  1  0  0  0  0
 13 17  1  0  0  0  0
 14 27  1  0  0  0  0
 15  5  1  0  0  0  0
 16 17  1  0  0  0  0
 16 31  1  0  0  0  0
 17  8  2  0  0  0  0
 18 22  1  0  0  0  0
 19 29  1  0  0  0  0
 20 25  2  0  0  0  0
 22 19  1  0  0  0  0
 23 34  1  6  0  0  0
 23 15  1  0  0  0  0
 25 21  1  0  0  0  0
 25  4  1  0  0  0  0
 26 18  2  0  0  0  0
 27  3  1  1  0  0  0
 28 12  1  0  0  0  0
 30 24  1  6  0  0  0
 30 23  1  0  0  0  0
 30 32  1  0  0  0  0
 31  2  2  0  0  0  0
 32 26  1  0  0  0  0
 32  1  1  0  0  0  0
 33 28  2  0  0  0  0
 33 20  1  0  0  0  0
 35 34  1  0  0  0  0
 37 36  1  0  0  0  0
M  END
>  <MODEL>
5

>  <REMARK>
 VINA RESULT:      -5.6      2.126      2.955
  Name = 
  2 active torsions:
  status: ('A' for Active; 'I' for Inactive)
    1  A    between atoms: C_5  and  N_23
    2  A    between atoms: C_11  and  C_26
                            x       y       z     vdW  Elec       q    Type
                         _______ _______ _______ _____ _____    ______ ____

>  <TORSDO>
F 2

$$$$
=
 OpenBabel10262422463D

 37 44  0  0  1  0  0  0  0  0999 V2000
  183.8010  177.4760  141.3250 O   0  0  0  0  0  0  0  0  0  0  0  0
  187.1080  178.2540  136.3550 C   0  0  0  0  0  3  0  0  0  0  0  0
  178.9310  179.2100  138.4090 C   0  0  0  0  0  2  0  0  0  0  0  0
  182.1820  177.2820  137.0790 C   0  0  0  0  0  0  0  0  0  0  0  0
  183.8310  178.3270  142.4580 C   0  0  1  0  0  3  0  0  0  0  0  0
  186.4310  177.1010  137.0710 C   0  0  2  0  0  0  0  0  0  0  0  0
  185.7460  177.3830  138.3230 C   0  0  2  0  0  3  0  0  0  0  0  0
  187.3230  175.8880  137.1720 C   0  0  0  0  0  3  0  0  0  0  0  0
  180.6110  179.1640  136.4570 C   0  0  1  0  0  3  0  0  0  0  0  0
  183.0920  176.8950  138.2100 C   0  0  1  0  0  3  0  0  0  0  0  0
  181.4860  178.3760  137.4000 C   0  0  0  0  0  0  0  0  0  0  0  0
  184.4600  177.0020  137.7650 N   0  0  0  0  0  0  0  0  0  0  0  0
  189.0250  174.5420  136.3090 F   0  0  0  0  0  0  0  0  0  0  0  0
  179.4200  178.4550  136.2000 O   0  0  0  0  0  0  0  0  0  0  0  0
  184.8510  179.3360  142.4240 O   0  0  0  0  0  0  0  0  0  0  0  0
  188.4020  176.5880  135.0520 C   0  0  0  0  0  2  0  0  0  0  0  0
  188.2520  175.6550  136.2310 C   0  0  0  0  0  0  0  0  0  0  0  0
  181.9600  178.8470  138.6930 C   0  0  0  0  0  0  0  0  0  0  0  0
  180.4810  180.1410  140.1470 C   0  0  0  0  0  2  0  0  0  0  0  0
  183.1730  176.2180  135.0210 C   0  0  0  0  0  3  0  0  0  0  0  0
  180.8850  176.3180  135.2570 F   0  0  0  0  0  0  0  0  0  0  0  0
  181.6150  180.0550  139.2950 O   0  0  0  0  0  0  0  0  0  0  0  0
  185.7070  179.2390  141.2940 C   0  0  2  0  0  3  0  0  0  0  0  0
  185.7050  178.8700  138.7320 C   0  0  0  0  0  2  0  0  0  0  0  0
  182.1120  176.5750  135.7720 C   0  0  0  0  0  0  0  0  0  0  0  0
  182.8340  177.9870  139.1830 C   0  0  0  0  0  0  0  0  0  0  0  0
  179.2810  179.6140  136.9820 C   0  0  1  0  0  3  0  0  0  0  0  0
  185.0990  176.7620  136.4680 C   0  0  0  0  0  0  0  0  0  0  0  0
  179.2080  180.3720  139.3460 C   0  0  0  0  0  2  0  0  0  0  0  0
  184.8830  179.1790  140.0050 C   0  0  1  0  0  3  0  0  0  0  0  0
  188.0340  178.0070  135.4170 C   0  0  0  0  0  3  0  0  0  0  0  0
  183.7550  178.2830  140.2330 N   0  0  0  0  0  0  0  0  0  0  0  0
  184.6190  176.4070  135.2850 C   0  0  0  0  0  3  0  0  0  0  0  0
  186.6930  178.0800  141.4480 C   0  0  0  0  0  2  0  0  0  0  0  0
  188.0010  178.5560  141.3500 O   0  0  0  0  0  1  0  0  0  0  0  0
  182.2890  178.9510  144.1060 C   0  0  0  0  0  1  0  0  0  0  0  0
  182.5260  178.9360  142.6730 N   0  0  0  0  0  2  0  0  0  0  0  0
  1  5  1  0  0  0  0
  3 29  1  0  0  0  0
  4 11  2  0  0  0  0
  5 37  1  6  0  0  0
  6  2  1  6  0  0  0
  6  8  1  0  0  0  0
  6  7  1  0  0  0  0
  7 24  1  6  0  0  0
  9 14  1  6  0  0  0
  9 27  1  0  0  0  0
  9 11  1  0  0  0  0
 10  4  1  6  0  0  0
 10 26  1  0  0  0  0
 11 18  1  0  0  0  0
 12 10  1  0  0  0  0
 12  7  1  0  0  0  0
 14 27  1  0  0  0  0
 15  5  1  0  0  0  0
 16 31  1  0  0  0  0
 16 17  1  0  0  0  0
 17 13  1  0  0  0  0
 17  8  2  0  0  0  0
 18 26  2  0  0  0  0
 18 22  1  0  0  0  0
 20 33  1  0  0  0  0
 20 25  2  0  0  0  0
 21 25  1  0  0  0  0
 22 19  1  0  0  0  0
 23 34  1  1  0  0  0
 23 15  1  0  0  0  0
 25  4  1  0  0  0  0
 26 32  1  0  0  0  0
 27  3  1  1  0  0  0
 28  6  1  0  0  0  0
 28 12  1  0  0  0  0
 29 19  1  0  0  0  0
 30 24  1  6  0  0  0
 30 32  1  0  0  0  0
 30 23  1  0  0  0  0
 31  2  2  0  0  0  0
 32  1  1  0  0  0  0
 33 28  2  0  0  0  0
 35 34  1  0  0  0  0
 37 36  1  0  0  0  0
M  END
>  <MODEL>
6

>  <REMARK>
 VINA RESULT:      -5.5      2.754      6.969
  Name = 
  2 active torsions:
  status: ('A' for Active; 'I' for Inactive)
    1  A    between atoms: C_5  and  N_23
    2  A    between atoms: C_11  and  C_26
                            x       y       z     vdW  Elec       q    Type
                         _______ _______ _______ _____ _____    ______ ____

>  <TORSDO>
F 2

$$$$
=
 OpenBabel10262422463D

 37 44  0  0  1  0  0  0  0  0999 V2000
  190.5730  175.9090  140.2790 O   0  0  0  0  0  0  0  0  0  0  0  0
  194.1810  175.0170  135.5430 C   0  0  0  0  0  3  0  0  0  0  0  0
  185.9760  176.8740  136.6510 C   0  0  0  0  0  2  0  0  0  0  0  0
  189.1750  174.5050  136.1850 C   0  0  0  0  0  0  0  0  0  0  0  0
  190.5930  177.0610  141.1050 C   0  0  1  0  0  3  0  0  0  0  0  0
  193.4000  174.1620  136.5230 C   0  0  2  0  0  0  0  0  0  0  0  0
  192.6670  174.8360  137.5830 C   0  0  2  0  0  3  0  0  0  0  0  0
  194.2130  173.0020  137.0420 C   0  0  0  0  0  3  0  0  0  0  0  0
  187.7520  176.1730  134.9230 C   0  0  1  0  0  3  0  0  0  0  0  0
  189.9990  174.4420  137.4390 C   0  0  1  0  0  3  0  0  0  0  0  0
  188.5280  175.6720  136.1150 C   0  0  0  0  0  0  0  0  0  0  0  0
  191.3930  174.3560  137.0780 N   0  0  0  0  0  0  0  0  0  0  0  0
  195.8770  171.3920  136.7410 F   0  0  0  0  0  0  0  0  0  0  0  0
  186.5370  175.4670  134.8080 O   0  0  0  0  0  0  0  0  0  0  0  0
  191.6700  177.9710  140.8410 O   0  0  0  0  0  0  0  0  0  0  0  0
  195.4430  172.9850  134.8900 C   0  0  0  0  0  2  0  0  0  0  0  0
  195.1760  172.4590  136.2800 C   0  0  0  0  0  0  0  0  0  0  0  0
  188.9590  176.4930  137.2380 C   0  0  0  0  0  0  0  0  0  0  0  0
  187.4830  178.2230  138.1340 C   0  0  0  0  0  2  0  0  0  0  0  0
  190.2100  172.8310  134.6120 C   0  0  0  0  0  3  0  0  0  0  0  0
  187.9230  173.0890  134.6500 F   0  0  0  0  0  0  0  0  0  0  0  0
  188.6540  177.8400  137.4260 O   0  0  0  0  0  0  0  0  0  0  0  0
  192.5780  177.5030  139.8530 C   0  0  2  0  0  3  0  0  0  0  0  0
  192.6910  176.3780  137.5250 C   0  0  0  0  0  2  0  0  0  0  0  0
  189.1330  173.4410  135.1480 C   0  0  0  0  0  0  0  0  0  0  0  0
  189.7530  175.7870  138.0210 C   0  0  0  0  0  0  0  0  0  0  0  0
  186.4250  176.8130  135.1960 C   0  0  1  0  0  3  0  0  0  0  0  0
  192.0850  173.7100  135.9580 C   0  0  0  0  0  0  0  0  0  0  0  0
  186.2700  178.2530  137.2140 C   0  0  0  0  0  2  0  0  0  0  0  0
  191.8230  177.0890  138.5870 C   0  0  1  0  0  3  0  0  0  0  0  0
  195.1400  174.4610  134.7870 C   0  0  0  0  0  3  0  0  0  0  0  0
  190.6330  176.3490  138.9950 N   0  0  0  0  0  0  0  0  0  0  0  0
  191.6480  173.0330  134.9060 C   0  0  0  0  0  3  0  0  0  0  0  0
  193.4850  176.4070  140.4140 C   0  0  0  0  0  2  0  0  0  0  0  0
  194.8220  176.7540  140.2190 O   0  0  0  0  0  1  0  0  0  0  0  0
  188.5000  177.2650  142.1330 C   0  0  0  0  0  1  0  0  0  0  0  0
  189.3150  177.7580  141.0380 N   0  0  0  0  0  2  0  0  0  0  0  0
  1  5  1  0  0  0  0
  3 29  1  0  0  0  0
  5 37  1  6  0  0  0
  6  2  1  6  0  0  0
  6  8  1  0  0  0  0
  6  7  1  0  0  0  0
  7 24  1  6  0  0  0
  9 14  1  6  0  0  0
  9 27  1  0  0  0  0
  9 11  1  0  0  0  0
 10  4  1  6  0  0  0
 10 26  1  0  0  0  0
 11  4  2  0  0  0  0
 11 18  1  0  0  0  0
 12 10  1  0  0  0  0
 12  7  1  0  0  0  0
 14 27  1  0  0  0  0
 15  5  1  0  0  0  0
 16 17  1  0  0  0  0
 17 13  1  0  0  0  0
 17  8  2  0  0  0  0
 18 22  1  0  0  0  0
 18 26  2  0  0  0  0
 20 33  1  0  0  0  0
 20 25  2  0  0  0  0
 21 25  1  0  0  0  0
 22 19  1  0  0  0  0
 23 34  1  1  0  0  0
 23 15  1  0  0  0  0
 25  4  1  0  0  0  0
 26 32  1  0  0  0  0
 27  3  1  1  0  0  0
 28  6  1  0  0  0  0
 28 12  1  0  0  0  0
 29 19  1  0  0  0  0
 30 24  1  6  0  0  0
 30 32  1  0  0  0  0
 30 23  1  0  0  0  0
 31 16  1  0  0  0  0
 31  2  2  0  0  0  0
 32  1  1  0  0  0  0
 33 28  2  0  0  0  0
 35 34  1  0  0  0  0
 37 36  1  0  0  0  0
M  END
>  <MODEL>
7

>  <REMARK>
 VINA RESULT:      -5.3      5.661      9.518
  Name = 
  2 active torsions:
  status: ('A' for Active; 'I' for Inactive)
    1  A    between atoms: C_5  and  N_23
    2  A    between atoms: C_11  and  C_26
                            x       y       z     vdW  Elec       q    Type
                         _______ _______ _______ _____ _____    ______ ____

>  <TORSDO>
F 2

$$$$
