=
 OpenBabel10262422083D

 43 48  0  0  1  0  0  0  0  0999 V2000
  187.8580  177.3550  146.9500 C   0  0  0  0  0  0  0  0  0  0  0  0
  186.0270  178.6250  142.4130 C   0  0  0  0  0  0  0  0  0  0  0  0
  188.0700  178.1640  140.6170 C   0  0  0  0  0  0  0  0  0  0  0  0
  186.4350  178.1030  145.1390 C   0  0  0  0  0  0  0  0  0  0  0  0
  188.8960  177.1200  146.0450 C   0  0  0  0  0  3  0  0  0  0  0  0
  188.0420  177.1070  148.2690 F   0  0  0  0  0  0  0  0  0  0  0  0
  187.4830  177.8680  144.2150 C   0  0  0  0  0  0  0  0  0  0  0  0
  186.6300  177.8460  146.4980 C   0  0  0  0  0  3  0  0  0  0  0  0
  188.7110  177.3750  144.6840 C   0  0  0  0  0  3  0  0  0  0  0  0
  188.2630  177.9130  141.9370 N   0  0  0  0  0  0  0  0  0  0  0  0
  187.2760  178.1300  142.8490 C   0  0  0  0  0  0  0  0  0  0  0  0
  185.0010  178.8530  143.3390 C   0  0  0  0  0  3  0  0  0  0  0  0
  185.8470  178.8770  141.0490 C   0  0  0  0  0  0  0  0  0  0  0  0
  186.8710  178.6410  140.1840 N   0  0  0  0  0  0  0  0  0  0  0  0
  185.2050  178.5930  144.6950 C   0  0  0  0  0  3  0  0  0  0  0  0
  189.1790  177.9110  139.6510 C   0  0  1  0  0  3  0  0  0  0  0  0
  190.3480  177.2450  140.3550 C   0  0  0  0  0  1  0  0  0  0  0  0
  188.6890  177.0550  138.4910 C   0  0  0  0  0  2  0  0  0  0  0  0
  188.3520  177.9110  137.2810 C   0  0  1  0  0  3  0  0  0  0  0  0
  189.0620  179.2440  137.4070 C   0  0  0  0  0  1  0  0  0  0  0  0
  188.8030  177.2080  136.0040 C   0  0  0  0  0  2  0  0  0  0  0  0
  189.3210  175.7950  136.2670 C   0  0  1  0  0  3  0  0  0  0  0  0
  190.1030  173.2300  136.0410 C   0  0  0  0  0  2  0  0  0  0  0  0
  188.2740  174.8580  136.2000 O   0  0  0  0  0  0  0  0  0  0  0  0
  190.4390  175.3960  135.2850 C   0  0  2  0  0  3  0  0  0  0  0  0
  190.3880  174.0280  134.9100 O   0  0  0  0  0  0  0  0  0  0  0  0
  188.7740  173.6380  136.7050 C   0  0  0  0  0  2  0  0  0  0  0  0
  192.8810  175.8900  134.8590 C   0  0  0  0  0  3  0  0  0  0  0  0
  191.8030  175.8100  135.7490 C   0  0  0  0  0  0  0  0  0  0  0  0
  193.4750  176.8400  138.9000 N   0  0  0  0  0  1  0  0  0  0  0  0
  194.2990  176.5860  136.6500 N   0  0  0  0  0  0  0  0  0  0  0  0
  193.2650  176.5170  137.5320 C   0  0  0  0  0  0  0  0  0  0  0  0
  194.1330  176.2840  135.3350 C   0  0  0  0  0  3  0  0  0  0  0  0
  191.9970  176.1270  137.0950 C   0  0  0  0  0  3  0  0  0  0  0  0
  184.6230  179.3700  140.5810 O   0  0  0  0  0  0  0  0  0  0  0  0
  181.6540  178.9680  138.3810 C   0  0  0  0  0  2  0  0  0  0  0  0
  180.7770  178.4710  139.5400 C   0  0  1  0  0  0  0  0  0  0  0  0
  179.7680  179.5440  139.8940 C   0  0  0  0  0  1  0  0  0  0  0  0
  182.9710  177.5940  140.4420 C   0  0  0  0  0  2  0  0  0  0  0  0
  182.9370  179.6290  138.8790 C   0  0  0  0  0  2  0  0  0  0  0  0
  183.7980  178.6430  139.6790 C   0  0  1  0  0  3  0  0  0  0  0  0
  180.0950  177.3450  139.1230 F   0  0  0  0  0  0  0  0  0  0  0  0
  181.5850  178.1250  140.7990 C   0  0  0  0  0  2  0  0  0  0  0  0
  1  6  1  0  0  0  0
  2 11  2  0  0  0  0
  2 12  1  0  0  0  0
  3 10  2  0  0  0  0
  4  8  2  0  0  0  0
  5  1  2  0  0  0  0
  7  9  2  0  0  0  0
  7  4  1  0  0  0  0
  8  1  1  0  0  0  0
  9  5  1  0  0  0  0
 10 11  1  0  0  0  0
 11  7  1  0  0  0  0
 12 15  2  0  0  0  0
 13  2  1  0  0  0  0
 14  3  1  0  0  0  0
 14 13  2  0  0  0  0
 15  4  1  0  0  0  0
 16 17  1  1  0  0  0
 16  3  1  0  0  0  0
 18 16  1  0  0  0  0
 19 20  1  1  0  0  0
 19 18  1  0  0  0  0
 21 19  1  0  0  0  0
 22 21  1  6  0  0  0
 23 27  1  0  0  0  0
 24 22  1  0  0  0  0
 24 27  1  0  0  0  0
 25 29  1  1  0  0  0
 25 22  1  0  0  0  0
 26 25  1  0  0  0  0
 26 23  1  0  0  0  0
 28 33  2  0  0  0  0
 28 29  1  0  0  0  0
 29 34  2  0  0  0  0
 31 32  2  0  0  0  0
 32 30  1  0  0  0  0
 33 31  1  0  0  0  0
 34 32  1  0  0  0  0
 35 13  1  0  0  0  0
 36 40  1  0  0  0  0
 36 37  1  0  0  0  0
 37 38  1  1  0  0  0
 37 43  1  0  0  0  0
 39 43  1  0  0  0  0
 40 41  1  0  0  0  0
 41 39  1  0  0  0  0
 41 35  1  1  0  0  0
 42 37  1  0  0  0  0
M  END
>  <MODEL>
1

>  <REMARK>
 VINA RESULT:     -10.3      0.000      0.000
  Name = 
  8 active torsions:
  status: ('A' for Active; 'I' for Inactive)
    1  A    between atoms: O_1  and  C_34
    2  A    between atoms: O_1  and  C_35
    3  A    between atoms: C_2  and  C_6
    4  A    between atoms: C_2  and  C_13
    5  A    between atoms: C_3  and  C_4
    6  A    between atoms: C_3  and  C_12
    7  A    between atoms: C_6  and  C_12
    8  A    between atoms: C_14  and  C_22
                            x       y       z     vdW  Elec       q    Type
                         _______ _______ _______ _____ _____    ______ ____

>  <TORSDO>
F 8

$$$$
=
 OpenBabel10262422083D

 43 48  0  0  1  0  0  0  0  0999 V2000
  191.4690  176.4380  147.2890 C   0  0  0  0  0  0  0  0  0  0  0  0
  189.1800  177.2540  142.8570 C   0  0  0  0  0  0  0  0  0  0  0  0
  186.5760  177.9340  143.4650 C   0  0  0  0  0  0  0  0  0  0  0  0
  190.9790  176.6750  144.9300 C   0  0  0  0  0  0  0  0  0  0  0  0
  190.1510  176.7810  147.6020 C   0  0  0  0  0  3  0  0  0  0  0  0
  192.3470  176.1560  148.2810 F   0  0  0  0  0  0  0  0  0  0  0  0
  189.6420  177.0230  145.2390 C   0  0  0  0  0  0  0  0  0  0  0  0
  191.8820  176.3850  145.9560 C   0  0  0  0  0  3  0  0  0  0  0  0
  189.2410  177.0720  146.5830 C   0  0  0  0  0  3  0  0  0  0  0  0
  187.4500  177.6520  144.4650 N   0  0  0  0  0  0  0  0  0  0  0  0
  188.7410  177.3130  144.1990 C   0  0  0  0  0  0  0  0  0  0  0  0
  190.5050  176.9080  142.5670 C   0  0  0  0  0  3  0  0  0  0  0  0
  188.2640  177.5480  141.8410 C   0  0  0  0  0  0  0  0  0  0  0  0
  186.9850  177.8810  142.1680 N   0  0  0  0  0  0  0  0  0  0  0  0
  191.4000  176.6190  143.5990 C   0  0  0  0  0  3  0  0  0  0  0  0
  185.1690  178.3020  143.8010 C   0  0  1  0  0  3  0  0  0  0  0  0
  185.1320  179.1300  145.0740 C   0  0  0  0  0  1  0  0  0  0  0  0
  184.5260  179.0580  142.6460 C   0  0  0  0  0  2  0  0  0  0  0  0
  183.4200  178.2400  142.0020 C   0  0  1  0  0  3  0  0  0  0  0  0
  182.0980  178.9550  142.2010 C   0  0  0  0  0  1  0  0  0  0  0  0
  183.6940  178.0750  140.5100 C   0  0  0  0  0  2  0  0  0  0  0  0
  182.5890  178.6760  139.6430 C   0  0  1  0  0  3  0  0  0  0  0  0
  181.0540  179.5010  137.5920 C   0  0  0  0  0  2  0  0  0  0  0  0
  183.0380  179.8400  138.9950 O   0  0  0  0  0  0  0  0  0  0  0  0
  182.0620  177.6720  138.6000 C   0  0  2  0  0  3  0  0  0  0  0  0
  181.7270  178.2790  137.3620 O   0  0  0  0  0  0  0  0  0  0  0  0
  181.9060  180.4690  138.4350 C   0  0  0  0  0  2  0  0  0  0  0  0
  180.0040  177.3040  140.0230 C   0  0  0  0  0  3  0  0  0  0  0  0
  180.9570  176.8050  139.1260 C   0  0  0  0  0  0  0  0  0  0  0  0
  179.7570  173.3090  138.7730 N   0  0  0  0  0  1  0  0  0  0  0  0
  178.9340  175.1700  140.0630 N   0  0  0  0  0  0  0  0  0  0  0  0
  179.8480  174.6640  139.1910 C   0  0  0  0  0  0  0  0  0  0  0  0
  178.9910  176.4620  140.4840 C   0  0  0  0  0  3  0  0  0  0  0  0
  180.8770  175.4760  138.7070 C   0  0  0  0  0  3  0  0  0  0  0  0
  188.6630  177.4980  140.5000 O   0  0  0  0  0  0  0  0  0  0  0  0
  186.4890  178.3520  137.6090 C   0  0  0  0  0  2  0  0  0  0  0  0
  187.5370  177.8720  136.5920 C   0  0  1  0  0  0  0  0  0  0  0  0
  187.0560  176.5840  135.9550 C   0  0  0  0  0  1  0  0  0  0  0  0
  189.1760  178.5770  138.3840 C   0  0  0  0  0  2  0  0  0  0  0  0
  186.7960  177.8570  139.0200 C   0  0  0  0  0  2  0  0  0  0  0  0
  188.1490  178.3850  139.5140 C   0  0  1  0  0  3  0  0  0  0  0  0
  187.6630  178.8320  135.6060 F   0  0  0  0  0  0  0  0  0  0  0  0
  188.9150  177.6230  137.2220 C   0  0  0  0  0  2  0  0  0  0  0  0
  1  5  1  0  0  0  0
  1  6  1  0  0  0  0
  2 11  1  0  0  0  0
  3 16  1  0  0  0  0
  3 10  2  0  0  0  0
  4  7  1  0  0  0  0
  4  8  1  0  0  0  0
  7  9  1  0  0  0  0
  8  1  2  0  0  0  0
  9  5  2  0  0  0  0
 11 10  1  0  0  0  0
 11  7  2  0  0  0  0
 12  2  2  0  0  0  0
 12 15  1  0  0  0  0
 13 14  2  0  0  0  0
 13  2  1  0  0  0  0
 14  3  1  0  0  0  0
 15  4  2  0  0  0  0
 16 17  1  1  0  0  0
 18 16  1  0  0  0  0
 19 20  1  6  0  0  0
 19 18  1  0  0  0  0
 21 19  1  0  0  0  0
 22 21  1  6  0  0  0
 23 27  1  0  0  0  0
 24 22  1  0  0  0  0
 25 29  1  1  0  0  0
 25 22  1  0  0  0  0
 26 23  1  0  0  0  0
 26 25  1  0  0  0  0
 27 24  1  0  0  0  0
 28 33  1  0  0  0  0
 29 28  2  0  0  0  0
 30 32  1  0  0  0  0
 31 33  2  0  0  0  0
 32 31  1  0  0  0  0
 34 29  1  0  0  0  0
 34 32  2  0  0  0  0
 35 13  1  0  0  0  0
 36 40  1  0  0  0  0
 37 38  1  6  0  0  0
 37 43  1  0  0  0  0
 37 36  1  0  0  0  0
 39 41  1  0  0  0  0
 40 41  1  0  0  0  0
 41 35  1  1  0  0  0
 42 37  1  0  0  0  0
 43 39  1  0  0  0  0
M  END
>  <MODEL>
2

>  <REMARK>
 VINA RESULT:      -9.7      3.456      8.050
  Name = 
  8 active torsions:
  status: ('A' for Active; 'I' for Inactive)
    1  A    between atoms: O_1  and  C_34
    2  A    between atoms: O_1  and  C_35
    3  A    between atoms: C_2  and  C_6
    4  A    between atoms: C_2  and  C_13
    5  A    between atoms: C_3  and  C_4
    6  A    between atoms: C_3  and  C_12
    7  A    between atoms: C_6  and  C_12
    8  A    between atoms: C_14  and  C_22
                            x       y       z     vdW  Elec       q    Type
                         _______ _______ _______ _____ _____    ______ ____

>  <TORSDO>
F 8

$$$$
=
 OpenBabel10262422083D

 43 48  0  0  1  0  0  0  0  0999 V2000
  188.0790  177.1810  146.8020 C   0  0  0  0  0  0  0  0  0  0  0  0
  186.0390  178.5880  142.3960 C   0  0  0  0  0  0  0  0  0  0  0  0
  188.0540  178.3650  140.5240 C   0  0  0  0  0  0  0  0  0  0  0  0
  186.5600  177.9380  145.0750 C   0  0  0  0  0  0  0  0  0  0  0  0
  189.1030  177.0670  145.8570 C   0  0  0  0  0  3  0  0  0  0  0  0
  188.3180  176.8700  148.0980 F   0  0  0  0  0  0  0  0  0  0  0  0
  187.5930  177.8250  144.1120 C   0  0  0  0  0  0  0  0  0  0  0  0
  186.8100  177.6160  146.4110 C   0  0  0  0  0  3  0  0  0  0  0  0
  188.8620  177.3870  144.5190 C   0  0  0  0  0  3  0  0  0  0  0  0
  188.3010  178.0520  141.8220 N   0  0  0  0  0  0  0  0  0  0  0  0
  187.3300  178.1510  142.7690 C   0  0  0  0  0  0  0  0  0  0  0  0
  185.0280  178.6960  143.3590 C   0  0  0  0  0  3  0  0  0  0  0  0
  185.8030  178.9060  141.0540 C   0  0  0  0  0  0  0  0  0  0  0  0
  186.8150  178.7870  140.1510 N   0  0  0  0  0  0  0  0  0  0  0  0
  185.2880  178.3720  144.6920 C   0  0  0  0  0  3  0  0  0  0  0  0
  189.1480  178.2410  139.5170 C   0  0  1  0  0  3  0  0  0  0  0  0
  189.8290  176.8890  139.6440 C   0  0  0  0  0  1  0  0  0  0  0  0
  188.6000  178.4380  138.1090 C   0  0  0  0  0  2  0  0  0  0  0  0
  188.1810  177.1130  137.4930 C   0  0  1  0  0  3  0  0  0  0  0  0
  186.6730  177.0970  137.3370 C   0  0  0  0  0  1  0  0  0  0  0  0
  188.8410  176.9430  136.1270 C   0  0  0  0  0  2  0  0  0  0  0  0
  189.6550  175.6540  136.0290 C   0  0  1  0  0  3  0  0  0  0  0  0
  191.1320  173.4670  136.5580 C   0  0  0  0  0  2  0  0  0  0  0  0
  191.0160  175.9020  136.2800 O   0  0  0  0  0  0  0  0  0  0  0  0
  189.1390  174.5690  136.9940 C   0  0  2  0  0  3  0  0  0  0  0  0
  190.1780  173.7810  137.5520 O   0  0  0  0  0  0  0  0  0  0  0  0
  191.7260  174.7380  135.9190 C   0  0  0  0  0  2  0  0  0  0  0  0
  188.1450  173.2100  135.1080 C   0  0  0  0  0  3  0  0  0  0  0  0
  188.0440  173.7320  136.4030 C   0  0  0  0  0  0  0  0  0  0  0  0
  184.7180  172.4070  137.3880 N   0  0  0  0  0  1  0  0  0  0  0  0
  186.0020  172.1870  135.3610 N   0  0  0  0  0  0  0  0  0  0  0  0
  185.8830  172.6830  136.6230 C   0  0  0  0  0  0  0  0  0  0  0  0
  187.1020  172.4320  134.6000 C   0  0  0  0  0  3  0  0  0  0  0  0
  186.9050  173.4650  137.1660 C   0  0  0  0  0  3  0  0  0  0  0  0
  184.5380  179.3440  140.6470 O   0  0  0  0  0  0  0  0  0  0  0  0
  181.6970  178.9890  138.2770 C   0  0  0  0  0  2  0  0  0  0  0  0
  180.7240  178.5890  139.3970 C   0  0  1  0  0  0  0  0  0  0  0  0
  179.7510  179.7270  139.6380 C   0  0  0  0  0  1  0  0  0  0  0  0
  182.8070  177.6470  140.4770 C   0  0  0  0  0  2  0  0  0  0  0  0
  182.9790  179.6080  138.8300 C   0  0  0  0  0  2  0  0  0  0  0  0
  183.7350  178.6180  139.7250 C   0  0  1  0  0  3  0  0  0  0  0  0
  180.0110  177.4800  138.9840 F   0  0  0  0  0  0  0  0  0  0  0  0
  181.4310  178.2620  140.7190 C   0  0  0  0  0  2  0  0  0  0  0  0
  1  6  1  0  0  0  0
  2 11  2  0  0  0  0
  2 12  1  0  0  0  0
  3 10  2  0  0  0  0
  4  8  2  0  0  0  0
  5  1  2  0  0  0  0
  7  9  2  0  0  0  0
  7  4  1  0  0  0  0
  8  1  1  0  0  0  0
  9  5  1  0  0  0  0
 10 11  1  0  0  0  0
 11  7  1  0  0  0  0
 12 15  2  0  0  0  0
 13  2  1  0  0  0  0
 14  3  1  0  0  0  0
 14 13  2  0  0  0  0
 15  4  1  0  0  0  0
 16 17  1  6  0  0  0
 16  3  1  0  0  0  0
 18 16  1  0  0  0  0
 19 20  1  6  0  0  0
 19 18  1  0  0  0  0
 21 19  1  0  0  0  0
 22 21  1  1  0  0  0
 22 24  1  0  0  0  0
 22 25  1  0  0  0  0
 23 26  1  0  0  0  0
 25 29  1  6  0  0  0
 25 26  1  0  0  0  0
 27 24  1  0  0  0  0
 27 23  1  0  0  0  0
 28 29  1  0  0  0  0
 29 34  2  0  0  0  0
 31 32  2  0  0  0  0
 32 34  1  0  0  0  0
 32 30  1  0  0  0  0
 33 28  2  0  0  0  0
 33 31  1  0  0  0  0
 35 13  1  0  0  0  0
 36 40  1  0  0  0  0
 36 37  1  0  0  0  0
 37 38  1  1  0  0  0
 37 43  1  0  0  0  0
 39 43  1  0  0  0  0
 40 41  1  0  0  0  0
 41 39  1  0  0  0  0
 41 35  1  1  0  0  0
 42 37  1  0  0  0  0
M  END
>  <MODEL>
3

>  <REMARK>
 VINA RESULT:      -9.7      1.965      3.247
  Name = 
  8 active torsions:
  status: ('A' for Active; 'I' for Inactive)
    1  A    between atoms: O_1  and  C_34
    2  A    between atoms: O_1  and  C_35
    3  A    between atoms: C_2  and  C_6
    4  A    between atoms: C_2  and  C_13
    5  A    between atoms: C_3  and  C_4
    6  A    between atoms: C_3  and  C_12
    7  A    between atoms: C_6  and  C_12
    8  A    between atoms: C_14  and  C_22
                            x       y       z     vdW  Elec       q    Type
                         _______ _______ _______ _____ _____    ______ ____

>  <TORSDO>
F 8

$$$$
=
 OpenBabel10262422083D

 43 48  0  0  1  0  0  0  0  0999 V2000
  191.2720  176.7810  147.1820 C   0  0  0  0  0  0  0  0  0  0  0  0
  187.0600  177.6030  144.5110 C   0  0  0  0  0  0  0  0  0  0  0  0
  187.8440  177.6870  141.8680 C   0  0  0  0  0  0  0  0  0  0  0  0
  188.9780  177.1700  146.5120 C   0  0  0  0  0  0  0  0  0  0  0  0
  191.6740  176.8230  145.8440 C   0  0  0  0  0  3  0  0  0  0  0  0
  192.1880  176.5720  148.1570 F   0  0  0  0  0  0  0  0  0  0  0  0
  189.3780  177.2140  145.1540 C   0  0  0  0  0  0  0  0  0  0  0  0
  189.9260  176.9540  147.5150 C   0  0  0  0  0  3  0  0  0  0  0  0
  190.7330  177.0390  144.8350 C   0  0  0  0  0  3  0  0  0  0  0  0
  188.7690  177.4770  142.8390 N   0  0  0  0  0  0  0  0  0  0  0  0
  188.4150  177.4310  144.1520 C   0  0  0  0  0  0  0  0  0  0  0  0
  186.6790  177.5580  145.8580 C   0  0  0  0  0  3  0  0  0  0  0  0
  186.1210  177.8170  143.4960 C   0  0  0  0  0  0  0  0  0  0  0  0
  186.5350  177.8540  142.2000 N   0  0  0  0  0  0  0  0  0  0  0  0
  187.6340  177.3420  146.8530 C   0  0  0  0  0  3  0  0  0  0  0  0
  188.2760  177.7290  140.4400 C   0  0  1  0  0  3  0  0  0  0  0  0
  187.1790  178.3270  139.5760 C   0  0  0  0  0  1  0  0  0  0  0  0
  189.5680  178.5230  140.2980 C   0  0  0  0  0  2  0  0  0  0  0  0
  190.7050  177.6400  139.8090 C   0  0  1  0  0  3  0  0  0  0  0  0
  191.6740  177.4060  140.9510 C   0  0  0  0  0  1  0  0  0  0  0  0
  190.1530  176.3030  139.3220 C   0  0  0  0  0  2  0  0  0  0  0  0
  190.3440  176.1060  137.8200 C   0  0  1  0  0  3  0  0  0  0  0  0
  190.6310  175.0750  135.3500 C   0  0  0  0  0  2  0  0  0  0  0  0
  191.6140  175.5660  137.5440 O   0  0  0  0  0  0  0  0  0  0  0  0
  189.2540  175.2040  137.2110 C   0  0  2  0  0  3  0  0  0  0  0  0
  189.7420  174.3580  136.1820 O   0  0  0  0  0  0  0  0  0  0  0  0
  191.8120  175.6580  136.1500 C   0  0  0  0  0  2  0  0  0  0  0  0
  188.1280  177.2220  136.1870 C   0  0  0  0  0  3  0  0  0  0  0  0
  188.0310  175.9630  136.7920 C   0  0  0  0  0  0  0  0  0  0  0  0
  184.3420  175.5350  136.8290 N   0  0  0  0  0  1  0  0  0  0  0  0
  185.7470  177.3220  136.0300 N   0  0  0  0  0  0  0  0  0  0  0  0
  185.6290  176.0990  136.6150 C   0  0  0  0  0  0  0  0  0  0  0  0
  186.9620  177.8920  135.8100 C   0  0  0  0  0  3  0  0  0  0  0  0
  186.7720  175.3970  137.0060 C   0  0  0  0  0  3  0  0  0  0  0  0
  184.7690  177.9940  143.8140 O   0  0  0  0  0  0  0  0  0  0  0  0
  181.5350  179.5780  142.8980 C   0  0  0  0  0  2  0  0  0  0  0  0
  181.4680  178.8270  141.5590 C   0  0  1  0  0  0  0  0  0  0  0  0
  180.3790  177.7750  141.6350 C   0  0  0  0  0  1  0  0  0  0  0  0
  183.9900  178.9240  141.7090 C   0  0  0  0  0  2  0  0  0  0  0  0
  182.5660  178.9670  143.8440 C   0  0  0  0  0  2  0  0  0  0  0  0
  183.9770  179.0270  143.2440 C   0  0  1  0  0  3  0  0  0  0  0  0
  181.1410  179.7290  140.5660 F   0  0  0  0  0  0  0  0  0  0  0  0
  182.7890  178.1370  141.1910 C   0  0  0  0  0  2  0  0  0  0  0  0
  1  8  1  0  0  0  0
  1  6  1  0  0  0  0
  2 12  1  0  0  0  0
  3 14  1  0  0  0  0
  3 10  2  0  0  0  0
  4 15  1  0  0  0  0
  4  8  2  0  0  0  0
  5  1  2  0  0  0  0
  7  4  1  0  0  0  0
  9  7  2  0  0  0  0
  9  5  1  0  0  0  0
 10 11  1  0  0  0  0
 11  2  2  0  0  0  0
 11  7  1  0  0  0  0
 12 15  2  0  0  0  0
 13 35  1  0  0  0  0
 13  2  1  0  0  0  0
 14 13  2  0  0  0  0
 16 17  1  6  0  0  0
 16  3  1  0  0  0  0
 18 16  1  0  0  0  0
 19 18  1  0  0  0  0
 19 20  1  1  0  0  0
 21 19  1  0  0  0  0
 22 21  1  1  0  0  0
 23 27  1  0  0  0  0
 23 26  1  0  0  0  0
 24 22  1  0  0  0  0
 25 29  1  6  0  0  0
 25 22  1  0  0  0  0
 26 25  1  0  0  0  0
 27 24  1  0  0  0  0
 28 29  1  0  0  0  0
 29 34  2  0  0  0  0
 31 32  2  0  0  0  0
 32 30  1  0  0  0  0
 32 34  1  0  0  0  0
 33 31  1  0  0  0  0
 33 28  2  0  0  0  0
 36 40  1  0  0  0  0
 37 38  1  1  0  0  0
 37 36  1  0  0  0  0
 39 41  1  0  0  0  0
 41 35  1  1  0  0  0
 41 40  1  0  0  0  0
 42 37  1  0  0  0  0
 43 37  1  0  0  0  0
 43 39  1  0  0  0  0
M  END
>  <MODEL>
4

>  <REMARK>
 VINA RESULT:      -9.5      2.373      3.948
  Name = 
  8 active torsions:
  status: ('A' for Active; 'I' for Inactive)
    1  A    between atoms: O_1  and  C_34
    2  A    between atoms: O_1  and  C_35
    3  A    between atoms: C_2  and  C_6
    4  A    between atoms: C_2  and  C_13
    5  A    between atoms: C_3  and  C_4
    6  A    between atoms: C_3  and  C_12
    7  A    between atoms: C_6  and  C_12
    8  A    between atoms: C_14  and  C_22
                            x       y       z     vdW  Elec       q    Type
                         _______ _______ _______ _____ _____    ______ ____

>  <TORSDO>
F 8

$$$$
=
 OpenBabel10262422083D

 43 48  0  0  1  0  0  0  0  0999 V2000
  191.0790  176.7360  146.6330 C   0  0  0  0  0  0  0  0  0  0  0  0
  188.8650  177.9790  142.2620 C   0  0  0  0  0  0  0  0  0  0  0  0
  186.1660  178.1560  142.8050 C   0  0  0  0  0  0  0  0  0  0  0  0
  190.6500  177.3110  144.3200 C   0  0  0  0  0  0  0  0  0  0  0  0
  189.7130  176.8240  146.9130 C   0  0  0  0  0  3  0  0  0  0  0  0
  191.9510  176.4150  147.6180 F   0  0  0  0  0  0  0  0  0  0  0  0
  189.2640  177.4010  144.5960 C   0  0  0  0  0  0  0  0  0  0  0  0
  191.5470  176.9790  145.3390 C   0  0  0  0  0  3  0  0  0  0  0  0
  188.8090  177.1550  145.9000 C   0  0  0  0  0  3  0  0  0  0  0  0
  187.0330  177.8320  143.7980 N   0  0  0  0  0  0  0  0  0  0  0  0
  188.3700  177.7370  143.5630 C   0  0  0  0  0  0  0  0  0  0  0  0
  190.2380  177.8850  142.0040 C   0  0  0  0  0  3  0  0  0  0  0  0
  187.9550  178.3110  141.2520 C   0  0  0  0  0  0  0  0  0  0  0  0
  186.6290  178.3910  141.5470 N   0  0  0  0  0  0  0  0  0  0  0  0
  191.1260  177.5520  143.0290 C   0  0  0  0  0  3  0  0  0  0  0  0
  184.7070  178.2510  143.1060 C   0  0  1  0  0  3  0  0  0  0  0  0
  184.4850  179.0330  144.3890 C   0  0  0  0  0  1  0  0  0  0  0  0
  183.9650  178.8970  141.9440 C   0  0  0  0  0  2  0  0  0  0  0  0
  182.6100  178.2440  141.7260 C   0  0  1  0  0  3  0  0  0  0  0  0
  181.5550  179.0350  142.4730 C   0  0  0  0  0  1  0  0  0  0  0  0
  182.2770  178.2200  140.2370 C   0  0  0  0  0  2  0  0  0  0  0  0
  181.7470  176.8630  139.7790 C   0  0  1  0  0  3  0  0  0  0  0  0
  180.4020  174.8750  138.5620 C   0  0  0  0  0  2  0  0  0  0  0  0
  180.4420  176.6490  140.2570 O   0  0  0  0  0  0  0  0  0  0  0  0
  181.7670  176.7210  138.2450 C   0  0  2  0  0  3  0  0  0  0  0  0
  180.6600  175.9940  137.7380 O   0  0  0  0  0  0  0  0  0  0  0  0
  180.1280  175.2940  140.0200 C   0  0  0  0  0  2  0  0  0  0  0  0
  183.9310  177.0260  136.9730 C   0  0  0  0  0  3  0  0  0  0  0  0
  183.0750  176.2080  137.7200 C   0  0  0  0  0  0  0  0  0  0  0  0
  185.0510  173.0650  137.7730 N   0  0  0  0  0  1  0  0  0  0  0  0
  185.4790  175.2190  136.7810 N   0  0  0  0  0  0  0  0  0  0  0  0
  184.6640  174.4060  137.5070 C   0  0  0  0  0  0  0  0  0  0  0  0
  185.1410  176.5070  136.5080 C   0  0  0  0  0  3  0  0  0  0  0  0
  183.4450  174.8890  137.9900 C   0  0  0  0  0  3  0  0  0  0  0  0
  188.4080  178.5560  139.9510 O   0  0  0  0  0  0  0  0  0  0  0  0
  188.8010  175.9130  137.3670 C   0  0  0  0  0  2  0  0  0  0  0  0
  189.5220  176.8670  136.4030 C   0  0  1  0  0  0  0  0  0  0  0  0
  190.9860  176.4820  136.3280 C   0  0  0  0  0  1  0  0  0  0  0  0
  188.1060  178.6250  137.5410 C   0  0  0  0  0  2  0  0  0  0  0  0
  188.7420  176.4740  138.7860 C   0  0  0  0  0  2  0  0  0  0  0  0
  187.9690  177.7980  138.8310 C   0  0  1  0  0  3  0  0  0  0  0  0
  188.9640  176.7270  135.1470 F   0  0  0  0  0  0  0  0  0  0  0  0
  189.4250  178.3390  136.8290 C   0  0  0  0  0  2  0  0  0  0  0  0
  1  5  1  0  0  0  0
  1  6  1  0  0  0  0
  2 11  1  0  0  0  0
  3 16  1  0  0  0  0
  3 10  2  0  0  0  0
  4  7  1  0  0  0  0
  4  8  1  0  0  0  0
  7  9  1  0  0  0  0
  8  1  2  0  0  0  0
  9  5  2  0  0  0  0
 11 10  1  0  0  0  0
 11  7  2  0  0  0  0
 12  2  2  0  0  0  0
 12 15  1  0  0  0  0
 13 14  2  0  0  0  0
 13  2  1  0  0  0  0
 14  3  1  0  0  0  0
 15  4  2  0  0  0  0
 16 17  1  1  0  0  0
 18 16  1  0  0  0  0
 19 18  1  0  0  0  0
 19 20  1  1  0  0  0
 21 19  1  0  0  0  0
 22 21  1  6  0  0  0
 22 24  1  0  0  0  0
 23 27  1  0  0  0  0
 25 29  1  1  0  0  0
 25 22  1  0  0  0  0
 26 25  1  0  0  0  0
 26 23  1  0  0  0  0
 27 24  1  0  0  0  0
 28 29  1  0  0  0  0
 29 34  2  0  0  0  0
 31 32  2  0  0  0  0
 32 30  1  0  0  0  0
 32 34  1  0  0  0  0
 33 31  1  0  0  0  0
 33 28  2  0  0  0  0
 35 13  1  0  0  0  0
 36 40  1  0  0  0  0
 37 38  1  6  0  0  0
 37 43  1  0  0  0  0
 37 36  1  0  0  0  0
 39 41  1  0  0  0  0
 40 41  1  0  0  0  0
 41 35  1  1  0  0  0
 42 37  1  0  0  0  0
 43 39  1  0  0  0  0
M  END
>  <MODEL>
5

>  <REMARK>
 VINA RESULT:      -9.3      3.221      7.131
  Name = 
  8 active torsions:
  status: ('A' for Active; 'I' for Inactive)
    1  A    between atoms: O_1  and  C_34
    2  A    between atoms: O_1  and  C_35
    3  A    between atoms: C_2  and  C_6
    4  A    between atoms: C_2  and  C_13
    5  A    between atoms: C_3  and  C_4
    6  A    between atoms: C_3  and  C_12
    7  A    between atoms: C_6  and  C_12
    8  A    between atoms: C_14  and  C_22
                            x       y       z     vdW  Elec       q    Type
                         _______ _______ _______ _____ _____    ______ ____

>  <TORSDO>
F 8

$$$$
=
 OpenBabel10262422083D

 43 48  0  0  1  0  0  0  0  0999 V2000
  190.9230  176.8200  147.0280 C   0  0  0  0  0  0  0  0  0  0  0  0
  189.6350  177.5990  142.2020 C   0  0  0  0  0  0  0  0  0  0  0  0
  186.9100  178.0290  142.2070 C   0  0  0  0  0  0  0  0  0  0  0  0
  190.9630  177.1010  144.6230 C   0  0  0  0  0  0  0  0  0  0  0  0
  189.5430  177.0370  147.0350 C   0  0  0  0  0  3  0  0  0  0  0  0
  191.5750  176.5790  148.1900 F   0  0  0  0  0  0  0  0  0  0  0  0
  189.5640  177.3210  144.6230 C   0  0  0  0  0  0  0  0  0  0  0  0
  191.6320  176.8520  145.8240 C   0  0  0  0  0  3  0  0  0  0  0  0
  188.8650  177.2860  145.8390 C   0  0  0  0  0  3  0  0  0  0  0  0
  187.5560  177.7870  143.3760 N   0  0  0  0  0  0  0  0  0  0  0  0
  188.9000  177.5710  143.4080 C   0  0  0  0  0  0  0  0  0  0  0  0
  191.0180  177.3790  142.2180 C   0  0  0  0  0  3  0  0  0  0  0  0
  188.9510  177.8500  141.0080 C   0  0  0  0  0  0  0  0  0  0  0  0
  187.6070  178.0590  141.0380 N   0  0  0  0  0  0  0  0  0  0  0  0
  191.6780  177.1310  143.4230 C   0  0  0  0  0  3  0  0  0  0  0  0
  185.4360  178.2620  142.2170 C   0  0  1  0  0  3  0  0  0  0  0  0
  184.9650  178.5900  143.6230 C   0  0  0  0  0  1  0  0  0  0  0  0
  185.0670  179.3800  141.2510 C   0  0  0  0  0  2  0  0  0  0  0  0
  184.1260  178.8810  140.1670 C   0  0  1  0  0  3  0  0  0  0  0  0
  184.9200  178.6330  138.8990 C   0  0  0  0  0  1  0  0  0  0  0  0
  183.4570  177.5850  140.6150 C   0  0  0  0  0  2  0  0  0  0  0  0
  182.1210  177.3450  139.9130 C   0  0  1  0  0  3  0  0  0  0  0  0
  179.7030  176.4250  139.1730 C   0  0  0  0  0  2  0  0  0  0  0  0
  182.1380  176.1270  139.2090 O   0  0  0  0  0  0  0  0  0  0  0  0
  180.9380  177.3580  140.8990 C   0  0  2  0  0  3  0  0  0  0  0  0
  179.9270  176.4190  140.5690 O   0  0  0  0  0  0  0  0  0  0  0  0
  180.9900  176.1040  138.3890 C   0  0  0  0  0  2  0  0  0  0  0  0
  179.9440  179.1320  142.4010 C   0  0  0  0  0  3  0  0  0  0  0  0
  180.3850  178.7320  141.1340 C   0  0  0  0  0  0  0  0  0  0  0  0
  179.7260  181.8330  139.2000 N   0  0  0  0  0  1  0  0  0  0  0  0
  179.3800  181.2780  141.5190 N   0  0  0  0  0  0  0  0  0  0  0  0
  179.8040  180.9110  140.2790 C   0  0  0  0  0  0  0  0  0  0  0  0
  179.4390  180.4230  142.5740 C   0  0  0  0  0  3  0  0  0  0  0  0
  180.3160  179.6290  140.0660 C   0  0  0  0  0  3  0  0  0  0  0  0
  189.6470  177.8840  139.7930 O   0  0  0  0  0  0  0  0  0  0  0  0
  190.5360  176.2170  136.5930 C   0  0  0  0  0  2  0  0  0  0  0  0
  189.1930  176.5910  135.9460 C   0  0  1  0  0  0  0  0  0  0  0  0
  189.4280  177.6590  134.8970 C   0  0  0  0  0  1  0  0  0  0  0  0
  188.3410  176.4570  138.3230 C   0  0  0  0  0  2  0  0  0  0  0  0
  190.8010  177.0230  137.8620 C   0  0  0  0  0  2  0  0  0  0  0  0
  189.7240  176.7620  138.9230 C   0  0  1  0  0  3  0  0  0  0  0  0
  188.6770  175.4690  135.3260 F   0  0  0  0  0  0  0  0  0  0  0  0
  188.1650  177.1160  136.9580 C   0  0  0  0  0  2  0  0  0  0  0  0
  1  5  1  0  0  0  0
  1  6  1  0  0  0  0
  2 12  2  0  0  0  0
  2 11  1  0  0  0  0
  3 16  1  0  0  0  0
  3 10  2  0  0  0  0
  4  8  1  0  0  0  0
  7  4  1  0  0  0  0
  7  9  1  0  0  0  0
  8  1  2  0  0  0  0
  9  5  2  0  0  0  0
 10 11  1  0  0  0  0
 11  7  2  0  0  0  0
 12 15  1  0  0  0  0
 13 14  2  0  0  0  0
 13  2  1  0  0  0  0
 14  3  1  0  0  0  0
 15  4  2  0  0  0  0
 16 17  1  1  0  0  0
 18 16  1  0  0  0  0
 19 20  1  6  0  0  0
 19 21  1  0  0  0  0
 19 18  1  0  0  0  0
 22 21  1  1  0  0  0
 22 25  1  0  0  0  0
 23 26  1  0  0  0  0
 24 22  1  0  0  0  0
 25 29  1  6  0  0  0
 26 25  1  0  0  0  0
 27 23  1  0  0  0  0
 27 24  1  0  0  0  0
 28 33  1  0  0  0  0
 29 28  2  0  0  0  0
 30 32  1  0  0  0  0
 31 33  2  0  0  0  0
 32 31  1  0  0  0  0
 34 32  2  0  0  0  0
 34 29  1  0  0  0  0
 35 13  1  0  0  0  0
 36 40  1  0  0  0  0
 37 38  1  6  0  0  0
 37 36  1  0  0  0  0
 37 43  1  0  0  0  0
 39 41  1  0  0  0  0
 40 41  1  0  0  0  0
 41 35  1  1  0  0  0
 42 37  1  0  0  0  0
 43 39  1  0  0  0  0
M  END
>  <MODEL>
6

>  <REMARK>
 VINA RESULT:      -9.3      3.040      8.529
  Name = 
  8 active torsions:
  status: ('A' for Active; 'I' for Inactive)
    1  A    between atoms: O_1  and  C_34
    2  A    between atoms: O_1  and  C_35
    3  A    between atoms: C_2  and  C_6
    4  A    between atoms: C_2  and  C_13
    5  A    between atoms: C_3  and  C_4
    6  A    between atoms: C_3  and  C_12
    7  A    between atoms: C_6  and  C_12
    8  A    between atoms: C_14  and  C_22
                            x       y       z     vdW  Elec       q    Type
                         _______ _______ _______ _____ _____    ______ ____

>  <TORSDO>
F 8

$$$$
=
 OpenBabel10262422083D

 43 48  0  0  1  0  0  0  0  0999 V2000
  191.2050  176.9680  147.3660 C   0  0  0  0  0  0  0  0  0  0  0  0
  187.0890  177.5880  144.4970 C   0  0  0  0  0  0  0  0  0  0  0  0
  187.9820  177.5990  141.8870 C   0  0  0  0  0  0  0  0  0  0  0  0
  188.9320  177.2740  146.5900 C   0  0  0  0  0  0  0  0  0  0  0  0
  191.6620  176.9740  146.0450 C   0  0  0  0  0  3  0  0  0  0  0  0
  192.0850  176.8170  148.3850 F   0  0  0  0  0  0  0  0  0  0  0  0
  189.3880  177.2810  145.2490 C   0  0  0  0  0  0  0  0  0  0  0  0
  189.8430  177.1180  147.6380 C   0  0  0  0  0  3  0  0  0  0  0  0
  190.7590  177.1300  144.9910 C   0  0  0  0  0  3  0  0  0  0  0  0
  188.8700  177.4480  142.9030 N   0  0  0  0  0  0  0  0  0  0  0  0
  188.4620  177.4380  144.2010 C   0  0  0  0  0  0  0  0  0  0  0  0
  186.6540  177.5790  145.8290 C   0  0  0  0  0  3  0  0  0  0  0  0
  186.1890  177.7410  143.4380 C   0  0  0  0  0  0  0  0  0  0  0  0
  186.6560  177.7440  142.1590 N   0  0  0  0  0  0  0  0  0  0  0  0
  187.5720  177.4230  146.8690 C   0  0  0  0  0  3  0  0  0  0  0  0
  188.4710  177.6030  140.4770 C   0  0  1  0  0  3  0  0  0  0  0  0
  187.4640  178.2890  139.5720 C   0  0  0  0  0  1  0  0  0  0  0  0
  189.8300  178.2860  140.3880 C   0  0  0  0  0  2  0  0  0  0  0  0
  190.7940  177.4820  139.5320 C   0  0  1  0  0  3  0  0  0  0  0  0
  192.1530  177.4650  140.2020 C   0  0  0  0  0  1  0  0  0  0  0  0
  190.2820  176.0530  139.3730 C   0  0  0  0  0  2  0  0  0  0  0  0
  190.1690  175.6330  137.9080 C   0  0  1  0  0  3  0  0  0  0  0  0
  189.9390  175.5920  135.2270 C   0  0  0  0  0  2  0  0  0  0  0  0
  188.8710  175.8660  137.4190 O   0  0  0  0  0  0  0  0  0  0  0  0
  191.1970  176.3580  137.0180 C   0  0  2  0  0  3  0  0  0  0  0  0
  190.6910  176.6770  135.7310 O   0  0  0  0  0  0  0  0  0  0  0  0
  188.7760  175.2220  136.1680 C   0  0  0  0  0  2  0  0  0  0  0  0
  192.6860  174.3710  137.4910 C   0  0  0  0  0  3  0  0  0  0  0  0
  192.5180  175.6520  136.9520 C   0  0  0  0  0  0  0  0  0  0  0  0
  195.9380  176.2670  135.6430 N   0  0  0  0  0  1  0  0  0  0  0  0
  194.9710  174.3870  136.8000 N   0  0  0  0  0  0  0  0  0  0  0  0
  194.8300  175.6310  136.2670 C   0  0  0  0  0  0  0  0  0  0  0  0
  193.9330  173.7500  137.4040 C   0  0  0  0  0  3  0  0  0  0  0  0
  193.5980  176.2860  136.3340 C   0  0  0  0  0  3  0  0  0  0  0  0
  184.8220  177.8940  143.6940 O   0  0  0  0  0  0  0  0  0  0  0  0
  181.6310  179.6510  142.9550 C   0  0  0  0  0  2  0  0  0  0  0  0
  181.4260  178.8720  141.6460 C   0  0  1  0  0  0  0  0  0  0  0  0
  180.2850  177.8920  141.8260 C   0  0  0  0  0  1  0  0  0  0  0  0
  183.9540  178.8180  141.6200 C   0  0  0  0  0  2  0  0  0  0  0  0
  182.6880  179.0010  143.8450 C   0  0  0  0  0  2  0  0  0  0  0  0
  184.0540  178.9600  143.1490 C   0  0  1  0  0  3  0  0  0  0  0  0
  181.0850  179.7680  140.6510 F   0  0  0  0  0  0  0  0  0  0  0  0
  182.6750  178.0940  141.2080 C   0  0  0  0  0  2  0  0  0  0  0  0
  1  8  1  0  0  0  0
  1  6  1  0  0  0  0
  2 12  1  0  0  0  0
  3 14  1  0  0  0  0
  3 10  2  0  0  0  0
  4 15  1  0  0  0  0
  4  8  2  0  0  0  0
  5  1  2  0  0  0  0
  7  4  1  0  0  0  0
  9  7  2  0  0  0  0
  9  5  1  0  0  0  0
 10 11  1  0  0  0  0
 11  2  2  0  0  0  0
 11  7  1  0  0  0  0
 12 15  2  0  0  0  0
 13 35  1  0  0  0  0
 13  2  1  0  0  0  0
 14 13  2  0  0  0  0
 16 17  1  6  0  0  0
 16  3  1  0  0  0  0
 18 16  1  0  0  0  0
 19 20  1  1  0  0  0
 19 18  1  0  0  0  0
 21 19  1  0  0  0  0
 22 21  1  1  0  0  0
 23 26  1  0  0  0  0
 23 27  1  0  0  0  0
 24 22  1  0  0  0  0
 25 29  1  6  0  0  0
 25 22  1  0  0  0  0
 26 25  1  0  0  0  0
 27 24  1  0  0  0  0
 29 28  2  0  0  0  0
 30 32  1  0  0  0  0
 31 33  2  0  0  0  0
 32 34  2  0  0  0  0
 32 31  1  0  0  0  0
 33 28  1  0  0  0  0
 34 29  1  0  0  0  0
 36 40  1  0  0  0  0
 37 38  1  1  0  0  0
 37 36  1  0  0  0  0
 39 41  1  0  0  0  0
 41 35  1  1  0  0  0
 41 40  1  0  0  0  0
 42 37  1  0  0  0  0
 43 39  1  0  0  0  0
 43 37  1  0  0  0  0
M  END
>  <MODEL>
7

>  <REMARK>
 VINA RESULT:      -9.2      1.945      2.874
  Name = 
  8 active torsions:
  status: ('A' for Active; 'I' for Inactive)
    1  A    between atoms: O_1  and  C_34
    2  A    between atoms: O_1  and  C_35
    3  A    between atoms: C_2  and  C_6
    4  A    between atoms: C_2  and  C_13
    5  A    between atoms: C_3  and  C_4
    6  A    between atoms: C_3  and  C_12
    7  A    between atoms: C_6  and  C_12
    8  A    between atoms: C_14  and  C_22
                            x       y       z     vdW  Elec       q    Type
                         _______ _______ _______ _____ _____    ______ ____

>  <TORSDO>
F 8

$$$$
=
 OpenBabel10262422083D

 43 48  0  0  1  0  0  0  0  0999 V2000
  188.4670  177.3350  146.6950 C   0  0  0  0  0  0  0  0  0  0  0  0
  187.9890  178.3830  141.7740 C   0  0  0  0  0  0  0  0  0  0  0  0
  185.2820  178.3230  141.2470 C   0  0  0  0  0  0  0  0  0  0  0  0
  188.9060  177.8720  144.3750 C   0  0  0  0  0  0  0  0  0  0  0  0
  187.0950  177.3030  146.4340 C   0  0  0  0  0  3  0  0  0  0  0  0
  188.9220  177.0900  147.9470 F   0  0  0  0  0  0  0  0  0  0  0  0
  187.5170  177.8410  144.1030 C   0  0  0  0  0  0  0  0  0  0  0  0
  189.3710  177.6190  145.6680 C   0  0  0  0  0  3  0  0  0  0  0  0
  186.6210  177.5540  145.1440 C   0  0  0  0  0  3  0  0  0  0  0  0
  185.7300  178.0760  142.5050 N   0  0  0  0  0  0  0  0  0  0  0  0
  187.0590  178.0980  142.7970 C   0  0  0  0  0  0  0  0  0  0  0  0
  189.3600  178.4090  142.0590 C   0  0  0  0  0  3  0  0  0  0  0  0
  187.5090  178.6360  140.4840 C   0  0  0  0  0  0  0  0  0  0  0  0
  186.1680  178.6000  140.2520 N   0  0  0  0  0  0  0  0  0  0  0  0
  189.8160  178.1550  143.3540 C   0  0  0  0  0  3  0  0  0  0  0  0
  183.8160  178.2900  140.9700 C   0  0  1  0  0  3  0  0  0  0  0  0
  183.0420  178.8060  142.1710 C   0  0  0  0  0  1  0  0  0  0  0  0
  183.4910  179.1080  139.7270 C   0  0  0  0  0  2  0  0  0  0  0  0
  183.2470  178.2090  138.5260 C   0  0  1  0  0  3  0  0  0  0  0  0
  182.8580  176.8280  139.0150 C   0  0  0  0  0  1  0  0  0  0  0  0
  182.1270  178.7840  137.6640 C   0  0  0  0  0  2  0  0  0  0  0  0
  181.4520  179.9910  138.3130 C   0  0  1  0  0  3  0  0  0  0  0  0
  179.7960  182.0190  138.9350 C   0  0  0  0  0  2  0  0  0  0  0  0
  181.5790  181.1320  137.5020 O   0  0  0  0  0  0  0  0  0  0  0  0
  179.9630  179.7290  138.6120 C   0  0  2  0  0  3  0  0  0  0  0  0
  179.1470  180.8740  138.4190 O   0  0  0  0  0  0  0  0  0  0  0  0
  181.1700  182.2400  138.2730 C   0  0  0  0  0  2  0  0  0  0  0  0
  179.7350  179.8400  141.1270 C   0  0  0  0  0  3  0  0  0  0  0  0
  179.7360  179.0860  139.9470 C   0  0  0  0  0  0  0  0  0  0  0  0
  179.0770  175.7030  141.3290 N   0  0  0  0  0  1  0  0  0  0  0  0
  179.3050  177.8570  142.3860 N   0  0  0  0  0  0  0  0  0  0  0  0
  179.3000  177.1050  141.2520 C   0  0  0  0  0  0  0  0  0  0  0  0
  179.5160  179.2000  142.3480 C   0  0  0  0  0  3  0  0  0  0  0  0
  179.5160  177.7090  140.0100 C   0  0  0  0  0  3  0  0  0  0  0  0
  188.4020  178.9200  139.4440 O   0  0  0  0  0  0  0  0  0  0  0  0
  189.0230  177.6650  136.0020 C   0  0  0  0  0  2  0  0  0  0  0  0
  187.5850  177.1440  135.8590 C   0  0  1  0  0  0  0  0  0  0  0  0
  186.8330  178.0260  134.8820 C   0  0  0  0  0  1  0  0  0  0  0  0
  187.7520  176.8430  138.3640 C   0  0  0  0  0  2  0  0  0  0  0  0
  189.1670  178.6270  137.1790 C   0  0  0  0  0  2  0  0  0  0  0  0
  188.8230  177.9380  138.5060 C   0  0  1  0  0  3  0  0  0  0  0  0
  187.6310  175.8610  135.3480 F   0  0  0  0  0  0  0  0  0  0  0  0
  186.8190  177.1220  137.1890 C   0  0  0  0  0  2  0  0  0  0  0  0
  1  6  1  0  0  0  0
  2 12  2  0  0  0  0
  2 11  1  0  0  0  0
  3 10  2  0  0  0  0
  4  8  1  0  0  0  0
  5  1  1  0  0  0  0
  7  4  1  0  0  0  0
  7  9  1  0  0  0  0
  8  1  2  0  0  0  0
  9  5  2  0  0  0  0
 10 11  1  0  0  0  0
 11  7  2  0  0  0  0
 12 15  1  0  0  0  0
 13  2  1  0  0  0  0
 14 13  2  0  0  0  0
 14  3  1  0  0  0  0
 15  4  2  0  0  0  0
 16  3  1  0  0  0  0
 16 17  1  1  0  0  0
 18 16  1  0  0  0  0
 19 20  1  1  0  0  0
 19 18  1  0  0  0  0
 21 19  1  0  0  0  0
 22 21  1  6  0  0  0
 22 25  1  0  0  0  0
 24 27  1  0  0  0  0
 24 22  1  0  0  0  0
 25 29  1  1  0  0  0
 26 25  1  0  0  0  0
 26 23  1  0  0  0  0
 27 23  1  0  0  0  0
 28 33  1  0  0  0  0
 29 34  1  0  0  0  0
 29 28  2  0  0  0  0
 32 30  1  0  0  0  0
 32 31  1  0  0  0  0
 33 31  2  0  0  0  0
 34 32  2  0  0  0  0
 35 13  1  0  0  0  0
 36 40  1  0  0  0  0
 37 38  1  6  0  0  0
 37 36  1  0  0  0  0
 37 43  1  0  0  0  0
 39 41  1  0  0  0  0
 40 41  1  0  0  0  0
 41 35  1  1  0  0  0
 42 37  1  0  0  0  0
 43 39  1  0  0  0  0
M  END
>  <MODEL>
8

>  <REMARK>
 VINA RESULT:      -9.1      3.361      8.505
  Name = 
  8 active torsions:
  status: ('A' for Active; 'I' for Inactive)
    1  A    between atoms: O_1  and  C_34
    2  A    between atoms: O_1  and  C_35
    3  A    between atoms: C_2  and  C_6
    4  A    between atoms: C_2  and  C_13
    5  A    between atoms: C_3  and  C_4
    6  A    between atoms: C_3  and  C_12
    7  A    between atoms: C_6  and  C_12
    8  A    between atoms: C_14  and  C_22
                            x       y       z     vdW  Elec       q    Type
                         _______ _______ _______ _____ _____    ______ ____

>  <TORSDO>
F 8

$$$$
=
 OpenBabel10262422083D

 43 48  0  0  1  0  0  0  0  0999 V2000
  192.3310  177.1230  140.2060 C   0  0  0  0  0  0  0  0  0  0  0  0
  187.8540  177.7900  137.9550 C   0  0  0  0  0  0  0  0  0  0  0  0
  186.1150  178.5760  139.9470 C   0  0  0  0  0  0  0  0  0  0  0  0
  190.5350  177.2590  138.5870 C   0  0  0  0  0  0  0  0  0  0  0  0
  191.4530  177.5200  141.2190 C   0  0  0  0  0  3  0  0  0  0  0  0
  193.6270  176.8640  140.4980 F   0  0  0  0  0  0  0  0  0  0  0  0
  189.6410  177.6620  139.6080 C   0  0  0  0  0  0  0  0  0  0  0  0
  191.8720  176.9930  138.8930 C   0  0  0  0  0  3  0  0  0  0  0  0
  190.1150  177.7880  140.9230 C   0  0  0  0  0  3  0  0  0  0  0  0
  187.4140  178.3170  140.2490 N   0  0  0  0  0  0  0  0  0  0  0  0
  188.2970  177.9280  139.2890 C   0  0  0  0  0  0  0  0  0  0  0  0
  188.7510  177.3910  136.9560 C   0  0  0  0  0  3  0  0  0  0  0  0
  186.5130  178.0610  137.6640 C   0  0  0  0  0  0  0  0  0  0  0  0
  185.6760  178.4470  138.6660 N   0  0  0  0  0  0  0  0  0  0  0  0
  190.0850  177.1260  137.2710 C   0  0  0  0  0  3  0  0  0  0  0  0
  185.1800  179.0020  141.0300 C   0  0  1  0  0  3  0  0  0  0  0  0
  183.7720  179.1480  140.4820 C   0  0  0  0  0  1  0  0  0  0  0  0
  185.2110  178.0050  142.1820 C   0  0  0  0  0  2  0  0  0  0  0  0
  185.6610  178.6700  143.4720 C   0  0  1  0  0  3  0  0  0  0  0  0
  184.4710  179.3570  144.1130 C   0  0  0  0  0  1  0  0  0  0  0  0
  186.2260  177.6230  144.4280 C   0  0  0  0  0  2  0  0  0  0  0  0
  186.7120  178.2340  145.7410 C   0  0  1  0  0  3  0  0  0  0  0  0
  187.3080  178.7090  148.3220 C   0  0  0  0  0  2  0  0  0  0  0  0
  185.6250  178.6360  146.5380 O   0  0  0  0  0  0  0  0  0  0  0  0
  187.6060  177.2620  146.5350 C   0  0  2  0  0  3  0  0  0  0  0  0
  187.4180  177.3540  147.9380 O   0  0  0  0  0  0  0  0  0  0  0  0
  186.1470  179.4140  147.5930 C   0  0  0  0  0  2  0  0  0  0  0  0
  189.4640  178.0780  145.0270 C   0  0  0  0  0  3  0  0  0  0  0  0
  189.0520  177.3450  146.1470 C   0  0  0  0  0  0  0  0  0  0  0  0
  192.3320  176.0880  147.3520 N   0  0  0  0  0  1  0  0  0  0  0  0
  191.7310  177.4760  145.4760 N   0  0  0  0  0  0  0  0  0  0  0  0
  191.3530  176.7600  146.5700 C   0  0  0  0  0  0  0  0  0  0  0  0
  190.8220  178.1310  144.7060 C   0  0  0  0  0  3  0  0  0  0  0  0
  190.0040  176.6830  146.9240 C   0  0  0  0  0  3  0  0  0  0  0  0
  186.0380  177.9340  136.3530 O   0  0  0  0  0  0  0  0  0  0  0  0
  184.6960  174.4870  136.7110 C   0  0  0  0  0  2  0  0  0  0  0  0
  185.9290  173.8630  136.0390 C   0  0  1  0  0  0  0  0  0  0  0  0
  186.7480  173.1350  137.0850 C   0  0  0  0  0  1  0  0  0  0  0  0
  186.0080  176.0660  134.7990 C   0  0  0  0  0  2  0  0  0  0  0  0
  184.9460  175.9330  137.1320 C   0  0  0  0  0  2  0  0  0  0  0  0
  185.2710  176.8180  135.9210 C   0  0  1  0  0  3  0  0  0  0  0  0
  185.5000  172.9470  135.0980 F   0  0  0  0  0  0  0  0  0  0  0  0
  186.8270  174.9010  135.3500 C   0  0  0  0  0  2  0  0  0  0  0  0
  1  6  1  0  0  0  0
  1  5  1  0  0  0  0
  2 11  1  0  0  0  0
  3 10  2  0  0  0  0
  3 16  1  0  0  0  0
  4  8  1  0  0  0  0
  4  7  1  0  0  0  0
  7  9  1  0  0  0  0
  8  1  2  0  0  0  0
  9  5  2  0  0  0  0
 11  7  2  0  0  0  0
 11 10  1  0  0  0  0
 12 15  1  0  0  0  0
 12  2  2  0  0  0  0
 13  2  1  0  0  0  0
 13 14  2  0  0  0  0
 14  3  1  0  0  0  0
 15  4  2  0  0  0  0
 16 17  1  6  0  0  0
 16 18  1  0  0  0  0
 18 19  1  0  0  0  0
 19 20  1  1  0  0  0
 19 21  1  0  0  0  0
 22 21  1  6  0  0  0
 22 25  1  0  0  0  0
 22 24  1  0  0  0  0
 24 27  1  0  0  0  0
 25 29  1  1  0  0  0
 25 26  1  0  0  0  0
 26 23  1  0  0  0  0
 27 23  1  0  0  0  0
 28 29  1  0  0  0  0
 29 34  2  0  0  0  0
 31 32  2  0  0  0  0
 32 34  1  0  0  0  0
 32 30  1  0  0  0  0
 33 28  2  0  0  0  0
 33 31  1  0  0  0  0
 35 13  1  0  0  0  0
 36 40  1  0  0  0  0
 37 36  1  0  0  0  0
 37 38  1  1  0  0  0
 39 43  1  0  0  0  0
 39 41  1  0  0  0  0
 41 35  1  1  0  0  0
 41 40  1  0  0  0  0
 42 37  1  0  0  0  0
 43 37  1  0  0  0  0
M  END
>  <MODEL>
9

>  <REMARK>
 VINA RESULT:      -9.0      3.351      8.180
  Name = 
  8 active torsions:
  status: ('A' for Active; 'I' for Inactive)
    1  A    between atoms: O_1  and  C_34
    2  A    between atoms: O_1  and  C_35
    3  A    between atoms: C_2  and  C_6
    4  A    between atoms: C_2  and  C_13
    5  A    between atoms: C_3  and  C_4
    6  A    between atoms: C_3  and  C_12
    7  A    between atoms: C_6  and  C_12
    8  A    between atoms: C_14  and  C_22
                            x       y       z     vdW  Elec       q    Type
                         _______ _______ _______ _____ _____    ______ ____

>  <TORSDO>
F 8

$$$$
