=
 OpenBabel10262423053D

 37 37  0  0  1  0  0  0  0  0999 V2000
  189.5290  177.5430  141.8860 C   0  0  2  0  0  3  0  0  0  0  0  0
  189.1530  177.2560  139.3940 N   0  0  0  0  0  2  0  0  0  0  0  0
  190.7460  177.1560  137.6780 O   0  0  0  0  0  0  0  0  0  0  0  0
  190.0620  177.3600  140.4970 C   0  0  0  0  0  0  0  0  0  0  0  0
  189.5310  177.1420  138.0190 C   0  0  0  0  0  0  0  0  0  0  0  0
  191.3090  177.3300  140.3160 O   0  0  0  0  0  0  0  0  0  0  0  0
  188.4610  177.0230  136.9830 C   0  0  2  0  0  3  0  0  0  0  0  0
  188.9700  177.5090  135.6390 C   0  0  0  0  0  1  0  0  0  0  0  0
  187.3870  179.1570  137.0420 O   0  0  0  0  0  1  0  0  0  0  0  0
  187.2250  177.8130  137.3800 C   0  0  0  0  0  2  0  0  0  0  0  0
  190.2070  176.7190  142.7990 O   0  0  0  0  0  0  0  0  0  0  0  0
  190.4690  177.4900  143.9460 C   0  0  0  0  0  0  0  0  0  0  0  0
  190.4890  178.9980  143.7750 C   0  0  0  0  0  2  0  0  0  0  0  0
  191.7910  178.2170  143.8360 C   0  0  0  0  0  2  0  0  0  0  0  0
  190.2250  176.9030  145.3390 C   0  0  1  0  0  3  0  0  0  0  0  0
  191.5330  176.4110  145.9480 C   0  0  0  0  0  2  0  0  0  0  0  0
  191.5370  176.5770  147.4600 C   0  0  0  0  0  2  0  0  0  0  0  0
  192.6230  175.7240  148.0860 C   0  0  0  0  0  1  0  0  0  0  0  0
  189.5620  177.9210  146.2630 C   0  0  0  0  0  2  0  0  0  0  0  0
  187.9140  176.9810  147.6630 O   0  0  0  0  0  0  0  0  0  0  0  0
  188.1640  177.5080  146.5920 C   0  0  0  0  0  0  0  0  0  0  0  0
  187.0780  177.6940  145.5820 C   0  0  0  0  0  2  0  0  0  0  0  0
  186.0920  178.7230  146.0350 C   0  0  0  0  0  3  0  0  0  0  0  0
  184.7830  178.4820  145.9880 C   0  0  0  0  0  2  0  0  0  0  0  0
  188.0160  177.3060  141.9530 C   0  0  0  0  0  2  0  0  0  0  0  0
  187.2080  178.5970  141.9400 C   0  0  0  0  0  2  0  0  0  0  0  0
  184.7510  178.8560  141.4420 C   0  0  0  0  0  0  0  0  0  0  0  0
  185.8120  178.3200  142.2330 N   0  0  0  0  0  2  0  0  0  0  0  0
  185.0000  179.6050  140.4600 O   0  0  0  0  0  0  0  0  0  0  0  0
  183.3320  178.5390  141.7780 C   0  0  0  0  0  2  0  0  0  0  0  0
  181.4450  178.5660  140.0660 N   0  0  0  0  0  2  0  0  0  0  0  0
  182.6190  177.9490  140.6020 C   0  0  0  0  0  0  0  0  0  0  0  0
  183.0590  176.8970  140.0720 O   0  0  0  0  0  0  0  0  0  0  0  0
  180.8780  179.8000  140.5960 C   0  0  2  0  0  3  0  0  0  0  0  0
  179.5960  179.4980  141.3490 C   0  0  0  0  0  1  0  0  0  0  0  0
  181.7100  180.7780  138.4620 C   0  0  0  0  0  1  0  0  0  0  0  0
  180.5670  180.7550  139.4590 C   0  0  0  0  0  2  0  0  0  0  0  0
  1 25  1  6  0  0  0
  1 11  1  0  0  0  0
  2  4  1  0  0  0  0
  3  5  2  0  0  0  0
  4  1  1  0  0  0  0
  5  2  1  0  0  0  0
  6  4  2  0  0  0  0
  7  8  1  6  0  0  0
  7 10  1  0  0  0  0
  7  5  1  0  0  0  0
  9 10  1  0  0  0  0
 11 12  1  0  0  0  0
 12 15  1  0  0  0  0
 13 14  1  0  0  0  0
 13 12  1  0  0  0  0
 14 12  1  0  0  0  0
 15 16  1  1  0  0  0
 15 19  1  0  0  0  0
 16 17  1  0  0  0  0
 17 18  1  0  0  0  0
 19 21  1  0  0  0  0
 21 20  2  0  0  0  0
 22 23  1  0  0  0  0
 22 21  1  0  0  0  0
 24 23  2  0  0  0  0
 26 25  1  0  0  0  0
 26 28  1  0  0  0  0
 27 30  1  0  0  0  0
 27 28  1  0  0  0  0
 29 27  2  0  0  0  0
 31 34  1  0  0  0  0
 31 32  1  0  0  0  0
 32 30  1  0  0  0  0
 33 32  2  0  0  0  0
 34 35  1  6  0  0  0
 36 37  1  0  0  0  0
 37 34  1  0  0  0  0
M  END
>  <MODEL>
1

>  <REMARK>
 VINA RESULT:      -7.1      0.000      0.000
  Name = 
  19 active torsions:
  status: ('A' for Active; 'I' for Inactive)
    1  A    between atoms: N_1  and  C_5
    2  A    between atoms: C_2  and  C_19
    3  A    between atoms: C_2  and  C_35
    4  A    between atoms: C_3  and  C_32
    5  A    between atoms: C_4  and  O_10
    6  A    between atoms: C_4  and  C_13
    7  A    between atoms: C_5  and  C_23
    8  A    between atoms: C_7  and  C_14
    9  A    between atoms: C_7  and  C_27
   10  A    between atoms: C_9  and  C_13
   11  A    between atoms: C_9  and  C_16
   12  A    between atoms: O_10  and  C_14
   13  A    between atoms: C_11  and  C_36
   14  A    between atoms: C_13  and  C_20
   15  A    between atoms: C_14  and  C_31
   16  A    between atoms: C_20  and  C_25
   17  A    between atoms: C_25  and  C_32
   18  A    between atoms: C_26  and  C_36
   19  A    between atoms: C_27  and  N_33
                            x       y       z     vdW  Elec       q    Type
                         _______ _______ _______ _____ _____    ______ ____

>  <TORSDO>
F 19

$$$$
=
 OpenBabel10262423053D

 37 37  0  0  1  0  0  0  0  0999 V2000
  190.1570  177.5160  141.5920 C   0  0  2  0  0  3  0  0  0  0  0  0
  191.1480  176.7290  139.3950 N   0  0  0  0  0  2  0  0  0  0  0  0
  193.3850  176.7780  138.6990 O   0  0  0  0  0  0  0  0  0  0  0  0
  191.3420  177.2560  140.7130 C   0  0  0  0  0  0  0  0  0  0  0  0
  192.1840  176.4930  138.4360 C   0  0  0  0  0  0  0  0  0  0  0  0
  192.4960  177.5330  141.1370 O   0  0  0  0  0  0  0  0  0  0  0  0
  191.8210  175.9200  137.1050 C   0  0  2  0  0  3  0  0  0  0  0  0
  190.4640  176.4340  136.6620 C   0  0  0  0  0  1  0  0  0  0  0  0
  190.5620  173.9480  137.5920 O   0  0  0  0  0  1  0  0  0  0  0  0
  191.8050  174.4020  137.1490 C   0  0  0  0  0  2  0  0  0  0  0  0
  190.1830  176.6930  142.7310 O   0  0  0  0  0  0  0  0  0  0  0  0
  190.0650  177.5300  143.8560 C   0  0  0  0  0  0  0  0  0  0  0  0
  190.7730  178.8710  143.7970 C   0  0  0  0  0  2  0  0  0  0  0  0
  191.3950  177.7100  144.5540 C   0  0  0  0  0  2  0  0  0  0  0  0
  188.9000  177.3460  144.8310 C   0  0  1  0  0  3  0  0  0  0  0  0
  189.1760  178.0800  146.1380 C   0  0  0  0  0  2  0  0  0  0  0  0
  189.1780  177.1230  147.3210 C   0  0  0  0  0  2  0  0  0  0  0  0
  188.3560  177.6870  148.4630 C   0  0  0  0  0  1  0  0  0  0  0  0
  187.5850  177.8260  144.2230 C   0  0  0  0  0  2  0  0  0  0  0  0
  186.2030  176.7370  145.7930 O   0  0  0  0  0  0  0  0  0  0  0  0
  186.4850  177.7840  145.2320 C   0  0  0  0  0  0  0  0  0  0  0  0
  185.6910  179.0170  145.5170 C   0  0  0  0  0  2  0  0  0  0  0  0
  184.2270  178.7140  145.5750 C   0  0  0  0  0  3  0  0  0  0  0  0
  183.4400  178.9470  144.5260 C   0  0  0  0  0  2  0  0  0  0  0  0
  188.8360  177.3580  140.8320 C   0  0  0  0  0  2  0  0  0  0  0  0
  188.0220  178.6450  140.7760 C   0  0  0  0  0  2  0  0  0  0  0  0
  185.5450  178.9770  141.1010 C   0  0  0  0  0  0  0  0  0  0  0  0
  186.6410  178.3520  140.4320 N   0  0  0  0  0  2  0  0  0  0  0  0
  185.7480  179.8030  142.0300 O   0  0  0  0  0  0  0  0  0  0  0  0
  184.1430  178.6470  140.7090 C   0  0  0  0  0  2  0  0  0  0  0  0
  182.3040  179.5310  139.1820 N   0  0  0  0  0  2  0  0  0  0  0  0
  183.6730  179.5320  139.5970 C   0  0  0  0  0  0  0  0  0  0  0  0
  184.4930  180.2910  139.0190 O   0  0  0  0  0  0  0  0  0  0  0  0
  181.2800  178.7060  139.8090 C   0  0  2  0  0  3  0  0  0  0  0  0
  180.2800  178.2420  138.7680 C   0  0  0  0  0  1  0  0  0  0  0  0
  179.9820  180.7810  140.2700 C   0  0  0  0  0  1  0  0  0  0  0  0
  180.5490  179.5080  140.8700 C   0  0  0  0  0  2  0  0  0  0  0  0
  1 25  1  6  0  0  0
  1 11  1  0  0  0  0
  2  4  1  0  0  0  0
  4  6  2  0  0  0  0
  4  1  1  0  0  0  0
  5  3  2  0  0  0  0
  5  2  1  0  0  0  0
  7  8  1  1  0  0  0
  7 10  1  0  0  0  0
  7  5  1  0  0  0  0
 10  9  1  0  0  0  0
 11 12  1  0  0  0  0
 12 14  1  0  0  0  0
 12 15  1  0  0  0  0
 13 12  1  0  0  0  0
 13 14  1  0  0  0  0
 15 19  1  6  0  0  0
 15 16  1  0  0  0  0
 16 17  1  0  0  0  0
 17 18  1  0  0  0  0
 19 21  1  0  0  0  0
 21 22  1  0  0  0  0
 21 20  2  0  0  0  0
 22 23  1  0  0  0  0
 24 23  2  0  0  0  0
 26 25  1  0  0  0  0
 27 29  2  0  0  0  0
 28 26  1  0  0  0  0
 28 27  1  0  0  0  0
 30 27  1  0  0  0  0
 31 32  1  0  0  0  0
 31 34  1  0  0  0  0
 32 30  1  0  0  0  0
 33 32  2  0  0  0  0
 34 35  1  6  0  0  0
 34 37  1  0  0  0  0
 36 37  1  0  0  0  0
M  END
>  <MODEL>
2

>  <REMARK>
 VINA RESULT:      -7.1      1.901      2.536
  Name = 
  19 active torsions:
  status: ('A' for Active; 'I' for Inactive)
    1  A    between atoms: N_1  and  C_5
    2  A    between atoms: C_2  and  C_19
    3  A    between atoms: C_2  and  C_35
    4  A    between atoms: C_3  and  C_32
    5  A    between atoms: C_4  and  O_10
    6  A    between atoms: C_4  and  C_13
    7  A    between atoms: C_5  and  C_23
    8  A    between atoms: C_7  and  C_14
    9  A    between atoms: C_7  and  C_27
   10  A    between atoms: C_9  and  C_13
   11  A    between atoms: C_9  and  C_16
   12  A    between atoms: O_10  and  C_14
   13  A    between atoms: C_11  and  C_36
   14  A    between atoms: C_13  and  C_20
   15  A    between atoms: C_14  and  C_31
   16  A    between atoms: C_20  and  C_25
   17  A    between atoms: C_25  and  C_32
   18  A    between atoms: C_26  and  C_36
   19  A    between atoms: C_27  and  N_33
                            x       y       z     vdW  Elec       q    Type
                         _______ _______ _______ _____ _____    ______ ____

>  <TORSDO>
F 19

$$$$
=
 OpenBabel10262423053D

 37 37  0  0  1  0  0  0  0  0999 V2000
  189.3650  177.4840  142.0190 C   0  0  2  0  0  3  0  0  0  0  0  0
  189.0920  177.2990  139.5040 N   0  0  0  0  0  2  0  0  0  0  0  0
  190.7060  176.7530  137.8950 O   0  0  0  0  0  0  0  0  0  0  0  0
  189.9180  177.1530  140.6660 C   0  0  0  0  0  0  0  0  0  0  0  0
  189.5140  177.0770  138.1550 C   0  0  0  0  0  0  0  0  0  0  0  0
  191.1170  176.7780  140.5660 O   0  0  0  0  0  0  0  0  0  0  0  0
  188.5240  177.2540  137.0500 C   0  0  2  0  0  3  0  0  0  0  0  0
  189.2340  177.3160  135.7100 C   0  0  0  0  0  1  0  0  0  0  0  0
  188.5240  179.6380  137.2210 O   0  0  0  0  0  1  0  0  0  0  0  0
  187.6980  178.5130  137.2520 C   0  0  0  0  0  2  0  0  0  0  0  0
  189.8930  176.6310  143.0020 O   0  0  0  0  0  0  0  0  0  0  0  0
  190.4110  177.4440  144.0280 C   0  0  0  0  0  0  0  0  0  0  0  0
  190.6020  178.9160  143.7130 C   0  0  0  0  0  2  0  0  0  0  0  0
  191.7870  177.9660  143.6800 C   0  0  0  0  0  2  0  0  0  0  0  0
  190.2910  177.0050  145.4900 C   0  0  1  0  0  3  0  0  0  0  0  0
  191.6710  176.8820  146.1250 C   0  0  0  0  0  2  0  0  0  0  0  0
  191.8420  175.5380  146.8190 C   0  0  0  0  0  2  0  0  0  0  0  0
  192.6720  175.6920  148.0790 C   0  0  0  0  0  1  0  0  0  0  0  0
  189.4250  177.9730  146.2900 C   0  0  0  0  0  2  0  0  0  0  0  0
  188.1980  176.8030  147.9300 O   0  0  0  0  0  0  0  0  0  0  0  0
  188.2030  177.2880  146.8100 C   0  0  0  0  0  0  0  0  0  0  0  0
  187.0000  177.1470  145.9340 C   0  0  0  0  0  2  0  0  0  0  0  0
  186.4350  178.4850  145.5760 C   0  0  0  0  0  3  0  0  0  0  0  0
  185.4510  179.0240  146.2920 C   0  0  0  0  0  2  0  0  0  0  0  0
  187.8330  177.4520  142.0330 C   0  0  0  0  0  2  0  0  0  0  0  0
  187.2050  178.8320  141.8840 C   0  0  0  0  0  2  0  0  0  0  0  0
  184.7330  178.5880  141.4550 C   0  0  0  0  0  0  0  0  0  0  0  0
  186.0680  178.7730  140.9820 N   0  0  0  0  0  2  0  0  0  0  0  0
  184.5040  178.4570  142.6870 O   0  0  0  0  0  0  0  0  0  0  0  0
  183.5960  178.5390  140.4900 C   0  0  0  0  0  2  0  0  0  0  0  0
  184.1340  178.2520  138.0150 N   0  0  0  0  0  2  0  0  0  0  0  0
  183.9950  179.0980  139.1600 C   0  0  0  0  0  0  0  0  0  0  0  0
  184.2080  180.3330  139.0450 O   0  0  0  0  0  0  0  0  0  0  0  0
  183.8830  176.8170  138.0480 C   0  0  2  0  0  3  0  0  0  0  0  0
  184.8620  176.1000  137.1390 C   0  0  0  0  0  1  0  0  0  0  0  0
  182.1160  175.0760  137.8210 C   0  0  0  0  0  1  0  0  0  0  0  0
  182.4710  176.5300  137.5730 C   0  0  0  0  0  2  0  0  0  0  0  0
  1 25  1  6  0  0  0
  1 11  1  0  0  0  0
  2  4  1  0  0  0  0
  3  5  2  0  0  0  0
  4  1  1  0  0  0  0
  5  2  1  0  0  0  0
  6  4  2  0  0  0  0
  7  8  1  6  0  0  0
  7 10  1  0  0  0  0
  7  5  1  0  0  0  0
  9 10  1  0  0  0  0
 11 12  1  0  0  0  0
 12 15  1  0  0  0  0
 13 12  1  0  0  0  0
 14 13  1  0  0  0  0
 14 12  1  0  0  0  0
 15 16  1  1  0  0  0
 15 19  1  0  0  0  0
 16 17  1  0  0  0  0
 17 18  1  0  0  0  0
 19 21  1  0  0  0  0
 21 20  2  0  0  0  0
 22 21  1  0  0  0  0
 23 22  1  0  0  0  0
 23 24  2  0  0  0  0
 26 25  1  0  0  0  0
 27 29  2  0  0  0  0
 28 27  1  0  0  0  0
 28 26  1  0  0  0  0
 30 27  1  0  0  0  0
 31 34  1  0  0  0  0
 31 32  1  0  0  0  0
 32 30  1  0  0  0  0
 33 32  2  0  0  0  0
 34 35  1  6  0  0  0
 37 36  1  0  0  0  0
 37 34  1  0  0  0  0
M  END
>  <MODEL>
3

>  <REMARK>
 VINA RESULT:      -6.8      1.545      2.255
  Name = 
  19 active torsions:
  status: ('A' for Active; 'I' for Inactive)
    1  A    between atoms: N_1  and  C_5
    2  A    between atoms: C_2  and  C_19
    3  A    between atoms: C_2  and  C_35
    4  A    between atoms: C_3  and  C_32
    5  A    between atoms: C_4  and  O_10
    6  A    between atoms: C_4  and  C_13
    7  A    between atoms: C_5  and  C_23
    8  A    between atoms: C_7  and  C_14
    9  A    between atoms: C_7  and  C_27
   10  A    between atoms: C_9  and  C_13
   11  A    between atoms: C_9  and  C_16
   12  A    between atoms: O_10  and  C_14
   13  A    between atoms: C_11  and  C_36
   14  A    between atoms: C_13  and  C_20
   15  A    between atoms: C_14  and  C_31
   16  A    between atoms: C_20  and  C_25
   17  A    between atoms: C_25  and  C_32
   18  A    between atoms: C_26  and  C_36
   19  A    between atoms: C_27  and  N_33
                            x       y       z     vdW  Elec       q    Type
                         _______ _______ _______ _____ _____    ______ ____

>  <TORSDO>
F 19

$$$$
=
 OpenBabel10262423053D

 37 37  0  0  1  0  0  0  0  0999 V2000
  184.6020  178.4490  143.6870 C   0  0  2  0  0  3  0  0  0  0  0  0
  182.4270  178.7470  142.4190 N   0  0  0  0  0  2  0  0  0  0  0  0
  180.5970  180.1100  142.9560 O   0  0  0  0  0  0  0  0  0  0  0  0
  183.2770  179.1250  143.5090 C   0  0  0  0  0  0  0  0  0  0  0  0
  181.1170  179.2680  142.1720 C   0  0  0  0  0  0  0  0  0  0  0  0
  182.9150  180.0000  144.3410 O   0  0  0  0  0  0  0  0  0  0  0  0
  180.3600  178.7840  140.9780 C   0  0  2  0  0  3  0  0  0  0  0  0
  180.9940  177.5200  140.4280 C   0  0  0  0  0  1  0  0  0  0  0  0
  181.5720  180.0050  139.3190 O   0  0  0  0  0  1  0  0  0  0  0  0
  180.3100  179.8470  139.8940 C   0  0  0  0  0  2  0  0  0  0  0  0
  185.5020  179.2780  144.3790 O   0  0  0  0  0  0  0  0  0  0  0  0
  185.9170  178.5810  145.5280 C   0  0  0  0  0  0  0  0  0  0  0  0
  184.8330  178.1130  146.4810 C   0  0  0  0  0  2  0  0  0  0  0  0
  185.6320  179.3690  146.7880 C   0  0  0  0  0  2  0  0  0  0  0  0
  187.2810  177.8850  145.5550 C   0  0  1  0  0  3  0  0  0  0  0  0
  187.6480  177.4840  146.9780 C   0  0  0  0  0  2  0  0  0  0  0  0
  189.0600  177.9270  147.3310 C   0  0  0  0  0  2  0  0  0  0  0  0
  190.0090  176.7430  147.3160 C   0  0  0  0  0  1  0  0  0  0  0  0
  187.3000  176.6650  144.6390 C   0  0  0  0  0  2  0  0  0  0  0  0
  188.5570  175.8980  142.7970 O   0  0  0  0  0  0  0  0  0  0  0  0
  188.4000  176.7720  143.6340 C   0  0  0  0  0  0  0  0  0  0  0  0
  189.3470  177.9270  143.6890 C   0  0  0  0  0  2  0  0  0  0  0  0
  190.7620  177.4590  143.8140 C   0  0  0  0  0  3  0  0  0  0  0  0
  191.6290  177.6320  142.8190 C   0  0  0  0  0  2  0  0  0  0  0  0
  185.1960  177.9930  142.3510 C   0  0  0  0  0  2  0  0  0  0  0  0
  185.8680  179.1220  141.5780 C   0  0  0  0  0  2  0  0  0  0  0  0
  187.3720  178.3610  139.7050 C   0  0  0  0  0  0  0  0  0  0  0  0
  186.0820  178.7280  140.1970 N   0  0  0  0  0  2  0  0  0  0  0  0
  188.3760  178.3800  140.4650 O   0  0  0  0  0  0  0  0  0  0  0  0
  187.5420  177.9590  138.2780 C   0  0  0  0  0  2  0  0  0  0  0  0
  189.9940  177.7570  137.6130 N   0  0  0  0  0  2  0  0  0  0  0  0
  188.7980  178.5360  137.7030 C   0  0  0  0  0  0  0  0  0  0  0  0
  188.8020  179.7240  137.2870 O   0  0  0  0  0  0  0  0  0  0  0  0
  190.0760  176.3670  138.0450 C   0  0  2  0  0  3  0  0  0  0  0  0
  190.9360  176.2620  139.2890 C   0  0  0  0  0  1  0  0  0  0  0  0
  190.1540  174.1060  137.0030 C   0  0  0  0  0  1  0  0  0  0  0  0
  190.6950  175.5220  136.9460 C   0  0  0  0  0  2  0  0  0  0  0  0
  1 25  1  6  0  0  0
  1 11  1  0  0  0  0
  2  4  1  0  0  0  0
  4  1  1  0  0  0  0
  4  6  2  0  0  0  0
  5  2  1  0  0  0  0
  5  3  2  0  0  0  0
  7  8  1  6  0  0  0
  7  5  1  0  0  0  0
  9 10  1  0  0  0  0
 10  7  1  0  0  0  0
 11 12  1  0  0  0  0
 12 15  1  0  0  0  0
 12 13  1  0  0  0  0
 12 14  1  0  0  0  0
 13 14  1  0  0  0  0
 15 19  1  6  0  0  0
 15 16  1  0  0  0  0
 16 17  1  0  0  0  0
 18 17  1  0  0  0  0
 20 21  2  0  0  0  0
 21 22  1  0  0  0  0
 21 19  1  0  0  0  0
 22 23  1  0  0  0  0
 24 23  2  0  0  0  0
 26 25  1  0  0  0  0
 27 28  1  0  0  0  0
 27 29  2  0  0  0  0
 28 26  1  0  0  0  0
 30 27  1  0  0  0  0
 31 32  1  0  0  0  0
 31 34  1  0  0  0  0
 32 30  1  0  0  0  0
 33 32  2  0  0  0  0
 34 35  1  1  0  0  0
 37 36  1  0  0  0  0
 37 34  1  0  0  0  0
M  END
>  <MODEL>
4

>  <REMARK>
 VINA RESULT:      -6.8      2.115      6.991
  Name = 
  19 active torsions:
  status: ('A' for Active; 'I' for Inactive)
    1  A    between atoms: N_1  and  C_5
    2  A    between atoms: C_2  and  C_19
    3  A    between atoms: C_2  and  C_35
    4  A    between atoms: C_3  and  C_32
    5  A    between atoms: C_4  and  O_10
    6  A    between atoms: C_4  and  C_13
    7  A    between atoms: C_5  and  C_23
    8  A    between atoms: C_7  and  C_14
    9  A    between atoms: C_7  and  C_27
   10  A    between atoms: C_9  and  C_13
   11  A    between atoms: C_9  and  C_16
   12  A    between atoms: O_10  and  C_14
   13  A    between atoms: C_11  and  C_36
   14  A    between atoms: C_13  and  C_20
   15  A    between atoms: C_14  and  C_31
   16  A    between atoms: C_20  and  C_25
   17  A    between atoms: C_25  and  C_32
   18  A    between atoms: C_26  and  C_36
   19  A    between atoms: C_27  and  N_33
                            x       y       z     vdW  Elec       q    Type
                         _______ _______ _______ _____ _____    ______ ____

>  <TORSDO>
F 19

$$$$
=
 OpenBabel10262423053D

 37 37  0  0  1  0  0  0  0  0999 V2000
  190.1430  177.4730  141.8530 C   0  0  2  0  0  3  0  0  0  0  0  0
  190.5660  176.3650  139.6110 N   0  0  0  0  0  2  0  0  0  0  0  0
  192.4500  176.5380  138.2280 O   0  0  0  0  0  0  0  0  0  0  0  0
  191.0420  177.1790  140.6910 C   0  0  0  0  0  0  0  0  0  0  0  0
  191.2980  176.0600  138.4200 C   0  0  0  0  0  0  0  0  0  0  0  0
  192.1990  177.6770  140.6660 O   0  0  0  0  0  0  0  0  0  0  0  0
  190.6680  175.1790  137.3910 C   0  0  2  0  0  3  0  0  0  0  0  0
  191.5920  174.0280  137.0440 C   0  0  0  0  0  1  0  0  0  0  0  0
  190.0190  175.0860  135.0930 O   0  0  0  0  0  1  0  0  0  0  0  0
  190.3280  175.9620  136.1340 C   0  0  0  0  0  2  0  0  0  0  0  0
  190.4690  176.6710  142.9590 O   0  0  0  0  0  0  0  0  0  0  0  0
  190.5780  177.5200  144.0760 C   0  0  0  0  0  0  0  0  0  0  0  0
  190.3950  179.0070  143.8340 C   0  0  0  0  0  2  0  0  0  0  0  0
  191.7900  178.4210  143.9710 C   0  0  0  0  0  2  0  0  0  0  0  0
  190.3680  176.9650  145.4870 C   0  0  1  0  0  3  0  0  0  0  0  0
  191.7030  176.5850  146.1160 C   0  0  0  0  0  2  0  0  0  0  0  0
  191.5080  175.9270  147.4740 C   0  0  0  0  0  2  0  0  0  0  0  0
  192.8420  175.7340  148.1680 C   0  0  0  0  0  1  0  0  0  0  0  0
  189.6310  177.9650  146.3730 C   0  0  0  0  0  2  0  0  0  0  0  0
  188.2110  176.5180  147.5780 O   0  0  0  0  0  0  0  0  0  0  0  0
  188.2940  177.4340  146.7760 C   0  0  0  0  0  0  0  0  0  0  0  0
  187.0550  177.9900  146.1520 C   0  0  0  0  0  2  0  0  0  0  0  0
  186.8940  177.5050  144.7460 C   0  0  0  0  0  3  0  0  0  0  0  0
  185.9570  178.0160  143.9510 C   0  0  0  0  0  2  0  0  0  0  0  0
  188.6640  177.3220  141.4840 C   0  0  0  0  0  2  0  0  0  0  0  0
  188.0740  178.5760  140.8500 C   0  0  0  0  0  2  0  0  0  0  0  0
  187.8630  178.4650  138.3420 C   0  0  0  0  0  0  0  0  0  0  0  0
  187.3350  178.2330  139.6480 N   0  0  0  0  0  2  0  0  0  0  0  0
  188.9980  178.9930  138.1940 O   0  0  0  0  0  0  0  0  0  0  0  0
  187.0680  178.0910  137.1350 C   0  0  0  0  0  2  0  0  0  0  0  0
  185.0520  176.5450  137.3280 N   0  0  0  0  0  2  0  0  0  0  0  0
  186.4700  176.7270  137.2870 C   0  0  0  0  0  0  0  0  0  0  0  0
  187.2240  175.7250  137.3770 O   0  0  0  0  0  0  0  0  0  0  0  0
  184.1010  177.6430  137.2050 C   0  0  2  0  0  3  0  0  0  0  0  0
  183.7450  178.1750  138.5800 C   0  0  0  0  0  1  0  0  0  0  0  0
  181.9820  176.3680  137.4980 C   0  0  0  0  0  1  0  0  0  0  0  0
  182.8360  177.1560  136.5230 C   0  0  0  0  0  2  0  0  0  0  0  0
  1 25  1  6  0  0  0
  1 11  1  0  0  0  0
  2  4  1  0  0  0  0
  3  5  2  0  0  0  0
  4  1  1  0  0  0  0
  5  2  1  0  0  0  0
  6  4  2  0  0  0  0
  7  8  1  6  0  0  0
  7  5  1  0  0  0  0
  9 10  1  0  0  0  0
 10  7  1  0  0  0  0
 11 12  1  0  0  0  0
 12 15  1  0  0  0  0
 13 14  1  0  0  0  0
 13 12  1  0  0  0  0
 14 12  1  0  0  0  0
 15 16  1  1  0  0  0
 15 19  1  0  0  0  0
 16 17  1  0  0  0  0
 17 18  1  0  0  0  0
 19 21  1  0  0  0  0
 21 20  2  0  0  0  0
 22 21  1  0  0  0  0
 23 22  1  0  0  0  0
 24 23  2  0  0  0  0
 26 25  1  0  0  0  0
 27 28  1  0  0  0  0
 28 26  1  0  0  0  0
 29 27  2  0  0  0  0
 30 32  1  0  0  0  0
 30 27  1  0  0  0  0
 32 31  1  0  0  0  0
 32 33  2  0  0  0  0
 34 31  1  0  0  0  0
 34 35  1  1  0  0  0
 37 34  1  0  0  0  0
 37 36  1  0  0  0  0
M  END
>  <MODEL>
5

>  <REMARK>
 VINA RESULT:      -6.7      2.392      3.129
  Name = 
  19 active torsions:
  status: ('A' for Active; 'I' for Inactive)
    1  A    between atoms: N_1  and  C_5
    2  A    between atoms: C_2  and  C_19
    3  A    between atoms: C_2  and  C_35
    4  A    between atoms: C_3  and  C_32
    5  A    between atoms: C_4  and  O_10
    6  A    between atoms: C_4  and  C_13
    7  A    between atoms: C_5  and  C_23
    8  A    between atoms: C_7  and  C_14
    9  A    between atoms: C_7  and  C_27
   10  A    between atoms: C_9  and  C_13
   11  A    between atoms: C_9  and  C_16
   12  A    between atoms: O_10  and  C_14
   13  A    between atoms: C_11  and  C_36
   14  A    between atoms: C_13  and  C_20
   15  A    between atoms: C_14  and  C_31
   16  A    between atoms: C_20  and  C_25
   17  A    between atoms: C_25  and  C_32
   18  A    between atoms: C_26  and  C_36
   19  A    between atoms: C_27  and  N_33
                            x       y       z     vdW  Elec       q    Type
                         _______ _______ _______ _____ _____    ______ ____

>  <TORSDO>
F 19

$$$$
=
 OpenBabel10262423053D

 37 37  0  0  1  0  0  0  0  0999 V2000
  189.5370  177.5510  141.9880 C   0  0  2  0  0  3  0  0  0  0  0  0
  188.9620  177.4630  139.5190 N   0  0  0  0  0  2  0  0  0  0  0  0
  190.4050  177.2100  137.6910 O   0  0  0  0  0  0  0  0  0  0  0  0
  189.9440  177.3640  140.5580 C   0  0  0  0  0  0  0  0  0  0  0  0
  189.2280  177.3670  138.1170 C   0  0  0  0  0  0  0  0  0  0  0  0
  191.1560  177.1500  140.2860 O   0  0  0  0  0  0  0  0  0  0  0  0
  188.0880  177.4730  137.1560 C   0  0  2  0  0  3  0  0  0  0  0  0
  186.8060  177.8090  137.8930 C   0  0  0  0  0  1  0  0  0  0  0  0
  188.2820  176.3730  135.0440 O   0  0  0  0  0  1  0  0  0  0  0  0
  187.9090  176.1820  136.3750 C   0  0  0  0  0  2  0  0  0  0  0  0
  190.3440  176.7870  142.8470 O   0  0  0  0  0  0  0  0  0  0  0  0
  190.5950  177.5670  143.9910 C   0  0  0  0  0  0  0  0  0  0  0  0
  190.6060  179.0740  143.8110 C   0  0  0  0  0  2  0  0  0  0  0  0
  191.9130  178.3020  143.8820 C   0  0  0  0  0  2  0  0  0  0  0  0
  190.3490  176.9860  145.3860 C   0  0  1  0  0  3  0  0  0  0  0  0
  191.6720  176.6790  146.0780 C   0  0  0  0  0  2  0  0  0  0  0  0
  191.4560  175.8950  147.3630 C   0  0  0  0  0  2  0  0  0  0  0  0
  192.7490  175.7920  148.1480 C   0  0  0  0  0  1  0  0  0  0  0  0
  189.5120  177.9310  146.2410 C   0  0  0  0  0  2  0  0  0  0  0  0
  188.0730  176.7640  147.7000 O   0  0  0  0  0  0  0  0  0  0  0  0
  188.2090  177.3000  146.6120 C   0  0  0  0  0  0  0  0  0  0  0  0
  187.0870  177.2780  145.6260 C   0  0  0  0  0  2  0  0  0  0  0  0
  185.8970  178.0210  146.1470 C   0  0  0  0  0  3  0  0  0  0  0  0
  186.0480  179.1130  146.8930 C   0  0  0  0  0  2  0  0  0  0  0  0
  188.0530  177.2350  142.2050 C   0  0  0  0  0  2  0  0  0  0  0  0
  187.1800  178.4820  142.2710 C   0  0  0  0  0  2  0  0  0  0  0  0
  184.8170  178.6880  141.4200 C   0  0  0  0  0  0  0  0  0  0  0  0
  185.7760  178.1120  142.3070 N   0  0  0  0  0  2  0  0  0  0  0  0
  185.1660  179.5570  140.5770 O   0  0  0  0  0  0  0  0  0  0  0  0
  183.3850  178.2720  141.4910 C   0  0  0  0  0  2  0  0  0  0  0  0
  181.3030  179.3470  142.4930 N   0  0  0  0  0  2  0  0  0  0  0  0
  182.6770  178.9690  142.6110 C   0  0  0  0  0  0  0  0  0  0  0  0
  183.2990  179.2250  143.6740 O   0  0  0  0  0  0  0  0  0  0  0  0
  180.4970  179.0690  141.3110 C   0  0  2  0  0  3  0  0  0  0  0  0
  179.8550  180.3480  140.8100 C   0  0  0  0  0  1  0  0  0  0  0  0
  179.5120  176.8470  140.7660 C   0  0  0  0  0  1  0  0  0  0  0  0
  179.4050  178.0720  141.6530 C   0  0  0  0  0  2  0  0  0  0  0  0
  1 25  1  6  0  0  0
  1 11  1  0  0  0  0
  2  4  1  0  0  0  0
  3  5  2  0  0  0  0
  4  1  1  0  0  0  0
  5  2  1  0  0  0  0
  6  4  2  0  0  0  0
  7  8  1  1  0  0  0
  7  5  1  0  0  0  0
  9 10  1  0  0  0  0
 10  7  1  0  0  0  0
 11 12  1  0  0  0  0
 12 15  1  0  0  0  0
 13 14  1  0  0  0  0
 13 12  1  0  0  0  0
 14 12  1  0  0  0  0
 15 16  1  1  0  0  0
 15 19  1  0  0  0  0
 16 17  1  0  0  0  0
 17 18  1  0  0  0  0
 19 21  1  0  0  0  0
 21 20  2  0  0  0  0
 22 23  1  0  0  0  0
 22 21  1  0  0  0  0
 23 24  2  0  0  0  0
 25 26  1  0  0  0  0
 26 28  1  0  0  0  0
 27 30  1  0  0  0  0
 27 28  1  0  0  0  0
 29 27  2  0  0  0  0
 30 32  1  0  0  0  0
 31 32  1  0  0  0  0
 32 33  2  0  0  0  0
 34 35  1  1  0  0  0
 34 37  1  0  0  0  0
 34 31  1  0  0  0  0
 36 37  1  0  0  0  0
M  END
>  <MODEL>
6

>  <REMARK>
 VINA RESULT:      -6.7      1.208      1.673
  Name = 
  19 active torsions:
  status: ('A' for Active; 'I' for Inactive)
    1  A    between atoms: N_1  and  C_5
    2  A    between atoms: C_2  and  C_19
    3  A    between atoms: C_2  and  C_35
    4  A    between atoms: C_3  and  C_32
    5  A    between atoms: C_4  and  O_10
    6  A    between atoms: C_4  and  C_13
    7  A    between atoms: C_5  and  C_23
    8  A    between atoms: C_7  and  C_14
    9  A    between atoms: C_7  and  C_27
   10  A    between atoms: C_9  and  C_13
   11  A    between atoms: C_9  and  C_16
   12  A    between atoms: O_10  and  C_14
   13  A    between atoms: C_11  and  C_36
   14  A    between atoms: C_13  and  C_20
   15  A    between atoms: C_14  and  C_31
   16  A    between atoms: C_20  and  C_25
   17  A    between atoms: C_25  and  C_32
   18  A    between atoms: C_26  and  C_36
   19  A    between atoms: C_27  and  N_33
                            x       y       z     vdW  Elec       q    Type
                         _______ _______ _______ _____ _____    ______ ____

>  <TORSDO>
F 19

$$$$
=
 OpenBabel10262423053D

 37 37  0  0  1  0  0  0  0  0999 V2000
  184.7370  178.2770  143.5270 C   0  0  2  0  0  3  0  0  0  0  0  0
  182.5230  178.7510  142.3860 N   0  0  0  0  0  2  0  0  0  0  0  0
  180.7680  180.1230  143.1130 O   0  0  0  0  0  0  0  0  0  0  0  0
  183.4310  179.0080  143.4640 C   0  0  0  0  0  0  0  0  0  0  0  0
  181.2240  179.3330  142.2410 C   0  0  0  0  0  0  0  0  0  0  0  0
  183.1370  179.8230  144.3800 O   0  0  0  0  0  0  0  0  0  0  0  0
  180.4010  178.9750  141.0460 C   0  0  2  0  0  3  0  0  0  0  0  0
  180.0030  177.5120  141.0980 C   0  0  0  0  0  1  0  0  0  0  0  0
  181.2260  178.0980  138.9820 O   0  0  0  0  0  1  0  0  0  0  0  0
  181.1550  179.2560  139.7580 C   0  0  0  0  0  2  0  0  0  0  0  0
  185.7050  179.0320  144.2120 O   0  0  0  0  0  0  0  0  0  0  0  0
  186.0570  178.3120  145.3690 C   0  0  0  0  0  0  0  0  0  0  0  0
  184.9260  177.8680  146.2770 C   0  0  0  0  0  2  0  0  0  0  0  0
  185.7490  179.0970  146.6250 C   0  0  0  0  0  2  0  0  0  0  0  0
  187.3990  177.5780  145.4380 C   0  0  1  0  0  3  0  0  0  0  0  0
  188.1050  177.6250  144.0890 C   0  0  0  0  0  2  0  0  0  0  0  0
  188.2800  176.2310  143.5060 C   0  0  0  0  0  2  0  0  0  0  0  0
  189.7080  176.0260  143.0380 C   0  0  0  0  0  1  0  0  0  0  0  0
  188.2960  178.1620  146.5250 C   0  0  0  0  0  2  0  0  0  0  0  0
  188.7890  176.2090  147.7520 O   0  0  0  0  0  0  0  0  0  0  0  0
  189.2210  177.1210  147.0670 C   0  0  0  0  0  0  0  0  0  0  0  0
  190.6900  177.2280  146.8120 C   0  0  0  0  0  2  0  0  0  0  0  0
  191.3600  175.8980  146.9520 C   0  0  0  0  0  3  0  0  0  0  0  0
  192.4320  175.7520  147.7280 C   0  0  0  0  0  2  0  0  0  0  0  0
  185.2380  177.8800  142.1350 C   0  0  0  0  0  2  0  0  0  0  0  0
  186.0950  178.9550  141.4780 C   0  0  0  0  0  2  0  0  0  0  0  0
  186.7140  178.2480  139.1400 C   0  0  0  0  0  0  0  0  0  0  0  0
  187.0180  178.3550  140.5310 N   0  0  0  0  0  2  0  0  0  0  0  0
  185.6140  178.6680  138.6910 O   0  0  0  0  0  0  0  0  0  0  0  0
  187.6970  177.6270  138.2040 C   0  0  0  0  0  2  0  0  0  0  0  0
  190.1520  178.2540  138.4770 N   0  0  0  0  0  2  0  0  0  0  0  0
  188.8530  178.5440  137.9520 C   0  0  0  0  0  0  0  0  0  0  0  0
  188.6820  179.5840  137.2660 O   0  0  0  0  0  0  0  0  0  0  0  0
  190.4490  177.0610  139.2600 C   0  0  2  0  0  3  0  0  0  0  0  0
  191.4910  177.3810  140.3140 C   0  0  0  0  0  1  0  0  0  0  0  0
  192.4260  176.2620  137.9720 C   0  0  0  0  0  1  0  0  0  0  0  0
  190.9870  175.9700  138.3530 C   0  0  0  0  0  2  0  0  0  0  0  0
  1 25  1  6  0  0  0
  1 11  1  0  0  0  0
  2  4  1  0  0  0  0
  4  1  1  0  0  0  0
  4  6  2  0  0  0  0
  5  2  1  0  0  0  0
  5  3  2  0  0  0  0
  7  8  1  1  0  0  0
  7  5  1  0  0  0  0
  9 10  1  0  0  0  0
 10  7  1  0  0  0  0
 11 12  1  0  0  0  0
 12 15  1  0  0  0  0
 12 13  1  0  0  0  0
 12 14  1  0  0  0  0
 13 14  1  0  0  0  0
 15 16  1  6  0  0  0
 15 19  1  0  0  0  0
 17 16  1  0  0  0  0
 18 17  1  0  0  0  0
 19 21  1  0  0  0  0
 21 20  2  0  0  0  0
 22 23  1  0  0  0  0
 22 21  1  0  0  0  0
 23 24  2  0  0  0  0
 26 25  1  0  0  0  0
 27 28  1  0  0  0  0
 28 26  1  0  0  0  0
 29 27  2  0  0  0  0
 30 27  1  0  0  0  0
 31 34  1  0  0  0  0
 32 30  1  0  0  0  0
 32 31  1  0  0  0  0
 33 32  2  0  0  0  0
 34 35  1  1  0  0  0
 36 37  1  0  0  0  0
 37 34  1  0  0  0  0
M  END
>  <MODEL>
7

>  <REMARK>
 VINA RESULT:      -6.5      2.052      7.034
  Name = 
  19 active torsions:
  status: ('A' for Active; 'I' for Inactive)
    1  A    between atoms: N_1  and  C_5
    2  A    between atoms: C_2  and  C_19
    3  A    between atoms: C_2  and  C_35
    4  A    between atoms: C_3  and  C_32
    5  A    between atoms: C_4  and  O_10
    6  A    between atoms: C_4  and  C_13
    7  A    between atoms: C_5  and  C_23
    8  A    between atoms: C_7  and  C_14
    9  A    between atoms: C_7  and  C_27
   10  A    between atoms: C_9  and  C_13
   11  A    between atoms: C_9  and  C_16
   12  A    between atoms: O_10  and  C_14
   13  A    between atoms: C_11  and  C_36
   14  A    between atoms: C_13  and  C_20
   15  A    between atoms: C_14  and  C_31
   16  A    between atoms: C_20  and  C_25
   17  A    between atoms: C_25  and  C_32
   18  A    between atoms: C_26  and  C_36
   19  A    between atoms: C_27  and  N_33
                            x       y       z     vdW  Elec       q    Type
                         _______ _______ _______ _____ _____    ______ ____

>  <TORSDO>
F 19

$$$$
=
 OpenBabel10262423053D

 37 37  0  0  1  0  0  0  0  0999 V2000
  183.6900  178.7650  143.0290 C   0  0  2  0  0  3  0  0  0  0  0  0
  185.5320  178.4890  144.7490 N   0  0  0  0  0  2  0  0  0  0  0  0
  185.4990  179.0390  147.0270 O   0  0  0  0  0  0  0  0  0  0  0  0
  184.1800  178.8500  144.4420 C   0  0  0  0  0  0  0  0  0  0  0  0
  186.1410  178.5830  146.0410 C   0  0  0  0  0  0  0  0  0  0  0  0
  183.4000  179.2670  145.3400 O   0  0  0  0  0  0  0  0  0  0  0  0
  187.5610  178.1490  146.2030 C   0  0  2  0  0  3  0  0  0  0  0  0
  187.9760  177.2550  145.0500 C   0  0  0  0  0  1  0  0  0  0  0  0
  188.4150  178.2440  148.4330 O   0  0  0  0  0  1  0  0  0  0  0  0
  187.7630  177.4160  147.5190 C   0  0  0  0  0  2  0  0  0  0  0  0
  182.4920  178.0340  142.9530 O   0  0  0  0  0  0  0  0  0  0  0  0
  181.6290  178.7320  142.0890 C   0  0  0  0  0  0  0  0  0  0  0  0
  180.7510  179.8030  142.7070 C   0  0  0  0  0  2  0  0  0  0  0  0
  180.1780  178.4320  142.3930 C   0  0  0  0  0  2  0  0  0  0  0  0
  181.9240  178.7870  140.5870 C   0  0  1  0  0  3  0  0  0  0  0  0
  181.6050  177.4500  139.9300 C   0  0  0  0  0  2  0  0  0  0  0  0
  182.8620  176.7830  139.3930 C   0  0  0  0  0  2  0  0  0  0  0  0
  182.5580  175.3720  138.9250 C   0  0  0  0  0  1  0  0  0  0  0  0
  181.1450  179.9090  139.9090 C   0  0  0  0  0  2  0  0  0  0  0  0
  183.0800  180.7590  138.8630 O   0  0  0  0  0  0  0  0  0  0  0  0
  181.9040  180.4550  138.7440 C   0  0  0  0  0  0  0  0  0  0  0  0
  181.2060  180.6810  137.4420 C   0  0  0  0  0  2  0  0  0  0  0  0
  180.7250  179.3910  136.8570 C   0  0  0  0  0  3  0  0  0  0  0  0
  181.5800  178.5260  136.3160 C   0  0  0  0  0  2  0  0  0  0  0  0
  184.7500  178.1770  142.0910 C   0  0  0  0  0  2  0  0  0  0  0  0
  185.4580  179.2350  141.2520 C   0  0  0  0  0  2  0  0  0  0  0  0
  187.7690  178.4050  140.6860 C   0  0  0  0  0  0  0  0  0  0  0  0
  186.3990  178.6070  140.3410 N   0  0  0  0  0  2  0  0  0  0  0  0
  188.2100  178.7820  141.8050 O   0  0  0  0  0  0  0  0  0  0  0  0
  188.6970  177.7500  139.7170 C   0  0  0  0  0  2  0  0  0  0  0  0
  187.9620  177.6050  137.2820 N   0  0  0  0  0  2  0  0  0  0  0  0
  188.5560  178.3460  138.3510 C   0  0  0  0  0  0  0  0  0  0  0  0
  188.9620  179.5180  138.1400 O   0  0  0  0  0  0  0  0  0  0  0  0
  187.4400  176.2530  137.4400 C   0  0  2  0  0  3  0  0  0  0  0  0
  188.3980  175.2540  136.8200 C   0  0  0  0  0  1  0  0  0  0  0  0
  185.2830  177.4020  136.9580 C   0  0  0  0  0  1  0  0  0  0  0  0
  186.0930  176.1370  136.7500 C   0  0  0  0  0  2  0  0  0  0  0  0
  1 25  1  6  0  0  0
  1  4  1  0  0  0  0
  2  5  1  0  0  0  0
  4  2  1  0  0  0  0
  4  6  2  0  0  0  0
  5  7  1  0  0  0  0
  5  3  2  0  0  0  0
  7  8  1  6  0  0  0
  7 10  1  0  0  0  0
 10  9  1  0  0  0  0
 11  1  1  0  0  0  0
 12 14  1  0  0  0  0
 12 13  1  0  0  0  0
 12 11  1  0  0  0  0
 14 13  1  0  0  0  0
 15 19  1  6  0  0  0
 15 12  1  0  0  0  0
 16 15  1  0  0  0  0
 17 16  1  0  0  0  0
 18 17  1  0  0  0  0
 21 20  2  0  0  0  0
 21 19  1  0  0  0  0
 22 21  1  0  0  0  0
 23 22  1  0  0  0  0
 24 23  2  0  0  0  0
 26 25  1  0  0  0  0
 27 29  2  0  0  0  0
 28 27  1  0  0  0  0
 28 26  1  0  0  0  0
 30 27  1  0  0  0  0
 31 34  1  0  0  0  0
 31 32  1  0  0  0  0
 32 30  1  0  0  0  0
 33 32  2  0  0  0  0
 34 35  1  6  0  0  0
 37 36  1  0  0  0  0
 37 34  1  0  0  0  0
M  END
>  <MODEL>
8

>  <REMARK>
 VINA RESULT:      -6.3      2.490      8.874
  Name = 
  19 active torsions:
  status: ('A' for Active; 'I' for Inactive)
    1  A    between atoms: N_1  and  C_5
    2  A    between atoms: C_2  and  C_19
    3  A    between atoms: C_2  and  C_35
    4  A    between atoms: C_3  and  C_32
    5  A    between atoms: C_4  and  O_10
    6  A    between atoms: C_4  and  C_13
    7  A    between atoms: C_5  and  C_23
    8  A    between atoms: C_7  and  C_14
    9  A    between atoms: C_7  and  C_27
   10  A    between atoms: C_9  and  C_13
   11  A    between atoms: C_9  and  C_16
   12  A    between atoms: O_10  and  C_14
   13  A    between atoms: C_11  and  C_36
   14  A    between atoms: C_13  and  C_20
   15  A    between atoms: C_14  and  C_31
   16  A    between atoms: C_20  and  C_25
   17  A    between atoms: C_25  and  C_32
   18  A    between atoms: C_26  and  C_36
   19  A    between atoms: C_27  and  N_33
                            x       y       z     vdW  Elec       q    Type
                         _______ _______ _______ _____ _____    ______ ____

>  <TORSDO>
F 19

$$$$
=
 OpenBabel10262423053D

 37 37  0  0  1  0  0  0  0  0999 V2000
  189.5480  177.2160  140.4270 C   0  0  2  0  0  3  0  0  0  0  0  0
  191.3960  176.5630  138.8180 N   0  0  0  0  0  2  0  0  0  0  0  0
  193.7080  176.8760  139.0420 O   0  0  0  0  0  0  0  0  0  0  0  0
  191.0030  177.1010  140.0860 C   0  0  0  0  0  0  0  0  0  0  0  0
  192.7430  176.4560  138.3460 C   0  0  0  0  0  0  0  0  0  0  0  0
  191.8630  177.5070  140.9130 O   0  0  0  0  0  0  0  0  0  0  0  0
  192.9910  175.8530  137.0010 C   0  0  2  0  0  3  0  0  0  0  0  0
  192.2400  174.5430  136.8630 C   0  0  0  0  0  1  0  0  0  0  0  0
  194.8200  174.3220  137.1440 O   0  0  0  0  0  1  0  0  0  0  0  0
  194.4750  175.6220  136.7710 C   0  0  0  0  0  2  0  0  0  0  0  0
  189.2030  176.3370  141.4680 O   0  0  0  0  0  0  0  0  0  0  0  0
  188.6840  177.1150  142.5190 C   0  0  0  0  0  0  0  0  0  0  0  0
  187.4140  177.8970  142.2390 C   0  0  0  0  0  2  0  0  0  0  0  0
  188.7650  178.5930  142.2070 C   0  0  0  0  0  2  0  0  0  0  0  0
  189.0530  176.7910  143.9690 C   0  0  1  0  0  3  0  0  0  0  0  0
  190.4850  176.2770  144.0540 C   0  0  0  0  0  2  0  0  0  0  0  0
  191.3360  177.1550  144.9600 C   0  0  0  0  0  2  0  0  0  0  0  0
  191.6670  176.4260  146.2490 C   0  0  0  0  0  1  0  0  0  0  0  0
  188.8730  178.0070  144.8730 C   0  0  0  0  0  2  0  0  0  0  0  0
  188.3320  177.5790  147.1280 O   0  0  0  0  0  0  0  0  0  0  0  0
  187.9220  177.7060  145.9860 C   0  0  0  0  0  0  0  0  0  0  0  0
  186.4710  177.5080  145.6890 C   0  0  0  0  0  2  0  0  0  0  0  0
  185.6880  178.7500  145.9750 C   0  0  0  0  0  3  0  0  0  0  0  0
  184.9030  179.2910  145.0450 C   0  0  0  0  0  2  0  0  0  0  0  0
  188.6550  176.9920  139.2030 C   0  0  0  0  0  2  0  0  0  0  0  0
  188.1470  178.2910  138.5880 C   0  0  0  0  0  2  0  0  0  0  0  0
  185.8220  177.9650  137.6730 C   0  0  0  0  0  0  0  0  0  0  0  0
  186.7030  178.3780  138.7180 N   0  0  0  0  0  2  0  0  0  0  0  0
  186.2810  177.5180  136.5880 O   0  0  0  0  0  0  0  0  0  0  0  0
  184.3440  178.0690  137.8550 C   0  0  0  0  0  2  0  0  0  0  0  0
  183.0450  176.8370  139.6680 N   0  0  0  0  0  2  0  0  0  0  0  0
  183.7850  176.8120  138.4440 C   0  0  0  0  0  0  0  0  0  0  0  0
  183.9650  175.7160  137.8540 O   0  0  0  0  0  0  0  0  0  0  0  0
  182.7650  178.0620  140.4070 C   0  0  2  0  0  3  0  0  0  0  0  0
  183.7650  178.2250  141.5350 C   0  0  0  0  0  1  0  0  0  0  0  0
  180.8400  179.4010  141.2460 C   0  0  0  0  0  1  0  0  0  0  0  0
  181.3670  178.0010  140.9940 C   0  0  0  0  0  2  0  0  0  0  0  0
  1 25  1  6  0  0  0
  1 11  1  0  0  0  0
  2  4  1  0  0  0  0
  4  1  1  0  0  0  0
  4  6  2  0  0  0  0
  5  2  1  0  0  0  0
  5  3  2  0  0  0  0
  7  8  1  1  0  0  0
  7  5  1  0  0  0  0
 10  7  1  0  0  0  0
 10  9  1  0  0  0  0
 11 12  1  0  0  0  0
 12 15  1  0  0  0  0
 13 12  1  0  0  0  0
 14 13  1  0  0  0  0
 14 12  1  0  0  0  0
 15 16  1  6  0  0  0
 15 19  1  0  0  0  0
 16 17  1  0  0  0  0
 17 18  1  0  0  0  0
 19 21  1  0  0  0  0
 21 20  2  0  0  0  0
 22 23  1  0  0  0  0
 22 21  1  0  0  0  0
 24 23  2  0  0  0  0
 26 28  1  0  0  0  0
 26 25  1  0  0  0  0
 27 30  1  0  0  0  0
 27 28  1  0  0  0  0
 29 27  2  0  0  0  0
 30 32  1  0  0  0  0
 31 34  1  0  0  0  0
 32 31  1  0  0  0  0
 33 32  2  0  0  0  0
 34 37  1  0  0  0  0
 34 35  1  1  0  0  0
 37 36  1  0  0  0  0
M  END
>  <MODEL>
9

>  <REMARK>
 VINA RESULT:      -6.3      2.189      3.382
  Name = 
  19 active torsions:
  status: ('A' for Active; 'I' for Inactive)
    1  A    between atoms: N_1  and  C_5
    2  A    between atoms: C_2  and  C_19
    3  A    between atoms: C_2  and  C_35
    4  A    between atoms: C_3  and  C_32
    5  A    between atoms: C_4  and  O_10
    6  A    between atoms: C_4  and  C_13
    7  A    between atoms: C_5  and  C_23
    8  A    between atoms: C_7  and  C_14
    9  A    between atoms: C_7  and  C_27
   10  A    between atoms: C_9  and  C_13
   11  A    between atoms: C_9  and  C_16
   12  A    between atoms: O_10  and  C_14
   13  A    between atoms: C_11  and  C_36
   14  A    between atoms: C_13  and  C_20
   15  A    between atoms: C_14  and  C_31
   16  A    between atoms: C_20  and  C_25
   17  A    between atoms: C_25  and  C_32
   18  A    between atoms: C_26  and  C_36
   19  A    between atoms: C_27  and  N_33
                            x       y       z     vdW  Elec       q    Type
                         _______ _______ _______ _____ _____    ______ ____

>  <TORSDO>
F 19

$$$$
