=
 OpenBabel10262421153D

 32 37  0  0  1  0  0  0  0  0999 V2000
  186.3290  177.8690  144.7230 C   0  0  0  0  0  0  0  0  0  0  0  0
  188.6840  177.1610  144.5300 C   0  0  0  0  0  0  0  0  0  0  0  0
  185.2000  178.0650  145.6570 C   0  0  0  0  0  3  0  0  0  0  0  0
  187.6440  177.5030  145.3100 C   0  0  0  0  0  0  0  0  0  0  0  0
  190.0270  176.9100  145.1450 C   0  0  0  0  0  0  0  0  0  0  0  0
  192.0430  177.2590  139.4910 C   0  0  0  0  0  1  0  0  0  0  0  0
  188.4570  176.9890  143.0380 C   0  0  1  0  0  3  0  0  0  0  0  0
  191.9020  176.8530  141.9250 O   0  0  0  0  0  0  0  0  0  0  0  0
  190.9730  176.8070  142.8440 C   0  0  0  0  0  0  0  0  0  0  0  0
  187.7550  177.3570  146.8070 C   0  0  1  0  0  3  0  0  0  0  0  0
  191.1920  176.4690  144.2830 C   0  0  0  0  0  2  0  0  0  0  0  0
  189.1010  177.5400  147.2440 O   0  0  0  0  0  0  0  0  0  0  0  0
  186.8130  178.3230  147.5250 C   0  0  0  0  0  2  0  0  0  0  0  0
  187.4350  178.0040  142.5200 C   0  0  0  0  0  2  0  0  0  0  0  0
  186.2050  178.0330  143.3860 C   0  0  0  0  0  0  0  0  0  0  0  0
  189.7470  177.0660  142.2840 C   0  0  0  0  0  0  0  0  0  0  0  0
  190.1930  177.1320  146.4640 C   0  0  0  0  0  0  0  0  0  0  0  0
  185.4170  178.2320  146.9660 C   0  0  0  0  0  3  0  0  0  0  0  0
  191.3140  177.1250  140.7790 C   0  0  0  0  0  0  0  0  0  0  0  0
  189.9400  177.2580  140.9270 C   0  0  0  0  0  3  0  0  0  0  0  0
  182.5430  179.3780  143.2180 C   0  0  2  0  0  3  0  0  0  0  0  0
  182.0610  177.3480  140.1900 O   0  0  0  0  0  0  0  0  0  0  0  0
  181.9190  179.2140  144.4420 F   0  0  0  0  0  0  0  0  0  0  0  0
  183.7480  179.0040  140.4970 C   0  0  0  0  0  2  0  0  0  0  0  0
  184.8990  178.3390  142.7000 C   0  0  2  0  0  3  0  0  0  0  0  0
  182.0800  178.3410  142.2960 N   0  0  0  0  0  2  0  0  0  0  0  0
  185.0450  178.5660  141.1860 C   0  0  0  0  0  2  0  0  0  0  0  0
  184.0400  179.3650  143.4040 C   0  0  0  0  0  0  0  0  0  0  0  0
  184.5550  180.2350  144.0920 O   0  0  0  0  0  0  0  0  0  0  0  0
  182.5790  178.1950  140.9610 C   0  0  0  0  0  0  0  0  0  0  0  0
  191.5070  176.9840  147.1050 C   0  0  0  0  0  3  0  0  0  0  0  0
  191.8260  175.8930  147.7170 N   0  0  0  0  0  2  0  0  0  0  0  0
  1  4  1  0  0  0  0
  1  3  1  0  0  0  0
  2  5  1  0  0  0  0
  2  4  2  0  0  0  0
  3 18  2  0  0  0  0
  4 10  1  0  0  0  0
  5 17  2  0  0  0  0
  6 19  1  0  0  0  0
  7 14  1  6  0  0  0
  7  2  1  0  0  0  0
  8  9  1  0  0  0  0
  9 11  1  0  0  0  0
 10 12  1  0  0  0  0
 10 13  1  1  0  0  0
 11  5  1  0  0  0  0
 14 15  1  0  0  0  0
 15  1  2  0  0  0  0
 16  9  2  0  0  0  0
 16  7  1  0  0  0  0
 17 31  1  0  0  0  0
 17 12  1  0  0  0  0
 18 13  1  0  0  0  0
 19 20  2  0  0  0  0
 19  8  1  0  0  0  0
 20 16  1  0  0  0  0
 21 28  1  0  0  0  0
 21 23  1  1  0  0  0
 22 30  2  0  0  0  0
 24 30  1  0  0  0  0
 24 27  1  0  0  0  0
 25 15  1  1  0  0  0
 25 28  1  0  0  0  0
 26 21  1  0  0  0  0
 27 25  1  0  0  0  0
 28 29  2  0  0  0  0
 30 26  1  0  0  0  0
 31 32  2  0  0  0  0
M  END
>  <MODEL>
1

>  <REMARK>
 VINA RESULT:     -11.4      0.000      0.000
  Name = 
  2 active torsions:
  status: ('A' for Active; 'I' for Inactive)
    1  A    between atoms: C_13  and  C_29
    2  A    between atoms: C_16  and  C_27
                            x       y       z     vdW  Elec       q    Type
                         _______ _______ _______ _____ _____    ______ ____

>  <TORSDO>
F 2

$$$$
=
 OpenBabel10262421153D

 32 37  0  0  1  0  0  0  0  0999 V2000
  184.9390  178.2780  143.4630 C   0  0  0  0  0  0  0  0  0  0  0  0
  187.2600  177.6250  143.9820 C   0  0  0  0  0  0  0  0  0  0  0  0
  183.6000  178.5340  144.0350 C   0  0  0  0  0  3  0  0  0  0  0  0
  186.0480  178.0130  144.4150 C   0  0  0  0  0  0  0  0  0  0  0  0
  188.3880  177.4780  144.9570 C   0  0  0  0  0  0  0  0  0  0  0  0
  191.8490  177.3050  140.0430 C   0  0  0  0  0  1  0  0  0  0  0  0
  187.4420  177.2930  142.5110 C   0  0  1  0  0  3  0  0  0  0  0  0
  191.0600  177.1470  142.3790 O   0  0  0  0  0  0  0  0  0  0  0  0
  189.9180  177.1670  143.0170 C   0  0  0  0  0  0  0  0  0  0  0  0
  185.7530  178.0250  145.8940 C   0  0  1  0  0  3  0  0  0  0  0  0
  189.7420  176.9860  144.4900 C   0  0  0  0  0  2  0  0  0  0  0  0
  186.9310  178.2920  146.6530 O   0  0  0  0  0  0  0  0  0  0  0  0
  184.6520  179.0310  146.2270 C   0  0  0  0  0  2  0  0  0  0  0  0
  186.5960  178.2190  141.6330 C   0  0  0  0  0  2  0  0  0  0  0  0
  185.1780  178.3000  142.1310 C   0  0  0  0  0  0  0  0  0  0  0  0
  188.8880  177.3310  142.1260 C   0  0  0  0  0  0  0  0  0  0  0  0
  188.1930  177.8390  146.2410 C   0  0  0  0  0  0  0  0  0  0  0  0
  183.4560  178.8420  145.3280 C   0  0  0  0  0  3  0  0  0  0  0  0
  190.8010  177.2820  141.0970 C   0  0  0  0  0  0  0  0  0  0  0  0
  189.4380  177.3880  140.8570 C   0  0  0  0  0  3  0  0  0  0  0  0
  183.6180  179.9120  138.9360 C   0  0  2  0  0  3  0  0  0  0  0  0
  180.3220  178.7970  140.1260 O   0  0  0  0  0  0  0  0  0  0  0  0
  184.0590  181.2160  138.7960 F   0  0  0  0  0  0  0  0  0  0  0  0
  182.2090  177.3910  139.7470 C   0  0  0  0  0  2  0  0  0  0  0  0
  184.1040  178.4940  141.0920 C   0  0  2  0  0  3  0  0  0  0  0  0
  182.2530  179.9160  139.4620 N   0  0  0  0  0  2  0  0  0  0  0  0
  183.2220  177.2520  140.8890 C   0  0  0  0  0  2  0  0  0  0  0  0
  184.5760  179.1410  139.8090 C   0  0  0  0  0  0  0  0  0  0  0  0
  185.7310  179.0000  139.4350 O   0  0  0  0  0  0  0  0  0  0  0  0
  181.5280  178.7220  139.7760 C   0  0  0  0  0  0  0  0  0  0  0  0
  189.2870  177.7970  147.2220 C   0  0  0  0  0  3  0  0  0  0  0  0
  189.1080  178.2140  148.4310 N   0  0  0  0  0  2  0  0  0  0  0  0
  1  3  1  0  0  0  0
  1  4  1  0  0  0  0
  2  4  2  0  0  0  0
  2  5  1  0  0  0  0
  3 18  2  0  0  0  0
  4 10  1  0  0  0  0
  5 17  2  0  0  0  0
  6 19  1  0  0  0  0
  7 14  1  6  0  0  0
  7  2  1  0  0  0  0
  8  9  1  0  0  0  0
  9 11  1  0  0  0  0
 10 13  1  6  0  0  0
 10 12  1  0  0  0  0
 11  5  1  0  0  0  0
 14 15  1  0  0  0  0
 15  1  2  0  0  0  0
 16  7  1  0  0  0  0
 16  9  2  0  0  0  0
 17 12  1  0  0  0  0
 17 31  1  0  0  0  0
 18 13  1  0  0  0  0
 19  8  1  0  0  0  0
 20 19  2  0  0  0  0
 20 16  1  0  0  0  0
 21 23  1  1  0  0  0
 21 26  1  0  0  0  0
 21 28  1  0  0  0  0
 24 30  1  0  0  0  0
 24 27  1  0  0  0  0
 25 15  1  1  0  0  0
 26 30  1  0  0  0  0
 27 25  1  0  0  0  0
 28 25  1  0  0  0  0
 29 28  2  0  0  0  0
 30 22  2  0  0  0  0
 31 32  2  0  0  0  0
M  END
>  <MODEL>
2

>  <REMARK>
 VINA RESULT:     -11.4      1.957      2.556
  Name = 
  2 active torsions:
  status: ('A' for Active; 'I' for Inactive)
    1  A    between atoms: C_13  and  C_29
    2  A    between atoms: C_16  and  C_27
                            x       y       z     vdW  Elec       q    Type
                         _______ _______ _______ _____ _____    ______ ____

>  <TORSDO>
F 2

$$$$
=
 OpenBabel10262421153D

 32 37  0  0  1  0  0  0  0  0999 V2000
  189.6010  177.0620  143.2020 C   0  0  0  0  0  0  0  0  0  0  0  0
  187.9640  177.8360  144.8760 C   0  0  0  0  0  0  0  0  0  0  0  0
  191.0070  176.6560  142.9850 C   0  0  0  0  0  3  0  0  0  0  0  0
  189.1750  177.3210  144.6010 C   0  0  0  0  0  0  0  0  0  0  0  0
  187.5190  177.9770  146.2990 C   0  0  0  0  0  0  0  0  0  0  0  0
  182.0730  178.8520  143.9070 C   0  0  0  0  0  1  0  0  0  0  0  0
  187.0910  178.3120  143.7270 C   0  0  1  0  0  3  0  0  0  0  0  0
  183.9600  178.7380  145.4980 O   0  0  0  0  0  0  0  0  0  0  0  0
  185.2560  178.5760  145.4500 C   0  0  0  0  0  0  0  0  0  0  0  0
  190.1830  177.1520  145.7100 C   0  0  1  0  0  3  0  0  0  0  0  0
  186.1810  178.6090  146.6230 C   0  0  0  0  0  2  0  0  0  0  0  0
  189.5390  176.9070  146.9590 O   0  0  0  0  0  0  0  0  0  0  0  0
  191.1800  176.0410  145.3830 C   0  0  0  0  0  2  0  0  0  0  0  0
  187.2590  177.4090  142.5020 C   0  0  0  0  0  2  0  0  0  0  0  0
  188.7130  177.1790  142.1880 C   0  0  0  0  0  0  0  0  0  0  0  0
  185.6590  178.4170  144.1470 C   0  0  0  0  0  0  0  0  0  0  0  0
  188.3040  177.4880  147.2800 C   0  0  0  0  0  0  0  0  0  0  0  0
  191.7580  176.2220  144.0030 C   0  0  0  0  0  3  0  0  0  0  0  0
  183.5080  178.7010  144.2630 C   0  0  0  0  0  0  0  0  0  0  0  0
  184.5330  178.5160  143.3470 C   0  0  0  0  0  3  0  0  0  0  0  0
  188.1660  177.5950  138.3450 C   0  0  2  0  0  3  0  0  0  0  0  0
  190.4830  174.7880  137.8290 O   0  0  0  0  0  0  0  0  0  0  0  0
  186.8130  177.6260  138.0560 F   0  0  0  0  0  0  0  0  0  0  0  0
  190.9770  176.7940  139.0180 C   0  0  0  0  0  2  0  0  0  0  0  0
  189.0730  177.0000  140.7360 C   0  0  2  0  0  3  0  0  0  0  0  0
  188.7030  176.2770  138.0060 N   0  0  0  0  0  2  0  0  0  0  0  0
  190.5850  176.8480  140.4990 C   0  0  0  0  0  2  0  0  0  0  0  0
  188.3860  177.9610  139.7920 C   0  0  0  0  0  0  0  0  0  0  0  0
  188.0500  179.0710  140.1760 O   0  0  0  0  0  0  0  0  0  0  0  0
  190.0650  175.9000  138.2400 C   0  0  0  0  0  0  0  0  0  0  0  0
  187.8790  177.5220  148.6870 C   0  0  0  0  0  3  0  0  0  0  0  0
  188.4420  178.3230  149.5290 N   0  0  0  0  0  2  0  0  0  0  0  0
  1  4  1  0  0  0  0
  2  5  1  0  0  0  0
  3  1  1  0  0  0  0
  3 18  2  0  0  0  0
  4  2  2  0  0  0  0
  4 10  1  0  0  0  0
  5 11  1  0  0  0  0
  5 17  2  0  0  0  0
  6 19  1  0  0  0  0
  7 14  1  6  0  0  0
  7 16  1  0  0  0  0
  7  2  1  0  0  0  0
  9  8  1  0  0  0  0
  9 11  1  0  0  0  0
 10 13  1  6  0  0  0
 10 12  1  0  0  0  0
 12 17  1  0  0  0  0
 15 14  1  0  0  0  0
 15  1  2  0  0  0  0
 16  9  2  0  0  0  0
 17 31  1  0  0  0  0
 18 13  1  0  0  0  0
 19  8  1  0  0  0  0
 20 16  1  0  0  0  0
 20 19  2  0  0  0  0
 21 23  1  1  0  0  0
 21 28  1  0  0  0  0
 22 30  2  0  0  0  0
 24 27  1  0  0  0  0
 25 15  1  1  0  0  0
 26 30  1  0  0  0  0
 26 21  1  0  0  0  0
 27 25  1  0  0  0  0
 28 29  2  0  0  0  0
 28 25  1  0  0  0  0
 30 24  1  0  0  0  0
 31 32  2  0  0  0  0
M  END
>  <MODEL>
3

>  <REMARK>
 VINA RESULT:     -11.4      2.840      5.992
  Name = 
  2 active torsions:
  status: ('A' for Active; 'I' for Inactive)
    1  A    between atoms: C_13  and  C_29
    2  A    between atoms: C_16  and  C_27
                            x       y       z     vdW  Elec       q    Type
                         _______ _______ _______ _____ _____    ______ ____

>  <TORSDO>
F 2

$$$$
=
 OpenBabel10262421153D

 32 37  0  0  1  0  0  0  0  0999 V2000
  185.2080  178.3320  144.2280 C   0  0  0  0  0  0  0  0  0  0  0  0
  187.4720  177.8190  143.3960 C   0  0  0  0  0  0  0  0  0  0  0  0
  184.3430  178.3780  145.4270 C   0  0  0  0  0  3  0  0  0  0  0  0
  186.6470  178.0270  144.4360 C   0  0  0  0  0  0  0  0  0  0  0  0
  188.9390  177.6290  143.6340 C   0  0  0  0  0  0  0  0  0  0  0  0
  189.4300  178.5100  137.7070 C   0  0  0  0  0  1  0  0  0  0  0  0
  186.8830  177.7310  141.9980 C   0  0  1  0  0  3  0  0  0  0  0  0
  189.9350  177.9320  140.0560 O   0  0  0  0  0  0  0  0  0  0  0  0
  189.2750  177.7530  141.1700 C   0  0  0  0  0  0  0  0  0  0  0  0
  187.1420  177.7900  145.8410 C   0  0  1  0  0  3  0  0  0  0  0  0
  189.8700  177.3360  142.4760 C   0  0  0  0  0  2  0  0  0  0  0  0
  188.5420  178.0440  145.9430 O   0  0  0  0  0  0  0  0  0  0  0  0
  186.3610  178.6310  146.8490 C   0  0  0  0  0  2  0  0  0  0  0  0
  185.7080  178.6980  141.8380 C   0  0  0  0  0  2  0  0  0  0  0  0
  184.7390  178.5750  142.9820 C   0  0  0  0  0  0  0  0  0  0  0  0
  187.9340  177.9560  140.9570 C   0  0  0  0  0  0  0  0  0  0  0  0
  189.4220  177.7730  144.8850 C   0  0  0  0  0  0  0  0  0  0  0  0
  184.8750  178.4720  146.6500 C   0  0  0  0  0  3  0  0  0  0  0  0
  189.0610  178.2350  139.1200 C   0  0  0  0  0  0  0  0  0  0  0  0
  187.7650  178.2530  139.6150 C   0  0  0  0  0  3  0  0  0  0  0  0
  181.6360  178.8480  140.6280 C   0  0  2  0  0  3  0  0  0  0  0  0
  179.9960  180.8780  143.2180 O   0  0  0  0  0  0  0  0  0  0  0  0
  182.0290  179.2610  139.3670 F   0  0  0  0  0  0  0  0  0  0  0  0
  180.8630  178.6780  143.5210 C   0  0  0  0  0  2  0  0  0  0  0  0
  183.2860  178.8270  142.6710 C   0  0  2  0  0  3  0  0  0  0  0  0
  181.0440  179.9780  141.3450 N   0  0  0  0  0  2  0  0  0  0  0  0
  182.3520  178.5500  143.8600 C   0  0  0  0  0  2  0  0  0  0  0  0
  182.8120  178.2470  141.3570 C   0  0  0  0  0  0  0  0  0  0  0  0
  183.3420  177.2480  140.8950 O   0  0  0  0  0  0  0  0  0  0  0  0
  180.5880  179.8970  142.7000 C   0  0  0  0  0  0  0  0  0  0  0  0
  190.8620  177.6820  145.1630 C   0  0  0  0  0  3  0  0  0  0  0  0
  191.3280  176.7690  145.9480 N   0  0  0  0  0  2  0  0  0  0  0  0
  1  4  1  0  0  0  0
  1  3  1  0  0  0  0
  2  5  1  0  0  0  0
  2  4  2  0  0  0  0
  3 18  2  0  0  0  0
  4 10  1  0  0  0  0
  5 17  2  0  0  0  0
  6 19  1  0  0  0  0
  7 14  1  1  0  0  0
  7  2  1  0  0  0  0
  8  9  1  0  0  0  0
  9 11  1  0  0  0  0
 10 12  1  0  0  0  0
 10 13  1  1  0  0  0
 11  5  1  0  0  0  0
 14 15  1  0  0  0  0
 15  1  2  0  0  0  0
 16  9  2  0  0  0  0
 16  7  1  0  0  0  0
 17 31  1  0  0  0  0
 17 12  1  0  0  0  0
 18 13  1  0  0  0  0
 19 20  2  0  0  0  0
 19  8  1  0  0  0  0
 20 16  1  0  0  0  0
 21 23  1  6  0  0  0
 21 26  1  0  0  0  0
 21 28  1  0  0  0  0
 24 27  1  0  0  0  0
 25 15  1  1  0  0  0
 25 27  1  0  0  0  0
 26 30  1  0  0  0  0
 28 25  1  0  0  0  0
 29 28  2  0  0  0  0
 30 22  2  0  0  0  0
 30 24  1  0  0  0  0
 31 32  2  0  0  0  0
M  END
>  <MODEL>
4

>  <REMARK>
 VINA RESULT:     -11.1      1.930      2.686
  Name = 
  2 active torsions:
  status: ('A' for Active; 'I' for Inactive)
    1  A    between atoms: C_13  and  C_29
    2  A    between atoms: C_16  and  C_27
                            x       y       z     vdW  Elec       q    Type
                         _______ _______ _______ _____ _____    ______ ____

>  <TORSDO>
F 2

$$$$
=
 OpenBabel10262421153D

 32 37  0  0  1  0  0  0  0  0999 V2000
  186.6680  178.2120  144.8720 C   0  0  0  0  0  0  0  0  0  0  0  0
  185.5830  178.6790  142.7070 C   0  0  0  0  0  0  0  0  0  0  0  0
  186.4980  178.2480  146.3400 C   0  0  0  0  0  3  0  0  0  0  0  0
  185.4820  178.5420  144.0400 C   0  0  0  0  0  0  0  0  0  0  0  0
  184.3500  178.8960  141.8840 C   0  0  0  0  0  0  0  0  0  0  0  0
  187.9220  177.5860  137.2280 C   0  0  0  0  0  1  0  0  0  0  0  0
  186.9620  178.6600  142.0690 C   0  0  1  0  0  3  0  0  0  0  0  0
  186.0030  178.3390  138.5900 O   0  0  0  0  0  0  0  0  0  0  0  0
  185.7510  178.5940  139.8480 C   0  0  0  0  0  0  0  0  0  0  0  0
  184.1850  178.8840  144.7290 C   0  0  1  0  0  3  0  0  0  0  0  0
  184.4570  179.1090  140.3880 C   0  0  0  0  0  2  0  0  0  0  0  0
  183.0690  178.6490  143.8730 O   0  0  0  0  0  0  0  0  0  0  0  0
  184.0390  178.1140  146.0410 C   0  0  0  0  0  2  0  0  0  0  0  0
  187.8850  177.6750  142.7910 C   0  0  0  0  0  2  0  0  0  0  0  0
  187.8380  177.8740  144.2820 C   0  0  0  0  0  0  0  0  0  0  0  0
  186.8740  178.3660  140.6040 C   0  0  0  0  0  0  0  0  0  0  0  0
  183.1450  178.8470  142.4870 C   0  0  0  0  0  0  0  0  0  0  0  0
  185.2780  178.2470  146.8870 C   0  0  0  0  0  3  0  0  0  0  0  0
  187.2600  177.9620  138.5050 C   0  0  0  0  0  0  0  0  0  0  0  0
  187.8840  177.9710  139.7450 C   0  0  0  0  0  3  0  0  0  0  0  0
  191.7120  177.7390  144.7510 C   0  0  2  0  0  3  0  0  0  0  0  0
  191.1800  175.3240  147.4730 O   0  0  0  0  0  0  0  0  0  0  0  0
  192.3310  177.5050  143.5360 F   0  0  0  0  0  0  0  0  0  0  0  0
  190.2380  177.5110  147.3530 C   0  0  0  0  0  2  0  0  0  0  0  0
  189.1070  177.5900  145.0440 C   0  0  2  0  0  3  0  0  0  0  0  0
  191.6920  176.5010  145.5300 N   0  0  0  0  0  2  0  0  0  0  0  0
  188.9310  177.6710  146.5700 C   0  0  0  0  0  2  0  0  0  0  0  0
  190.3330  178.3040  144.5190 C   0  0  0  0  0  0  0  0  0  0  0  0
  190.2250  179.3780  143.9470 O   0  0  0  0  0  0  0  0  0  0  0  0
  191.0680  176.3900  146.8150 C   0  0  0  0  0  0  0  0  0  0  0  0
  181.8990  178.9680  141.7170 C   0  0  0  0  0  3  0  0  0  0  0  0
  180.8080  179.3630  142.2820 N   0  0  0  0  0  2  0  0  0  0  0  0
  1  3  1  0  0  0  0
  2  4  2  0  0  0  0
  3 18  2  0  0  0  0
  4 10  1  0  0  0  0
  4  1  1  0  0  0  0
  5 17  2  0  0  0  0
  5  2  1  0  0  0  0
  6 19  1  0  0  0  0
  7  2  1  0  0  0  0
  7 14  1  1  0  0  0
  8  9  1  0  0  0  0
  9 11  1  0  0  0  0
  9 16  2  0  0  0  0
 10 13  1  1  0  0  0
 11  5  1  0  0  0  0
 12 10  1  0  0  0  0
 13 18  1  0  0  0  0
 14 15  1  0  0  0  0
 15  1  2  0  0  0  0
 16  7  1  0  0  0  0
 17 12  1  0  0  0  0
 19  8  1  0  0  0  0
 19 20  2  0  0  0  0
 20 16  1  0  0  0  0
 21 23  1  6  0  0  0
 21 26  1  0  0  0  0
 25 15  1  6  0  0  0
 25 27  1  0  0  0  0
 26 30  1  0  0  0  0
 27 24  1  0  0  0  0
 28 21  1  0  0  0  0
 28 25  1  0  0  0  0
 29 28  2  0  0  0  0
 30 24  1  0  0  0  0
 30 22  2  0  0  0  0
 31 32  2  0  0  0  0
 31 17  1  0  0  0  0
M  END
>  <MODEL>
5

>  <REMARK>
 VINA RESULT:     -11.0      2.689      6.909
  Name = 
  2 active torsions:
  status: ('A' for Active; 'I' for Inactive)
    1  A    between atoms: C_13  and  C_29
    2  A    between atoms: C_16  and  C_27
                            x       y       z     vdW  Elec       q    Type
                         _______ _______ _______ _____ _____    ______ ____

>  <TORSDO>
F 2

$$$$
=
 OpenBabel10262421153D

 32 37  0  0  1  0  0  0  0  0999 V2000
  186.8980  178.0830  144.3780 C   0  0  0  0  0  0  0  0  0  0  0  0
  185.3670  178.6630  142.5330 C   0  0  0  0  0  0  0  0  0  0  0  0
  187.0620  178.0540  145.8470 C   0  0  0  0  0  3  0  0  0  0  0  0
  185.5640  178.4670  143.8480 C   0  0  0  0  0  0  0  0  0  0  0  0
  183.9870  178.9350  142.0180 C   0  0  0  0  0  0  0  0  0  0  0  0
  186.3950  177.7890  136.6290 C   0  0  0  0  0  1  0  0  0  0  0  0
  186.5680  178.6540  141.6020 C   0  0  1  0  0  3  0  0  0  0  0  0
  184.8470  178.5050  138.4170 O   0  0  0  0  0  0  0  0  0  0  0  0
  184.8900  178.7070  139.7080 C   0  0  0  0  0  0  0  0  0  0  0  0
  184.4630  178.7960  144.8240 C   0  0  1  0  0  3  0  0  0  0  0  0
  183.7620  179.2140  140.5460 C   0  0  0  0  0  2  0  0  0  0  0  0
  183.1780  178.6150  144.2320 O   0  0  0  0  0  0  0  0  0  0  0  0
  184.5950  177.9680  146.1020 C   0  0  0  0  0  2  0  0  0  0  0  0
  187.6050  177.6240  142.0570 C   0  0  0  0  0  2  0  0  0  0  0  0
  187.8980  177.7560  143.5270 C   0  0  0  0  0  0  0  0  0  0  0  0
  186.1470  178.4290  140.1830 C   0  0  0  0  0  0  0  0  0  0  0  0
  182.9470  178.8750  142.8740 C   0  0  0  0  0  0  0  0  0  0  0  0
  185.9960  178.0450  146.6540 C   0  0  0  0  0  3  0  0  0  0  0  0
  186.0440  178.1150  138.0360 C   0  0  0  0  0  0  0  0  0  0  0  0
  186.9290  178.0590  139.1030 C   0  0  0  0  0  3  0  0  0  0  0  0
  191.1800  175.6410  143.5360 C   0  0  2  0  0  3  0  0  0  0  0  0
  191.9890  177.1270  146.8010 O   0  0  0  0  0  0  0  0  0  0  0  0
  190.8930  174.3150  143.2710 F   0  0  0  0  0  0  0  0  0  0  0  0
  191.5560  178.3380  144.7940 C   0  0  0  0  0  2  0  0  0  0  0  0
  189.2980  177.4200  143.9720 C   0  0  2  0  0  3  0  0  0  0  0  0
  191.4220  175.8070  144.9700 N   0  0  0  0  0  2  0  0  0  0  0  0
  190.0920  178.6430  144.4600 C   0  0  0  0  0  2  0  0  0  0  0  0
  190.0610  176.5160  143.0290 C   0  0  0  0  0  0  0  0  0  0  0  0
  189.8160  176.5250  141.8320 O   0  0  0  0  0  0  0  0  0  0  0  0
  191.6880  177.0740  145.5820 C   0  0  0  0  0  0  0  0  0  0  0  0
  181.5630  179.0490  142.4080 C   0  0  0  0  0  3  0  0  0  0  0  0
  180.8080  179.9690  142.9080 N   0  0  0  0  0  2  0  0  0  0  0  0
  1  3  1  0  0  0  0
  2  4  2  0  0  0  0
  3 18  2  0  0  0  0
  4  1  1  0  0  0  0
  4 10  1  0  0  0  0
  5  2  1  0  0  0  0
  5 17  2  0  0  0  0
  6 19  1  0  0  0  0
  7 14  1  1  0  0  0
  7  2  1  0  0  0  0
  8  9  1  0  0  0  0
  9 16  2  0  0  0  0
  9 11  1  0  0  0  0
 10 13  1  1  0  0  0
 11  5  1  0  0  0  0
 12 10  1  0  0  0  0
 13 18  1  0  0  0  0
 14 15  1  0  0  0  0
 15  1  2  0  0  0  0
 16  7  1  0  0  0  0
 17 12  1  0  0  0  0
 19  8  1  0  0  0  0
 19 20  2  0  0  0  0
 20 16  1  0  0  0  0
 21 23  1  1  0  0  0
 21 26  1  0  0  0  0
 24 30  1  0  0  0  0
 25 15  1  6  0  0  0
 25 27  1  0  0  0  0
 26 30  1  0  0  0  0
 27 24  1  0  0  0  0
 28 21  1  0  0  0  0
 28 25  1  0  0  0  0
 29 28  2  0  0  0  0
 30 22  2  0  0  0  0
 31 17  1  0  0  0  0
 31 32  2  0  0  0  0
M  END
>  <MODEL>
6

>  <REMARK>
 VINA RESULT:     -10.7      2.625      7.045
  Name = 
  2 active torsions:
  status: ('A' for Active; 'I' for Inactive)
    1  A    between atoms: C_13  and  C_29
    2  A    between atoms: C_16  and  C_27
                            x       y       z     vdW  Elec       q    Type
                         _______ _______ _______ _____ _____    ______ ____

>  <TORSDO>
F 2

$$$$
=
 OpenBabel10262421153D

 32 37  0  0  1  0  0  0  0  0999 V2000
  187.1660  177.8620  140.3900 C   0  0  0  0  0  0  0  0  0  0  0  0
  187.0830  177.6670  142.8470 C   0  0  0  0  0  0  0  0  0  0  0  0
  186.3690  178.1210  139.1710 C   0  0  0  0  0  3  0  0  0  0  0  0
  186.4820  178.0240  141.6990 C   0  0  0  0  0  0  0  0  0  0  0  0
  186.4150  177.9510  144.1570 C   0  0  0  0  0  0  0  0  0  0  0  0
  191.8060  176.7160  146.5170 C   0  0  0  0  0  1  0  0  0  0  0  0
  188.4120  176.9340  142.7830 C   0  0  1  0  0  3  0  0  0  0  0  0
  189.3910  177.1750  146.2630 O   0  0  0  0  0  0  0  0  0  0  0  0
  188.5190  177.2530  145.2910 C   0  0  0  0  0  0  0  0  0  0  0  0
  185.0340  178.4450  141.7140 C   0  0  1  0  0  3  0  0  0  0  0  0
  187.0560  177.5020  145.4550 C   0  0  0  0  0  2  0  0  0  0  0  0
  184.6900  179.0610  142.9530 O   0  0  0  0  0  0  0  0  0  0  0  0
  184.7180  179.3700  140.5390 C   0  0  0  0  0  2  0  0  0  0  0  0
  189.2660  177.4490  141.6210 C   0  0  0  0  0  2  0  0  0  0  0  0
  188.4720  177.5110  140.3440 C   0  0  0  0  0  0  0  0  0  0  0  0
  189.1390  177.0220  144.0880 C   0  0  0  0  0  0  0  0  0  0  0  0
  185.2650  178.6550  144.1660 C   0  0  0  0  0  0  0  0  0  0  0  0
  185.2090  178.7830  139.2410 C   0  0  0  0  0  3  0  0  0  0  0  0
  190.5590  176.8890  145.7270 C   0  0  0  0  0  0  0  0  0  0  0  0
  190.4730  176.7590  144.3480 C   0  0  0  0  0  3  0  0  0  0  0  0
  189.3690  178.1550  136.6000 C   0  0  2  0  0  3  0  0  0  0  0  0
  190.8280  174.7810  136.4910 O   0  0  0  0  0  0  0  0  0  0  0  0
  188.2570  178.6070  135.9140 F   0  0  0  0  0  0  0  0  0  0  0  0
  191.4490  176.5140  138.0060 C   0  0  0  0  0  2  0  0  0  0  0  0
  189.2260  177.2600  139.0640 C   0  0  2  0  0  3  0  0  0  0  0  0
  189.5910  176.7430  136.2880 N   0  0  0  0  0  2  0  0  0  0  0  0
  190.6220  176.6550  139.2890 C   0  0  0  0  0  2  0  0  0  0  0  0
  189.1940  178.4050  138.0770 C   0  0  0  0  0  0  0  0  0  0  0  0
  189.0790  179.5560  138.4700 O   0  0  0  0  0  0  0  0  0  0  0  0
  190.6320  175.9600  136.8830 C   0  0  0  0  0  0  0  0  0  0  0  0
  184.6110  179.0360  145.4260 C   0  0  0  0  0  3  0  0  0  0  0  0
  183.3240  179.0540  145.5240 N   0  0  0  0  0  2  0  0  0  0  0  0
  1  4  1  0  0  0  0
  2  5  1  0  0  0  0
  3 18  2  0  0  0  0
  3  1  1  0  0  0  0
  4 10  1  0  0  0  0
  4  2  2  0  0  0  0
  5 17  2  0  0  0  0
  5 11  1  0  0  0  0
  7 14  1  6  0  0  0
  7  2  1  0  0  0  0
  7 16  1  0  0  0  0
  9 11  1  0  0  0  0
  9  8  1  0  0  0  0
 10 13  1  6  0  0  0
 10 12  1  0  0  0  0
 12 17  1  0  0  0  0
 15  1  2  0  0  0  0
 15 14  1  0  0  0  0
 16 20  1  0  0  0  0
 16  9  2  0  0  0  0
 17 31  1  0  0  0  0
 18 13  1  0  0  0  0
 19  8  1  0  0  0  0
 19  6  1  0  0  0  0
 20 19  2  0  0  0  0
 21 23  1  6  0  0  0
 21 28  1  0  0  0  0
 22 30  2  0  0  0  0
 24 27  1  0  0  0  0
 25 27  1  0  0  0  0
 25 15  1  1  0  0  0
 26 21  1  0  0  0  0
 26 30  1  0  0  0  0
 28 29  2  0  0  0  0
 28 25  1  0  0  0  0
 30 24  1  0  0  0  0
 31 32  2  0  0  0  0
M  END
>  <MODEL>
7

>  <REMARK>
 VINA RESULT:     -10.6      3.359      6.527
  Name = 
  2 active torsions:
  status: ('A' for Active; 'I' for Inactive)
    1  A    between atoms: C_13  and  C_29
    2  A    between atoms: C_16  and  C_27
                            x       y       z     vdW  Elec       q    Type
                         _______ _______ _______ _____ _____    ______ ____

>  <TORSDO>
F 2

$$$$
=
 OpenBabel10262421153D

 32 37  0  0  1  0  0  0  0  0999 V2000
  185.4650  178.4540  140.7910 C   0  0  0  0  0  0  0  0  0  0  0  0
  187.5180  178.2530  142.1420 C   0  0  0  0  0  0  0  0  0  0  0  0
  184.9320  178.6510  139.4260 C   0  0  0  0  0  3  0  0  0  0  0  0
  186.9350  178.2880  140.9320 C   0  0  0  0  0  0  0  0  0  0  0  0
  188.9850  177.9680  142.2550 C   0  0  0  0  0  0  0  0  0  0  0  0
  187.7870  177.1280  148.0870 C   0  0  0  0  0  1  0  0  0  0  0  0
  186.6780  178.5570  143.3710 C   0  0  1  0  0  3  0  0  0  0  0  0
  188.9780  177.4590  145.9470 O   0  0  0  0  0  0  0  0  0  0  0  0
  188.6830  177.8080  144.7210 C   0  0  0  0  0  0  0  0  0  0  0  0
  187.7910  178.3220  139.6910 C   0  0  1  0  0  3  0  0  0  0  0  0
  189.6640  177.9840  143.6080 C   0  0  0  0  0  2  0  0  0  0  0  0
  189.0270  177.6400  139.8990 O   0  0  0  0  0  0  0  0  0  0  0  0
  187.0440  177.7430  138.4910 C   0  0  0  0  0  2  0  0  0  0  0  0
  185.2570  178.0100  143.2110 C   0  0  0  0  0  2  0  0  0  0  0  0
  184.6680  178.4020  141.8830 C   0  0  0  0  0  0  0  0  0  0  0  0
  187.3350  178.0400  144.6130 C   0  0  0  0  0  0  0  0  0  0  0  0
  189.6750  177.6490  141.1420 C   0  0  0  0  0  0  0  0  0  0  0  0
  185.6770  178.3640  138.3530 C   0  0  0  0  0  3  0  0  0  0  0  0
  187.8610  177.4690  146.6420 C   0  0  0  0  0  0  0  0  0  0  0  0
  186.7750  177.8450  145.8640 C   0  0  0  0  0  3  0  0  0  0  0  0
  181.1180  178.2000  140.2690 C   0  0  2  0  0  3  0  0  0  0  0  0
  180.0560  180.8780  142.5550 O   0  0  0  0  0  0  0  0  0  0  0  0
  181.2160  178.2690  138.8910 F   0  0  0  0  0  0  0  0  0  0  0  0
  181.0050  178.7910  143.2080 C   0  0  0  0  0  2  0  0  0  0  0  0
  183.1780  178.6250  141.8420 C   0  0  2  0  0  3  0  0  0  0  0  0
  180.6800  179.4970  140.7880 N   0  0  0  0  0  2  0  0  0  0  0  0
  182.5340  178.6920  143.2360 C   0  0  0  0  0  2  0  0  0  0  0  0
  182.4360  177.7540  140.8530 C   0  0  0  0  0  0  0  0  0  0  0  0
  182.8680  176.6510  140.5550 O   0  0  0  0  0  0  0  0  0  0  0  0
  180.5360  179.7760  142.1850 C   0  0  0  0  0  0  0  0  0  0  0  0
  191.0960  177.2760  141.2050 C   0  0  0  0  0  3  0  0  0  0  0  0
  191.8840  177.5030  140.2070 N   0  0  0  0  0  2  0  0  0  0  0  0
  1  4  1  0  0  0  0
  1 15  2  0  0  0  0
  2  5  1  0  0  0  0
  2  7  1  0  0  0  0
  3  1  1  0  0  0  0
  4  2  2  0  0  0  0
  5 11  1  0  0  0  0
  7 14  1  6  0  0  0
  7 16  1  0  0  0  0
  8 19  1  0  0  0  0
  9  8  1  0  0  0  0
 10 13  1  6  0  0  0
 10 12  1  0  0  0  0
 10  4  1  0  0  0  0
 11  9  1  0  0  0  0
 12 17  1  0  0  0  0
 15 14  1  0  0  0  0
 16  9  2  0  0  0  0
 16 20  1  0  0  0  0
 17 31  1  0  0  0  0
 17  5  2  0  0  0  0
 18 13  1  0  0  0  0
 18  3  2  0  0  0  0
 19  6  1  0  0  0  0
 20 19  2  0  0  0  0
 21 23  1  6  0  0  0
 21 26  1  0  0  0  0
 21 28  1  0  0  0  0
 24 27  1  0  0  0  0
 25 15  1  1  0  0  0
 25 27  1  0  0  0  0
 26 30  1  0  0  0  0
 28 25  1  0  0  0  0
 29 28  2  0  0  0  0
 30 22  2  0  0  0  0
 30 24  1  0  0  0  0
 32 31  2  0  0  0  0
M  END
>  <MODEL>
8

>  <REMARK>
 VINA RESULT:     -10.4      2.447      5.214
  Name = 
  2 active torsions:
  status: ('A' for Active; 'I' for Inactive)
    1  A    between atoms: C_13  and  C_29
    2  A    between atoms: C_16  and  C_27
                            x       y       z     vdW  Elec       q    Type
                         _______ _______ _______ _____ _____    ______ ____

>  <TORSDO>
F 2

$$$$
=
 OpenBabel10262421153D

 32 37  0  0  1  0  0  0  0  0999 V2000
  189.1540  177.6330  141.6320 C   0  0  0  0  0  0  0  0  0  0  0  0
  187.8440  178.0750  143.6740 C   0  0  0  0  0  0  0  0  0  0  0  0
  190.5060  177.3590  141.1010 C   0  0  0  0  0  3  0  0  0  0  0  0
  188.9990  177.6870  143.1090 C   0  0  0  0  0  0  0  0  0  0  0  0
  187.6810  178.0080  145.1620 C   0  0  0  0  0  0  0  0  0  0  0  0
  181.8350  178.7730  143.9830 C   0  0  0  0  0  1  0  0  0  0  0  0
  186.7400  178.6240  142.7860 C   0  0  1  0  0  3  0  0  0  0  0  0
  184.0020  178.6020  145.1590 O   0  0  0  0  0  0  0  0  0  0  0  0
  185.2700  178.5410  144.8440 C   0  0  0  0  0  0  0  0  0  0  0  0
  190.2130  177.4570  143.9740 C   0  0  1  0  0  3  0  0  0  0  0  0
  186.4050  178.4970  145.8150 C   0  0  0  0  0  2  0  0  0  0  0  0
  189.8400  177.0130  145.2780 O   0  0  0  0  0  0  0  0  0  0  0  0
  191.1770  176.4690  143.3180 C   0  0  0  0  0  2  0  0  0  0  0  0
  186.7060  177.8930  141.4410 C   0  0  0  0  0  2  0  0  0  0  0  0
  188.0780  177.8090  140.8300 C   0  0  0  0  0  0  0  0  0  0  0  0
  185.4150  178.5730  143.4800 C   0  0  0  0  0  0  0  0  0  0  0  0
  188.6660  177.4600  145.9020 C   0  0  0  0  0  0  0  0  0  0  0  0
  191.4630  176.8600  141.8910 C   0  0  0  0  0  3  0  0  0  0  0  0
  183.3180  178.6840  144.0380 C   0  0  0  0  0  0  0  0  0  0  0  0
  184.1510  178.6880  142.9280 C   0  0  0  0  0  3  0  0  0  0  0  0
  186.6030  177.5630  137.2240 C   0  0  2  0  0  3  0  0  0  0  0  0
  190.0150  176.9500  135.9970 O   0  0  0  0  0  0  0  0  0  0  0  0
  185.5370  176.6810  137.2030 F   0  0  0  0  0  0  0  0  0  0  0  0
  189.3150  178.8440  137.2630 C   0  0  0  0  0  2  0  0  0  0  0  0
  188.1540  177.8360  139.3250 C   0  0  2  0  0  3  0  0  0  0  0  0
  187.7840  176.9080  136.6590 N   0  0  0  0  0  2  0  0  0  0  0  0
  189.3040  178.7040  138.7890 C   0  0  0  0  0  2  0  0  0  0  0  0
  186.8290  178.0580  138.6300 C   0  0  0  0  0  0  0  0  0  0  0  0
  185.9400  178.6910  139.1810 O   0  0  0  0  0  0  0  0  0  0  0  0
  189.0710  177.5320  136.5880 C   0  0  0  0  0  0  0  0  0  0  0  0
  188.5260  177.2900  147.3550 C   0  0  0  0  0  3  0  0  0  0  0  0
  189.4400  177.7150  148.1620 N   0  0  0  0  0  2  0  0  0  0  0  0
  1  4  1  0  0  0  0
  2  5  1  0  0  0  0
  3  1  1  0  0  0  0
  3 18  2  0  0  0  0
  4  2  2  0  0  0  0
  4 10  1  0  0  0  0
  5 11  1  0  0  0  0
  5 17  2  0  0  0  0
  6 19  1  0  0  0  0
  7 14  1  6  0  0  0
  7 16  1  0  0  0  0
  7  2  1  0  0  0  0
  9  8  1  0  0  0  0
  9 11  1  0  0  0  0
 10 13  1  6  0  0  0
 10 12  1  0  0  0  0
 12 17  1  0  0  0  0
 15 14  1  0  0  0  0
 15  1  2  0  0  0  0
 16  9  2  0  0  0  0
 17 31  1  0  0  0  0
 18 13  1  0  0  0  0
 19  8  1  0  0  0  0
 20 16  1  0  0  0  0
 20 19  2  0  0  0  0
 21 23  1  1  0  0  0
 21 28  1  0  0  0  0
 22 30  2  0  0  0  0
 24 27  1  0  0  0  0
 25 15  1  1  0  0  0
 26 21  1  0  0  0  0
 27 25  1  0  0  0  0
 28 29  2  0  0  0  0
 28 25  1  0  0  0  0
 30 26  1  0  0  0  0
 30 24  1  0  0  0  0
 31 32  2  0  0  0  0
M  END
>  <MODEL>
9

>  <REMARK>
 VINA RESULT:     -10.3      3.112      5.968
  Name = 
  2 active torsions:
  status: ('A' for Active; 'I' for Inactive)
    1  A    between atoms: C_13  and  C_29
    2  A    between atoms: C_16  and  C_27
                            x       y       z     vdW  Elec       q    Type
                         _______ _______ _______ _____ _____    ______ ____

>  <TORSDO>
F 2

$$$$
