=
 OpenBabel10262419453D

 25 28  0  0  1  0  0  0  0  0999 V2000
  185.7670  178.2300  144.4560 N   0  0  0  0  0  0  0  0  0  0  0  0
  186.8350  177.4260  145.0480 C   0  0  1  0  0  3  0  0  0  0  0  0
  184.9420  178.9100  146.5980 C   0  0  0  0  0  3  0  0  0  0  0  0
  185.1430  177.9800  143.1650 C   0  0  1  0  0  3  0  0  0  0  0  0
  183.5900  178.3710  140.8740 C   0  0  0  0  0  2  0  0  0  0  0  0
  186.2050  178.5170  147.1640 N   0  0  0  0  0  0  0  0  0  0  0  0
  183.7710  178.5770  143.3260 C   0  0  0  0  0  0  0  0  0  0  0  0
  182.8730  178.8050  142.1560 C   0  0  0  0  0  2  0  0  0  0  0  0
  188.4310  177.5800  147.0480 C   0  0  0  0  0  0  0  0  0  0  0  0
  188.6370  177.6250  148.4560 N   0  0  0  0  0  1  0  0  0  0  0  0
  188.0850  177.4420  144.2090 C   0  0  0  0  0  3  0  0  0  0  0  0
  185.0040  178.9690  140.7900 C   0  0  0  0  0  2  0  0  0  0  0  0
  184.7550  178.7720  145.2880 C   0  0  0  0  0  0  0  0  0  0  0  0
  183.5360  179.0370  144.5510 C   0  0  0  0  0  3  0  0  0  0  0  0
  189.4570  177.3200  146.2340 C   0  0  0  0  0  3  0  0  0  0  0  0
  185.8790  178.7120  142.0380 C   0  0  0  0  0  2  0  0  0  0  0  0
  189.3040  177.3310  144.7540 C   0  0  0  0  0  0  0  0  0  0  0  0
  187.1130  177.8840  146.4700 C   0  0  0  0  0  0  0  0  0  0  0  0
  190.4060  177.2690  143.8890 O   0  0  0  0  0  0  0  0  0  0  0  0
  190.5050  176.4820  142.7320 C   0  0  0  0  0  0  0  0  0  0  0  0
  190.4480  175.2230  142.7860 O   0  0  0  0  0  0  0  0  0  0  0  0
  190.4930  176.2140  140.3900 F   0  0  0  0  0  0  0  0  0  0  0  0
  190.6020  177.1520  141.4000 C   0  0  0  0  0  0  0  0  0  0  0  0
  191.8220  177.7920  141.2970 F   0  0  0  0  0  0  0  0  0  0  0  0
  189.5860  178.0810  141.2620 F   0  0  0  0  0  0  0  0  0  0  0  0
  1  2  1  0  0  0  0
  1 13  1  0  0  0  0
  2 11  1  6  0  0  0
  2 18  1  0  0  0  0
  3  6  1  0  0  0  0
  4 16  1  6  0  0  0
  4  7  1  0  0  0  0
  4  1  1  0  0  0  0
  5  8  1  0  0  0  0
  7 14  2  0  0  0  0
  8  7  1  0  0  0  0
  9 10  1  0  0  0  0
 11 17  2  0  0  0  0
 12  5  1  0  0  0  0
 12 16  1  0  0  0  0
 13  3  2  0  0  0  0
 14 13  1  0  0  0  0
 15  9  2  0  0  0  0
 17 15  1  0  0  0  0
 18  9  1  0  0  0  0
 18  6  2  0  0  0  0
 19 17  1  0  0  0  0
 20 21  2  0  0  0  0
 20 19  1  0  0  0  0
 22 23  1  0  0  0  0
 23 20  1  0  0  0  0
 24 23  1  0  0  0  0
 25 23  1  0  0  0  0
M  END
>  <MODEL>
1

>  <REMARK>
 VINA RESULT:      -9.5      0.000      0.000
  Name = 
  3 active torsions:
  status: ('A' for Active; 'I' for Inactive)
    1  A    between atoms: O_6  and  C_15
    2  A    between atoms: O_6  and  C_23
    3  A    between atoms: C_7  and  C_15
                            x       y       z     vdW  Elec       q    Type
                         _______ _______ _______ _____ _____    ______ ____

>  <TORSDO>
F 3

$$$$
=
 OpenBabel10262419453D

 25 28  0  0  1  0  0  0  0  0999 V2000
  187.2350  177.9940  145.3720 N   0  0  0  0  0  0  0  0  0  0  0  0
  188.4120  177.2090  145.0030 C   0  0  1  0  0  3  0  0  0  0  0  0
  187.8380  178.0090  147.6890 C   0  0  0  0  0  3  0  0  0  0  0  0
  185.9680  177.9970  144.6570 C   0  0  1  0  0  3  0  0  0  0  0  0
  183.3930  178.7480  143.8710 C   0  0  0  0  0  2  0  0  0  0  0  0
  189.1760  177.6500  147.3020 N   0  0  0  0  0  0  0  0  0  0  0  0
  184.9730  178.3570  145.7260 C   0  0  0  0  0  0  0  0  0  0  0  0
  183.5730  178.7540  145.3920 C   0  0  0  0  0  2  0  0  0  0  0  0
  190.8780  177.0590  145.6890 C   0  0  0  0  0  0  0  0  0  0  0  0
  191.8650  176.7770  146.6760 N   0  0  0  0  0  1  0  0  0  0  0  0
  188.9430  177.5910  143.6460 C   0  0  0  0  0  3  0  0  0  0  0  0
  184.5210  179.5210  143.1670 C   0  0  0  0  0  2  0  0  0  0  0  0
  186.9190  178.1790  146.7420 C   0  0  0  0  0  0  0  0  0  0  0  0
  185.5120  178.4640  146.9360 C   0  0  0  0  0  3  0  0  0  0  0  0
  191.2280  177.1420  144.4030 C   0  0  0  0  0  3  0  0  0  0  0  0
  185.9450  179.0730  143.5670 C   0  0  0  0  0  2  0  0  0  0  0  0
  190.2450  177.5020  143.3460 C   0  0  0  0  0  0  0  0  0  0  0  0
  189.4840  177.3300  146.0730 C   0  0  0  0  0  0  0  0  0  0  0  0
  190.6370  177.7970  142.0320 O   0  0  0  0  0  0  0  0  0  0  0  0
  190.1200  177.2140  140.8650 C   0  0  0  0  0  0  0  0  0  0  0  0
  190.4270  176.0390  140.5260 O   0  0  0  0  0  0  0  0  0  0  0  0
  188.1670  177.1120  139.5490 F   0  0  0  0  0  0  0  0  0  0  0  0
  189.1260  177.9740  140.0490 C   0  0  0  0  0  0  0  0  0  0  0  0
  189.7740  178.5930  138.9970 F   0  0  0  0  0  0  0  0  0  0  0  0
  188.5040  178.9320  140.8300 F   0  0  0  0  0  0  0  0  0  0  0  0
  1 13  1  0  0  0  0
  2 11  1  6  0  0  0
  2  1  1  0  0  0  0
  2 18  1  0  0  0  0
  4 16  1  6  0  0  0
  4  1  1  0  0  0  0
  4  7  1  0  0  0  0
  5  8  1  0  0  0  0
  6  3  1  0  0  0  0
  7 14  2  0  0  0  0
  8  7  1  0  0  0  0
  9 18  1  0  0  0  0
  9 10  1  0  0  0  0
 12 16  1  0  0  0  0
 12  5  1  0  0  0  0
 13 14  1  0  0  0  0
 13  3  2  0  0  0  0
 15  9  2  0  0  0  0
 17 11  2  0  0  0  0
 17 15  1  0  0  0  0
 18  6  2  0  0  0  0
 19 17  1  0  0  0  0
 20 19  1  0  0  0  0
 21 20  2  0  0  0  0
 22 23  1  0  0  0  0
 23 25  1  0  0  0  0
 23 20  1  0  0  0  0
 24 23  1  0  0  0  0
M  END
>  <MODEL>
2

>  <REMARK>
 VINA RESULT:      -9.4      1.642      2.515
  Name = 
  3 active torsions:
  status: ('A' for Active; 'I' for Inactive)
    1  A    between atoms: O_6  and  C_15
    2  A    between atoms: O_6  and  C_23
    3  A    between atoms: C_7  and  C_15
                            x       y       z     vdW  Elec       q    Type
                         _______ _______ _______ _____ _____    ______ ____

>  <TORSDO>
F 3

$$$$
=
 OpenBabel10262419453D

 25 28  0  0  1  0  0  0  0  0999 V2000
  189.5300  177.3860  143.7780 N   0  0  0  0  0  0  0  0  0  0  0  0
  188.8280  177.1900  142.5110 C   0  0  1  0  0  3  0  0  0  0  0  0
  191.6790  177.2550  142.7320 C   0  0  0  0  0  3  0  0  0  0  0  0
  189.0190  177.0140  145.0890 C   0  0  1  0  0  3  0  0  0  0  0  0
  188.7970  176.8250  147.8700 C   0  0  0  0  0  2  0  0  0  0  0  0
  191.0350  177.5110  141.4710 N   0  0  0  0  0  0  0  0  0  0  0  0
  190.2710  176.7800  145.8910 C   0  0  0  0  0  0  0  0  0  0  0  0
  190.2370  176.6530  147.3780 C   0  0  0  0  0  2  0  0  0  0  0  0
  189.1080  177.8980  140.0630 C   0  0  0  0  0  0  0  0  0  0  0  0
  189.8550  177.8640  138.8510 N   0  0  0  0  0  1  0  0  0  0  0  0
  187.5360  177.9640  142.4560 C   0  0  0  0  0  3  0  0  0  0  0  0
  188.1420  178.0790  147.2650 C   0  0  0  0  0  2  0  0  0  0  0  0
  190.9350  177.2080  143.8350 C   0  0  0  0  0  0  0  0  0  0  0  0
  191.3850  176.8890  145.1740 C   0  0  0  0  0  3  0  0  0  0  0  0
  187.8410  178.3190  140.0520 C   0  0  0  0  0  3  0  0  0  0  0  0
  188.2240  178.1600  145.7240 C   0  0  0  0  0  2  0  0  0  0  0  0
  187.0450  178.4370  141.3030 C   0  0  0  0  0  0  0  0  0  0  0  0
  189.7360  177.5400  141.3450 C   0  0  0  0  0  0  0  0  0  0  0  0
  185.7940  179.0710  141.3350 O   0  0  0  0  0  0  0  0  0  0  0  0
  184.6260  178.5640  141.9230 C   0  0  0  0  0  0  0  0  0  0  0  0
  183.8960  177.7290  141.3220 O   0  0  0  0  0  0  0  0  0  0  0  0
  182.9080  179.0730  143.4560 F   0  0  0  0  0  0  0  0  0  0  0  0
  184.2800  178.9640  143.3210 C   0  0  0  0  0  0  0  0  0  0  0  0
  184.8630  180.1840  143.6050 F   0  0  0  0  0  0  0  0  0  0  0  0
  184.7460  178.0160  144.2140 F   0  0  0  0  0  0  0  0  0  0  0  0
  1 13  1  0  0  0  0
  1  4  1  0  0  0  0
  2 11  1  1  0  0  0
  2  1  1  0  0  0  0
  3 13  2  0  0  0  0
  4 16  1  1  0  0  0
  4  7  1  0  0  0  0
  6  3  1  0  0  0  0
  7  8  1  0  0  0  0
  8  5  1  0  0  0  0
  9 18  1  0  0  0  0
 10  9  1  0  0  0  0
 12  5  1  0  0  0  0
 13 14  1  0  0  0  0
 14  7  2  0  0  0  0
 15  9  2  0  0  0  0
 15 17  1  0  0  0  0
 16 12  1  0  0  0  0
 17 19  1  0  0  0  0
 17 11  2  0  0  0  0
 18  6  2  0  0  0  0
 18  2  1  0  0  0  0
 19 20  1  0  0  0  0
 20 23  1  0  0  0  0
 21 20  2  0  0  0  0
 23 22  1  0  0  0  0
 23 24  1  0  0  0  0
 23 25  1  0  0  0  0
M  END
>  <MODEL>
3

>  <REMARK>
 VINA RESULT:      -9.1      3.666      6.750
  Name = 
  3 active torsions:
  status: ('A' for Active; 'I' for Inactive)
    1  A    between atoms: O_6  and  C_15
    2  A    between atoms: O_6  and  C_23
    3  A    between atoms: C_7  and  C_15
                            x       y       z     vdW  Elec       q    Type
                         _______ _______ _______ _____ _____    ______ ____

>  <TORSDO>
F 3

$$$$
=
 OpenBabel10262419453D

 25 28  0  0  1  0  0  0  0  0999 V2000
  186.1760  178.4860  142.4600 N   0  0  0  0  0  0  0  0  0  0  0  0
  187.3520  178.7560  141.6350 C   0  0  1  0  0  3  0  0  0  0  0  0
  184.6790  178.7960  140.6180 C   0  0  0  0  0  3  0  0  0  0  0  0
  186.0800  178.7250  143.8920 C   0  0  1  0  0  3  0  0  0  0  0  0
  185.0950  178.6700  146.5080 C   0  0  0  0  0  2  0  0  0  0  0  0
  185.7980  178.6190  139.7310 N   0  0  0  0  0  0  0  0  0  0  0  0
  184.6070  178.9440  144.1050 C   0  0  0  0  0  0  0  0  0  0  0  0
  184.0030  178.9450  145.4700 C   0  0  0  0  0  2  0  0  0  0  0  0
  188.1410  178.2680  139.2450 C   0  0  0  0  0  0  0  0  0  0  0  0
  187.9830  178.4370  137.8400 N   0  0  0  0  0  1  0  0  0  0  0  0
  188.5410  177.9350  142.0610 C   0  0  0  0  0  3  0  0  0  0  0  0
  185.9410  177.4440  146.1240 C   0  0  0  0  0  2  0  0  0  0  0  0
  184.8820  178.7190  141.9310 C   0  0  0  0  0  0  0  0  0  0  0  0
  183.9040  178.9440  142.9760 C   0  0  0  0  0  3  0  0  0  0  0  0
  189.2910  177.7960  139.7340 C   0  0  0  0  0  3  0  0  0  0  0  0
  186.5240  177.4960  144.6940 C   0  0  0  0  0  2  0  0  0  0  0  0
  189.4760  177.5390  141.1870 C   0  0  0  0  0  0  0  0  0  0  0  0
  187.0270  178.5450  140.1670 C   0  0  0  0  0  0  0  0  0  0  0  0
  190.5920  176.8510  141.6870 O   0  0  0  0  0  0  0  0  0  0  0  0
  190.6230  176.0580  142.8440 C   0  0  0  0  0  0  0  0  0  0  0  0
  190.1780  174.8780  142.8440 O   0  0  0  0  0  0  0  0  0  0  0  0
  192.0550  177.6880  143.7640 F   0  0  0  0  0  0  0  0  0  0  0  0
  191.2670  176.5970  144.0800 C   0  0  0  0  0  0  0  0  0  0  0  0
  192.0550  175.6170  144.6510 F   0  0  0  0  0  0  0  0  0  0  0  0
  190.2980  176.9900  144.9860 F   0  0  0  0  0  0  0  0  0  0  0  0
  1  4  1  0  0  0  0
  2 11  1  1  0  0  0
  2  1  1  0  0  0  0
  3 13  2  0  0  0  0
  4  7  1  0  0  0  0
  4 16  1  1  0  0  0
  6 18  2  0  0  0  0
  6  3  1  0  0  0  0
  7  8  1  0  0  0  0
  8  5  1  0  0  0  0
  9 15  2  0  0  0  0
  9 18  1  0  0  0  0
 10  9  1  0  0  0  0
 12  5  1  0  0  0  0
 13  1  1  0  0  0  0
 13 14  1  0  0  0  0
 14  7  2  0  0  0  0
 15 17  1  0  0  0  0
 16 12  1  0  0  0  0
 17 19  1  0  0  0  0
 17 11  2  0  0  0  0
 18  2  1  0  0  0  0
 19 20  1  0  0  0  0
 20 21  2  0  0  0  0
 20 23  1  0  0  0  0
 22 23  1  0  0  0  0
 23 24  1  0  0  0  0
 23 25  1  0  0  0  0
M  END
>  <MODEL>
4

>  <REMARK>
 VINA RESULT:      -9.0      2.511      4.691
  Name = 
  3 active torsions:
  status: ('A' for Active; 'I' for Inactive)
    1  A    between atoms: O_6  and  C_15
    2  A    between atoms: O_6  and  C_23
    3  A    between atoms: C_7  and  C_15
                            x       y       z     vdW  Elec       q    Type
                         _______ _______ _______ _____ _____    ______ ____

>  <TORSDO>
F 3

$$$$
=
 OpenBabel10262419453D

 25 28  0  0  1  0  0  0  0  0999 V2000
  188.2080  177.6540  142.6740 N   0  0  0  0  0  0  0  0  0  0  0  0
  187.8260  177.1060  143.9740 C   0  0  1  0  0  3  0  0  0  0  0  0
  186.0810  178.7120  142.3750 C   0  0  0  0  0  3  0  0  0  0  0  0
  189.1810  177.0670  141.7660 C   0  0  1  0  0  3  0  0  0  0  0  0
  190.9310  176.7950  139.6020 C   0  0  0  0  0  2  0  0  0  0  0  0
  185.8590  178.5740  143.7900 N   0  0  0  0  0  0  0  0  0  0  0  0
  188.7280  177.5540  140.4170 C   0  0  0  0  0  0  0  0  0  0  0  0
  189.5960  177.4320  139.2080 C   0  0  0  0  0  2  0  0  0  0  0  0
  186.4630  177.8470  146.0150 C   0  0  0  0  0  0  0  0  0  0  0  0
  185.2160  178.2210  146.5900 N   0  0  0  0  0  1  0  0  0  0  0  0
  188.9900  177.0510  144.9280 C   0  0  0  0  0  3  0  0  0  0  0  0
  191.5450  177.4880  140.8300 C   0  0  0  0  0  2  0  0  0  0  0  0
  187.2250  178.2700  141.8580 C   0  0  0  0  0  0  0  0  0  0  0  0
  187.5970  178.2510  140.4580 C   0  0  0  0  0  3  0  0  0  0  0  0
  187.4860  177.5100  146.8050 C   0  0  0  0  0  3  0  0  0  0  0  0
  190.5920  177.5970  142.0430 C   0  0  0  0  0  2  0  0  0  0  0  0
  188.8260  177.1790  146.2520 C   0  0  0  0  0  0  0  0  0  0  0  0
  186.6640  177.8910  144.5580 C   0  0  0  0  0  0  0  0  0  0  0  0
  189.9550  177.0300  147.0700 O   0  0  0  0  0  0  0  0  0  0  0  0
  191.2600  176.7510  146.6350 C   0  0  0  0  0  0  0  0  0  0  0  0
  191.8570  177.5080  145.8220 O   0  0  0  0  0  0  0  0  0  0  0  0
  191.1020  174.7740  147.9090 F   0  0  0  0  0  0  0  0  0  0  0  0
  191.9830  175.5750  147.2060 C   0  0  0  0  0  0  0  0  0  0  0  0
  192.9750  176.0170  148.0600 F   0  0  0  0  0  0  0  0  0  0  0  0
  192.5540  174.8300  146.1890 F   0  0  0  0  0  0  0  0  0  0  0  0
  1  2  1  0  0  0  0
  2 18  1  0  0  0  0
  2 11  1  1  0  0  0
  3  6  1  0  0  0  0
  4 16  1  1  0  0  0
  4  1  1  0  0  0  0
  5 12  1  0  0  0  0
  6 18  2  0  0  0  0
  7 14  2  0  0  0  0
  7  4  1  0  0  0  0
  8  5  1  0  0  0  0
  8  7  1  0  0  0  0
  9 10  1  0  0  0  0
  9 15  2  0  0  0  0
 11 17  2  0  0  0  0
 12 16  1  0  0  0  0
 13  3  2  0  0  0  0
 13  1  1  0  0  0  0
 14 13  1  0  0  0  0
 17 15  1  0  0  0  0
 17 19  1  0  0  0  0
 18  9  1  0  0  0  0
 20 19  1  0  0  0  0
 20 23  1  0  0  0  0
 21 20  2  0  0  0  0
 23 22  1  0  0  0  0
 23 24  1  0  0  0  0
 25 23  1  0  0  0  0
M  END
>  <MODEL>
5

>  <REMARK>
 VINA RESULT:      -9.0      2.911      4.883
  Name = 
  3 active torsions:
  status: ('A' for Active; 'I' for Inactive)
    1  A    between atoms: O_6  and  C_15
    2  A    between atoms: O_6  and  C_23
    3  A    between atoms: C_7  and  C_15
                            x       y       z     vdW  Elec       q    Type
                         _______ _______ _______ _____ _____    ______ ____

>  <TORSDO>
F 3

$$$$
=
 OpenBabel10262419453D

 25 28  0  0  1  0  0  0  0  0999 V2000
  189.4740  177.4060  143.1560 N   0  0  0  0  0  0  0  0  0  0  0  0
  188.2630  177.3440  142.3390 C   0  0  1  0  0  3  0  0  0  0  0  0
  190.9030  177.3410  141.2370 C   0  0  0  0  0  3  0  0  0  0  0  0
  189.5930  176.9190  144.5220 C   0  0  1  0  0  3  0  0  0  0  0  0
  190.6460  176.4690  147.0730 C   0  0  0  0  0  2  0  0  0  0  0  0
  189.7730  177.7270  140.4330 N   0  0  0  0  0  0  0  0  0  0  0  0
  191.0560  176.5890  144.6420 C   0  0  0  0  0  0  0  0  0  0  0  0
  191.6930  176.3200  145.9650 C   0  0  0  0  0  2  0  0  0  0  0  0
  187.4430  178.2780  140.0970 C   0  0  0  0  0  0  0  0  0  0  0  0
  187.5550  178.3470  138.6800 N   0  0  0  0  0  1  0  0  0  0  0  0
  187.1350  178.1400  142.9410 C   0  0  0  0  0  3  0  0  0  0  0  0
  189.8620  177.7850  146.9340 C   0  0  0  0  0  2  0  0  0  0  0  0
  190.7390  177.2000  142.5500 C   0  0  0  0  0  0  0  0  0  0  0  0
  191.7280  176.7470  143.5060 C   0  0  0  0  0  3  0  0  0  0  0  0
  186.3350  178.7190  140.6990 C   0  0  0  0  0  3  0  0  0  0  0  0
  189.2400  178.0110  145.5370 C   0  0  0  0  0  2  0  0  0  0  0  0
  186.2020  178.7300  142.1810 C   0  0  0  0  0  0  0  0  0  0  0  0
  188.5620  177.7890  140.9180 C   0  0  0  0  0  0  0  0  0  0  0  0
  185.1410  179.3780  142.8300 O   0  0  0  0  0  0  0  0  0  0  0  0
  184.3320  178.8320  143.8370 C   0  0  0  0  0  0  0  0  0  0  0  0
  183.1830  178.3780  143.5840 O   0  0  0  0  0  0  0  0  0  0  0  0
  185.6170  177.5580  145.3480 F   0  0  0  0  0  0  0  0  0  0  0  0
  184.8730  178.7170  145.2250 C   0  0  0  0  0  0  0  0  0  0  0  0
  183.8250  178.6820  146.1250 F   0  0  0  0  0  0  0  0  0  0  0  0
  185.6830  179.8030  145.5100 F   0  0  0  0  0  0  0  0  0  0  0  0
  1  4  1  0  0  0  0
  2 11  1  1  0  0  0
  2  1  1  0  0  0  0
  3 13  2  0  0  0  0
  4  7  1  0  0  0  0
  4 16  1  1  0  0  0
  6 18  2  0  0  0  0
  6  3  1  0  0  0  0
  7  8  1  0  0  0  0
  8  5  1  0  0  0  0
  9 15  2  0  0  0  0
  9 18  1  0  0  0  0
 10  9  1  0  0  0  0
 12  5  1  0  0  0  0
 13  1  1  0  0  0  0
 13 14  1  0  0  0  0
 14  7  2  0  0  0  0
 15 17  1  0  0  0  0
 16 12  1  0  0  0  0
 17 19  1  0  0  0  0
 17 11  2  0  0  0  0
 18  2  1  0  0  0  0
 19 20  1  0  0  0  0
 20 23  1  0  0  0  0
 21 20  2  0  0  0  0
 23 22  1  0  0  0  0
 23 25  1  0  0  0  0
 23 24  1  0  0  0  0
M  END
>  <MODEL>
6

>  <REMARK>
 VINA RESULT:      -8.7      3.665      7.037
  Name = 
  3 active torsions:
  status: ('A' for Active; 'I' for Inactive)
    1  A    between atoms: O_6  and  C_15
    2  A    between atoms: O_6  and  C_23
    3  A    between atoms: C_7  and  C_15
                            x       y       z     vdW  Elec       q    Type
                         _______ _______ _______ _____ _____    ______ ____

>  <TORSDO>
F 3

$$$$
=
 OpenBabel10262419453D

 25 28  0  0  1  0  0  0  0  0999 V2000
  189.1760  177.5570  143.7090 N   0  0  0  0  0  0  0  0  0  0  0  0
  189.5300  176.9920  142.4080 C   0  0  1  0  0  3  0  0  0  0  0  0
  191.4700  177.7890  144.3520 C   0  0  0  0  0  3  0  0  0  0  0  0
  187.9450  177.2880  144.4370 C   0  0  1  0  0  3  0  0  0  0  0  0
  185.9210  177.5050  146.3530 C   0  0  0  0  0  2  0  0  0  0  0  0
  191.8290  177.6720  142.9640 N   0  0  0  0  0  0  0  0  0  0  0  0
  188.3410  177.5020  145.8720 C   0  0  0  0  0  0  0  0  0  0  0  0
  187.3230  177.6130  146.9580 C   0  0  0  0  0  2  0  0  0  0  0  0
  191.3340  177.3410  140.6200 C   0  0  0  0  0  0  0  0  0  0  0  0
  192.7030  177.2940  140.2300 N   0  0  0  0  0  1  0  0  0  0  0  0
  188.5610  177.4060  141.3320 C   0  0  0  0  0  3  0  0  0  0  0  0
  185.7540  178.4440  145.1460 C   0  0  0  0  0  2  0  0  0  0  0  0
  190.1840  177.7410  144.6900 C   0  0  0  0  0  0  0  0  0  0  0  0
  189.6350  177.7630  146.0300 C   0  0  0  0  0  3  0  0  0  0  0  0
  190.3790  177.4300  139.6910 C   0  0  0  0  0  3  0  0  0  0  0  0
  186.8480  178.2920  144.0650 C   0  0  0  0  0  2  0  0  0  0  0  0
  188.9420  177.5510  140.0550 C   0  0  0  0  0  0  0  0  0  0  0  0
  190.9580  177.3600  142.0430 C   0  0  0  0  0  0  0  0  0  0  0  0
  187.9550  177.8550  139.1070 O   0  0  0  0  0  0  0  0  0  0  0  0
  188.0270  177.6020  137.7280 C   0  0  0  0  0  0  0  0  0  0  0  0
  187.7050  176.4810  137.2490 O   0  0  0  0  0  0  0  0  0  0  0  0
  187.2940  179.3300  136.3030 F   0  0  0  0  0  0  0  0  0  0  0  0
  188.4230  178.7070  136.8040 C   0  0  0  0  0  0  0  0  0  0  0  0
  189.1570  178.1870  135.7550 F   0  0  0  0  0  0  0  0  0  0  0  0
  189.1880  179.6400  137.4800 F   0  0  0  0  0  0  0  0  0  0  0  0
  1  4  1  0  0  0  0
  1 13  1  0  0  0  0
  2 11  1  6  0  0  0
  2  1  1  0  0  0  0
  3 13  2  0  0  0  0
  4 16  1  6  0  0  0
  4  7  1  0  0  0  0
  5  8  1  0  0  0  0
  6  3  1  0  0  0  0
  7 14  2  0  0  0  0
  7  8  1  0  0  0  0
  9 18  1  0  0  0  0
 10  9  1  0  0  0  0
 12  5  1  0  0  0  0
 13 14  1  0  0  0  0
 15 17  1  0  0  0  0
 15  9  2  0  0  0  0
 16 12  1  0  0  0  0
 17 11  2  0  0  0  0
 18  2  1  0  0  0  0
 18  6  2  0  0  0  0
 19 17  1  0  0  0  0
 20 19  1  0  0  0  0
 21 20  2  0  0  0  0
 22 23  1  0  0  0  0
 23 25  1  0  0  0  0
 23 20  1  0  0  0  0
 24 23  1  0  0  0  0
M  END
>  <MODEL>
7

>  <REMARK>
 VINA RESULT:      -8.6      3.667      5.679
  Name = 
  3 active torsions:
  status: ('A' for Active; 'I' for Inactive)
    1  A    between atoms: O_6  and  C_15
    2  A    between atoms: O_6  and  C_23
    3  A    between atoms: C_7  and  C_15
                            x       y       z     vdW  Elec       q    Type
                         _______ _______ _______ _____ _____    ______ ____

>  <TORSDO>
F 3

$$$$
=
 OpenBabel10262419453D

 25 28  0  0  1  0  0  0  0  0999 V2000
  187.5750  177.8770  144.0930 N   0  0  0  0  0  0  0  0  0  0  0  0
  188.2200  177.2770  142.9270 C   0  0  1  0  0  3  0  0  0  0  0  0
  189.4740  177.4640  145.4910 C   0  0  0  0  0  3  0  0  0  0  0  0
  186.1400  177.9300  144.3270 C   0  0  1  0  0  3  0  0  0  0  0  0
  183.6840  178.6280  145.4660 C   0  0  0  0  0  2  0  0  0  0  0  0
  190.2630  177.2940  144.3000 N   0  0  0  0  0  0  0  0  0  0  0  0
  186.0390  177.9870  145.8270 C   0  0  0  0  0  0  0  0  0  0  0  0
  184.7610  178.3360  146.5150 C   0  0  0  0  0  2  0  0  0  0  0  0
  190.5690  177.1780  141.9040 C   0  0  0  0  0  0  0  0  0  0  0  0
  191.9320  176.7760  141.9920 N   0  0  0  0  0  1  0  0  0  0  0  0
  187.8280  177.9670  141.6470 C   0  0  0  0  0  3  0  0  0  0  0  0
  184.1900  179.6120  144.3980 C   0  0  0  0  0  2  0  0  0  0  0  0
  188.1810  177.7540  145.3690 C   0  0  0  0  0  0  0  0  0  0  0  0
  187.2150  177.8840  146.4400 C   0  0  0  0  0  3  0  0  0  0  0  0
  190.0580  177.5480  140.7260 C   0  0  0  0  0  3  0  0  0  0  0  0
  185.5240  179.2020  143.7350 C   0  0  0  0  0  2  0  0  0  0  0  0
  188.6610  178.0410  140.6000 C   0  0  0  0  0  0  0  0  0  0  0  0
  189.7280  177.2570  143.1090 C   0  0  0  0  0  0  0  0  0  0  0  0
  188.1800  178.6280  139.4200 O   0  0  0  0  0  0  0  0  0  0  0  0
  188.0940  178.0070  138.1650 C   0  0  0  0  0  0  0  0  0  0  0  0
  187.1880  177.1700  137.9060 O   0  0  0  0  0  0  0  0  0  0  0  0
  188.4630  178.2390  135.8480 F   0  0  0  0  0  0  0  0  0  0  0  0
  189.0520  178.4040  137.0890 C   0  0  0  0  0  0  0  0  0  0  0  0
  190.1810  177.6100  137.1640 F   0  0  0  0  0  0  0  0  0  0  0  0
  189.4140  179.7300  137.2410 F   0  0  0  0  0  0  0  0  0  0  0  0
  1  4  1  0  0  0  0
  1 13  1  0  0  0  0
  2 11  1  6  0  0  0
  2 18  1  0  0  0  0
  2  1  1  0  0  0  0
  4 16  1  6  0  0  0
  4  7  1  0  0  0  0
  5  8  1  0  0  0  0
  6  3  1  0  0  0  0
  7 14  2  0  0  0  0
  7  8  1  0  0  0  0
  9 10  1  0  0  0  0
  9 18  1  0  0  0  0
 12  5  1  0  0  0  0
 13  3  2  0  0  0  0
 13 14  1  0  0  0  0
 15  9  2  0  0  0  0
 16 12  1  0  0  0  0
 17 15  1  0  0  0  0
 17 11  2  0  0  0  0
 18  6  2  0  0  0  0
 19 17  1  0  0  0  0
 20 19  1  0  0  0  0
 21 20  2  0  0  0  0
 22 23  1  0  0  0  0
 23 24  1  0  0  0  0
 23 25  1  0  0  0  0
 23 20  1  0  0  0  0
M  END
>  <MODEL>
8

>  <REMARK>
 VINA RESULT:      -8.6      3.211      4.515
  Name = 
  3 active torsions:
  status: ('A' for Active; 'I' for Inactive)
    1  A    between atoms: O_6  and  C_15
    2  A    between atoms: O_6  and  C_23
    3  A    between atoms: C_7  and  C_15
                            x       y       z     vdW  Elec       q    Type
                         _______ _______ _______ _____ _____    ______ ____

>  <TORSDO>
F 3

$$$$
=
 OpenBabel10262419453D

 25 28  0  0  1  0  0  0  0  0999 V2000
  187.6630  177.6940  144.7270 N   0  0  0  0  0  0  0  0  0  0  0  0
  186.5900  178.5300  144.1910 C   0  0  1  0  0  3  0  0  0  0  0  0
  186.8360  177.8800  146.9650 C   0  0  0  0  0  3  0  0  0  0  0  0
  188.9910  177.5540  144.1480 C   0  0  1  0  0  3  0  0  0  0  0  0
  191.5670  176.5760  143.6800 C   0  0  0  0  0  2  0  0  0  0  0  0
  185.5730  178.3020  146.4210 N   0  0  0  0  0  0  0  0  0  0  0  0
  189.8460  177.2020  145.3340 C   0  0  0  0  0  0  0  0  0  0  0  0
  191.2380  176.6870  145.1710 C   0  0  0  0  0  2  0  0  0  0  0  0
  184.0870  178.8950  144.6080 C   0  0  0  0  0  0  0  0  0  0  0  0
  183.0330  179.3120  145.4690 N   0  0  0  0  0  1  0  0  0  0  0  0
  186.1690  178.0920  142.8120 C   0  0  0  0  0  3  0  0  0  0  0  0
  190.4590  175.8350  142.9120 C   0  0  0  0  0  2  0  0  0  0  0  0
  187.8280  177.5820  146.1310 C   0  0  0  0  0  0  0  0  0  0  0  0
  189.1840  177.2160  146.4870 C   0  0  0  0  0  3  0  0  0  0  0  0
  183.8600  178.7480  143.3000 C   0  0  0  0  0  3  0  0  0  0  0  0
  189.0400  176.4060  143.1350 C   0  0  0  0  0  2  0  0  0  0  0  0
  184.9120  178.2490  142.3750 C   0  0  0  0  0  0  0  0  0  0  0  0
  185.4130  178.5570  145.1500 C   0  0  0  0  0  0  0  0  0  0  0  0
  184.6310  177.8910  141.0480 O   0  0  0  0  0  0  0  0  0  0  0  0
  184.7590  178.7210  139.9240 C   0  0  0  0  0  0  0  0  0  0  0  0
  185.8850  178.9700  139.4150 O   0  0  0  0  0  0  0  0  0  0  0  0
  182.5090  179.3680  140.2010 F   0  0  0  0  0  0  0  0  0  0  0  0
  183.5270  179.2600  139.2720 C   0  0  0  0  0  0  0  0  0  0  0  0
  183.1310  178.4030  138.2620 F   0  0  0  0  0  0  0  0  0  0  0  0
  183.7810  180.5100  138.7370 F   0  0  0  0  0  0  0  0  0  0  0  0
  1 13  1  0  0  0  0
  2 11  1  6  0  0  0
  2  1  1  0  0  0  0
  2 18  1  0  0  0  0
  4 16  1  6  0  0  0
  4  1  1  0  0  0  0
  4  7  1  0  0  0  0
  5  8  1  0  0  0  0
  6  3  1  0  0  0  0
  7 14  2  0  0  0  0
  8  7  1  0  0  0  0
  9 18  1  0  0  0  0
  9 10  1  0  0  0  0
 12 16  1  0  0  0  0
 12  5  1  0  0  0  0
 13 14  1  0  0  0  0
 13  3  2  0  0  0  0
 15  9  2  0  0  0  0
 17 11  2  0  0  0  0
 17 15  1  0  0  0  0
 18  6  2  0  0  0  0
 19 17  1  0  0  0  0
 20 19  1  0  0  0  0
 21 20  2  0  0  0  0
 23 20  1  0  0  0  0
 23 22  1  0  0  0  0
 24 23  1  0  0  0  0
 25 23  1  0  0  0  0
M  END
>  <MODEL>
9

>  <REMARK>
 VINA RESULT:      -8.4      3.537      5.954
  Name = 
  3 active torsions:
  status: ('A' for Active; 'I' for Inactive)
    1  A    between atoms: O_6  and  C_15
    2  A    between atoms: O_6  and  C_23
    3  A    between atoms: C_7  and  C_15
                            x       y       z     vdW  Elec       q    Type
                         _______ _______ _______ _____ _____    ______ ____

>  <TORSDO>
F 3

$$$$
