=
 OpenBabel10262421593D

 30 34  0  0  1  0  0  0  0  0999 V2000
  187.9060  177.5340  145.1830 C   0  0  0  0  0  0  0  0  0  0  0  0
  188.0250  177.9440  147.7090 C   0  0  0  0  0  3  0  0  0  0  0  0
  191.4540  176.2030  143.6860 C   0  0  0  0  0  2  0  0  0  0  0  0
  187.1170  177.5980  143.9970 C   0  0  0  0  0  0  0  0  0  0  0  0
  185.7900  178.1220  144.0510 C   0  0  0  0  0  0  0  0  0  0  0  0
  183.6190  178.7620  143.1070 C   0  0  0  0  0  3  0  0  0  0  0  0
  188.3010  178.8850  141.0090 C   0  0  0  0  0  2  0  0  0  0  0  0
  184.8940  178.2130  142.9370 C   0  0  0  0  0  0  0  0  0  0  0  0
  185.3240  178.5830  145.3080 C   0  0  0  0  0  0  0  0  0  0  0  0
  190.0920  177.2430  141.8380 C   0  0  2  0  0  3  0  0  0  0  0  0
  191.1760  177.4820  142.9030 C   0  0  2  0  0  3  0  0  0  0  0  0
  186.1070  178.4990  146.4080 N   0  0  0  0  0  0  0  0  0  0  0  0
  185.1870  177.7840  141.7160 C   0  0  0  0  0  1  0  0  0  0  0  0
  189.2580  177.5830  148.0460 C   0  0  0  0  0  2  0  0  0  0  0  0
  190.5850  177.4650  140.3980 C   0  0  0  0  0  2  0  0  0  0  0  0
  189.1700  175.9240  139.2300 O   0  0  0  0  0  1  0  0  0  0  0  0
  184.0450  179.1260  145.4460 C   0  0  0  0  0  3  0  0  0  0  0  0
  187.3640  177.9950  146.3970 C   0  0  0  0  0  0  0  0  0  0  0  0
  191.6080  176.4940  145.1870 C   0  0  0  0  0  2  0  0  0  0  0  0
  191.5790  176.9230  147.8850 O   0  0  0  0  0  1  0  0  0  0  0  0
  183.1950  179.2170  144.3510 C   0  0  0  0  0  3  0  0  0  0  0  0
  189.1440  177.0630  145.0460 C   0  0  0  0  0  3  0  0  0  0  0  0
  187.7210  177.1060  142.6900 C   0  0  0  0  0  2  0  0  0  0  0  0
  192.3660  177.9830  142.3680 O   0  0  0  0  0  1  0  0  0  0  0  0
  188.8160  178.0440  142.1790 C   0  0  2  0  0  3  0  0  0  0  0  0
  189.4580  177.2810  139.3800 C   0  0  1  0  0  3  0  0  0  0  0  0
  187.7940  178.8540  138.6710 O   0  0  0  0  0  1  0  0  0  0  0  0
  190.3760  177.1280  147.2140 C   0  0  0  0  0  0  0  0  0  0  0  0
  190.3290  176.8990  145.8950 C   0  0  0  0  0  0  0  0  0  0  0  0
  188.1730  178.0410  139.7390 C   0  0  2  0  0  3  0  0  0  0  0  0
  1 18  1  0  0  0  0
  2 14  1  0  0  0  0
  3 19  1  0  0  0  0
  4  5  2  0  0  0  0
  4  1  1  0  0  0  0
  5  9  1  0  0  0  0
  6 21  1  0  0  0  0
  8  6  2  0  0  0  0
  8  5  1  0  0  0  0
  9 17  1  0  0  0  0
  9 12  2  0  0  0  0
 10 15  1  6  0  0  0
 10 25  1  0  0  0  0
 10 11  1  0  0  0  0
 11 24  1  6  0  0  0
 11  3  1  0  0  0  0
 13  8  1  0  0  0  0
 18 12  1  0  0  0  0
 18  2  2  0  0  0  0
 19 29  1  0  0  0  0
 21 17  2  0  0  0  0
 22  1  2  0  0  0  0
 22 29  1  0  0  0  0
 23  4  1  0  0  0  0
 25  7  1  6  0  0  0
 25 23  1  0  0  0  0
 26 16  1  1  0  0  0
 26 30  1  0  0  0  0
 26 15  1  0  0  0  0
 28 20  1  0  0  0  0
 28 14  1  0  0  0  0
 29 28  2  0  0  0  0
 30 27  1  6  0  0  0
 30  7  1  0  0  0  0
M  END
>  <MODEL>
1

>  <REMARK>
 VINA RESULT:     -13.0      0.000      0.000
  Name = 
  0 active torsions:
  status: ('A' for Active; 'I' for Inactive)
                            x       y       z     vdW  Elec       q    Type
                         _______ _______ _______ _____ _____    ______ ____

>  <TORSDO>
F 0

$$$$
=
 OpenBabel10262421593D

 30 34  0  0  1  0  0  0  0  0999 V2000
  186.9100  177.9900  145.3140 C   0  0  0  0  0  0  0  0  0  0  0  0
  186.4390  178.6160  147.7520 C   0  0  0  0  0  3  0  0  0  0  0  0
  190.7800  176.8430  144.7550 C   0  0  0  0  0  2  0  0  0  0  0  0
  186.4020  177.8890  143.9850 C   0  0  0  0  0  0  0  0  0  0  0  0
  185.0650  178.3020  143.7000 C   0  0  0  0  0  0  0  0  0  0  0  0
  183.1220  178.6750  142.2520 C   0  0  0  0  0  3  0  0  0  0  0  0
  188.1340  179.0180  141.2090 C   0  0  0  0  0  2  0  0  0  0  0  0
  184.4350  178.2240  142.4160 C   0  0  0  0  0  0  0  0  0  0  0  0
  184.3030  178.8240  144.7750 C   0  0  0  0  0  0  0  0  0  0  0  0
  189.7980  177.6070  142.5620 C   0  0  2  0  0  3  0  0  0  0  0  0
  190.6010  178.0250  143.8060 C   0  0  2  0  0  3  0  0  0  0  0  0
  184.8260  178.8980  146.0210 N   0  0  0  0  0  0  0  0  0  0  0  0
  185.0190  177.7220  141.3350 C   0  0  0  0  0  1  0  0  0  0  0  0
  187.5870  178.3890  148.3810 C   0  0  0  0  0  2  0  0  0  0  0  0
  190.5840  177.7500  141.2480 C   0  0  0  0  0  2  0  0  0  0  0  0
  189.5650  176.0040  139.9620 O   0  0  0  0  0  1  0  0  0  0  0  0
  182.9940  179.2670  144.5800 C   0  0  0  0  0  3  0  0  0  0  0  0
  186.0840  178.5030  146.3310 C   0  0  0  0  0  0  0  0  0  0  0  0
  190.5780  177.2690  146.2160 C   0  0  0  0  0  2  0  0  0  0  0  0
  189.9230  177.9160  148.7890 O   0  0  0  0  0  1  0  0  0  0  0  0
  182.4040  179.1950  143.3240 C   0  0  0  0  0  3  0  0  0  0  0  0
  188.1750  177.6150  145.4930 C   0  0  0  0  0  3  0  0  0  0  0  0
  187.3100  177.3420  142.8940 C   0  0  0  0  0  2  0  0  0  0  0  0
  191.8450  178.5780  143.4930 O   0  0  0  0  0  1  0  0  0  0  0  0
  188.4300  178.3240  142.5400 C   0  0  2  0  0  3  0  0  0  0  0  0
  189.7250  177.3880  140.0340 C   0  0  1  0  0  3  0  0  0  0  0  0
  188.1620  178.7510  138.8320 O   0  0  0  0  0  1  0  0  0  0  0  0
  188.8890  177.9630  147.8580 C   0  0  0  0  0  0  0  0  0  0  0  0
  189.1500  177.6220  146.5890 C   0  0  0  0  0  0  0  0  0  0  0  0
  188.3460  178.0640  140.0320 C   0  0  2  0  0  3  0  0  0  0  0  0
  1 22  2  0  0  0  0
  1 18  1  0  0  0  0
  2 14  1  0  0  0  0
  3 19  1  0  0  0  0
  4  1  1  0  0  0  0
  5  4  2  0  0  0  0
  5  9  1  0  0  0  0
  6  8  2  0  0  0  0
  6 21  1  0  0  0  0
  8  5  1  0  0  0  0
  9 12  2  0  0  0  0
 10 15  1  6  0  0  0
 10 11  1  0  0  0  0
 11 24  1  6  0  0  0
 11  3  1  0  0  0  0
 12 18  1  0  0  0  0
 13  8  1  0  0  0  0
 17  9  1  0  0  0  0
 18  2  2  0  0  0  0
 19 29  1  0  0  0  0
 21 17  2  0  0  0  0
 22 29  1  0  0  0  0
 23  4  1  0  0  0  0
 25  7  1  6  0  0  0
 25 10  1  0  0  0  0
 25 23  1  0  0  0  0
 26 16  1  1  0  0  0
 26 15  1  0  0  0  0
 28 14  1  0  0  0  0
 28 20  1  0  0  0  0
 29 28  2  0  0  0  0
 30 27  1  6  0  0  0
 30 26  1  0  0  0  0
 30  7  1  0  0  0  0
M  END
>  <MODEL>
2

>  <REMARK>
 VINA RESULT:     -12.1      0.987      1.197
  Name = 
  0 active torsions:
  status: ('A' for Active; 'I' for Inactive)
                            x       y       z     vdW  Elec       q    Type
                         _______ _______ _______ _____ _____    ______ ____

>  <TORSDO>
F 0

$$$$
=
 OpenBabel10262421593D

 30 34  0  0  1  0  0  0  0  0999 V2000
  186.4570  178.0180  142.5020 C   0  0  0  0  0  0  0  0  0  0  0  0
  184.8620  179.0550  140.7870 C   0  0  0  0  0  3  0  0  0  0  0  0
  184.8550  177.9850  146.2490 C   0  0  0  0  0  2  0  0  0  0  0  0
  187.7390  177.4450  142.7500 C   0  0  0  0  0  0  0  0  0  0  0  0
  188.6950  177.3540  141.6930 C   0  0  0  0  0  0  0  0  0  0  0  0
  190.8600  176.7580  140.7070 C   0  0  0  0  0  3  0  0  0  0  0  0
  189.7100  178.3220  145.4570 C   0  0  0  0  0  2  0  0  0  0  0  0
  190.0010  176.7770  141.8100 C   0  0  0  0  0  0  0  0  0  0  0  0
  188.3170  177.8720  140.4290 C   0  0  0  0  0  0  0  0  0  0  0  0
  187.3680  177.8540  146.4010 C   0  0  2  0  0  3  0  0  0  0  0  0
  186.1440  178.7870  146.4020 C   0  0  2  0  0  3  0  0  0  0  0  0
  187.0880  178.4040  140.2400 N   0  0  0  0  0  0  0  0  0  0  0  0
  190.4670  176.2230  142.9230 C   0  0  0  0  0  1  0  0  0  0  0  0
  183.7690  179.3450  141.4850 C   0  0  0  0  0  2  0  0  0  0  0  0
  188.1750  177.8980  147.7100 C   0  0  0  0  0  2  0  0  0  0  0  0
  189.0460  175.6660  147.7370 O   0  0  0  0  0  1  0  0  0  0  0  0
  189.1970  177.8380  139.3450 C   0  0  0  0  0  3  0  0  0  0  0  0
  186.1510  178.4930  141.2140 C   0  0  0  0  0  0  0  0  0  0  0  0
  183.8830  178.6770  145.2820 C   0  0  0  0  0  2  0  0  0  0  0  0
  182.2620  179.7110  143.3410 O   0  0  0  0  0  1  0  0  0  0  0  0
  190.4650  177.2860  139.4830 C   0  0  0  0  0  3  0  0  0  0  0  0
  185.6330  178.0960  143.5460 C   0  0  0  0  0  3  0  0  0  0  0  0
  188.0590  176.9450  144.1500 C   0  0  0  0  0  2  0  0  0  0  0  0
  186.0730  179.5930  147.5410 O   0  0  0  0  0  1  0  0  0  0  0  0
  188.2290  178.0980  145.1420 C   0  0  2  0  0  3  0  0  0  0  0  0
  189.4170  177.0070  147.6380 C   0  0  1  0  0  3  0  0  0  0  0  0
  191.5730  177.4970  146.7120 O   0  0  0  0  0  1  0  0  0  0  0  0
  183.4930  179.2140  142.9180 C   0  0  0  0  0  0  0  0  0  0  0  0
  184.3110  178.6660  143.8270 C   0  0  0  0  0  0  0  0  0  0  0  0
  190.2510  177.2160  146.3660 C   0  0  2  0  0  3  0  0  0  0  0  0
  1  4  1  0  0  0  0
  1 22  2  0  0  0  0
  2 18  2  0  0  0  0
  2 14  1  0  0  0  0
  3 11  1  0  0  0  0
  4 23  1  0  0  0  0
  5  8  1  0  0  0  0
  5  4  2  0  0  0  0
  6  8  2  0  0  0  0
  7 30  1  0  0  0  0
  8 13  1  0  0  0  0
  9  5  1  0  0  0  0
 10 11  1  0  0  0  0
 10 15  1  1  0  0  0
 11 24  1  1  0  0  0
 12  9  2  0  0  0  0
 12 18  1  0  0  0  0
 14 28  1  0  0  0  0
 17 21  2  0  0  0  0
 17  9  1  0  0  0  0
 18  1  1  0  0  0  0
 19  3  1  0  0  0  0
 21  6  1  0  0  0  0
 22 29  1  0  0  0  0
 25 23  1  6  0  0  0
 25  7  1  0  0  0  0
 25 10  1  0  0  0  0
 26 15  1  0  0  0  0
 26 16  1  6  0  0  0
 28 20  1  0  0  0  0
 28 29  2  0  0  0  0
 29 19  1  0  0  0  0
 30 27  1  1  0  0  0
 30 26  1  0  0  0  0
M  END
>  <MODEL>
3

>  <REMARK>
 VINA RESULT:     -11.7      2.589      6.817
  Name = 
  0 active torsions:
  status: ('A' for Active; 'I' for Inactive)
                            x       y       z     vdW  Elec       q    Type
                         _______ _______ _______ _____ _____    ______ ____

>  <TORSDO>
F 0

$$$$
=
 OpenBabel10262421593D

 30 34  0  0  1  0  0  0  0  0999 V2000
  185.7630  178.4960  140.5430 C   0  0  0  0  0  0  0  0  0  0  0  0
  184.2670  178.2570  138.4780 C   0  0  0  0  0  3  0  0  0  0  0  0
  189.7150  178.1440  139.6130 C   0  0  0  0  0  2  0  0  0  0  0  0
  185.8320  178.6750  141.9570 C   0  0  0  0  0  0  0  0  0  0  0  0
  184.6310  178.7460  142.7250 C   0  0  0  0  0  0  0  0  0  0  0  0
  183.3310  178.9850  144.7910 C   0  0  0  0  0  3  0  0  0  0  0  0
  187.9080  176.8040  143.9990 C   0  0  0  0  0  2  0  0  0  0  0  0
  184.5690  178.9490  144.1410 C   0  0  0  0  0  0  0  0  0  0  0  0
  183.4040  178.6080  142.0270 C   0  0  0  0  0  0  0  0  0  0  0  0
  189.3700  177.6240  142.0550 C   0  0  2  0  0  3  0  0  0  0  0  0
  189.4740  177.0380  140.6350 C   0  0  2  0  0  3  0  0  0  0  0  0
  183.3870  178.4440  140.6850 N   0  0  0  0  0  0  0  0  0  0  0  0
  185.6360  179.1310  144.9090 C   0  0  0  0  0  1  0  0  0  0  0  0
  185.1170  178.1040  137.4680 C   0  0  0  0  0  3  0  0  0  0  0  0
  190.4640  177.1150  143.0090 C   0  0  0  0  0  2  0  0  0  0  0  0
  190.6650  179.0120  144.4600 O   0  0  0  0  0  1  0  0  0  0  0  0
  182.1830  178.6490  142.7040 C   0  0  0  0  0  3  0  0  0  0  0  0
  184.5050  178.3860  139.9220 C   0  0  2  0  0  3  0  0  0  0  0  0
  188.8690  177.9250  138.3490 C   0  0  0  0  0  2  0  0  0  0  0  0
  187.1600  177.7420  136.2250 O   0  0  0  0  0  1  0  0  0  0  0  0
  182.1450  178.8340  144.0810 C   0  0  0  0  0  3  0  0  0  0  0  0
  186.9270  178.4070  139.9010 C   0  0  0  0  0  3  0  0  0  0  0  0
  187.1990  178.7810  142.6150 C   0  0  0  0  0  2  0  0  0  0  0  0
  190.4610  176.0570  140.5200 O   0  0  0  0  0  1  0  0  0  0  0  0
  187.9400  177.4420  142.6090 C   0  0  2  0  0  3  0  0  0  0  0  0
  190.2820  177.6710  144.4230 C   0  0  1  0  0  3  0  0  0  0  0  0
  188.8710  176.8710  146.1880 O   0  0  0  0  0  1  0  0  0  0  0  0
  186.5800  178.0000  137.4650 C   0  0  0  0  0  0  0  0  0  0  0  0
  187.3770  178.1320  138.5330 C   0  0  0  0  0  0  0  0  0  0  0  0
  188.8500  177.5320  144.9600 C   0  0  2  0  0  3  0  0  0  0  0  0
  1  4  1  0  0  0  0
  3 11  1  0  0  0  0
  4 23  1  0  0  0  0
  4  5  2  0  0  0  0
  5  8  1  0  0  0  0
  7 30  1  0  0  0  0
  8  6  2  0  0  0  0
  8 13  1  0  0  0  0
  9 17  1  0  0  0  0
  9  5  1  0  0  0  0
 10 25  1  0  0  0  0
 10 15  1  1  0  0  0
 11 24  1  1  0  0  0
 11 10  1  0  0  0  0
 12  9  2  0  0  0  0
 14  2  2  0  0  0  0
 15 26  1  0  0  0  0
 17 21  2  0  0  0  0
 18  2  1  6  0  0  0
 18  1  1  0  0  0  0
 18 12  1  0  0  0  0
 19 29  1  0  0  0  0
 19  3  1  0  0  0  0
 20 28  1  0  0  0  0
 21  6  1  0  0  0  0
 22  1  2  0  0  0  0
 25 23  1  1  0  0  0
 25  7  1  0  0  0  0
 26 16  1  6  0  0  0
 26 30  1  0  0  0  0
 28 14  1  0  0  0  0
 28 29  2  0  0  0  0
 29 22  1  0  0  0  0
 30 27  1  1  0  0  0
M  END
>  <MODEL>
4

>  <REMARK>
 VINA RESULT:     -10.3      2.121      5.899
  Name = 
  0 active torsions:
  status: ('A' for Active; 'I' for Inactive)
                            x       y       z     vdW  Elec       q    Type
                         _______ _______ _______ _____ _____    ______ ____

>  <TORSDO>
F 0

$$$$
