=
 OpenBabel10262419443D

 25 27  0  0  1  0  0  0  0  0999 V2000
  188.9080  177.5420  145.2160 C   0  0  0  0  0  0  0  0  0  0  0  0
  187.5280  177.8540  145.1430 C   0  0  0  0  0  0  0  0  0  0  0  0
  188.7840  177.6310  147.6450 C   0  0  0  0  0  3  0  0  0  0  0  0
  187.4260  177.9380  147.5780 C   0  0  0  0  0  3  0  0  0  0  0  0
  185.4150  178.3490  146.2730 C   0  0  0  0  0  0  0  0  0  0  0  0
  184.6730  178.5480  147.4320 O   0  0  0  0  0  1  0  0  0  0  0  0
  186.8640  177.9460  143.9110 C   0  0  0  0  0  3  0  0  0  0  0  0
  189.5170  177.4350  146.4750 C   0  0  0  0  0  3  0  0  0  0  0  0
  184.7800  178.4440  145.0330 C   0  0  0  0  0  3  0  0  0  0  0  0
  185.5020  178.2470  143.8530 C   0  0  0  0  0  0  0  0  0  0  0  0
  186.7870  178.0500  146.3390 C   0  0  0  0  0  0  0  0  0  0  0  0
  189.7450  177.3500  144.0050 C   0  0  0  0  0  0  0  0  0  0  0  0
  191.2660  176.9820  141.7020 C   0  0  0  0  0  3  0  0  0  0  0  0
  190.6320  178.3460  143.5440 C   0  0  0  0  0  0  0  0  0  0  0  0
  191.3630  178.1340  142.4160 N   0  0  0  0  0  0  0  0  0  0  0  0
  190.4010  175.9720  142.1190 C   0  0  0  0  0  3  0  0  0  0  0  0
  190.8010  179.5650  144.2610 N   0  0  0  0  0  1  0  0  0  0  0  0
  189.6400  176.1610  143.2720 C   0  0  0  0  0  3  0  0  0  0  0  0
  184.8120  178.3260  142.5360 C   0  0  0  0  0  2  0  0  0  0  0  0
  185.5790  179.2440  141.6000 C   0  0  0  0  0  2  0  0  0  0  0  0
  185.3960  178.7980  140.1590 C   0  0  1  0  0  3  0  0  0  0  0  0
  184.7320  179.7940  139.4360 O   0  0  0  0  0  1  0  0  0  0  0  0
  186.7310  178.4850  139.5460 C   0  0  0  0  0  0  0  0  0  0  0  0
  187.9530  178.3090  140.3860 C   0  0  0  0  0  1  0  0  0  0  0  0
  186.8250  178.3850  138.3340 O   0  0  0  0  0  0  0  0  0  0  0  0
  1  8  1  0  0  0  0
  2  1  2  0  0  0  0
  2 11  1  0  0  0  0
  4  3  1  0  0  0  0
  5 11  1  0  0  0  0
  5  6  1  0  0  0  0
  7  2  1  0  0  0  0
  8  3  2  0  0  0  0
  9  5  2  0  0  0  0
 10  7  2  0  0  0  0
 10  9  1  0  0  0  0
 11  4  2  0  0  0  0
 12  1  1  0  0  0  0
 13 16  2  0  0  0  0
 13 15  1  0  0  0  0
 14 12  1  0  0  0  0
 14 17  1  0  0  0  0
 15 14  2  0  0  0  0
 16 18  1  0  0  0  0
 18 12  2  0  0  0  0
 19 10  1  0  0  0  0
 20 19  1  0  0  0  0
 21 22  1  6  0  0  0
 21 20  1  0  0  0  0
 23 21  1  0  0  0  0
 23 24  1  0  0  0  0
 25 23  2  0  0  0  0
M  END
>  <MODEL>
1

>  <REMARK>
 VINA RESULT:      -9.3      0.000      0.000
  Name = 
  5 active torsions:
  status: ('A' for Active; 'I' for Inactive)
    1  A    between atoms: C_1  and  C_5
    2  A    between atoms: C_2  and  C_21
    3  A    between atoms: C_6  and  C_15
    4  A    between atoms: C_6  and  C_23
    5  A    between atoms: C_15  and  C_21
                            x       y       z     vdW  Elec       q    Type
                         _______ _______ _______ _____ _____    ______ ____

>  <TORSDO>
F 5

$$$$
=
 OpenBabel10262419443D

 25 27  0  0  1  0  0  0  0  0999 V2000
  186.9540  177.7480  143.1380 C   0  0  0  0  0  0  0  0  0  0  0  0
  186.8690  177.8960  144.5450 C   0  0  0  0  0  0  0  0  0  0  0  0
  184.5810  178.2630  142.9570 C   0  0  0  0  0  3  0  0  0  0  0  0
  184.4940  178.4090  144.3400 C   0  0  0  0  0  3  0  0  0  0  0  0
  185.5370  178.3910  146.5370 C   0  0  0  0  0  0  0  0  0  0  0  0
  184.3280  178.7150  147.1420 O   0  0  0  0  0  1  0  0  0  0  0  0
  187.9980  177.7460  145.3640 C   0  0  0  0  0  3  0  0  0  0  0  0
  185.8000  177.9360  142.3630 C   0  0  0  0  0  3  0  0  0  0  0  0
  186.6750  178.2270  147.3310 C   0  0  0  0  0  3  0  0  0  0  0  0
  187.9020  177.9020  146.7480 C   0  0  0  0  0  0  0  0  0  0  0  0
  185.6250  178.2320  145.1430 C   0  0  0  0  0  0  0  0  0  0  0  0
  188.2150  177.3740  142.4520 C   0  0  0  0  0  0  0  0  0  0  0  0
  190.5600  176.6150  141.1550 C   0  0  0  0  0  3  0  0  0  0  0  0
  188.6700  178.0510  141.3010 C   0  0  0  0  0  0  0  0  0  0  0  0
  189.8220  177.6580  140.6920 N   0  0  0  0  0  0  0  0  0  0  0  0
  190.1480  175.9150  142.2880 C   0  0  0  0  0  3  0  0  0  0  0  0
  187.9580  179.1690  140.7790 N   0  0  0  0  0  1  0  0  0  0  0  0
  188.9720  176.2970  142.9320 C   0  0  0  0  0  3  0  0  0  0  0  0
  189.1150  177.7530  147.6000 C   0  0  0  0  0  2  0  0  0  0  0  0
  189.8460  176.4690  147.2450 C   0  0  0  0  0  2  0  0  0  0  0  0
  191.3290  176.7440  147.0580 C   0  0  1  0  0  3  0  0  0  0  0  0
  192.0780  175.7760  147.7330 O   0  0  0  0  0  1  0  0  0  0  0  0
  191.6660  176.7640  145.5940 C   0  0  0  0  0  0  0  0  0  0  0  0
  191.5990  178.0240  144.7950 C   0  0  0  0  0  1  0  0  0  0  0  0
  191.9880  175.7270  145.0390 O   0  0  0  0  0  0  0  0  0  0  0  0
  1  2  1  0  0  0  0
  2 11  2  0  0  0  0
  2  7  1  0  0  0  0
  3  4  2  0  0  0  0
  4 11  1  0  0  0  0
  5  6  1  0  0  0  0
  5  9  2  0  0  0  0
  7 10  2  0  0  0  0
  8  3  1  0  0  0  0
  8  1  2  0  0  0  0
 10  9  1  0  0  0  0
 10 19  1  0  0  0  0
 11  5  1  0  0  0  0
 12 18  1  0  0  0  0
 12  1  1  0  0  0  0
 13 16  1  0  0  0  0
 14 12  2  0  0  0  0
 15 13  2  0  0  0  0
 15 14  1  0  0  0  0
 16 18  2  0  0  0  0
 17 14  1  0  0  0  0
 20 19  1  0  0  0  0
 21 20  1  0  0  0  0
 21 22  1  1  0  0  0
 23 21  1  0  0  0  0
 24 23  1  0  0  0  0
 25 23  2  0  0  0  0
M  END
>  <MODEL>
2

>  <REMARK>
 VINA RESULT:      -8.8      2.781      5.192
  Name = 
  5 active torsions:
  status: ('A' for Active; 'I' for Inactive)
    1  A    between atoms: C_1  and  C_5
    2  A    between atoms: C_2  and  C_21
    3  A    between atoms: C_6  and  C_15
    4  A    between atoms: C_6  and  C_23
    5  A    between atoms: C_15  and  C_21
                            x       y       z     vdW  Elec       q    Type
                         _______ _______ _______ _____ _____    ______ ____

>  <TORSDO>
F 5

$$$$
=
 OpenBabel10262419443D

 25 27  0  0  1  0  0  0  0  0999 V2000
  190.4160  177.0670  145.2380 C   0  0  0  0  0  0  0  0  0  0  0  0
  189.2090  177.4320  145.8850 C   0  0  0  0  0  0  0  0  0  0  0  0
  191.4420  176.6730  147.4100 C   0  0  0  0  0  3  0  0  0  0  0  0
  190.2570  177.0320  148.0500 C   0  0  0  0  0  3  0  0  0  0  0  0
  187.9390  177.7610  147.9490 C   0  0  0  0  0  0  0  0  0  0  0  0
  187.8490  177.7490  149.3370 O   0  0  0  0  0  1  0  0  0  0  0  0
  188.0670  177.7910  145.1520 C   0  0  0  0  0  3  0  0  0  0  0  0
  191.5200  176.6910  146.0170 C   0  0  0  0  0  3  0  0  0  0  0  0
  186.8190  178.1230  147.1970 C   0  0  0  0  0  3  0  0  0  0  0  0
  186.8820  178.1420  145.8020 C   0  0  0  0  0  0  0  0  0  0  0  0
  189.1360  177.4100  147.3020 C   0  0  0  0  0  0  0  0  0  0  0  0
  190.5670  177.0940  143.7610 C   0  0  0  0  0  0  0  0  0  0  0  0
  190.7910  177.1430  140.9860 C   0  0  0  0  0  3  0  0  0  0  0  0
  191.2310  178.1460  143.0970 C   0  0  0  0  0  0  0  0  0  0  0  0
  191.3270  178.1400  141.7390 N   0  0  0  0  0  0  0  0  0  0  0  0
  190.1230  176.0840  141.6000 C   0  0  0  0  0  3  0  0  0  0  0  0
  191.8390  179.2070  143.8280 N   0  0  0  0  0  1  0  0  0  0  0  0
  190.0120  176.0660  142.9890 C   0  0  0  0  0  3  0  0  0  0  0  0
  185.6770  178.5060  145.0060 C   0  0  0  0  0  2  0  0  0  0  0  0
  185.7070  177.7990  143.6620 C   0  0  0  0  0  2  0  0  0  0  0  0
  184.9090  178.5870  142.6360 C   0  0  1  0  0  3  0  0  0  0  0  0
  184.3610  179.7250  143.2340 O   0  0  0  0  0  1  0  0  0  0  0  0
  185.7880  178.9570  141.4760 C   0  0  0  0  0  0  0  0  0  0  0  0
  187.2430  178.6160  141.4600 C   0  0  0  0  0  1  0  0  0  0  0  0
  185.3110  179.5630  140.5310 O   0  0  0  0  0  0  0  0  0  0  0  0
  1  2  2  0  0  0  0
  1  8  1  0  0  0  0
  2 11  1  0  0  0  0
  3  4  1  0  0  0  0
  5  6  1  0  0  0  0
  7 10  2  0  0  0  0
  7  2  1  0  0  0  0
  8  3  2  0  0  0  0
  9  5  2  0  0  0  0
 10  9  1  0  0  0  0
 11  5  1  0  0  0  0
 11  4  2  0  0  0  0
 12  1  1  0  0  0  0
 13 16  2  0  0  0  0
 13 15  1  0  0  0  0
 14 12  1  0  0  0  0
 14 17  1  0  0  0  0
 15 14  2  0  0  0  0
 16 18  1  0  0  0  0
 18 12  2  0  0  0  0
 19 10  1  0  0  0  0
 20 19  1  0  0  0  0
 21 22  1  1  0  0  0
 21 20  1  0  0  0  0
 23 21  1  0  0  0  0
 24 23  1  0  0  0  0
 25 23  2  0  0  0  0
M  END
>  <MODEL>
3

>  <REMARK>
 VINA RESULT:      -8.8      1.486      2.283
  Name = 
  5 active torsions:
  status: ('A' for Active; 'I' for Inactive)
    1  A    between atoms: C_1  and  C_5
    2  A    between atoms: C_2  and  C_21
    3  A    between atoms: C_6  and  C_15
    4  A    between atoms: C_6  and  C_23
    5  A    between atoms: C_15  and  C_21
                            x       y       z     vdW  Elec       q    Type
                         _______ _______ _______ _____ _____    ______ ____

>  <TORSDO>
F 5

$$$$
=
 OpenBabel10262419443D

 25 27  0  0  1  0  0  0  0  0999 V2000
  187.4400  177.8160  145.8240 C   0  0  0  0  0  0  0  0  0  0  0  0
  188.7750  177.5630  145.4230 C   0  0  0  0  0  0  0  0  0  0  0  0
  188.0870  177.4610  148.1440 C   0  0  0  0  0  3  0  0  0  0  0  0
  189.4010  177.2120  147.7540 C   0  0  0  0  0  3  0  0  0  0  0  0
  191.0880  177.0210  146.0110 C   0  0  0  0  0  0  0  0  0  0  0  0
  192.0640  176.7200  146.9540 O   0  0  0  0  0  1  0  0  0  0  0  0
  189.1580  177.6320  144.0750 C   0  0  0  0  0  3  0  0  0  0  0  0
  187.1170  177.7600  147.1880 C   0  0  0  0  0  3  0  0  0  0  0  0
  191.4400  177.0870  144.6610 C   0  0  0  0  0  3  0  0  0  0  0  0
  190.4790  177.3880  143.6940 C   0  0  0  0  0  0  0  0  0  0  0  0
  189.7590  177.2610  146.4020 C   0  0  0  0  0  0  0  0  0  0  0  0
  186.3590  178.1110  144.8510 C   0  0  0  0  0  0  0  0  0  0  0  0
  184.3290  178.6050  143.0100 C   0  0  0  0  0  3  0  0  0  0  0  0
  185.1290  178.6770  145.2480 C   0  0  0  0  0  0  0  0  0  0  0  0
  184.1580  178.9090  144.3240 N   0  0  0  0  0  0  0  0  0  0  0  0
  185.5260  178.0420  142.5730 C   0  0  0  0  0  3  0  0  0  0  0  0
  184.8950  179.0440  146.6050 N   0  0  0  0  0  1  0  0  0  0  0  0
  186.5390  177.7940  143.4990 C   0  0  0  0  0  3  0  0  0  0  0  0
  190.8680  177.4790  142.2590 C   0  0  0  0  0  2  0  0  0  0  0  0
  189.6380  177.3630  141.3760 C   0  0  0  0  0  2  0  0  0  0  0  0
  190.0270  177.4900  139.9130 C   0  0  1  0  0  3  0  0  0  0  0  0
  190.2280  176.2200  139.3640 O   0  0  0  0  0  1  0  0  0  0  0  0
  188.9640  178.2410  139.1630 C   0  0  0  0  0  0  0  0  0  0  0  0
  189.1210  178.5800  137.7160 C   0  0  0  0  0  1  0  0  0  0  0  0
  187.9540  178.5950  139.7480 O   0  0  0  0  0  0  0  0  0  0  0  0
  1  8  1  0  0  0  0
  2  1  2  0  0  0  0
  2 11  1  0  0  0  0
  4  3  1  0  0  0  0
  5 11  1  0  0  0  0
  5  6  1  0  0  0  0
  7  2  1  0  0  0  0
  8  3  2  0  0  0  0
  9  5  2  0  0  0  0
 10  7  2  0  0  0  0
 10  9  1  0  0  0  0
 11  4  2  0  0  0  0
 12 14  1  0  0  0  0
 12  1  1  0  0  0  0
 13 15  1  0  0  0  0
 14 17  1  0  0  0  0
 15 14  2  0  0  0  0
 16 13  2  0  0  0  0
 16 18  1  0  0  0  0
 18 12  2  0  0  0  0
 19 10  1  0  0  0  0
 20 19  1  0  0  0  0
 21 22  1  6  0  0  0
 21 20  1  0  0  0  0
 23 25  2  0  0  0  0
 23 21  1  0  0  0  0
 24 23  1  0  0  0  0
M  END
>  <MODEL>
4

>  <REMARK>
 VINA RESULT:      -8.7      2.826      4.782
  Name = 
  5 active torsions:
  status: ('A' for Active; 'I' for Inactive)
    1  A    between atoms: C_1  and  C_5
    2  A    between atoms: C_2  and  C_21
    3  A    between atoms: C_6  and  C_15
    4  A    between atoms: C_6  and  C_23
    5  A    between atoms: C_15  and  C_21
                            x       y       z     vdW  Elec       q    Type
                         _______ _______ _______ _____ _____    ______ ____

>  <TORSDO>
F 5

$$$$
=
 OpenBabel10262419443D

 25 27  0  0  1  0  0  0  0  0999 V2000
  188.1640  177.7800  145.1040 C   0  0  0  0  0  0  0  0  0  0  0  0
  186.9180  178.2020  144.5760 C   0  0  0  0  0  0  0  0  0  0  0  0
  187.1980  177.7810  147.3390 C   0  0  0  0  0  3  0  0  0  0  0  0
  185.9720  178.1960  146.8230 C   0  0  0  0  0  3  0  0  0  0  0  0
  184.5760  178.8150  144.9300 C   0  0  0  0  0  0  0  0  0  0  0  0
  183.4870  179.0250  145.7690 O   0  0  0  0  0  1  0  0  0  0  0  0
  186.7370  178.3960  143.1980 C   0  0  0  0  0  3  0  0  0  0  0  0
  188.2830  177.5760  146.4870 C   0  0  0  0  0  3  0  0  0  0  0  0
  184.4250  179.0100  143.5550 C   0  0  0  0  0  3  0  0  0  0  0  0
  185.5030  178.8050  142.6900 C   0  0  0  0  0  0  0  0  0  0  0  0
  185.8170  178.4080  145.4490 C   0  0  0  0  0  0  0  0  0  0  0  0
  189.3610  177.5730  144.2510 C   0  0  0  0  0  0  0  0  0  0  0  0
  191.6410  177.1810  142.7010 C   0  0  0  0  0  3  0  0  0  0  0  0
  189.4710  176.4760  143.3710 C   0  0  0  0  0  0  0  0  0  0  0  0
  190.5960  176.3140  142.6240 N   0  0  0  0  0  0  0  0  0  0  0  0
  191.5780  178.2780  143.5590 C   0  0  0  0  0  3  0  0  0  0  0  0
  188.4020  175.5450  143.2220 N   0  0  0  0  0  1  0  0  0  0  0  0
  190.4350  178.4680  144.3350 C   0  0  0  0  0  3  0  0  0  0  0  0
  185.3260  178.9910  141.2230 C   0  0  0  0  0  2  0  0  0  0  0  0
  183.8860  178.7090  140.8310 C   0  0  0  0  0  2  0  0  0  0  0  0
  183.6660  179.0410  139.3640 C   0  0  1  0  0  3  0  0  0  0  0  0
  184.3980  180.1820  139.0220 O   0  0  0  0  0  1  0  0  0  0  0  0
  184.0580  177.8710  138.5080 C   0  0  0  0  0  0  0  0  0  0  0  0
  185.3120  177.8840  137.6960 C   0  0  0  0  0  1  0  0  0  0  0  0
  183.3330  176.8920  138.4610 O   0  0  0  0  0  0  0  0  0  0  0  0
  1  8  1  0  0  0  0
  2  1  2  0  0  0  0
  2 11  1  0  0  0  0
  4  3  1  0  0  0  0
  5 11  1  0  0  0  0
  5  6  1  0  0  0  0
  7  2  1  0  0  0  0
  8  3  2  0  0  0  0
  9  5  2  0  0  0  0
 10  7  2  0  0  0  0
 10  9  1  0  0  0  0
 11  4  2  0  0  0  0
 12 18  1  0  0  0  0
 12  1  1  0  0  0  0
 13 16  1  0  0  0  0
 14 12  2  0  0  0  0
 15 13  2  0  0  0  0
 15 14  1  0  0  0  0
 16 18  2  0  0  0  0
 17 14  1  0  0  0  0
 19 10  1  0  0  0  0
 20 19  1  0  0  0  0
 21 22  1  6  0  0  0
 21 20  1  0  0  0  0
 23 21  1  0  0  0  0
 24 23  1  0  0  0  0
 25 23  2  0  0  0  0
M  END
>  <MODEL>
5

>  <REMARK>
 VINA RESULT:      -8.6      1.608      2.184
  Name = 
  5 active torsions:
  status: ('A' for Active; 'I' for Inactive)
    1  A    between atoms: C_1  and  C_5
    2  A    between atoms: C_2  and  C_21
    3  A    between atoms: C_6  and  C_15
    4  A    between atoms: C_6  and  C_23
    5  A    between atoms: C_15  and  C_21
                            x       y       z     vdW  Elec       q    Type
                         _______ _______ _______ _____ _____    ______ ____

>  <TORSDO>
F 5

$$$$
=
 OpenBabel10262419443D

 25 27  0  0  1  0  0  0  0  0999 V2000
  188.3550  177.5600  143.9310 C   0  0  0  0  0  0  0  0  0  0  0  0
  187.0340  177.9340  144.2830 C   0  0  0  0  0  0  0  0  0  0  0  0
  188.9410  177.4680  146.2920 C   0  0  0  0  0  3  0  0  0  0  0  0
  187.6440  177.8360  146.6420 C   0  0  0  0  0  3  0  0  0  0  0  0
  185.3720  178.4290  146.0080 C   0  0  0  0  0  0  0  0  0  0  0  0
  185.0090  178.5700  147.3440 O   0  0  0  0  0  1  0  0  0  0  0  0
  186.0510  178.1480  143.3060 C   0  0  0  0  0  3  0  0  0  0  0  0
  189.2930  177.3320  144.9490 C   0  0  0  0  0  3  0  0  0  0  0  0
  184.4140  178.6450  145.0150 C   0  0  0  0  0  3  0  0  0  0  0  0
  184.7510  178.5090  143.6670 C   0  0  0  0  0  0  0  0  0  0  0  0
  186.6830  178.0690  145.6520 C   0  0  0  0  0  0  0  0  0  0  0  0
  188.7950  177.4270  142.5190 C   0  0  0  0  0  0  0  0  0  0  0  0
  189.6400  177.2340  139.8730 C   0  0  0  0  0  3  0  0  0  0  0  0
  189.7340  176.4540  142.1180 C   0  0  0  0  0  0  0  0  0  0  0  0
  190.1250  176.3840  140.8160 N   0  0  0  0  0  0  0  0  0  0  0  0
  188.7110  178.2130  140.2250 C   0  0  0  0  0  3  0  0  0  0  0  0
  190.2620  175.5150  143.0500 N   0  0  0  0  0  1  0  0  0  0  0  0
  188.2930  178.3060  141.5520 C   0  0  0  0  0  3  0  0  0  0  0  0
  183.7170  178.7180  142.6150 C   0  0  0  0  0  2  0  0  0  0  0  0
  184.2740  178.3380  141.2540 C   0  0  0  0  0  2  0  0  0  0  0  0
  183.1940  178.4600  140.1920 C   0  0  1  0  0  3  0  0  0  0  0  0
  181.9350  178.4850  140.7970 O   0  0  0  0  0  1  0  0  0  0  0  0
  183.4220  179.6950  139.3680 C   0  0  0  0  0  0  0  0  0  0  0  0
  182.2910  180.4080  138.7010 C   0  0  0  0  0  1  0  0  0  0  0  0
  184.5570  180.1210  139.2260 O   0  0  0  0  0  0  0  0  0  0  0  0
  1  2  2  0  0  0  0
  1  8  1  0  0  0  0
  2 11  1  0  0  0  0
  3  4  1  0  0  0  0
  5  6  1  0  0  0  0
  7 10  2  0  0  0  0
  7  2  1  0  0  0  0
  8  3  2  0  0  0  0
  9  5  2  0  0  0  0
 10  9  1  0  0  0  0
 11  5  1  0  0  0  0
 11  4  2  0  0  0  0
 12  1  1  0  0  0  0
 13 16  2  0  0  0  0
 13 15  1  0  0  0  0
 14 12  1  0  0  0  0
 14 17  1  0  0  0  0
 15 14  2  0  0  0  0
 16 18  1  0  0  0  0
 18 12  2  0  0  0  0
 19 10  1  0  0  0  0
 20 19  1  0  0  0  0
 21 22  1  1  0  0  0
 21 20  1  0  0  0  0
 23 21  1  0  0  0  0
 24 23  1  0  0  0  0
 25 23  2  0  0  0  0
M  END
>  <MODEL>
6

>  <REMARK>
 VINA RESULT:      -8.4      1.683      2.478
  Name = 
  5 active torsions:
  status: ('A' for Active; 'I' for Inactive)
    1  A    between atoms: C_1  and  C_5
    2  A    between atoms: C_2  and  C_21
    3  A    between atoms: C_6  and  C_15
    4  A    between atoms: C_6  and  C_23
    5  A    between atoms: C_15  and  C_21
                            x       y       z     vdW  Elec       q    Type
                         _______ _______ _______ _____ _____    ______ ____

>  <TORSDO>
F 5

$$$$
=
 OpenBabel10262419443D

 25 27  0  0  1  0  0  0  0  0999 V2000
  189.6880  177.4850  141.7820 C   0  0  0  0  0  0  0  0  0  0  0  0
  188.3210  177.8540  141.8280 C   0  0  0  0  0  0  0  0  0  0  0  0
  189.7020  177.8940  139.3830 C   0  0  0  0  0  3  0  0  0  0  0  0
  188.3580  178.2580  139.4230 C   0  0  0  0  0  3  0  0  0  0  0  0
  186.3040  178.6230  140.6750 C   0  0  0  0  0  0  0  0  0  0  0  0
  185.6360  179.0050  139.5170 O   0  0  0  0  0  1  0  0  0  0  0  0
  187.6090  177.8710  143.0370 C   0  0  0  0  0  3  0  0  0  0  0  0
  190.3600  177.5110  140.5510 C   0  0  0  0  0  3  0  0  0  0  0  0
  185.6160  178.6220  141.8900 C   0  0  0  0  0  3  0  0  0  0  0  0
  186.2630  178.2430  143.0680 C   0  0  0  0  0  0  0  0  0  0  0  0
  187.6580  178.2440  140.6340 C   0  0  0  0  0  0  0  0  0  0  0  0
  190.4330  177.0410  142.9870 C   0  0  0  0  0  0  0  0  0  0  0  0
  191.8710  176.1810  145.2120 C   0  0  0  0  0  3  0  0  0  0  0  0
  190.9890  177.9600  143.9030 C   0  0  0  0  0  0  0  0  0  0  0  0
  191.6830  177.5080  144.9820 N   0  0  0  0  0  0  0  0  0  0  0  0
  191.3420  175.2370  144.3320 C   0  0  0  0  0  3  0  0  0  0  0  0
  190.8060  179.3630  143.7350 N   0  0  0  0  0  1  0  0  0  0  0  0
  190.6250  175.6730  143.2190 C   0  0  0  0  0  3  0  0  0  0  0  0
  185.5290  178.2680  144.3630 C   0  0  0  0  0  2  0  0  0  0  0  0
  186.3280  177.5410  145.4310 C   0  0  0  0  0  2  0  0  0  0  0  0
  186.5650  178.4520  146.6230 C   0  0  1  0  0  3  0  0  0  0  0  0
  185.3720  178.6250  147.3310 O   0  0  0  0  0  1  0  0  0  0  0  0
  187.6370  177.8760  147.5040 C   0  0  0  0  0  0  0  0  0  0  0  0
  188.7970  177.1280  146.9330 C   0  0  0  0  0  1  0  0  0  0  0  0
  187.5530  178.0070  148.7140 O   0  0  0  0  0  0  0  0  0  0  0  0
  1  2  1  0  0  0  0
  1 12  1  0  0  0  0
  2  7  1  0  0  0  0
  3  4  2  0  0  0  0
  3  8  1  0  0  0  0
  4 11  1  0  0  0  0
  5  9  2  0  0  0  0
  6  5  1  0  0  0  0
  7 10  2  0  0  0  0
  8  1  2  0  0  0  0
  9 10  1  0  0  0  0
 10 19  1  0  0  0  0
 11  5  1  0  0  0  0
 11  2  2  0  0  0  0
 12 18  2  0  0  0  0
 12 14  1  0  0  0  0
 14 15  2  0  0  0  0
 15 13  1  0  0  0  0
 16 13  2  0  0  0  0
 17 14  1  0  0  0  0
 18 16  1  0  0  0  0
 19 20  1  0  0  0  0
 20 21  1  0  0  0  0
 21 22  1  1  0  0  0
 21 23  1  0  0  0  0
 23 25  2  0  0  0  0
 24 23  1  0  0  0  0
M  END
>  <MODEL>
7

>  <REMARK>
 VINA RESULT:      -8.2      1.458      5.354
  Name = 
  5 active torsions:
  status: ('A' for Active; 'I' for Inactive)
    1  A    between atoms: C_1  and  C_5
    2  A    between atoms: C_2  and  C_21
    3  A    between atoms: C_6  and  C_15
    4  A    between atoms: C_6  and  C_23
    5  A    between atoms: C_15  and  C_21
                            x       y       z     vdW  Elec       q    Type
                         _______ _______ _______ _____ _____    ______ ____

>  <TORSDO>
F 5

$$$$
=
 OpenBabel10262419443D

 25 27  0  0  1  0  0  0  0  0999 V2000
  185.7060  178.5030  142.7810 C   0  0  0  0  0  0  0  0  0  0  0  0
  186.0620  178.3020  144.1370 C   0  0  0  0  0  0  0  0  0  0  0  0
  183.4300  179.0210  143.4720 C   0  0  0  0  0  3  0  0  0  0  0  0
  183.7770  178.8240  144.8080 C   0  0  0  0  0  3  0  0  0  0  0  0
  185.4350  178.2810  146.5020 C   0  0  0  0  0  0  0  0  0  0  0  0
  184.4910  178.4350  147.5110 O   0  0  0  0  0  1  0  0  0  0  0  0
  187.3750  177.9690  144.5060 C   0  0  0  0  0  3  0  0  0  0  0  0
  184.3860  178.8620  142.4690 C   0  0  0  0  0  3  0  0  0  0  0  0
  186.7460  177.9400  146.8410 C   0  0  0  0  0  3  0  0  0  0  0  0
  187.7140  177.7810  145.8470 C   0  0  0  0  0  0  0  0  0  0  0  0
  185.0850  178.4680  145.1540 C   0  0  0  0  0  0  0  0  0  0  0  0
  186.6720  178.3210  141.6690 C   0  0  0  0  0  0  0  0  0  0  0  0
  188.4850  177.9200  139.5930 C   0  0  0  0  0  3  0  0  0  0  0  0
  186.3680  178.7010  140.3440 C   0  0  0  0  0  0  0  0  0  0  0  0
  187.2760  178.4940  139.3530 N   0  0  0  0  0  0  0  0  0  0  0  0
  188.8270  177.5260  140.8860 C   0  0  0  0  0  3  0  0  0  0  0  0
  185.1300  179.3320  140.0290 N   0  0  0  0  0  1  0  0  0  0  0  0
  187.9150  177.7280  141.9210 C   0  0  0  0  0  3  0  0  0  0  0  0
  189.1160  177.4410  146.2190 C   0  0  0  0  0  2  0  0  0  0  0  0
  189.7740  176.6480  145.1030 C   0  0  0  0  0  2  0  0  0  0  0  0
  191.2490  177.0030  145.0050 C   0  0  1  0  0  3  0  0  0  0  0  0
  192.0090  175.8360  144.8880 O   0  0  0  0  0  1  0  0  0  0  0  0
  191.4800  177.9170  143.8370 C   0  0  0  0  0  0  0  0  0  0  0  0
  191.1710  179.3770  143.9150 C   0  0  0  0  0  1  0  0  0  0  0  0
  191.9160  177.4600  142.7940 O   0  0  0  0  0  0  0  0  0  0  0  0
  1  2  1  0  0  0  0
  2  7  2  0  0  0  0
  2 11  1  0  0  0  0
  3  4  2  0  0  0  0
  4 11  1  0  0  0  0
  5  9  1  0  0  0  0
  5  6  1  0  0  0  0
  7 10  1  0  0  0  0
  8  1  2  0  0  0  0
  8  3  1  0  0  0  0
 10 19  1  0  0  0  0
 10  9  2  0  0  0  0
 11  5  2  0  0  0  0
 12 18  1  0  0  0  0
 12  1  1  0  0  0  0
 13 16  1  0  0  0  0
 14 12  2  0  0  0  0
 15 13  2  0  0  0  0
 15 14  1  0  0  0  0
 16 18  2  0  0  0  0
 17 14  1  0  0  0  0
 20 19  1  0  0  0  0
 21 22  1  6  0  0  0
 21 20  1  0  0  0  0
 23 24  1  0  0  0  0
 23 21  1  0  0  0  0
 25 23  2  0  0  0  0
M  END
>  <MODEL>
8

>  <REMARK>
 VINA RESULT:      -8.2      2.899      5.077
  Name = 
  5 active torsions:
  status: ('A' for Active; 'I' for Inactive)
    1  A    between atoms: C_1  and  C_5
    2  A    between atoms: C_2  and  C_21
    3  A    between atoms: C_6  and  C_15
    4  A    between atoms: C_6  and  C_23
    5  A    between atoms: C_15  and  C_21
                            x       y       z     vdW  Elec       q    Type
                         _______ _______ _______ _____ _____    ______ ____

>  <TORSDO>
F 5

$$$$
=
 OpenBabel10262419443D

 25 27  0  0  1  0  0  0  0  0999 V2000
  185.8050  178.3500  144.9160 C   0  0  0  0  0  0  0  0  0  0  0  0
  186.1420  178.3910  143.5410 C   0  0  0  0  0  0  0  0  0  0  0  0
  183.5070  178.9250  144.3530 C   0  0  0  0  0  3  0  0  0  0  0  0
  183.8360  178.9670  142.9990 C   0  0  0  0  0  3  0  0  0  0  0  0
  185.4700  178.7330  141.2130 C   0  0  0  0  0  0  0  0  0  0  0  0
  184.5070  179.0380  140.2570 O   0  0  0  0  0  1  0  0  0  0  0  0
  187.4430  178.1040  143.0990 C   0  0  0  0  0  3  0  0  0  0  0  0
  184.4830  178.6200  145.3010 C   0  0  0  0  0  3  0  0  0  0  0  0
  186.7750  178.4510  140.8010 C   0  0  0  0  0  3  0  0  0  0  0  0
  187.7610  178.1410  141.7400 C   0  0  0  0  0  0  0  0  0  0  0  0
  185.1440  178.7020  142.5800 C   0  0  0  0  0  0  0  0  0  0  0  0
  186.8050  178.0590  145.9730 C   0  0  0  0  0  0  0  0  0  0  0  0
  188.7270  177.5320  147.9190 C   0  0  0  0  0  3  0  0  0  0  0  0
  186.7490  178.6660  147.2450 C   0  0  0  0  0  0  0  0  0  0  0  0
  187.7010  178.3860  148.1750 N   0  0  0  0  0  0  0  0  0  0  0  0
  188.8250  176.9100  146.6750 C   0  0  0  0  0  3  0  0  0  0  0  0
  185.6850  179.5500  147.5880 N   0  0  0  0  0  1  0  0  0  0  0  0
  187.8620  177.1790  145.7030 C   0  0  0  0  0  3  0  0  0  0  0  0
  189.1430  177.8190  141.2900 C   0  0  0  0  0  2  0  0  0  0  0  0
  189.7230  176.7040  142.1430 C   0  0  0  0  0  2  0  0  0  0  0  0
  191.1970  176.9580  142.4100 C   0  0  1  0  0  3  0  0  0  0  0  0
  191.7320  177.7560  141.3950 O   0  0  0  0  0  1  0  0  0  0  0  0
  191.3720  177.6060  143.7540 C   0  0  0  0  0  0  0  0  0  0  0  0
  191.1540  179.0710  143.9480 C   0  0  0  0  0  1  0  0  0  0  0  0
  191.7120  176.9260  144.7080 O   0  0  0  0  0  0  0  0  0  0  0  0
  1  8  1  0  0  0  0
  1 12  1  0  0  0  0
  2  1  2  0  0  0  0
  3  8  2  0  0  0  0
  4  3  1  0  0  0  0
  5 11  1  0  0  0  0
  6  5  1  0  0  0  0
  7  2  1  0  0  0  0
  9  5  2  0  0  0  0
  9 10  1  0  0  0  0
 10  7  2  0  0  0  0
 11  4  2  0  0  0  0
 11  2  1  0  0  0  0
 12 14  1  0  0  0  0
 13 15  1  0  0  0  0
 14 17  1  0  0  0  0
 14 15  2  0  0  0  0
 16 13  2  0  0  0  0
 18 12  2  0  0  0  0
 18 16  1  0  0  0  0
 19 10  1  0  0  0  0
 19 20  1  0  0  0  0
 20 21  1  0  0  0  0
 21 22  1  6  0  0  0
 21 23  1  0  0  0  0
 23 24  1  0  0  0  0
 23 25  2  0  0  0  0
M  END
>  <MODEL>
9

>  <REMARK>
 VINA RESULT:      -8.1      2.670      5.385
  Name = 
  5 active torsions:
  status: ('A' for Active; 'I' for Inactive)
    1  A    between atoms: C_1  and  C_5
    2  A    between atoms: C_2  and  C_21
    3  A    between atoms: C_6  and  C_15
    4  A    between atoms: C_6  and  C_23
    5  A    between atoms: C_15  and  C_21
                            x       y       z     vdW  Elec       q    Type
                         _______ _______ _______ _____ _____    ______ ____

>  <TORSDO>
F 5

$$$$
