=
 OpenBabel10262419363D

 31 34  0  0  1  0  0  0  0  0999 V2000
  190.8070  176.4490  144.0700 C   0  0  2  0  0  3  0  0  0  0  0  0
  187.3560  177.6540  142.7470 C   0  0  2  0  0  3  0  0  0  0  0  0
  186.4550  177.8190  143.9590 C   0  0  0  0  0  0  0  0  0  0  0  0
  186.9600  178.1520  146.3570 C   0  0  0  0  0  3  0  0  0  0  0  0
  188.8630  177.7300  143.0920 C   0  0  1  0  0  3  0  0  0  0  0  0
  191.6740  177.5010  143.3640 C   0  0  0  0  0  2  0  0  0  0  0  0
  186.8600  177.1640  145.2450 C   0  0  0  0  0  2  0  0  0  0  0  0
  187.8350  178.3670  140.4110 C   0  0  0  0  0  0  0  0  0  0  0  0
  191.4680  175.0880  143.9850 C   0  0  0  0  0  1  0  0  0  0  0  0
  184.7640  178.7430  142.5440 O   0  0  0  0  0  0  0  0  0  0  0  0
  185.9070  178.8280  146.8050 C   0  0  0  0  0  3  0  0  0  0  0  0
  189.1470  178.1980  140.5950 C   0  0  0  0  0  3  0  0  0  0  0  0
  186.9780  178.6270  141.6220 C   0  0  1  0  0  3  0  0  0  0  0  0
  189.3780  176.3560  143.5210 C   0  0  0  0  0  2  0  0  0  0  0  0
  184.5560  178.7540  146.2190 C   0  0  0  0  0  3  0  0  0  0  0  0
  189.7540  178.3340  141.9640 C   0  0  2  0  0  3  0  0  0  0  0  0
  191.1850  177.7870  141.9470 C   0  0  0  0  0  2  0  0  0  0  0  0
  185.4900  178.4820  141.3460 C   0  0  0  0  0  2  0  0  0  0  0  0
  185.2130  178.3400  143.8120 C   0  0  0  0  0  0  0  0  0  0  0  0
  184.2630  178.5330  144.9320 C   0  0  0  0  0  3  0  0  0  0  0  0
  187.2360  178.2390  139.1100 N   0  0  0  0  0  2  0  0  0  0  0  0
  188.2730  178.9290  136.7280 S   0  0  0  0  0  0  0  0  0  0  0  0
  187.8700  177.8400  137.8850 C   0  0  0  0  0  0  0  0  0  0  0  0
  187.8370  176.4000  137.5100 C   0  0  0  0  0  2  0  0  0  0  0  0
  188.9640  175.7550  138.0260 O   0  0  0  0  0  0  0  0  0  0  0  0
  190.0420  173.8800  136.9930 C   0  0  0  0  0  1  0  0  0  0  0  0
  189.6970  175.3580  136.9020 C   0  0  2  0  0  3  0  0  0  0  0  0
  190.9490  176.2230  136.7310 C   0  0  0  0  0  2  0  0  0  0  0  0
  191.5560  176.6710  138.0600 C   0  0  0  0  0  2  0  0  0  0  0  0
  193.0420  176.3480  138.1360 C   0  0  0  0  0  2  0  0  0  0  0  0
  193.6180  176.1670  136.7450 C   0  0  0  0  0  1  0  0  0  0  0  0
  1  9  1  6  0  0  0
  2  5  1  0  0  0  0
  2  3  1  1  0  0  0
  3  7  1  0  0  0  0
  4 11  2  0  0  0  0
  5 14  1  6  0  0  0
  6  1  1  0  0  0  0
  7  4  1  0  0  0  0
  8 12  2  0  0  0  0
  8 13  1  0  0  0  0
 10 19  1  0  0  0  0
 13 18  1  6  0  0  0
 13  2  1  0  0  0  0
 14  1  1  0  0  0  0
 15 11  1  0  0  0  0
 16 12  1  6  0  0  0
 16  5  1  0  0  0  0
 17 16  1  0  0  0  0
 17  6  1  0  0  0  0
 18 10  1  0  0  0  0
 19  3  2  0  0  0  0
 19 20  1  0  0  0  0
 20 15  2  0  0  0  0
 21  8  1  0  0  0  0
 22 23  2  0  0  0  0
 23 21  1  0  0  0  0
 24 23  1  0  0  0  0
 24 25  1  0  0  0  0
 27 26  1  1  0  0  0
 27 25  1  0  0  0  0
 28 27  1  0  0  0  0
 28 29  1  0  0  0  0
 29 30  1  0  0  0  0
 31 30  1  0  0  0  0
M  END
>  <MODEL>
1

>  <REMARK>
 VINA RESULT:      -8.0      0.000      0.000
  Name = 
  8 active torsions:
  status: ('A' for Active; 'I' for Inactive)
    1  A    between atoms: C_1  and  C_11
    2  A    between atoms: C_3  and  C_9
    3  A    between atoms: C_3  and  O_22
    4  A    between atoms: C_9  and  N_23
    5  A    between atoms: C_11  and  C_24
    6  A    between atoms: C_15  and  N_23
    7  A    between atoms: C_19  and  O_22
    8  A    between atoms: C_19  and  C_24
                            x       y       z     vdW  Elec       q    Type
                         _______ _______ _______ _____ _____    ______ ____

>  <TORSDO>
F 8

$$$$
=
 OpenBabel10262419363D

 31 34  0  0  1  0  0  0  0  0999 V2000
  188.1080  177.9200  140.3420 C   0  0  2  0  0  3  0  0  0  0  0  0
  185.6810  178.5700  143.3080 C   0  0  2  0  0  3  0  0  0  0  0  0
  184.2980  178.7570  142.7100 C   0  0  0  0  0  0  0  0  0  0  0  0
  183.3260  178.0520  140.5480 C   0  0  0  0  0  3  0  0  0  0  0  0
  186.6400  177.7720  142.3910 C   0  0  1  0  0  3  0  0  0  0  0  0
  188.7570  176.6390  140.8860 C   0  0  0  0  0  2  0  0  0  0  0  0
  184.1860  179.0510  141.2440 C   0  0  0  0  0  2  0  0  0  0  0  0
  186.9970  177.8890  145.3080 C   0  0  0  0  0  0  0  0  0  0  0  0
  189.1640  178.8160  139.7250 C   0  0  0  0  0  1  0  0  0  0  0  0
  183.3820  178.8370  144.9170 O   0  0  0  0  0  0  0  0  0  0  0  0
  182.0320  177.9160  140.8190 C   0  0  0  0  0  3  0  0  0  0  0  0
  187.9780  177.4100  144.5380 C   0  0  0  0  0  3  0  0  0  0  0  0
  185.6130  177.9710  144.7200 C   0  0  1  0  0  3  0  0  0  0  0  0
  187.3210  178.7100  141.3950 C   0  0  0  0  0  2  0  0  0  0  0  0
  181.3170  178.6560  141.8750 C   0  0  0  0  0  3  0  0  0  0  0  0
  187.6900  176.9060  143.1520 C   0  0  2  0  0  3  0  0  0  0  0  0
  189.0060  176.7210  142.3900 C   0  0  0  0  0  2  0  0  0  0  0  0
  184.6580  178.8160  145.5500 C   0  0  0  0  0  2  0  0  0  0  0  0
  183.2220  178.8900  143.5230 C   0  0  0  0  0  0  0  0  0  0  0  0
  181.8380  179.0820  143.0330 C   0  0  0  0  0  3  0  0  0  0  0  0
  187.2540  178.3760  146.6370 N   0  0  0  0  0  2  0  0  0  0  0  0
  187.8450  177.8670  149.2080 S   0  0  0  0  0  0  0  0  0  0  0  0
  188.1770  177.8520  147.6030 C   0  0  0  0  0  0  0  0  0  0  0  0
  189.5850  177.6230  147.1810 C   0  0  0  0  0  2  0  0  0  0  0  0
  189.9180  176.2790  147.3680 O   0  0  0  0  0  0  0  0  0  0  0  0
  192.2580  175.9470  147.7660 C   0  0  0  0  0  1  0  0  0  0  0  0
  191.1550  176.1230  146.7340 C   0  0  2  0  0  3  0  0  0  0  0  0
  191.4410  177.2990  145.7950 C   0  0  0  0  0  2  0  0  0  0  0  0
  191.6850  176.8690  144.3490 C   0  0  0  0  0  2  0  0  0  0  0  0
  191.8470  178.0680  143.4260 C   0  0  0  0  0  2  0  0  0  0  0  0
  191.1520  179.2850  144.0090 C   0  0  0  0  0  1  0  0  0  0  0  0
  1  9  1  1  0  0  0
  1  6  1  0  0  0  0
  1 14  1  0  0  0  0
  2  3  1  6  0  0  0
  2 13  1  0  0  0  0
  3 19  2  0  0  0  0
  4 11  2  0  0  0  0
  4  7  1  0  0  0  0
  5 14  1  6  0  0  0
  5 16  1  0  0  0  0
  5  2  1  0  0  0  0
  6 17  1  0  0  0  0
  7  3  1  0  0  0  0
  8 21  1  0  0  0  0
 10 18  1  0  0  0  0
 11 15  1  0  0  0  0
 12  8  2  0  0  0  0
 13  8  1  0  0  0  0
 13 18  1  1  0  0  0
 15 20  2  0  0  0  0
 16 17  1  6  0  0  0
 16 12  1  0  0  0  0
 19 10  1  0  0  0  0
 20 19  1  0  0  0  0
 21 23  1  0  0  0  0
 23 22  2  0  0  0  0
 24 25  1  0  0  0  0
 24 23  1  0  0  0  0
 27 25  1  0  0  0  0
 27 26  1  1  0  0  0
 28 27  1  0  0  0  0
 29 28  1  0  0  0  0
 30 31  1  0  0  0  0
 30 29  1  0  0  0  0
M  END
>  <MODEL>
2

>  <REMARK>
 VINA RESULT:      -7.8      3.959      6.509
  Name = 
  8 active torsions:
  status: ('A' for Active; 'I' for Inactive)
    1  A    between atoms: C_1  and  C_11
    2  A    between atoms: C_3  and  C_9
    3  A    between atoms: C_3  and  O_22
    4  A    between atoms: C_9  and  N_23
    5  A    between atoms: C_11  and  C_24
    6  A    between atoms: C_15  and  N_23
    7  A    between atoms: C_19  and  O_22
    8  A    between atoms: C_19  and  C_24
                            x       y       z     vdW  Elec       q    Type
                         _______ _______ _______ _____ _____    ______ ____

>  <TORSDO>
F 8

$$$$
=
 OpenBabel10262419363D

 31 34  0  0  1  0  0  0  0  0999 V2000
  190.7690  176.4050  144.0430 C   0  0  2  0  0  3  0  0  0  0  0  0
  187.3340  177.6500  142.7150 C   0  0  2  0  0  3  0  0  0  0  0  0
  186.4310  177.8190  143.9250 C   0  0  0  0  0  0  0  0  0  0  0  0
  186.9320  178.1380  146.3250 C   0  0  0  0  0  3  0  0  0  0  0  0
  188.8410  177.7100  143.0650 C   0  0  1  0  0  3  0  0  0  0  0  0
  191.6490  177.4510  143.3450 C   0  0  0  0  0  2  0  0  0  0  0  0
  186.8250  177.1550  145.2090 C   0  0  0  0  0  2  0  0  0  0  0  0
  187.8280  178.3680  140.3830 C   0  0  0  0  0  0  0  0  0  0  0  0
  191.4160  175.0370  143.9550 C   0  0  0  0  0  1  0  0  0  0  0  0
  184.7540  178.7670  142.5080 O   0  0  0  0  0  0  0  0  0  0  0  0
  185.8840  178.8220  146.7730 C   0  0  0  0  0  3  0  0  0  0  0  0
  189.1380  178.1850  140.5710 C   0  0  0  0  0  3  0  0  0  0  0  0
  186.9700  178.6320  141.5920 C   0  0  1  0  0  3  0  0  0  0  0  0
  189.3400  176.3290  143.4890 C   0  0  0  0  0  2  0  0  0  0  0  0
  184.5350  178.7650  146.1830 C   0  0  0  0  0  3  0  0  0  0  0  0
  189.7420  178.3090  141.9420 C   0  0  2  0  0  3  0  0  0  0  0  0
  191.1670  177.7470  141.9270 C   0  0  0  0  0  2  0  0  0  0  0  0
  185.4810  178.5030  141.3120 C   0  0  0  0  0  2  0  0  0  0  0  0
  185.1950  178.3540  143.7760 C   0  0  0  0  0  0  0  0  0  0  0  0
  184.2440  178.5520  144.8930 C   0  0  0  0  0  3  0  0  0  0  0  0
  187.2320  178.2520  139.0800 N   0  0  0  0  0  2  0  0  0  0  0  0
  188.0820  178.7470  136.5790 S   0  0  0  0  0  0  0  0  0  0  0  0
  187.8430  177.7700  137.8730 C   0  0  0  0  0  0  0  0  0  0  0  0
  187.9320  176.2990  137.6670 C   0  0  0  0  0  2  0  0  0  0  0  0
  186.6610  175.7840  137.3990 O   0  0  0  0  0  0  0  0  0  0  0  0
  186.2940  174.8710  135.2140 C   0  0  0  0  0  1  0  0  0  0  0  0
  186.8900  174.6610  136.5970 C   0  0  2  0  0  3  0  0  0  0  0  0
  186.3450  173.3930  137.2610 C   0  0  0  0  0  2  0  0  0  0  0  0
  184.8560  173.4810  137.5960 C   0  0  0  0  0  2  0  0  0  0  0  0
  184.1250  172.1930  137.2490 C   0  0  0  0  0  2  0  0  0  0  0  0
  184.7040  171.5750  135.9900 C   0  0  0  0  0  1  0  0  0  0  0  0
  1  9  1  6  0  0  0
  2  5  1  0  0  0  0
  2  3  1  1  0  0  0
  3  7  1  0  0  0  0
  4 11  2  0  0  0  0
  5 14  1  6  0  0  0
  6  1  1  0  0  0  0
  7  4  1  0  0  0  0
  8 12  2  0  0  0  0
  8 13  1  0  0  0  0
 10 19  1  0  0  0  0
 13 18  1  6  0  0  0
 13  2  1  0  0  0  0
 14  1  1  0  0  0  0
 15 11  1  0  0  0  0
 16 12  1  6  0  0  0
 16  5  1  0  0  0  0
 17 16  1  0  0  0  0
 17  6  1  0  0  0  0
 18 10  1  0  0  0  0
 19  3  2  0  0  0  0
 19 20  1  0  0  0  0
 20 15  2  0  0  0  0
 21  8  1  0  0  0  0
 22 23  2  0  0  0  0
 23 21  1  0  0  0  0
 24 23  1  0  0  0  0
 25 24  1  0  0  0  0
 27 26  1  6  0  0  0
 27 28  1  0  0  0  0
 27 25  1  0  0  0  0
 28 29  1  0  0  0  0
 30 29  1  0  0  0  0
 31 30  1  0  0  0  0
M  END
>  <MODEL>
3

>  <REMARK>
 VINA RESULT:      -7.7      1.932      3.193
  Name = 
  8 active torsions:
  status: ('A' for Active; 'I' for Inactive)
    1  A    between atoms: C_1  and  C_11
    2  A    between atoms: C_3  and  C_9
    3  A    between atoms: C_3  and  O_22
    4  A    between atoms: C_9  and  N_23
    5  A    between atoms: C_11  and  C_24
    6  A    between atoms: C_15  and  N_23
    7  A    between atoms: C_19  and  O_22
    8  A    between atoms: C_19  and  C_24
                            x       y       z     vdW  Elec       q    Type
                         _______ _______ _______ _____ _____    ______ ____

>  <TORSDO>
F 8

$$$$
=
 OpenBabel10262419363D

 31 34  0  0  1  0  0  0  0  0999 V2000
  190.7790  176.3990  144.0840 C   0  0  2  0  0  3  0  0  0  0  0  0
  187.3240  177.6880  142.8520 C   0  0  2  0  0  3  0  0  0  0  0  0
  186.4430  177.8250  144.0820 C   0  0  0  0  0  0  0  0  0  0  0  0
  186.9880  178.0760  146.4810 C   0  0  0  0  0  3  0  0  0  0  0  0
  188.8370  177.7350  143.1770 C   0  0  1  0  0  3  0  0  0  0  0  0
  191.6490  177.4630  143.3990 C   0  0  0  0  0  2  0  0  0  0  0  0
  186.8580  177.1240  145.3400 C   0  0  0  0  0  2  0  0  0  0  0  0
  187.7780  178.4690  140.5320 C   0  0  0  0  0  0  0  0  0  0  0  0
  191.4210  175.0330  143.9460 C   0  0  0  0  0  1  0  0  0  0  0  0
  184.7430  178.8140  142.7220 O   0  0  0  0  0  0  0  0  0  0  0  0
  185.9490  178.7500  146.9660 C   0  0  0  0  0  3  0  0  0  0  0  0
  189.0910  178.2780  140.6920 C   0  0  0  0  0  3  0  0  0  0  0  0
  186.9420  178.7010  141.7640 C   0  0  1  0  0  3  0  0  0  0  0  0
  189.3410  176.3420  143.5540 C   0  0  0  0  0  2  0  0  0  0  0  0
  184.5900  178.7110  146.3990 C   0  0  0  0  0  3  0  0  0  0  0  0
  189.7190  178.3640  142.0550 C   0  0  2  0  0  3  0  0  0  0  0  0
  191.1420  177.7990  141.9990 C   0  0  0  0  0  2  0  0  0  0  0  0
  185.4480  178.5830  141.5060 C   0  0  0  0  0  2  0  0  0  0  0  0
  185.2060  178.3660  143.9700 C   0  0  0  0  0  0  0  0  0  0  0  0
  184.2750  178.5350  145.1090 C   0  0  0  0  0  3  0  0  0  0  0  0
  187.1590  178.3900  139.2370 N   0  0  0  0  0  2  0  0  0  0  0  0
  188.9380  178.5880  137.2330 S   0  0  0  0  0  0  0  0  0  0  0  0
  187.7120  177.8460  138.0290 C   0  0  0  0  0  0  0  0  0  0  0  0
  186.9380  176.8020  137.3060 C   0  0  0  0  0  2  0  0  0  0  0  0
  186.0800  177.4080  136.3840 O   0  0  0  0  0  0  0  0  0  0  0  0
  183.9880  177.0190  135.2810 C   0  0  0  0  0  1  0  0  0  0  0  0
  184.9010  176.6570  136.4420 C   0  0  2  0  0  3  0  0  0  0  0  0
  184.2010  176.8400  137.7920 C   0  0  0  0  0  2  0  0  0  0  0  0
  183.0340  177.8250  137.7360 C   0  0  0  0  0  2  0  0  0  0  0  0
  183.3180  179.0790  138.5490 C   0  0  0  0  0  2  0  0  0  0  0  0
  182.1640  179.3760  139.4890 C   0  0  0  0  0  1  0  0  0  0  0  0
  1  9  1  6  0  0  0
  2  5  1  0  0  0  0
  2  3  1  1  0  0  0
  3  7  1  0  0  0  0
  4 11  2  0  0  0  0
  5 14  1  6  0  0  0
  6  1  1  0  0  0  0
  7  4  1  0  0  0  0
  8 12  2  0  0  0  0
  8 13  1  0  0  0  0
 10 19  1  0  0  0  0
 13 18  1  6  0  0  0
 13  2  1  0  0  0  0
 14  1  1  0  0  0  0
 15 11  1  0  0  0  0
 16 12  1  6  0  0  0
 16  5  1  0  0  0  0
 17 16  1  0  0  0  0
 17  6  1  0  0  0  0
 18 10  1  0  0  0  0
 19  3  2  0  0  0  0
 19 20  1  0  0  0  0
 20 15  2  0  0  0  0
 21  8  1  0  0  0  0
 22 23  2  0  0  0  0
 23 21  1  0  0  0  0
 24 23  1  0  0  0  0
 25 27  1  0  0  0  0
 25 24  1  0  0  0  0
 27 26  1  6  0  0  0
 27 28  1  0  0  0  0
 29 28  1  0  0  0  0
 29 30  1  0  0  0  0
 30 31  1  0  0  0  0
M  END
>  <MODEL>
4

>  <REMARK>
 VINA RESULT:      -7.5      2.060      3.863
  Name = 
  8 active torsions:
  status: ('A' for Active; 'I' for Inactive)
    1  A    between atoms: C_1  and  C_11
    2  A    between atoms: C_3  and  C_9
    3  A    between atoms: C_3  and  O_22
    4  A    between atoms: C_9  and  N_23
    5  A    between atoms: C_11  and  C_24
    6  A    between atoms: C_15  and  N_23
    7  A    between atoms: C_19  and  O_22
    8  A    between atoms: C_19  and  C_24
                            x       y       z     vdW  Elec       q    Type
                         _______ _______ _______ _____ _____    ______ ____

>  <TORSDO>
F 8

$$$$
=
 OpenBabel10262419363D

 31 34  0  0  1  0  0  0  0  0999 V2000
  190.9370  177.0130  142.2730 C   0  0  2  0  0  3  0  0  0  0  0  0
  187.6210  178.2510  140.6680 C   0  0  2  0  0  3  0  0  0  0  0  0
  187.7870  178.1220  139.1630 C   0  0  0  0  0  0  0  0  0  0  0  0
  189.2960  176.7310  137.7840 C   0  0  0  0  0  3  0  0  0  0  0  0
  188.5640  177.3200  141.4680 C   0  0  1  0  0  3  0  0  0  0  0  0
  190.3240  176.0130  143.2640 C   0  0  0  0  0  2  0  0  0  0  0  0
  189.1700  177.9680  138.6080 C   0  0  0  0  0  2  0  0  0  0  0  0
  186.0250  178.3070  142.5770 C   0  0  0  0  0  0  0  0  0  0  0  0
  192.0520  177.7910  142.9440 C   0  0  0  0  0  1  0  0  0  0  0  0
  185.4960  178.7460  138.8830 O   0  0  0  0  0  0  0  0  0  0  0  0
  188.6120  176.5540  136.6580 C   0  0  0  0  0  3  0  0  0  0  0  0
  186.9190  177.7250  143.3820 C   0  0  0  0  0  3  0  0  0  0  0  0
  186.1550  178.0820  141.0940 C   0  0  1  0  0  3  0  0  0  0  0  0
  189.9210  177.9930  141.6740 C   0  0  0  0  0  2  0  0  0  0  0  0
  187.6040  177.4940  136.1370 C   0  0  0  0  0  3  0  0  0  0  0  0
  187.9780  176.8170  142.8230 C   0  0  2  0  0  3  0  0  0  0  0  0
  189.0400  176.5490  143.8930 C   0  0  0  0  0  2  0  0  0  0  0  0
  185.3060  179.0320  140.2650 C   0  0  0  0  0  2  0  0  0  0  0  0
  186.7390  178.3780  138.3430 C   0  0  0  0  0  0  0  0  0  0  0  0
  186.8070  178.2840  136.8670 C   0  0  0  0  0  3  0  0  0  0  0  0
  185.0050  179.1800  143.0930 N   0  0  0  0  0  2  0  0  0  0  0  0
  182.3420  179.0030  143.4090 S   0  0  0  0  0  0  0  0  0  0  0  0
  183.8880  178.8330  143.9260 C   0  0  0  0  0  0  0  0  0  0  0  0
  184.1240  178.6570  145.3840 C   0  0  0  0  0  2  0  0  0  0  0  0
  185.2650  179.3690  145.7660 O   0  0  0  0  0  0  0  0  0  0  0  0
  186.1850  179.7620  147.9430 C   0  0  0  0  0  1  0  0  0  0  0  0
  185.7140  178.7320  146.9270 C   0  0  2  0  0  3  0  0  0  0  0  0
  186.8110  177.7140  146.6040 C   0  0  0  0  0  2  0  0  0  0  0  0
  187.9680  177.7390  147.6020 C   0  0  0  0  0  2  0  0  0  0  0  0
  189.3120  177.8700  146.9010 C   0  0  0  0  0  2  0  0  0  0  0  0
  190.2550  176.7680  147.3480 C   0  0  0  0  0  1  0  0  0  0  0  0
  1  9  1  1  0  0  0
  1  6  1  0  0  0  0
  2  3  1  6  0  0  0
  2 13  1  0  0  0  0
  2  5  1  0  0  0  0
  4  7  1  0  0  0  0
  5 14  1  1  0  0  0
  5 16  1  0  0  0  0
  6 17  1  0  0  0  0
  7  3  1  0  0  0  0
  8 21  1  0  0  0  0
  8 12  2  0  0  0  0
 10 18  1  0  0  0  0
 11  4  2  0  0  0  0
 13 18  1  6  0  0  0
 13  8  1  0  0  0  0
 14  1  1  0  0  0  0
 15 11  1  0  0  0  0
 15 20  2  0  0  0  0
 16 12  1  1  0  0  0
 16 17  1  0  0  0  0
 19 10  1  0  0  0  0
 19  3  2  0  0  0  0
 20 19  1  0  0  0  0
 21 23  1  0  0  0  0
 22 23  2  0  0  0  0
 23 24  1  0  0  0  0
 24 25  1  0  0  0  0
 25 27  1  0  0  0  0
 27 26  1  1  0  0  0
 28 27  1  0  0  0  0
 28 29  1  0  0  0  0
 30 31  1  0  0  0  0
 30 29  1  0  0  0  0
M  END
>  <MODEL>
5

>  <REMARK>
 VINA RESULT:      -7.4      2.607      7.252
  Name = 
  8 active torsions:
  status: ('A' for Active; 'I' for Inactive)
    1  A    between atoms: C_1  and  C_11
    2  A    between atoms: C_3  and  C_9
    3  A    between atoms: C_3  and  O_22
    4  A    between atoms: C_9  and  N_23
    5  A    between atoms: C_11  and  C_24
    6  A    between atoms: C_15  and  N_23
    7  A    between atoms: C_19  and  O_22
    8  A    between atoms: C_19  and  C_24
                            x       y       z     vdW  Elec       q    Type
                         _______ _______ _______ _____ _____    ______ ____

>  <TORSDO>
F 8

$$$$
=
 OpenBabel10262419363D

 31 34  0  0  1  0  0  0  0  0999 V2000
  190.9030  177.5220  143.4080 C   0  0  2  0  0  3  0  0  0  0  0  0
  188.8730  178.0530  140.1360 C   0  0  2  0  0  3  0  0  0  0  0  0
  189.7420  177.5550  138.9950 C   0  0  0  0  0  0  0  0  0  0  0  0
  191.6430  175.9740  138.9370 C   0  0  0  0  0  3  0  0  0  0  0  0
  189.2470  177.4330  141.5040 C   0  0  1  0  0  3  0  0  0  0  0  0
  189.8240  176.7670  144.1970 C   0  0  0  0  0  2  0  0  0  0  0  0
  191.2080  177.3670  139.2420 C   0  0  0  0  0  2  0  0  0  0  0  0
  186.5560  178.4790  140.9410 C   0  0  0  0  0  0  0  0  0  0  0  0
  191.5970  178.5280  144.3060 C   0  0  0  0  0  1  0  0  0  0  0  0
  187.9220  177.9130  137.4860 O   0  0  0  0  0  0  0  0  0  0  0  0
  191.5840  175.4630  137.7120 C   0  0  0  0  0  3  0  0  0  0  0  0
  186.9070  178.1920  142.1980 C   0  0  0  0  0  3  0  0  0  0  0  0
  187.3780  177.8900  139.8250 C   0  0  1  0  0  3  0  0  0  0  0  0
  190.3710  178.2360  142.1590 C   0  0  0  0  0  2  0  0  0  0  0  0
  191.0170  176.1580  136.5430 C   0  0  0  0  0  3  0  0  0  0  0  0
  188.0450  177.2530  142.4820 C   0  0  2  0  0  3  0  0  0  0  0  0
  188.4330  177.3490  143.9610 C   0  0  0  0  0  2  0  0  0  0  0  0
  187.1000  178.5290  138.4740 C   0  0  0  0  0  2  0  0  0  0  0  0
  189.2440  177.5120  137.7350 C   0  0  0  0  0  0  0  0  0  0  0  0
  190.0170  177.0480  136.5600 C   0  0  0  0  0  3  0  0  0  0  0  0
  185.4700  179.3760  140.6500 N   0  0  0  0  0  2  0  0  0  0  0  0
  183.2840  179.4550  139.0900 S   0  0  0  0  0  0  0  0  0  0  0  0
  184.0850  179.0490  140.4610 C   0  0  0  0  0  0  0  0  0  0  0  0
  183.2840  178.6600  141.6520 C   0  0  0  0  0  2  0  0  0  0  0  0
  183.7670  179.3260  142.7820 O   0  0  0  0  0  0  0  0  0  0  0  0
  181.7360  178.6280  143.8470 C   0  0  0  0  0  1  0  0  0  0  0  0
  183.2570  178.6080  143.8680 C   0  0  2  0  0  3  0  0  0  0  0  0
  183.8110  179.1470  145.1900 C   0  0  0  0  0  2  0  0  0  0  0  0
  185.2540  178.7200  145.4570 C   0  0  0  0  0  2  0  0  0  0  0  0
  185.4580  178.3050  146.9070 C   0  0  0  0  0  2  0  0  0  0  0  0
  186.9370  178.2510  147.2420 C   0  0  0  0  0  1  0  0  0  0  0  0
  1  6  1  0  0  0  0
  1  9  1  1  0  0  0
  2  3  1  6  0  0  0
  2  5  1  0  0  0  0
  3  7  1  0  0  0  0
  4  7  1  0  0  0  0
  5 14  1  1  0  0  0
  5 16  1  0  0  0  0
  8 12  2  0  0  0  0
 10 19  1  0  0  0  0
 10 18  1  0  0  0  0
 11  4  2  0  0  0  0
 13 18  1  6  0  0  0
 13  2  1  0  0  0  0
 13  8  1  0  0  0  0
 14  1  1  0  0  0  0
 15 20  2  0  0  0  0
 15 11  1  0  0  0  0
 16 12  1  6  0  0  0
 16 17  1  0  0  0  0
 17  6  1  0  0  0  0
 19  3  2  0  0  0  0
 20 19  1  0  0  0  0
 21  8  1  0  0  0  0
 22 23  2  0  0  0  0
 23 21  1  0  0  0  0
 23 24  1  0  0  0  0
 24 25  1  0  0  0  0
 25 27  1  0  0  0  0
 27 26  1  1  0  0  0
 27 28  1  0  0  0  0
 28 29  1  0  0  0  0
 29 30  1  0  0  0  0
 30 31  1  0  0  0  0
M  END
>  <MODEL>
6

>  <REMARK>
 VINA RESULT:      -7.3      1.748      7.284
  Name = 
  8 active torsions:
  status: ('A' for Active; 'I' for Inactive)
    1  A    between atoms: C_1  and  C_11
    2  A    between atoms: C_3  and  C_9
    3  A    between atoms: C_3  and  O_22
    4  A    between atoms: C_9  and  N_23
    5  A    between atoms: C_11  and  C_24
    6  A    between atoms: C_15  and  N_23
    7  A    between atoms: C_19  and  O_22
    8  A    between atoms: C_19  and  C_24
                            x       y       z     vdW  Elec       q    Type
                         _______ _______ _______ _____ _____    ______ ____

>  <TORSDO>
F 8

$$$$
=
 OpenBabel10262419363D

 31 34  0  0  1  0  0  0  0  0999 V2000
  190.9050  177.0260  145.3300 C   0  0  2  0  0  3  0  0  0  0  0  0
  187.7050  177.5790  143.1930 C   0  0  2  0  0  3  0  0  0  0  0  0
  186.5720  177.8600  144.1650 C   0  0  0  0  0  0  0  0  0  0  0  0
  186.5660  178.6790  146.4990 C   0  0  0  0  0  3  0  0  0  0  0  0
  189.1040  177.8840  143.7820 C   0  0  1  0  0  3  0  0  0  0  0  0
  191.8150  178.0220  144.5960 C   0  0  0  0  0  2  0  0  0  0  0  0
  186.7620  177.5000  145.6080 C   0  0  0  0  0  2  0  0  0  0  0  0
  188.5840  177.9040  140.8870 C   0  0  0  0  0  0  0  0  0  0  0  0
  191.6700  175.7540  145.6390 C   0  0  0  0  0  1  0  0  0  0  0  0
  185.1310  178.3180  142.3130 O   0  0  0  0  0  0  0  0  0  0  0  0
  185.3980  179.3040  146.6050 C   0  0  0  0  0  3  0  0  0  0  0  0
  189.8420  177.9180  141.3350 C   0  0  0  0  0  3  0  0  0  0  0  0
  187.4870  178.2830  141.8470 C   0  0  1  0  0  3  0  0  0  0  0  0
  189.6240  176.6770  144.5620 C   0  0  0  0  0  2  0  0  0  0  0  0
  184.1990  178.9750  145.8130 C   0  0  0  0  0  3  0  0  0  0  0  0
  190.1540  178.3680  142.7350 C   0  0  2  0  0  3  0  0  0  0  0  0
  191.5960  177.9880  143.0860 C   0  0  0  0  0  2  0  0  0  0  0  0
  186.0980  177.9250  141.3420 C   0  0  0  0  0  2  0  0  0  0  0  0
  185.3490  178.2050  143.6950 C   0  0  0  0  0  0  0  0  0  0  0  0
  184.1840  178.4920  144.5640 C   0  0  0  0  0  3  0  0  0  0  0  0
  188.2660  177.4750  139.5510 N   0  0  0  0  0  2  0  0  0  0  0  0
  189.0190  179.0710  137.5240 S   0  0  0  0  0  0  0  0  0  0  0  0
  189.0450  177.6600  138.3590 C   0  0  0  0  0  0  0  0  0  0  0  0
  189.5970  176.4560  137.6840 C   0  0  0  0  0  2  0  0  0  0  0  0
  190.8060  176.0930  138.2840 O   0  0  0  0  0  0  0  0  0  0  0  0
  191.3520  175.8470  135.9630 C   0  0  0  0  0  1  0  0  0  0  0  0
  191.7830  176.3740  137.3230 C   0  0  2  0  0  3  0  0  0  0  0  0
  193.1430  175.8100  137.7440 C   0  0  0  0  0  2  0  0  0  0  0  0
  194.1330  175.6990  136.5850 C   0  0  0  0  0  2  0  0  0  0  0  0
  195.1250  174.5650  136.8000 C   0  0  0  0  0  2  0  0  0  0  0  0
  194.7140  173.7180  137.9910 C   0  0  0  0  0  1  0  0  0  0  0  0
  1  9  1  6  0  0  0
  2  5  1  0  0  0  0
  2  3  1  1  0  0  0
  3  7  1  0  0  0  0
  4 11  2  0  0  0  0
  5 14  1  6  0  0  0
  6  1  1  0  0  0  0
  7  4  1  0  0  0  0
  8 12  2  0  0  0  0
  8 13  1  0  0  0  0
 10 19  1  0  0  0  0
 13 18  1  6  0  0  0
 13  2  1  0  0  0  0
 14  1  1  0  0  0  0
 15 11  1  0  0  0  0
 16 12  1  6  0  0  0
 16 17  1  0  0  0  0
 16  5  1  0  0  0  0
 17  6  1  0  0  0  0
 18 10  1  0  0  0  0
 19  3  2  0  0  0  0
 19 20  1  0  0  0  0
 20 15  2  0  0  0  0
 21  8  1  0  0  0  0
 22 23  2  0  0  0  0
 23 21  1  0  0  0  0
 24 25  1  0  0  0  0
 24 23  1  0  0  0  0
 27 26  1  6  0  0  0
 27 28  1  0  0  0  0
 27 25  1  0  0  0  0
 29 30  1  0  0  0  0
 29 28  1  0  0  0  0
 30 31  1  0  0  0  0
M  END
>  <MODEL>
7

>  <REMARK>
 VINA RESULT:      -7.1      1.146      1.547
  Name = 
  8 active torsions:
  status: ('A' for Active; 'I' for Inactive)
    1  A    between atoms: C_1  and  C_11
    2  A    between atoms: C_3  and  C_9
    3  A    between atoms: C_3  and  O_22
    4  A    between atoms: C_9  and  N_23
    5  A    between atoms: C_11  and  C_24
    6  A    between atoms: C_15  and  N_23
    7  A    between atoms: C_19  and  O_22
    8  A    between atoms: C_19  and  C_24
                            x       y       z     vdW  Elec       q    Type
                         _______ _______ _______ _____ _____    ______ ____

>  <TORSDO>
F 8

$$$$
=
 OpenBabel10262419363D

 31 34  0  0  1  0  0  0  0  0999 V2000
  190.9050  177.6820  143.4800 C   0  0  2  0  0  3  0  0  0  0  0  0
  187.6460  178.4540  141.5080 C   0  0  2  0  0  3  0  0  0  0  0  0
  187.9650  178.2530  140.0370 C   0  0  0  0  0  0  0  0  0  0  0  0
  189.7320  176.9520  138.8960 C   0  0  0  0  0  3  0  0  0  0  0  0
  188.5990  177.6820  142.4510 C   0  0  1  0  0  3  0  0  0  0  0  0
  190.3060  176.6840  144.4810 C   0  0  0  0  0  2  0  0  0  0  0  0
  189.4030  178.2150  139.6160 C   0  0  0  0  0  2  0  0  0  0  0  0
  185.8800  178.4550  143.2630 C   0  0  0  0  0  0  0  0  0  0  0  0
  191.8670  178.6160  144.1880 C   0  0  0  0  0  1  0  0  0  0  0  0
  185.6590  178.6080  139.5140 O   0  0  0  0  0  0  0  0  0  0  0  0
  189.1790  176.6340  137.7290 C   0  0  0  0  0  3  0  0  0  0  0  0
  186.7480  178.0220  144.1810 C   0  0  0  0  0  3  0  0  0  0  0  0
  186.1720  178.1540  141.8160 C   0  0  1  0  0  3  0  0  0  0  0  0
  189.8550  178.5080  142.7270 C   0  0  0  0  0  2  0  0  0  0  0  0
  188.1330  177.4250  137.0570 C   0  0  0  0  0  3  0  0  0  0  0  0
  187.9430  177.2010  143.7820 C   0  0  2  0  0  3  0  0  0  0  0  0
  188.9210  177.1150  144.9570 C   0  0  0  0  0  2  0  0  0  0  0  0
  185.3110  178.9550  140.8510 C   0  0  0  0  0  2  0  0  0  0  0  0
  186.9780  178.3440  139.1120 C   0  0  0  0  0  0  0  0  0  0  0  0
  187.1940  178.1680  137.6580 C   0  0  0  0  0  3  0  0  0  0  0  0
  184.7320  179.2420  143.6250 N   0  0  0  0  0  2  0  0  0  0  0  0
  184.3930  178.6350  146.2210 S   0  0  0  0  0  0  0  0  0  0  0  0
  183.8400  179.0390  144.7310 C   0  0  0  0  0  0  0  0  0  0  0  0
  182.3930  178.8460  144.4440 C   0  0  0  0  0  2  0  0  0  0  0  0
  182.1540  179.0410  143.0810 O   0  0  0  0  0  0  0  0  0  0  0  0
  180.0400  178.2800  143.9150 C   0  0  0  0  0  1  0  0  0  0  0  0
  180.7720  179.2320  142.9820 C   0  0  2  0  0  3  0  0  0  0  0  0
  180.3000  179.0780  141.5330 C   0  0  0  0  0  2  0  0  0  0  0  0
  181.4380  178.7750  140.5590 C   0  0  0  0  0  2  0  0  0  0  0  0
  181.3880  177.3360  140.0670 C   0  0  0  0  0  2  0  0  0  0  0  0
  180.0320  176.7210  140.3590 C   0  0  0  0  0  1  0  0  0  0  0  0
  1  9  1  1  0  0  0
  1  6  1  0  0  0  0
  2  3  1  6  0  0  0
  2 13  1  0  0  0  0
  2  5  1  0  0  0  0
  4  7  1  0  0  0  0
  5 14  1  1  0  0  0
  5 16  1  0  0  0  0
  6 17  1  0  0  0  0
  7  3  1  0  0  0  0
  8 21  1  0  0  0  0
  8 12  2  0  0  0  0
 10 18  1  0  0  0  0
 11  4  2  0  0  0  0
 13 18  1  6  0  0  0
 13  8  1  0  0  0  0
 14  1  1  0  0  0  0
 15 20  2  0  0  0  0
 15 11  1  0  0  0  0
 16 12  1  1  0  0  0
 16 17  1  0  0  0  0
 19 10  1  0  0  0  0
 19  3  2  0  0  0  0
 20 19  1  0  0  0  0
 21 23  1  0  0  0  0
 23 22  2  0  0  0  0
 24 23  1  0  0  0  0
 25 24  1  0  0  0  0
 27 25  1  0  0  0  0
 27 26  1  1  0  0  0
 28 27  1  0  0  0  0
 29 28  1  0  0  0  0
 30 31  1  0  0  0  0
 30 29  1  0  0  0  0
M  END
>  <MODEL>
8

>  <REMARK>
 VINA RESULT:      -7.0      3.164      7.524
  Name = 
  8 active torsions:
  status: ('A' for Active; 'I' for Inactive)
    1  A    between atoms: C_1  and  C_11
    2  A    between atoms: C_3  and  C_9
    3  A    between atoms: C_3  and  O_22
    4  A    between atoms: C_9  and  N_23
    5  A    between atoms: C_11  and  C_24
    6  A    between atoms: C_15  and  N_23
    7  A    between atoms: C_19  and  O_22
    8  A    between atoms: C_19  and  C_24
                            x       y       z     vdW  Elec       q    Type
                         _______ _______ _______ _____ _____    ______ ____

>  <TORSDO>
F 8

$$$$
=
 OpenBabel10262419363D

 31 34  0  0  1  0  0  0  0  0999 V2000
  186.6420  175.8560  136.6250 C   0  0  2  0  0  3  0  0  0  0  0  0
  189.9240  176.5500  138.5890 C   0  0  2  0  0  3  0  0  0  0  0  0
  191.0700  176.0860  137.7060 C   0  0  0  0  0  0  0  0  0  0  0  0
  191.2320  175.7320  135.2640 C   0  0  0  0  0  3  0  0  0  0  0  0
  188.6350  176.8730  137.7970 C   0  0  1  0  0  3  0  0  0  0  0  0
  186.0290  177.2580  136.7510 C   0  0  0  0  0  2  0  0  0  0  0  0
  190.7650  175.1670  136.5630 C   0  0  0  0  0  2  0  0  0  0  0  0
  189.2070  178.0790  140.4180 C   0  0  0  0  0  0  0  0  0  0  0  0
  185.5760  174.8010  136.8400 C   0  0  0  0  0  1  0  0  0  0  0  0
  192.6200  176.9810  139.2920 O   0  0  0  0  0  0  0  0  0  0  0  0
  192.5180  175.9480  135.0040 C   0  0  0  0  0  3  0  0  0  0  0  0
  187.9830  178.1840  139.8920 C   0  0  0  0  0  3  0  0  0  0  0  0
  190.3430  177.7140  139.4990 C   0  0  1  0  0  3  0  0  0  0  0  0
  187.8100  175.6030  137.5860 C   0  0  0  0  0  2  0  0  0  0  0  0
  193.6110  175.7430  135.9700 C   0  0  0  0  0  3  0  0  0  0  0  0
  187.7640  178.0090  138.4150 C   0  0  2  0  0  3  0  0  0  0  0  0
  186.2660  177.8620  138.1330 C   0  0  0  0  0  2  0  0  0  0  0  0
  191.6070  177.3090  140.2390 C   0  0  0  0  0  2  0  0  0  0  0  0
  192.3510  176.3090  138.0890 C   0  0  0  0  0  0  0  0  0  0  0  0
  193.5310  175.8890  137.2990 C   0  0  0  0  0  3  0  0  0  0  0  0
  189.4350  178.2410  141.8280 N   0  0  0  0  0  2  0  0  0  0  0  0
  189.8410  175.7950  142.8640 S   0  0  0  0  0  0  0  0  0  0  0  0
  189.1770  177.2930  142.8760 C   0  0  0  0  0  0  0  0  0  0  0  0
  188.0270  177.5430  143.7850 C   0  0  0  0  0  2  0  0  0  0  0  0
  188.3360  177.0900  145.0700 O   0  0  0  0  0  0  0  0  0  0  0  0
  188.0230  177.6800  147.3710 C   0  0  0  0  0  1  0  0  0  0  0  0
  187.6020  177.9140  145.9290 C   0  0  2  0  0  3  0  0  0  0  0  0
  186.0970  177.7040  145.7370 C   0  0  0  0  0  2  0  0  0  0  0  0
  185.2850  178.9880  145.9000 C   0  0  0  0  0  2  0  0  0  0  0  0
  183.9820  178.9320  145.1160 C   0  0  0  0  0  2  0  0  0  0  0  0
  184.2490  179.0760  143.6290 C   0  0  0  0  0  1  0  0  0  0  0  0
  1  6  1  0  0  0  0
  1  9  1  1  0  0  0
  1 14  1  0  0  0  0
  2  3  1  6  0  0  0
  2 13  1  0  0  0  0
  3 19  2  0  0  0  0
  4  7  1  0  0  0  0
  5 14  1  1  0  0  0
  5 16  1  0  0  0  0
  5  2  1  0  0  0  0
  6 17  1  0  0  0  0
  7  3  1  0  0  0  0
  8 21  1  0  0  0  0
 10 18  1  0  0  0  0
 11  4  2  0  0  0  0
 11 15  1  0  0  0  0
 12  8  2  0  0  0  0
 13 18  1  1  0  0  0
 13  8  1  0  0  0  0
 15 20  2  0  0  0  0
 16 17  1  1  0  0  0
 16 12  1  0  0  0  0
 19 10  1  0  0  0  0
 20 19  1  0  0  0  0
 21 23  1  0  0  0  0
 22 23  2  0  0  0  0
 23 24  1  0  0  0  0
 24 25  1  0  0  0  0
 25 27  1  0  0  0  0
 27 26  1  1  0  0  0
 28 29  1  0  0  0  0
 28 27  1  0  0  0  0
 30 29  1  0  0  0  0
 31 30  1  0  0  0  0
M  END
>  <MODEL>
9

>  <REMARK>
 VINA RESULT:      -6.9      2.264      8.695
  Name = 
  8 active torsions:
  status: ('A' for Active; 'I' for Inactive)
    1  A    between atoms: C_1  and  C_11
    2  A    between atoms: C_3  and  C_9
    3  A    between atoms: C_3  and  O_22
    4  A    between atoms: C_9  and  N_23
    5  A    between atoms: C_11  and  C_24
    6  A    between atoms: C_15  and  N_23
    7  A    between atoms: C_19  and  O_22
    8  A    between atoms: C_19  and  C_24
                            x       y       z     vdW  Elec       q    Type
                         _______ _______ _______ _____ _____    ______ ____

>  <TORSDO>
F 8

$$$$
