=
 OpenBabel10262422223D

 43 47  0  0  1  0  0  0  0  0999 V2000
  189.3780  178.0160  139.0780 C   0  0  0  0  0  0  0  0  0  0  0  0
  184.3870  178.5760  139.7170 C   0  0  0  0  0  0  0  0  0  0  0  0
  183.9960  178.5840  142.4750 C   0  0  0  0  0  0  0  0  0  0  0  0
  186.9970  178.2620  138.7140 C   0  0  0  0  0  0  0  0  0  0  0  0
  189.1760  178.0570  140.4590 C   0  0  0  0  0  3  0  0  0  0  0  0
  190.6310  177.8780  138.5810 F   0  0  0  0  0  0  0  0  0  0  0  0
  186.7840  178.3080  140.1130 C   0  0  0  0  0  0  0  0  0  0  0  0
  188.2910  178.1170  138.2060 C   0  0  0  0  0  3  0  0  0  0  0  0
  187.8850  178.2020  140.9760 C   0  0  0  0  0  3  0  0  0  0  0  0
  185.2470  178.4640  141.9570 N   0  0  0  0  0  0  0  0  0  0  0  0
  185.4770  178.4550  140.6140 C   0  0  0  0  0  0  0  0  0  0  0  0
  184.6200  178.5080  138.3360 C   0  0  0  0  0  3  0  0  0  0  0  0
  183.0850  178.7260  140.2400 C   0  0  0  0  0  0  0  0  0  0  0  0
  182.8970  178.7050  141.6230 C   0  0  0  0  0  3  0  0  0  0  0  0
  185.9150  178.3560  137.8380 C   0  0  0  0  0  3  0  0  0  0  0  0
  183.7780  178.5560  143.9510 C   0  0  2  0  0  3  0  0  0  0  0  0
  182.4120  179.1290  144.2930 C   0  0  0  0  0  1  0  0  0  0  0  0
  184.8910  179.3290  144.6580 C   0  0  0  0  0  2  0  0  0  0  0  0
  185.1190  178.8750  146.1000 C   0  0  2  0  0  3  0  0  0  0  0  0
  185.8660  179.8210  146.8020 O   0  0  0  0  0  1  0  0  0  0  0  0
  185.7930  177.5130  146.1840 C   0  0  0  0  0  2  0  0  0  0  0  0
  187.3110  177.6610  146.2520 C   0  0  1  0  0  3  0  0  0  0  0  0
  187.8200  177.2430  147.6270 C   0  0  0  0  0  2  0  0  0  0  0  0
  190.0060  178.1320  148.4100 C   0  0  0  0  0  1  0  0  0  0  0  0
  188.5170  178.4000  148.3230 C   0  0  0  0  0  2  0  0  0  0  0  0
  188.0140  176.8500  145.1580 C   0  0  2  0  0  3  0  0  0  0  0  0
  189.3740  177.3920  144.8370 C   0  0  0  0  0  0  0  0  0  0  0  0
  190.7440  179.1840  143.9450 C   0  0  0  0  0  3  0  0  0  0  0  0
  191.7930  177.1720  144.7910 C   0  0  0  0  0  3  0  0  0  0  0  0
  191.8980  178.4400  144.2130 C   0  0  0  0  0  3  0  0  0  0  0  0
  190.5330  176.6470  145.1010 C   0  0  0  0  0  3  0  0  0  0  0  0
  189.4850  178.6610  144.2540 C   0  0  0  0  0  3  0  0  0  0  0  0
  187.2290  176.7520  144.0020 O   0  0  0  0  0  0  0  0  0  0  0  0
  187.8150  175.8210  143.2770 O   0  0  0  0  0  1  0  0  0  0  0  0
  181.9290  178.8450  139.4000 N   0  0  0  0  0  2  0  0  0  0  0  0
  179.2550  181.4680  139.3280 C   0  0  0  0  0  3  0  0  0  0  0  0
  179.8540  182.4370  138.5080 C   0  0  0  0  0  0  0  0  0  0  0  0
  181.8150  181.0220  138.3010 C   0  0  0  0  0  3  0  0  0  0  0  0
  179.9340  180.2850  139.6320 C   0  0  0  0  0  3  0  0  0  0  0  0
  181.2240  180.0620  139.1290 C   0  0  0  0  0  0  0  0  0  0  0  0
  181.1350  182.2060  137.9960 C   0  0  0  0  0  3  0  0  0  0  0  0
  179.2030  183.6300  138.1850 O   0  0  0  0  0  0  0  0  0  0  0  0
  179.8960  184.7840  137.7270 C   0  0  0  0  0  1  0  0  0  0  0  0
  1  5  1  0  0  0  0
  2 13  2  0  0  0  0
  2 11  1  0  0  0  0
  3 16  1  0  0  0  0
  4  7  2  0  0  0  0
  5  9  2  0  0  0  0
  6  1  1  0  0  0  0
  7 11  1  0  0  0  0
  7  9  1  0  0  0  0
  8  4  1  0  0  0  0
  8  1  2  0  0  0  0
 10  3  1  0  0  0  0
 11 10  2  0  0  0  0
 12  2  1  0  0  0  0
 13 14  1  0  0  0  0
 14  3  2  0  0  0  0
 15 12  2  0  0  0  0
 15  4  1  0  0  0  0
 16 17  1  6  0  0  0
 16 18  1  0  0  0  0
 18 19  1  0  0  0  0
 19 21  1  0  0  0  0
 19 20  1  6  0  0  0
 22 21  1  1  0  0  0
 22 23  1  0  0  0  0
 23 25  1  0  0  0  0
 25 24  1  0  0  0  0
 26 33  1  6  0  0  0
 26 22  1  0  0  0  0
 27 31  1  0  0  0  0
 27 26  1  0  0  0  0
 28 30  2  0  0  0  0
 28 32  1  0  0  0  0
 29 31  2  0  0  0  0
 30 29  1  0  0  0  0
 32 27  2  0  0  0  0
 34 33  1  0  0  0  0
 35 13  1  0  0  0  0
 36 39  1  0  0  0  0
 37 36  2  0  0  0  0
 38 40  1  0  0  0  0
 40 35  1  0  0  0  0
 40 39  2  0  0  0  0
 41 38  2  0  0  0  0
 41 37  1  0  0  0  0
 42 37  1  0  0  0  0
 43 42  1  0  0  0  0
M  END
>  <MODEL>
1

>  <REMARK>
 VINA RESULT:      -8.5      0.000      0.000
  Name = 
  13 active torsions:
  status: ('A' for Active; 'I' for Inactive)
    1  A    between atoms: N_1  and  C_34
    2  A    between atoms: N_1  and  C_35
    3  A    between atoms: C_2  and  C_6
    4  A    between atoms: C_2  and  C_13
    5  A    between atoms: C_3  and  C_4
    6  A    between atoms: C_3  and  C_12
    7  A    between atoms: C_4  and  C_15
    8  A    between atoms: C_4  and  C_22
    9  A    between atoms: C_6  and  C_12
   10  A    between atoms: C_11  and  C_22
   11  A    between atoms: O_14  and  C_22
   12  A    between atoms: C_15  and  C_42
   13  A    between atoms: C_19  and  O_25
                            x       y       z     vdW  Elec       q    Type
                         _______ _______ _______ _____ _____    ______ ____

>  <TORSDO>
F 13

$$$$
=
 OpenBabel10262422223D

 43 47  0  0  1  0  0  0  0  0999 V2000
  191.3990  176.4820  147.0000 C   0  0  0  0  0  0  0  0  0  0  0  0
  187.0330  177.8200  144.8130 C   0  0  0  0  0  0  0  0  0  0  0  0
  187.6260  178.1140  142.1080 C   0  0  0  0  0  0  0  0  0  0  0  0
  189.0940  177.1020  146.5880 C   0  0  0  0  0  0  0  0  0  0  0  0
  191.6780  176.5970  145.6360 C   0  0  0  0  0  3  0  0  0  0  0  0
  192.3790  176.1250  147.8640 F   0  0  0  0  0  0  0  0  0  0  0  0
  189.3690  177.2170  145.2040 C   0  0  0  0  0  0  0  0  0  0  0  0
  190.1100  176.7360  147.4760 C   0  0  0  0  0  3  0  0  0  0  0  0
  190.6690  176.9630  144.7410 C   0  0  0  0  0  3  0  0  0  0  0  0
  188.5920  177.7390  142.9880 N   0  0  0  0  0  0  0  0  0  0  0  0
  188.3400  177.5860  144.3180 C   0  0  0  0  0  0  0  0  0  0  0  0
  186.7890  177.7190  146.1900 C   0  0  0  0  0  3  0  0  0  0  0  0
  186.0140  178.1860  143.9070 C   0  0  0  0  0  0  0  0  0  0  0  0
  186.3280  178.3530  142.5580 C   0  0  0  0  0  3  0  0  0  0  0  0
  187.8110  177.3590  147.0700 C   0  0  0  0  0  3  0  0  0  0  0  0
  187.9470  178.3030  140.6620 C   0  0  2  0  0  3  0  0  0  0  0  0
  186.6670  178.4000  139.8470 C   0  0  0  0  0  1  0  0  0  0  0  0
  188.8280  177.1570  140.1680 C   0  0  0  0  0  2  0  0  0  0  0  0
  190.1410  177.6310  139.5450 C   0  0  2  0  0  3  0  0  0  0  0  0
  189.9000  178.5780  138.5480 O   0  0  0  0  0  1  0  0  0  0  0  0
  190.9690  176.4840  138.9830 C   0  0  0  0  0  2  0  0  0  0  0  0
  190.9750  176.5150  137.4570 C   0  0  1  0  0  3  0  0  0  0  0  0
  192.3940  176.3250  136.9310 C   0  0  0  0  0  2  0  0  0  0  0  0
  194.2090  174.7190  137.4870 C   0  0  0  0  0  1  0  0  0  0  0  0
  193.3150  175.8170  138.0270 C   0  0  0  0  0  2  0  0  0  0  0  0
  190.0430  175.4540  136.8600 C   0  0  2  0  0  3  0  0  0  0  0  0
  188.6630  175.9860  136.6170 C   0  0  0  0  0  0  0  0  0  0  0  0
  187.2220  177.6450  135.5900 C   0  0  0  0  0  3  0  0  0  0  0  0
  186.2570  175.8770  136.9350 C   0  0  0  0  0  3  0  0  0  0  0  0
  186.1010  177.0180  136.1430 C   0  0  0  0  0  3  0  0  0  0  0  0
  187.5360  175.3620  137.1730 C   0  0  0  0  0  3  0  0  0  0  0  0
  188.5000  177.1310  135.8270 C   0  0  0  0  0  3  0  0  0  0  0  0
  190.0020  174.2990  137.6510 O   0  0  0  0  0  0  0  0  0  0  0  0
  190.5790  173.3700  136.9180 O   0  0  0  0  0  1  0  0  0  0  0  0
  184.6690  178.4490  144.3300 N   0  0  0  0  0  2  0  0  0  0  0  0
  181.1890  179.0730  143.0910 C   0  0  0  0  0  3  0  0  0  0  0  0
  181.3660  178.9080  141.7070 C   0  0  0  0  0  0  0  0  0  0  0  0
  183.7200  178.4540  142.0810 C   0  0  0  0  0  3  0  0  0  0  0  0
  182.2740  178.9310  143.9610 C   0  0  0  0  0  3  0  0  0  0  0  0
  183.5480  178.6320  143.4570 C   0  0  0  0  0  0  0  0  0  0  0  0
  182.6350  178.5960  141.2100 C   0  0  0  0  0  3  0  0  0  0  0  0
  180.3030  179.0450  140.8110 O   0  0  0  0  0  0  0  0  0  0  0  0
  180.3120  179.9880  139.7470 C   0  0  0  0  0  1  0  0  0  0  0  0
  1  8  1  0  0  0  0
  1  6  1  0  0  0  0
  2 12  1  0  0  0  0
  3 14  2  0  0  0  0
  3 10  1  0  0  0  0
  4 15  1  0  0  0  0
  4  8  2  0  0  0  0
  5  1  2  0  0  0  0
  7  4  1  0  0  0  0
  9  7  2  0  0  0  0
  9  5  1  0  0  0  0
 10 11  2  0  0  0  0
 11  2  1  0  0  0  0
 11  7  1  0  0  0  0
 12 15  2  0  0  0  0
 13 35  1  0  0  0  0
 13  2  2  0  0  0  0
 14 13  1  0  0  0  0
 16 17  1  6  0  0  0
 16  3  1  0  0  0  0
 18 16  1  0  0  0  0
 19 20  1  6  0  0  0
 19 18  1  0  0  0  0
 21 19  1  0  0  0  0
 22 23  1  6  0  0  0
 22 21  1  0  0  0  0
 23 25  1  0  0  0  0
 24 25  1  0  0  0  0
 26 22  1  0  0  0  0
 26 33  1  1  0  0  0
 27 26  1  0  0  0  0
 27 31  1  0  0  0  0
 28 32  1  0  0  0  0
 28 30  2  0  0  0  0
 29 31  2  0  0  0  0
 30 29  1  0  0  0  0
 32 27  2  0  0  0  0
 34 33  1  0  0  0  0
 36 39  1  0  0  0  0
 37 36  2  0  0  0  0
 38 40  1  0  0  0  0
 40 39  2  0  0  0  0
 40 35  1  0  0  0  0
 41 37  1  0  0  0  0
 41 38  2  0  0  0  0
 42 37  1  0  0  0  0
 43 42  1  0  0  0  0
M  END
>  <MODEL>
2

>  <REMARK>
 VINA RESULT:      -8.4      3.205      7.567
  Name = 
  13 active torsions:
  status: ('A' for Active; 'I' for Inactive)
    1  A    between atoms: N_1  and  C_34
    2  A    between atoms: N_1  and  C_35
    3  A    between atoms: C_2  and  C_6
    4  A    between atoms: C_2  and  C_13
    5  A    between atoms: C_3  and  C_4
    6  A    between atoms: C_3  and  C_12
    7  A    between atoms: C_4  and  C_15
    8  A    between atoms: C_4  and  C_22
    9  A    between atoms: C_6  and  C_12
   10  A    between atoms: C_11  and  C_22
   11  A    between atoms: O_14  and  C_22
   12  A    between atoms: C_15  and  C_42
   13  A    between atoms: C_19  and  O_25
                            x       y       z     vdW  Elec       q    Type
                         _______ _______ _______ _____ _____    ______ ____

>  <TORSDO>
F 13

$$$$
=
 OpenBabel10262422223D

 43 47  0  0  1  0  0  0  0  0999 V2000
  183.7730  179.2220  139.5130 C   0  0  0  0  0  0  0  0  0  0  0  0
  188.4990  177.6620  138.5780 C   0  0  0  0  0  0  0  0  0  0  0  0
  189.6800  177.3530  141.0810 C   0  0  0  0  0  0  0  0  0  0  0  0
  185.8340  178.5530  138.4310 C   0  0  0  0  0  0  0  0  0  0  0  0
  184.3630  179.0290  140.7650 C   0  0  0  0  0  3  0  0  0  0  0  0
  182.4870  179.6380  139.4280 F   0  0  0  0  0  0  0  0  0  0  0  0
  186.4380  178.3530  139.6960 C   0  0  0  0  0  0  0  0  0  0  0  0
  184.5070  178.9850  138.3480 C   0  0  0  0  0  3  0  0  0  0  0  0
  185.6890  178.5970  140.8570 C   0  0  0  0  0  3  0  0  0  0  0  0
  188.3840  177.7540  140.9750 N   0  0  0  0  0  0  0  0  0  0  0  0
  187.7740  177.9160  139.7690 C   0  0  0  0  0  0  0  0  0  0  0  0
  187.8860  177.8860  137.3360 C   0  0  0  0  0  3  0  0  0  0  0  0
  189.8360  177.2220  138.6720 C   0  0  0  0  0  0  0  0  0  0  0  0
  190.4260  177.0940  139.9310 C   0  0  0  0  0  3  0  0  0  0  0  0
  186.5630  178.3250  137.2630 C   0  0  0  0  0  3  0  0  0  0  0  0
  190.3260  177.2170  142.4200 C   0  0  2  0  0  3  0  0  0  0  0  0
  190.3240  175.7620  142.8600 C   0  0  0  0  0  1  0  0  0  0  0  0
  189.6070  178.1000  143.4390 C   0  0  0  0  0  2  0  0  0  0  0  0
  190.5600  178.7930  144.4140 C   0  0  2  0  0  3  0  0  0  0  0  0
  191.8720  178.3640  144.2090 O   0  0  0  0  0  1  0  0  0  0  0  0
  190.1640  178.5790  145.8690 C   0  0  0  0  0  2  0  0  0  0  0  0
  189.3550  177.2950  146.0280 C   0  0  1  0  0  3  0  0  0  0  0  0
  190.2360  176.1830  146.5870 C   0  0  0  0  0  2  0  0  0  0  0  0
  192.4290  175.6680  147.6400 C   0  0  0  0  0  1  0  0  0  0  0  0
  191.4150  176.7580  147.3540 C   0  0  0  0  0  2  0  0  0  0  0  0
  188.1300  177.5000  146.9260 C   0  0  2  0  0  3  0  0  0  0  0  0
  186.9080  177.8720  146.1400 C   0  0  0  0  0  0  0  0  0  0  0  0
  185.6840  177.8230  144.0470 C   0  0  0  0  0  3  0  0  0  0  0  0
  184.7350  178.9440  145.9720 C   0  0  0  0  0  3  0  0  0  0  0  0
  184.6460  178.5530  144.6330 C   0  0  0  0  0  3  0  0  0  0  0  0
  185.8650  178.6070  146.7240 C   0  0  0  0  0  3  0  0  0  0  0  0
  186.8140  177.4840  144.7980 C   0  0  0  0  0  3  0  0  0  0  0  0
  188.3800  178.4380  147.9360 O   0  0  0  0  0  0  0  0  0  0  0  0
  188.1450  177.7920  149.0590 O   0  0  0  0  0  1  0  0  0  0  0  0
  190.6400  176.9530  137.5160 N   0  0  0  0  0  2  0  0  0  0  0  0
  192.3470  173.6710  136.9230 C   0  0  0  0  0  3  0  0  0  0  0  0
  193.6530  173.9710  137.3410 C   0  0  0  0  0  0  0  0  0  0  0  0
  192.9480  176.2340  137.8570 C   0  0  0  0  0  3  0  0  0  0  0  0
  191.3500  174.6490  136.9700 C   0  0  0  0  0  3  0  0  0  0  0  0
  191.6500  175.9410  137.4270 C   0  0  0  0  0  0  0  0  0  0  0  0
  193.9460  175.2550  137.8090 C   0  0  0  0  0  3  0  0  0  0  0  0
  194.6720  173.0150  137.3060 O   0  0  0  0  0  0  0  0  0  0  0  0
  195.7690  173.0300  138.2100 C   0  0  0  0  0  1  0  0  0  0  0  0
  1  5  1  0  0  0  0
  2 13  2  0  0  0  0
  2 11  1  0  0  0  0
  3 16  1  0  0  0  0
  4  7  2  0  0  0  0
  5  9  2  0  0  0  0
  6  1  1  0  0  0  0
  7 11  1  0  0  0  0
  7  9  1  0  0  0  0
  8  4  1  0  0  0  0
  8  1  2  0  0  0  0
 10  3  1  0  0  0  0
 11 10  2  0  0  0  0
 12  2  1  0  0  0  0
 13 14  1  0  0  0  0
 14  3  2  0  0  0  0
 15 12  2  0  0  0  0
 15  4  1  0  0  0  0
 16 17  1  1  0  0  0
 16 18  1  0  0  0  0
 18 19  1  0  0  0  0
 19 20  1  1  0  0  0
 19 21  1  0  0  0  0
 22 21  1  1  0  0  0
 22 23  1  0  0  0  0
 22 26  1  0  0  0  0
 23 25  1  0  0  0  0
 25 24  1  0  0  0  0
 26 33  1  1  0  0  0
 27 31  1  0  0  0  0
 27 26  1  0  0  0  0
 28 30  2  0  0  0  0
 28 32  1  0  0  0  0
 29 31  2  0  0  0  0
 30 29  1  0  0  0  0
 32 27  2  0  0  0  0
 33 34  1  0  0  0  0
 35 13  1  0  0  0  0
 36 39  2  0  0  0  0
 36 37  1  0  0  0  0
 37 41  2  0  0  0  0
 39 40  1  0  0  0  0
 40 35  1  0  0  0  0
 40 38  2  0  0  0  0
 41 38  1  0  0  0  0
 42 37  1  0  0  0  0
 42 43  1  0  0  0  0
M  END
>  <MODEL>
3

>  <REMARK>
 VINA RESULT:      -8.4      3.683      8.148
  Name = 
  13 active torsions:
  status: ('A' for Active; 'I' for Inactive)
    1  A    between atoms: N_1  and  C_34
    2  A    between atoms: N_1  and  C_35
    3  A    between atoms: C_2  and  C_6
    4  A    between atoms: C_2  and  C_13
    5  A    between atoms: C_3  and  C_4
    6  A    between atoms: C_3  and  C_12
    7  A    between atoms: C_4  and  C_15
    8  A    between atoms: C_4  and  C_22
    9  A    between atoms: C_6  and  C_12
   10  A    between atoms: C_11  and  C_22
   11  A    between atoms: O_14  and  C_22
   12  A    between atoms: C_15  and  C_42
   13  A    between atoms: C_19  and  O_25
                            x       y       z     vdW  Elec       q    Type
                         _______ _______ _______ _____ _____    ______ ____

>  <TORSDO>
F 13

$$$$
=
 OpenBabel10262422223D

 43 47  0  0  1  0  0  0  0  0999 V2000
  184.8080  178.6170  145.3450 C   0  0  0  0  0  0  0  0  0  0  0  0
  183.1300  178.6950  140.5680 C   0  0  0  0  0  0  0  0  0  0  0  0
  185.3970  178.3600  138.9870 C   0  0  0  0  0  0  0  0  0  0  0  0
  183.4200  178.7680  143.3660 C   0  0  0  0  0  0  0  0  0  0  0  0
  185.9340  178.4140  144.5440 C   0  0  0  0  0  3  0  0  0  0  0  0
  184.9310  178.6420  146.6940 F   0  0  0  0  0  0  0  0  0  0  0  0
  184.5570  178.5590  142.5480 C   0  0  0  0  0  0  0  0  0  0  0  0
  183.5520  178.7960  144.7570 C   0  0  0  0  0  3  0  0  0  0  0  0
  185.8110  178.3850  143.1520 C   0  0  0  0  0  3  0  0  0  0  0  0
  185.4990  178.3710  140.3430 N   0  0  0  0  0  0  0  0  0  0  0  0
  184.4120  178.5330  141.1480 C   0  0  0  0  0  0  0  0  0  0  0  0
  182.0210  178.9200  141.3980 C   0  0  0  0  0  3  0  0  0  0  0  0
  183.0060  178.6620  139.1630 C   0  0  0  0  0  0  0  0  0  0  0  0
  184.1520  178.5180  138.3790 C   0  0  0  0  0  3  0  0  0  0  0  0
  182.1650  178.9530  142.7860 C   0  0  0  0  0  3  0  0  0  0  0  0
  186.6150  178.2130  138.1350 C   0  0  2  0  0  3  0  0  0  0  0  0
  186.3720  177.1840  137.0430 C   0  0  0  0  0  1  0  0  0  0  0  0
  187.8130  177.8240  138.9990 C   0  0  0  0  0  2  0  0  0  0  0  0
  189.0430  178.6990  138.7530 C   0  0  2  0  0  3  0  0  0  0  0  0
  188.7860  179.6410  137.7570 O   0  0  0  0  0  1  0  0  0  0  0  0
  190.2770  177.8830  138.3910 C   0  0  0  0  0  2  0  0  0  0  0  0
  190.3850  176.6410  139.2720 C   0  0  1  0  0  3  0  0  0  0  0  0
  190.7040  175.4170  138.4210 C   0  0  0  0  0  2  0  0  0  0  0  0
  189.3700  173.8900  136.9830 C   0  0  0  0  0  1  0  0  0  0  0  0
  189.7730  175.3310  137.2240 C   0  0  0  0  0  2  0  0  0  0  0  0
  191.4400  176.8110  140.3720 C   0  0  2  0  0  3  0  0  0  0  0  0
  190.8230  176.9500  141.7310 C   0  0  0  0  0  0  0  0  0  0  0  0
  188.9380  176.5760  143.2100 C   0  0  0  0  0  3  0  0  0  0  0  0
  190.9180  177.6940  144.0420 C   0  0  0  0  0  3  0  0  0  0  0  0
  189.6300  177.1950  144.2550 C   0  0  0  0  0  3  0  0  0  0  0  0
  191.5140  177.5740  142.7810 C   0  0  0  0  0  3  0  0  0  0  0  0
  189.5320  176.4540  141.9510 C   0  0  0  0  0  3  0  0  0  0  0  0
  192.3000  177.8830  140.1010 O   0  0  0  0  0  0  0  0  0  0  0  0
  193.4640  177.3220  139.8480 O   0  0  0  0  0  1  0  0  0  0  0  0
  181.7460  178.8280  138.4990 N   0  0  0  0  0  2  0  0  0  0  0  0
  180.5660  181.0100  135.6910 C   0  0  0  0  0  3  0  0  0  0  0  0
  180.6650  182.2800  136.2810 C   0  0  0  0  0  0  0  0  0  0  0  0
  181.4650  181.2470  138.3260 C   0  0  0  0  0  3  0  0  0  0  0  0
  180.9130  179.8670  136.4170 C   0  0  0  0  0  3  0  0  0  0  0  0
  181.3530  179.9800  137.7440 C   0  0  0  0  0  0  0  0  0  0  0  0
  181.1180  182.3910  137.6000 C   0  0  0  0  0  3  0  0  0  0  0  0
  180.3250  183.4420  135.5830 O   0  0  0  0  0  0  0  0  0  0  0  0
  180.8380  184.7220  135.9280 C   0  0  0  0  0  1  0  0  0  0  0  0
  1  6  1  0  0  0  0
  2 11  1  0  0  0  0
  2 12  1  0  0  0  0
  3 10  1  0  0  0  0
  4  8  2  0  0  0  0
  5  1  2  0  0  0  0
  7  9  2  0  0  0  0
  7  4  1  0  0  0  0
  8  1  1  0  0  0  0
  9  5  1  0  0  0  0
 10 11  2  0  0  0  0
 11  7  1  0  0  0  0
 12 15  2  0  0  0  0
 13  2  2  0  0  0  0
 14  3  2  0  0  0  0
 14 13  1  0  0  0  0
 15  4  1  0  0  0  0
 16 17  1  6  0  0  0
 16  3  1  0  0  0  0
 16 18  1  0  0  0  0
 19 20  1  6  0  0  0
 19 18  1  0  0  0  0
 21 19  1  0  0  0  0
 22 21  1  6  0  0  0
 22 26  1  0  0  0  0
 23 22  1  0  0  0  0
 24 25  1  0  0  0  0
 25 23  1  0  0  0  0
 26 33  1  6  0  0  0
 26 27  1  0  0  0  0
 27 32  2  0  0  0  0
 27 31  1  0  0  0  0
 28 30  2  0  0  0  0
 29 30  1  0  0  0  0
 31 29  2  0  0  0  0
 32 28  1  0  0  0  0
 34 33  1  0  0  0  0
 35 13  1  0  0  0  0
 36 37  2  0  0  0  0
 36 39  1  0  0  0  0
 37 41  1  0  0  0  0
 39 40  2  0  0  0  0
 40 38  1  0  0  0  0
 40 35  1  0  0  0  0
 41 38  2  0  0  0  0
 42 43  1  0  0  0  0
 42 37  1  0  0  0  0
M  END
>  <MODEL>
4

>  <REMARK>
 VINA RESULT:      -8.4      3.018      5.810
  Name = 
  13 active torsions:
  status: ('A' for Active; 'I' for Inactive)
    1  A    between atoms: N_1  and  C_34
    2  A    between atoms: N_1  and  C_35
    3  A    between atoms: C_2  and  C_6
    4  A    between atoms: C_2  and  C_13
    5  A    between atoms: C_3  and  C_4
    6  A    between atoms: C_3  and  C_12
    7  A    between atoms: C_4  and  C_15
    8  A    between atoms: C_4  and  C_22
    9  A    between atoms: C_6  and  C_12
   10  A    between atoms: C_11  and  C_22
   11  A    between atoms: O_14  and  C_22
   12  A    between atoms: C_15  and  C_42
   13  A    between atoms: C_19  and  O_25
                            x       y       z     vdW  Elec       q    Type
                         _______ _______ _______ _____ _____    ______ ____

>  <TORSDO>
F 13

$$$$
=
 OpenBabel10262422223D

 43 47  0  0  1  0  0  0  0  0999 V2000
  187.8890  177.5050  147.5180 C   0  0  0  0  0  0  0  0  0  0  0  0
  186.0160  178.6020  142.9430 C   0  0  0  0  0  0  0  0  0  0  0  0
  187.9930  177.8390  141.1370 C   0  0  0  0  0  0  0  0  0  0  0  0
  186.4840  178.2650  145.6970 C   0  0  0  0  0  0  0  0  0  0  0  0
  188.8600  177.0930  146.6010 C   0  0  0  0  0  3  0  0  0  0  0  0
  188.0970  177.3370  148.8450 F   0  0  0  0  0  0  0  0  0  0  0  0
  187.4620  177.8460  144.7620 C   0  0  0  0  0  0  0  0  0  0  0  0
  186.7040  178.0920  147.0660 C   0  0  0  0  0  3  0  0  0  0  0  0
  188.6490  177.2620  145.2300 C   0  0  0  0  0  3  0  0  0  0  0  0
  188.1750  177.6620  142.4730 N   0  0  0  0  0  0  0  0  0  0  0  0
  187.2310  178.0240  143.3850 C   0  0  0  0  0  0  0  0  0  0  0  0
  185.0700  179.0270  143.8880 C   0  0  0  0  0  3  0  0  0  0  0  0
  185.8020  178.7680  141.5580 C   0  0  0  0  0  0  0  0  0  0  0  0
  186.8090  178.4050  140.6630 C   0  0  0  0  0  3  0  0  0  0  0  0
  185.3010  178.8560  145.2540 C   0  0  0  0  0  3  0  0  0  0  0  0
  189.0640  177.4600  140.1670 C   0  0  2  0  0  3  0  0  0  0  0  0
  190.3630  177.1740  140.9030 C   0  0  0  0  0  1  0  0  0  0  0  0
  189.2500  178.5710  139.1350 C   0  0  0  0  0  2  0  0  0  0  0  0
  188.8600  178.1490  137.7180 C   0  0  2  0  0  3  0  0  0  0  0  0
  187.8640  178.9850  137.2120 O   0  0  0  0  0  1  0  0  0  0  0  0
  188.4090  176.6970  137.6440 C   0  0  0  0  0  2  0  0  0  0  0  0
  189.2460  175.9190  136.6330 C   0  0  1  0  0  3  0  0  0  0  0  0
  190.4380  175.2670  137.3260 C   0  0  0  0  0  2  0  0  0  0  0  0
  192.5710  176.3530  137.9970 C   0  0  0  0  0  1  0  0  0  0  0  0
  191.7460  175.8570  136.8270 C   0  0  0  0  0  2  0  0  0  0  0  0
  188.4160  174.8590  135.8990 C   0  0  2  0  0  3  0  0  0  0  0  0
  187.0240  174.7520  136.4460 C   0  0  0  0  0  0  0  0  0  0  0  0
  184.8270  175.7330  136.7550 C   0  0  0  0  0  3  0  0  0  0  0  0
  185.3060  173.5370  137.6590 C   0  0  0  0  0  3  0  0  0  0  0  0
  184.4160  174.5960  137.4590 C   0  0  0  0  0  3  0  0  0  0  0  0
  186.6090  173.6150  137.1560 C   0  0  0  0  0  3  0  0  0  0  0  0
  186.1290  175.8110  136.2510 C   0  0  0  0  0  3  0  0  0  0  0  0
  189.0520  173.6110  135.9020 O   0  0  0  0  0  0  0  0  0  0  0  0
  189.1530  173.2830  134.6310 O   0  0  0  0  0  1  0  0  0  0  0  0
  184.6040  179.3530  141.0300 N   0  0  0  0  0  2  0  0  0  0  0  0
  182.2590  176.8290  139.5590 C   0  0  0  0  0  3  0  0  0  0  0  0
  181.9510  177.4360  138.3300 C   0  0  0  0  0  0  0  0  0  0  0  0
  183.3900  179.3010  138.9120 C   0  0  0  0  0  3  0  0  0  0  0  0
  183.1260  177.4570  140.4570 C   0  0  0  0  0  3  0  0  0  0  0  0
  183.6870  178.7030  140.1420 C   0  0  0  0  0  0  0  0  0  0  0  0
  182.5230  178.6720  138.0140 C   0  0  0  0  0  3  0  0  0  0  0  0
  181.0870  176.8350  137.4110 O   0  0  0  0  0  0  0  0  0  0  0  0
  180.8340  175.4360  137.3990 C   0  0  0  0  0  1  0  0  0  0  0  0
  1  6  1  0  0  0  0
  2 11  1  0  0  0  0
  2 12  1  0  0  0  0
  3 10  1  0  0  0  0
  4  8  2  0  0  0  0
  5  1  2  0  0  0  0
  7  9  2  0  0  0  0
  7  4  1  0  0  0  0
  8  1  1  0  0  0  0
  9  5  1  0  0  0  0
 10 11  2  0  0  0  0
 11  7  1  0  0  0  0
 12 15  2  0  0  0  0
 13  2  2  0  0  0  0
 14  3  2  0  0  0  0
 14 13  1  0  0  0  0
 15  4  1  0  0  0  0
 16 17  1  1  0  0  0
 16  3  1  0  0  0  0
 18 16  1  0  0  0  0
 19 20  1  1  0  0  0
 19 18  1  0  0  0  0
 21 19  1  0  0  0  0
 22 23  1  1  0  0  0
 22 21  1  0  0  0  0
 25 23  1  0  0  0  0
 25 24  1  0  0  0  0
 26 33  1  1  0  0  0
 26 27  1  0  0  0  0
 26 22  1  0  0  0  0
 27 31  1  0  0  0  0
 28 30  2  0  0  0  0
 30 29  1  0  0  0  0
 31 29  2  0  0  0  0
 32 27  2  0  0  0  0
 32 28  1  0  0  0  0
 34 33  1  0  0  0  0
 35 13  1  0  0  0  0
 36 39  1  0  0  0  0
 37 36  2  0  0  0  0
 38 40  1  0  0  0  0
 40 39  2  0  0  0  0
 40 35  1  0  0  0  0
 41 37  1  0  0  0  0
 41 38  2  0  0  0  0
 42 37  1  0  0  0  0
 43 42  1  0  0  0  0
M  END
>  <MODEL>
5

>  <REMARK>
 VINA RESULT:      -8.1      3.725      7.718
  Name = 
  13 active torsions:
  status: ('A' for Active; 'I' for Inactive)
    1  A    between atoms: N_1  and  C_34
    2  A    between atoms: N_1  and  C_35
    3  A    between atoms: C_2  and  C_6
    4  A    between atoms: C_2  and  C_13
    5  A    between atoms: C_3  and  C_4
    6  A    between atoms: C_3  and  C_12
    7  A    between atoms: C_4  and  C_15
    8  A    between atoms: C_4  and  C_22
    9  A    between atoms: C_6  and  C_12
   10  A    between atoms: C_11  and  C_22
   11  A    between atoms: O_14  and  C_22
   12  A    between atoms: C_15  and  C_42
   13  A    between atoms: C_19  and  O_25
                            x       y       z     vdW  Elec       q    Type
                         _______ _______ _______ _____ _____    ______ ____

>  <TORSDO>
F 13

$$$$
=
 OpenBabel10262422223D

 43 47  0  0  1  0  0  0  0  0999 V2000
  187.8420  177.5380  147.5590 C   0  0  0  0  0  0  0  0  0  0  0  0
  185.8730  178.6250  143.0230 C   0  0  0  0  0  0  0  0  0  0  0  0
  187.7630  177.7540  141.1730 C   0  0  0  0  0  0  0  0  0  0  0  0
  186.4120  178.3200  145.7670 C   0  0  0  0  0  0  0  0  0  0  0  0
  188.7680  177.0720  146.6220 C   0  0  0  0  0  3  0  0  0  0  0  0
  188.0840  177.3860  148.8830 F   0  0  0  0  0  0  0  0  0  0  0  0
  187.3450  177.8460  144.8120 C   0  0  0  0  0  0  0  0  0  0  0  0
  186.6670  178.1630  147.1330 C   0  0  0  0  0  3  0  0  0  0  0  0
  188.5220  177.2240  145.2550 C   0  0  0  0  0  3  0  0  0  0  0  0
  187.9800  177.5940  142.5060 N   0  0  0  0  0  0  0  0  0  0  0  0
  187.0790  178.0080  143.4400 C   0  0  0  0  0  0  0  0  0  0  0  0
  184.9740  179.1030  143.9870 C   0  0  0  0  0  3  0  0  0  0  0  0
  185.6240  178.7750  141.6420 C   0  0  0  0  0  0  0  0  0  0  0  0
  186.5880  178.3570  140.7240 C   0  0  0  0  0  3  0  0  0  0  0  0
  185.2400  178.9480  145.3490 C   0  0  0  0  0  3  0  0  0  0  0  0
  188.7880  177.3170  140.1790 C   0  0  2  0  0  3  0  0  0  0  0  0
  190.1290  177.9650  140.4860 C   0  0  0  0  0  1  0  0  0  0  0  0
  188.3240  177.6600  138.7650 C   0  0  0  0  0  2  0  0  0  0  0  0
  189.4380  178.2320  137.8870 C   0  0  2  0  0  3  0  0  0  0  0  0
  189.0610  179.4650  137.3550 O   0  0  0  0  0  1  0  0  0  0  0  0
  189.8440  177.2840  136.7660 C   0  0  0  0  0  2  0  0  0  0  0  0
  188.6880  176.3590  136.3920 C   0  0  1  0  0  3  0  0  0  0  0  0
  188.2220  176.6470  134.9690 C   0  0  0  0  0  2  0  0  0  0  0  0
  186.0210  177.3540  135.8830 C   0  0  0  0  0  1  0  0  0  0  0  0
  187.1580  177.7320  134.9550 C   0  0  0  0  0  2  0  0  0  0  0  0
  189.0710  174.8810  136.5350 C   0  0  2  0  0  3  0  0  0  0  0  0
  187.8780  173.9770  136.4510 C   0  0  0  0  0  0  0  0  0  0  0  0
  185.7210  173.2900  137.3230 C   0  0  0  0  0  3  0  0  0  0  0  0
  186.6660  172.1500  135.4060 C   0  0  0  0  0  3  0  0  0  0  0  0
  185.6330  172.3030  136.3360 C   0  0  0  0  0  3  0  0  0  0  0  0
  187.7880  172.9840  135.4640 C   0  0  0  0  0  3  0  0  0  0  0  0
  186.8410  174.1240  137.3820 C   0  0  0  0  0  3  0  0  0  0  0  0
  189.7960  174.6460  137.7100 O   0  0  0  0  0  0  0  0  0  0  0  0
  190.6830  173.7310  137.3780 O   0  0  0  0  0  1  0  0  0  0  0  0
  184.4330  179.3970  141.1400 N   0  0  0  0  0  2  0  0  0  0  0  0
  182.1750  179.0120  138.1750 C   0  0  0  0  0  3  0  0  0  0  0  0
  181.7550  177.6810  138.3310 C   0  0  0  0  0  0  0  0  0  0  0  0
  183.1180  177.5050  140.3310 C   0  0  0  0  0  3  0  0  0  0  0  0
  183.0620  179.5830  139.0920 C   0  0  0  0  0  3  0  0  0  0  0  0
  183.5480  178.8260  140.1690 C   0  0  0  0  0  0  0  0  0  0  0  0
  182.2300  176.9350  139.4140 C   0  0  0  0  0  3  0  0  0  0  0  0
  180.8690  177.0810  137.4330 O   0  0  0  0  0  0  0  0  0  0  0  0
  180.9070  175.6920  137.1300 C   0  0  0  0  0  1  0  0  0  0  0  0
  1  6  1  0  0  0  0
  2 11  1  0  0  0  0
  2 12  1  0  0  0  0
  3 10  1  0  0  0  0
  4  8  2  0  0  0  0
  5  1  2  0  0  0  0
  7  9  2  0  0  0  0
  7  4  1  0  0  0  0
  8  1  1  0  0  0  0
  9  5  1  0  0  0  0
 10 11  2  0  0  0  0
 11  7  1  0  0  0  0
 12 15  2  0  0  0  0
 13  2  2  0  0  0  0
 14  3  2  0  0  0  0
 14 13  1  0  0  0  0
 15  4  1  0  0  0  0
 16 17  1  1  0  0  0
 16  3  1  0  0  0  0
 18 16  1  0  0  0  0
 19 20  1  6  0  0  0
 19 18  1  0  0  0  0
 21 19  1  0  0  0  0
 22 23  1  6  0  0  0
 22 26  1  0  0  0  0
 22 21  1  0  0  0  0
 25 23  1  0  0  0  0
 25 24  1  0  0  0  0
 26 33  1  1  0  0  0
 27 26  1  0  0  0  0
 27 32  1  0  0  0  0
 28 32  2  0  0  0  0
 29 31  1  0  0  0  0
 29 30  2  0  0  0  0
 30 28  1  0  0  0  0
 31 27  2  0  0  0  0
 34 33  1  0  0  0  0
 35 13  1  0  0  0  0
 36 37  2  0  0  0  0
 36 39  1  0  0  0  0
 37 41  1  0  0  0  0
 39 40  2  0  0  0  0
 40 38  1  0  0  0  0
 40 35  1  0  0  0  0
 41 38  2  0  0  0  0
 42 37  1  0  0  0  0
 43 42  1  0  0  0  0
M  END
>  <MODEL>
6

>  <REMARK>
 VINA RESULT:      -8.1      3.745      7.950
  Name = 
  13 active torsions:
  status: ('A' for Active; 'I' for Inactive)
    1  A    between atoms: N_1  and  C_34
    2  A    between atoms: N_1  and  C_35
    3  A    between atoms: C_2  and  C_6
    4  A    between atoms: C_2  and  C_13
    5  A    between atoms: C_3  and  C_4
    6  A    between atoms: C_3  and  C_12
    7  A    between atoms: C_4  and  C_15
    8  A    between atoms: C_4  and  C_22
    9  A    between atoms: C_6  and  C_12
   10  A    between atoms: C_11  and  C_22
   11  A    between atoms: O_14  and  C_22
   12  A    between atoms: C_15  and  C_42
   13  A    between atoms: C_19  and  O_25
                            x       y       z     vdW  Elec       q    Type
                         _______ _______ _______ _____ _____    ______ ____

>  <TORSDO>
F 13

$$$$
=
 OpenBabel10262422223D

 43 47  0  0  1  0  0  0  0  0999 V2000
  192.6070  174.4040  135.6040 C   0  0  0  0  0  0  0  0  0  0  0  0
  189.2020  177.2380  138.0570 C   0  0  0  0  0  0  0  0  0  0  0  0
  189.9210  177.0910  140.7430 C   0  0  0  0  0  0  0  0  0  0  0  0
  190.7230  175.8210  136.1600 C   0  0  0  0  0  0  0  0  0  0  0  0
  192.9800  174.3660  136.9500 C   0  0  0  0  0  3  0  0  0  0  0  0
  193.3380  173.7370  134.6800 F   0  0  0  0  0  0  0  0  0  0  0  0
  191.0980  175.7900  137.5260 C   0  0  0  0  0  0  0  0  0  0  0  0
  191.4790  175.1300  135.2100 C   0  0  0  0  0  3  0  0  0  0  0  0
  192.2300  175.0540  137.9080 C   0  0  0  0  0  3  0  0  0  0  0  0
  190.6520  176.4420  139.7970 N   0  0  0  0  0  0  0  0  0  0  0  0
  190.3310  176.4910  138.4750 C   0  0  0  0  0  0  0  0  0  0  0  0
  188.8390  177.2390  136.7020 C   0  0  0  0  0  3  0  0  0  0  0  0
  188.4480  177.9370  139.0230 C   0  0  0  0  0  0  0  0  0  0  0  0
  188.8030  177.8360  140.3690 C   0  0  0  0  0  3  0  0  0  0  0  0
  189.5960  176.5390  135.7610 C   0  0  0  0  0  3  0  0  0  0  0  0
  190.2840  176.9880  142.1870 C   0  0  2  0  0  3  0  0  0  0  0  0
  189.8780  175.6300  142.7370 C   0  0  0  0  0  1  0  0  0  0  0  0
  189.6230  178.1180  142.9740 C   0  0  0  0  0  2  0  0  0  0  0  0
  190.5720  178.8020  143.9600 C   0  0  2  0  0  3  0  0  0  0  0  0
  191.8950  178.4450  143.6980 O   0  0  0  0  0  1  0  0  0  0  0  0
  190.2280  178.4940  145.4110 C   0  0  0  0  0  2  0  0  0  0  0  0
  189.3880  177.2230  145.5120 C   0  0  1  0  0  3  0  0  0  0  0  0
  190.2210  176.0870  146.0950 C   0  0  0  0  0  2  0  0  0  0  0  0
  192.1680  175.9970  147.6380 C   0  0  0  0  0  1  0  0  0  0  0  0
  191.6600  176.5240  146.3110 C   0  0  0  0  0  2  0  0  0  0  0  0
  188.1250  177.4390  146.3540 C   0  0  2  0  0  3  0  0  0  0  0  0
  186.9560  177.8680  145.5200 C   0  0  0  0  0  0  0  0  0  0  0  0
  184.8780  179.1050  145.3270 C   0  0  0  0  0  3  0  0  0  0  0  0
  185.7200  177.8590  143.4280 C   0  0  0  0  0  3  0  0  0  0  0  0
  184.7490  178.6870  143.9980 C   0  0  0  0  0  3  0  0  0  0  0  0
  186.8210  177.4480  144.1880 C   0  0  0  0  0  3  0  0  0  0  0  0
  185.9780  178.6960  146.0870 C   0  0  0  0  0  3  0  0  0  0  0  0
  188.3500  178.3410  147.4020 O   0  0  0  0  0  0  0  0  0  0  0  0
  188.6810  177.5850  148.4290 O   0  0  0  0  0  1  0  0  0  0  0  0
  187.2870  178.7070  138.6830 N   0  0  0  0  0  2  0  0  0  0  0  0
  183.9620  177.1510  137.9390 C   0  0  0  0  0  3  0  0  0  0  0  0
  183.2460  177.4840  139.1000 C   0  0  0  0  0  0  0  0  0  0  0  0
  185.2130  178.6090  139.9670 C   0  0  0  0  0  3  0  0  0  0  0  0
  185.2950  177.5440  137.7970 C   0  0  0  0  0  3  0  0  0  0  0  0
  185.9310  178.2650  138.8170 C   0  0  0  0  0  0  0  0  0  0  0  0
  183.8790  178.2160  140.1100 C   0  0  0  0  0  3  0  0  0  0  0  0
  181.9120  177.1060  139.2730 O   0  0  0  0  0  0  0  0  0  0  0  0
  180.8580  178.0510  139.4080 C   0  0  0  0  0  1  0  0  0  0  0  0
  1  5  1  0  0  0  0
  2 11  1  0  0  0  0
  2 13  1  0  0  0  0
  3 16  1  0  0  0  0
  4  7  1  0  0  0  0
  5  9  2  0  0  0  0
  6  1  1  0  0  0  0
  7  9  1  0  0  0  0
  7 11  2  0  0  0  0
  8  1  2  0  0  0  0
  8  4  1  0  0  0  0
 10  3  2  0  0  0  0
 11 10  1  0  0  0  0
 12  2  2  0  0  0  0
 13 14  2  0  0  0  0
 14  3  1  0  0  0  0
 15  4  2  0  0  0  0
 15 12  1  0  0  0  0
 16 17  1  1  0  0  0
 16 18  1  0  0  0  0
 18 19  1  0  0  0  0
 19 20  1  6  0  0  0
 19 21  1  0  0  0  0
 22 21  1  1  0  0  0
 22 23  1  0  0  0  0
 22 26  1  0  0  0  0
 23 25  1  0  0  0  0
 25 24  1  0  0  0  0
 26 33  1  1  0  0  0
 27 32  1  0  0  0  0
 27 26  1  0  0  0  0
 28 32  2  0  0  0  0
 29 30  2  0  0  0  0
 29 31  1  0  0  0  0
 30 28  1  0  0  0  0
 31 27  2  0  0  0  0
 33 34  1  0  0  0  0
 35 40  1  0  0  0  0
 35 13  1  0  0  0  0
 36 37  1  0  0  0  0
 37 42  1  0  0  0  0
 37 41  2  0  0  0  0
 38 41  1  0  0  0  0
 39 36  2  0  0  0  0
 39 40  1  0  0  0  0
 40 38  2  0  0  0  0
 42 43  1  0  0  0  0
M  END
>  <MODEL>
7

>  <REMARK>
 VINA RESULT:      -8.0      3.066      5.526
  Name = 
  13 active torsions:
  status: ('A' for Active; 'I' for Inactive)
    1  A    between atoms: N_1  and  C_34
    2  A    between atoms: N_1  and  C_35
    3  A    between atoms: C_2  and  C_6
    4  A    between atoms: C_2  and  C_13
    5  A    between atoms: C_3  and  C_4
    6  A    between atoms: C_3  and  C_12
    7  A    between atoms: C_4  and  C_15
    8  A    between atoms: C_4  and  C_22
    9  A    between atoms: C_6  and  C_12
   10  A    between atoms: C_11  and  C_22
   11  A    between atoms: O_14  and  C_22
   12  A    between atoms: C_15  and  C_42
   13  A    between atoms: C_19  and  O_25
                            x       y       z     vdW  Elec       q    Type
                         _______ _______ _______ _____ _____    ______ ____

>  <TORSDO>
F 13

$$$$
=
 OpenBabel10262422223D

 43 47  0  0  1  0  0  0  0  0999 V2000
  181.0530  179.1760  141.5700 C   0  0  0  0  0  0  0  0  0  0  0  0
  185.2330  178.3790  144.3150 C   0  0  0  0  0  0  0  0  0  0  0  0
  187.2300  177.7980  142.4620 C   0  0  0  0  0  0  0  0  0  0  0  0
  182.6260  178.8950  143.3900 C   0  0  0  0  0  0  0  0  0  0  0  0
  182.0700  178.9190  140.6470 C   0  0  0  0  0  3  0  0  0  0  0  0
  179.7970  179.4390  141.1380 F   0  0  0  0  0  0  0  0  0  0  0  0
  183.6620  178.6370  142.4600 C   0  0  0  0  0  0  0  0  0  0  0  0
  181.3310  179.1630  142.9400 C   0  0  0  0  0  3  0  0  0  0  0  0
  183.3690  178.6500  141.0880 C   0  0  0  0  0  3  0  0  0  0  0  0
  185.9660  178.0810  142.0470 N   0  0  0  0  0  0  0  0  0  0  0  0
  184.9640  178.3690  142.9230 C   0  0  0  0  0  0  0  0  0  0  0  0
  184.1870  178.6180  145.2180 C   0  0  0  0  0  3  0  0  0  0  0  0
  186.5460  178.1110  144.7590 C   0  0  0  0  0  0  0  0  0  0  0  0
  187.5330  177.7980  143.8230 C   0  0  0  0  0  3  0  0  0  0  0  0
  182.8950  178.8780  144.7590 C   0  0  0  0  0  3  0  0  0  0  0  0
  188.2950  177.4550  141.4730 C   0  0  2  0  0  3  0  0  0  0  0  0
  189.5960  177.1350  142.1920 C   0  0  0  0  0  1  0  0  0  0  0  0
  188.4810  178.6050  140.4850 C   0  0  0  0  0  2  0  0  0  0  0  0
  188.1440  178.2220  139.0440 C   0  0  2  0  0  3  0  0  0  0  0  0
  186.7810  178.3880  138.7960 O   0  0  0  0  0  1  0  0  0  0  0  0
  188.5650  176.7980  138.7040 C   0  0  0  0  0  2  0  0  0  0  0  0
  189.5000  176.7820  137.4980 C   0  0  1  0  0  3  0  0  0  0  0  0
  189.3050  178.0430  136.6630 C   0  0  0  0  0  2  0  0  0  0  0  0
  187.5350  177.2510  135.1070 C   0  0  0  0  0  1  0  0  0  0  0  0
  188.9800  177.6950  135.2210 C   0  0  0  0  0  2  0  0  0  0  0  0
  190.9690  176.6450  137.9160 C   0  0  2  0  0  3  0  0  0  0  0  0
  191.7200  175.6880  137.0390 C   0  0  0  0  0  0  0  0  0  0  0  0
  192.4060  173.4140  136.5490 C   0  0  0  0  0  3  0  0  0  0  0  0
  193.1320  175.2280  135.1170 C   0  0  0  0  0  3  0  0  0  0  0  0
  193.1170  173.8660  135.4320 C   0  0  0  0  0  3  0  0  0  0  0  0
  192.4360  176.1380  135.9200 C   0  0  0  0  0  3  0  0  0  0  0  0
  191.7100  174.3230  137.3520 C   0  0  0  0  0  3  0  0  0  0  0  0
  191.0910  176.2900  139.2650 O   0  0  0  0  0  0  0  0  0  0  0  0
  192.0500  177.0640  139.7290 O   0  0  0  0  0  1  0  0  0  0  0  0
  186.8970  178.0930  146.1490 N   0  0  0  0  0  2  0  0  0  0  0  0
  189.8360  177.8540  148.4600 C   0  0  0  0  0  3  0  0  0  0  0  0
  190.7860  177.2490  147.6210 C   0  0  0  0  0  0  0  0  0  0  0  0
  189.1490  177.2040  145.8310 C   0  0  0  0  0  3  0  0  0  0  0  0
  188.5510  178.1280  147.9850 C   0  0  0  0  0  3  0  0  0  0  0  0
  188.1980  177.7930  146.6700 C   0  0  0  0  0  0  0  0  0  0  0  0
  190.4350  176.9290  146.3060 C   0  0  0  0  0  3  0  0  0  0  0  0
  192.0790  176.9600  148.0650 O   0  0  0  0  0  0  0  0  0  0  0  0
  192.6530  175.6630  147.9670 C   0  0  0  0  0  1  0  0  0  0  0  0
  1  8  1  0  0  0  0
  2 13  1  0  0  0  0
  2 12  1  0  0  0  0
  3 14  1  0  0  0  0
  4 15  1  0  0  0  0
  5  9  1  0  0  0  0
  5  1  2  0  0  0  0
  6  1  1  0  0  0  0
  7 11  1  0  0  0  0
  7  4  1  0  0  0  0
  8  4  2  0  0  0  0
  9  7  2  0  0  0  0
 10  3  2  0  0  0  0
 10 11  1  0  0  0  0
 11  2  2  0  0  0  0
 13 35  1  0  0  0  0
 14 13  2  0  0  0  0
 15 12  2  0  0  0  0
 16 17  1  1  0  0  0
 16  3  1  0  0  0  0
 18 16  1  0  0  0  0
 19 20  1  1  0  0  0
 19 18  1  0  0  0  0
 21 19  1  0  0  0  0
 22 23  1  1  0  0  0
 22 26  1  0  0  0  0
 22 21  1  0  0  0  0
 24 25  1  0  0  0  0
 25 23  1  0  0  0  0
 26 33  1  1  0  0  0
 27 32  1  0  0  0  0
 27 26  1  0  0  0  0
 28 32  2  0  0  0  0
 29 30  2  0  0  0  0
 29 31  1  0  0  0  0
 30 28  1  0  0  0  0
 31 27  2  0  0  0  0
 33 34  1  0  0  0  0
 35 40  1  0  0  0  0
 37 42  1  0  0  0  0
 37 36  2  0  0  0  0
 38 41  2  0  0  0  0
 38 40  1  0  0  0  0
 39 36  1  0  0  0  0
 40 39  2  0  0  0  0
 41 37  1  0  0  0  0
 43 42  1  0  0  0  0
M  END
>  <MODEL>
8

>  <REMARK>
 VINA RESULT:      -7.9      3.536      9.478
  Name = 
  13 active torsions:
  status: ('A' for Active; 'I' for Inactive)
    1  A    between atoms: N_1  and  C_34
    2  A    between atoms: N_1  and  C_35
    3  A    between atoms: C_2  and  C_6
    4  A    between atoms: C_2  and  C_13
    5  A    between atoms: C_3  and  C_4
    6  A    between atoms: C_3  and  C_12
    7  A    between atoms: C_4  and  C_15
    8  A    between atoms: C_4  and  C_22
    9  A    between atoms: C_6  and  C_12
   10  A    between atoms: C_11  and  C_22
   11  A    between atoms: O_14  and  C_22
   12  A    between atoms: C_15  and  C_42
   13  A    between atoms: C_19  and  O_25
                            x       y       z     vdW  Elec       q    Type
                         _______ _______ _______ _____ _____    ______ ____

>  <TORSDO>
F 13

$$$$
=
 OpenBabel10262422223D

 43 47  0  0  1  0  0  0  0  0999 V2000
  188.7110  177.1300  146.7940 C   0  0  0  0  0  0  0  0  0  0  0  0
  186.2920  178.4170  142.5350 C   0  0  0  0  0  0  0  0  0  0  0  0
  188.2030  178.2250  140.5190 C   0  0  0  0  0  0  0  0  0  0  0  0
  187.0470  177.8440  145.1850 C   0  0  0  0  0  0  0  0  0  0  0  0
  189.6520  177.0020  145.7700 C   0  0  0  0  0  3  0  0  0  0  0  0
  189.0570  176.8450  148.0720 F   0  0  0  0  0  0  0  0  0  0  0  0
  187.9960  177.7140  144.1410 C   0  0  0  0  0  0  0  0  0  0  0  0
  187.4100  177.5510  146.5020 C   0  0  0  0  0  3  0  0  0  0  0  0
  189.2990  177.2930  144.4490 C   0  0  0  0  0  3  0  0  0  0  0  0
  188.5270  177.9270  141.8050 N   0  0  0  0  0  0  0  0  0  0  0  0
  187.6200  178.0100  142.8180 C   0  0  0  0  0  0  0  0  0  0  0  0
  185.3760  178.5570  143.5880 C   0  0  0  0  0  3  0  0  0  0  0  0
  185.9350  178.7050  141.2010 C   0  0  0  0  0  0  0  0  0  0  0  0
  186.9060  178.6300  140.2020 C   0  0  0  0  0  3  0  0  0  0  0  0
  185.7490  178.2690  144.9010 C   0  0  0  0  0  3  0  0  0  0  0  0
  189.2330  178.1550  139.4400 C   0  0  2  0  0  3  0  0  0  0  0  0
  188.6360  178.5970  138.1130 C   0  0  0  0  0  1  0  0  0  0  0  0
  189.7940  176.7370  139.3440 C   0  0  0  0  0  2  0  0  0  0  0  0
  191.3180  176.6840  139.4560 C   0  0  2  0  0  3  0  0  0  0  0  0
  191.7650  177.5030  140.4920 O   0  0  0  0  0  1  0  0  0  0  0  0
  192.0130  177.0630  138.1550 C   0  0  0  0  0  2  0  0  0  0  0  0
  192.0760  175.8710  137.2050 C   0  0  1  0  0  3  0  0  0  0  0  0
  191.0210  176.0100  136.1130 C   0  0  0  0  0  2  0  0  0  0  0  0
  190.2610  173.8330  137.0450 C   0  0  0  0  0  1  0  0  0  0  0  0
  190.4000  174.6630  135.7840 C   0  0  0  0  0  2  0  0  0  0  0  0
  193.4670  175.7120  136.5790 C   0  0  2  0  0  3  0  0  0  0  0  0
  194.1630  174.4720  137.0530 C   0  0  0  0  0  0  0  0  0  0  0  0
  194.7980  172.1630  136.6650 C   0  0  0  0  0  3  0  0  0  0  0  0
  195.4510  173.2640  138.7210 C   0  0  0  0  0  3  0  0  0  0  0  0
  195.4450  172.1290  137.9040 C   0  0  0  0  0  3  0  0  0  0  0  0
  194.8100  174.4330  138.2970 C   0  0  0  0  0  3  0  0  0  0  0  0
  194.1570  173.3310  136.2400 C   0  0  0  0  0  3  0  0  0  0  0  0
  194.2620  176.8450  136.7940 O   0  0  0  0  0  0  0  0  0  0  0  0
  195.0740  176.8860  135.7570 O   0  0  0  0  0  1  0  0  0  0  0  0
  184.6160  179.1320  140.8350 N   0  0  0  0  0  2  0  0  0  0  0  0
  182.1820  176.5020  139.7420 C   0  0  0  0  0  3  0  0  0  0  0  0
  181.9470  176.8920  138.4130 C   0  0  0  0  0  0  0  0  0  0  0  0
  183.4700  178.7570  138.7120 C   0  0  0  0  0  3  0  0  0  0  0  0
  183.0530  177.2390  140.5480 C   0  0  0  0  0  3  0  0  0  0  0  0
  183.6930  178.3780  140.0390 C   0  0  0  0  0  0  0  0  0  0  0  0
  182.5970  178.0200  137.9050 C   0  0  0  0  0  3  0  0  0  0  0  0
  181.0810  176.1780  137.5810 O   0  0  0  0  0  0  0  0  0  0  0  0
  181.3820  174.8750  137.0980 C   0  0  0  0  0  1  0  0  0  0  0  0
  1  6  1  0  0  0  0
  2 11  1  0  0  0  0
  2 12  1  0  0  0  0
  3 10  1  0  0  0  0
  4  8  2  0  0  0  0
  5  1  2  0  0  0  0
  7  9  2  0  0  0  0
  7  4  1  0  0  0  0
  8  1  1  0  0  0  0
  9  5  1  0  0  0  0
 10 11  2  0  0  0  0
 11  7  1  0  0  0  0
 12 15  2  0  0  0  0
 13  2  2  0  0  0  0
 14  3  2  0  0  0  0
 14 13  1  0  0  0  0
 15  4  1  0  0  0  0
 16 17  1  6  0  0  0
 16  3  1  0  0  0  0
 18 16  1  0  0  0  0
 18 19  1  0  0  0  0
 19 20  1  1  0  0  0
 21 19  1  0  0  0  0
 22 23  1  6  0  0  0
 22 21  1  0  0  0  0
 25 23  1  0  0  0  0
 25 24  1  0  0  0  0
 26 33  1  1  0  0  0
 26 27  1  0  0  0  0
 26 22  1  0  0  0  0
 27 31  1  0  0  0  0
 28 30  2  0  0  0  0
 30 29  1  0  0  0  0
 31 29  2  0  0  0  0
 32 28  1  0  0  0  0
 32 27  2  0  0  0  0
 34 33  1  0  0  0  0
 35 13  1  0  0  0  0
 36 39  1  0  0  0  0
 37 36  2  0  0  0  0
 38 40  1  0  0  0  0
 40 39  2  0  0  0  0
 40 35  1  0  0  0  0
 41 37  1  0  0  0  0
 41 38  2  0  0  0  0
 42 37  1  0  0  0  0
 43 42  1  0  0  0  0
M  END
>  <MODEL>
9

>  <REMARK>
 VINA RESULT:      -7.8      4.605      7.901
  Name = 
  13 active torsions:
  status: ('A' for Active; 'I' for Inactive)
    1  A    between atoms: N_1  and  C_34
    2  A    between atoms: N_1  and  C_35
    3  A    between atoms: C_2  and  C_6
    4  A    between atoms: C_2  and  C_13
    5  A    between atoms: C_3  and  C_4
    6  A    between atoms: C_3  and  C_12
    7  A    between atoms: C_4  and  C_15
    8  A    between atoms: C_4  and  C_22
    9  A    between atoms: C_6  and  C_12
   10  A    between atoms: C_11  and  C_22
   11  A    between atoms: O_14  and  C_22
   12  A    between atoms: C_15  and  C_42
   13  A    between atoms: C_19  and  O_25
                            x       y       z     vdW  Elec       q    Type
                         _______ _______ _______ _____ _____    ______ ____

>  <TORSDO>
F 13

$$$$
