=
 OpenBabel10262420483D

 28 33  0  0  1  0  0  0  0  0999 V2000
  187.7720  176.8950  144.0390 C   0  0  1  0  0  3  0  0  0  0  0  0
  189.3110  176.7720  144.0350 C   0  0  1  0  0  3  0  0  0  0  0  0
  188.9390  177.1400  141.5150 C   0  0  2  0  0  3  0  0  0  0  0  0
  186.2640  177.8750  138.5560 C   0  0  0  0  0  3  0  0  0  0  0  0
  183.9460  178.5900  144.5050 N   0  0  0  0  0  1  0  0  0  0  0  0
  191.1540  178.2540  144.0450 C   0  0  2  0  0  3  0  0  0  0  0  0
  189.9580  176.9460  142.6510 C   0  0  1  0  0  3  0  0  0  0  0  0
  190.4620  177.2140  146.1800 C   0  0  0  0  0  1  0  0  0  0  0  0
  189.2440  177.8960  137.8700 C   0  0  0  0  0  3  0  0  0  0  0  0
  186.9810  178.4820  140.7640 N   0  0  0  0  0  0  0  0  0  0  0  0
  189.9760  177.8240  144.8790 C   0  0  2  0  0  3  0  0  0  0  0  0
  187.2920  178.1360  136.3370 C   0  0  0  0  0  0  0  0  0  0  0  0
  187.2760  178.0500  139.4190 C   0  0  0  0  0  0  0  0  0  0  0  0
  189.6470  177.3860  140.1860 C   0  0  0  0  0  2  0  0  0  0  0  0
  188.5750  178.3330  136.6310 C   0  0  0  0  0  3  0  0  0  0  0  0
  186.1390  178.6990  143.4390 C   0  0  0  0  0  0  0  0  0  0  0  0
  187.9740  178.2890  141.8390 C   0  0  1  0  0  3  0  0  0  0  0  0
  188.6900  177.7080  139.0780 C   0  0  0  0  0  0  0  0  0  0  0  0
  185.6800  177.1280  145.3670 C   0  0  0  0  0  2  0  0  0  0  0  0
  185.6810  179.7530  142.4680 C   0  0  0  0  0  2  0  0  0  0  0  0
  185.3780  178.4820  144.7310 C   0  0  2  0  0  3  0  0  0  0  0  0
  191.4340  179.7280  144.2690 C   0  0  0  0  0  1  0  0  0  0  0  0
  186.8060  178.6100  135.1650 F   0  0  0  0  0  0  0  0  0  0  0  0
  186.4120  177.2920  137.1910 C   0  0  0  0  0  2  0  0  0  0  0  0
  185.7210  179.1970  141.0430 C   0  0  0  0  0  2  0  0  0  0  0  0
  187.1830  176.9200  145.4500 C   0  0  0  0  0  2  0  0  0  0  0  0
  187.2790  178.0300  143.1600 C   0  0  0  0  0  0  0  0  0  0  0  0
  190.8550  178.0330  142.6920 O   0  0  0  0  0  0  0  0  0  0  0  0
  1 26  1  1  0  0  0
  2  1  1  0  0  0  0
  2 11  1  0  0  0  0
  3 17  1  0  0  0  0
  3  7  1  0  0  0  0
  4 13  2  0  0  0  0
  5 21  1  0  0  0  0
  6 22  1  0  0  0  0
  6 11  1  0  0  0  0
  7 28  1  0  0  0  0
  7  2  1  0  0  0  0
  9 18  2  0  0  0  0
 10 25  1  0  0  0  0
 10 17  1  0  0  0  0
 11  8  1  0  0  0  0
 12 15  2  0  0  0  0
 12 24  1  0  0  0  0
 13 10  1  0  0  0  0
 14  3  1  0  0  0  0
 15  9  1  0  0  0  0
 16 21  1  0  0  0  0
 17 27  1  0  0  0  0
 18 13  1  0  0  0  0
 18 14  1  0  0  0  0
 19 26  1  0  0  0  0
 20 16  1  0  0  0  0
 21 19  1  0  0  0  0
 23 12  1  0  0  0  0
 24  4  1  0  0  0  0
 25 20  1  0  0  0  0
 27 16  2  0  0  0  0
 27  1  1  0  0  0  0
 28  6  1  0  0  0  0
M  END
>  <MODEL>
1

>  <REMARK>
 VINA RESULT:      -9.2      0.000      0.000
  Name = 
  0 active torsions:
  status: ('A' for Active; 'I' for Inactive)
                            x       y       z     vdW  Elec       q    Type
                         _______ _______ _______ _____ _____    ______ ____

>  <TORSDO>
F 0

$$$$
=
 OpenBabel10262420483D

 28 33  0  0  1  0  0  0  0  0999 V2000
  183.8500  177.2230  138.4430 C   0  0  1  0  0  3  0  0  0  0  0  0
  182.4630  177.8380  138.7330 C   0  0  1  0  0  3  0  0  0  0  0  0
  183.4970  178.0700  141.0790 C   0  0  2  0  0  3  0  0  0  0  0  0
  186.7820  177.5580  143.4010 C   0  0  0  0  0  3  0  0  0  0  0  0
  187.8270  176.9050  137.0960 N   0  0  0  0  0  1  0  0  0  0  0  0
  181.5390  180.0110  138.8550 C   0  0  2  0  0  3  0  0  0  0  0  0
  182.2820  178.3410  140.1740 C   0  0  1  0  0  3  0  0  0  0  0  0
  181.2060  178.6980  136.7840 C   0  0  0  0  0  1  0  0  0  0  0  0
  184.3620  179.0000  144.5910 C   0  0  0  0  0  3  0  0  0  0  0  0
  185.9600  178.3580  141.2940 N   0  0  0  0  0  0  0  0  0  0  0  0
  182.1830  179.0500  137.8900 C   0  0  2  0  0  3  0  0  0  0  0  0
  186.4900  178.3430  145.7130 C   0  0  0  0  0  0  0  0  0  0  0  0
  185.8000  178.1600  142.7140 C   0  0  0  0  0  0  0  0  0  0  0  0
  183.2830  178.6620  142.4680 C   0  0  0  0  0  2  0  0  0  0  0  0
  185.4060  179.1110  145.6260 C   0  0  0  0  0  3  0  0  0  0  0  0
  186.2090  178.0670  138.5070 C   0  0  0  0  0  0  0  0  0  0  0  0
  184.7820  178.6200  140.4440 C   0  0  1  0  0  3  0  0  0  0  0  0
  184.4950  178.5340  143.3400 C   0  0  0  0  0  0  0  0  0  0  0  0
  185.4780  176.4020  136.7480 C   0  0  0  0  0  2  0  0  0  0  0  0
  187.2930  178.8120  139.2370 C   0  0  0  0  0  2  0  0  0  0  0  0
  186.4910  177.4750  137.1410 C   0  0  2  0  0  3  0  0  0  0  0  0
  181.9150  181.4350  138.4940 C   0  0  0  0  0  1  0  0  0  0  0  0
  187.3780  178.5720  146.7100 F   0  0  0  0  0  0  0  0  0  0  0  0
  186.6850  177.1580  144.8340 C   0  0  0  0  0  2  0  0  0  0  0  0
  187.3130  178.3870  140.7070 C   0  0  0  0  0  2  0  0  0  0  0  0
  184.0660  176.9220  136.9590 C   0  0  0  0  0  2  0  0  0  0  0  0
  184.9800  178.0220  139.0660 C   0  0  0  0  0  0  0  0  0  0  0  0
  181.9890  179.7200  140.1510 O   0  0  0  0  0  0  0  0  0  0  0  0
  1 26  1  6  0  0  0
  1  2  1  0  0  0  0
  1 27  1  0  0  0  0
  2  7  1  0  0  0  0
  3 14  1  0  0  0  0
  4 24  1  0  0  0  0
  5 21  1  0  0  0  0
  6 28  1  0  0  0  0
  7  3  1  0  0  0  0
  8 11  1  0  0  0  0
  9 15  1  0  0  0  0
 10 13  1  0  0  0  0
 11  2  1  0  0  0  0
 11  6  1  0  0  0  0
 12 23  1  0  0  0  0
 13 18  1  0  0  0  0
 13  4  2  0  0  0  0
 14 18  1  0  0  0  0
 15 12  2  0  0  0  0
 16 27  2  0  0  0  0
 16 20  1  0  0  0  0
 17  3  1  0  0  0  0
 17 10  1  0  0  0  0
 18  9  2  0  0  0  0
 19 26  1  0  0  0  0
 19 21  1  0  0  0  0
 20 25  1  0  0  0  0
 21 16  1  0  0  0  0
 22  6  1  0  0  0  0
 24 12  1  0  0  0  0
 25 10  1  0  0  0  0
 27 17  1  0  0  0  0
 28  7  1  0  0  0  0
M  END
>  <MODEL>
2

>  <REMARK>
 VINA RESULT:      -8.1      3.810      7.962
  Name = 
  0 active torsions:
  status: ('A' for Active; 'I' for Inactive)
                            x       y       z     vdW  Elec       q    Type
                         _______ _______ _______ _____ _____    ______ ____

>  <TORSDO>
F 0

$$$$
=
 OpenBabel10262420483D

 28 33  0  0  1  0  0  0  0  0999 V2000
  182.1330  177.2330  139.2640 C   0  0  1  0  0  3  0  0  0  0  0  0
  180.8420  177.8170  139.8780 C   0  0  1  0  0  3  0  0  0  0  0  0
  182.4050  178.0950  141.9050 C   0  0  2  0  0  3  0  0  0  0  0  0
  186.1650  177.6810  143.3660 C   0  0  0  0  0  3  0  0  0  0  0  0
  185.6740  176.9960  136.9980 N   0  0  0  0  0  1  0  0  0  0  0  0
  179.9210  179.9690  140.2130 C   0  0  2  0  0  3  0  0  0  0  0  0
  181.0010  178.3290  141.3190 C   0  0  1  0  0  3  0  0  0  0  0  0
  179.1300  178.6310  138.2880 C   0  0  0  0  0  1  0  0  0  0  0  0
  184.0680  179.0760  145.1010 C   0  0  0  0  0  3  0  0  0  0  0  0
  184.8400  178.4430  141.5170 N   0  0  0  0  0  0  0  0  0  0  0  0
  180.3360  179.0150  139.1240 C   0  0  2  0  0  3  0  0  0  0  0  0
  186.4200  178.4810  145.6790 C   0  0  0  0  0  0  0  0  0  0  0  0
  185.0320  178.2540  142.9350 C   0  0  0  0  0  0  0  0  0  0  0  0
  182.5170  178.6950  143.3030 C   0  0  0  0  0  2  0  0  0  0  0  0
  185.3280  179.2220  145.8530 C   0  0  0  0  0  3  0  0  0  0  0  0
  184.4160  178.1320  138.7540 C   0  0  0  0  0  0  0  0  0  0  0  0
  183.4850  178.6690  140.9770 C   0  0  1  0  0  3  0  0  0  0  0  0
  183.9080  178.6020  143.8560 C   0  0  0  0  0  0  0  0  0  0  0  0
  183.3240  176.4350  137.2290 C   0  0  0  0  0  2  0  0  0  0  0  0
  185.6240  178.9100  139.1980 C   0  0  0  0  0  2  0  0  0  0  0  0
  184.3740  177.5350  137.3620 C   0  0  2  0  0  3  0  0  0  0  0  0
  180.1630  181.3980  139.7670 C   0  0  0  0  0  1  0  0  0  0  0  0
  187.5170  178.7380  146.4300 F   0  0  0  0  0  0  0  0  0  0  0  0
  186.4270  177.2920  144.7820 C   0  0  0  0  0  2  0  0  0  0  0  0
  186.0100  178.4990  140.6210 C   0  0  0  0  0  2  0  0  0  0  0  0
  181.9920  176.9240  137.7730 C   0  0  0  0  0  2  0  0  0  0  0  0
  183.3600  178.0630  139.5940 C   0  0  0  0  0  0  0  0  0  0  0  0
  180.6770  179.7010  141.3630 O   0  0  0  0  0  0  0  0  0  0  0  0
  1 26  1  6  0  0  0
  1 27  1  0  0  0  0
  1  2  1  0  0  0  0
  2  7  1  0  0  0  0
  3 14  1  0  0  0  0
  4 24  1  0  0  0  0
  5 21  1  0  0  0  0
  6 28  1  0  0  0  0
  7 28  1  0  0  0  0
  7  3  1  0  0  0  0
  8 11  1  0  0  0  0
  9 15  1  0  0  0  0
 10 13  1  0  0  0  0
 11  2  1  0  0  0  0
 11  6  1  0  0  0  0
 12 15  2  0  0  0  0
 12 23  1  0  0  0  0
 13  4  2  0  0  0  0
 13 18  1  0  0  0  0
 14 18  1  0  0  0  0
 16 20  1  0  0  0  0
 16 27  2  0  0  0  0
 17 10  1  0  0  0  0
 17  3  1  0  0  0  0
 18  9  2  0  0  0  0
 19 21  1  0  0  0  0
 19 26  1  0  0  0  0
 20 25  1  0  0  0  0
 21 16  1  0  0  0  0
 22  6  1  0  0  0  0
 24 12  1  0  0  0  0
 25 10  1  0  0  0  0
 27 17  1  0  0  0  0
M  END
>  <MODEL>
3

>  <REMARK>
 VINA RESULT:      -7.8      4.527      8.371
  Name = 
  0 active torsions:
  status: ('A' for Active; 'I' for Inactive)
                            x       y       z     vdW  Elec       q    Type
                         _______ _______ _______ _____ _____    ______ ____

>  <TORSDO>
F 0

$$$$
=
 OpenBabel10262420483D

 28 33  0  0  1  0  0  0  0  0999 V2000
  182.2820  179.9600  139.8510 C   0  0  1  0  0  3  0  0  0  0  0  0
  183.2540  179.2890  138.8570 C   0  0  1  0  0  3  0  0  0  0  0  0
  184.5390  178.8240  141.0380 C   0  0  2  0  0  3  0  0  0  0  0  0
  184.5810  179.1480  145.0810 C   0  0  0  0  0  3  0  0  0  0  0  0
  178.9310  180.5050  142.3420 N   0  0  0  0  0  1  0  0  0  0  0  0
  183.6670  177.0960  138.0720 C   0  0  2  0  0  3  0  0  0  0  0  0
  184.4780  178.6280  139.5140 C   0  0  1  0  0  3  0  0  0  0  0  0
  182.3110  178.6190  136.6700 C   0  0  0  0  0  1  0  0  0  0  0  0
  186.7950  177.5350  143.7210 C   0  0  0  0  0  3  0  0  0  0  0  0
  183.2650  178.5650  143.1620 N   0  0  0  0  0  0  0  0  0  0  0  0
  182.6100  178.1700  138.0880 C   0  0  2  0  0  3  0  0  0  0  0  0
  186.5460  178.1090  146.1350 C   0  0  0  0  0  0  0  0  0  0  0  0
  184.5290  178.6040  143.8560 C   0  0  0  0  0  0  0  0  0  0  0  0
  185.7290  178.0790  141.6350 C   0  0  0  0  0  2  0  0  0  0  0  0
  187.0220  177.3330  145.1640 C   0  0  0  0  0  3  0  0  0  0  0  0
  180.8900  179.1630  141.7770 C   0  0  0  0  0  0  0  0  0  0  0  0
  183.2280  178.3730  141.6990 C   0  0  1  0  0  3  0  0  0  0  0  0
  185.7500  178.1370  143.1330 C   0  0  0  0  0  0  0  0  0  0  0  0
  180.0530  180.9940  140.2460 C   0  0  0  0  0  2  0  0  0  0  0  0
  180.7830  178.3650  143.0480 C   0  0  0  0  0  2  0  0  0  0  0  0
  179.6790  179.9060  141.2490 C   0  0  2  0  0  3  0  0  0  0  0  0
  183.0130  175.7280  138.1060 C   0  0  0  0  0  1  0  0  0  0  0  0
  186.8190  177.7920  147.4230 F   0  0  0  0  0  0  0  0  0  0  0  0
  185.8400  179.3870  145.8440 C   0  0  0  0  0  2  0  0  0  0  0  0
  182.0060  178.6280  143.9290 C   0  0  0  0  0  2  0  0  0  0  0  0
  180.9850  180.4250  139.1890 C   0  0  0  0  0  2  0  0  0  0  0  0
  182.0570  179.1220  141.0960 C   0  0  0  0  0  0  0  0  0  0  0  0
  184.4880  177.2540  139.1970 O   0  0  0  0  0  0  0  0  0  0  0  0
  1 26  1  6  0  0  0
  1 27  1  0  0  0  0
  2  7  1  0  0  0  0
  2  1  1  0  0  0  0
  3 14  1  0  0  0  0
  3 17  1  0  0  0  0
  4 24  1  0  0  0  0
  6 11  1  0  0  0  0
  6 22  1  0  0  0  0
  6 28  1  0  0  0  0
  7  3  1  0  0  0  0
  8 11  1  0  0  0  0
  9 15  1  0  0  0  0
 10 13  1  0  0  0  0
 10 25  1  0  0  0  0
 11  2  1  0  0  0  0
 12 23  1  0  0  0  0
 13  4  2  0  0  0  0
 14 18  1  0  0  0  0
 15 12  2  0  0  0  0
 16 20  1  0  0  0  0
 17 10  1  0  0  0  0
 18  9  2  0  0  0  0
 18 13  1  0  0  0  0
 19 21  1  0  0  0  0
 20 25  1  0  0  0  0
 21 16  1  0  0  0  0
 21  5  1  0  0  0  0
 24 12  1  0  0  0  0
 26 19  1  0  0  0  0
 27 17  1  0  0  0  0
 27 16  2  0  0  0  0
 28  7  1  0  0  0  0
M  END
>  <MODEL>
4

>  <REMARK>
 VINA RESULT:      -7.7      4.296      7.748
  Name = 
  0 active torsions:
  status: ('A' for Active; 'I' for Inactive)
                            x       y       z     vdW  Elec       q    Type
                         _______ _______ _______ _____ _____    ______ ____

>  <TORSDO>
F 0

$$$$
=
 OpenBabel10262420483D

 28 33  0  0  1  0  0  0  0  0999 V2000
  185.6280  179.1460  143.0100 C   0  0  1  0  0  3  0  0  0  0  0  0
  184.7850  179.3260  141.7280 C   0  0  1  0  0  3  0  0  0  0  0  0
  187.0110  178.6280  140.6410 C   0  0  2  0  0  3  0  0  0  0  0  0
  190.8390  177.4230  141.2290 C   0  0  0  0  0  3  0  0  0  0  0  0
  187.1740  177.3780  146.5050 N   0  0  0  0  0  1  0  0  0  0  0  0
  183.5590  177.9290  140.2670 C   0  0  2  0  0  3  0  0  0  0  0  0
  185.5350  179.0030  140.4250 C   0  0  1  0  0  3  0  0  0  0  0  0
  182.3280  179.2030  141.9940 C   0  0  0  0  0  1  0  0  0  0  0  0
  189.7300  177.4290  138.3790 C   0  0  0  0  0  3  0  0  0  0  0  0
  188.5530  177.1280  141.8950 N   0  0  0  0  0  0  0  0  0  0  0  0
  183.5900  178.4160  141.6920 C   0  0  2  0  0  3  0  0  0  0  0  0
  192.0480  176.9230  139.1460 C   0  0  0  0  0  0  0  0  0  0  0  0
  189.5440  177.3970  140.8810 C   0  0  0  0  0  0  0  0  0  0  0  0
  187.6730  178.2440  139.3210 C   0  0  0  0  0  2  0  0  0  0  0  0
  191.0640  176.8130  138.2560 C   0  0  0  0  0  3  0  0  0  0  0  0
  186.8050  177.2190  144.0970 C   0  0  0  0  0  0  0  0  0  0  0  0
  187.1410  177.4930  141.6660 C   0  0  1  0  0  3  0  0  0  0  0  0
  189.0750  177.7470  139.5060 C   0  0  0  0  0  0  0  0  0  0  0  0
  185.6810  179.0030  145.4940 C   0  0  0  0  0  2  0  0  0  0  0  0
  187.7240  176.0340  143.9750 C   0  0  0  0  0  2  0  0  0  0  0  0
  186.2000  177.5680  145.4420 C   0  0  2  0  0  3  0  0  0  0  0  0
  183.0320  176.5070  140.2190 C   0  0  0  0  0  1  0  0  0  0  0  0
  193.2200  176.2860  138.9120 F   0  0  0  0  0  0  0  0  0  0  0  0
  191.9470  177.8330  140.3200 C   0  0  0  0  0  2  0  0  0  0  0  0
  188.9390  176.4060  143.1220 C   0  0  0  0  0  2  0  0  0  0  0  0
  184.7980  179.2770  144.2880 C   0  0  0  0  0  2  0  0  0  0  0  0
  186.4800  177.8900  142.9710 C   0  0  0  0  0  0  0  0  0  0  0  0
  184.8620  177.9650  139.7480 O   0  0  0  0  0  0  0  0  0  0  0  0
  1 26  1  1  0  0  0
  2  1  1  0  0  0  0
  3 17  1  0  0  0  0
  6 11  1  0  0  0  0
  7  3  1  0  0  0  0
  7  2  1  0  0  0  0
  9 18  2  0  0  0  0
 10 25  1  0  0  0  0
 11  2  1  0  0  0  0
 11  8  1  0  0  0  0
 12 24  1  0  0  0  0
 13  4  2  0  0  0  0
 13 10  1  0  0  0  0
 14 18  1  0  0  0  0
 14  3  1  0  0  0  0
 15  9  1  0  0  0  0
 15 12  2  0  0  0  0
 16 21  1  0  0  0  0
 17 10  1  0  0  0  0
 17 27  1  0  0  0  0
 18 13  1  0  0  0  0
 20 16  1  0  0  0  0
 21 19  1  0  0  0  0
 21  5  1  0  0  0  0
 22  6  1  0  0  0  0
 23 12  1  0  0  0  0
 24  4  1  0  0  0  0
 25 20  1  0  0  0  0
 26 19  1  0  0  0  0
 27  1  1  0  0  0  0
 27 16  2  0  0  0  0
 28  6  1  0  0  0  0
 28  7  1  0  0  0  0
M  END
>  <MODEL>
5

>  <REMARK>
 VINA RESULT:      -7.3      2.708      5.021
  Name = 
  0 active torsions:
  status: ('A' for Active; 'I' for Inactive)
                            x       y       z     vdW  Elec       q    Type
                         _______ _______ _______ _____ _____    ______ ____

>  <TORSDO>
F 0

$$$$
=
 OpenBabel10262420483D

 28 33  0  0  1  0  0  0  0  0999 V2000
  187.8430  176.9730  145.2090 C   0  0  1  0  0  3  0  0  0  0  0  0
  189.2310  176.8660  144.5400 C   0  0  1  0  0  3  0  0  0  0  0  0
  187.8170  177.3380  142.4420 C   0  0  2  0  0  3  0  0  0  0  0  0
  184.1380  178.1710  140.9510 C   0  0  0  0  0  3  0  0  0  0  0  0
  184.6010  178.6070  147.3440 N   0  0  0  0  0  1  0  0  0  0  0  0
  190.9120  178.3660  143.8230 C   0  0  2  0  0  3  0  0  0  0  0  0
  189.2230  177.1070  143.0210 C   0  0  1  0  0  3  0  0  0  0  0  0
  191.1940  177.2290  146.0020 C   0  0  0  0  0  1  0  0  0  0  0  0
  186.5360  178.2530  139.0550 C   0  0  0  0  0  3  0  0  0  0  0  0
  185.7380  178.6910  142.6620 N   0  0  0  0  0  0  0  0  0  0  0  0
  190.2020  177.8880  145.0620 C   0  0  2  0  0  3  0  0  0  0  0  0
  184.1170  178.5370  138.5190 C   0  0  0  0  0  0  0  0  0  0  0  0
  185.4230  178.3200  141.3030 C   0  0  0  0  0  0  0  0  0  0  0  0
  187.8880  177.6480  140.9500 C   0  0  0  0  0  2  0  0  0  0  0  0
  185.4040  178.7360  138.2420 C   0  0  0  0  0  3  0  0  0  0  0  0
  186.1270  178.7850  145.4460 C   0  0  0  0  0  0  0  0  0  0  0  0
  187.0940  178.4630  143.1980 C   0  0  1  0  0  3  0  0  0  0  0  0
  186.5510  178.0080  140.3740 C   0  0  0  0  0  0  0  0  0  0  0  0
  186.5250  177.1280  147.3150 C   0  0  0  0  0  2  0  0  0  0  0  0
  185.3060  179.8740  144.8120 C   0  0  0  0  0  2  0  0  0  0  0  0
  185.9910  178.5050  146.9290 C   0  0  2  0  0  3  0  0  0  0  0  0
  191.2750  179.8310  143.9680 C   0  0  0  0  0  1  0  0  0  0  0  0
  183.1800  179.0560  137.6900 F   0  0  0  0  0  0  0  0  0  0  0  0
  183.6810  177.6490  139.6310 C   0  0  0  0  0  2  0  0  0  0  0  0
  184.7260  179.3800  143.4850 C   0  0  0  0  0  2  0  0  0  0  0  0
  187.9160  176.9320  146.7360 C   0  0  0  0  0  2  0  0  0  0  0  0
  187.0310  178.1400  144.6760 C   0  0  0  0  0  0  0  0  0  0  0  0
  190.0610  178.2000  142.7210 O   0  0  0  0  0  0  0  0  0  0  0  0
  1 26  1  1  0  0  0
  2 11  1  0  0  0  0
  2  1  1  0  0  0  0
  3  7  1  0  0  0  0
  3 17  1  0  0  0  0
  4 13  2  0  0  0  0
  6 22  1  0  0  0  0
  6 11  1  0  0  0  0
  7  2  1  0  0  0  0
  9 18  2  0  0  0  0
 10 17  1  0  0  0  0
 10 25  1  0  0  0  0
 11  8  1  0  0  0  0
 12 24  1  0  0  0  0
 13 10  1  0  0  0  0
 14  3  1  0  0  0  0
 15 12  2  0  0  0  0
 15  9  1  0  0  0  0
 16 21  1  0  0  0  0
 17 27  1  0  0  0  0
 18 14  1  0  0  0  0
 18 13  1  0  0  0  0
 20 16  1  0  0  0  0
 21 19  1  0  0  0  0
 21  5  1  0  0  0  0
 23 12  1  0  0  0  0
 24  4  1  0  0  0  0
 25 20  1  0  0  0  0
 26 19  1  0  0  0  0
 27  1  1  0  0  0  0
 27 16  2  0  0  0  0
 28  7  1  0  0  0  0
 28  6  1  0  0  0  0
M  END
>  <MODEL>
6

>  <REMARK>
 VINA RESULT:      -6.9      1.762      2.321
  Name = 
  0 active torsions:
  status: ('A' for Active; 'I' for Inactive)
                            x       y       z     vdW  Elec       q    Type
                         _______ _______ _______ _____ _____    ______ ____

>  <TORSDO>
F 0

$$$$
=
 OpenBabel10262420483D

 28 33  0  0  1  0  0  0  0  0999 V2000
  190.8030  176.8580  138.0710 C   0  0  1  0  0  3  0  0  0  0  0  0
  190.4970  177.7170  139.3170 C   0  0  1  0  0  3  0  0  0  0  0  0
  188.1470  177.6920  138.2680 C   0  0  2  0  0  3  0  0  0  0  0  0
  185.7870  176.3090  135.2730 C   0  0  0  0  0  3  0  0  0  0  0  0
  191.5260  173.4540  135.6990 N   0  0  0  0  0  1  0  0  0  0  0  0
  189.6070  177.3550  141.4770 C   0  0  2  0  0  3  0  0  0  0  0  0
  189.0250  178.1440  139.4470 C   0  0  1  0  0  3  0  0  0  0  0  0
  192.0630  177.5030  141.2200 C   0  0  0  0  0  1  0  0  0  0  0  0
  184.4860  177.8780  137.5540 C   0  0  0  0  0  3  0  0  0  0  0  0
  187.4520  175.7310  136.9000 N   0  0  0  0  0  0  0  0  0  0  0  0
  190.7770  176.9890  140.6020 C   0  0  2  0  0  3  0  0  0  0  0  0
  183.4350  177.0050  135.4670 C   0  0  0  0  0  0  0  0  0  0  0  0
  186.2950  176.4940  136.5010 C   0  0  0  0  0  0  0  0  0  0  0  0
  186.6890  178.0770  138.4980 C   0  0  0  0  0  2  0  0  0  0  0  0
  183.3540  177.4090  136.7330 C   0  0  0  0  0  3  0  0  0  0  0  0
  190.0230  174.6340  137.2180 C   0  0  0  0  0  0  0  0  0  0  0  0
  188.2810  176.1800  138.0370 C   0  0  1  0  0  3  0  0  0  0  0  0
  185.7790  177.5410  137.4340 C   0  0  0  0  0  0  0  0  0  0  0  0
  192.4120  175.3880  136.8690 C   0  0  0  0  0  2  0  0  0  0  0  0
  188.8880  173.6930  136.9210 C   0  0  0  0  0  2  0  0  0  0  0  0
  191.4500  174.2050  136.9420 C   0  0  2  0  0  3  0  0  0  0  0  0
  189.2650  176.1950  142.3930 C   0  0  0  0  0  1  0  0  0  0  0  0
  182.3130  176.5820  134.8390 F   0  0  0  0  0  0  0  0  0  0  0  0
  184.6930  177.1330  134.6820 C   0  0  0  0  0  2  0  0  0  0  0  0
  187.7540  174.4530  136.2280 C   0  0  0  0  0  2  0  0  0  0  0  0
  192.2210  176.2850  138.0800 C   0  0  0  0  0  2  0  0  0  0  0  0
  189.7330  175.8140  137.8090 C   0  0  0  0  0  0  0  0  0  0  0  0
  188.5050  177.6490  140.6610 O   0  0  0  0  0  0  0  0  0  0  0  0
  1 26  1  1  0  0  0
  1  2  1  0  0  0  0
  2  7  1  0  0  0  0
  2 11  1  0  0  0  0
  3 14  1  0  0  0  0
  3  7  1  0  0  0  0
  4 13  2  0  0  0  0
  5 21  1  0  0  0  0
  6 22  1  0  0  0  0
  7 28  1  0  0  0  0
 10 17  1  0  0  0  0
 11  8  1  0  0  0  0
 11  6  1  0  0  0  0
 12 15  2  0  0  0  0
 13 10  1  0  0  0  0
 13 18  1  0  0  0  0
 15  9  1  0  0  0  0
 16 27  2  0  0  0  0
 17  3  1  0  0  0  0
 18  9  2  0  0  0  0
 18 14  1  0  0  0  0
 19 21  1  0  0  0  0
 19 26  1  0  0  0  0
 20 16  1  0  0  0  0
 21 16  1  0  0  0  0
 23 12  1  0  0  0  0
 24  4  1  0  0  0  0
 24 12  1  0  0  0  0
 25 10  1  0  0  0  0
 25 20  1  0  0  0  0
 27 17  1  0  0  0  0
 27  1  1  0  0  0  0
 28  6  1  0  0  0  0
M  END
>  <MODEL>
7

>  <REMARK>
 VINA RESULT:      -6.9      3.419      6.233
  Name = 
  0 active torsions:
  status: ('A' for Active; 'I' for Inactive)
                            x       y       z     vdW  Elec       q    Type
                         _______ _______ _______ _____ _____    ______ ____

>  <TORSDO>
F 0

$$$$
=
 OpenBabel10262420483D

 28 33  0  0  1  0  0  0  0  0999 V2000
  183.2630  176.4800  137.7370 C   0  0  1  0  0  3  0  0  0  0  0  0
  181.7790  176.8950  137.8360 C   0  0  1  0  0  3  0  0  0  0  0  0
  182.5570  177.6520  140.1690 C   0  0  2  0  0  3  0  0  0  0  0  0
  185.6670  178.0520  142.7410 C   0  0  0  0  0  3  0  0  0  0  0  0
  187.3440  176.6180  136.7080 N   0  0  0  0  0  1  0  0  0  0  0  0
  180.5270  178.8780  137.5380 C   0  0  2  0  0  3  0  0  0  0  0  0
  181.3980  177.5770  139.1600 C   0  0  1  0  0  3  0  0  0  0  0  0
  180.5790  177.2260  135.6970 C   0  0  0  0  0  1  0  0  0  0  0  0
  182.9600  179.2410  143.5250 C   0  0  0  0  0  3  0  0  0  0  0  0
  184.9190  178.3720  140.4840 N   0  0  0  0  0  0  0  0  0  0  0  0
  181.3910  177.9000  136.7880 C   0  0  2  0  0  3  0  0  0  0  0  0
  185.0580  179.1260  144.8690 C   0  0  0  0  0  0  0  0  0  0  0  0
  184.6680  178.3710  141.9050 C   0  0  0  0  0  0  0  0  0  0  0  0
  182.1340  178.4080  141.4260 C   0  0  0  0  0  2  0  0  0  0  0  0
  183.8810  179.6820  144.5890 C   0  0  0  0  0  3  0  0  0  0  0  0
  185.4520  177.7000  137.8050 C   0  0  0  0  0  0  0  0  0  0  0  0
  183.7930  178.3020  139.5320 C   0  0  1  0  0  3  0  0  0  0  0  0
  183.2720  178.6170  142.3790 C   0  0  0  0  0  0  0  0  0  0  0  0
  185.1390  175.6870  136.3060 C   0  0  0  0  0  2  0  0  0  0  0  0
  186.3400  178.7180  138.4660 C   0  0  0  0  0  2  0  0  0  0  0  0
  185.9380  176.9600  136.5760 C   0  0  2  0  0  3  0  0  0  0  0  0
  180.7110  180.2720  136.9700 C   0  0  0  0  0  1  0  0  0  0  0  0
  185.8110  179.6480  145.8660 F   0  0  0  0  0  0  0  0  0  0  0  0
  185.5080  177.8680  144.2120 C   0  0  0  0  0  2  0  0  0  0  0  0
  186.2980  178.5330  139.9850 C   0  0  0  0  0  2  0  0  0  0  0  0
  183.6510  175.9930  136.3400 C   0  0  0  0  0  2  0  0  0  0  0  0
  184.2000  177.5400  138.2880 C   0  0  0  0  0  0  0  0  0  0  0  0
  180.9010  178.8690  138.8900 O   0  0  0  0  0  0  0  0  0  0  0  0
  1 26  1  6  0  0  0
  1  2  1  0  0  0  0
  1 27  1  0  0  0  0
  2  7  1  0  0  0  0
  3 14  1  0  0  0  0
  4 24  1  0  0  0  0
  6 28  1  0  0  0  0
  7  3  1  0  0  0  0
  8 11  1  0  0  0  0
  9 15  1  0  0  0  0
 10 13  1  0  0  0  0
 11  6  1  0  0  0  0
 11  2  1  0  0  0  0
 12 23  1  0  0  0  0
 13 18  1  0  0  0  0
 13  4  2  0  0  0  0
 14 18  1  0  0  0  0
 15 12  2  0  0  0  0
 16 27  2  0  0  0  0
 16 20  1  0  0  0  0
 17  3  1  0  0  0  0
 17 10  1  0  0  0  0
 18  9  2  0  0  0  0
 19 26  1  0  0  0  0
 19 21  1  0  0  0  0
 20 25  1  0  0  0  0
 21  5  1  0  0  0  0
 21 16  1  0  0  0  0
 22  6  1  0  0  0  0
 24 12  1  0  0  0  0
 25 10  1  0  0  0  0
 27 17  1  0  0  0  0
 28  7  1  0  0  0  0
M  END
>  <MODEL>
8

>  <REMARK>
 VINA RESULT:      -6.8      4.345      8.548
  Name = 
  0 active torsions:
  status: ('A' for Active; 'I' for Inactive)
                            x       y       z     vdW  Elec       q    Type
                         _______ _______ _______ _____ _____    ______ ____

>  <TORSDO>
F 0

$$$$
=
 OpenBabel10262420483D

 28 33  0  0  1  0  0  0  0  0999 V2000
  190.4810  175.8840  137.9290 C   0  0  1  0  0  3  0  0  0  0  0  0
  189.0820  176.5090  137.7410 C   0  0  1  0  0  3  0  0  0  0  0  0
  189.3150  176.8240  140.2850 C   0  0  2  0  0  3  0  0  0  0  0  0
  191.6810  176.3940  143.5500 C   0  0  0  0  0  3  0  0  0  0  0  0
  194.6760  175.5180  137.9360 N   0  0  0  0  0  1  0  0  0  0  0  0
  188.1920  178.6860  137.4880 C   0  0  2  0  0  3  0  0  0  0  0  0
  188.4550  177.0630  139.0310 C   0  0  1  0  0  3  0  0  0  0  0  0
  188.5220  177.3010  135.4650 C   0  0  0  0  0  1  0  0  0  0  0  0
  189.0240  177.8780  143.8560 C   0  0  0  0  0  3  0  0  0  0  0  0
  191.5840  177.1190  141.2660 N   0  0  0  0  0  0  0  0  0  0  0  0
  189.0990  177.6910  136.8120 C   0  0  2  0  0  3  0  0  0  0  0  0
  190.6750  177.2610  145.6210 C   0  0  0  0  0  0  0  0  0  0  0  0
  190.9760  176.9720  142.5660 C   0  0  0  0  0  0  0  0  0  0  0  0
  188.6750  177.4660  141.5120 C   0  0  0  0  0  2  0  0  0  0  0  0
  189.6840  178.0260  145.1660 C   0  0  0  0  0  3  0  0  0  0  0  0
  192.7060  176.7300  138.7160 C   0  0  0  0  0  0  0  0  0  0  0  0
  190.7410  177.3510  140.0760 C   0  0  1  0  0  3  0  0  0  0  0  0
  189.5450  177.3680  142.7290 C   0  0  0  0  0  0  0  0  0  0  0  0
  192.5550  175.0040  136.8730 C   0  0  0  0  0  2  0  0  0  0  0  0
  193.5080  177.5000  139.7280 C   0  0  0  0  0  2  0  0  0  0  0  0
  193.4020  176.0900  137.5320 C   0  0  2  0  0  3  0  0  0  0  0  0
  188.6800  180.0960  137.2190 C   0  0  0  0  0  1  0  0  0  0  0  0
  191.2010  177.5250  146.8410 F   0  0  0  0  0  0  0  0  0  0  0  0
  191.1270  176.0460  144.8900 C   0  0  0  0  0  2  0  0  0  0  0  0
  193.0540  177.1280  141.1410 C   0  0  0  0  0  2  0  0  0  0  0  0
  191.1560  175.5310  136.6040 C   0  0  0  0  0  2  0  0  0  0  0  0
  191.3620  176.7040  138.8540 C   0  0  0  0  0  0  0  0  0  0  0  0
  188.2010  178.4410  138.8690 O   0  0  0  0  0  0  0  0  0  0  0  0
  1 26  1  6  0  0  0
  1 27  1  0  0  0  0
  2  1  1  0  0  0  0
  2  7  1  0  0  0  0
  3 14  1  0  0  0  0
  4 24  1  0  0  0  0
  6 28  1  0  0  0  0
  7  3  1  0  0  0  0
  8 11  1  0  0  0  0
  9 15  1  0  0  0  0
 10 13  1  0  0  0  0
 11  6  1  0  0  0  0
 11  2  1  0  0  0  0
 12 23  1  0  0  0  0
 13 18  1  0  0  0  0
 13  4  2  0  0  0  0
 14 18  1  0  0  0  0
 15 12  2  0  0  0  0
 16 27  2  0  0  0  0
 16 20  1  0  0  0  0
 17  3  1  0  0  0  0
 17 10  1  0  0  0  0
 18  9  2  0  0  0  0
 19 21  1  0  0  0  0
 20 25  1  0  0  0  0
 21  5  1  0  0  0  0
 21 16  1  0  0  0  0
 22  6  1  0  0  0  0
 24 12  1  0  0  0  0
 25 10  1  0  0  0  0
 26 19  1  0  0  0  0
 27 17  1  0  0  0  0
 28  7  1  0  0  0  0
M  END
>  <MODEL>
9

>  <REMARK>
 VINA RESULT:      -6.7      3.790      7.900
  Name = 
  0 active torsions:
  status: ('A' for Active; 'I' for Inactive)
                            x       y       z     vdW  Elec       q    Type
                         _______ _______ _______ _____ _____    ______ ____

>  <TORSDO>
F 0

$$$$
