=
 OpenBabel10262422233D

 43 49  0  0  1  0  0  0  0  0999 V2000
  188.9370  177.1500  146.5250 C   0  0  0  0  0  0  0  0  0  0  0  0
  184.5620  178.6360  144.3850 C   0  0  0  0  0  0  0  0  0  0  0  0
  185.0100  178.6130  141.5960 C   0  0  0  0  0  0  0  0  0  0  0  0
  186.6360  177.8970  146.1390 C   0  0  0  0  0  0  0  0  0  0  0  0
  189.2140  177.1070  145.2220 C   0  0  0  0  0  3  0  0  0  0  0  0
  189.9130  176.8070  147.4490 O   0  0  0  0  0  1  0  0  0  0  0  0
  186.8590  177.8800  144.7430 C   0  0  0  0  0  0  0  0  0  0  0  0
  187.6020  177.5560  146.9940 C   0  0  0  0  0  3  0  0  0  0  0  0
  188.1970  177.4680  144.1720 C   0  0  0  0  0  2  0  0  0  0  0  0
  186.0290  178.2430  142.4850 O   0  0  0  0  0  0  0  0  0  0  0  0
  185.8220  178.2510  143.8730 C   0  0  0  0  0  0  0  0  0  0  0  0
  184.3610  178.6420  145.7730 C   0  0  0  0  0  3  0  0  0  0  0  0
  183.5780  178.9930  143.5290 C   0  0  0  0  0  0  0  0  0  0  0  0
  183.8200  178.9790  142.0720 C   0  0  0  0  0  3  0  0  0  0  0  0
  185.3900  178.2760  146.6410 C   0  0  0  0  0  3  0  0  0  0  0  0
  182.2130  179.3890  144.0090 C   0  0  0  0  0  2  0  0  0  0  0  0
  181.2130  178.2560  143.8150 C   0  0  0  0  0  2  0  0  0  0  0  0
  180.0460  180.2280  142.8560 C   0  0  0  0  0  2  0  0  0  0  0  0
  179.1880  180.4470  141.6310 C   0  0  2  0  0  3  0  0  0  0  0  0
  179.7460  178.0790  141.7950 C   0  0  0  0  0  2  0  0  0  0  0  0
  179.9410  178.7490  143.1420 C   0  0  1  0  0  3  0  0  0  0  0  0
  179.2550  179.1530  140.8400 C   0  0  0  0  0  2  0  0  0  0  0  0
  179.5150  181.1050  139.5450 C   0  0  0  0  0  1  0  0  0  0  0  0
  179.6990  181.5000  140.8710 O   0  0  0  0  0  0  0  0  0  0  0  0
  185.2260  178.6000  140.2210 O   0  0  0  0  0  0  0  0  0  0  0  0
  184.2380  179.0650  139.3140 C   0  0  0  0  0  2  0  0  0  0  0  0
  184.0920  178.0870  138.1520 C   0  0  2  0  0  3  0  0  0  0  0  0
  182.6680  176.5110  139.4650 C   0  0  0  0  0  1  0  0  0  0  0  0
  182.7710  177.3200  138.1860 C   0  0  0  0  0  2  0  0  0  0  0  0
  185.2280  177.2580  137.9660 O   0  0  0  0  0  0  0  0  0  0  0  0
  185.8660  177.5330  136.7310 C   0  0  2  0  0  0  0  0  0  0  0  0
  187.5220  176.2490  135.4400 C   0  0  0  0  0  2  0  0  0  0  0  0
  185.2280  177.0300  135.4430 C   0  0  0  0  0  2  0  0  0  0  0  0
  187.2920  177.0130  136.7260 C   0  0  1  0  0  0  0  0  0  0  0  0
  187.0470  178.5040  136.6970 C   0  0  0  0  0  2  0  0  0  0  0  0
  186.1450  175.9590  134.8840 C   0  0  0  0  0  2  0  0  0  0  0  0
  187.7090  176.4420  137.9620 O   0  0  0  0  0  0  0  0  0  0  0  0
  188.8120  176.9130  138.6800 C   0  0  0  0  0  0  0  0  0  0  0  0
  189.5090  177.6360  140.9800 C   0  0  0  0  0  2  0  0  0  0  0  0
  191.2060  176.9300  139.1740 C   0  0  0  0  0  2  0  0  0  0  0  0
  190.8870  177.0150  140.6700 C   0  0  0  0  0  2  0  0  0  0  0  0
  190.0180  176.4140  138.4200 C   0  0  0  0  0  3  0  0  0  0  0  0
  188.6740  177.9770  139.7370 C   0  0  0  0  0  2  0  0  0  0  0  0
  1  8  1  0  0  0  0
  1  6  1  0  0  0  0
  2 12  1  0  0  0  0
  3 14  2  0  0  0  0
  3 10  1  0  0  0  0
  4 15  1  0  0  0  0
  4  8  2  0  0  0  0
  5  1  2  0  0  0  0
  7  4  1  0  0  0  0
  9  7  1  0  0  0  0
  9  5  1  0  0  0  0
 10 11  1  0  0  0  0
 11  2  1  0  0  0  0
 11  7  2  0  0  0  0
 12 15  2  0  0  0  0
 13 16  1  0  0  0  0
 13  2  2  0  0  0  0
 14 13  1  0  0  0  0
 17 16  1  0  0  0  0
 18 21  1  0  0  0  0
 19 24  1  6  0  0  0
 19 18  1  0  0  0  0
 20 21  1  0  0  0  0
 21 17  1  6  0  0  0
 22 19  1  0  0  0  0
 22 20  1  0  0  0  0
 23 24  1  0  0  0  0
 25  3  1  0  0  0  0
 26 25  1  0  0  0  0
 27 29  1  1  0  0  0
 27 26  1  0  0  0  0
 29 28  1  0  0  0  0
 30 27  1  0  0  0  0
 31 30  1  1  0  0  0
 32 34  1  0  0  0  0
 33 31  1  0  0  0  0
 34 31  1  0  0  0  0
 34 37  1  1  0  0  0
 35 34  1  0  0  0  0
 35 31  1  0  0  0  0
 36 32  1  0  0  0  0
 36 33  1  0  0  0  0
 37 38  1  0  0  0  0
 38 43  1  0  0  0  0
 40 41  1  0  0  0  0
 41 39  1  0  0  0  0
 42 38  2  0  0  0  0
 42 40  1  0  0  0  0
 43 39  1  0  0  0  0
M  END
>  <MODEL>
1

>  <REMARK>
 VINA RESULT:      -9.2      0.000      0.000
  Name = 
  12 active torsions:
  status: ('A' for Active; 'I' for Inactive)
    1  A    between atoms: C_1  and  C_34
    2  A    between atoms: C_1  and  C_35
    3  A    between atoms: C_2  and  O_6
    4  A    between atoms: C_2  and  C_12
    5  A    between atoms: O_3  and  C_4
    6  A    between atoms: O_3  and  C_12
    7  A    between atoms: O_6  and  C_13
    8  A    between atoms: C_11  and  O_14
    9  A    between atoms: C_12  and  C_17
   10  A    between atoms: O_14  and  C_22
   11  A    between atoms: C_19  and  O_37
   12  A    between atoms: C_32  and  C_35
                            x       y       z     vdW  Elec       q    Type
                         _______ _______ _______ _____ _____    ______ ____

>  <TORSDO>
F 12

$$$$
=
 OpenBabel10262422233D

 43 49  0  0  1  0  0  0  0  0999 V2000
  191.1220  176.7600  146.8960 C   0  0  0  0  0  0  0  0  0  0  0  0
  186.8230  177.8330  144.3880 C   0  0  0  0  0  0  0  0  0  0  0  0
  187.5900  178.3940  141.7270 C   0  0  0  0  0  0  0  0  0  0  0  0
  188.7810  177.1570  146.2930 C   0  0  0  0  0  0  0  0  0  0  0  0
  191.5540  177.0040  145.6580 C   0  0  0  0  0  3  0  0  0  0  0  0
  192.0320  176.4290  147.8900 O   0  0  0  0  0  1  0  0  0  0  0  0
  189.1650  177.4320  144.9610 C   0  0  0  0  0  0  0  0  0  0  0  0
  189.6890  176.8380  147.2190 C   0  0  0  0  0  3  0  0  0  0  0  0
  190.6160  177.3680  144.5380 C   0  0  0  0  0  2  0  0  0  0  0  0
  188.5510  178.0500  142.6900 O   0  0  0  0  0  0  0  0  0  0  0  0
  188.1850  177.7700  144.0150 C   0  0  0  0  0  0  0  0  0  0  0  0
  186.4630  177.5520  145.7140 C   0  0  0  0  0  3  0  0  0  0  0  0
  185.8950  178.1640  143.4610 C   0  0  0  0  0  0  0  0  0  0  0  0
  186.3040  178.4570  142.0720 C   0  0  0  0  0  3  0  0  0  0  0  0
  187.4350  177.2170  146.6570 C   0  0  0  0  0  3  0  0  0  0  0  0
  184.4320  178.2250  143.7880 C   0  0  0  0  0  2  0  0  0  0  0  0
  183.6020  178.4980  142.5400 C   0  0  0  0  0  2  0  0  0  0  0  0
  181.2320  178.8470  141.8810 C   0  0  0  0  0  2  0  0  0  0  0  0
  179.9330  178.9430  142.6470 C   0  0  2  0  0  3  0  0  0  0  0  0
  181.7750  178.7460  144.2320 C   0  0  0  0  0  2  0  0  0  0  0  0
  182.3010  179.2060  142.8850 C   0  0  1  0  0  3  0  0  0  0  0  0
  180.2710  178.5930  144.0850 C   0  0  0  0  0  2  0  0  0  0  0  0
  179.7610  177.1690  141.3370 C   0  0  0  0  0  1  0  0  0  0  0  0
  179.0090  178.0310  142.1370 O   0  0  0  0  0  0  0  0  0  0  0  0
  187.9640  178.6700  140.4150 O   0  0  0  0  0  0  0  0  0  0  0  0
  189.2340  178.2820  139.9140 C   0  0  0  0  0  2  0  0  0  0  0  0
  189.0700  177.5270  138.5970 C   0  0  2  0  0  3  0  0  0  0  0  0
  190.6000  175.6230  138.0800 C   0  0  0  0  0  1  0  0  0  0  0  0
  190.4060  177.1240  137.9760 C   0  0  0  0  0  2  0  0  0  0  0  0
  188.1870  178.1640  137.6880 O   0  0  0  0  0  0  0  0  0  0  0  0
  187.5680  177.2220  136.8300 C   0  0  2  0  0  0  0  0  0  0  0  0
  185.5150  177.3620  135.4800 C   0  0  0  0  0  2  0  0  0  0  0  0
  187.9310  177.2210  135.3510 C   0  0  0  0  0  2  0  0  0  0  0  0
  186.0560  177.3380  136.8930 C   0  0  1  0  0  0  0  0  0  0  0  0
  186.7270  176.0960  137.4340 C   0  0  0  0  0  2  0  0  0  0  0  0
  186.7000  177.6800  134.5940 C   0  0  0  0  0  2  0  0  0  0  0  0
  185.5820  178.2910  137.8390 O   0  0  0  0  0  0  0  0  0  0  0  0
  184.2620  178.3160  138.2930 C   0  0  0  0  0  0  0  0  0  0  0  0
  182.3060  179.8600  138.5940 C   0  0  0  0  0  2  0  0  0  0  0  0
  182.0530  177.2960  138.5330 C   0  0  0  0  0  2  0  0  0  0  0  0
  181.4050  178.6560  138.2500 C   0  0  0  0  0  2  0  0  0  0  0  0
  183.4640  177.2820  138.0320 C   0  0  0  0  0  3  0  0  0  0  0  0
  183.7140  179.4800  139.0760 C   0  0  0  0  0  2  0  0  0  0  0  0
  1  8  1  0  0  0  0
  1  6  1  0  0  0  0
  2 12  1  0  0  0  0
  3 14  2  0  0  0  0
  3 10  1  0  0  0  0
  4 15  1  0  0  0  0
  4  8  2  0  0  0  0
  5  1  2  0  0  0  0
  7  4  1  0  0  0  0
  9  7  1  0  0  0  0
  9  5  1  0  0  0  0
 10 11  1  0  0  0  0
 11  2  1  0  0  0  0
 11  7  2  0  0  0  0
 12 15  2  0  0  0  0
 13 16  1  0  0  0  0
 13  2  2  0  0  0  0
 14 13  1  0  0  0  0
 17 16  1  0  0  0  0
 18 19  1  0  0  0  0
 18 21  1  0  0  0  0
 19 24  1  6  0  0  0
 19 22  1  0  0  0  0
 21 17  1  6  0  0  0
 21 20  1  0  0  0  0
 22 20  1  0  0  0  0
 23 24  1  0  0  0  0
 25  3  1  0  0  0  0
 26 25  1  0  0  0  0
 27 29  1  6  0  0  0
 27 26  1  0  0  0  0
 29 28  1  0  0  0  0
 30 27  1  0  0  0  0
 31 34  1  0  0  0  0
 31 35  1  0  0  0  0
 31 30  1  1  0  0  0
 32 34  1  0  0  0  0
 33 31  1  0  0  0  0
 34 35  1  0  0  0  0
 34 37  1  1  0  0  0
 36 33  1  0  0  0  0
 36 32  1  0  0  0  0
 37 38  1  0  0  0  0
 38 43  1  0  0  0  0
 39 43  1  0  0  0  0
 41 40  1  0  0  0  0
 41 39  1  0  0  0  0
 42 38  2  0  0  0  0
 42 40  1  0  0  0  0
M  END
>  <MODEL>
2

>  <REMARK>
 VINA RESULT:      -9.1      1.444      4.135
  Name = 
  12 active torsions:
  status: ('A' for Active; 'I' for Inactive)
    1  A    between atoms: C_1  and  C_34
    2  A    between atoms: C_1  and  C_35
    3  A    between atoms: C_2  and  O_6
    4  A    between atoms: C_2  and  C_12
    5  A    between atoms: O_3  and  C_4
    6  A    between atoms: O_3  and  C_12
    7  A    between atoms: O_6  and  C_13
    8  A    between atoms: C_11  and  O_14
    9  A    between atoms: C_12  and  C_17
   10  A    between atoms: O_14  and  C_22
   11  A    between atoms: C_19  and  O_37
   12  A    between atoms: C_32  and  C_35
                            x       y       z     vdW  Elec       q    Type
                         _______ _______ _______ _____ _____    ______ ____

>  <TORSDO>
F 12

$$$$
=
 OpenBabel10262422233D

 43 49  0  0  1  0  0  0  0  0999 V2000
  187.2480  177.9570  147.1720 C   0  0  0  0  0  0  0  0  0  0  0  0
  183.9430  178.7260  143.3760 C   0  0  0  0  0  0  0  0  0  0  0  0
  185.4590  178.6510  140.9930 C   0  0  0  0  0  0  0  0  0  0  0  0
  185.2210  178.3590  145.8570 C   0  0  0  0  0  0  0  0  0  0  0  0
  188.0220  177.9000  146.0880 C   0  0  0  0  0  3  0  0  0  0  0  0
  187.8100  177.7930  148.4300 O   0  0  0  0  0  1  0  0  0  0  0  0
  185.9790  178.3140  144.6640 C   0  0  0  0  0  0  0  0  0  0  0  0
  185.8010  178.1910  147.0470 C   0  0  0  0  0  3  0  0  0  0  0  0
  187.4710  178.0710  144.6980 C   0  0  0  0  0  2  0  0  0  0  0  0
  186.0770  178.4640  142.2380 O   0  0  0  0  0  0  0  0  0  0  0  0
  185.3370  178.5010  143.4290 C   0  0  0  0  0  0  0  0  0  0  0  0
  183.2090  178.7620  144.5700 C   0  0  0  0  0  3  0  0  0  0  0  0
  183.3460  178.9070  142.1760 C   0  0  0  0  0  0  0  0  0  0  0  0
  184.1450  178.8660  140.9340 C   0  0  0  0  0  3  0  0  0  0  0  0
  183.8440  178.5800  145.7990 C   0  0  0  0  0  3  0  0  0  0  0  0
  181.8670  179.1270  142.0500 C   0  0  0  0  0  2  0  0  0  0  0  0
  181.2450  178.1330  141.0770 C   0  0  0  0  0  2  0  0  0  0  0  0
  180.6380  180.3370  140.1050 C   0  0  0  0  0  2  0  0  0  0  0  0
  180.4780  180.8540  138.6940 C   0  0  2  0  0  3  0  0  0  0  0  0
  180.9480  178.4630  138.6140 C   0  0  0  0  0  2  0  0  0  0  0  0
  180.4470  178.8440  139.9950 C   0  0  1  0  0  3  0  0  0  0  0  0
  180.9540  179.7360  137.7850 C   0  0  0  0  0  2  0  0  0  0  0  0
  180.8260  182.5350  137.2990 C   0  0  0  0  0  1  0  0  0  0  0  0
  181.2640  181.9910  138.5080 O   0  0  0  0  0  0  0  0  0  0  0  0
  186.2030  178.6120  139.8170 O   0  0  0  0  0  0  0  0  0  0  0  0
  185.5960  178.3130  138.5690 C   0  0  0  0  0  2  0  0  0  0  0  0
  186.6100  177.6560  137.6370 C   0  0  2  0  0  3  0  0  0  0  0  0
  186.5790  177.4080  135.1520 C   0  0  0  0  0  1  0  0  0  0  0  0
  185.9530  176.9450  136.4550 C   0  0  0  0  0  2  0  0  0  0  0  0
  187.5720  176.8650  138.3170 O   0  0  0  0  0  0  0  0  0  0  0  0
  188.8880  177.3000  138.0290 C   0  0  2  0  0  0  0  0  0  0  0  0
  191.0510  176.7030  139.0420 C   0  0  0  0  0  2  0  0  0  0  0  0
  189.7220  176.5180  137.0240 C   0  0  0  0  0  2  0  0  0  0  0  0
  189.7230  177.3850  139.2940 C   0  0  1  0  0  0  0  0  0  0  0  0
  189.3630  178.6550  138.5590 C   0  0  0  0  0  2  0  0  0  0  0  0
  190.8510  175.8650  137.7980 C   0  0  0  0  0  2  0  0  0  0  0  0
  189.0040  177.0930  140.4880 O   0  0  0  0  0  0  0  0  0  0  0  0
  189.5840  177.1590  141.7570 C   0  0  0  0  0  0  0  0  0  0  0  0
  190.9460  175.8110  143.3780 C   0  0  0  0  0  2  0  0  0  0  0  0
  190.7580  178.3770  143.5230 C   0  0  0  0  0  2  0  0  0  0  0  0
  191.6160  177.1370  143.7940 C   0  0  0  0  0  2  0  0  0  0  0  0
  190.1520  178.2960  142.1550 C   0  0  0  0  0  3  0  0  0  0  0  0
  189.5820  175.9780  142.6920 C   0  0  0  0  0  2  0  0  0  0  0  0
  1  6  1  0  0  0  0
  2 11  1  0  0  0  0
  2 12  1  0  0  0  0
  3 10  1  0  0  0  0
  4  8  2  0  0  0  0
  5  1  2  0  0  0  0
  7  9  1  0  0  0  0
  7  4  1  0  0  0  0
  8  1  1  0  0  0  0
  9  5  1  0  0  0  0
 10 11  1  0  0  0  0
 11  7  2  0  0  0  0
 12 15  2  0  0  0  0
 13  2  2  0  0  0  0
 14  3  2  0  0  0  0
 14 13  1  0  0  0  0
 15  4  1  0  0  0  0
 16 13  1  0  0  0  0
 17 16  1  0  0  0  0
 19 24  1  1  0  0  0
 19 18  1  0  0  0  0
 20 21  1  0  0  0  0
 21 18  1  0  0  0  0
 21 17  1  1  0  0  0
 22 20  1  0  0  0  0
 22 19  1  0  0  0  0
 23 24  1  0  0  0  0
 25  3  1  0  0  0  0
 26 25  1  0  0  0  0
 27 29  1  6  0  0  0
 27 30  1  0  0  0  0
 27 26  1  0  0  0  0
 28 29  1  0  0  0  0
 31 30  1  1  0  0  0
 31 35  1  0  0  0  0
 31 34  1  0  0  0  0
 32 34  1  0  0  0  0
 33 36  1  0  0  0  0
 33 31  1  0  0  0  0
 34 37  1  1  0  0  0
 35 34  1  0  0  0  0
 36 32  1  0  0  0  0
 37 38  1  0  0  0  0
 38 42  2  0  0  0  0
 38 43  1  0  0  0  0
 39 41  1  0  0  0  0
 40 41  1  0  0  0  0
 42 40  1  0  0  0  0
 43 39  1  0  0  0  0
M  END
>  <MODEL>
3

>  <REMARK>
 VINA RESULT:      -9.0      1.611      2.985
  Name = 
  12 active torsions:
  status: ('A' for Active; 'I' for Inactive)
    1  A    between atoms: C_1  and  C_34
    2  A    between atoms: C_1  and  C_35
    3  A    between atoms: C_2  and  O_6
    4  A    between atoms: C_2  and  C_12
    5  A    between atoms: O_3  and  C_4
    6  A    between atoms: O_3  and  C_12
    7  A    between atoms: O_6  and  C_13
    8  A    between atoms: C_11  and  O_14
    9  A    between atoms: C_12  and  C_17
   10  A    between atoms: O_14  and  C_22
   11  A    between atoms: C_19  and  O_37
   12  A    between atoms: C_32  and  C_35
                            x       y       z     vdW  Elec       q    Type
                         _______ _______ _______ _____ _____    ______ ____

>  <TORSDO>
F 12

$$$$
=
 OpenBabel10262422233D

 43 49  0  0  1  0  0  0  0  0999 V2000
  191.1070  176.7570  146.6810 C   0  0  0  0  0  0  0  0  0  0  0  0
  189.5840  177.5510  141.8880 C   0  0  0  0  0  0  0  0  0  0  0  0
  186.9420  178.5370  142.0620 C   0  0  0  0  0  0  0  0  0  0  0  0
  190.9940  176.9140  144.2390 C   0  0  0  0  0  0  0  0  0  0  0  0
  189.8690  177.2250  146.8370 C   0  0  0  0  0  3  0  0  0  0  0  0
  191.8590  176.4130  147.7960 O   0  0  0  0  0  1  0  0  0  0  0  0
  189.6750  177.4130  144.3270 C   0  0  0  0  0  0  0  0  0  0  0  0
  191.6850  176.6000  145.3370 C   0  0  0  0  0  3  0  0  0  0  0  0
  189.0040  177.6130  145.6680 C   0  0  0  0  0  3  0  0  0  0  0  0
  187.6630  178.2190  143.2220 O   0  0  0  0  0  0  0  0  0  0  0  0
  188.9750  177.7270  143.1510 C   0  0  0  0  0  0  0  0  0  0  0  0
  190.8960  177.0590  141.8240 C   0  0  0  0  0  2  0  0  0  0  0  0
  188.8910  177.8570  140.7680 C   0  0  0  0  0  0  0  0  0  0  0  0
  187.5090  178.3710  140.8670 C   0  0  0  0  0  3  0  0  0  0  0  0
  191.5930  176.7430  142.9900 C   0  0  0  0  0  3  0  0  0  0  0  0
  189.4880  177.7140  139.4000 C   0  0  0  0  0  2  0  0  0  0  0  0
  189.1150  178.8940  138.5120 C   0  0  0  0  0  2  0  0  0  0  0  0
  189.2850  177.0010  136.9130 C   0  0  0  0  0  2  0  0  0  0  0  0
  188.5090  176.5930  135.6820 C   0  0  2  0  0  3  0  0  0  0  0  0
  187.6570  178.7330  136.4830 C   0  0  0  0  0  2  0  0  0  0  0  0
  189.0440  178.4850  137.0490 C   0  0  1  0  0  3  0  0  0  0  0  0
  187.3240  177.5390  135.6050 C   0  0  0  0  0  2  0  0  0  0  0  0
  188.6300  174.8250  137.0040 C   0  0  0  0  0  1  0  0  0  0  0  0
  188.0640  175.2780  135.8110 O   0  0  0  0  0  0  0  0  0  0  0  0
  185.6410  179.0250  142.1430 O   0  0  0  0  0  0  0  0  0  0  0  0
  184.5410  178.1580  142.3710 C   0  0  0  0  0  2  0  0  0  0  0  0
  183.3300  178.6260  141.5680 C   0  0  2  0  0  3  0  0  0  0  0  0
  182.4440  178.6630  143.9030 C   0  0  0  0  0  1  0  0  0  0  0  0
  182.1340  178.9780  142.4520 C   0  0  0  0  0  2  0  0  0  0  0  0
  183.0070  177.7690  140.4850 O   0  0  0  0  0  0  0  0  0  0  0  0
  183.3220  178.3730  139.2430 C   0  0  2  0  0  0  0  0  0  0  0  0
  182.5190  177.9060  136.9630 C   0  0  0  0  0  2  0  0  0  0  0  0
  182.4750  179.5390  138.7530 C   0  0  0  0  0  2  0  0  0  0  0  0
  183.3180  177.3490  138.1220 C   0  0  1  0  0  0  0  0  0  0  0  0
  184.6220  177.9920  138.5330 C   0  0  0  0  0  2  0  0  0  0  0  0
  181.7140  179.0530  137.5350 C   0  0  0  0  0  2  0  0  0  0  0  0
  183.0830  176.0120  138.5540 O   0  0  0  0  0  0  0  0  0  0  0  0
  183.4280  174.8970  137.7860 C   0  0  0  0  0  0  0  0  0  0  0  0
  185.2660  173.2210  137.4550 C   0  0  0  0  0  2  0  0  0  0  0  0
  182.8540  172.8130  136.6450 C   0  0  0  0  0  2  0  0  0  0  0  0
  184.1600  172.1890  137.1470 C   0  0  0  0  0  2  0  0  0  0  0  0
  182.4920  174.0000  137.4840 C   0  0  0  0  0  3  0  0  0  0  0  0
  184.8320  174.6840  137.2850 C   0  0  0  0  0  2  0  0  0  0  0  0
  1  5  1  0  0  0  0
  1  6  1  0  0  0  0
  2 11  1  0  0  0  0
  3 25  1  0  0  0  0
  3 10  1  0  0  0  0
  4  7  1  0  0  0  0
  4  8  1  0  0  0  0
  7  9  1  0  0  0  0
  8  1  2  0  0  0  0
  9  5  2  0  0  0  0
 11 10  1  0  0  0  0
 11  7  2  0  0  0  0
 12  2  1  0  0  0  0
 12 15  1  0  0  0  0
 13 14  1  0  0  0  0
 13  2  2  0  0  0  0
 14  3  2  0  0  0  0
 15  4  2  0  0  0  0
 16 13  1  0  0  0  0
 17 16  1  0  0  0  0
 18 21  1  0  0  0  0
 19 24  1  1  0  0  0
 19 18  1  0  0  0  0
 20 21  1  0  0  0  0
 21 17  1  1  0  0  0
 22 19  1  0  0  0  0
 22 20  1  0  0  0  0
 24 23  1  0  0  0  0
 25 26  1  0  0  0  0
 27 26  1  1  0  0  0
 27 29  1  0  0  0  0
 29 28  1  0  0  0  0
 30 27  1  0  0  0  0
 31 30  1  1  0  0  0
 32 36  1  0  0  0  0
 32 34  1  0  0  0  0
 33 31  1  0  0  0  0
 34 35  1  0  0  0  0
 34 37  1  1  0  0  0
 34 31  1  0  0  0  0
 35 31  1  0  0  0  0
 36 33  1  0  0  0  0
 38 37  1  0  0  0  0
 40 41  1  0  0  0  0
 40 42  1  0  0  0  0
 41 39  1  0  0  0  0
 42 38  2  0  0  0  0
 43 39  1  0  0  0  0
 43 38  1  0  0  0  0
M  END
>  <MODEL>
4

>  <REMARK>
 VINA RESULT:      -8.6      2.070      6.616
  Name = 
  12 active torsions:
  status: ('A' for Active; 'I' for Inactive)
    1  A    between atoms: C_1  and  C_34
    2  A    between atoms: C_1  and  C_35
    3  A    between atoms: C_2  and  O_6
    4  A    between atoms: C_2  and  C_12
    5  A    between atoms: O_3  and  C_4
    6  A    between atoms: O_3  and  C_12
    7  A    between atoms: O_6  and  C_13
    8  A    between atoms: C_11  and  O_14
    9  A    between atoms: C_12  and  C_17
   10  A    between atoms: O_14  and  C_22
   11  A    between atoms: C_19  and  O_37
   12  A    between atoms: C_32  and  C_35
                            x       y       z     vdW  Elec       q    Type
                         _______ _______ _______ _____ _____    ______ ____

>  <TORSDO>
F 12

$$$$
=
 OpenBabel10262422233D

 43 49  0  0  1  0  0  0  0  0999 V2000
  183.4050  179.0360  143.1240 C   0  0  0  0  0  0  0  0  0  0  0  0
  188.1890  177.3010  142.9500 C   0  0  0  0  0  0  0  0  0  0  0  0
  189.0720  177.7090  140.2980 C   0  0  0  0  0  0  0  0  0  0  0  0
  185.5840  178.0690  143.6900 C   0  0  0  0  0  0  0  0  0  0  0  0
  183.7580  179.2660  141.8600 C   0  0  0  0  0  3  0  0  0  0  0  0
  182.1330  179.3810  143.5580 O   0  0  0  0  0  1  0  0  0  0  0  0
  186.0270  178.2790  142.3640 C   0  0  0  0  0  0  0  0  0  0  0  0
  184.3520  178.4200  144.0670 C   0  0  0  0  0  3  0  0  0  0  0  0
  185.1230  178.9130  141.3300 C   0  0  0  0  0  2  0  0  0  0  0  0
  187.7790  178.0900  140.6860 O   0  0  0  0  0  0  0  0  0  0  0  0
  187.3270  177.8920  142.0000 C   0  0  0  0  0  0  0  0  0  0  0  0
  187.7310  177.1060  144.2620 C   0  0  0  0  0  3  0  0  0  0  0  0
  189.4360  176.9330  142.5780 C   0  0  0  0  0  0  0  0  0  0  0  0
  189.8900  177.1490  141.1880 C   0  0  0  0  0  3  0  0  0  0  0  0
  186.4400  177.4870  144.6260 C   0  0  0  0  0  3  0  0  0  0  0  0
  190.4060  176.3220  143.5450 C   0  0  0  0  0  2  0  0  0  0  0  0
  191.4840  177.3220  143.9460 C   0  0  0  0  0  2  0  0  0  0  0  0
  190.3490  177.7300  146.1180 C   0  0  0  0  0  2  0  0  0  0  0  0
  190.4040  177.0630  147.4730 C   0  0  2  0  0  3  0  0  0  0  0  0
  192.0370  176.0070  146.0030 C   0  0  0  0  0  2  0  0  0  0  0  0
  191.6580  177.3710  145.4560 C   0  0  1  0  0  3  0  0  0  0  0  0
  191.2520  175.8180  147.2890 C   0  0  0  0  0  2  0  0  0  0  0  0
  188.4660  177.9270  148.0970 C   0  0  0  0  0  1  0  0  0  0  0  0
  189.1180  176.7110  147.8850 O   0  0  0  0  0  0  0  0  0  0  0  0
  189.5110  177.9100  138.9920 O   0  0  0  0  0  0  0  0  0  0  0  0
  188.6850  178.5410  138.0260 C   0  0  0  0  0  2  0  0  0  0  0  0
  187.9690  177.4900  137.1820 C   0  0  2  0  0  3  0  0  0  0  0  0
  185.7190  178.2930  137.9100 C   0  0  0  0  0  1  0  0  0  0  0  0
  186.5870  177.9460  136.7150 C   0  0  0  0  0  2  0  0  0  0  0  0
  187.9760  176.1970  137.7670 O   0  0  0  0  0  0  0  0  0  0  0  0
  187.9680  175.1860  136.7750 C   0  0  2  0  0  0  0  0  0  0  0  0
  188.7760  172.8620  136.8230 C   0  0  0  0  0  2  0  0  0  0  0  0
  186.7830  174.2340  136.7000 C   0  0  0  0  0  2  0  0  0  0  0  0
  189.2050  174.3120  136.8780 C   0  0  1  0  0  0  0  0  0  0  0  0
  189.0300  175.2090  135.6740 C   0  0  0  0  0  2  0  0  0  0  0  0
  187.2890  172.8640  137.1050 C   0  0  0  0  0  2  0  0  0  0  0  0
  190.1330  174.7290  137.8750 O   0  0  0  0  0  0  0  0  0  0  0  0
  191.4900  174.9230  137.6120 C   0  0  0  0  0  0  0  0  0  0  0  0
  193.1630  174.8930  135.7410 C   0  0  0  0  0  2  0  0  0  0  0  0
  193.6030  176.0980  137.9760 C   0  0  0  0  0  2  0  0  0  0  0  0
  193.8780  176.0500  136.4700 C   0  0  0  0  0  2  0  0  0  0  0  0
  192.1420  175.8990  138.2410 C   0  0  0  0  0  3  0  0  0  0  0  0
  192.2410  174.0540  136.6380 C   0  0  0  0  0  2  0  0  0  0  0  0
  1  6  1  0  0  0  0
  1  8  1  0  0  0  0
  2 12  1  0  0  0  0
  3 10  1  0  0  0  0
  3 14  2  0  0  0  0
  4  8  2  0  0  0  0
  4 15  1  0  0  0  0
  5  1  2  0  0  0  0
  7  4  1  0  0  0  0
  9  5  1  0  0  0  0
  9  7  1  0  0  0  0
 10 11  1  0  0  0  0
 11  7  2  0  0  0  0
 11  2  1  0  0  0  0
 12 15  2  0  0  0  0
 13  2  2  0  0  0  0
 13 16  1  0  0  0  0
 14 13  1  0  0  0  0
 16 17  1  0  0  0  0
 18 19  1  0  0  0  0
 19 24  1  6  0  0  0
 20 22  1  0  0  0  0
 21 17  1  6  0  0  0
 21 20  1  0  0  0  0
 21 18  1  0  0  0  0
 22 19  1  0  0  0  0
 24 23  1  0  0  0  0
 25  3  1  0  0  0  0
 26 25  1  0  0  0  0
 27 29  1  1  0  0  0
 27 30  1  0  0  0  0
 27 26  1  0  0  0  0
 29 28  1  0  0  0  0
 31 34  1  0  0  0  0
 31 30  1  1  0  0  0
 32 34  1  0  0  0  0
 32 36  1  0  0  0  0
 33 31  1  0  0  0  0
 33 36  1  0  0  0  0
 34 37  1  1  0  0  0
 35 31  1  0  0  0  0
 35 34  1  0  0  0  0
 38 37  1  0  0  0  0
 38 42  2  0  0  0  0
 39 41  1  0  0  0  0
 39 43  1  0  0  0  0
 40 42  1  0  0  0  0
 41 40  1  0  0  0  0
 43 38  1  0  0  0  0
M  END
>  <MODEL>
5

>  <REMARK>
 VINA RESULT:      -8.5      2.366      6.853
  Name = 
  12 active torsions:
  status: ('A' for Active; 'I' for Inactive)
    1  A    between atoms: C_1  and  C_34
    2  A    between atoms: C_1  and  C_35
    3  A    between atoms: C_2  and  O_6
    4  A    between atoms: C_2  and  C_12
    5  A    between atoms: O_3  and  C_4
    6  A    between atoms: O_3  and  C_12
    7  A    between atoms: O_6  and  C_13
    8  A    between atoms: C_11  and  O_14
    9  A    between atoms: C_12  and  C_17
   10  A    between atoms: O_14  and  C_22
   11  A    between atoms: C_19  and  O_37
   12  A    between atoms: C_32  and  C_35
                            x       y       z     vdW  Elec       q    Type
                         _______ _______ _______ _____ _____    ______ ____

>  <TORSDO>
F 12

$$$$
=
 OpenBabel10262422233D

 43 49  0  0  1  0  0  0  0  0999 V2000
  191.2400  176.6970  147.0370 C   0  0  0  0  0  0  0  0  0  0  0  0
  187.0930  177.8640  144.3230 C   0  0  0  0  0  0  0  0  0  0  0  0
  187.9090  177.8780  141.6180 C   0  0  0  0  0  0  0  0  0  0  0  0
  188.9630  177.2760  146.3430 C   0  0  0  0  0  0  0  0  0  0  0  0
  191.6910  176.6760  145.7830 C   0  0  0  0  0  3  0  0  0  0  0  0
  192.1070  176.4250  148.0860 O   0  0  0  0  0  1  0  0  0  0  0  0
  189.3710  177.2760  144.9890 C   0  0  0  0  0  0  0  0  0  0  0  0
  189.8290  177.0040  147.3210 C   0  0  0  0  0  3  0  0  0  0  0  0
  190.7990  176.9640  144.6040 C   0  0  0  0  0  2  0  0  0  0  0  0
  188.8250  177.5810  142.6380 O   0  0  0  0  0  0  0  0  0  0  0  0
  188.4340  177.5730  143.9850 C   0  0  0  0  0  0  0  0  0  0  0  0
  186.7090  177.8540  145.6710 C   0  0  0  0  0  3  0  0  0  0  0  0
  186.2090  178.1500  143.3410 C   0  0  0  0  0  0  0  0  0  0  0  0
  186.6430  178.1560  141.9280 C   0  0  0  0  0  3  0  0  0  0  0  0
  187.6370  177.5620  146.6710 C   0  0  0  0  0  3  0  0  0  0  0  0
  184.7670  178.4460  143.6310 C   0  0  0  0  0  2  0  0  0  0  0  0
  184.0620  179.0030  142.4000 C   0  0  0  0  0  2  0  0  0  0  0  0
  181.6280  178.9790  141.9060 C   0  0  0  0  0  2  0  0  0  0  0  0
  180.7740  178.2900  140.8670 C   0  0  2  0  0  3  0  0  0  0  0  0
  183.0810  177.5410  140.6200 C   0  0  0  0  0  2  0  0  0  0  0  0
  182.8780  178.1370  142.0010 C   0  0  1  0  0  3  0  0  0  0  0  0
  181.7430  177.6260  139.9060 C   0  0  0  0  0  2  0  0  0  0  0  0
  180.0540  180.3780  140.9790 C   0  0  0  0  0  1  0  0  0  0  0  0
  179.9950  179.2280  140.1890 O   0  0  0  0  0  0  0  0  0  0  0  0
  188.3070  177.8830  140.2830 O   0  0  0  0  0  0  0  0  0  0  0  0
  187.5250  178.5160  139.2830 C   0  0  0  0  0  2  0  0  0  0  0  0
  187.6250  177.7410  137.9720 C   0  0  2  0  0  3  0  0  0  0  0  0
  185.2290  177.2040  137.5210 C   0  0  0  0  0  1  0  0  0  0  0  0
  186.4360  177.9890  137.0450 C   0  0  0  0  0  2  0  0  0  0  0  0
  187.9330  176.3680  138.1500 O   0  0  0  0  0  0  0  0  0  0  0  0
  189.0080  175.9720  137.3160 C   0  0  2  0  0  0  0  0  0  0  0  0
  189.1640  175.7500  134.8690 C   0  0  0  0  0  2  0  0  0  0  0  0
  189.9480  177.0360  136.7680 C   0  0  0  0  0  2  0  0  0  0  0  0
  188.5060  175.1940  136.1130 C   0  0  1  0  0  0  0  0  0  0  0  0
  189.3290  174.4840  137.1630 C   0  0  0  0  0  2  0  0  0  0  0  0
  189.7210  177.0990  135.2700 C   0  0  0  0  0  2  0  0  0  0  0  0
  187.1010  174.9590  136.1150 O   0  0  0  0  0  0  0  0  0  0  0  0
  186.5460  173.6850  136.2500 C   0  0  0  0  0  0  0  0  0  0  0  0
  184.5690  172.4850  137.2270 C   0  0  0  0  0  2  0  0  0  0  0  0
  186.0430  171.4560  135.3800 C   0  0  0  0  0  2  0  0  0  0  0  0
  184.6500  171.5330  136.0150 C   0  0  0  0  0  2  0  0  0  0  0  0
  186.6190  172.8310  135.2310 C   0  0  0  0  0  3  0  0  0  0  0  0
  185.8700  173.2460  137.5230 C   0  0  0  0  0  2  0  0  0  0  0  0
  1  8  1  0  0  0  0
  1  6  1  0  0  0  0
  2 12  1  0  0  0  0
  3 14  2  0  0  0  0
  3 10  1  0  0  0  0
  4 15  1  0  0  0  0
  4  8  2  0  0  0  0
  5  1  2  0  0  0  0
  7  4  1  0  0  0  0
  9  7  1  0  0  0  0
  9  5  1  0  0  0  0
 10 11  1  0  0  0  0
 11  2  1  0  0  0  0
 11  7  2  0  0  0  0
 12 15  2  0  0  0  0
 13 16  1  0  0  0  0
 13  2  2  0  0  0  0
 14 13  1  0  0  0  0
 17 16  1  0  0  0  0
 18 21  1  0  0  0  0
 19 24  1  6  0  0  0
 19 18  1  0  0  0  0
 20 21  1  0  0  0  0
 21 17  1  6  0  0  0
 22 20  1  0  0  0  0
 22 19  1  0  0  0  0
 24 23  1  0  0  0  0
 25  3  1  0  0  0  0
 26 25  1  0  0  0  0
 27 29  1  1  0  0  0
 27 30  1  0  0  0  0
 27 26  1  0  0  0  0
 29 28  1  0  0  0  0
 31 30  1  1  0  0  0
 32 36  1  0  0  0  0
 32 34  1  0  0  0  0
 33 31  1  0  0  0  0
 34 37  1  6  0  0  0
 34 35  1  0  0  0  0
 34 31  1  0  0  0  0
 35 31  1  0  0  0  0
 36 33  1  0  0  0  0
 37 38  1  0  0  0  0
 38 43  1  0  0  0  0
 39 43  1  0  0  0  0
 40 41  1  0  0  0  0
 41 39  1  0  0  0  0
 42 40  1  0  0  0  0
 42 38  2  0  0  0  0
M  END
>  <MODEL>
6

>  <REMARK>
 VINA RESULT:      -8.5      2.135      3.879
  Name = 
  12 active torsions:
  status: ('A' for Active; 'I' for Inactive)
    1  A    between atoms: C_1  and  C_34
    2  A    between atoms: C_1  and  C_35
    3  A    between atoms: C_2  and  O_6
    4  A    between atoms: C_2  and  C_12
    5  A    between atoms: O_3  and  C_4
    6  A    between atoms: O_3  and  C_12
    7  A    between atoms: O_6  and  C_13
    8  A    between atoms: C_11  and  O_14
    9  A    between atoms: C_12  and  C_17
   10  A    between atoms: O_14  and  C_22
   11  A    between atoms: C_19  and  O_37
   12  A    between atoms: C_32  and  C_35
                            x       y       z     vdW  Elec       q    Type
                         _______ _______ _______ _____ _____    ______ ____

>  <TORSDO>
F 12

$$$$
=
 OpenBabel10262422233D

 43 49  0  0  1  0  0  0  0  0999 V2000
  180.9400  179.1280  141.5020 C   0  0  0  0  0  0  0  0  0  0  0  0
  185.1690  178.4610  144.2580 C   0  0  0  0  0  0  0  0  0  0  0  0
  187.2200  177.8620  142.4090 C   0  0  0  0  0  0  0  0  0  0  0  0
  182.5540  178.9430  143.3360 C   0  0  0  0  0  0  0  0  0  0  0  0
  181.8600  178.8600  140.5740 C   0  0  0  0  0  3  0  0  0  0  0  0
  179.6270  179.3670  141.1220 O   0  0  0  0  0  1  0  0  0  0  0  0
  183.5810  178.6500  142.4090 C   0  0  0  0  0  0  0  0  0  0  0  0
  181.3040  179.1720  142.9270 C   0  0  0  0  0  3  0  0  0  0  0  0
  183.2990  178.5910  140.9240 C   0  0  0  0  0  2  0  0  0  0  0  0
  185.9120  178.1110  141.9680 O   0  0  0  0  0  0  0  0  0  0  0  0
  184.8830  178.4080  142.8750 C   0  0  0  0  0  0  0  0  0  0  0  0
  184.1370  178.7580  145.1590 C   0  0  0  0  0  3  0  0  0  0  0  0
  186.4300  178.2210  144.6850 C   0  0  0  0  0  0  0  0  0  0  0  0
  187.4970  177.9080  143.7120 C   0  0  0  0  0  3  0  0  0  0  0  0
  182.8410  178.9960  144.7000 C   0  0  0  0  0  3  0  0  0  0  0  0
  186.8030  178.2850  146.1360 C   0  0  0  0  0  2  0  0  0  0  0  0
  187.7120  177.1240  146.5210 C   0  0  0  0  0  2  0  0  0  0  0  0
  189.8830  176.5850  147.6000 C   0  0  0  0  0  2  0  0  0  0  0  0
  191.3280  176.7190  147.1770 C   0  0  2  0  0  3  0  0  0  0  0  0
  189.9030  177.6890  145.4520 C   0  0  0  0  0  2  0  0  0  0  0  0
  189.1380  177.5940  146.7590 C   0  0  1  0  0  3  0  0  0  0  0  0
  191.2970  177.1470  145.7210 C   0  0  0  0  0  2  0  0  0  0  0  0
  192.8050  175.6370  148.4170 C   0  0  0  0  0  1  0  0  0  0  0  0
  191.9790  175.4920  147.3010 O   0  0  0  0  0  0  0  0  0  0  0  0
  188.2340  177.5690  141.5000 O   0  0  0  0  0  0  0  0  0  0  0  0
  188.2220  178.1030  140.1850 C   0  0  0  0  0  2  0  0  0  0  0  0
  189.0000  177.1890  139.2420 C   0  0  2  0  0  3  0  0  0  0  0  0
  191.2680  177.5030  140.2390 C   0  0  0  0  0  1  0  0  0  0  0  0
  190.1770  176.4960  139.9260 C   0  0  0  0  0  2  0  0  0  0  0  0
  189.3380  177.8070  138.0100 O   0  0  0  0  0  0  0  0  0  0  0  0
  188.8470  177.0590  136.9120 C   0  0  2  0  0  0  0  0  0  0  0  0
  189.6430  174.9650  135.8910 C   0  0  0  0  0  2  0  0  0  0  0  0
  187.8340  175.9520  137.1650 C   0  0  0  0  0  2  0  0  0  0  0  0
  189.9850  176.4190  136.1360 C   0  0  1  0  0  0  0  0  0  0  0  0
  189.1730  177.5170  135.4880 C   0  0  0  0  0  2  0  0  0  0  0  0
  188.5260  174.6390  136.8580 C   0  0  0  0  0  2  0  0  0  0  0  0
  191.2820  176.7610  136.6150 O   0  0  0  0  0  0  0  0  0  0  0  0
  192.3640  175.8780  136.5660 C   0  0  0  0  0  0  0  0  0  0  0  0
  194.7450  175.7150  135.7910 C   0  0  0  0  0  2  0  0  0  0  0  0
  193.7450  174.1160  137.5480 C   0  0  0  0  0  2  0  0  0  0  0  0
  195.0000  174.8210  137.0230 C   0  0  0  0  0  2  0  0  0  0  0  0
  192.5980  175.0780  137.6040 C   0  0  0  0  0  3  0  0  0  0  0  0
  193.2720  175.8030  135.3670 C   0  0  0  0  0  2  0  0  0  0  0  0
  1  8  1  0  0  0  0
  2 13  2  0  0  0  0
  2 12  1  0  0  0  0
  3 14  2  0  0  0  0
  4 15  1  0  0  0  0
  5  9  1  0  0  0  0
  5  1  2  0  0  0  0
  6  1  1  0  0  0  0
  7 11  2  0  0  0  0
  7  4  1  0  0  0  0
  8  4  2  0  0  0  0
  9  7  1  0  0  0  0
 10  3  1  0  0  0  0
 10 11  1  0  0  0  0
 11  2  1  0  0  0  0
 13 16  1  0  0  0  0
 14 13  1  0  0  0  0
 15 12  2  0  0  0  0
 16 17  1  0  0  0  0
 19 24  1  6  0  0  0
 19 18  1  0  0  0  0
 20 22  1  0  0  0  0
 20 21  1  0  0  0  0
 21 17  1  6  0  0  0
 21 18  1  0  0  0  0
 22 19  1  0  0  0  0
 24 23  1  0  0  0  0
 25  3  1  0  0  0  0
 26 25  1  0  0  0  0
 27 29  1  1  0  0  0
 27 26  1  0  0  0  0
 29 28  1  0  0  0  0
 30 27  1  0  0  0  0
 31 33  1  0  0  0  0
 31 30  1  1  0  0  0
 32 34  1  0  0  0  0
 32 36  1  0  0  0  0
 34 37  1  1  0  0  0
 34 31  1  0  0  0  0
 35 34  1  0  0  0  0
 35 31  1  0  0  0  0
 36 33  1  0  0  0  0
 38 37  1  0  0  0  0
 38 42  2  0  0  0  0
 39 41  1  0  0  0  0
 40 42  1  0  0  0  0
 41 40  1  0  0  0  0
 43 39  1  0  0  0  0
 43 38  1  0  0  0  0
M  END
>  <MODEL>
7

>  <REMARK>
 VINA RESULT:      -8.5      2.291      7.264
  Name = 
  12 active torsions:
  status: ('A' for Active; 'I' for Inactive)
    1  A    between atoms: C_1  and  C_34
    2  A    between atoms: C_1  and  C_35
    3  A    between atoms: C_2  and  O_6
    4  A    between atoms: C_2  and  C_12
    5  A    between atoms: O_3  and  C_4
    6  A    between atoms: O_3  and  C_12
    7  A    between atoms: O_6  and  C_13
    8  A    between atoms: C_11  and  O_14
    9  A    between atoms: C_12  and  C_17
   10  A    between atoms: O_14  and  C_22
   11  A    between atoms: C_19  and  O_37
   12  A    between atoms: C_32  and  C_35
                            x       y       z     vdW  Elec       q    Type
                         _______ _______ _______ _____ _____    ______ ____

>  <TORSDO>
F 12

$$$$
=
 OpenBabel10262422233D

 43 49  0  0  1  0  0  0  0  0999 V2000
  189.0770  177.4120  146.7310 C   0  0  0  0  0  0  0  0  0  0  0  0
  190.0810  177.3660  141.7400 C   0  0  0  0  0  0  0  0  0  0  0  0
  187.7120  178.2180  140.4580 C   0  0  0  0  0  0  0  0  0  0  0  0
  190.1620  177.1820  144.5470 C   0  0  0  0  0  0  0  0  0  0  0  0
  187.9300  177.8290  146.1930 C   0  0  0  0  0  3  0  0  0  0  0  0
  189.1870  177.2890  148.1090 O   0  0  0  0  0  1  0  0  0  0  0  0
  188.9780  177.6140  143.9070 C   0  0  0  0  0  0  0  0  0  0  0  0
  190.2280  177.0810  145.8760 C   0  0  0  0  0  3  0  0  0  0  0  0
  187.7490  177.9820  144.7070 C   0  0  0  0  0  3  0  0  0  0  0  0
  187.7730  178.1250  141.8560 O   0  0  0  0  0  0  0  0  0  0  0  0
  188.9420  177.7020  142.5060 C   0  0  0  0  0  0  0  0  0  0  0  0
  191.2470  176.9440  142.3950 C   0  0  0  0  0  2  0  0  0  0  0  0
  190.0240  177.4550  140.3910 C   0  0  0  0  0  0  0  0  0  0  0  0
  188.7810  177.9010  139.7280 C   0  0  0  0  0  3  0  0  0  0  0  0
  191.2850  176.8530  143.7860 C   0  0  0  0  0  3  0  0  0  0  0  0
  191.2040  177.1340  139.5230 C   0  0  0  0  0  2  0  0  0  0  0  0
  190.7660  176.4680  138.2240 C   0  0  0  0  0  2  0  0  0  0  0  0
  193.2440  176.3190  138.1430 C   0  0  0  0  0  2  0  0  0  0  0  0
  194.2170  175.2580  137.6820 C   0  0  2  0  0  3  0  0  0  0  0  0
  191.9460  174.5120  137.2030 C   0  0  0  0  0  2  0  0  0  0  0  0
  191.9630  176.0160  137.4030 C   0  0  1  0  0  3  0  0  0  0  0  0
  193.3780  174.0330  137.3660 C   0  0  0  0  0  2  0  0  0  0  0  0
  196.0720  174.1320  138.1070 C   0  0  0  0  0  1  0  0  0  0  0  0
  195.1250  174.9670  138.7010 O   0  0  0  0  0  0  0  0  0  0  0  0
  186.5460  178.6400  139.8230 O   0  0  0  0  0  0  0  0  0  0  0  0
  186.4080  178.5710  138.4130 C   0  0  0  0  0  2  0  0  0  0  0  0
  185.1590  177.7750  138.0470 C   0  0  2  0  0  3  0  0  0  0  0  0
  186.5770  177.4710  136.0140 C   0  0  0  0  0  1  0  0  0  0  0  0
  185.2640  177.1020  136.6790 C   0  0  0  0  0  2  0  0  0  0  0  0
  183.9530  178.4990  138.2350 O   0  0  0  0  0  0  0  0  0  0  0  0
  182.8430  177.6270  138.3440 C   0  0  2  0  0  0  0  0  0  0  0  0
  180.5910  177.9760  139.2740 C   0  0  0  0  0  2  0  0  0  0  0  0
  181.8180  177.5930  137.2190 C   0  0  0  0  0  2  0  0  0  0  0  0
  182.0620  177.8930  139.6180 C   0  0  1  0  0  0  0  0  0  0  0  0
  182.8110  176.5890  139.4680 C   0  0  0  0  0  2  0  0  0  0  0  0
  180.5320  178.1750  137.7740 C   0  0  0  0  0  2  0  0  0  0  0  0
  182.6400  178.8870  140.4590 O   0  0  0  0  0  0  0  0  0  0  0  0
  182.8850  178.6790  141.8180 C   0  0  0  0  0  0  0  0  0  0  0  0
  184.6390  179.0130  143.5820 C   0  0  0  0  0  2  0  0  0  0  0  0
  182.1550  178.6330  144.1510 C   0  0  0  0  0  2  0  0  0  0  0  0
  183.4820  179.2730  144.5690 C   0  0  0  0  0  2  0  0  0  0  0  0
  181.9010  178.8740  142.6940 C   0  0  0  0  0  3  0  0  0  0  0  0
  184.2330  178.2350  142.3220 C   0  0  0  0  0  2  0  0  0  0  0  0
  1  6  1  0  0  0  0
  2 12  1  0  0  0  0
  2 11  1  0  0  0  0
  3 10  1  0  0  0  0
  4  8  1  0  0  0  0
  5  1  1  0  0  0  0
  7  4  1  0  0  0  0
  7  9  1  0  0  0  0
  8  1  2  0  0  0  0
  9  5  2  0  0  0  0
 10 11  1  0  0  0  0
 11  7  2  0  0  0  0
 12 15  1  0  0  0  0
 13  2  2  0  0  0  0
 14 13  1  0  0  0  0
 14  3  2  0  0  0  0
 15  4  2  0  0  0  0
 16 13  1  0  0  0  0
 17 16  1  0  0  0  0
 19 18  1  0  0  0  0
 19 24  1  1  0  0  0
 20 22  1  0  0  0  0
 20 21  1  0  0  0  0
 21 18  1  0  0  0  0
 21 17  1  1  0  0  0
 22 19  1  0  0  0  0
 23 24  1  0  0  0  0
 25  3  1  0  0  0  0
 26 25  1  0  0  0  0
 27 29  1  6  0  0  0
 27 30  1  0  0  0  0
 27 26  1  0  0  0  0
 28 29  1  0  0  0  0
 31 30  1  6  0  0  0
 31 35  1  0  0  0  0
 31 34  1  0  0  0  0
 32 34  1  0  0  0  0
 33 36  1  0  0  0  0
 33 31  1  0  0  0  0
 34 37  1  1  0  0  0
 35 34  1  0  0  0  0
 36 32  1  0  0  0  0
 37 38  1  0  0  0  0
 38 43  1  0  0  0  0
 38 42  2  0  0  0  0
 39 41  1  0  0  0  0
 40 41  1  0  0  0  0
 42 40  1  0  0  0  0
 43 39  1  0  0  0  0
M  END
>  <MODEL>
8

>  <REMARK>
 VINA RESULT:      -8.4      2.190      8.196
  Name = 
  12 active torsions:
  status: ('A' for Active; 'I' for Inactive)
    1  A    between atoms: C_1  and  C_34
    2  A    between atoms: C_1  and  C_35
    3  A    between atoms: C_2  and  O_6
    4  A    between atoms: C_2  and  C_12
    5  A    between atoms: O_3  and  C_4
    6  A    between atoms: O_3  and  C_12
    7  A    between atoms: O_6  and  C_13
    8  A    between atoms: C_11  and  O_14
    9  A    between atoms: C_12  and  C_17
   10  A    between atoms: O_14  and  C_22
   11  A    between atoms: C_19  and  O_37
   12  A    between atoms: C_32  and  C_35
                            x       y       z     vdW  Elec       q    Type
                         _______ _______ _______ _____ _____    ______ ____

>  <TORSDO>
F 12

$$$$
=
 OpenBabel10262422233D

 43 49  0  0  1  0  0  0  0  0999 V2000
  181.3190  178.9330  143.3550 C   0  0  0  0  0  0  0  0  0  0  0  0
  186.3570  178.2660  143.0460 C   0  0  0  0  0  0  0  0  0  0  0  0
  186.9880  178.3370  140.2930 C   0  0  0  0  0  0  0  0  0  0  0  0
  183.6870  178.5840  143.8770 C   0  0  0  0  0  0  0  0  0  0  0  0
  181.5460  178.9870  142.0420 C   0  0  0  0  0  3  0  0  0  0  0  0
  180.0260  179.0740  143.8370 O   0  0  0  0  0  1  0  0  0  0  0  0
  184.0020  178.6260  142.4990 C   0  0  0  0  0  0  0  0  0  0  0  0
  182.4290  178.7280  144.2990 C   0  0  0  0  0  3  0  0  0  0  0  0
  182.9260  178.8410  141.4590 C   0  0  0  0  0  2  0  0  0  0  0  0
  185.6630  178.4990  140.7270 O   0  0  0  0  0  0  0  0  0  0  0  0
  185.3360  178.4650  142.0900 C   0  0  0  0  0  0  0  0  0  0  0  0
  186.0240  178.2320  144.4080 C   0  0  0  0  0  3  0  0  0  0  0  0
  187.6350  178.1100  142.6300 C   0  0  0  0  0  0  0  0  0  0  0  0
  187.9570  178.1470  141.1890 C   0  0  0  0  0  3  0  0  0  0  0  0
  184.7000  178.3900  144.8180 C   0  0  0  0  0  3  0  0  0  0  0  0
  188.7670  177.9180  143.5960 C   0  0  0  0  0  2  0  0  0  0  0  0
  189.9890  177.3320  142.8990 C   0  0  0  0  0  2  0  0  0  0  0  0
  190.7460  177.6070  145.2490 C   0  0  0  0  0  2  0  0  0  0  0  0
  191.6460  176.8070  146.1620 C   0  0  2  0  0  3  0  0  0  0  0  0
  191.6520  175.7840  143.9500 C   0  0  0  0  0  2  0  0  0  0  0  0
  191.1680  177.2190  143.8520 C   0  0  1  0  0  3  0  0  0  0  0  0
  191.9680  175.5280  145.4130 C   0  0  0  0  0  2  0  0  0  0  0  0
  189.6340  176.7710  147.0810 C   0  0  0  0  0  1  0  0  0  0  0  0
  190.9790  176.5120  147.3510 O   0  0  0  0  0  0  0  0  0  0  0  0
  187.3020  178.3740  138.9370 O   0  0  0  0  0  0  0  0  0  0  0  0
  186.2990  178.5700  137.9530 C   0  0  0  0  0  2  0  0  0  0  0  0
  186.0290  177.2630  137.2130 C   0  0  2  0  0  3  0  0  0  0  0  0
  183.6450  177.7520  137.7730 C   0  0  0  0  0  1  0  0  0  0  0  0
  184.6710  176.6550  137.5620 C   0  0  0  0  0  2  0  0  0  0  0  0
  187.1040  176.3400  137.2870 O   0  0  0  0  0  0  0  0  0  0  0  0
  187.7530  176.2090  136.0350 C   0  0  2  0  0  0  0  0  0  0  0  0
  189.1170  174.3860  135.1000 C   0  0  0  0  0  2  0  0  0  0  0  0
  187.0070  175.5560  134.8810 C   0  0  0  0  0  2  0  0  0  0  0  0
  189.0590  175.4490  136.1760 C   0  0  1  0  0  0  0  0  0  0  0  0
  189.0920  176.9140  135.8080 C   0  0  0  0  0  2  0  0  0  0  0  0
  187.6990  174.2380  134.5950 C   0  0  0  0  0  2  0  0  0  0  0  0
  189.3920  175.1030  137.5170 O   0  0  0  0  0  0  0  0  0  0  0  0
  190.5870  175.4950  138.1260 C   0  0  0  0  0  0  0  0  0  0  0  0
  192.9780  176.0530  137.6060 C   0  0  0  0  0  2  0  0  0  0  0  0
  191.8270  176.7830  139.7930 C   0  0  0  0  0  2  0  0  0  0  0  0
  192.8980  177.0940  138.7420 C   0  0  0  0  0  2  0  0  0  0  0  0
  190.5500  176.3750  139.1250 C   0  0  0  0  0  3  0  0  0  0  0  0
  191.9180  174.9440  137.6870 C   0  0  0  0  0  2  0  0  0  0  0  0
  1  6  1  0  0  0  0
  1  8  1  0  0  0  0
  2 12  1  0  0  0  0
  3 10  1  0  0  0  0
  3 14  2  0  0  0  0
  4  8  2  0  0  0  0
  4 15  1  0  0  0  0
  5  1  2  0  0  0  0
  7  4  1  0  0  0  0
  9  5  1  0  0  0  0
  9  7  1  0  0  0  0
 10 11  1  0  0  0  0
 11  7  2  0  0  0  0
 11  2  1  0  0  0  0
 12 15  2  0  0  0  0
 13  2  2  0  0  0  0
 13 16  1  0  0  0  0
 14 13  1  0  0  0  0
 17 16  1  0  0  0  0
 18 19  1  0  0  0  0
 19 24  1  1  0  0  0
 20 22  1  0  0  0  0
 21 17  1  6  0  0  0
 21 20  1  0  0  0  0
 21 18  1  0  0  0  0
 22 19  1  0  0  0  0
 23 24  1  0  0  0  0
 25  3  1  0  0  0  0
 26 25  1  0  0  0  0
 27 30  1  0  0  0  0
 27 29  1  1  0  0  0
 27 26  1  0  0  0  0
 29 28  1  0  0  0  0
 31 34  1  0  0  0  0
 31 30  1  1  0  0  0
 32 34  1  0  0  0  0
 33 31  1  0  0  0  0
 34 37  1  1  0  0  0
 35 31  1  0  0  0  0
 35 34  1  0  0  0  0
 36 33  1  0  0  0  0
 36 32  1  0  0  0  0
 37 38  1  0  0  0  0
 38 42  2  0  0  0  0
 39 43  1  0  0  0  0
 39 41  1  0  0  0  0
 41 40  1  0  0  0  0
 42 40  1  0  0  0  0
 43 38  1  0  0  0  0
M  END
>  <MODEL>
9

>  <REMARK>
 VINA RESULT:      -8.3      1.727      6.558
  Name = 
  12 active torsions:
  status: ('A' for Active; 'I' for Inactive)
    1  A    between atoms: C_1  and  C_34
    2  A    between atoms: C_1  and  C_35
    3  A    between atoms: C_2  and  O_6
    4  A    between atoms: C_2  and  C_12
    5  A    between atoms: O_3  and  C_4
    6  A    between atoms: O_3  and  C_12
    7  A    between atoms: O_6  and  C_13
    8  A    between atoms: C_11  and  O_14
    9  A    between atoms: C_12  and  C_17
   10  A    between atoms: O_14  and  C_22
   11  A    between atoms: C_19  and  O_37
   12  A    between atoms: C_32  and  C_35
                            x       y       z     vdW  Elec       q    Type
                         _______ _______ _______ _____ _____    ______ ____

>  <TORSDO>
F 12

$$$$
