=
 OpenBabel10262419323D

 31 35  0  0  0  0  0  0  0  0999 V2000
  185.0000  178.5610  144.2840 C   0  0  0  0  0  0  0  0  0  0  0  0
  188.6030  177.4920  144.0340 C   0  0  0  0  0  0  0  0  0  0  0  0
  189.1060  177.3900  145.3680 C   0  0  0  0  0  0  0  0  0  0  0  0
  188.5510  177.3280  138.7700 O   0  0  0  0  0  0  0  0  0  0  0  0
  189.7010  177.0020  139.1730 C   0  0  0  0  0  0  0  0  0  0  0  0
  188.8480  177.5490  147.7940 C   0  0  0  0  0  0  0  0  0  0  0  0
  187.2700  177.8730  143.6950 C   0  0  0  0  0  0  0  0  0  0  0  0
  184.6530  178.6170  142.9360 C   0  0  0  0  0  3  0  0  0  0  0  0
  188.3220  177.6600  146.5040 C   0  0  0  0  0  3  0  0  0  0  0  0
  189.0720  177.2720  141.6380 C   0  0  0  0  0  0  0  0  0  0  0  0
  183.9950  178.8930  145.3260 C   0  0  0  0  0  1  0  0  0  0  0  0
  191.2700  176.7230  144.4890 C   0  0  0  0  0  3  0  0  0  0  0  0
  188.0480  177.8230  148.8950 O   0  0  0  0  0  1  0  0  0  0  0  0
  187.7960  177.6380  141.3590 N   0  0  0  0  0  0  0  0  0  0  0  0
  189.4990  177.1920  142.9700 C   0  0  0  0  0  0  0  0  0  0  0  0
  189.9890  176.9660  140.5780 N   0  0  0  0  0  2  0  0  0  0  0  0
  186.2950  178.1940  144.6570 C   0  0  0  0  0  3  0  0  0  0  0  0
  190.1760  177.1650  147.9750 C   0  0  0  0  0  3  0  0  0  0  0  0
  186.8980  177.9360  142.3290 C   0  0  0  0  0  0  0  0  0  0  0  0
  185.6000  178.3050  141.9610 C   0  0  0  0  0  3  0  0  0  0  0  0
  190.7830  176.8240  143.2300 N   0  0  0  0  0  0  0  0  0  0  0  0
  190.4540  177.0010  145.5760 C   0  0  0  0  0  0  0  0  0  0  0  0
  190.9780  176.8910  146.8680 C   0  0  0  0  0  3  0  0  0  0  0  0
  192.7210  175.9820  136.3000 C   0  0  0  0  0  0  0  0  0  0  0  0
  190.3960  176.2520  136.9080 C   0  0  0  0  0  3  0  0  0  0  0  0
  192.5440  177.1010  139.7690 F   0  0  0  0  0  0  0  0  0  0  0  0
  193.6650  175.6580  135.3840 F   0  0  0  0  0  0  0  0  0  0  0  0
  191.3690  175.9170  135.9620 C   0  0  0  0  0  3  0  0  0  0  0  0
  192.1330  176.7180  138.5340 C   0  0  0  0  0  0  0  0  0  0  0  0
  190.7620  176.6560  138.2020 C   0  0  0  0  0  0  0  0  0  0  0  0
  193.1010  176.3810  137.5820 C   0  0  0  0  0  3  0  0  0  0  0  0
  1 17  1  0  0  0  0
  1 11  1  0  0  0  0
  2  3  1  0  0  0  0
  3 22  2  0  0  0  0
  3  9  1  0  0  0  0
  4  5  2  0  0  0  0
  5 16  1  0  0  0  0
  6 18  1  0  0  0  0
  6 13  1  0  0  0  0
  7  2  1  0  0  0  0
  7 17  2  0  0  0  0
  8  1  2  0  0  0  0
  9  6  2  0  0  0  0
 10 15  1  0  0  0  0
 12 22  1  0  0  0  0
 14 10  2  0  0  0  0
 14 19  1  0  0  0  0
 15 21  1  0  0  0  0
 15  2  2  0  0  0  0
 16 10  1  0  0  0  0
 19  7  1  0  0  0  0
 20 19  2  0  0  0  0
 20  8  1  0  0  0  0
 21 12  2  0  0  0  0
 22 23  1  0  0  0  0
 23 18  2  0  0  0  0
 24 31  1  0  0  0  0
 25 30  2  0  0  0  0
 27 24  1  0  0  0  0
 28 24  2  0  0  0  0
 28 25  1  0  0  0  0
 29 26  1  0  0  0  0
 30 29  1  0  0  0  0
 30  5  1  0  0  0  0
 31 29  2  0  0  0  0
M  END
>  <MODEL>
1

>  <REMARK>
 VINA RESULT:     -11.9      0.000      0.000
  Name = 
  1 active torsions:
  status: ('A' for Active; 'I' for Inactive)
    1  A    between atoms: C_9  and  C_22
                            x       y       z     vdW  Elec       q    Type
                         _______ _______ _______ _____ _____    ______ ____

>  <TORSDO>
F 1

$$$$
=
 OpenBabel10262419323D

 31 35  0  0  0  0  0  0  0  0999 V2000
  185.6180  178.6040  144.3880 C   0  0  0  0  0  0  0  0  0  0  0  0
  189.1590  177.3420  144.1540 C   0  0  0  0  0  0  0  0  0  0  0  0
  189.6700  177.2720  145.4860 C   0  0  0  0  0  0  0  0  0  0  0  0
  189.0410  176.9550  138.9020 O   0  0  0  0  0  0  0  0  0  0  0  0
  190.1770  176.5890  139.3090 C   0  0  0  0  0  0  0  0  0  0  0  0
  189.4470  177.5490  147.9060 C   0  0  0  0  0  0  0  0  0  0  0  0
  187.8430  177.7760  143.8100 C   0  0  0  0  0  0  0  0  0  0  0  0
  185.2590  178.6200  143.0420 C   0  0  0  0  0  3  0  0  0  0  0  0
  188.9140  177.6300  146.6170 C   0  0  0  0  0  3  0  0  0  0  0  0
  189.5900  176.9970  141.7660 C   0  0  0  0  0  0  0  0  0  0  0  0
  184.6420  179.0320  145.4240 C   0  0  0  0  0  1  0  0  0  0  0  0
  191.7880  176.4590  144.6180 C   0  0  0  0  0  3  0  0  0  0  0  0
  188.6740  177.9100  149.0000 O   0  0  0  0  0  1  0  0  0  0  0  0
  188.3300  177.4150  141.4820 N   0  0  0  0  0  0  0  0  0  0  0  0
  190.0270  176.9520  143.0960 C   0  0  0  0  0  0  0  0  0  0  0  0
  190.4790  176.5980  140.7120 N   0  0  0  0  0  2  0  0  0  0  0  0
  186.8960  178.1870  144.7660 C   0  0  0  0  0  3  0  0  0  0  0  0
  190.7560  177.1050  148.0920 C   0  0  0  0  0  3  0  0  0  0  0  0
  187.4600  177.7990  142.4460 C   0  0  0  0  0  0  0  0  0  0  0  0
  186.1780  178.2180  142.0730 C   0  0  0  0  0  3  0  0  0  0  0  0
  191.2930  176.5300  143.3600 N   0  0  0  0  0  0  0  0  0  0  0  0
  190.9990  176.8240  145.7000 C   0  0  0  0  0  0  0  0  0  0  0  0
  191.5310  176.7430  146.9900 C   0  0  0  0  0  3  0  0  0  0  0  0
  193.2200  175.3690  136.5390 C   0  0  0  0  0  0  0  0  0  0  0  0
  192.4410  176.8210  138.3090 C   0  0  0  0  0  3  0  0  0  0  0  0
  189.8240  174.3870  137.4450 F   0  0  0  0  0  0  0  0  0  0  0  0
  194.1880  174.9940  135.6700 F   0  0  0  0  0  0  0  0  0  0  0  0
  193.4400  176.4340  137.4130 C   0  0  0  0  0  3  0  0  0  0  0  0
  190.9950  175.0710  137.4560 C   0  0  0  0  0  0  0  0  0  0  0  0
  191.2090  176.1480  138.3450 C   0  0  0  0  0  0  0  0  0  0  0  0
  192.0000  174.6910  136.5610 C   0  0  0  0  0  3  0  0  0  0  0  0
  1 17  1  0  0  0  0
  1 11  1  0  0  0  0
  2  3  1  0  0  0  0
  3 22  2  0  0  0  0
  3  9  1  0  0  0  0
  4  5  2  0  0  0  0
  5 16  1  0  0  0  0
  6 18  1  0  0  0  0
  6 13  1  0  0  0  0
  7  2  1  0  0  0  0
  7 17  2  0  0  0  0
  8  1  2  0  0  0  0
  9  6  2  0  0  0  0
 10 15  1  0  0  0  0
 12 22  1  0  0  0  0
 14 10  2  0  0  0  0
 14 19  1  0  0  0  0
 15 21  1  0  0  0  0
 15  2  2  0  0  0  0
 16 10  1  0  0  0  0
 19  7  1  0  0  0  0
 20 19  2  0  0  0  0
 20  8  1  0  0  0  0
 21 12  2  0  0  0  0
 22 23  1  0  0  0  0
 23 18  2  0  0  0  0
 24 31  2  0  0  0  0
 24 28  1  0  0  0  0
 25 30  1  0  0  0  0
 26 29  1  0  0  0  0
 27 24  1  0  0  0  0
 28 25  2  0  0  0  0
 29 30  2  0  0  0  0
 30  5  1  0  0  0  0
 31 29  1  0  0  0  0
M  END
>  <MODEL>
2

>  <REMARK>
 VINA RESULT:     -11.5      1.066      1.320
  Name = 
  1 active torsions:
  status: ('A' for Active; 'I' for Inactive)
    1  A    between atoms: C_9  and  C_22
                            x       y       z     vdW  Elec       q    Type
                         _______ _______ _______ _____ _____    ______ ____

>  <TORSDO>
F 1

$$$$
=
 OpenBabel10262419323D

 31 35  0  0  0  0  0  0  0  0999 V2000
  190.1140  177.3390  142.1020 C   0  0  0  0  0  0  0  0  0  0  0  0
  186.6480  178.3140  143.2070 C   0  0  0  0  0  0  0  0  0  0  0  0
  186.6080  178.1860  144.6300 C   0  0  0  0  0  0  0  0  0  0  0  0
  184.9900  179.3110  138.3080 O   0  0  0  0  0  0  0  0  0  0  0  0
  184.0410  179.5300  139.1080 C   0  0  0  0  0  0  0  0  0  0  0  0
  187.6380  177.6540  146.7830 C   0  0  0  0  0  0  0  0  0  0  0  0
  187.7910  178.0360  142.3980 C   0  0  0  0  0  0  0  0  0  0  0  0
  190.0030  177.5090  140.7230 C   0  0  0  0  0  3  0  0  0  0  0  0
  187.7130  177.7670  145.3920 C   0  0  0  0  0  3  0  0  0  0  0  0
  185.4310  178.8940  141.1600 C   0  0  0  0  0  0  0  0  0  0  0  0
  191.3970  176.8800  142.6940 C   0  0  0  0  0  1  0  0  0  0  0  0
  184.2900  178.9120  144.6180 C   0  0  0  0  0  3  0  0  0  0  0  0
  188.7460  177.2360  147.5060 O   0  0  0  0  0  1  0  0  0  0  0  0
  186.5400  178.6190  140.4280 N   0  0  0  0  0  0  0  0  0  0  0  0
  185.4610  178.7480  142.5530 C   0  0  0  0  0  0  0  0  0  0  0  0
  184.2250  179.3340  140.5180 N   0  0  0  0  0  2  0  0  0  0  0  0
  189.0190  177.6000  142.9280 C   0  0  0  0  0  3  0  0  0  0  0  0
  186.4480  177.9610  147.4440 C   0  0  0  0  0  3  0  0  0  0  0  0
  187.6970  178.2030  140.9930 C   0  0  0  0  0  0  0  0  0  0  0  0
  188.7970  177.9400  140.1710 C   0  0  0  0  0  3  0  0  0  0  0  0
  184.3390  179.0280  143.2700 N   0  0  0  0  0  0  0  0  0  0  0  0
  185.4090  178.4930  145.3230 C   0  0  0  0  0  0  0  0  0  0  0  0
  185.3360  178.3790  146.7140 C   0  0  0  0  0  3  0  0  0  0  0  0
  180.2520  180.9390  137.6660 C   0  0  0  0  0  0  0  0  0  0  0  0
  182.3790  181.3420  138.7450 C   0  0  0  0  0  3  0  0  0  0  0  0
  182.0990  177.7950  137.8160 F   0  0  0  0  0  0  0  0  0  0  0  0
  179.0600  181.3960  137.2150 F   0  0  0  0  0  0  0  0  0  0  0  0
  181.1490  181.8140  138.2790 C   0  0  0  0  0  3  0  0  0  0  0  0
  181.8140  179.1110  137.9800 C   0  0  0  0  0  0  0  0  0  0  0  0
  182.7280  179.9890  138.6020 C   0  0  0  0  0  0  0  0  0  0  0  0
  180.5850  179.5920  137.5170 C   0  0  0  0  0  3  0  0  0  0  0  0
  1 11  1  0  0  0  0
  1 17  1  0  0  0  0
  2  3  1  0  0  0  0
  3 22  2  0  0  0  0
  3  9  1  0  0  0  0
  4  5  2  0  0  0  0
  5 16  1  0  0  0  0
  6 18  1  0  0  0  0
  6 13  1  0  0  0  0
  7 17  2  0  0  0  0
  7  2  1  0  0  0  0
  8  1  2  0  0  0  0
  9  6  2  0  0  0  0
 10 15  1  0  0  0  0
 12 22  1  0  0  0  0
 14 19  1  0  0  0  0
 14 10  2  0  0  0  0
 15  2  2  0  0  0  0
 15 21  1  0  0  0  0
 16 10  1  0  0  0  0
 19  7  1  0  0  0  0
 20  8  1  0  0  0  0
 20 19  2  0  0  0  0
 21 12  2  0  0  0  0
 22 23  1  0  0  0  0
 23 18  2  0  0  0  0
 24 28  1  0  0  0  0
 26 29  1  0  0  0  0
 27 24  1  0  0  0  0
 28 25  2  0  0  0  0
 29 30  2  0  0  0  0
 30 25  1  0  0  0  0
 30  5  1  0  0  0  0
 31 24  2  0  0  0  0
 31 29  1  0  0  0  0
M  END
>  <MODEL>
3

>  <REMARK>
 VINA RESULT:     -11.0      4.555      7.248
  Name = 
  1 active torsions:
  status: ('A' for Active; 'I' for Inactive)
    1  A    between atoms: C_9  and  C_22
                            x       y       z     vdW  Elec       q    Type
                         _______ _______ _______ _____ _____    ______ ____

>  <TORSDO>
F 1

$$$$
=
 OpenBabel10262419323D

 31 35  0  0  0  0  0  0  0  0999 V2000
  186.8710  178.2520  147.3890 C   0  0  0  0  0  0  0  0  0  0  0  0
  187.6360  177.8860  143.7190 C   0  0  0  0  0  0  0  0  0  0  0  0
  189.0310  177.5950  143.6060 C   0  0  0  0  0  0  0  0  0  0  0  0
  182.6680  178.8160  142.2350 O   0  0  0  0  0  0  0  0  0  0  0  0
  183.3660  178.6130  141.2050 C   0  0  0  0  0  0  0  0  0  0  0  0
  191.2420  177.1990  144.5720 C   0  0  0  0  0  0  0  0  0  0  0  0
  186.9470  178.0970  144.9510 C   0  0  0  0  0  0  0  0  0  0  0  0
  185.5060  178.5280  147.3410 C   0  0  0  0  0  3  0  0  0  0  0  0
  189.8820  177.4850  144.7200 C   0  0  0  0  0  3  0  0  0  0  0  0
  185.5120  178.2530  142.5520 C   0  0  0  0  0  0  0  0  0  0  0  0
  187.5720  178.1850  148.6960 C   0  0  0  0  0  1  0  0  0  0  0  0
  188.8040  177.5030  141.1900 C   0  0  0  0  0  3  0  0  0  0  0  0
  192.0550  177.0980  145.6920 O   0  0  0  0  0  1  0  0  0  0  0  0
  184.8950  178.4470  143.7450 N   0  0  0  0  0  0  0  0  0  0  0  0
  186.8830  177.9710  142.5140 C   0  0  0  0  0  0  0  0  0  0  0  0
  184.7690  178.3340  141.3270 N   0  0  0  0  0  2  0  0  0  0  0  0
  187.5820  178.0400  146.2050 C   0  0  0  0  0  3  0  0  0  0  0  0
  191.7810  177.0160  143.2980 C   0  0  0  0  0  3  0  0  0  0  0  0
  185.5580  178.3790  144.9240 C   0  0  0  0  0  0  0  0  0  0  0  0
  184.8520  178.5910  146.1120 C   0  0  0  0  0  3  0  0  0  0  0  0
  187.4840  177.7800  141.3080 N   0  0  0  0  0  0  0  0  0  0  0  0
  189.6010  177.4050  142.3210 C   0  0  0  0  0  0  0  0  0  0  0  0
  190.9620  177.1190  142.1750 C   0  0  0  0  0  3  0  0  0  0  0  0
  181.5720  178.8380  137.3130 C   0  0  0  0  0  0  0  0  0  0  0  0
  182.4860  179.9120  139.2780 C   0  0  0  0  0  3  0  0  0  0  0  0
  182.6370  176.2590  139.6640 F   0  0  0  0  0  0  0  0  0  0  0  0
  181.0060  178.9230  136.0860 F   0  0  0  0  0  0  0  0  0  0  0  0
  181.9030  180.0000  138.0110 C   0  0  0  0  0  3  0  0  0  0  0  0
  182.4090  177.4920  139.1470 C   0  0  0  0  0  0  0  0  0  0  0  0
  182.7470  178.6620  139.8620 C   0  0  0  0  0  0  0  0  0  0  0  0
  181.8250  177.5880  137.8810 C   0  0  0  0  0  3  0  0  0  0  0  0
  1 11  1  0  0  0  0
  2  7  1  0  0  0  0
  3  2  1  0  0  0  0
  3  9  1  0  0  0  0
  5 16  1  0  0  0  0
  5  4  2  0  0  0  0
  6  9  2  0  0  0  0
  6 13  1  0  0  0  0
  7 17  1  0  0  0  0
  8  1  1  0  0  0  0
 10 14  2  0  0  0  0
 12 21  2  0  0  0  0
 12 22  1  0  0  0  0
 14 19  1  0  0  0  0
 15 10  1  0  0  0  0
 15  2  2  0  0  0  0
 16 10  1  0  0  0  0
 17  1  2  0  0  0  0
 18  6  1  0  0  0  0
 19  7  2  0  0  0  0
 19 20  1  0  0  0  0
 20  8  2  0  0  0  0
 21 15  1  0  0  0  0
 22  3  2  0  0  0  0
 23 22  1  0  0  0  0
 23 18  2  0  0  0  0
 24 31  2  0  0  0  0
 24 28  1  0  0  0  0
 25 30  1  0  0  0  0
 27 24  1  0  0  0  0
 28 25  2  0  0  0  0
 29 26  1  0  0  0  0
 29 30  2  0  0  0  0
 30  5  1  0  0  0  0
 31 29  1  0  0  0  0
M  END
>  <MODEL>
4

>  <REMARK>
 VINA RESULT:     -10.9      4.134      6.446
  Name = 
  1 active torsions:
  status: ('A' for Active; 'I' for Inactive)
    1  A    between atoms: C_9  and  C_22
                            x       y       z     vdW  Elec       q    Type
                         _______ _______ _______ _____ _____    ______ ____

>  <TORSDO>
F 1

$$$$
=
 OpenBabel10262419323D

 31 35  0  0  0  0  0  0  0  0999 V2000
  187.0060  178.2140  147.5650 C   0  0  0  0  0  0  0  0  0  0  0  0
  187.5670  177.8710  143.8560 C   0  0  0  0  0  0  0  0  0  0  0  0
  188.9530  177.5780  143.6650 C   0  0  0  0  0  0  0  0  0  0  0  0
  182.5280  178.8250  142.6540 O   0  0  0  0  0  0  0  0  0  0  0  0
  183.1680  178.6280  141.5850 C   0  0  0  0  0  0  0  0  0  0  0  0
  191.2120  177.1690  144.5060 C   0  0  0  0  0  0  0  0  0  0  0  0
  186.9470  178.0760  145.1260 C   0  0  0  0  0  0  0  0  0  0  0  0
  185.6410  178.4940  147.5950 C   0  0  0  0  0  3  0  0  0  0  0  0
  189.8630  177.4580  144.7300 C   0  0  0  0  0  3  0  0  0  0  0  0
  185.3830  178.2530  142.8100 C   0  0  0  0  0  0  0  0  0  0  0  0
  187.7770  178.1350  148.8320 C   0  0  0  0  0  1  0  0  0  0  0  0
  188.5940  177.5030  141.2640 C   0  0  0  0  0  3  0  0  0  0  0  0
  192.0850  177.0580  145.5780 O   0  0  0  0  0  1  0  0  0  0  0  0
  184.8330  178.4400  144.0360 N   0  0  0  0  0  0  0  0  0  0  0  0
  186.7500  177.9670  142.6950 C   0  0  0  0  0  0  0  0  0  0  0  0
  184.5740  178.3450  141.6280 N   0  0  0  0  0  2  0  0  0  0  0  0
  187.6490  178.0090  146.3430 C   0  0  0  0  0  3  0  0  0  0  0  0
  191.6800  176.9940  143.2030 C   0  0  0  0  0  3  0  0  0  0  0  0
  185.5600  178.3620  145.1770 C   0  0  0  0  0  0  0  0  0  0  0  0
  184.9200  178.5680  146.4030 C   0  0  0  0  0  3  0  0  0  0  0  0
  187.2830  177.7830  141.4570 N   0  0  0  0  0  0  0  0  0  0  0  0
  189.4510  177.3960  142.3500 C   0  0  0  0  0  0  0  0  0  0  0  0
  190.8000  177.1070  142.1270 C   0  0  0  0  0  3  0  0  0  0  0  0
  181.1030  178.7540  137.8250 C   0  0  0  0  0  0  0  0  0  0  0  0
  181.2730  177.9850  140.1120 C   0  0  0  0  0  3  0  0  0  0  0  0
  184.1470  180.1280  139.2960 F   0  0  0  0  0  0  0  0  0  0  0  0
  180.4420  178.7860  136.6440 F   0  0  0  0  0  0  0  0  0  0  0  0
  180.5900  178.0180  138.8940 C   0  0  0  0  0  3  0  0  0  0  0  0
  182.9890  179.4310  139.1920 C   0  0  0  0  0  0  0  0  0  0  0  0
  182.4770  178.6890  140.2790 C   0  0  0  0  0  0  0  0  0  0  0  0
  182.2990  179.4580  137.9750 C   0  0  0  0  0  3  0  0  0  0  0  0
  1  8  1  0  0  0  0
  1 11  1  0  0  0  0
  2  7  1  0  0  0  0
  3  2  1  0  0  0  0
  3  9  1  0  0  0  0
  5 16  1  0  0  0  0
  5  4  2  0  0  0  0
  6  9  2  0  0  0  0
  6 13  1  0  0  0  0
  7 19  2  0  0  0  0
  7 17  1  0  0  0  0
 10 14  2  0  0  0  0
 12 21  2  0  0  0  0
 12 22  1  0  0  0  0
 14 19  1  0  0  0  0
 15 10  1  0  0  0  0
 15  2  2  0  0  0  0
 16 10  1  0  0  0  0
 17  1  2  0  0  0  0
 18  6  1  0  0  0  0
 19 20  1  0  0  0  0
 20  8  2  0  0  0  0
 21 15  1  0  0  0  0
 22  3  2  0  0  0  0
 23 22  1  0  0  0  0
 23 18  2  0  0  0  0
 24 31  2  0  0  0  0
 24 28  1  0  0  0  0
 25 30  1  0  0  0  0
 27 24  1  0  0  0  0
 28 25  2  0  0  0  0
 29 26  1  0  0  0  0
 29 30  2  0  0  0  0
 30  5  1  0  0  0  0
 31 29  1  0  0  0  0
M  END
>  <MODEL>
5

>  <REMARK>
 VINA RESULT:     -10.8      4.111      6.622
  Name = 
  1 active torsions:
  status: ('A' for Active; 'I' for Inactive)
    1  A    between atoms: C_9  and  C_22
                            x       y       z     vdW  Elec       q    Type
                         _______ _______ _______ _____ _____    ______ ____

>  <TORSDO>
F 1

$$$$
=
 OpenBabel10262419323D

 31 35  0  0  0  0  0  0  0  0999 V2000
  188.6860  177.6060  147.1610 C   0  0  0  0  0  0  0  0  0  0  0  0
  187.3880  177.8890  143.6370 C   0  0  0  0  0  0  0  0  0  0  0  0
  186.0100  178.2570  143.7230 C   0  0  0  0  0  0  0  0  0  0  0  0
  192.0140  176.6190  141.4620 O   0  0  0  0  0  0  0  0  0  0  0  0
  191.1780  176.8260  140.5400 C   0  0  0  0  0  0  0  0  0  0  0  0
  183.9970  178.8150  144.9940 C   0  0  0  0  0  0  0  0  0  0  0  0
  188.2460  177.6810  144.7590 C   0  0  0  0  0  0  0  0  0  0  0  0
  190.0120  177.2490  146.9200 C   0  0  0  0  0  3  0  0  0  0  0  0
  185.3460  178.4550  144.9470 C   0  0  0  0  0  3  0  0  0  0  0  0
  189.2860  177.3580  142.1800 C   0  0  0  0  0  0  0  0  0  0  0  0
  188.1980  177.7600  148.5560 C   0  0  0  0  0  1  0  0  0  0  0  0
  185.8680  178.2520  141.2990 C   0  0  0  0  0  3  0  0  0  0  0  0
  183.3710  179.0030  146.2190 O   0  0  0  0  0  1  0  0  0  0  0  0
  190.0670  177.1690  143.2730 N   0  0  0  0  0  0  0  0  0  0  0  0
  187.9420  177.7190  142.3370 C   0  0  0  0  0  0  0  0  0  0  0  0
  189.8270  177.1910  140.8610 N   0  0  0  0  0  2  0  0  0  0  0  0
  187.8150  177.8180  146.0900 C   0  0  0  0  0  3  0  0  0  0  0  0
  183.2790  178.9850  143.8100 C   0  0  0  0  0  3  0  0  0  0  0  0
  189.5970  177.3170  144.5340 C   0  0  0  0  0  0  0  0  0  0  0  0
  190.4650  177.1050  145.6100 C   0  0  0  0  0  3  0  0  0  0  0  0
  187.1740  177.9030  141.2280 N   0  0  0  0  0  0  0  0  0  0  0  0
  185.2600  178.4350  142.5330 C   0  0  0  0  0  0  0  0  0  0  0  0
  183.9100  178.7950  142.5810 C   0  0  0  0  0  3  0  0  0  0  0  0
  192.2660  176.4340  136.4080 C   0  0  0  0  0  0  0  0  0  0  0  0
  190.5880  176.5060  138.1480 C   0  0  0  0  0  3  0  0  0  0  0  0
  193.9320  176.9290  139.6170 F   0  0  0  0  0  0  0  0  0  0  0  0
  192.5970  176.3090  135.1010 F   0  0  0  0  0  0  0  0  0  0  0  0
  190.9280  176.3770  136.7990 C   0  0  0  0  0  3  0  0  0  0  0  0
  192.9330  176.7500  138.7180 C   0  0  0  0  0  0  0  0  0  0  0  0
  191.5800  176.6940  139.1230 C   0  0  0  0  0  0  0  0  0  0  0  0
  193.2650  176.6200  137.3660 C   0  0  0  0  0  3  0  0  0  0  0  0
  1 11  1  0  0  0  0
  2  3  1  0  0  0  0
  2  7  1  0  0  0  0
  3  9  1  0  0  0  0
  5 16  1  0  0  0  0
  5  4  2  0  0  0  0
  6 13  1  0  0  0  0
  7 17  1  0  0  0  0
  8  1  1  0  0  0  0
  9  6  2  0  0  0  0
 10 15  1  0  0  0  0
 10 14  2  0  0  0  0
 12 22  1  0  0  0  0
 14 19  1  0  0  0  0
 15  2  2  0  0  0  0
 16 10  1  0  0  0  0
 17  1  2  0  0  0  0
 18  6  1  0  0  0  0
 19  7  2  0  0  0  0
 19 20  1  0  0  0  0
 20  8  2  0  0  0  0
 21 12  2  0  0  0  0
 21 15  1  0  0  0  0
 22 23  1  0  0  0  0
 22  3  2  0  0  0  0
 23 18  2  0  0  0  0
 24 28  2  0  0  0  0
 24 31  1  0  0  0  0
 25 30  2  0  0  0  0
 27 24  1  0  0  0  0
 28 25  1  0  0  0  0
 29 30  1  0  0  0  0
 29 26  1  0  0  0  0
 30  5  1  0  0  0  0
 31 29  2  0  0  0  0
M  END
>  <MODEL>
6

>  <REMARK>
 VINA RESULT:     -10.8      1.541      4.136
  Name = 
  1 active torsions:
  status: ('A' for Active; 'I' for Inactive)
    1  A    between atoms: C_9  and  C_22
                            x       y       z     vdW  Elec       q    Type
                         _______ _______ _______ _____ _____    ______ ____

>  <TORSDO>
F 1

$$$$
=
 OpenBabel10262419323D

 31 35  0  0  0  0  0  0  0  0999 V2000
  191.6590  175.9250  146.2300 C   0  0  0  0  0  0  0  0  0  0  0  0
  188.5940  177.3680  144.5840 C   0  0  0  0  0  0  0  0  0  0  0  0
  187.7380  177.8390  145.6270 C   0  0  0  0  0  0  0  0  0  0  0  0
  190.2860  176.3040  139.7100 O   0  0  0  0  0  0  0  0  0  0  0  0
  189.1570  176.8610  139.6340 C   0  0  0  0  0  0  0  0  0  0  0  0
  187.2050  178.2120  147.9840 C   0  0  0  0  0  0  0  0  0  0  0  0
  189.8640  176.7480  144.7920 C   0  0  0  0  0  0  0  0  0  0  0  0
  192.3840  175.5150  145.1120 C   0  0  0  0  0  3  0  0  0  0  0  0
  188.0670  177.7390  146.9910 C   0  0  0  0  0  3  0  0  0  0  0  0
  188.9340  177.0870  142.1730 C   0  0  0  0  0  0  0  0  0  0  0  0
  192.2110  175.7150  147.5930 C   0  0  0  0  0  1  0  0  0  0  0  0
  186.1250  178.5610  143.9610 C   0  0  0  0  0  3  0  0  0  0  0  0
  187.5590  178.0980  149.3210 O   0  0  0  0  0  1  0  0  0  0  0  0
  190.1350  176.5040  142.4140 N   0  0  0  0  0  0  0  0  0  0  0  0
  188.1450  177.5280  143.2430 C   0  0  0  0  0  0  0  0  0  0  0  0
  188.4650  177.2580  140.8270 N   0  0  0  0  0  2  0  0  0  0  0  0
  190.4130  176.5340  146.0690 C   0  0  0  0  0  3  0  0  0  0  0  0
  185.9890  178.7980  147.6310 C   0  0  0  0  0  3  0  0  0  0  0  0
  190.6150  176.3240  143.6670 C   0  0  0  0  0  0  0  0  0  0  0  0
  191.8620  175.7140  143.8350 C   0  0  0  0  0  3  0  0  0  0  0  0
  186.9430  178.1100  142.9810 N   0  0  0  0  0  0  0  0  0  0  0  0
  186.4970  178.4380  145.2920 C   0  0  0  0  0  0  0  0  0  0  0  0
  185.6360  178.9100  146.2860 C   0  0  0  0  0  3  0  0  0  0  0  0
  187.3310  177.4990  135.8020 C   0  0  0  0  0  0  0  0  0  0  0  0
  187.9220  176.0400  137.6390 C   0  0  0  0  0  3  0  0  0  0  0  0
  189.1140  179.4520  138.3170 F   0  0  0  0  0  0  0  0  0  0  0  0
  186.7510  177.6880  134.5940 F   0  0  0  0  0  0  0  0  0  0  0  0
  187.3240  176.2340  136.3910 C   0  0  0  0  0  3  0  0  0  0  0  0
  188.5370  178.3850  137.7100 C   0  0  0  0  0  0  0  0  0  0  0  0
  188.5340  177.1080  138.3140 C   0  0  0  0  0  0  0  0  0  0  0  0
  187.9360  178.5710  136.4610 C   0  0  0  0  0  3  0  0  0  0  0  0
  1 11  1  0  0  0  0
  2  7  1  0  0  0  0
  2  3  1  0  0  0  0
  3  9  1  0  0  0  0
  5  4  2  0  0  0  0
  5 16  1  0  0  0  0
  6 13  1  0  0  0  0
  7 17  2  0  0  0  0
  8  1  2  0  0  0  0
  9  6  2  0  0  0  0
 10 14  2  0  0  0  0
 10 15  1  0  0  0  0
 12 22  1  0  0  0  0
 14 19  1  0  0  0  0
 15  2  2  0  0  0  0
 16 10  1  0  0  0  0
 17  1  1  0  0  0  0
 18  6  1  0  0  0  0
 19 20  2  0  0  0  0
 19  7  1  0  0  0  0
 20  8  1  0  0  0  0
 21 15  1  0  0  0  0
 21 12  2  0  0  0  0
 22  3  2  0  0  0  0
 22 23  1  0  0  0  0
 23 18  2  0  0  0  0
 24 28  2  0  0  0  0
 24 31  1  0  0  0  0
 25 30  2  0  0  0  0
 27 24  1  0  0  0  0
 28 25  1  0  0  0  0
 29 30  1  0  0  0  0
 29 26  1  0  0  0  0
 30  5  1  0  0  0  0
 31 29  2  0  0  0  0
M  END
>  <MODEL>
7

>  <REMARK>
 VINA RESULT:     -10.7      2.408      4.522
  Name = 
  1 active torsions:
  status: ('A' for Active; 'I' for Inactive)
    1  A    between atoms: C_9  and  C_22
                            x       y       z     vdW  Elec       q    Type
                         _______ _______ _______ _____ _____    ______ ____

>  <TORSDO>
F 1

$$$$
=
 OpenBabel10262419323D

 31 35  0  0  0  0  0  0  0  0999 V2000
  191.4500  177.4310  141.0200 C   0  0  0  0  0  0  0  0  0  0  0  0
  188.4830  177.7190  143.3230 C   0  0  0  0  0  0  0  0  0  0  0  0
  188.9540  177.4730  144.6490 C   0  0  0  0  0  0  0  0  0  0  0  0
  185.1210  178.8160  139.4190 O   0  0  0  0  0  0  0  0  0  0  0  0
  184.4860  178.8080  140.5090 C   0  0  0  0  0  0  0  0  0  0  0  0
  190.7240  176.9490  146.2530 C   0  0  0  0  0  0  0  0  0  0  0  0
  189.3020  177.7020  142.1530 C   0  0  0  0  0  0  0  0  0  0  0  0
  190.8480  177.6900  139.7900 C   0  0  0  0  0  3  0  0  0  0  0  0
  190.2990  177.1840  144.9430 C   0  0  0  0  0  3  0  0  0  0  0  0
  186.5700  178.2510  141.8860 C   0  0  0  0  0  0  0  0  0  0  0  0
  192.9060  177.1460  141.0910 C   0  0  0  0  0  1  0  0  0  0  0  0
  186.7010  177.7990  145.4970 C   0  0  0  0  0  3  0  0  0  0  0  0
  192.0580  176.6650  146.5090 O   0  0  0  0  0  1  0  0  0  0  0  0
  187.3830  178.2250  140.8000 N   0  0  0  0  0  0  0  0  0  0  0  0
  187.0980  178.0000  143.1590 C   0  0  0  0  0  0  0  0  0  0  0  0
  185.1700  178.5330  141.7400 N   0  0  0  0  0  2  0  0  0  0  0  0
  190.6830  177.4370  142.1870 C   0  0  0  0  0  3  0  0  0  0  0  0
  189.8060  176.9970  147.3030 C   0  0  0  0  0  3  0  0  0  0  0  0
  188.7080  177.9640  140.8930 C   0  0  0  0  0  0  0  0  0  0  0  0
  189.4810  177.9560  139.7270 C   0  0  0  0  0  3  0  0  0  0  0  0
  186.2660  178.0290  144.2360 N   0  0  0  0  0  0  0  0  0  0  0  0
  188.0390  177.5170  145.7320 C   0  0  0  0  0  0  0  0  0  0  0  0
  188.4660  177.2810  147.0430 C   0  0  0  0  0  3  0  0  0  0  0  0
  180.2630  179.5620  140.6380 C   0  0  0  0  0  0  0  0  0  0  0  0
  182.2760  178.6650  141.6350 C   0  0  0  0  0  3  0  0  0  0  0  0
  183.0600  180.1690  138.3730 F   0  0  0  0  0  0  0  0  0  0  0  0
  178.9310  179.7950  140.6900 F   0  0  0  0  0  0  0  0  0  0  0  0
  180.9000  178.9040  141.6900 C   0  0  0  0  0  3  0  0  0  0  0  0
  182.3790  179.7470  139.4670 C   0  0  0  0  0  0  0  0  0  0  0  0
  183.0320  179.0810  140.5280 C   0  0  0  0  0  0  0  0  0  0  0  0
  181.0020  179.9820  139.5300 C   0  0  0  0  0  3  0  0  0  0  0  0
  1 11  1  0  0  0  0
  1 17  1  0  0  0  0
  2  3  1  0  0  0  0
  3  9  2  0  0  0  0
  3 22  1  0  0  0  0
  4  5  2  0  0  0  0
  5 30  1  0  0  0  0
  5 16  1  0  0  0  0
  6 13  1  0  0  0  0
  6 18  2  0  0  0  0
  7 17  2  0  0  0  0
  7  2  1  0  0  0  0
  8  1  2  0  0  0  0
  9  6  1  0  0  0  0
 10 15  1  0  0  0  0
 12 22  1  0  0  0  0
 14 19  1  0  0  0  0
 14 10  2  0  0  0  0
 15  2  2  0  0  0  0
 15 21  1  0  0  0  0
 16 10  1  0  0  0  0
 19  7  1  0  0  0  0
 20  8  1  0  0  0  0
 20 19  2  0  0  0  0
 21 12  2  0  0  0  0
 22 23  2  0  0  0  0
 23 18  1  0  0  0  0
 24 27  1  0  0  0  0
 24 28  1  0  0  0  0
 25 28  2  0  0  0  0
 26 29  1  0  0  0  0
 29 31  1  0  0  0  0
 29 30  2  0  0  0  0
 30 25  1  0  0  0  0
 31 24  2  0  0  0  0
M  END
>  <MODEL>
8

>  <REMARK>
 VINA RESULT:     -10.5      3.950      7.141
  Name = 
  1 active torsions:
  status: ('A' for Active; 'I' for Inactive)
    1  A    between atoms: C_9  and  C_22
                            x       y       z     vdW  Elec       q    Type
                         _______ _______ _______ _____ _____    ______ ____

>  <TORSDO>
F 1

$$$$
=
 OpenBabel10262419323D

 31 35  0  0  0  0  0  0  0  0999 V2000
  186.4730  178.0450  145.8490 C   0  0  0  0  0  0  0  0  0  0  0  0
  187.0830  178.2500  142.1370 C   0  0  0  0  0  0  0  0  0  0  0  0
  188.4650  177.9590  141.9210 C   0  0  0  0  0  0  0  0  0  0  0  0
  182.0810  179.4770  141.0330 O   0  0  0  0  0  0  0  0  0  0  0  0
  182.7320  179.4290  139.9540 C   0  0  0  0  0  0  0  0  0  0  0  0
  190.7040  177.3830  142.7170 C   0  0  0  0  0  0  0  0  0  0  0  0
  186.4480  178.2750  143.4160 C   0  0  0  0  0  0  0  0  0  0  0  0
  185.1130  178.3460  145.9040 C   0  0  0  0  0  3  0  0  0  0  0  0
  189.3580  177.6620  142.9660 C   0  0  0  0  0  3  0  0  0  0  0  0
  184.9220  178.8280  141.1350 C   0  0  0  0  0  0  0  0  0  0  0  0
  187.2240  177.7620  147.0980 C   0  0  0  0  0  1  0  0  0  0  0  0
  188.1400  178.2520  139.5320 C   0  0  0  0  0  3  0  0  0  0  0  0
  191.5590  177.0940  143.7710 O   0  0  0  0  0  1  0  0  0  0  0  0
  184.3580  178.8410  142.3690 N   0  0  0  0  0  0  0  0  0  0  0  0
  186.2840  178.5350  140.9940 C   0  0  0  0  0  0  0  0  0  0  0  0
  184.1320  179.1130  139.9710 N   0  0  0  0  0  2  0  0  0  0  0  0
  187.1310  178.0110  144.6170 C   0  0  0  0  0  3  0  0  0  0  0  0
  191.1870  177.3950  141.4080 C   0  0  0  0  0  3  0  0  0  0  0  0
  185.0660  178.5790  143.4930 C   0  0  0  0  0  0  0  0  0  0  0  0
  184.4120  178.6120  144.7290 C   0  0  0  0  0  3  0  0  0  0  0  0
  186.8320  178.5270  139.7490 N   0  0  0  0  0  0  0  0  0  0  0  0
  188.9790  177.9660  140.5990 C   0  0  0  0  0  0  0  0  0  0  0  0
  190.3260  177.6860  140.3510 C   0  0  0  0  0  3  0  0  0  0  0  0
  180.7720  180.2880  136.2340 C   0  0  0  0  0  0  0  0  0  0  0  0
  181.5610  180.9860  138.4110 C   0  0  0  0  0  3  0  0  0  0  0  0
  182.3670  177.4400  137.8660 F   0  0  0  0  0  0  0  0  0  0  0  0
  180.1520  180.5720  135.0640 F   0  0  0  0  0  0  0  0  0  0  0  0
  180.9220  181.2800  137.2050 C   0  0  0  0  0  3  0  0  0  0  0  0
  181.9050  178.7010  137.6750 C   0  0  0  0  0  0  0  0  0  0  0  0
  182.0610  179.6980  138.6630 C   0  0  0  0  0  0  0  0  0  0  0  0
  181.2630  179.0030  136.4700 C   0  0  0  0  0  3  0  0  0  0  0  0
  1  8  1  0  0  0  0
  1 11  1  0  0  0  0
  2  7  1  0  0  0  0
  3  2  1  0  0  0  0
  3  9  1  0  0  0  0
  5 16  1  0  0  0  0
  5  4  2  0  0  0  0
  6  9  2  0  0  0  0
  6 13  1  0  0  0  0
  7 19  2  0  0  0  0
  7 17  1  0  0  0  0
 10 14  2  0  0  0  0
 12 21  2  0  0  0  0
 12 22  1  0  0  0  0
 14 19  1  0  0  0  0
 15 10  1  0  0  0  0
 15  2  2  0  0  0  0
 16 10  1  0  0  0  0
 17  1  2  0  0  0  0
 18  6  1  0  0  0  0
 19 20  1  0  0  0  0
 20  8  2  0  0  0  0
 21 15  1  0  0  0  0
 22  3  2  0  0  0  0
 23 22  1  0  0  0  0
 23 18  2  0  0  0  0
 24 31  2  0  0  0  0
 24 28  1  0  0  0  0
 25 30  1  0  0  0  0
 27 24  1  0  0  0  0
 28 25  2  0  0  0  0
 29 26  1  0  0  0  0
 29 30  2  0  0  0  0
 30  5  1  0  0  0  0
 31 29  1  0  0  0  0
M  END
>  <MODEL>
9

>  <REMARK>
 VINA RESULT:     -10.5      4.792      7.151
  Name = 
  1 active torsions:
  status: ('A' for Active; 'I' for Inactive)
    1  A    between atoms: C_9  and  C_22
                            x       y       z     vdW  Elec       q    Type
                         _______ _______ _______ _____ _____    ______ ____

>  <TORSDO>
F 1

$$$$
