=
 OpenBabel10262421403D

 32 36  0  0  1  0  0  0  0  0999 V2000
  188.1400  177.8770  146.8660 C   0  0  0  0  0  0  0  0  0  0  0  0
  184.9130  178.4430  142.9650 C   0  0  1  0  0  3  0  0  0  0  0  0
  182.4000  178.6680  142.6200 C   0  0  0  0  0  0  0  0  0  0  0  0
  181.2890  179.1060  141.7540 C   0  0  0  0  0  0  0  0  0  0  0  0
  185.9670  178.2320  145.1770 C   0  0  0  0  0  0  0  0  0  0  0  0
  187.4110  177.7580  143.1520 C   0  0  0  0  0  3  0  0  0  0  0  0
  179.1990  179.9410  140.0830 C   0  0  0  0  0  3  0  0  0  0  0  0
  188.3130  177.7560  145.4850 C   0  0  0  0  0  3  0  0  0  0  0  0
  186.2410  178.2580  142.3280 C   0  0  0  0  0  0  0  0  0  0  0  0
  186.3750  178.4690  141.0030 C   0  0  0  0  0  0  0  0  0  0  0  0
  183.9840  179.0020  140.7300 C   0  0  0  0  0  0  0  0  0  0  0  0
  178.9320  179.5760  141.4050 C   0  0  0  0  0  3  0  0  0  0  0  0
  186.8700  178.1620  147.3730 C   0  0  0  0  0  3  0  0  0  0  0  0
  187.2270  177.9440  144.6280 C   0  0  0  0  0  0  0  0  0  0  0  0
  179.9740  179.1590  142.2380 C   0  0  0  0  0  3  0  0  0  0  0  0
  185.8200  178.3340  146.5260 N   0  0  0  0  0  0  0  0  0  0  0  0
  185.2080  178.9240  140.1820 C   0  0  0  0  0  0  0  0  0  0  0  0
  182.8810  179.4100  139.9120 N   0  0  0  0  0  2  0  0  0  0  0  0
  184.8100  178.4420  144.3020 C   0  0  0  0  0  3  0  0  0  0  0  0
  182.1440  178.2530  143.7820 O   0  0  0  0  0  0  0  0  0  0  0  0
  180.5070  179.8890  139.5930 C   0  0  0  0  0  3  0  0  0  0  0  0
  183.7620  178.6950  142.1250 N   0  0  0  0  0  0  0  0  0  0  0  0
  181.5510  179.4730  140.4250 C   0  0  0  0  0  0  0  0  0  0  0  0
  188.6700  178.0150  139.8560 N   0  0  0  0  0  0  0  0  0  0  0  0
  187.6510  178.2180  140.3680 C   0  0  0  0  0  0  0  0  0  0  0  0
  185.4310  178.3730  137.8430 O   0  0  0  0  0  1  0  0  0  0  0  0
  185.3330  179.2740  138.8280 O   0  0  0  0  0  0  0  0  0  0  0  0
  189.2890  177.6660  147.7880 C   0  0  0  0  0  2  0  0  0  0  0  0
  190.0350  176.3900  147.4130 C   0  0  0  0  0  2  0  0  0  0  0  0
  191.4910  176.6500  147.0360 C   0  0  0  0  0  3  0  0  0  0  0  0
  192.4230  175.6280  147.6610 C   0  0  0  0  0  1  0  0  0  0  0  0
  191.6800  176.6890  145.5290 C   0  0  0  0  0  1  0  0  0  0  0  0
  1 13  1  0  0  0  0
  1 28  1  0  0  0  0
  2 19  1  1  0  0  0
  3 20  2  0  0  0  0
  4 15  1  0  0  0  0
  4  3  1  0  0  0  0
  5 16  1  0  0  0  0
  6 14  2  0  0  0  0
  7 12  1  0  0  0  0
  8  1  2  0  0  0  0
  9  2  1  0  0  0  0
  9  6  1  0  0  0  0
 10  9  2  0  0  0  0
 11 22  1  0  0  0  0
 12 15  2  0  0  0  0
 14  5  1  0  0  0  0
 14  8  1  0  0  0  0
 16 13  2  0  0  0  0
 17 11  2  0  0  0  0
 17 10  1  0  0  0  0
 18 23  1  0  0  0  0
 18 11  1  0  0  0  0
 19  5  2  0  0  0  0
 21  7  2  0  0  0  0
 21 23  1  0  0  0  0
 22  3  1  0  0  0  0
 22  2  1  0  0  0  0
 23  4  2  0  0  0  0
 24 25  3  0  0  0  0
 25 10  1  0  0  0  0
 26 27  1  0  0  0  0
 27 17  1  0  0  0  0
 29 28  1  0  0  0  0
 30 29  1  0  0  0  0
 30 31  1  0  0  0  0
 32 30  1  0  0  0  0
M  END
>  <MODEL>
1

>  <REMARK>
 VINA RESULT:      -9.6      0.000      0.000
  Name = 
  5 active torsions:
  status: ('A' for Active; 'I' for Inactive)
    1  A    between atoms: C_1  and  C_10
    2  A    between atoms: C_2  and  C_24
    3  A    between atoms: C_10  and  C_24
    4  A    between atoms: C_13  and  C_15
    5  A    between atoms: O_25  and  C_26
                            x       y       z     vdW  Elec       q    Type
                         _______ _______ _______ _____ _____    ______ ____

>  <TORSDO>
F 5

$$$$
=
 OpenBabel10262421403D

 32 36  0  0  0  0  0  0  0  0999 V2000
  182.0410  178.9510  141.5440 C   0  0  0  0  0  0  0  0  0  0  0  0
  186.9040  178.1180  142.8120 C   0  0  0  0  0  0  0  0  0  0  0  0
  188.2610  177.7670  144.9380 C   0  0  0  0  0  0  0  0  0  0  0  0
  189.4910  177.2520  145.5690 C   0  0  0  0  0  0  0  0  0  0  0  0
  184.4670  178.4450  142.7930 C   0  0  0  0  0  0  0  0  0  0  0  0
  185.7190  178.9210  140.6450 C   0  0  0  0  0  3  0  0  0  0  0  0
  191.8420  176.2710  146.7360 C   0  0  0  0  0  3  0  0  0  0  0  0
  183.2260  179.0370  140.8100 C   0  0  0  0  0  2  0  0  0  0  0  0
  186.9340  178.3430  141.3450 C   0  0  0  0  0  0  0  0  0  0  0  0
  188.0690  178.0980  140.6600 C   0  0  0  0  0  0  0  0  0  0  0  0
  189.2940  177.4470  142.6980 C   0  0  0  0  0  0  0  0  0  0  0  0
  190.7730  176.6640  147.5450 C   0  0  0  0  0  3  0  0  0  0  0  0
  182.1010  178.6240  142.9010 C   0  0  0  0  0  3  0  0  0  0  0  0
  184.4490  178.7740  141.4280 C   0  0  0  0  0  0  0  0  0  0  0  0
  189.6010  177.1540  146.9630 C   0  0  0  0  0  3  0  0  0  0  0  0
  183.3010  178.3780  143.4920 N   0  0  0  0  0  0  0  0  0  0  0  0
  189.2810  177.5650  141.3590 C   0  0  0  0  0  0  0  0  0  0  0  0
  190.4790  176.9640  143.3410 N   0  0  0  0  0  2  0  0  0  0  0  0
  185.7360  178.1550  143.4680 C   0  0  0  0  0  3  0  0  0  0  0  0
  187.3340  178.2060  145.6720 O   0  0  0  0  0  0  0  0  0  0  0  0
  191.7400  176.3670  145.3460 C   0  0  0  0  0  3  0  0  0  0  0  0
  188.1370  177.7870  143.4940 N   0  0  0  0  0  0  0  0  0  0  0  0
  190.5680  176.8560  144.7610 C   0  0  0  0  0  0  0  0  0  0  0  0
  188.1630  178.6130  138.1070 N   0  0  0  0  0  0  0  0  0  0  0  0
  188.1210  178.3870  139.2420 C   0  0  0  0  0  0  0  0  0  0  0  0
  190.5080  176.0740  139.9130 O   0  0  0  0  0  1  0  0  0  0  0  0
  190.4390  177.1780  140.6660 O   0  0  0  0  0  0  0  0  0  0  0  0
  180.7330  179.2430  140.8970 C   0  0  0  0  0  2  0  0  0  0  0  0
  180.9100  179.3600  139.3860 C   0  0  0  0  0  2  0  0  0  0  0  0
  180.4830  180.7240  138.8500 C   0  0  0  0  0  3  0  0  0  0  0  0
  179.6720  181.4990  139.8730 C   0  0  0  0  0  1  0  0  0  0  0  0
  181.6770  181.5420  138.3890 C   0  0  0  0  0  1  0  0  0  0  0  0
  1 13  2  0  0  0  0
  2 19  2  0  0  0  0
  2 22  1  0  0  0  0
  3  4  1  0  0  0  0
  3 20  2  0  0  0  0
  4 15  1  0  0  0  0
  5 19  1  0  0  0  0
  5 16  2  0  0  0  0
  6  9  1  0  0  0  0
  6 14  2  0  0  0  0
  7 12  1  0  0  0  0
  8 14  1  0  0  0  0
  8  1  1  0  0  0  0
  9  2  1  0  0  0  0
 10  9  2  0  0  0  0
 10 17  1  0  0  0  0
 11 18  1  0  0  0  0
 11 22  1  0  0  0  0
 13 16  1  0  0  0  0
 14  5  1  0  0  0  0
 15 12  2  0  0  0  0
 17 11  2  0  0  0  0
 18 23  1  0  0  0  0
 21  7  2  0  0  0  0
 22  3  1  0  0  0  0
 23 21  1  0  0  0  0
 23  4  2  0  0  0  0
 24 25  3  0  0  0  0
 25 10  1  0  0  0  0
 26 27  1  0  0  0  0
 27 17  1  0  0  0  0
 28  1  1  0  0  0  0
 29 28  1  0  0  0  0
 30 29  1  0  0  0  0
 30 31  1  0  0  0  0
 32 30  1  0  0  0  0
M  END
>  <MODEL>
2

>  <REMARK>
 VINA RESULT:      -9.4      2.293      8.520
  Name = 
  5 active torsions:
  status: ('A' for Active; 'I' for Inactive)
    1  A    between atoms: C_1  and  C_10
    2  A    between atoms: C_2  and  C_24
    3  A    between atoms: C_10  and  C_24
    4  A    between atoms: C_13  and  C_15
    5  A    between atoms: O_25  and  C_26
                            x       y       z     vdW  Elec       q    Type
                         _______ _______ _______ _____ _____    ______ ____

>  <TORSDO>
F 5

$$$$
=
 OpenBabel10262421403D

 32 36  0  0  1  0  0  0  0  0999 V2000
  188.7540  177.5500  146.9790 C   0  0  0  0  0  0  0  0  0  0  0  0
  186.3680  178.0950  142.5110 C   0  0  1  0  0  3  0  0  0  0  0  0
  183.9910  178.4750  141.6810 C   0  0  0  0  0  0  0  0  0  0  0  0
  183.1000  178.9340  140.5990 C   0  0  0  0  0  0  0  0  0  0  0  0
  186.9710  177.9490  144.8910 C   0  0  0  0  0  0  0  0  0  0  0  0
  188.7240  177.2500  143.2040 C   0  0  0  0  0  3  0  0  0  0  0  0
  181.4340  179.8080  138.5220 C   0  0  0  0  0  3  0  0  0  0  0  0
  189.1720  177.3310  145.6640 C   0  0  0  0  0  3  0  0  0  0  0  0
  187.7730  177.7780  142.1480 C   0  0  0  0  0  0  0  0  0  0  0  0
  188.1690  177.8960  140.8650 C   0  0  0  0  0  0  0  0  0  0  0  0
  185.9210  178.5780  140.1150 C   0  0  0  0  0  0  0  0  0  0  0  0
  180.8960  179.5460  139.7840 C   0  0  0  0  0  3  0  0  0  0  0  0
  187.4390  177.9540  147.2200 C   0  0  0  0  0  3  0  0  0  0  0  0
  188.2840  177.5400  144.6070 C   0  0  0  0  0  0  0  0  0  0  0  0
  181.7260  179.1090  140.8200 C   0  0  0  0  0  3  0  0  0  0  0  0
  186.5830  178.1460  146.1800 N   0  0  0  0  0  0  0  0  0  0  0  0
  187.2160  178.3790  139.8150 C   0  0  0  0  0  0  0  0  0  0  0  0
  185.0270  179.0100  139.0830 N   0  0  0  0  0  2  0  0  0  0  0  0
  186.0180  178.1850  143.8020 C   0  0  0  0  0  3  0  0  0  0  0  0
  183.4890  178.1520  142.7920 O   0  0  0  0  0  0  0  0  0  0  0  0
  182.8010  179.6340  138.2940 C   0  0  0  0  0  3  0  0  0  0  0  0
  185.4190  178.3740  141.4550 N   0  0  0  0  0  0  0  0  0  0  0  0
  183.6350  179.1980  139.3280 C   0  0  0  0  0  0  0  0  0  0  0  0
  190.5940  177.2090  140.2050 N   0  0  0  0  0  0  0  0  0  0  0  0
  189.5170  177.5170  140.4980 C   0  0  0  0  0  0  0  0  0  0  0  0
  188.6810  179.3900  138.1870 O   0  0  0  0  0  1  0  0  0  0  0  0
  187.6200  178.6350  138.4950 O   0  0  0  0  0  0  0  0  0  0  0  0
  189.6890  177.3170  148.1120 C   0  0  0  0  0  2  0  0  0  0  0  0
  191.1300  177.3050  147.6100 C   0  0  0  0  0  2  0  0  0  0  0  0
  191.7250  175.9010  147.5650 C   0  0  0  0  0  3  0  0  0  0  0  0
  192.1200  175.5060  146.1540 C   0  0  0  0  0  1  0  0  0  0  0  0
  192.9100  175.7640  148.5060 C   0  0  0  0  0  1  0  0  0  0  0  0
  1 13  1  0  0  0  0
  1 28  1  0  0  0  0
  2 19  1  1  0  0  0
  3 20  2  0  0  0  0
  4 15  1  0  0  0  0
  4  3  1  0  0  0  0
  5 16  1  0  0  0  0
  6 14  2  0  0  0  0
  7 12  1  0  0  0  0
  8  1  2  0  0  0  0
  9  2  1  0  0  0  0
  9  6  1  0  0  0  0
 10  9  2  0  0  0  0
 11 22  1  0  0  0  0
 12 15  2  0  0  0  0
 14  5  1  0  0  0  0
 14  8  1  0  0  0  0
 16 13  2  0  0  0  0
 17 11  2  0  0  0  0
 17 10  1  0  0  0  0
 18 23  1  0  0  0  0
 18 11  1  0  0  0  0
 19  5  2  0  0  0  0
 21  7  2  0  0  0  0
 21 23  1  0  0  0  0
 22  3  1  0  0  0  0
 22  2  1  0  0  0  0
 23  4  2  0  0  0  0
 24 25  3  0  0  0  0
 25 10  1  0  0  0  0
 26 27  1  0  0  0  0
 27 17  1  0  0  0  0
 29 28  1  0  0  0  0
 30 29  1  0  0  0  0
 30 32  1  0  0  0  0
 31 30  1  0  0  0  0
M  END
>  <MODEL>
3

>  <REMARK>
 VINA RESULT:      -9.1      1.424      1.940
  Name = 
  5 active torsions:
  status: ('A' for Active; 'I' for Inactive)
    1  A    between atoms: C_1  and  C_10
    2  A    between atoms: C_2  and  C_24
    3  A    between atoms: C_10  and  C_24
    4  A    between atoms: C_13  and  C_15
    5  A    between atoms: O_25  and  C_26
                            x       y       z     vdW  Elec       q    Type
                         _______ _______ _______ _____ _____    ______ ____

>  <TORSDO>
F 5

$$$$
=
 OpenBabel10262421403D

 32 36  0  0  1  0  0  0  0  0999 V2000
  183.0690  178.9890  143.7560 C   0  0  0  0  0  0  0  0  0  0  0  0
  187.9240  177.7580  142.8270 C   0  0  1  0  0  3  0  0  0  0  0  0
  189.3650  177.1780  140.8090 C   0  0  0  0  0  0  0  0  0  0  0  0
  190.7140  177.0850  140.2180 C   0  0  0  0  0  0  0  0  0  0  0  0
  185.5390  178.3370  142.6730 C   0  0  0  0  0  0  0  0  0  0  0  0
  186.4740  177.8700  144.9780 C   0  0  0  0  0  3  0  0  0  0  0  0
  193.2890  176.9090  139.1260 C   0  0  0  0  0  3  0  0  0  0  0  0
  184.1200  178.6280  144.6030 C   0  0  0  0  0  3  0  0  0  0  0  0
  187.8320  177.8260  144.3070 C   0  0  0  0  0  0  0  0  0  0  0  0
  188.9610  177.7760  145.0440 C   0  0  0  0  0  0  0  0  0  0  0  0
  190.3880  177.5340  143.0490 C   0  0  0  0  0  0  0  0  0  0  0  0
  192.1700  176.7770  138.3000 C   0  0  0  0  0  3  0  0  0  0  0  0
  183.2780  179.0030  142.3750 C   0  0  0  0  0  3  0  0  0  0  0  0
  185.3680  178.3090  144.0660 C   0  0  0  0  0  0  0  0  0  0  0  0
  190.8860  176.8630  138.8440 C   0  0  0  0  0  3  0  0  0  0  0  0
  184.4980  178.6810  141.8670 N   0  0  0  0  0  0  0  0  0  0  0  0
  190.3000  177.6910  144.3800 C   0  0  0  0  0  0  0  0  0  0  0  0
  191.6830  177.4250  142.4460 N   0  0  0  0  0  2  0  0  0  0  0  0
  186.8410  178.0160  142.0810 C   0  0  0  0  0  3  0  0  0  0  0  0
  188.3600  176.9680  140.0780 O   0  0  0  0  0  0  0  0  0  0  0  0
  193.1250  177.1280  140.4970 C   0  0  0  0  0  3  0  0  0  0  0  0
  189.2070  177.4840  142.2170 N   0  0  0  0  0  0  0  0  0  0  0  0
  191.8410  177.2160  141.0440 C   0  0  0  0  0  0  0  0  0  0  0  0
  188.7990  177.7640  147.6440 N   0  0  0  0  0  0  0  0  0  0  0  0
  188.8680  177.7690  146.4880 C   0  0  0  0  0  0  0  0  0  0  0  0
  191.9740  176.7520  145.8430 O   0  0  0  0  0  1  0  0  0  0  0  0
  191.5020  177.7630  145.1030 O   0  0  0  0  0  0  0  0  0  0  0  0
  181.7310  179.3180  144.3180 C   0  0  0  0  0  2  0  0  0  0  0  0
  180.7310  178.2190  143.9690 C   0  0  0  0  0  2  0  0  0  0  0  0
  179.6310  178.7040  143.0280 C   0  0  0  0  0  3  0  0  0  0  0  0
  179.6810  180.2090  142.8390 C   0  0  0  0  0  1  0  0  0  0  0  0
  179.6920  177.9980  141.6850 C   0  0  0  0  0  1  0  0  0  0  0  0
  1 28  1  0  0  0  0
  1  8  2  0  0  0  0
  2 19  1  6  0  0  0
  2  9  1  0  0  0  0
  3 22  1  0  0  0  0
  4  3  1  0  0  0  0
  4 23  1  0  0  0  0
  5 14  1  0  0  0  0
  7 21  1  0  0  0  0
  9  6  1  0  0  0  0
  9 10  2  0  0  0  0
 10 25  1  0  0  0  0
 11 17  2  0  0  0  0
 12 15  1  0  0  0  0
 12  7  2  0  0  0  0
 13  1  1  0  0  0  0
 14  8  1  0  0  0  0
 14  6  2  0  0  0  0
 15  4  2  0  0  0  0
 16 13  2  0  0  0  0
 16  5  1  0  0  0  0
 17 10  1  0  0  0  0
 17 27  1  0  0  0  0
 18 11  1  0  0  0  0
 19  5  2  0  0  0  0
 20  3  2  0  0  0  0
 21 23  2  0  0  0  0
 22  2  1  0  0  0  0
 22 11  1  0  0  0  0
 23 18  1  0  0  0  0
 25 24  3  0  0  0  0
 27 26  1  0  0  0  0
 29 28  1  0  0  0  0
 30 29  1  0  0  0  0
 31 30  1  0  0  0  0
 32 30  1  0  0  0  0
M  END
>  <MODEL>
4

>  <REMARK>
 VINA RESULT:      -8.9      3.530      8.667
  Name = 
  5 active torsions:
  status: ('A' for Active; 'I' for Inactive)
    1  A    between atoms: C_1  and  C_10
    2  A    between atoms: C_2  and  C_24
    3  A    between atoms: C_10  and  C_24
    4  A    between atoms: C_13  and  C_15
    5  A    between atoms: O_25  and  C_26
                            x       y       z     vdW  Elec       q    Type
                         _______ _______ _______ _____ _____    ______ ____

>  <TORSDO>
F 5

$$$$
=
 OpenBabel10262421403D

 32 36  0  0  1  0  0  0  0  0999 V2000
  192.0700  176.5840  138.5470 C   0  0  0  0  0  0  0  0  0  0  0  0
  188.6160  177.7350  142.1110 C   0  0  1  0  0  3  0  0  0  0  0  0
  186.1940  178.5130  142.2010 C   0  0  0  0  0  0  0  0  0  0  0  0
  184.9430  178.6300  142.9750 C   0  0  0  0  0  0  0  0  0  0  0  0
  189.8190  177.2740  140.0150 C   0  0  0  0  0  0  0  0  0  0  0  0
  191.1920  177.4030  142.1380 C   0  0  0  0  0  3  0  0  0  0  0  0
  182.5850  178.8440  144.4740 C   0  0  0  0  0  3  0  0  0  0  0  0
  192.1820  176.7930  139.9230 C   0  0  0  0  0  3  0  0  0  0  0  0
  189.8660  177.4800  142.8700 C   0  0  0  0  0  0  0  0  0  0  0  0
  189.8180  177.3910  144.2140 C   0  0  0  0  0  0  0  0  0  0  0  0
  187.3940  177.8320  144.2710 C   0  0  0  0  0  0  0  0  0  0  0  0
  182.5700  179.1250  143.1060 C   0  0  0  0  0  3  0  0  0  0  0  0
  190.8260  176.7410  137.9310 C   0  0  0  0  0  3  0  0  0  0  0  0
  191.0520  177.1290  140.6710 C   0  0  0  0  0  0  0  0  0  0  0  0
  183.7460  179.0200  142.3580 C   0  0  0  0  0  3  0  0  0  0  0  0
  189.7360  177.0770  138.6720 N   0  0  0  0  0  0  0  0  0  0  0  0
  188.5130  177.5080  144.9390 C   0  0  0  0  0  0  0  0  0  0  0  0
  186.1660  177.9680  144.9960 N   0  0  0  0  0  2  0  0  0  0  0  0
  188.6140  177.6180  140.7750 C   0  0  0  0  0  3  0  0  0  0  0  0
  186.1970  178.8550  140.9870 O   0  0  0  0  0  0  0  0  0  0  0  0
  183.7750  178.4570  145.0960 C   0  0  0  0  0  3  0  0  0  0  0  0
  187.4030  178.0350  142.8400 N   0  0  0  0  0  0  0  0  0  0  0  0
  184.9530  178.3500  144.3500 C   0  0  0  0  0  0  0  0  0  0  0  0
  192.0270  177.0710  145.5590 N   0  0  0  0  0  0  0  0  0  0  0  0
  191.0460  177.2160  144.9600 C   0  0  0  0  0  0  0  0  0  0  0  0
  188.6360  178.2520  147.2310 O   0  0  0  0  0  1  0  0  0  0  0  0
  188.4010  177.2970  146.3230 O   0  0  0  0  0  0  0  0  0  0  0  0
  193.2710  176.2390  137.7390 C   0  0  0  0  0  2  0  0  0  0  0  0
  193.3830  174.7250  137.5870 C   0  0  0  0  0  2  0  0  0  0  0  0
  194.8290  174.2360  137.6280 C   0  0  0  0  0  3  0  0  0  0  0  0
  195.6810  174.9210  136.5750 C   0  0  0  0  0  1  0  0  0  0  0  0
  195.4420  174.4160  139.0060 C   0  0  0  0  0  1  0  0  0  0  0  0
  1  8  2  0  0  0  0
  2 19  1  1  0  0  0
  2 22  1  0  0  0  0
  2  9  1  0  0  0  0
  3 22  1  0  0  0  0
  3  4  1  0  0  0  0
  4 23  1  0  0  0  0
  5 14  1  0  0  0  0
  5 19  2  0  0  0  0
  6  9  1  0  0  0  0
  7 21  1  0  0  0  0
  8 14  1  0  0  0  0
  9 10  2  0  0  0  0
 10 17  1  0  0  0  0
 10 25  1  0  0  0  0
 11 17  2  0  0  0  0
 11 18  1  0  0  0  0
 12  7  2  0  0  0  0
 13  1  1  0  0  0  0
 13 16  2  0  0  0  0
 14  6  2  0  0  0  0
 15  4  2  0  0  0  0
 15 12  1  0  0  0  0
 16  5  1  0  0  0  0
 17 27  1  0  0  0  0
 20  3  2  0  0  0  0
 22 11  1  0  0  0  0
 23 18  1  0  0  0  0
 23 21  2  0  0  0  0
 25 24  3  0  0  0  0
 27 26  1  0  0  0  0
 28  1  1  0  0  0  0
 29 30  1  0  0  0  0
 29 28  1  0  0  0  0
 30 32  1  0  0  0  0
 31 30  1  0  0  0  0
M  END
>  <MODEL>
5

>  <REMARK>
 VINA RESULT:      -8.9      4.353      6.996
  Name = 
  5 active torsions:
  status: ('A' for Active; 'I' for Inactive)
    1  A    between atoms: C_1  and  C_10
    2  A    between atoms: C_2  and  C_24
    3  A    between atoms: C_10  and  C_24
    4  A    between atoms: C_13  and  C_15
    5  A    between atoms: O_25  and  C_26
                            x       y       z     vdW  Elec       q    Type
                         _______ _______ _______ _____ _____    ______ ____

>  <TORSDO>
F 5

$$$$
=
 OpenBabel10262421403D

 32 36  0  0  1  0  0  0  0  0999 V2000
  190.3750  177.0660  145.7960 C   0  0  0  0  0  0  0  0  0  0  0  0
  190.2030  177.2360  140.7070 C   0  0  1  0  0  3  0  0  0  0  0  0
  191.7510  176.7170  138.7540 C   0  0  0  0  0  0  0  0  0  0  0  0
  191.8970  176.3970  137.3210 C   0  0  0  0  0  0  0  0  0  0  0  0
  190.8290  176.9090  143.0630 C   0  0  0  0  0  0  0  0  0  0  0  0
  188.7220  178.2310  142.5950 C   0  0  0  0  0  3  0  0  0  0  0  0
  192.1410  175.7990  134.5940 C   0  0  0  0  0  3  0  0  0  0  0  0
  189.4630  177.6450  144.9110 C   0  0  0  0  0  3  0  0  0  0  0  0
  188.9150  177.8310  141.1450 C   0  0  0  0  0  0  0  0  0  0  0  0
  187.9530  178.0760  140.2320 C   0  0  0  0  0  0  0  0  0  0  0  0
  189.3550  177.2660  138.3720 C   0  0  0  0  0  0  0  0  0  0  0  0
  193.2490  175.6770  135.4370 C   0  0  0  0  0  3  0  0  0  0  0  0
  191.5090  176.4290  145.2880 C   0  0  0  0  0  3  0  0  0  0  0  0
  189.6780  177.5610  143.5340 C   0  0  0  0  0  0  0  0  0  0  0  0
  193.1270  175.9770  136.7970 C   0  0  0  0  0  3  0  0  0  0  0  0
  191.7100  176.3620  143.9440 N   0  0  0  0  0  0  0  0  0  0  0  0
  188.1610  177.7170  138.7930 C   0  0  0  0  0  0  0  0  0  0  0  0
  189.5330  176.9610  136.9840 N   0  0  0  0  0  2  0  0  0  0  0  0
  191.0780  176.7970  141.6230 C   0  0  0  0  0  3  0  0  0  0  0  0
  192.7720  176.6950  139.4930 O   0  0  0  0  0  0  0  0  0  0  0  0
  190.9120  176.2200  135.1100 C   0  0  0  0  0  3  0  0  0  0  0  0
  190.4540  177.0750  139.2910 N   0  0  0  0  0  0  0  0  0  0  0  0
  190.7880  176.5190  136.4700 C   0  0  0  0  0  0  0  0  0  0  0  0
  185.7430  179.2390  140.9720 N   0  0  0  0  0  0  0  0  0  0  0  0
  186.7270  178.7230  140.6460 C   0  0  0  0  0  0  0  0  0  0  0  0
  186.7950  179.0050  137.2780 O   0  0  0  0  0  1  0  0  0  0  0  0
  187.1430  177.8380  137.8340 O   0  0  0  0  0  0  0  0  0  0  0  0
  190.1610  177.1630  147.2650 C   0  0  0  0  0  2  0  0  0  0  0  0
  188.8520  176.4800  147.6510 C   0  0  0  0  0  2  0  0  0  0  0  0
  187.8340  177.4520  148.2410 C   0  0  0  0  0  3  0  0  0  0  0  0
  188.5120  178.6320  148.9120 C   0  0  0  0  0  1  0  0  0  0  0  0
  186.8470  177.9330  147.1910 C   0  0  0  0  0  1  0  0  0  0  0  0
  1 28  1  0  0  0  0
  2  9  1  0  0  0  0
  2 19  1  1  0  0  0
  3 22  1  0  0  0  0
  3 20  2  0  0  0  0
  4  3  1  0  0  0  0
  5 14  1  0  0  0  0
  5 16  1  0  0  0  0
  6 14  2  0  0  0  0
  7 21  2  0  0  0  0
  7 12  1  0  0  0  0
  8  1  2  0  0  0  0
  9  6  1  0  0  0  0
 10 25  1  0  0  0  0
 10  9  2  0  0  0  0
 11 17  2  0  0  0  0
 11 22  1  0  0  0  0
 12 15  2  0  0  0  0
 13  1  1  0  0  0  0
 14  8  1  0  0  0  0
 15  4  1  0  0  0  0
 16 13  2  0  0  0  0
 17 10  1  0  0  0  0
 18 11  1  0  0  0  0
 19  5  2  0  0  0  0
 21 23  1  0  0  0  0
 22  2  1  0  0  0  0
 23 18  1  0  0  0  0
 23  4  2  0  0  0  0
 25 24  3  0  0  0  0
 26 27  1  0  0  0  0
 27 17  1  0  0  0  0
 28 29  1  0  0  0  0
 29 30  1  0  0  0  0
 30 31  1  0  0  0  0
 32 30  1  0  0  0  0
M  END
>  <MODEL>
6

>  <REMARK>
 VINA RESULT:      -8.8      3.841      7.477
  Name = 
  5 active torsions:
  status: ('A' for Active; 'I' for Inactive)
    1  A    between atoms: C_1  and  C_10
    2  A    between atoms: C_2  and  C_24
    3  A    between atoms: C_10  and  C_24
    4  A    between atoms: C_13  and  C_15
    5  A    between atoms: O_25  and  C_26
                            x       y       z     vdW  Elec       q    Type
                         _______ _______ _______ _____ _____    ______ ____

>  <TORSDO>
F 5

$$$$
=
 OpenBabel10262421403D

 32 36  0  0  1  0  0  0  0  0999 V2000
  189.0790  177.5640  144.3320 C   0  0  0  0  0  0  0  0  0  0  0  0
  190.5590  177.0450  139.4840 C   0  0  1  0  0  3  0  0  0  0  0  0
  192.6900  176.4580  138.2200 C   0  0  0  0  0  0  0  0  0  0  0  0
  193.3140  175.9720  136.9750 C   0  0  0  0  0  0  0  0  0  0  0  0
  190.4060  177.1040  141.9380 C   0  0  0  0  0  0  0  0  0  0  0  0
  188.4810  178.1010  140.6310 C   0  0  0  0  0  3  0  0  0  0  0  0
  194.4720  175.0540  134.5940 C   0  0  0  0  0  3  0  0  0  0  0  0
  188.4670  177.9130  143.1250 C   0  0  0  0  0  3  0  0  0  0  0  0
  189.1620  177.5390  139.3980 C   0  0  0  0  0  0  0  0  0  0  0  0
  188.5350  177.5490  138.2040 C   0  0  0  0  0  0  0  0  0  0  0  0
  190.5160  176.6710  137.0290 C   0  0  0  0  0  0  0  0  0  0  0  0
  195.2510  175.1730  135.7470 C   0  0  0  0  0  3  0  0  0  0  0  0
  190.3570  177.0010  144.3110 C   0  0  0  0  0  3  0  0  0  0  0  0
  189.1230  177.6740  141.9170 C   0  0  0  0  0  0  0  0  0  0  0  0
  194.6740  175.6320  136.9350 C   0  0  0  0  0  3  0  0  0  0  0  0
  190.9880  176.7830  143.1260 N   0  0  0  0  0  0  0  0  0  0  0  0
  189.2230  177.0310  136.9790 C   0  0  0  0  0  0  0  0  0  0  0  0
  191.1560  176.2090  135.8330 N   0  0  0  0  0  2  0  0  0  0  0  0
  191.1170  176.8340  140.6850 C   0  0  0  0  0  3  0  0  0  0  0  0
  193.4140  176.6500  139.2340 O   0  0  0  0  0  0  0  0  0  0  0  0
  193.1160  175.3940  134.6260 C   0  0  0  0  0  3  0  0  0  0  0  0
  191.2670  176.7310  138.2620 N   0  0  0  0  0  0  0  0  0  0  0  0
  192.5370  175.8520  135.8130 C   0  0  0  0  0  0  0  0  0  0  0  0
  186.1300  178.5340  138.0230 N   0  0  0  0  0  0  0  0  0  0  0  0
  187.2000  178.0990  138.1060 C   0  0  0  0  0  0  0  0  0  0  0  0
  187.7260  175.9050  135.4580 O   0  0  0  0  0  1  0  0  0  0  0  0
  188.5650  176.9080  135.7440 O   0  0  0  0  0  0  0  0  0  0  0  0
  188.3930  177.8270  145.6250 C   0  0  0  0  0  2  0  0  0  0  0  0
  186.9250  177.4210  145.5330 C   0  0  0  0  0  2  0  0  0  0  0  0
  185.9790  178.6140  145.6300 C   0  0  0  0  0  3  0  0  0  0  0  0
  185.0000  178.6470  144.4710 C   0  0  0  0  0  1  0  0  0  0  0  0
  185.2340  178.6320  146.9540 C   0  0  0  0  0  1  0  0  0  0  0  0
  1 28  1  0  0  0  0
  2 19  1  1  0  0  0
  3 22  1  0  0  0  0
  3 20  2  0  0  0  0
  4  3  1  0  0  0  0
  5 16  1  0  0  0  0
  6 14  2  0  0  0  0
  7 21  2  0  0  0  0
  7 12  1  0  0  0  0
  8  1  2  0  0  0  0
  9  2  1  0  0  0  0
  9  6  1  0  0  0  0
 10  9  2  0  0  0  0
 11 22  1  0  0  0  0
 12 15  2  0  0  0  0
 13  1  1  0  0  0  0
 14  5  1  0  0  0  0
 14  8  1  0  0  0  0
 15  4  1  0  0  0  0
 16 13  2  0  0  0  0
 17 11  2  0  0  0  0
 17 10  1  0  0  0  0
 18 11  1  0  0  0  0
 19  5  2  0  0  0  0
 21 23  1  0  0  0  0
 22  2  1  0  0  0  0
 23 18  1  0  0  0  0
 23  4  2  0  0  0  0
 24 25  3  0  0  0  0
 25 10  1  0  0  0  0
 26 27  1  0  0  0  0
 27 17  1  0  0  0  0
 29 28  1  0  0  0  0
 29 30  1  0  0  0  0
 30 32  1  0  0  0  0
 31 30  1  0  0  0  0
M  END
>  <MODEL>
7

>  <REMARK>
 VINA RESULT:      -8.7      4.740      8.724
  Name = 
  5 active torsions:
  status: ('A' for Active; 'I' for Inactive)
    1  A    between atoms: C_1  and  C_10
    2  A    between atoms: C_2  and  C_24
    3  A    between atoms: C_10  and  C_24
    4  A    between atoms: C_13  and  C_15
    5  A    between atoms: O_25  and  C_26
                            x       y       z     vdW  Elec       q    Type
                         _______ _______ _______ _____ _____    ______ ____

>  <TORSDO>
F 5

$$$$
=
 OpenBabel10262421403D

 32 36  0  0  0  0  0  0  0  0999 V2000
  188.6830  178.1750  137.1380 C   0  0  0  0  0  0  0  0  0  0  0  0
  187.1740  178.0430  142.0020 C   0  0  0  0  0  0  0  0  0  0  0  0
  188.1820  177.4760  144.2700 C   0  0  0  0  0  0  0  0  0  0  0  0
  188.1220  177.6120  145.7380 C   0  0  0  0  0  0  0  0  0  0  0  0
  188.4390  177.9700  139.8940 C   0  0  0  0  0  0  0  0  0  0  0  0
  185.9230  178.1900  139.7310 C   0  0  0  0  0  3  0  0  0  0  0  0
  187.9760  177.8850  148.5230 C   0  0  0  0  0  3  0  0  0  0  0  0
  187.4180  178.2520  137.7260 C   0  0  0  0  0  2  0  0  0  0  0  0
  185.9420  178.3620  141.2370 C   0  0  0  0  0  0  0  0  0  0  0  0
  184.8280  178.7330  141.8990 C   0  0  0  0  0  0  0  0  0  0  0  0
  185.9160  178.4870  144.0980 C   0  0  0  0  0  0  0  0  0  0  0  0
  189.1130  177.3250  147.9360 C   0  0  0  0  0  3  0  0  0  0  0  0
  189.8030  177.9830  137.9500 C   0  0  0  0  0  3  0  0  0  0  0  0
  187.2880  178.1610  139.1130 C   0  0  0  0  0  0  0  0  0  0  0  0
  189.1860  177.1880  146.5470 C   0  0  0  0  0  3  0  0  0  0  0  0
  189.6600  177.8870  139.2990 N   0  0  0  0  0  0  0  0  0  0  0  0
  184.8370  178.8630  143.3910 C   0  0  0  0  0  0  0  0  0  0  0  0
  185.8830  178.5940  145.5260 N   0  0  0  0  0  2  0  0  0  0  0  0
  188.3350  177.8790  141.3540 C   0  0  0  0  0  3  0  0  0  0  0  0
  189.1690  176.8880  143.7500 O   0  0  0  0  0  0  0  0  0  0  0  0
  186.9110  178.3070  147.7230 C   0  0  0  0  0  3  0  0  0  0  0  0
  187.1060  177.9900  143.4460 N   0  0  0  0  0  0  0  0  0  0  0  0
  186.9810  178.1720  146.3330 C   0  0  0  0  0  0  0  0  0  0  0  0
  182.6270  179.1630  140.5730 N   0  0  0  0  0  0  0  0  0  0  0  0
  183.6070  178.9730  141.1600 C   0  0  0  0  0  0  0  0  0  0  0  0
  182.6560  178.6350  144.3980 O   0  0  0  0  0  1  0  0  0  0  0  0
  183.7390  179.3660  144.1080 O   0  0  0  0  0  0  0  0  0  0  0  0
  188.8300  178.2590  135.6600 C   0  0  0  0  0  2  0  0  0  0  0  0
  187.9670  177.1960  134.9860 C   0  0  0  0  0  2  0  0  0  0  0  0
  188.7360  175.9070  134.7050 C   0  0  0  0  0  3  0  0  0  0  0  0
  190.2290  176.1580  134.6000 C   0  0  0  0  0  1  0  0  0  0  0  0
  188.4480  174.8450  135.7520 C   0  0  0  0  0  1  0  0  0  0  0  0
  1  8  1  0  0  0  0
  1 13  2  0  0  0  0
  2 22  1  0  0  0  0
  3  4  1  0  0  0  0
  4 23  2  0  0  0  0
  4 15  1  0  0  0  0
  5 19  1  0  0  0  0
  6  9  1  0  0  0  0
  8 14  1  0  0  0  0
  9 10  2  0  0  0  0
  9  2  1  0  0  0  0
 10 17  1  0  0  0  0
 11 18  1  0  0  0  0
 12  7  1  0  0  0  0
 13 16  1  0  0  0  0
 14  6  2  0  0  0  0
 14  5  1  0  0  0  0
 15 12  2  0  0  0  0
 16  5  2  0  0  0  0
 17 11  2  0  0  0  0
 17 27  1  0  0  0  0
 18 23  1  0  0  0  0
 19  2  2  0  0  0  0
 20  3  2  0  0  0  0
 21  7  2  0  0  0  0
 22 11  1  0  0  0  0
 22  3  1  0  0  0  0
 23 21  1  0  0  0  0
 24 25  3  0  0  0  0
 25 10  1  0  0  0  0
 27 26  1  0  0  0  0
 28  1  1  0  0  0  0
 29 28  1  0  0  0  0
 30 29  1  0  0  0  0
 30 32  1  0  0  0  0
 31 30  1  0  0  0  0
M  END
>  <MODEL>
8

>  <REMARK>
 VINA RESULT:      -8.3      2.952      8.182
  Name = 
  5 active torsions:
  status: ('A' for Active; 'I' for Inactive)
    1  A    between atoms: C_1  and  C_10
    2  A    between atoms: C_2  and  C_24
    3  A    between atoms: C_10  and  C_24
    4  A    between atoms: C_13  and  C_15
    5  A    between atoms: O_25  and  C_26
                            x       y       z     vdW  Elec       q    Type
                         _______ _______ _______ _____ _____    ______ ____

>  <TORSDO>
F 5

$$$$
=
 OpenBabel10262421403D

 32 36  0  0  0  0  0  0  0  0999 V2000
  182.4270  178.7850  139.1400 C   0  0  0  0  0  0  0  0  0  0  0  0
  186.3560  178.2530  142.3410 C   0  0  0  0  0  0  0  0  0  0  0  0
  186.7470  178.2620  144.8570 C   0  0  0  0  0  0  0  0  0  0  0  0
  187.6060  177.8750  145.9930 C   0  0  0  0  0  0  0  0  0  0  0  0
  184.1400  178.5260  141.3090 C   0  0  0  0  0  0  0  0  0  0  0  0
  186.1570  178.6890  139.7880 C   0  0  0  0  0  3  0  0  0  0  0  0
  189.2610  177.1330  148.1290 C   0  0  0  0  0  3  0  0  0  0  0  0
  183.8090  178.7800  138.9320 C   0  0  0  0  0  2  0  0  0  0  0  0
  186.9710  178.2500  140.9900 C   0  0  0  0  0  0  0  0  0  0  0  0
  188.2720  177.9240  140.8550 C   0  0  0  0  0  0  0  0  0  0  0  0
  188.5650  177.6210  143.2840 C   0  0  0  0  0  0  0  0  0  0  0  0
  187.9780  177.6260  148.3790 C   0  0  0  0  0  3  0  0  0  0  0  0
  181.9330  178.6730  140.4420 C   0  0  0  0  0  3  0  0  0  0  0  0
  184.6760  178.6390  140.0160 C   0  0  0  0  0  0  0  0  0  0  0  0
  187.1520  177.9970  147.3140 C   0  0  0  0  0  3  0  0  0  0  0  0
  182.7920  178.5450  141.4900 N   0  0  0  0  0  0  0  0  0  0  0  0
  189.0860  177.5300  142.0490 C   0  0  0  0  0  0  0  0  0  0  0  0
  189.3780  177.2660  144.4090 N   0  0  0  0  0  2  0  0  0  0  0  0
  185.0260  178.3690  142.4660 C   0  0  0  0  0  3  0  0  0  0  0  0
  185.6260  178.7910  145.0880 O   0  0  0  0  0  0  0  0  0  0  0  0
  189.7200  177.0110  146.8140 C   0  0  0  0  0  3  0  0  0  0  0  0
  187.2040  178.0570  143.4970 N   0  0  0  0  0  0  0  0  0  0  0  0
  188.8960  177.3810  145.7470 C   0  0  0  0  0  0  0  0  0  0  0  0
  189.3870  178.0510  138.5040 N   0  0  0  0  0  0  0  0  0  0  0  0
  188.8920  177.9910  139.5490 C   0  0  0  0  0  0  0  0  0  0  0  0
  191.4690  177.8760  141.9020 O   0  0  0  0  0  1  0  0  0  0  0  0
  190.4060  177.0640  141.9380 O   0  0  0  0  0  0  0  0  0  0  0  0
  181.4950  178.9470  137.9930 C   0  0  0  0  0  2  0  0  0  0  0  0
  181.7340  177.8470  136.9620 C   0  0  0  0  0  2  0  0  0  0  0  0
  181.3590  176.4630  137.4840 C   0  0  0  0  0  3  0  0  0  0  0  0
  180.1180  175.9240  136.7960 C   0  0  0  0  0  1  0  0  0  0  0  0
  182.5110  175.4820  137.3450 C   0  0  0  0  0  1  0  0  0  0  0  0
  1 13  2  0  0  0  0
  2 19  2  0  0  0  0
  2 22  1  0  0  0  0
  3 20  2  0  0  0  0
  3  4  1  0  0  0  0
  4 15  1  0  0  0  0
  5 16  2  0  0  0  0
  5 19  1  0  0  0  0
  6 14  2  0  0  0  0
  6  9  1  0  0  0  0
  7 12  1  0  0  0  0
  8  1  1  0  0  0  0
  8 14  1  0  0  0  0
  9  2  1  0  0  0  0
 10  9  2  0  0  0  0
 10 17  1  0  0  0  0
 11 22  1  0  0  0  0
 11 18  1  0  0  0  0
 13 16  1  0  0  0  0
 14  5  1  0  0  0  0
 15 12  2  0  0  0  0
 17 11  2  0  0  0  0
 18 23  1  0  0  0  0
 21  7  2  0  0  0  0
 22  3  1  0  0  0  0
 23  4  2  0  0  0  0
 23 21  1  0  0  0  0
 24 25  3  0  0  0  0
 25 10  1  0  0  0  0
 26 27  1  0  0  0  0
 27 17  1  0  0  0  0
 28  1  1  0  0  0  0
 29 30  1  0  0  0  0
 29 28  1  0  0  0  0
 31 30  1  0  0  0  0
 32 30  1  0  0  0  0
M  END
>  <MODEL>
9

>  <REMARK>
 VINA RESULT:      -8.2      2.759      8.361
  Name = 
  5 active torsions:
  status: ('A' for Active; 'I' for Inactive)
    1  A    between atoms: C_1  and  C_10
    2  A    between atoms: C_2  and  C_24
    3  A    between atoms: C_10  and  C_24
    4  A    between atoms: C_13  and  C_15
    5  A    between atoms: O_25  and  C_26
                            x       y       z     vdW  Elec       q    Type
                         _______ _______ _______ _____ _____    ______ ____

>  <TORSDO>
F 5

$$$$
