=
 OpenBabel10262420003D

 27 31  0  0  1  0  0  0  0  0999 V2000
  187.1390  177.1490  142.0700 C   0  0  0  0  0  2  0  0  0  0  0  0
  189.3620  177.6650  143.1950 C   0  0  0  0  0  0  0  0  0  0  0  0
  187.5400  176.8560  144.8390 C   0  0  0  0  0  2  0  0  0  0  0  0
  192.0750  177.2240  146.3400 N   0  0  0  0  0  2  0  0  0  0  0  0
  191.6630  175.4000  147.8120 N   0  0  0  0  0  1  0  0  0  0  0  0
  190.6860  177.9630  142.9940 N   0  0  0  0  0  0  0  0  0  0  0  0
  189.7910  176.6910  146.9080 C   0  0  1  0  0  3  0  0  0  0  0  0
  184.0920  178.4920  144.8570 C   0  0  0  0  0  2  0  0  0  0  0  0
  188.9490  177.6900  147.6840 C   0  0  0  0  0  1  0  0  0  0  0  0
  184.1260  179.9290  144.3260 C   0  0  0  0  0  2  0  0  0  0  0  0
  189.9310  177.1280  145.4870 C   0  0  0  0  0  0  0  0  0  0  0  0
  188.4420  177.8260  142.0860 N   0  0  0  0  0  0  0  0  0  0  0  0
  191.2400  176.7380  147.4380 C   0  0  2  0  0  3  0  0  0  0  0  0
  191.2330  177.4230  145.2260 C   0  0  0  0  0  0  0  0  0  0  0  0
  186.1190  177.8240  142.9890 C   0  0  2  0  0  3  0  0  0  0  0  0
  188.9500  177.2260  144.4910 C   0  0  0  0  0  0  0  0  0  0  0  0
  185.4230  178.0160  145.4500 C   0  0  0  0  0  2  0  0  0  0  0  0
  191.6310  177.8500  143.9690 C   0  0  0  0  0  3  0  0  0  0  0  0
  185.5920  179.1320  142.3720 C   0  0  0  0  0  2  0  0  0  0  0  0
  185.3020  180.2380  143.3930 C   0  0  0  0  0  2  0  0  0  0  0  0
  186.5870  177.9710  144.4490 C   0  0  1  0  0  3  0  0  0  0  0  0
  189.2470  176.9520  138.4120 O   0  0  0  0  0  0  0  0  0  0  0  0
  188.9630  178.4370  140.8500 C   0  0  0  0  0  3  0  0  0  0  0  0
  187.9090  178.4440  139.7360 C   0  0  0  0  0  2  0  0  0  0  0  0
  187.9600  177.1370  138.9450 C   0  0  0  0  0  2  0  0  0  0  0  0
  190.0810  176.6280  139.4950 C   0  0  0  0  0  2  0  0  0  0  0  0
  190.3090  177.8630  140.3680 C   0  0  0  0  0  2  0  0  0  0  0  0
  1 12  1  0  0  0  0
  2 16  1  0  0  0  0
  4 13  1  0  0  0  0
  6  2  2  0  0  0  0
  6 18  1  0  0  0  0
  7 13  1  0  0  0  0
  7  9  1  1  0  0  0
  8 17  1  0  0  0  0
 10  8  1  0  0  0  0
 11  7  1  0  0  0  0
 12  2  1  0  0  0  0
 13  5  1  6  0  0  0
 14 11  1  0  0  0  0
 14  4  1  0  0  0  0
 15  1  1  6  0  0  0
 15 21  1  0  0  0  0
 16  3  1  0  0  0  0
 16 11  2  0  0  0  0
 18 14  2  0  0  0  0
 19 15  1  0  0  0  0
 19 20  1  0  0  0  0
 20 10  1  0  0  0  0
 21  3  1  1  0  0  0
 21 17  1  0  0  0  0
 22 25  1  0  0  0  0
 22 26  1  0  0  0  0
 23 12  1  0  0  0  0
 24 23  1  0  0  0  0
 25 24  1  0  0  0  0
 26 27  1  0  0  0  0
 27 23  1  0  0  0  0
M  END
>  <MODEL>
1

>  <REMARK>
 VINA RESULT:      -8.6      0.000      0.000
  Name = 
  1 active torsions:
  status: ('A' for Active; 'I' for Inactive)
    1  A    between atoms: C_9  and  N_15
                            x       y       z     vdW  Elec       q    Type
                         _______ _______ _______ _____ _____    ______ ____

>  <TORSDO>
F 1

$$$$
=
 OpenBabel10262420003D

 27 31  0  0  1  0  0  0  0  0999 V2000
  185.7600  177.3090  144.6020 C   0  0  0  0  0  2  0  0  0  0  0  0
  187.0060  178.2110  142.5750 C   0  0  0  0  0  0  0  0  0  0  0  0
  188.3630  176.4790  143.9300 C   0  0  0  0  0  2  0  0  0  0  0  0
  189.9600  177.8930  139.6410 N   0  0  0  0  0  2  0  0  0  0  0  0
  190.9050  175.7270  139.3560 N   0  0  0  0  0  1  0  0  0  0  0  0
  186.9050  178.9570  141.4280 N   0  0  0  0  0  0  0  0  0  0  0  0
  190.3440  176.5340  141.5970 C   0  0  1  0  0  3  0  0  0  0  0  0
  188.7640  176.8680  147.7060 C   0  0  0  0  0  2  0  0  0  0  0  0
  191.3430  176.9840  142.6500 C   0  0  0  0  0  1  0  0  0  0  0  0
  188.6240  178.3250  148.1600 C   0  0  0  0  0  2  0  0  0  0  0  0
  189.0870  177.3320  141.7030 C   0  0  0  0  0  0  0  0  0  0  0  0
  185.9660  178.3400  143.5780 N   0  0  0  0  0  0  0  0  0  0  0  0
  190.8850  176.9080  140.2010 C   0  0  2  0  0  3  0  0  0  0  0  0
  188.9260  178.0830  140.5810 C   0  0  0  0  0  0  0  0  0  0  0  0
  186.8110  177.3710  145.7130 C   0  0  2  0  0  3  0  0  0  0  0  0
  188.1390  177.3550  142.7360 C   0  0  0  0  0  0  0  0  0  0  0  0
  189.2290  176.7110  146.2540 C   0  0  0  0  0  2  0  0  0  0  0  0
  187.8270  178.9130  140.4280 C   0  0  0  0  0  3  0  0  0  0  0  0
  186.5480  178.5510  146.6640 C   0  0  0  0  0  2  0  0  0  0  0  0
  187.8170  179.2150  147.2100 C   0  0  0  0  0  2  0  0  0  0  0  0
  188.2650  177.2910  145.2090 C   0  0  1  0  0  3  0  0  0  0  0  0
  182.1310  178.7940  143.5280 O   0  0  0  0  0  0  0  0  0  0  0  0
  184.9360  179.3730  143.3640 C   0  0  0  0  0  3  0  0  0  0  0  0
  184.1040  179.6100  144.6300 C   0  0  0  0  0  2  0  0  0  0  0  0
  182.9210  178.6420  144.6790 C   0  0  0  0  0  2  0  0  0  0  0  0
  182.8690  178.2420  142.4670 C   0  0  0  0  0  2  0  0  0  0  0  0
  184.0510  179.1500  142.1230 C   0  0  0  0  0  2  0  0  0  0  0  0
  2 16  1  0  0  0  0
  2 12  1  0  0  0  0
  4 13  1  0  0  0  0
  4 14  1  0  0  0  0
  6  2  2  0  0  0  0
  7 11  1  0  0  0  0
  7  9  1  1  0  0  0
  8 10  1  0  0  0  0
 11 16  2  0  0  0  0
 12  1  1  0  0  0  0
 13  5  1  6  0  0  0
 13  7  1  0  0  0  0
 14 11  1  0  0  0  0
 15  1  1  6  0  0  0
 15 19  1  0  0  0  0
 16  3  1  0  0  0  0
 17  8  1  0  0  0  0
 18 14  2  0  0  0  0
 18  6  1  0  0  0  0
 19 20  1  0  0  0  0
 20 10  1  0  0  0  0
 21  3  1  6  0  0  0
 21 15  1  0  0  0  0
 21 17  1  0  0  0  0
 22 25  1  0  0  0  0
 23 12  1  0  0  0  0
 23 24  1  0  0  0  0
 24 25  1  0  0  0  0
 26 22  1  0  0  0  0
 27 26  1  0  0  0  0
 27 23  1  0  0  0  0
M  END
>  <MODEL>
2

>  <REMARK>
 VINA RESULT:      -8.4      2.969      5.454
  Name = 
  1 active torsions:
  status: ('A' for Active; 'I' for Inactive)
    1  A    between atoms: C_9  and  N_15
                            x       y       z     vdW  Elec       q    Type
                         _______ _______ _______ _____ _____    ______ ____

>  <TORSDO>
F 1

$$$$
=
 OpenBabel10262420003D

 27 31  0  0  1  0  0  0  0  0999 V2000
  189.3580  178.3650  137.4110 C   0  0  0  0  0  2  0  0  0  0  0  0
  188.0820  178.1600  139.6040 C   0  0  0  0  0  0  0  0  0  0  0  0
  190.5420  177.3870  139.7690 C   0  0  0  0  0  2  0  0  0  0  0  0
  187.9600  177.9060  143.7700 N   0  0  0  0  0  2  0  0  0  0  0  0
  189.9640  178.5120  144.9020 N   0  0  0  0  0  1  0  0  0  0  0  0
  186.9220  178.4700  140.2680 N   0  0  0  0  0  0  0  0  0  0  0  0
  190.0750  177.2780  142.7920 C   0  0  1  0  0  3  0  0  0  0  0  0
  191.9520  174.8860  137.2530 C   0  0  0  0  0  2  0  0  0  0  0  0
  190.4370  175.8100  142.6450 C   0  0  0  0  0  1  0  0  0  0  0  0
  190.8620  174.0030  136.6360 C   0  0  0  0  0  2  0  0  0  0  0  0
  189.0690  177.6680  141.7590 C   0  0  0  0  0  0  0  0  0  0  0  0
  188.0980  178.2580  138.1570 N   0  0  0  0  0  0  0  0  0  0  0  0
  189.3130  177.4760  144.1200 C   0  0  2  0  0  3  0  0  0  0  0  0
  187.8980  178.0020  142.3640 C   0  0  0  0  0  0  0  0  0  0  0  0
  190.0910  177.0260  137.3090 C   0  0  2  0  0  3  0  0  0  0  0  0
  189.2150  177.7400  140.3670 C   0  0  0  0  0  0  0  0  0  0  0  0
  191.5990  175.4340  138.6400 C   0  0  0  0  0  2  0  0  0  0  0  0
  186.8010  178.4080  141.6230 C   0  0  0  0  0  3  0  0  0  0  0  0
  189.4160  176.0960  136.2860 C   0  0  0  0  0  2  0  0  0  0  0  0
  189.4570  174.6110  136.6610 C   0  0  0  0  0  2  0  0  0  0  0  0
  190.3700  176.3550  138.6680 C   0  0  1  0  0  3  0  0  0  0  0  0
  185.8750  176.9860  135.2670 O   0  0  0  0  0  0  0  0  0  0  0  0
  186.8210  178.5480  137.4790 C   0  0  0  0  0  3  0  0  0  0  0  0
  185.8250  177.3920  137.6340 C   0  0  0  0  0  2  0  0  0  0  0  0
  186.0220  176.3660  136.5190 C   0  0  0  0  0  2  0  0  0  0  0  0
  187.0170  177.7840  135.0840 C   0  0  0  0  0  2  0  0  0  0  0  0
  186.9610  178.9990  136.0130 C   0  0  0  0  0  2  0  0  0  0  0  0
  1 12  1  0  0  0  0
  2  6  2  0  0  0  0
  2 16  1  0  0  0  0
  3 16  1  0  0  0  0
  4 13  1  0  0  0  0
  6 18  1  0  0  0  0
  7  9  1  6  0  0  0
  7 13  1  0  0  0  0
  8 17  1  0  0  0  0
 10 20  1  0  0  0  0
 10  8  1  0  0  0  0
 11 14  1  0  0  0  0
 11  7  1  0  0  0  0
 12  2  1  0  0  0  0
 13  5  1  1  0  0  0
 14  4  1  0  0  0  0
 15 19  1  6  0  0  0
 15  1  1  0  0  0  0
 15 21  1  0  0  0  0
 16 11  2  0  0  0  0
 18 14  2  0  0  0  0
 19 20  1  0  0  0  0
 21 17  1  6  0  0  0
 21  3  1  0  0  0  0
 22 25  1  0  0  0  0
 23 24  1  0  0  0  0
 23 12  1  0  0  0  0
 25 24  1  0  0  0  0
 26 22  1  0  0  0  0
 26 27  1  0  0  0  0
 27 23  1  0  0  0  0
M  END
>  <MODEL>
3

>  <REMARK>
 VINA RESULT:      -7.5      2.631      6.212
  Name = 
  1 active torsions:
  status: ('A' for Active; 'I' for Inactive)
    1  A    between atoms: C_9  and  N_15
                            x       y       z     vdW  Elec       q    Type
                         _______ _______ _______ _____ _____    ______ ____

>  <TORSDO>
F 1

$$$$
=
 OpenBabel10262420003D

 27 31  0  0  1  0  0  0  0  0999 V2000
  185.4840  179.4090  143.3420 C   0  0  0  0  0  2  0  0  0  0  0  0
  187.2840  177.6230  143.1350 C   0  0  0  0  0  0  0  0  0  0  0  0
  186.9730  179.0240  140.9860 C   0  0  0  0  0  2  0  0  0  0  0  0
  190.7250  176.0680  141.3510 N   0  0  0  0  0  2  0  0  0  0  0  0
  191.9630  177.5840  139.9980 N   0  0  0  0  0  1  0  0  0  0  0  0
  188.0380  176.6970  143.8110 N   0  0  0  0  0  0  0  0  0  0  0  0
  189.5170  177.6470  139.9840 C   0  0  1  0  0  3  0  0  0  0  0  0
  183.4980  179.5040  139.4820 C   0  0  0  0  0  2  0  0  0  0  0  0
  188.6260  177.1510  138.8580 C   0  0  0  0  0  1  0  0  0  0  0  0
  182.5380  178.3700  139.8590 C   0  0  0  0  0  2  0  0  0  0  0  0
  188.8550  177.4220  141.3040 C   0  0  0  0  0  0  0  0  0  0  0  0
  186.0940  178.1480  143.7780 N   0  0  0  0  0  0  0  0  0  0  0  0
  190.7740  176.7540  140.0610 C   0  0  2  0  0  3  0  0  0  0  0  0
  189.5710  176.5200  142.0260 C   0  0  0  0  0  0  0  0  0  0  0  0
  184.6890  179.2560  142.0430 C   0  0  2  0  0  3  0  0  0  0  0  0
  187.6960  178.0150  141.8240 C   0  0  0  0  0  0  0  0  0  0  0  0
  184.9760  179.1000  139.4990 C   0  0  0  0  0  2  0  0  0  0  0  0
  189.1700  176.1400  143.2970 C   0  0  0  0  0  3  0  0  0  0  0  0
  183.3490  178.5420  142.2900 C   0  0  0  0  0  2  0  0  0  0  0  0
  182.9040  177.6250  141.1460 C   0  0  0  0  0  2  0  0  0  0  0  0
  185.5020  178.6640  140.8750 C   0  0  1  0  0  3  0  0  0  0  0  0
  186.4180  178.6990  147.5870 O   0  0  0  0  0  0  0  0  0  0  0  0
  185.6910  177.5460  145.0620 C   0  0  0  0  0  3  0  0  0  0  0  0
  184.7670  178.4780  145.8560 C   0  0  0  0  0  2  0  0  0  0  0  0
  185.5890  179.4320  146.7220 C   0  0  0  0  0  2  0  0  0  0  0  0
  187.4320  178.1440  146.7860 C   0  0  0  0  0  2  0  0  0  0  0  0
  186.8580  177.0210  145.9190 C   0  0  0  0  0  2  0  0  0  0  0  0
  1 12  1  0  0  0  0
  2 12  1  0  0  0  0
  2  6  1  0  0  0  0
  3 16  1  0  0  0  0
  4 14  1  0  0  0  0
  7  9  1  6  0  0  0
  7 13  1  0  0  0  0
  7 11  1  0  0  0  0
  8 17  1  0  0  0  0
  8 10  1  0  0  0  0
 10 20  1  0  0  0  0
 11 16  1  0  0  0  0
 11 14  2  0  0  0  0
 12 23  1  0  0  0  0
 13  5  1  1  0  0  0
 13  4  1  0  0  0  0
 14 18  1  0  0  0  0
 15 19  1  1  0  0  0
 15  1  1  0  0  0  0
 16  2  2  0  0  0  0
 18  6  2  0  0  0  0
 20 19  1  0  0  0  0
 21 17  1  6  0  0  0
 21  3  1  0  0  0  0
 21 15  1  0  0  0  0
 23 24  1  0  0  0  0
 23 27  1  0  0  0  0
 24 25  1  0  0  0  0
 25 22  1  0  0  0  0
 26 22  1  0  0  0  0
 27 26  1  0  0  0  0
M  END
>  <MODEL>
4

>  <REMARK>
 VINA RESULT:      -7.5      2.959      5.650
  Name = 
  1 active torsions:
  status: ('A' for Active; 'I' for Inactive)
    1  A    between atoms: C_9  and  N_15
                            x       y       z     vdW  Elec       q    Type
                         _______ _______ _______ _____ _____    ______ ____

>  <TORSDO>
F 1

$$$$
=
 OpenBabel10262420003D

 27 31  0  0  1  0  0  0  0  0999 V2000
  187.6950  177.1290  142.6360 C   0  0  0  0  0  2  0  0  0  0  0  0
  188.0610  177.9100  140.2420 C   0  0  0  0  0  0  0  0  0  0  0  0
  189.8680  176.2610  141.0740 C   0  0  0  0  0  2  0  0  0  0  0  0
  189.6920  177.4190  136.4290 N   0  0  0  0  0  2  0  0  0  0  0  0
  190.5070  175.2400  135.9260 N   0  0  0  0  0  1  0  0  0  0  0  0
  187.5170  178.5870  139.1800 N   0  0  0  0  0  0  0  0  0  0  0  0
  190.8180  176.1780  138.1650 C   0  0  1  0  0  3  0  0  0  0  0  0
  191.6590  176.8730  144.3890 C   0  0  0  0  0  2  0  0  0  0  0  0
  192.1300  176.6890  138.7340 C   0  0  0  0  0  1  0  0  0  0  0  0
  191.6690  178.3530  144.7810 C   0  0  0  0  0  2  0  0  0  0  0  0
  189.6760  176.9810  138.6960 C   0  0  0  0  0  0  0  0  0  0  0  0
  187.4750  178.0980  141.5550 N   0  0  0  0  0  0  0  0  0  0  0  0
  190.7810  176.4690  136.6490 C   0  0  2  0  0  3  0  0  0  0  0  0
  189.0860  177.6640  137.6790 C   0  0  0  0  0  0  0  0  0  0  0  0
  189.0860  177.2570  143.2610 C   0  0  2  0  0  3  0  0  0  0  0  0
  189.1900  177.0650  140.0070 C   0  0  0  0  0  0  0  0  0  0  0  0
  191.5440  176.6290  142.8800 C   0  0  0  0  0  2  0  0  0  0  0  0
  187.9930  178.4840  137.9080 C   0  0  0  0  0  3  0  0  0  0  0  0
  189.1770  178.4910  144.1740 C   0  0  0  0  0  2  0  0  0  0  0  0
  190.5430  179.1860  144.1610 C   0  0  0  0  0  2  0  0  0  0  0  0
  190.2430  177.1480  142.2480 C   0  0  1  0  0  3  0  0  0  0  0  0
  183.7360  178.4450  142.4550 O   0  0  0  0  0  0  0  0  0  0  0  0
  186.4180  179.1170  141.6910 C   0  0  0  0  0  3  0  0  0  0  0  0
  185.9090  179.2110  143.1350 C   0  0  0  0  0  2  0  0  0  0  0  0
  184.7770  178.2100  143.3670 C   0  0  0  0  0  2  0  0  0  0  0  0
  184.2030  178.0150  141.2010 C   0  0  0  0  0  2  0  0  0  0  0  0
  185.2660  178.9850  140.6790 C   0  0  0  0  0  2  0  0  0  0  0  0
  2 12  1  0  0  0  0
  4 13  1  0  0  0  0
  4 14  1  0  0  0  0
  6  2  2  0  0  0  0
  7 11  1  0  0  0  0
  7  9  1  1  0  0  0
  8 10  1  0  0  0  0
 11 16  2  0  0  0  0
 12 23  1  0  0  0  0
 12  1  1  0  0  0  0
 13  5  1  6  0  0  0
 13  7  1  0  0  0  0
 14 18  2  0  0  0  0
 14 11  1  0  0  0  0
 15  1  1  6  0  0  0
 15 19  1  0  0  0  0
 16  2  1  0  0  0  0
 16  3  1  0  0  0  0
 17  8  1  0  0  0  0
 18  6  1  0  0  0  0
 20 19  1  0  0  0  0
 20 10  1  0  0  0  0
 21  3  1  6  0  0  0
 21 17  1  0  0  0  0
 21 15  1  0  0  0  0
 22 25  1  0  0  0  0
 23 24  1  0  0  0  0
 24 25  1  0  0  0  0
 26 22  1  0  0  0  0
 27 26  1  0  0  0  0
 27 23  1  0  0  0  0
M  END
>  <MODEL>
5

>  <REMARK>
 VINA RESULT:      -7.3      3.009      6.603
  Name = 
  1 active torsions:
  status: ('A' for Active; 'I' for Inactive)
    1  A    between atoms: C_9  and  N_15
                            x       y       z     vdW  Elec       q    Type
                         _______ _______ _______ _____ _____    ______ ____

>  <TORSDO>
F 1

$$$$
=
 OpenBabel10262420003D

 27 31  0  0  1  0  0  0  0  0999 V2000
  189.4750  178.7980  141.8800 C   0  0  0  0  0  2  0  0  0  0  0  0
  189.7070  177.0610  140.0350 C   0  0  0  0  0  0  0  0  0  0  0  0
  187.7070  178.6620  139.6950 C   0  0  0  0  0  2  0  0  0  0  0  0
  189.0090  175.7270  136.1390 N   0  0  0  0  0  2  0  0  0  0  0  0
  188.2730  177.3830  134.5960 N   0  0  0  0  0  1  0  0  0  0  0  0
  190.5070  176.0820  139.5000 N   0  0  0  0  0  0  0  0  0  0  0  0
  187.4700  177.4190  136.9070 C   0  0  1  0  0  3  0  0  0  0  0  0
  185.2030  179.2470  142.5150 C   0  0  0  0  0  2  0  0  0  0  0  0
  186.0760  177.0250  137.3640 C   0  0  0  0  0  1  0  0  0  0  0  0
  185.1450  178.0710  143.4950 C   0  0  0  0  0  2  0  0  0  0  0  0
  188.4770  177.0580  137.9490 C   0  0  0  0  0  0  0  0  0  0  0  0
  189.9720  177.5070  141.3890 N   0  0  0  0  0  0  0  0  0  0  0  0
  187.8710  176.5370  135.7060 C   0  0  2  0  0  3  0  0  0  0  0  0
  189.3100  176.0980  137.4670 C   0  0  0  0  0  0  0  0  0  0  0  0
  187.9800  178.7630  142.2050 C   0  0  2  0  0  3  0  0  0  0  0  0
  188.6420  177.5840  139.2380 C   0  0  0  0  0  0  0  0  0  0  0  0
  185.6650  178.8600  141.1050 C   0  0  0  0  0  2  0  0  0  0  0  0
  190.3410  175.5910  138.2410 C   0  0  0  0  0  3  0  0  0  0  0  0
  187.7120  178.0140  143.5210 C   0  0  0  0  0  2  0  0  0  0  0  0
  186.4090  177.2070  143.5340 C   0  0  0  0  0  2  0  0  0  0  0  0
  187.0920  178.2980  141.0340 C   0  0  1  0  0  3  0  0  0  0  0  0
  191.1490  176.9220  145.0200 O   0  0  0  0  0  0  0  0  0  0  0  0
  190.9960  176.7780  142.1590 C   0  0  0  0  0  3  0  0  0  0  0  0
  190.3660  175.7320  143.0860 C   0  0  0  0  0  2  0  0  0  0  0  0
  190.0040  176.3600  144.4310 C   0  0  0  0  0  2  0  0  0  0  0  0
  191.4520  178.0730  144.2740 C   0  0  0  0  0  2  0  0  0  0  0  0
  192.0020  177.6770  142.9020 C   0  0  0  0  0  2  0  0  0  0  0  0
  2 12  1  0  0  0  0
  4 14  1  0  0  0  0
  6  2  1  0  0  0  0
  7  9  1  1  0  0  0
  7 11  1  0  0  0  0
  8 10  1  0  0  0  0
 10 20  1  0  0  0  0
 11 16  1  0  0  0  0
 12  1  1  0  0  0  0
 12 23  1  0  0  0  0
 13  5  1  6  0  0  0
 13  4  1  0  0  0  0
 13  7  1  0  0  0  0
 14 11  2  0  0  0  0
 14 18  1  0  0  0  0
 15  1  1  6  0  0  0
 15 19  1  0  0  0  0
 16  3  1  0  0  0  0
 16  2  2  0  0  0  0
 17  8  1  0  0  0  0
 18  6  2  0  0  0  0
 19 20  1  0  0  0  0
 21  3  1  6  0  0  0
 21 17  1  0  0  0  0
 21 15  1  0  0  0  0
 23 27  1  0  0  0  0
 23 24  1  0  0  0  0
 24 25  1  0  0  0  0
 25 22  1  0  0  0  0
 26 22  1  0  0  0  0
 27 26  1  0  0  0  0
M  END
>  <MODEL>
6

>  <REMARK>
 VINA RESULT:      -7.2      2.839      6.535
  Name = 
  1 active torsions:
  status: ('A' for Active; 'I' for Inactive)
    1  A    between atoms: C_9  and  N_15
                            x       y       z     vdW  Elec       q    Type
                         _______ _______ _______ _____ _____    ______ ____

>  <TORSDO>
F 1

$$$$
=
 OpenBabel10262420003D

 27 31  0  0  1  0  0  0  0  0999 V2000
  189.5400  176.0030  144.4110 C   0  0  0  0  0  2  0  0  0  0  0  0
  187.8510  177.7290  145.2140 C   0  0  0  0  0  0  0  0  0  0  0  0
  187.3460  176.8160  142.8490 C   0  0  0  0  0  2  0  0  0  0  0  0
  184.0700  179.4980  145.0920 N   0  0  0  0  0  2  0  0  0  0  0  0
  182.3820  178.2530  143.9680 N   0  0  0  0  0  1  0  0  0  0  0  0
  187.4140  178.4670  146.2850 N   0  0  0  0  0  0  0  0  0  0  0  0
  184.6690  178.2810  143.0970 C   0  0  1  0  0  3  0  0  0  0  0  0
  190.0660  176.7820  140.1720 C   0  0  0  0  0  2  0  0  0  0  0  0
  185.1340  179.0310  141.8610 C   0  0  0  0  0  1  0  0  0  0  0  0
  191.1400  177.8460  140.4200 C   0  0  0  0  0  2  0  0  0  0  0  0
  185.7540  178.2500  144.1220 C   0  0  0  0  0  0  0  0  0  0  0  0
  189.1680  177.1240  145.2830 N   0  0  0  0  0  0  0  0  0  0  0  0
  183.5520  179.0940  143.7860 C   0  0  2  0  0  3  0  0  0  0  0  0
  185.3670  178.9570  145.2180 C   0  0  0  0  0  0  0  0  0  0  0  0
  189.8420  176.4510  142.9790 C   0  0  2  0  0  3  0  0  0  0  0  0
  186.9960  177.6040  144.0750 C   0  0  0  0  0  0  0  0  0  0  0  0
  188.7010  177.1220  140.7830 C   0  0  0  0  0  2  0  0  0  0  0  0
  186.1970  179.0780  146.3200 C   0  0  0  0  0  3  0  0  0  0  0  0
  191.2130  177.1440  142.8890 C   0  0  0  0  0  2  0  0  0  0  0  0
  191.2710  178.2950  141.8780 C   0  0  0  0  0  2  0  0  0  0  0  0
  188.7000  177.2430  142.3140 C   0  0  1  0  0  3  0  0  0  0  0  0
  191.8470  175.5780  147.5940 O   0  0  0  0  0  0  0  0  0  0  0  0
  190.0130  177.4590  146.4430 C   0  0  0  0  0  3  0  0  0  0  0  0
  191.5040  177.4160  146.0850 C   0  0  0  0  0  2  0  0  0  0  0  0
  192.0550  176.0030  146.2710 C   0  0  0  0  0  2  0  0  0  0  0  0
  190.4700  175.3330  147.7180 C   0  0  0  0  0  2  0  0  0  0  0  0
  189.7000  176.6560  147.7180 C   0  0  0  0  0  2  0  0  0  0  0  0
  1 12  1  0  0  0  0
  2 12  1  0  0  0  0
  2  6  1  0  0  0  0
  3 16  1  0  0  0  0
  4 14  1  0  0  0  0
  6 18  2  0  0  0  0
  7  9  1  6  0  0  0
  7 13  1  0  0  0  0
  7 11  1  0  0  0  0
  8 10  1  0  0  0  0
  8 17  1  0  0  0  0
 10 20  1  0  0  0  0
 11 14  2  0  0  0  0
 12 23  1  0  0  0  0
 13  5  1  1  0  0  0
 13  4  1  0  0  0  0
 14 18  1  0  0  0  0
 15 19  1  1  0  0  0
 15  1  1  0  0  0  0
 16 11  1  0  0  0  0
 16  2  2  0  0  0  0
 20 19  1  0  0  0  0
 21 17  1  6  0  0  0
 21  3  1  0  0  0  0
 21 15  1  0  0  0  0
 22 26  1  0  0  0  0
 23 27  1  0  0  0  0
 24 25  1  0  0  0  0
 24 23  1  0  0  0  0
 25 22  1  0  0  0  0
 26 27  1  0  0  0  0
M  END
>  <MODEL>
7

>  <REMARK>
 VINA RESULT:      -7.0      2.873      6.522
  Name = 
  1 active torsions:
  status: ('A' for Active; 'I' for Inactive)
    1  A    between atoms: C_9  and  N_15
                            x       y       z     vdW  Elec       q    Type
                         _______ _______ _______ _____ _____    ______ ____

>  <TORSDO>
F 1

$$$$
=
 OpenBabel10262420003D

 27 31  0  0  1  0  0  0  0  0999 V2000
  185.6150  179.2220  138.7690 C   0  0  0  0  0  2  0  0  0  0  0  0
  185.9180  178.3940  141.1560 C   0  0  0  0  0  0  0  0  0  0  0  0
  188.1080  178.4010  139.7840 C   0  0  0  0  0  2  0  0  0  0  0  0
  188.2910  177.6570  144.5120 N   0  0  0  0  0  2  0  0  0  0  0  0
  190.4200  178.7220  144.5280 N   0  0  0  0  0  1  0  0  0  0  0  0
  185.3270  178.2580  142.3870 N   0  0  0  0  0  0  0  0  0  0  0  0
  189.5150  177.8210  142.4400 C   0  0  1  0  0  3  0  0  0  0  0  0
  188.2350  176.7490  136.3460 C   0  0  0  0  0  2  0  0  0  0  0  0
  189.9950  176.5610  141.7400 C   0  0  0  0  0  1  0  0  0  0  0  0
  187.1830  175.6470  136.1890 C   0  0  0  0  0  2  0  0  0  0  0  0
  188.0460  177.9950  142.2420 C   0  0  0  0  0  0  0  0  0  0  0  0
  185.0710  178.6510  140.0070 N   0  0  0  0  0  0  0  0  0  0  0  0
  189.6470  177.6280  143.9660 C   0  0  2  0  0  3  0  0  0  0  0  0
  187.4070  177.8840  143.4370 C   0  0  0  0  0  0  0  0  0  0  0  0
  186.3900  178.1930  137.9420 C   0  0  2  0  0  3  0  0  0  0  0  0
  187.3380  178.2610  141.0610 C   0  0  0  0  0  0  0  0  0  0  0  0
  188.6590  177.0050  137.7960 C   0  0  0  0  0  2  0  0  0  0  0  0
  186.0300  178.0120  143.5270 C   0  0  0  0  0  3  0  0  0  0  0  0
  185.4370  177.2190  137.2270 C   0  0  0  0  0  2  0  0  0  0  0  0
  185.9690  175.7870  137.1140 C   0  0  0  0  0  2  0  0  0  0  0  0
  187.5280  177.4950  138.7130 C   0  0  1  0  0  3  0  0  0  0  0  0
  181.8330  177.4300  138.2950 O   0  0  0  0  0  0  0  0  0  0  0  0
  183.6120  178.6080  140.2120 C   0  0  0  0  0  3  0  0  0  0  0  0
  183.1010  177.1660  140.3180 C   0  0  0  0  0  2  0  0  0  0  0  0
  182.7800  176.6100  138.9300 C   0  0  0  0  0  2  0  0  0  0  0  0
  182.5040  178.6150  137.9470 C   0  0  0  0  0  2  0  0  0  0  0  0
  182.7970  179.4380  139.2030 C   0  0  0  0  0  2  0  0  0  0  0  0
  1 12  1  0  0  0  0
  2  6  1  0  0  0  0
  3 16  1  0  0  0  0
  6 18  2  0  0  0  0
  7  9  1  6  0  0  0
  7 13  1  0  0  0  0
  8 17  1  0  0  0  0
 10  8  1  0  0  0  0
 10 20  1  0  0  0  0
 11  7  1  0  0  0  0
 11 14  2  0  0  0  0
 12 23  1  0  0  0  0
 12  2  1  0  0  0  0
 13  4  1  0  0  0  0
 13  5  1  1  0  0  0
 14 18  1  0  0  0  0
 14  4  1  0  0  0  0
 15 19  1  1  0  0  0
 15 21  1  0  0  0  0
 15  1  1  0  0  0  0
 16  2  2  0  0  0  0
 16 11  1  0  0  0  0
 20 19  1  0  0  0  0
 21 17  1  6  0  0  0
 21  3  1  0  0  0  0
 22 25  1  0  0  0  0
 23 24  1  0  0  0  0
 25 24  1  0  0  0  0
 26 22  1  0  0  0  0
 26 27  1  0  0  0  0
 27 23  1  0  0  0  0
M  END
>  <MODEL>
8

>  <REMARK>
 VINA RESULT:      -6.9      3.039      5.994
  Name = 
  1 active torsions:
  status: ('A' for Active; 'I' for Inactive)
    1  A    between atoms: C_9  and  N_15
                            x       y       z     vdW  Elec       q    Type
                         _______ _______ _______ _____ _____    ______ ____

>  <TORSDO>
F 1

$$$$
=
 OpenBabel10262420003D

 27 31  0  0  1  0  0  0  0  0999 V2000
  187.8320  178.9860  140.5330 C   0  0  0  0  0  2  0  0  0  0  0  0
  185.4560  178.2590  139.9870 C   0  0  0  0  0  0  0  0  0  0  0  0
  185.7120  179.2370  142.3650 C   0  0  0  0  0  2  0  0  0  0  0  0
  181.3290  178.4350  140.6050 N   0  0  0  0  0  2  0  0  0  0  0  0
  180.5530  180.2890  141.8810 N   0  0  0  0  0  1  0  0  0  0  0  0
  184.6040  177.8360  138.9980 N   0  0  0  0  0  0  0  0  0  0  0  0
  182.6530  179.1830  142.4780 C   0  0  1  0  0  3  0  0  0  0  0  0
  188.4350  177.9370  144.7030 C   0  0  0  0  0  2  0  0  0  0  0  0
  182.8620  178.2690  143.6740 C   0  0  0  0  0  1  0  0  0  0  0  0
  188.8580  176.5040  144.3640 C   0  0  0  0  0  2  0  0  0  0  0  0
  183.5000  178.7370  141.3320 C   0  0  0  0  0  0  0  0  0  0  0  0
  186.8840  178.1890  139.7460 N   0  0  0  0  0  0  0  0  0  0  0  0
  181.2150  178.9980  141.9500 C   0  0  2  0  0  3  0  0  0  0  0  0
  182.7040  178.3190  140.3120 C   0  0  0  0  0  0  0  0  0  0  0  0
  188.0600  178.4100  141.9320 C   0  0  2  0  0  3  0  0  0  0  0  0
  184.8960  178.7340  141.2140 C   0  0  0  0  0  0  0  0  0  0  0  0
  187.0060  178.2830  144.2670 C   0  0  0  0  0  2  0  0  0  0  0  0
  183.2480  177.8580  139.1240 C   0  0  0  0  0  3  0  0  0  0  0  0
  188.9550  177.1600  141.8830 C   0  0  0  0  0  2  0  0  0  0  0  0
  188.5940  176.0860  142.9140 C   0  0  0  0  0  2  0  0  0  0  0  0
  186.7690  178.2180  142.7510 C   0  0  1  0  0  3  0  0  0  0  0  0
  189.8130  178.2110  137.2290 O   0  0  0  0  0  0  0  0  0  0  0  0
  187.3350  177.5320  138.5050 C   0  0  0  0  0  3  0  0  0  0  0  0
  188.6340  176.7460  138.7240 C   0  0  0  0  0  2  0  0  0  0  0  0
  189.8470  177.6520  138.5180 C   0  0  0  0  0  2  0  0  0  0  0  0
  188.7810  179.1640  137.2380 C   0  0  0  0  0  2  0  0  0  0  0  0
  187.4210  178.4630  137.2820 C   0  0  0  0  0  2  0  0  0  0  0  0
  2 16  1  0  0  0  0
  4 13  1  0  0  0  0
  6 18  1  0  0  0  0
  6  2  2  0  0  0  0
  7  9  1  1  0  0  0
 10  8  1  0  0  0  0
 11  7  1  0  0  0  0
 12  2  1  0  0  0  0
 12  1  1  0  0  0  0
 13  5  1  6  0  0  0
 13  7  1  0  0  0  0
 14  4  1  0  0  0  0
 14 11  1  0  0  0  0
 15  1  1  6  0  0  0
 15 21  1  0  0  0  0
 16 11  2  0  0  0  0
 16  3  1  0  0  0  0
 17  8  1  0  0  0  0
 18 14  2  0  0  0  0
 19 15  1  0  0  0  0
 19 20  1  0  0  0  0
 20 10  1  0  0  0  0
 21  3  1  6  0  0  0
 21 17  1  0  0  0  0
 22 26  1  0  0  0  0
 22 25  1  0  0  0  0
 23 24  1  0  0  0  0
 23 12  1  0  0  0  0
 25 24  1  0  0  0  0
 26 27  1  0  0  0  0
 27 23  1  0  0  0  0
M  END
>  <MODEL>
9

>  <REMARK>
 VINA RESULT:      -6.5      3.250      6.526
  Name = 
  1 active torsions:
  status: ('A' for Active; 'I' for Inactive)
    1  A    between atoms: C_9  and  N_15
                            x       y       z     vdW  Elec       q    Type
                         _______ _______ _______ _____ _____    ______ ____

>  <TORSDO>
F 1

$$$$
