=
 OpenBabel10262421073D

 32 37  0  0  1  0  0  0  0  0999 V2000
  186.7390  177.8360  144.6540 C   0  0  1  0  0  3  0  0  0  0  0  0
  186.0980  178.2980  142.2760 C   0  0  0  0  0  0  0  0  0  0  0  0
  186.4710  178.5200  145.9880 C   0  0  0  0  0  2  0  0  0  0  0  0
  185.7260  178.2640  143.6260 C   0  0  0  0  0  0  0  0  0  0  0  0
  185.1520  178.5950  141.2860 C   0  0  0  0  0  0  0  0  0  0  0  0
  189.4780  178.3570  138.8010 C   0  0  0  0  0  2  0  0  0  0  0  0
  187.5620  178.1920  141.9110 C   0  0  1  0  0  3  0  0  0  0  0  0
  187.1030  178.4700  138.0700 C   0  0  0  0  0  2  0  0  0  0  0  0
  186.7410  178.2580  139.5130 C   0  0  0  0  0  0  0  0  0  0  0  0
  184.4000  178.5590  143.9990 C   0  0  0  0  0  0  0  0  0  0  0  0
  185.5670  178.6560  139.9120 N   0  0  0  0  0  0  0  0  0  0  0  0
  183.4610  178.8660  143.0080 C   0  0  0  0  0  3  0  0  0  0  0  0
  184.0140  178.7250  145.4450 C   0  0  0  0  0  2  0  0  0  0  0  0
  188.2610  177.3950  142.8450 O   0  0  0  0  0  0  0  0  0  0  0  0
  188.1690  178.0320  144.1000 C   0  0  2  0  0  3  0  0  0  0  0  0
  187.7040  177.6070  140.5020 C   0  0  1  0  0  3  0  0  0  0  0  0
  183.8240  178.8700  141.6540 C   0  0  0  0  0  0  0  0  0  0  0  0
  185.0530  178.1620  146.4240 C   0  0  0  0  0  2  0  0  0  0  0  0
  188.4930  177.9530  137.7210 C   0  0  0  0  0  2  0  0  0  0  0  0
  189.1780  177.5580  140.0640 C   0  0  0  0  0  2  0  0  0  0  0  0
  191.6920  177.1130  144.8810 C   0  0  2  0  0  3  0  0  0  0  0  0
  191.9130  177.0170  148.3150 O   0  0  0  0  0  0  0  0  0  0  0  0
  191.7250  176.2330  143.6320 C   0  0  0  0  0  1  0  0  0  0  0  0
  189.7210  177.2930  147.4920 C   0  0  0  0  0  3  0  0  0  0  0  0
  189.2940  177.5020  145.0180 C   0  0  2  0  0  3  0  0  0  0  0  0
  191.6090  176.1920  146.1050 C   0  0  0  0  0  2  0  0  0  0  0  0
  188.8950  177.5490  146.4720 C   0  0  0  0  0  3  0  0  0  0  0  0
  190.6220  178.1330  144.8370 N   0  0  0  0  0  0  0  0  0  0  0  0
  190.7560  178.9150  143.6050 C   0  0  0  0  0  1  0  0  0  0  0  0
  191.1240  176.8690  147.3460 C   0  0  0  0  0  0  0  0  0  0  0  0
  182.7870  179.1820  140.6260 C   0  0  0  0  0  2  0  0  0  0  0  0
  181.4750  178.5130  140.9880 C   0  0  0  0  0  1  0  0  0  0  0  0
  1  3  1  1  0  0  0
  2  4  1  0  0  0  0
  3 18  1  0  0  0  0
  4 10  2  0  0  0  0
  4  1  1  0  0  0  0
  5 17  1  0  0  0  0
  5  2  2  0  0  0  0
  6 20  1  0  0  0  0
  7  2  1  1  0  0  0
  7 14  1  0  0  0  0
  8  9  1  0  0  0  0
  9 11  2  0  0  0  0
  9 16  1  0  0  0  0
 10 13  1  0  0  0  0
 11  5  1  0  0  0  0
 12 10  1  0  0  0  0
 13 18  1  0  0  0  0
 15 14  1  6  0  0  0
 15  1  1  0  0  0  0
 15 25  1  0  0  0  0
 16 20  1  6  0  0  0
 16  7  1  0  0  0  0
 17 12  2  0  0  0  0
 19  8  1  0  0  0  0
 19  6  1  0  0  0  0
 21 23  1  6  0  0  0
 21 26  1  0  0  0  0
 25 27  1  1  0  0  0
 26 30  1  0  0  0  0
 27 24  2  0  0  0  0
 28 21  1  0  0  0  0
 28 25  1  0  0  0  0
 29 28  1  0  0  0  0
 30 24  1  0  0  0  0
 30 22  2  0  0  0  0
 31 32  1  0  0  0  0
 31 17  1  0  0  0  0
M  END
>  <MODEL>
1

>  <REMARK>
 VINA RESULT:     -11.7      0.000      0.000
  Name = 
  2 active torsions:
  status: ('A' for Active; 'I' for Inactive)
    1  A    between atoms: C_13  and  C_29
    2  A    between atoms: C_16  and  C_27
                            x       y       z     vdW  Elec       q    Type
                         _______ _______ _______ _____ _____    ______ ____

>  <TORSDO>
F 2

$$$$
=
 OpenBabel10262421073D

 32 37  0  0  1  0  0  0  0  0999 V2000
  184.9940  178.6930  143.8770 C   0  0  1  0  0  3  0  0  0  0  0  0
  187.2810  178.0270  143.0990 C   0  0  0  0  0  0  0  0  0  0  0  0
  184.0330  178.1810  144.9420 C   0  0  0  0  0  2  0  0  0  0  0  0
  186.3980  178.2360  144.1670 C   0  0  0  0  0  0  0  0  0  0  0  0
  188.6220  177.6990  143.3390 C   0  0  0  0  0  0  0  0  0  0  0  0
  188.1500  177.3290  138.3820 C   0  0  0  0  0  2  0  0  0  0  0  0
  186.7350  177.9790  141.6900 C   0  0  1  0  0  3  0  0  0  0  0  0
  190.1160  177.3230  139.9050 C   0  0  0  0  0  2  0  0  0  0  0  0
  189.1600  177.7180  140.9960 C   0  0  0  0  0  0  0  0  0  0  0  0
  186.8500  178.0860  145.4920 C   0  0  0  0  0  0  0  0  0  0  0  0
  189.4970  177.4570  142.2260 N   0  0  0  0  0  0  0  0  0  0  0  0
  188.1870  177.7480  145.7280 C   0  0  0  0  0  3  0  0  0  0  0  0
  185.8880  178.1090  146.6520 C   0  0  0  0  0  2  0  0  0  0  0  0
  185.6050  178.8160  141.5540 O   0  0  0  0  0  0  0  0  0  0  0  0
  184.6080  178.3280  142.4250 C   0  0  2  0  0  3  0  0  0  0  0  0
  187.8250  178.3950  140.6970 C   0  0  1  0  0  3  0  0  0  0  0  0
  189.0790  177.5690  144.6620 C   0  0  0  0  0  0  0  0  0  0  0  0
  184.5140  178.6920  146.2960 C   0  0  0  0  0  2  0  0  0  0  0  0
  189.6170  177.6890  138.5130 C   0  0  0  0  0  2  0  0  0  0  0  0
  187.3310  178.2810  139.2440 C   0  0  0  0  0  2  0  0  0  0  0  0
  181.9440  178.9870  139.9090 C   0  0  2  0  0  3  0  0  0  0  0  0
  179.0570  179.5420  141.7000 O   0  0  0  0  0  0  0  0  0  0  0  0
  182.9760  179.6750  139.0160 C   0  0  0  0  0  1  0  0  0  0  0  0
  181.0020  179.3760  143.0230 C   0  0  0  0  0  3  0  0  0  0  0  0
  183.2320  178.8650  141.9690 C   0  0  2  0  0  3  0  0  0  0  0  0
  181.0580  180.0740  140.5310 C   0  0  0  0  0  2  0  0  0  0  0  0
  182.2970  179.0630  143.1360 C   0  0  0  0  0  3  0  0  0  0  0  0
  182.5580  178.0840  140.9060 N   0  0  0  0  0  0  0  0  0  0  0  0
  183.4270  177.1270  140.2170 C   0  0  0  0  0  1  0  0  0  0  0  0
  180.3110  179.6310  141.7470 C   0  0  0  0  0  0  0  0  0  0  0  0
  190.5030  177.2300  144.9560 C   0  0  0  0  0  2  0  0  0  0  0  0
  190.6710  176.9140  146.4300 C   0  0  0  0  0  1  0  0  0  0  0  0
  1  4  1  0  0  0  0
  1  3  1  1  0  0  0
  2  5  2  0  0  0  0
  2  4  1  0  0  0  0
  3 18  1  0  0  0  0
  4 10  2  0  0  0  0
  5 17  1  0  0  0  0
  6 19  1  0  0  0  0
  6 20  1  0  0  0  0
  7 14  1  1  0  0  0
  7  2  1  0  0  0  0
  8  9  1  0  0  0  0
  9 11  2  0  0  0  0
 10 12  1  0  0  0  0
 10 13  1  0  0  0  0
 11  5  1  0  0  0  0
 15 14  1  6  0  0  0
 15  1  1  0  0  0  0
 16 20  1  6  0  0  0
 16  9  1  0  0  0  0
 16  7  1  0  0  0  0
 17 31  1  0  0  0  0
 17 12  2  0  0  0  0
 18 13  1  0  0  0  0
 19  8  1  0  0  0  0
 21 23  1  1  0  0  0
 21 26  1  0  0  0  0
 21 28  1  0  0  0  0
 22 30  2  0  0  0  0
 24 27  2  0  0  0  0
 25 15  1  0  0  0  0
 25 27  1  1  0  0  0
 26 30  1  0  0  0  0
 28 25  1  0  0  0  0
 29 28  1  0  0  0  0
 30 24  1  0  0  0  0
 31 32  1  0  0  0  0
M  END
>  <MODEL>
2

>  <REMARK>
 VINA RESULT:     -10.5      2.225      6.873
  Name = 
  2 active torsions:
  status: ('A' for Active; 'I' for Inactive)
    1  A    between atoms: C_13  and  C_29
    2  A    between atoms: C_16  and  C_27
                            x       y       z     vdW  Elec       q    Type
                         _______ _______ _______ _____ _____    ______ ____

>  <TORSDO>
F 2

$$$$
=
 OpenBabel10262421073D

 32 37  0  0  1  0  0  0  0  0999 V2000
  190.0040  176.9710  142.9680 C   0  0  1  0  0  3  0  0  0  0  0  0
  187.7050  177.7210  143.6220 C   0  0  0  0  0  0  0  0  0  0  0  0
  191.4140  177.2960  143.4460 C   0  0  0  0  0  2  0  0  0  0  0  0
  188.9910  177.3360  144.0210 C   0  0  0  0  0  0  0  0  0  0  0  0
  186.7100  177.9700  144.5780 C   0  0  0  0  0  0  0  0  0  0  0  0
  184.5880  179.2710  140.2480 C   0  0  0  0  0  2  0  0  0  0  0  0
  187.4490  178.0450  142.1670 C   0  0  1  0  0  3  0  0  0  0  0  0
  183.6960  178.9490  142.5480 C   0  0  0  0  0  2  0  0  0  0  0  0
  185.0430  178.3780  142.8950 C   0  0  0  0  0  0  0  0  0  0  0  0
  189.3010  177.2250  145.3900 C   0  0  0  0  0  0  0  0  0  0  0  0
  185.4080  178.3960  144.1440 N   0  0  0  0  0  0  0  0  0  0  0  0
  188.3080  177.4840  146.3410 C   0  0  0  0  0  3  0  0  0  0  0  0
  190.7170  177.0060  145.8550 C   0  0  0  0  0  2  0  0  0  0  0  0
  188.2770  177.2720  141.3230 O   0  0  0  0  0  0  0  0  0  0  0  0
  189.6150  177.6100  141.6160 C   0  0  2  0  0  3  0  0  0  0  0  0
  185.9740  177.7980  141.8330 C   0  0  1  0  0  3  0  0  0  0  0  0
  187.0110  177.8400  145.9440 C   0  0  0  0  0  0  0  0  0  0  0  0
  191.6600  176.5290  144.7420 C   0  0  0  0  0  2  0  0  0  0  0  0
  183.3750  178.8610  141.0610 C   0  0  0  0  0  2  0  0  0  0  0  0
  185.6560  178.1920  140.3800 C   0  0  0  0  0  2  0  0  0  0  0  0
  190.3060  176.9780  138.0110 C   0  0  2  0  0  3  0  0  0  0  0  0
  193.7300  177.0260  137.6750 O   0  0  0  0  0  0  0  0  0  0  0  0
  189.0870  176.0580  137.9530 C   0  0  0  0  0  1  0  0  0  0  0  0
  192.9740  177.1120  139.9070 C   0  0  0  0  0  3  0  0  0  0  0  0
  190.5110  177.1980  140.4260 C   0  0  2  0  0  3  0  0  0  0  0  0
  191.5630  176.1000  137.9870 C   0  0  0  0  0  2  0  0  0  0  0  0
  191.9750  177.2700  140.7810 C   0  0  0  0  0  3  0  0  0  0  0  0
  190.2620  177.9160  139.1550 N   0  0  0  0  0  0  0  0  0  0  0  0
  189.0010  178.6600  139.1180 C   0  0  0  0  0  1  0  0  0  0  0  0
  192.7950  176.7860  138.4810 C   0  0  0  0  0  0  0  0  0  0  0  0
  185.9750  178.0870  146.9900 C   0  0  0  0  0  2  0  0  0  0  0  0
  186.0280  179.5320  147.4460 C   0  0  0  0  0  1  0  0  0  0  0  0
  1  3  1  1  0  0  0
  1  4  1  0  0  0  0
  2  4  2  0  0  0  0
  2  5  1  0  0  0  0
  3 18  1  0  0  0  0
  4 10  1  0  0  0  0
  5 17  2  0  0  0  0
  6 20  1  0  0  0  0
  6 19  1  0  0  0  0
  7 14  1  6  0  0  0
  7  2  1  0  0  0  0
  8  9  1  0  0  0  0
  9 11  2  0  0  0  0
 10 13  1  0  0  0  0
 10 12  2  0  0  0  0
 11  5  1  0  0  0  0
 15 14  1  6  0  0  0
 15  1  1  0  0  0  0
 16 20  1  6  0  0  0
 16  7  1  0  0  0  0
 16  9  1  0  0  0  0
 17 12  1  0  0  0  0
 17 31  1  0  0  0  0
 18 13  1  0  0  0  0
 19  8  1  0  0  0  0
 21 23  1  1  0  0  0
 21 28  1  0  0  0  0
 22 30  2  0  0  0  0
 24 27  2  0  0  0  0
 25 27  1  1  0  0  0
 25 15  1  0  0  0  0
 26 21  1  0  0  0  0
 26 30  1  0  0  0  0
 28 25  1  0  0  0  0
 29 28  1  0  0  0  0
 30 24  1  0  0  0  0
 31 32  1  0  0  0  0
M  END
>  <MODEL>
3

>  <REMARK>
 VINA RESULT:     -10.0      2.368      5.814
  Name = 
  2 active torsions:
  status: ('A' for Active; 'I' for Inactive)
    1  A    between atoms: C_13  and  C_29
    2  A    between atoms: C_16  and  C_27
                            x       y       z     vdW  Elec       q    Type
                         _______ _______ _______ _____ _____    ______ ____

>  <TORSDO>
F 2

$$$$
=
 OpenBabel10262421073D

 32 37  0  0  1  0  0  0  0  0999 V2000
  189.8460  176.7340  142.6270 C   0  0  1  0  0  3  0  0  0  0  0  0
  188.0290  177.5340  144.1550 C   0  0  0  0  0  0  0  0  0  0  0  0
  191.3460  176.9800  142.5250 C   0  0  0  0  0  2  0  0  0  0  0  0
  189.3460  177.0800  144.0040 C   0  0  0  0  0  0  0  0  0  0  0  0
  187.5000  177.7690  145.4310 C   0  0  0  0  0  0  0  0  0  0  0  0
  183.9350  179.3780  142.3260 C   0  0  0  0  0  2  0  0  0  0  0  0
  187.2450  177.9440  142.9280 C   0  0  1  0  0  3  0  0  0  0  0  0
  183.9930  178.9680  144.7790 C   0  0  0  0  0  2  0  0  0  0  0  0
  185.3350  178.3290  144.5510 C   0  0  0  0  0  0  0  0  0  0  0  0
  190.1570  176.8850  145.1370 C   0  0  0  0  0  0  0  0  0  0  0  0
  186.1590  178.2670  145.5570 N   0  0  0  0  0  0  0  0  0  0  0  0
  189.6290  177.1300  146.4100 C   0  0  0  0  0  3  0  0  0  0  0  0
  191.6280  176.5880  145.0030 C   0  0  0  0  0  2  0  0  0  0  0  0
  187.6340  177.1870  141.8010 O   0  0  0  0  0  0  0  0  0  0  0  0
  188.9970  177.4580  141.5580 C   0  0  2  0  0  3  0  0  0  0  0  0
  185.7450  177.7710  143.1900 C   0  0  1  0  0  3  0  0  0  0  0  0
  188.3030  177.5550  146.5660 C   0  0  0  0  0  0  0  0  0  0  0  0
  192.0350  176.1360  143.5940 C   0  0  0  0  0  2  0  0  0  0  0  0
  183.1140  178.9710  143.5350 C   0  0  0  0  0  2  0  0  0  0  0  0
  184.9090  178.2540  141.9920 C   0  0  0  0  0  2  0  0  0  0  0  0
  188.6260  177.7200  137.8620 C   0  0  2  0  0  3  0  0  0  0  0  0
  191.4790  176.3430  136.5170 O   0  0  0  0  0  0  0  0  0  0  0  0
  187.1200  177.5020  138.0110 C   0  0  0  0  0  1  0  0  0  0  0  0
  191.2770  176.0690  138.8500 C   0  0  0  0  0  3  0  0  0  0  0  0
  189.3350  177.0760  140.0980 C   0  0  2  0  0  3  0  0  0  0  0  0
  189.2350  176.4300  137.3000 C   0  0  0  0  0  2  0  0  0  0  0  0
  190.6680  176.3780  140.0000 C   0  0  0  0  0  3  0  0  0  0  0  0
  189.2660  178.1800  139.1130 N   0  0  0  0  0  0  0  0  0  0  0  0
  188.5740  179.3780  139.5950 C   0  0  0  0  0  1  0  0  0  0  0  0
  190.7100  176.3090  137.5120 C   0  0  0  0  0  0  0  0  0  0  0  0
  187.7710  177.7860  147.9410 C   0  0  0  0  0  2  0  0  0  0  0  0
  188.8830  178.2530  148.8590 C   0  0  0  0  0  1  0  0  0  0  0  0
  1  3  1  1  0  0  0
  1  4  1  0  0  0  0
  2  5  1  0  0  0  0
  3 18  1  0  0  0  0
  4  2  2  0  0  0  0
  4 10  1  0  0  0  0
  5 11  1  0  0  0  0
  5 17  2  0  0  0  0
  6 19  1  0  0  0  0
  7 14  1  6  0  0  0
  7 16  1  0  0  0  0
  7  2  1  0  0  0  0
  9  8  1  0  0  0  0
  9 11  2  0  0  0  0
 10 12  2  0  0  0  0
 12 17  1  0  0  0  0
 13 10  1  0  0  0  0
 15 14  1  1  0  0  0
 15  1  1  0  0  0  0
 16 20  1  6  0  0  0
 16  9  1  0  0  0  0
 17 31  1  0  0  0  0
 18 13  1  0  0  0  0
 19  8  1  0  0  0  0
 20  6  1  0  0  0  0
 21 23  1  1  0  0  0
 21 28  1  0  0  0  0
 22 30  2  0  0  0  0
 24 27  2  0  0  0  0
 25 27  1  1  0  0  0
 25 15  1  0  0  0  0
 26 30  1  0  0  0  0
 26 21  1  0  0  0  0
 28 29  1  0  0  0  0
 28 25  1  0  0  0  0
 30 24  1  0  0  0  0
 31 32  1  0  0  0  0
M  END
>  <MODEL>
4

>  <REMARK>
 VINA RESULT:     -10.0      2.131      6.756
  Name = 
  2 active torsions:
  status: ('A' for Active; 'I' for Inactive)
    1  A    between atoms: C_13  and  C_29
    2  A    between atoms: C_16  and  C_27
                            x       y       z     vdW  Elec       q    Type
                         _______ _______ _______ _____ _____    ______ ____

>  <TORSDO>
F 2

$$$$
=
 OpenBabel10262421073D

 32 37  0  0  1  0  0  0  0  0999 V2000
  184.0640  178.8890  141.7420 C   0  0  1  0  0  3  0  0  0  0  0  0
  186.4160  178.2240  142.2940 C   0  0  0  0  0  0  0  0  0  0  0  0
  182.6880  178.4770  142.2490 C   0  0  0  0  0  2  0  0  0  0  0  0
  185.1270  178.5310  142.7470 C   0  0  0  0  0  0  0  0  0  0  0  0
  187.4520  177.9850  143.2080 C   0  0  0  0  0  0  0  0  0  0  0  0
  189.4920  176.9670  138.7650 C   0  0  0  0  0  2  0  0  0  0  0  0
  186.6410  177.9740  140.8200 C   0  0  1  0  0  3  0  0  0  0  0  0
  190.4420  177.2360  141.0480 C   0  0  0  0  0  2  0  0  0  0  0  0
  189.0820  177.7260  141.4590 C   0  0  0  0  0  0  0  0  0  0  0  0
  184.8570  178.5700  144.1290 C   0  0  0  0  0  0  0  0  0  0  0  0
  188.7570  177.6390  142.7170 N   0  0  0  0  0  0  0  0  0  0  0  0
  185.8910  178.3190  145.0380 C   0  0  0  0  0  3  0  0  0  0  0  0
  183.4480  178.7010  144.6450 C   0  0  0  0  0  2  0  0  0  0  0  0
  185.7500  178.7400  140.0340 O   0  0  0  0  0  0  0  0  0  0  0  0
  184.4400  178.3260  140.3530 C   0  0  2  0  0  3  0  0  0  0  0  0
  188.0910  178.3050  140.4520 C   0  0  1  0  0  3  0  0  0  0  0  0
  187.1890  178.0430  144.5870 C   0  0  0  0  0  0  0  0  0  0  0  0
  182.4480  179.1770  143.5830 C   0  0  0  0  0  2  0  0  0  0  0  0
  190.7100  177.4000  139.5570 C   0  0  0  0  0  2  0  0  0  0  0  0
  188.3790  177.9870  138.9750 C   0  0  0  0  0  2  0  0  0  0  0  0
  182.2870  177.6680  137.3870 C   0  0  2  0  0  3  0  0  0  0  0  0
  180.2010  180.3910  137.0990 O   0  0  0  0  0  0  0  0  0  0  0  0
  183.4570  176.9510  136.7130 C   0  0  0  0  0  1  0  0  0  0  0  0
  181.8930  180.6330  138.7240 C   0  0  0  0  0  3  0  0  0  0  0  0
  183.4870  178.7440  139.2090 C   0  0  2  0  0  3  0  0  0  0  0  0
  182.1100  179.0290  136.7030 C   0  0  0  0  0  2  0  0  0  0  0  0
  182.8640  180.0920  139.4680 C   0  0  0  0  0  3  0  0  0  0  0  0
  182.4380  177.7600  138.8550 N   0  0  0  0  0  0  0  0  0  0  0  0
  182.6600  176.4180  139.4000 C   0  0  0  0  0  1  0  0  0  0  0  0
  181.3320  180.0190  137.5080 C   0  0  0  0  0  0  0  0  0  0  0  0
  188.2690  177.8030  145.5890 C   0  0  0  0  0  2  0  0  0  0  0  0
  187.6670  177.5760  146.9620 C   0  0  0  0  0  1  0  0  0  0  0  0
  1  3  1  1  0  0  0
  1  4  1  0  0  0  0
  2  4  2  0  0  0  0
  2  5  1  0  0  0  0
  3 18  1  0  0  0  0
  4 10  1  0  0  0  0
  5 17  2  0  0  0  0
  6 20  1  0  0  0  0
  6 19  1  0  0  0  0
  7 14  1  6  0  0  0
  7  2  1  0  0  0  0
  8  9  1  0  0  0  0
  9 11  2  0  0  0  0
 10 13  1  0  0  0  0
 10 12  2  0  0  0  0
 11  5  1  0  0  0  0
 15 14  1  6  0  0  0
 15  1  1  0  0  0  0
 16 20  1  6  0  0  0
 16  7  1  0  0  0  0
 16  9  1  0  0  0  0
 17 12  1  0  0  0  0
 17 31  1  0  0  0  0
 18 13  1  0  0  0  0
 19  8  1  0  0  0  0
 21 23  1  6  0  0  0
 21 28  1  0  0  0  0
 22 30  2  0  0  0  0
 24 27  2  0  0  0  0
 25 27  1  1  0  0  0
 25 15  1  0  0  0  0
 26 21  1  0  0  0  0
 26 30  1  0  0  0  0
 28 25  1  0  0  0  0
 28 29  1  0  0  0  0
 30 24  1  0  0  0  0
 31 32  1  0  0  0  0
M  END
>  <MODEL>
5

>  <REMARK>
 VINA RESULT:     -10.0      2.775      7.443
  Name = 
  2 active torsions:
  status: ('A' for Active; 'I' for Inactive)
    1  A    between atoms: C_13  and  C_29
    2  A    between atoms: C_16  and  C_27
                            x       y       z     vdW  Elec       q    Type
                         _______ _______ _______ _____ _____    ______ ____

>  <TORSDO>
F 2

$$$$
=
 OpenBabel10262421073D

 32 37  0  0  1  0  0  0  0  0999 V2000
  186.1630  178.1210  144.4930 C   0  0  1  0  0  3  0  0  0  0  0  0
  188.4900  177.6270  143.7060 C   0  0  0  0  0  0  0  0  0  0  0  0
  185.2600  177.5620  145.5840 C   0  0  0  0  0  2  0  0  0  0  0  0
  187.6040  177.7930  144.7790 C   0  0  0  0  0  0  0  0  0  0  0  0
  189.8570  177.4200  143.9400 C   0  0  0  0  0  0  0  0  0  0  0  0
  189.3690  176.8630  139.0010 C   0  0  0  0  0  2  0  0  0  0  0  0
  187.9360  177.4900  142.3060 C   0  0  1  0  0  3  0  0  0  0  0  0
  191.3430  177.0680  140.5000 C   0  0  0  0  0  2  0  0  0  0  0  0
  190.3680  177.4130  141.5910 C   0  0  0  0  0  0  0  0  0  0  0  0
  188.0790  177.7210  146.1020 C   0  0  0  0  0  0  0  0  0  0  0  0
  190.7380  177.2200  142.8230 N   0  0  0  0  0  0  0  0  0  0  0  0
  189.4430  177.5040  146.3310 C   0  0  0  0  0  3  0  0  0  0  0  0
  187.1310  177.6980  147.2720 C   0  0  0  0  0  2  0  0  0  0  0  0
  186.7390  178.2250  142.1600 O   0  0  0  0  0  0  0  0  0  0  0  0
  185.7950  177.6810  143.0570 C   0  0  2  0  0  3  0  0  0  0  0  0
  188.9780  177.9670  141.2880 C   0  0  1  0  0  3  0  0  0  0  0  0
  190.3370  177.3690  145.2600 C   0  0  0  0  0  0  0  0  0  0  0  0
  185.7090  178.1530  146.9170 C   0  0  0  0  0  2  0  0  0  0  0  0
  190.8020  177.3490  139.1040 C   0  0  0  0  0  2  0  0  0  0  0  0
  188.4800  177.7680  139.8450 C   0  0  0  0  0  2  0  0  0  0  0  0
  182.5780  179.5270  143.3890 C   0  0  2  0  0  3  0  0  0  0  0  0
  181.1490  179.5220  140.2580 O   0  0  0  0  0  0  0  0  0  0  0  0
  182.4190  178.9680  144.8030 C   0  0  0  0  0  1  0  0  0  0  0  0
  183.0760  178.1750  140.4470 C   0  0  0  0  0  3  0  0  0  0  0  0
  184.3740  178.0870  142.6030 C   0  0  2  0  0  3  0  0  0  0  0  0
  181.5910  178.7890  142.4770 C   0  0  0  0  0  2  0  0  0  0  0  0
  184.1540  177.7950  141.1400 C   0  0  0  0  0  3  0  0  0  0  0  0
  183.9760  179.4800  142.9070 N   0  0  0  0  0  0  0  0  0  0  0  0
  184.8400  180.1580  143.8760 C   0  0  0  0  0  1  0  0  0  0  0  0
  181.9180  178.8830  141.0210 C   0  0  0  0  0  0  0  0  0  0  0  0
  191.7870  177.1590  145.5460 C   0  0  0  0  0  2  0  0  0  0  0  0
  191.9600  176.0840  146.6010 C   0  0  0  0  0  1  0  0  0  0  0  0
  1  4  1  0  0  0  0
  1  3  1  1  0  0  0
  2  5  2  0  0  0  0
  2  4  1  0  0  0  0
  3 18  1  0  0  0  0
  4 10  2  0  0  0  0
  5 17  1  0  0  0  0
  6 19  1  0  0  0  0
  6 20  1  0  0  0  0
  7 14  1  1  0  0  0
  7  2  1  0  0  0  0
  8  9  1  0  0  0  0
  9 11  2  0  0  0  0
 10 12  1  0  0  0  0
 10 13  1  0  0  0  0
 11  5  1  0  0  0  0
 15 14  1  6  0  0  0
 15  1  1  0  0  0  0
 16 20  1  6  0  0  0
 16  9  1  0  0  0  0
 16  7  1  0  0  0  0
 17 31  1  0  0  0  0
 17 12  2  0  0  0  0
 18 13  1  0  0  0  0
 19  8  1  0  0  0  0
 21 23  1  1  0  0  0
 22 30  2  0  0  0  0
 24 30  1  0  0  0  0
 24 27  2  0  0  0  0
 25 27  1  6  0  0  0
 25 28  1  0  0  0  0
 25 15  1  0  0  0  0
 26 21  1  0  0  0  0
 28 21  1  0  0  0  0
 28 29  1  0  0  0  0
 30 26  1  0  0  0  0
 31 32  1  0  0  0  0
M  END
>  <MODEL>
6

>  <REMARK>
 VINA RESULT:      -9.7      2.039      6.693
  Name = 
  2 active torsions:
  status: ('A' for Active; 'I' for Inactive)
    1  A    between atoms: C_13  and  C_29
    2  A    between atoms: C_16  and  C_27
                            x       y       z     vdW  Elec       q    Type
                         _______ _______ _______ _____ _____    ______ ____

>  <TORSDO>
F 2

$$$$
=
 OpenBabel10262421073D

 32 37  0  0  1  0  0  0  0  0999 V2000
  189.6180  177.6010  142.2930 C   0  0  1  0  0  3  0  0  0  0  0  0
  187.8930  178.0800  140.5400 C   0  0  0  0  0  0  0  0  0  0  0  0
  190.7590  176.6010  142.4280 C   0  0  0  0  0  2  0  0  0  0  0  0
  189.2210  177.7600  140.8490 C   0  0  0  0  0  0  0  0  0  0  0  0
  187.5140  178.3340  139.2140 C   0  0  0  0  0  0  0  0  0  0  0  0
  183.2080  178.3980  141.7430 C   0  0  0  0  0  2  0  0  0  0  0  0
  186.8370  177.9730  141.6170 C   0  0  1  0  0  3  0  0  0  0  0  0
  183.8260  179.0530  139.4240 C   0  0  0  0  0  2  0  0  0  0  0  0
  185.2560  178.8640  139.8460 C   0  0  0  0  0  0  0  0  0  0  0  0
  190.1790  177.6600  139.8220 C   0  0  0  0  0  0  0  0  0  0  0  0
  186.1390  178.6280  138.9200 N   0  0  0  0  0  0  0  0  0  0  0  0
  189.7950  177.9030  138.4990 C   0  0  0  0  0  3  0  0  0  0  0  0
  191.5620  177.1270  140.0940 C   0  0  0  0  0  2  0  0  0  0  0  0
  187.3810  178.2530  142.8900 O   0  0  0  0  0  0  0  0  0  0  0  0
  188.3720  177.2830  143.1520 C   0  0  2  0  0  3  0  0  0  0  0  0
  185.6840  178.9340  141.3100 C   0  0  1  0  0  3  0  0  0  0  0  0
  188.4730  178.2540  138.1900 C   0  0  0  0  0  0  0  0  0  0  0  0
  191.9270  177.1030  141.5840 C   0  0  0  0  0  2  0  0  0  0  0  0
  182.8900  179.3340  140.5930 C   0  0  0  0  0  2  0  0  0  0  0  0
  184.5510  178.7940  142.3430 C   0  0  0  0  0  2  0  0  0  0  0  0
  190.4850  177.6560  146.1950 C   0  0  2  0  0  3  0  0  0  0  0  0
  188.3040  177.8830  148.8480 O   0  0  0  0  0  0  0  0  0  0  0  0
  191.5390  176.7530  145.5570 C   0  0  0  0  0  1  0  0  0  0  0  0
  187.2780  177.3490  146.7920 C   0  0  0  0  0  3  0  0  0  0  0  0
  188.6350  177.2280  144.6740 C   0  0  2  0  0  3  0  0  0  0  0  0
  189.7700  176.8500  147.2870 C   0  0  0  0  0  2  0  0  0  0  0  0
  187.3490  177.2410  145.4620 C   0  0  0  0  0  3  0  0  0  0  0  0
  189.5640  178.2530  145.2030 N   0  0  0  0  0  0  0  0  0  0  0  0
  190.3470  178.9460  144.1770 C   0  0  0  0  0  1  0  0  0  0  0  0
  188.4450  177.4110  147.6900 C   0  0  0  0  0  0  0  0  0  0  0  0
  188.1080  178.5270  136.7680 C   0  0  0  0  0  2  0  0  0  0  0  0
  189.0560  177.7960  135.8370 C   0  0  0  0  0  1  0  0  0  0  0  0
  1  3  1  6  0  0  0
  1 15  1  0  0  0  0
  2  4  1  0  0  0  0
  4  1  1  0  0  0  0
  5  2  2  0  0  0  0
  6 20  1  0  0  0  0
  7  2  1  6  0  0  0
  7 14  1  0  0  0  0
  8  9  1  0  0  0  0
  8 19  1  0  0  0  0
  9 16  1  0  0  0  0
 10 13  1  0  0  0  0
 10  4  2  0  0  0  0
 11  5  1  0  0  0  0
 11  9  2  0  0  0  0
 12 10  1  0  0  0  0
 13 18  1  0  0  0  0
 15 14  1  1  0  0  0
 15 25  1  0  0  0  0
 16  7  1  0  0  0  0
 16 20  1  1  0  0  0
 17 12  2  0  0  0  0
 17  5  1  0  0  0  0
 18  3  1  0  0  0  0
 19  6  1  0  0  0  0
 21 23  1  6  0  0  0
 21 26  1  0  0  0  0
 24 30  1  0  0  0  0
 25 28  1  0  0  0  0
 25 27  1  1  0  0  0
 26 30  1  0  0  0  0
 27 24  2  0  0  0  0
 28 21  1  0  0  0  0
 29 28  1  0  0  0  0
 30 22  2  0  0  0  0
 31 17  1  0  0  0  0
 32 31  1  0  0  0  0
M  END
>  <MODEL>
7

>  <REMARK>
 VINA RESULT:      -9.5      1.424      4.716
  Name = 
  2 active torsions:
  status: ('A' for Active; 'I' for Inactive)
    1  A    between atoms: C_13  and  C_29
    2  A    between atoms: C_16  and  C_27
                            x       y       z     vdW  Elec       q    Type
                         _______ _______ _______ _____ _____    ______ ____

>  <TORSDO>
F 2

$$$$
=
 OpenBabel10262421073D

 32 37  0  0  1  0  0  0  0  0999 V2000
  188.7960  177.4730  140.6840 C   0  0  1  0  0  3  0  0  0  0  0  0
  187.9350  177.8880  143.0000 C   0  0  0  0  0  0  0  0  0  0  0  0
  190.0310  177.9090  139.9060 C   0  0  0  0  0  2  0  0  0  0  0  0
  189.0260  177.6150  142.1650 C   0  0  0  0  0  0  0  0  0  0  0  0
  188.0980  177.9260  144.3920 C   0  0  0  0  0  0  0  0  0  0  0  0
  183.3780  179.3930  143.6800 C   0  0  0  0  0  2  0  0  0  0  0  0
  186.6240  178.3200  142.3840 C   0  0  1  0  0  3  0  0  0  0  0  0
  184.6680  178.7480  145.7060 C   0  0  0  0  0  2  0  0  0  0  0  0
  185.7530  178.3040  144.7650 C   0  0  0  0  0  0  0  0  0  0  0  0
  190.3030  177.4060  142.7210 C   0  0  0  0  0  0  0  0  0  0  0  0
  186.9700  178.2410  145.2240 N   0  0  0  0  0  0  0  0  0  0  0  0
  190.4640  177.4560  144.1100 C   0  0  0  0  0  3  0  0  0  0  0  0
  191.5270  177.3060  141.8480 C   0  0  0  0  0  2  0  0  0  0  0  0
  186.4440  177.7340  141.1110 O   0  0  0  0  0  0  0  0  0  0  0  0
  187.4890  178.1930  140.2810 C   0  0  2  0  0  3  0  0  0  0  0  0
  185.4640  177.9400  143.3110 C   0  0  1  0  0  3  0  0  0  0  0  0
  189.3670  177.6980  144.9500 C   0  0  0  0  0  0  0  0  0  0  0  0
  191.2060  177.0520  140.3700 C   0  0  0  0  0  2  0  0  0  0  0  0
  183.2890  178.7700  145.0600 C   0  0  0  0  0  2  0  0  0  0  0  0
  184.1180  178.4360  142.7540 C   0  0  0  0  0  2  0  0  0  0  0  0
  185.0210  177.9010  137.5070 C   0  0  2  0  0  3  0  0  0  0  0  0
  186.7690  178.5240  134.6080 O   0  0  0  0  0  0  0  0  0  0  0  0
  184.2990  176.8010  138.2830 C   0  0  0  0  0  1  0  0  0  0  0  0
  188.1170  178.3500  136.5350 C   0  0  0  0  0  3  0  0  0  0  0  0
  187.0780  178.0040  138.8030 C   0  0  2  0  0  3  0  0  0  0  0  0
  185.7850  177.2420  136.3520 C   0  0  0  0  0  2  0  0  0  0  0  0
  188.2250  178.2900  137.8660 C   0  0  0  0  0  3  0  0  0  0  0  0
  185.8730  178.7480  138.3710 N   0  0  0  0  0  0  0  0  0  0  0  0
  185.0640  179.2790  139.4710 C   0  0  0  0  0  1  0  0  0  0  0  0
  186.8780  178.0870  135.7820 C   0  0  0  0  0  0  0  0  0  0  0  0
  189.5770  177.7220  146.4270 C   0  0  0  0  0  2  0  0  0  0  0  0
  190.7340  176.8170  146.8060 C   0  0  0  0  0  1  0  0  0  0  0  0
  1  3  1  6  0  0  0
  1  4  1  0  0  0  0
  2  5  1  0  0  0  0
  3 18  1  0  0  0  0
  4 10  1  0  0  0  0
  4  2  2  0  0  0  0
  5 17  2  0  0  0  0
  5 11  1  0  0  0  0
  6 19  1  0  0  0  0
  7 14  1  6  0  0  0
  7  2  1  0  0  0  0
  7 16  1  0  0  0  0
  9 11  2  0  0  0  0
  9  8  1  0  0  0  0
 10 12  2  0  0  0  0
 12 17  1  0  0  0  0
 13 10  1  0  0  0  0
 15  1  1  0  0  0  0
 15 14  1  1  0  0  0
 16 20  1  6  0  0  0
 16  9  1  0  0  0  0
 17 31  1  0  0  0  0
 18 13  1  0  0  0  0
 19  8  1  0  0  0  0
 20  6  1  0  0  0  0
 21 23  1  1  0  0  0
 21 28  1  0  0  0  0
 22 30  2  0  0  0  0
 24 27  2  0  0  0  0
 25 27  1  6  0  0  0
 25 15  1  0  0  0  0
 26 21  1  0  0  0  0
 28 25  1  0  0  0  0
 28 29  1  0  0  0  0
 30 26  1  0  0  0  0
 30 24  1  0  0  0  0
 31 32  1  0  0  0  0
M  END
>  <MODEL>
8

>  <REMARK>
 VINA RESULT:      -9.5      2.178      7.841
  Name = 
  2 active torsions:
  status: ('A' for Active; 'I' for Inactive)
    1  A    between atoms: C_13  and  C_29
    2  A    between atoms: C_16  and  C_27
                            x       y       z     vdW  Elec       q    Type
                         _______ _______ _______ _____ _____    ______ ____

>  <TORSDO>
F 2

$$$$
=
 OpenBabel10262421073D

 32 37  0  0  1  0  0  0  0  0999 V2000
  186.2330  178.0360  140.7220 C   0  0  1  0  0  3  0  0  0  0  0  0
  188.5850  177.6540  141.4980 C   0  0  0  0  0  0  0  0  0  0  0  0
  185.5810  178.9400  139.6850 C   0  0  0  0  0  2  0  0  0  0  0  0
  187.7010  177.8710  140.4330 C   0  0  0  0  0  0  0  0  0  0  0  0
  189.9410  177.3970  141.2550 C   0  0  0  0  0  0  0  0  0  0  0  0
  189.6450  177.7600  146.2270 C   0  0  0  0  0  2  0  0  0  0  0  0
  188.1030  177.8780  142.9140 C   0  0  1  0  0  3  0  0  0  0  0  0
  191.4390  176.9930  144.6840 C   0  0  0  0  0  2  0  0  0  0  0  0
  190.4110  177.0740  143.5900 C   0  0  0  0  0  0  0  0  0  0  0  0
  188.1800  177.8630  139.1090 C   0  0  0  0  0  0  0  0  0  0  0  0
  190.8320  177.2100  142.3660 N   0  0  0  0  0  0  0  0  0  0  0  0
  189.5370  177.6170  138.8700 C   0  0  0  0  0  3  0  0  0  0  0  0
  187.3030  178.2860  137.9590 C   0  0  0  0  0  2  0  0  0  0  0  0
  186.7260  177.5880  143.0330 O   0  0  0  0  0  0  0  0  0  0  0  0
  186.0300  178.4790  142.1890 C   0  0  2  0  0  3  0  0  0  0  0  0
  188.9130  177.0090  143.8810 C   0  0  1  0  0  3  0  0  0  0  0  0
  190.4170  177.3680  139.9330 C   0  0  0  0  0  0  0  0  0  0  0  0
  185.8090  178.3210  138.3090 C   0  0  0  0  0  2  0  0  0  0  0  0
  190.8270  176.8220  146.0690 C   0  0  0  0  0  2  0  0  0  0  0  0
  188.5060  177.2700  145.3420 C   0  0  0  0  0  2  0  0  0  0  0  0
  183.3050  179.3190  144.5850 C   0  0  2  0  0  3  0  0  0  0  0  0
  180.4050  179.4150  142.7340 O   0  0  0  0  0  0  0  0  0  0  0  0
  184.0340  178.5270  145.6700 C   0  0  0  0  0  1  0  0  0  0  0  0
  182.2840  178.6220  141.5510 C   0  0  0  0  0  3  0  0  0  0  0  0
  184.5530  178.5540  142.6410 C   0  0  2  0  0  3  0  0  0  0  0  0
  182.0960  178.4930  144.1290 C   0  0  0  0  0  2  0  0  0  0  0  0
  183.6070  178.4430  141.4720 C   0  0  0  0  0  3  0  0  0  0  0  0
  184.1950  179.7240  143.4750 N   0  0  0  0  0  0  0  0  0  0  0  0
  185.3440  180.4510  144.0210 C   0  0  0  0  0  1  0  0  0  0  0  0
  181.5490  178.8960  142.7980 C   0  0  0  0  0  0  0  0  0  0  0  0
  191.8530  177.0890  139.6350 C   0  0  0  0  0  2  0  0  0  0  0  0
  191.9830  176.3950  138.2930 C   0  0  0  0  0  1  0  0  0  0  0  0
  1  3  1  6  0  0  0
  1 15  1  0  0  0  0
  4  1  1  0  0  0  0
  4  2  2  0  0  0  0
  5  2  1  0  0  0  0
  5 11  1  0  0  0  0
  7  2  1  6  0  0  0
  7 14  1  0  0  0  0
  7 16  1  0  0  0  0
  8 19  1  0  0  0  0
  9 16  1  0  0  0  0
  9  8  1  0  0  0  0
 10  4  1  0  0  0  0
 11  9  2  0  0  0  0
 12 10  2  0  0  0  0
 12 17  1  0  0  0  0
 13 18  1  0  0  0  0
 13 10  1  0  0  0  0
 15 25  1  0  0  0  0
 15 14  1  1  0  0  0
 16 20  1  1  0  0  0
 17  5  2  0  0  0  0
 18  3  1  0  0  0  0
 19  6  1  0  0  0  0
 20  6  1  0  0  0  0
 21 23  1  1  0  0  0
 22 30  2  0  0  0  0
 24 30  1  0  0  0  0
 25 27  1  6  0  0  0
 25 28  1  0  0  0  0
 26 21  1  0  0  0  0
 27 24  2  0  0  0  0
 28 29  1  0  0  0  0
 28 21  1  0  0  0  0
 30 26  1  0  0  0  0
 31 17  1  0  0  0  0
 32 31  1  0  0  0  0
M  END
>  <MODEL>
9

>  <REMARK>
 VINA RESULT:      -9.3      2.134      7.264
  Name = 
  2 active torsions:
  status: ('A' for Active; 'I' for Inactive)
    1  A    between atoms: C_13  and  C_29
    2  A    between atoms: C_16  and  C_27
                            x       y       z     vdW  Elec       q    Type
                         _______ _______ _______ _____ _____    ______ ____

>  <TORSDO>
F 2

$$$$
