=
 OpenBabel10262419333D

 31 35  0  0  1  0  0  0  0  0999 V2000
  182.6430  179.0260  139.6000 C   0  0  0  0  0  0  0  0  0  0  0  0
  186.3680  178.6390  140.0460 N   0  0  0  0  0  0  0  0  0  0  0  0
  187.1580  178.5010  138.8730 C   0  0  0  0  0  0  0  0  0  0  0  0
  187.5990  178.2570  136.5800 C   0  0  0  0  0  0  0  0  0  0  0  0
  184.9450  178.3500  140.2000 C   0  0  2  0  0  3  0  0  0  0  0  0
  182.1890  178.6920  140.8170 C   0  0  0  0  0  3  0  0  0  0  0  0
  186.7080  178.4720  137.5930 N   0  0  0  0  0  2  0  0  0  0  0  0
  186.9090  178.2790  142.3650 C   0  0  0  0  0  0  0  0  0  0  0  0
  181.7090  179.0270  138.4400 C   0  0  0  0  0  1  0  0  0  0  0  0
  189.7840  177.6390  141.2800 C   0  0  0  0  0  1  0  0  0  0  0  0
  187.1980  178.2450  135.3880 O   0  0  0  0  0  0  0  0  0  0  0  0
  185.4550  178.3840  142.6410 C   0  0  0  0  0  3  0  0  0  0  0  0
  187.3150  178.4150  141.0950 C   0  0  0  0  0  0  0  0  0  0  0  0
  184.1010  179.3210  139.3790 C   0  0  0  0  0  2  0  0  0  0  0  0
  188.9650  178.0410  136.8620 C   0  0  0  0  0  3  0  0  0  0  0  0
  184.5400  178.4480  141.6620 C   0  0  0  0  0  0  0  0  0  0  0  0
  183.0930  178.6350  142.0270 C   0  0  0  0  0  2  0  0  0  0  0  0
  188.6590  178.2620  140.6010 N   0  0  0  0  0  0  0  0  0  0  0  0
  188.4770  178.2930  139.1880 C   0  0  0  0  0  0  0  0  0  0  0  0
  189.4180  178.0470  138.1920 C   0  0  0  0  0  3  0  0  0  0  0  0
  187.9310  175.7380  143.4020 O   0  0  0  0  0  0  0  0  0  0  0  0
  188.3450  176.8140  143.9100 C   0  0  0  0  0  0  0  0  0  0  0  0
  187.8630  178.0730  143.4160 N   0  0  0  0  0  2  0  0  0  0  0  0
  191.3250  176.7330  147.0090 C   0  0  0  0  0  0  0  0  0  0  0  0
  190.6680  176.4980  144.6980 C   0  0  0  0  0  3  0  0  0  0  0  0
  187.3850  177.4710  146.9220 Cl  0  0  0  0  0  0  0  0  0  0  0  0
  192.2820  176.7010  147.9670 F   0  0  0  0  0  0  0  0  0  0  0  0
  191.6560  176.4640  145.6820 C   0  0  0  0  0  3  0  0  0  0  0  0
  189.0070  177.0740  146.3720 C   0  0  0  0  0  0  0  0  0  0  0  0
  189.3340  176.8000  145.0170 C   0  0  0  0  0  0  0  0  0  0  0  0
  190.0070  177.0360  147.3500 C   0  0  0  0  0  3  0  0  0  0  0  0
  1  6  2  0  0  0  0
  2  5  1  0  0  0  0
  2 13  1  0  0  0  0
  3 19  2  0  0  0  0
  3  2  1  0  0  0  0
  4 15  1  0  0  0  0
  4  7  1  0  0  0  0
  5 14  1  6  0  0  0
  5 16  1  0  0  0  0
  6 17  1  0  0  0  0
  7  3  1  0  0  0  0
  8 12  1  0  0  0  0
  8 23  1  0  0  0  0
  9  1  1  0  0  0  0
 11  4  2  0  0  0  0
 13  8  2  0  0  0  0
 14  1  1  0  0  0  0
 15 20  2  0  0  0  0
 16 17  1  0  0  0  0
 16 12  2  0  0  0  0
 18 13  1  0  0  0  0
 18 10  1  0  0  0  0
 19 18  1  0  0  0  0
 20 19  1  0  0  0  0
 21 22  2  0  0  0  0
 22 30  1  0  0  0  0
 23 22  1  0  0  0  0
 24 31  1  0  0  0  0
 24 27  1  0  0  0  0
 25 30  2  0  0  0  0
 25 28  1  0  0  0  0
 28 24  2  0  0  0  0
 29 26  1  0  0  0  0
 29 31  2  0  0  0  0
 30 29  1  0  0  0  0
M  END
>  <MODEL>
1

>  <REMARK>
 VINA RESULT:     -10.3      0.000      0.000
  Name = 
  2 active torsions:
  status: ('A' for Active; 'I' for Inactive)
    1  A    between atoms: C_9  and  C_22
    2  A    between atoms: C_15  and  N_23
                            x       y       z     vdW  Elec       q    Type
                         _______ _______ _______ _____ _____    ______ ____

>  <TORSDO>
F 2

$$$$
=
 OpenBabel10262419333D

 31 35  0  0  1  0  0  0  0  0999 V2000
  191.9140  177.4670  140.6360 C   0  0  0  0  0  0  0  0  0  0  0  0
  189.3460  177.6540  143.3920 N   0  0  0  0  0  0  0  0  0  0  0  0
  189.7880  177.3960  144.7180 C   0  0  0  0  0  0  0  0  0  0  0  0
  191.2860  176.7750  146.4150 C   0  0  0  0  0  0  0  0  0  0  0  0
  189.9710  177.2200  142.1460 C   0  0  2  0  0  3  0  0  0  0  0  0
  191.1370  177.3170  139.5520 C   0  0  0  0  0  3  0  0  0  0  0  0
  191.0460  177.0640  145.1010 N   0  0  0  0  0  2  0  0  0  0  0  0
  187.1270  177.8180  142.4710 C   0  0  0  0  0  0  0  0  0  0  0  0
  193.3610  177.1260  140.5570 C   0  0  0  0  0  1  0  0  0  0  0  0
  186.1930  177.3560  145.4320 C   0  0  0  0  0  1  0  0  0  0  0  0
  192.4520  176.4830  146.7870 O   0  0  0  0  0  0  0  0  0  0  0  0
  187.7640  177.7860  141.1310 C   0  0  0  0  0  3  0  0  0  0  0  0
  187.9280  177.7590  143.5450 C   0  0  0  0  0  0  0  0  0  0  0  0
  191.3240  177.8990  141.9500 C   0  0  0  0  0  2  0  0  0  0  0  0
  190.2340  176.7940  147.3560 C   0  0  0  0  0  3  0  0  0  0  0  0
  189.0730  177.5440  140.9630 C   0  0  0  0  0  0  0  0  0  0  0  0
  189.6540  177.6100  139.5770 C   0  0  0  0  0  2  0  0  0  0  0  0
  187.5140  177.6880  144.9220 N   0  0  0  0  0  0  0  0  0  0  0  0
  188.7390  177.4230  145.6010 C   0  0  0  0  0  0  0  0  0  0  0  0
  188.9290  177.1130  146.9450 C   0  0  0  0  0  3  0  0  0  0  0  0
  185.3030  179.6040  141.0370 O   0  0  0  0  0  0  0  0  0  0  0  0
  184.8340  178.8320  141.9150 C   0  0  0  0  0  0  0  0  0  0  0  0
  185.7070  177.9420  142.6280 N   0  0  0  0  0  2  0  0  0  0  0  0
  180.6630  178.8220  142.9650 C   0  0  0  0  0  0  0  0  0  0  0  0
  182.9980  178.9500  143.5680 C   0  0  0  0  0  3  0  0  0  0  0  0
  182.6910  178.5320  139.5180 Cl  0  0  0  0  0  0  0  0  0  0  0  0
  179.3570  178.8210  143.3210 F   0  0  0  0  0  0  0  0  0  0  0  0
  181.6530  178.9500  143.9380 C   0  0  0  0  0  3  0  0  0  0  0  0
  182.3660  178.6940  141.2380 C   0  0  0  0  0  0  0  0  0  0  0  0
  183.3810  178.8230  142.2230 C   0  0  0  0  0  0  0  0  0  0  0  0
  181.0210  178.6950  141.6230 C   0  0  0  0  0  3  0  0  0  0  0  0
  1 14  1  0  0  0  0
  2 13  1  0  0  0  0
  2  3  1  0  0  0  0
  3  7  1  0  0  0  0
  3 19  2  0  0  0  0
  4 11  2  0  0  0  0
  4 15  1  0  0  0  0
  5 14  1  6  0  0  0
  5  2  1  0  0  0  0
  6 17  1  0  0  0  0
  6  1  2  0  0  0  0
  7  4  1  0  0  0  0
  8 23  1  0  0  0  0
  8 13  2  0  0  0  0
  9  1  1  0  0  0  0
 12  8  1  0  0  0  0
 13 18  1  0  0  0  0
 16 12  2  0  0  0  0
 16  5  1  0  0  0  0
 17 16  1  0  0  0  0
 18 10  1  0  0  0  0
 18 19  1  0  0  0  0
 19 20  1  0  0  0  0
 20 15  2  0  0  0  0
 21 22  2  0  0  0  0
 22 30  1  0  0  0  0
 22 23  1  0  0  0  0
 24 27  1  0  0  0  0
 24 28  1  0  0  0  0
 25 28  2  0  0  0  0
 26 29  1  0  0  0  0
 29 31  1  0  0  0  0
 29 30  2  0  0  0  0
 30 25  1  0  0  0  0
 31 24  2  0  0  0  0
M  END
>  <MODEL>
2

>  <REMARK>
 VINA RESULT:     -10.2      3.778      8.158
  Name = 
  2 active torsions:
  status: ('A' for Active; 'I' for Inactive)
    1  A    between atoms: C_9  and  C_22
    2  A    between atoms: C_15  and  N_23
                            x       y       z     vdW  Elec       q    Type
                         _______ _______ _______ _____ _____    ______ ____

>  <TORSDO>
F 2

$$$$
=
 OpenBabel10262419333D

 31 35  0  0  1  0  0  0  0  0999 V2000
  186.8060  177.9570  136.3420 C   0  0  0  0  0  0  0  0  0  0  0  0
  189.4060  177.7310  139.0640 N   0  0  0  0  0  0  0  0  0  0  0  0
  190.7040  177.2840  138.6950 C   0  0  0  0  0  0  0  0  0  0  0  0
  192.3760  176.4280  137.2870 C   0  0  0  0  0  0  0  0  0  0  0  0
  188.1490  177.4850  138.3640 C   0  0  2  0  0  3  0  0  0  0  0  0
  185.6680  177.9640  137.0540 C   0  0  0  0  0  3  0  0  0  0  0  0
  191.1070  176.9050  137.4560 N   0  0  0  0  0  2  0  0  0  0  0  0
  188.3920  178.0180  141.2280 C   0  0  0  0  0  0  0  0  0  0  0  0
  186.7620  177.6370  134.8880 C   0  0  0  0  0  1  0  0  0  0  0  0
  191.1950  177.1260  142.3230 C   0  0  0  0  0  1  0  0  0  0  0  0
  192.7690  176.0890  136.1410 O   0  0  0  0  0  0  0  0  0  0  0  0
  187.1010  178.1850  140.5170 C   0  0  0  0  0  3  0  0  0  0  0  0
  189.4900  177.8060  140.4890 C   0  0  0  0  0  0  0  0  0  0  0  0
  188.1320  178.1910  137.0110 C   0  0  0  0  0  2  0  0  0  0  0  0
  193.2480  176.3050  138.3910 C   0  0  0  0  0  3  0  0  0  0  0  0
  186.9760  177.9750  139.1980 C   0  0  0  0  0  0  0  0  0  0  0  0
  185.6500  178.2450  138.5390 C   0  0  0  0  0  2  0  0  0  0  0  0
  190.8170  177.5340  140.9790 N   0  0  0  0  0  0  0  0  0  0  0  0
  191.5200  177.1780  139.7920 C   0  0  0  0  0  0  0  0  0  0  0  0
  192.8130  176.6760  139.6740 C   0  0  0  0  0  3  0  0  0  0  0  0
  187.8230  175.9410  143.2130 O   0  0  0  0  0  0  0  0  0  0  0  0
  188.1930  177.0780  143.6100 C   0  0  0  0  0  0  0  0  0  0  0  0
  188.4840  178.1120  142.6570 N   0  0  0  0  0  2  0  0  0  0  0  0
  188.7720  177.8640  147.7990 C   0  0  0  0  0  0  0  0  0  0  0  0
  189.5930  177.1350  145.6480 C   0  0  0  0  0  3  0  0  0  0  0  0
  185.6690  178.2020  145.2810 Cl  0  0  0  0  0  0  0  0  0  0  0  0
  188.9790  178.1040  149.1150 F   0  0  0  0  0  0  0  0  0  0  0  0
  189.8100  177.3810  147.0050 C   0  0  0  0  0  3  0  0  0  0  0  0
  187.2870  177.8600  145.8760 C   0  0  0  0  0  0  0  0  0  0  0  0
  188.3390  177.3670  145.0600 C   0  0  0  0  0  0  0  0  0  0  0  0
  187.5180  178.1020  147.2350 C   0  0  0  0  0  3  0  0  0  0  0  0
  1 14  1  0  0  0  0
  1  6  2  0  0  0  0
  2 13  1  0  0  0  0
  3  2  1  0  0  0  0
  3 19  2  0  0  0  0
  4  7  1  0  0  0  0
  4 15  1  0  0  0  0
  5 14  1  6  0  0  0
  5  2  1  0  0  0  0
  5 16  1  0  0  0  0
  6 17  1  0  0  0  0
  7  3  1  0  0  0  0
  8 23  1  0  0  0  0
  9  1  1  0  0  0  0
 11  4  2  0  0  0  0
 12  8  1  0  0  0  0
 13 18  1  0  0  0  0
 13  8  2  0  0  0  0
 15 20  2  0  0  0  0
 16 12  2  0  0  0  0
 17 16  1  0  0  0  0
 18 10  1  0  0  0  0
 19 18  1  0  0  0  0
 20 19  1  0  0  0  0
 21 22  2  0  0  0  0
 22 30  1  0  0  0  0
 23 22  1  0  0  0  0
 24 27  1  0  0  0  0
 25 28  1  0  0  0  0
 26 29  1  0  0  0  0
 28 24  2  0  0  0  0
 29 31  2  0  0  0  0
 30 25  2  0  0  0  0
 30 29  1  0  0  0  0
 31 24  1  0  0  0  0
M  END
>  <MODEL>
3

>  <REMARK>
 VINA RESULT:      -9.9      2.469      3.595
  Name = 
  2 active torsions:
  status: ('A' for Active; 'I' for Inactive)
    1  A    between atoms: C_9  and  C_22
    2  A    between atoms: C_15  and  N_23
                            x       y       z     vdW  Elec       q    Type
                         _______ _______ _______ _____ _____    ______ ____

>  <TORSDO>
F 2

$$$$
=
 OpenBabel10262419333D

 31 35  0  0  1  0  0  0  0  0999 V2000
  184.5910  178.6280  144.3580 C   0  0  0  0  0  0  0  0  0  0  0  0
  188.1280  177.3290  144.1880 N   0  0  0  0  0  0  0  0  0  0  0  0
  188.8560  177.2520  145.4060 C   0  0  0  0  0  0  0  0  0  0  0  0
  189.2770  177.5510  147.6960 C   0  0  0  0  0  0  0  0  0  0  0  0
  186.9780  178.1780  143.8930 C   0  0  2  0  0  3  0  0  0  0  0  0
  184.3700  178.9790  143.0820 C   0  0  0  0  0  3  0  0  0  0  0  0
  188.4180  177.6210  146.6360 N   0  0  0  0  0  2  0  0  0  0  0  0
  188.8530  177.1480  141.9000 C   0  0  0  0  0  0  0  0  0  0  0  0
  183.7080  179.1620  145.4320 C   0  0  0  0  0  1  0  0  0  0  0  0
  191.6810  176.6190  143.1570 C   0  0  0  0  0  1  0  0  0  0  0  0
  188.8790  177.8740  148.8450 O   0  0  0  0  0  0  0  0  0  0  0  0
  187.5090  177.6440  141.5140 C   0  0  0  0  0  3  0  0  0  0  0  0
  189.1140  177.0010  143.2070 C   0  0  0  0  0  0  0  0  0  0  0  0
  185.7670  177.7660  144.7250 C   0  0  0  0  0  2  0  0  0  0  0  0
  190.6110  177.1280  147.5100 C   0  0  0  0  0  3  0  0  0  0  0  0
  186.6230  178.0920  142.4170 C   0  0  0  0  0  0  0  0  0  0  0  0
  185.2520  178.5010  141.9510 C   0  0  0  0  0  2  0  0  0  0  0  0
  190.3730  176.6220  143.7940 N   0  0  0  0  0  0  0  0  0  0  0  0
  190.1450  176.8370  145.1840 C   0  0  0  0  0  0  0  0  0  0  0  0
  191.0640  176.7730  146.2290 C   0  0  0  0  0  3  0  0  0  0  0  0
  189.4310  178.5010  139.3680 O   0  0  0  0  0  0  0  0  0  0  0  0
  190.0990  177.4800  139.6790 C   0  0  0  0  0  0  0  0  0  0  0  0
  189.8390  176.8010  140.9180 N   0  0  0  0  0  2  0  0  0  0  0  0
  193.2900  176.0210  137.1920 C   0  0  0  0  0  0  0  0  0  0  0  0
  192.4830  176.9700  139.2590 C   0  0  0  0  0  3  0  0  0  0  0  0
  189.3240  176.3960  136.7370 Cl  0  0  0  0  0  0  0  0  0  0  0  0
  194.3130  175.5680  136.4280 F   0  0  0  0  0  0  0  0  0  0  0  0
  193.5390  176.5040  138.4750 C   0  0  0  0  0  3  0  0  0  0  0  0
  190.9200  176.4700  137.4710 C   0  0  0  0  0  0  0  0  0  0  0  0
  191.1630  176.9640  138.7790 C   0  0  0  0  0  0  0  0  0  0  0  0
  191.9880  176.0050  136.6940 C   0  0  0  0  0  3  0  0  0  0  0  0
  1 14  1  0  0  0  0
  1  9  1  0  0  0  0
  2  3  1  0  0  0  0
  3  7  1  0  0  0  0
  4 11  2  0  0  0  0
  5  2  1  0  0  0  0
  5 14  1  1  0  0  0
  6  1  2  0  0  0  0
  7  4  1  0  0  0  0
  8 13  2  0  0  0  0
 10 18  1  0  0  0  0
 12  8  1  0  0  0  0
 12 16  2  0  0  0  0
 13 18  1  0  0  0  0
 13  2  1  0  0  0  0
 15  4  1  0  0  0  0
 16  5  1  0  0  0  0
 17 16  1  0  0  0  0
 17  6  1  0  0  0  0
 18 19  1  0  0  0  0
 19  3  2  0  0  0  0
 19 20  1  0  0  0  0
 20 15  2  0  0  0  0
 21 22  2  0  0  0  0
 22 23  1  0  0  0  0
 23  8  1  0  0  0  0
 24 28  1  0  0  0  0
 26 29  1  0  0  0  0
 27 24  1  0  0  0  0
 28 25  2  0  0  0  0
 29 30  2  0  0  0  0
 30 25  1  0  0  0  0
 30 22  1  0  0  0  0
 31 24  2  0  0  0  0
 31 29  1  0  0  0  0
M  END
>  <MODEL>
4

>  <REMARK>
 VINA RESULT:      -9.9      3.793      7.246
  Name = 
  2 active torsions:
  status: ('A' for Active; 'I' for Inactive)
    1  A    between atoms: C_9  and  C_22
    2  A    between atoms: C_15  and  N_23
                            x       y       z     vdW  Elec       q    Type
                         _______ _______ _______ _____ _____    ______ ____

>  <TORSDO>
F 2

$$$$
=
 OpenBabel10262419333D

 31 35  0  0  1  0  0  0  0  0999 V2000
  187.5400  178.0310  136.3430 C   0  0  0  0  0  0  0  0  0  0  0  0
  185.6950  178.2460  139.6250 N   0  0  0  0  0  0  0  0  0  0  0  0
  184.3030  178.5230  139.5770 C   0  0  0  0  0  0  0  0  0  0  0  0
  182.2400  179.0700  138.5980 C   0  0  0  0  0  0  0  0  0  0  0  0
  186.6980  178.5510  138.6090 C   0  0  2  0  0  3  0  0  0  0  0  0
  188.8120  178.2060  136.7350 C   0  0  0  0  0  3  0  0  0  0  0  0
  183.5590  178.7420  138.4630 N   0  0  0  0  0  2  0  0  0  0  0  0
  187.2460  178.2650  141.4670 C   0  0  0  0  0  0  0  0  0  0  0  0
  187.1800  178.2170  134.9100 C   0  0  0  0  0  1  0  0  0  0  0  0
  184.7180  178.9670  143.1910 C   0  0  0  0  0  1  0  0  0  0  0  0
  181.5350  179.2600  137.5740 O   0  0  0  0  0  0  0  0  0  0  0  0
  188.3280  178.1640  140.4580 C   0  0  0  0  0  3  0  0  0  0  0  0
  185.9800  178.2950  141.0260 C   0  0  0  0  0  0  0  0  0  0  0  0
  186.4620  177.7280  137.3460 C   0  0  0  0  0  2  0  0  0  0  0  0
  181.6640  179.2070  139.8800 C   0  0  0  0  0  3  0  0  0  0  0  0
  188.0930  178.2620  139.1410 C   0  0  0  0  0  0  0  0  0  0  0  0
  189.2350  178.0680  138.1800 C   0  0  0  0  0  2  0  0  0  0  0  0
  184.7960  178.4760  141.8240 N   0  0  0  0  0  0  0  0  0  0  0  0
  183.7800  178.6470  140.8390 C   0  0  0  0  0  0  0  0  0  0  0  0
  182.4470  179.0030  141.0280 C   0  0  0  0  0  3  0  0  0  0  0  0
  187.9310  176.0200  143.2180 O   0  0  0  0  0  0  0  0  0  0  0  0
  187.8550  177.1760  143.7120 C   0  0  0  0  0  0  0  0  0  0  0  0
  187.5260  178.2950  142.8740 N   0  0  0  0  0  2  0  0  0  0  0  0
  188.4280  177.8750  147.9170 C   0  0  0  0  0  0  0  0  0  0  0  0
  187.0210  177.7980  145.9560 C   0  0  0  0  0  3  0  0  0  0  0  0
  190.8260  176.7540  144.9050 Cl  0  0  0  0  0  0  0  0  0  0  0  0
  188.5830  178.1020  149.2430 F   0  0  0  0  0  0  0  0  0  0  0  0
  187.1770  178.0320  147.3230 C   0  0  0  0  0  3  0  0  0  0  0  0
  189.3780  177.2460  145.7720 C   0  0  0  0  0  0  0  0  0  0  0  0
  188.1070  177.4040  145.1580 C   0  0  0  0  0  0  0  0  0  0  0  0
  189.5210  177.4840  147.1440 C   0  0  0  0  0  3  0  0  0  0  0  0
  1  6  2  0  0  0  0
  1 14  1  0  0  0  0
  2 13  1  0  0  0  0
  3  2  1  0  0  0  0
  3 19  2  0  0  0  0
  4 15  1  0  0  0  0
  5 14  1  6  0  0  0
  5 16  1  0  0  0  0
  5  2  1  0  0  0  0
  6 17  1  0  0  0  0
  7  4  1  0  0  0  0
  7  3  1  0  0  0  0
  8 23  1  0  0  0  0
  9  1  1  0  0  0  0
 11  4  2  0  0  0  0
 12  8  1  0  0  0  0
 13  8  2  0  0  0  0
 13 18  1  0  0  0  0
 15 20  2  0  0  0  0
 16 12  2  0  0  0  0
 17 16  1  0  0  0  0
 18 10  1  0  0  0  0
 19 20  1  0  0  0  0
 19 18  1  0  0  0  0
 21 22  2  0  0  0  0
 22 30  1  0  0  0  0
 23 22  1  0  0  0  0
 24 27  1  0  0  0  0
 25 28  2  0  0  0  0
 26 29  1  0  0  0  0
 28 24  1  0  0  0  0
 29 31  1  0  0  0  0
 30 29  2  0  0  0  0
 30 25  1  0  0  0  0
 31 24  2  0  0  0  0
M  END
>  <MODEL>
5

>  <REMARK>
 VINA RESULT:      -9.7      1.963      4.472
  Name = 
  2 active torsions:
  status: ('A' for Active; 'I' for Inactive)
    1  A    between atoms: C_9  and  C_22
    2  A    between atoms: C_15  and  N_23
                            x       y       z     vdW  Elec       q    Type
                         _______ _______ _______ _____ _____    ______ ____

>  <TORSDO>
F 2

$$$$
=
 OpenBabel10262419333D

 31 35  0  0  1  0  0  0  0  0999 V2000
  189.9410  177.0610  146.9530 C   0  0  0  0  0  0  0  0  0  0  0  0
  188.4480  177.4930  143.5160 N   0  0  0  0  0  0  0  0  0  0  0  0
  189.3400  177.4900  142.4100 C   0  0  0  0  0  0  0  0  0  0  0  0
  191.4090  177.4600  141.3000 C   0  0  0  0  0  0  0  0  0  0  0  0
  188.7610  177.8000  144.9090 C   0  0  2  0  0  3  0  0  0  0  0  0
  188.9600  177.5370  147.7360 C   0  0  0  0  0  3  0  0  0  0  0  0
  190.6900  177.3680  142.4590 N   0  0  0  0  0  2  0  0  0  0  0  0
  186.1300  178.1240  143.6750 C   0  0  0  0  0  0  0  0  0  0  0  0
  191.3190  176.9230  147.5010 C   0  0  0  0  0  1  0  0  0  0  0  0
  186.3710  178.6280  140.5860 C   0  0  0  0  0  1  0  0  0  0  0  0
  192.6590  177.3320  141.3290 O   0  0  0  0  0  0  0  0  0  0  0  0
  186.2910  178.0550  145.1480 C   0  0  0  0  0  3  0  0  0  0  0  0
  187.1970  177.8380  142.9160 C   0  0  0  0  0  0  0  0  0  0  0  0
  189.6810  176.7390  145.5070 C   0  0  0  0  0  2  0  0  0  0  0  0
  190.7570  177.7070  140.0720 C   0  0  0  0  0  3  0  0  0  0  0  0
  187.4850  177.8760  145.7320 C   0  0  0  0  0  0  0  0  0  0  0  0
  187.5500  177.7350  147.2290 C   0  0  0  0  0  2  0  0  0  0  0  0
  187.2810  177.9300  141.4810 N   0  0  0  0  0  0  0  0  0  0  0  0
  188.6710  177.7320  141.2370 C   0  0  0  0  0  0  0  0  0  0  0  0
  189.3620  177.8570  140.0340 C   0  0  0  0  0  3  0  0  0  0  0  0
  183.5610  178.6020  144.9950 O   0  0  0  0  0  0  0  0  0  0  0  0
  183.6230  178.6760  143.7400 C   0  0  0  0  0  0  0  0  0  0  0  0
  184.8720  178.4520  143.0680 N   0  0  0  0  0  2  0  0  0  0  0  0
  180.0670  179.6890  141.5430 C   0  0  0  0  0  0  0  0  0  0  0  0
  181.4000  179.7460  143.5540 C   0  0  0  0  0  3  0  0  0  0  0  0
  183.4190  177.6640  140.6790 Cl  0  0  0  0  0  0  0  0  0  0  0  0
  178.9370  180.0200  140.8730 F   0  0  0  0  0  0  0  0  0  0  0  0
  180.2350  180.0890  142.8670 C   0  0  0  0  0  3  0  0  0  0  0  0
  182.2360  178.5970  141.5860 C   0  0  0  0  0  0  0  0  0  0  0  0
  182.4160  178.9990  142.9360 C   0  0  0  0  0  0  0  0  0  0  0  0
  181.0620  178.9470  140.9080 C   0  0  0  0  0  3  0  0  0  0  0  0
  1  9  1  0  0  0  0
  1  6  2  0  0  0  0
  2  5  1  0  0  0  0
  3  7  1  0  0  0  0
  3  2  1  0  0  0  0
  4 11  2  0  0  0  0
  4  7  1  0  0  0  0
  5 14  1  1  0  0  0
  5 16  1  0  0  0  0
  8 12  1  0  0  0  0
 10 18  1  0  0  0  0
 12 16  2  0  0  0  0
 13  2  1  0  0  0  0
 13  8  2  0  0  0  0
 14  1  1  0  0  0  0
 15  4  1  0  0  0  0
 16 17  1  0  0  0  0
 17  6  1  0  0  0  0
 18 13  1  0  0  0  0
 19 18  1  0  0  0  0
 19  3  2  0  0  0  0
 20 15  2  0  0  0  0
 20 19  1  0  0  0  0
 22 21  2  0  0  0  0
 23  8  1  0  0  0  0
 23 22  1  0  0  0  0
 24 28  1  0  0  0  0
 26 29  1  0  0  0  0
 27 24  1  0  0  0  0
 28 25  2  0  0  0  0
 29 30  2  0  0  0  0
 30 25  1  0  0  0  0
 30 22  1  0  0  0  0
 31 24  2  0  0  0  0
 31 29  1  0  0  0  0
M  END
>  <MODEL>
6

>  <REMARK>
 VINA RESULT:      -9.4      3.961      7.680
  Name = 
  2 active torsions:
  status: ('A' for Active; 'I' for Inactive)
    1  A    between atoms: C_9  and  C_22
    2  A    between atoms: C_15  and  N_23
                            x       y       z     vdW  Elec       q    Type
                         _______ _______ _______ _____ _____    ______ ____

>  <TORSDO>
F 2

$$$$
=
 OpenBabel10262419333D

 31 35  0  0  1  0  0  0  0  0999 V2000
  186.9940  177.8780  146.7990 C   0  0  0  0  0  0  0  0  0  0  0  0
  187.3070  177.8420  143.0410 N   0  0  0  0  0  0  0  0  0  0  0  0
  188.5930  177.5850  142.4930 C   0  0  0  0  0  0  0  0  0  0  0  0
  190.9100  177.2090  142.5000 C   0  0  0  0  0  0  0  0  0  0  0  0
  186.9940  178.3530  144.3720 C   0  0  2  0  0  3  0  0  0  0  0  0
  185.8470  178.5530  146.9680 C   0  0  0  0  0  3  0  0  0  0  0  0
  189.7390  177.3680  143.1850 N   0  0  0  0  0  2  0  0  0  0  0  0
  185.2910  178.6690  142.0160 C   0  0  0  0  0  0  0  0  0  0  0  0
  187.9360  177.7270  147.9430 C   0  0  0  0  0  1  0  0  0  0  0  0
  186.9800  178.6280  139.3710 C   0  0  0  0  0  1  0  0  0  0  0  0
  191.9770  176.9900  143.1290 O   0  0  0  0  0  0  0  0  0  0  0  0
  184.7530  178.8360  143.3890 C   0  0  0  0  0  3  0  0  0  0  0  0
  186.5320  178.1780  141.8870 C   0  0  0  0  0  0  0  0  0  0  0  0
  187.3760  177.3400  145.4480 C   0  0  0  0  0  2  0  0  0  0  0  0
  190.9320  177.2960  141.0910 C   0  0  0  0  0  3  0  0  0  0  0  0
  185.5100  178.6650  144.4830 C   0  0  0  0  0  0  0  0  0  0  0  0
  184.8670  178.7730  145.8390 C   0  0  0  0  0  2  0  0  0  0  0  0
  187.2700  178.0210  140.6610 N   0  0  0  0  0  0  0  0  0  0  0  0
  188.5730  177.6780  141.1240 C   0  0  0  0  0  0  0  0  0  0  0  0
  189.7450  177.5460  140.3830 C   0  0  0  0  0  3  0  0  0  0  0  0
  183.0940  177.1290  140.8440 O   0  0  0  0  0  0  0  0  0  0  0  0
  183.4390  178.2100  140.2980 C   0  0  0  0  0  0  0  0  0  0  0  0
  184.5100  178.9870  140.8560 N   0  0  0  0  0  2  0  0  0  0  0  0
  181.4040  179.7700  136.8440 C   0  0  0  0  0  0  0  0  0  0  0  0
  182.2090  179.9970  139.1090 C   0  0  0  0  0  3  0  0  0  0  0  0
  183.2230  176.3000  137.7020 Cl  0  0  0  0  0  0  0  0  0  0  0  0
  180.7590  180.2830  135.7700 F   0  0  0  0  0  0  0  0  0  0  0  0
  181.5440  180.5290  138.0040 C   0  0  0  0  0  3  0  0  0  0  0  0
  182.6010  177.9340  137.8920 C   0  0  0  0  0  0  0  0  0  0  0  0
  182.7470  178.7000  139.0780 C   0  0  0  0  0  0  0  0  0  0  0  0
  181.9310  178.4790  136.7900 C   0  0  0  0  0  3  0  0  0  0  0  0
  1  6  2  0  0  0  0
  1  9  1  0  0  0  0
  2  5  1  0  0  0  0
  3  2  1  0  0  0  0
  3  7  1  0  0  0  0
  4 11  2  0  0  0  0
  4  7  1  0  0  0  0
  5 16  1  0  0  0  0
  5 14  1  1  0  0  0
  8 12  1  0  0  0  0
 10 18  1  0  0  0  0
 12 16  2  0  0  0  0
 13  8  2  0  0  0  0
 13  2  1  0  0  0  0
 14  1  1  0  0  0  0
 15  4  1  0  0  0  0
 16 17  1  0  0  0  0
 17  6  1  0  0  0  0
 18 19  1  0  0  0  0
 18 13  1  0  0  0  0
 19  3  2  0  0  0  0
 20 15  2  0  0  0  0
 20 19  1  0  0  0  0
 22 21  2  0  0  0  0
 22 23  1  0  0  0  0
 23  8  1  0  0  0  0
 24 28  1  0  0  0  0
 26 29  1  0  0  0  0
 27 24  1  0  0  0  0
 28 25  2  0  0  0  0
 29 30  2  0  0  0  0
 30 25  1  0  0  0  0
 30 22  1  0  0  0  0
 31 24  2  0  0  0  0
 31 29  1  0  0  0  0
M  END
>  <MODEL>
7

>  <REMARK>
 VINA RESULT:      -9.3      4.273      7.974
  Name = 
  2 active torsions:
  status: ('A' for Active; 'I' for Inactive)
    1  A    between atoms: C_9  and  C_22
    2  A    between atoms: C_15  and  N_23
                            x       y       z     vdW  Elec       q    Type
                         _______ _______ _______ _____ _____    ______ ____

>  <TORSDO>
F 2

$$$$
=
 OpenBabel10262419333D

 31 35  0  0  1  0  0  0  0  0999 V2000
  186.0080  178.2310  145.8640 C   0  0  0  0  0  0  0  0  0  0  0  0
  186.0750  178.4730  142.1010 N   0  0  0  0  0  0  0  0  0  0  0  0
  184.8410  178.7140  141.4380 C   0  0  0  0  0  0  0  0  0  0  0  0
  182.5210  179.0020  141.2260 C   0  0  0  0  0  0  0  0  0  0  0  0
  186.2730  177.8980  143.4280 C   0  0  2  0  0  3  0  0  0  0  0  0
  187.1600  177.5900  146.1140 C   0  0  0  0  0  3  0  0  0  0  0  0
  183.6220  178.8470  142.0190 N   0  0  0  0  0  2  0  0  0  0  0  0
  188.2180  177.7830  141.2470 C   0  0  0  0  0  0  0  0  0  0  0  0
  184.9500  178.2790  146.9110 C   0  0  0  0  0  1  0  0  0  0  0  0
  186.8050  177.9150  138.4470 C   0  0  0  0  0  1  0  0  0  0  0  0
  181.3870  179.1440  141.7520 O   0  0  0  0  0  0  0  0  0  0  0  0
  188.6210  177.5570  142.6570 C   0  0  0  0  0  3  0  0  0  0  0  0
  186.9770  178.2340  141.0170 C   0  0  0  0  0  0  0  0  0  0  0  0
  185.7420  178.8320  144.5120 C   0  0  0  0  0  2  0  0  0  0  0  0
  182.6450  178.9970  139.8200 C   0  0  0  0  0  3  0  0  0  0  0  0
  187.7500  177.6350  143.6750 C   0  0  0  0  0  0  0  0  0  0  0  0
  188.2580  177.4730  145.0820 C   0  0  0  0  0  2  0  0  0  0  0  0
  186.3600  178.4350  139.7320 N   0  0  0  0  0  0  0  0  0  0  0  0
  185.0030  178.7020  140.0760 C   0  0  0  0  0  0  0  0  0  0  0  0
  183.9070  178.8330  139.2260 C   0  0  0  0  0  3  0  0  0  0  0  0
  190.5420  176.0030  141.1680 O   0  0  0  0  0  0  0  0  0  0  0  0
  190.2630  176.6860  140.1480 C   0  0  0  0  0  0  0  0  0  0  0  0
  189.1250  177.5620  140.1580 N   0  0  0  0  0  2  0  0  0  0  0  0
  192.5420  176.3780  136.5130 C   0  0  0  0  0  0  0  0  0  0  0  0
  190.4610  176.2210  137.7260 C   0  0  0  0  0  3  0  0  0  0  0  0
  193.4200  177.3470  140.3040 Cl  0  0  0  0  0  0  0  0  0  0  0  0
  193.2380  176.2730  135.3560 F   0  0  0  0  0  0  0  0  0  0  0  0
  191.1740  176.1120  136.5320 C   0  0  0  0  0  3  0  0  0  0  0  0
  192.4900  176.8650  138.8920 C   0  0  0  0  0  0  0  0  0  0  0  0
  191.0960  176.5950  138.9210 C   0  0  0  0  0  0  0  0  0  0  0  0
  193.1940  176.7520  137.6880 C   0  0  0  0  0  3  0  0  0  0  0  0
  1  6  2  0  0  0  0
  1  9  1  0  0  0  0
  2  5  1  0  0  0  0
  3  7  1  0  0  0  0
  3  2  1  0  0  0  0
  4 11  2  0  0  0  0
  4  7  1  0  0  0  0
  5 16  1  0  0  0  0
  5 14  1  1  0  0  0
  8 12  1  0  0  0  0
 10 18  1  0  0  0  0
 12 16  2  0  0  0  0
 13  8  2  0  0  0  0
 13  2  1  0  0  0  0
 14  1  1  0  0  0  0
 15  4  1  0  0  0  0
 16 17  1  0  0  0  0
 17  6  1  0  0  0  0
 18 19  1  0  0  0  0
 18 13  1  0  0  0  0
 19  3  2  0  0  0  0
 20 15  2  0  0  0  0
 20 19  1  0  0  0  0
 22 23  1  0  0  0  0
 22 21  2  0  0  0  0
 23  8  1  0  0  0  0
 24 28  2  0  0  0  0
 24 31  1  0  0  0  0
 25 30  2  0  0  0  0
 27 24  1  0  0  0  0
 28 25  1  0  0  0  0
 29 30  1  0  0  0  0
 29 26  1  0  0  0  0
 30 22  1  0  0  0  0
 31 29  2  0  0  0  0
M  END
>  <MODEL>
8

>  <REMARK>
 VINA RESULT:      -9.0      3.751      6.529
  Name = 
  2 active torsions:
  status: ('A' for Active; 'I' for Inactive)
    1  A    between atoms: C_9  and  C_22
    2  A    between atoms: C_15  and  N_23
                            x       y       z     vdW  Elec       q    Type
                         _______ _______ _______ _____ _____    ______ ____

>  <TORSDO>
F 2

$$$$
=
 OpenBabel10262419333D

 31 35  0  0  1  0  0  0  0  0999 V2000
  186.8490  177.9640  146.7720 C   0  0  0  0  0  0  0  0  0  0  0  0
  187.0920  177.9010  143.0090 N   0  0  0  0  0  0  0  0  0  0  0  0
  188.3780  177.7010  142.4390 C   0  0  0  0  0  0  0  0  0  0  0  0
  190.7110  177.4390  142.4040 C   0  0  0  0  0  0  0  0  0  0  0  0
  186.7790  178.4110  144.3410 C   0  0  2  0  0  3  0  0  0  0  0  0
  185.6730  178.5840  146.9570 C   0  0  0  0  0  3  0  0  0  0  0  0
  189.5470  177.5480  143.1110 N   0  0  0  0  0  2  0  0  0  0  0  0
  185.0180  178.6160  142.0150 C   0  0  0  0  0  0  0  0  0  0  0  0
  187.8180  177.8730  147.8990 C   0  0  0  0  0  1  0  0  0  0  0  0
  186.6570  178.6280  139.3380 C   0  0  0  0  0  1  0  0  0  0  0  0
  191.7990  177.2800  143.0150 O   0  0  0  0  0  0  0  0  0  0  0  0
  184.4990  178.7720  143.3960 C   0  0  0  0  0  3  0  0  0  0  0  0
  186.2790  178.1850  141.8670 C   0  0  0  0  0  0  0  0  0  0  0  0
  187.2300  177.4300  145.4190 C   0  0  0  0  0  2  0  0  0  0  0  0
  190.7020  177.5110  140.9940 C   0  0  0  0  0  3  0  0  0  0  0  0
  185.2840  178.6510  144.4770 C   0  0  0  0  0  0  0  0  0  0  0  0
  184.6620  178.7420  145.8440 C   0  0  0  0  0  2  0  0  0  0  0  0
  187.0010  178.0510  140.6280 N   0  0  0  0  0  0  0  0  0  0  0  0
  188.3280  177.7770  141.0700 C   0  0  0  0  0  0  0  0  0  0  0  0
  189.4900  177.6940  140.3080 C   0  0  0  0  0  3  0  0  0  0  0  0
  183.0360  176.8590  140.7670 O   0  0  0  0  0  0  0  0  0  0  0  0
  183.2380  177.9990  140.2710 C   0  0  0  0  0  0  0  0  0  0  0  0
  184.2000  178.8820  140.8670 N   0  0  0  0  0  2  0  0  0  0  0  0
  181.1590  179.2120  136.7060 C   0  0  0  0  0  0  0  0  0  0  0  0
  182.8810  177.9400  137.8240 C   0  0  0  0  0  3  0  0  0  0  0  0
  180.7880  180.0770  140.6040 Cl  0  0  0  0  0  0  0  0  0  0  0  0
  180.5220  179.5780  135.5690 F   0  0  0  0  0  0  0  0  0  0  0  0
  182.2260  178.3160  136.6510 C   0  0  0  0  0  3  0  0  0  0  0  0
  181.3980  179.3610  139.1180 C   0  0  0  0  0  0  0  0  0  0  0  0
  182.4860  178.4500  139.0720 C   0  0  0  0  0  0  0  0  0  0  0  0
  180.7490  179.7300  137.9340 C   0  0  0  0  0  3  0  0  0  0  0  0
  1  6  2  0  0  0  0
  1  9  1  0  0  0  0
  2  5  1  0  0  0  0
  3  2  1  0  0  0  0
  3  7  1  0  0  0  0
  4 11  2  0  0  0  0
  4  7  1  0  0  0  0
  5 16  1  0  0  0  0
  5 14  1  1  0  0  0
  8 12  1  0  0  0  0
 10 18  1  0  0  0  0
 12 16  2  0  0  0  0
 13  8  2  0  0  0  0
 13  2  1  0  0  0  0
 14  1  1  0  0  0  0
 15  4  1  0  0  0  0
 16 17  1  0  0  0  0
 17  6  1  0  0  0  0
 18 19  1  0  0  0  0
 18 13  1  0  0  0  0
 19  3  2  0  0  0  0
 20 15  2  0  0  0  0
 20 19  1  0  0  0  0
 22 21  2  0  0  0  0
 22 23  1  0  0  0  0
 23  8  1  0  0  0  0
 24 31  1  0  0  0  0
 25 30  2  0  0  0  0
 27 24  1  0  0  0  0
 28 24  2  0  0  0  0
 28 25  1  0  0  0  0
 29 26  1  0  0  0  0
 30 29  1  0  0  0  0
 30 22  1  0  0  0  0
 31 29  2  0  0  0  0
M  END
>  <MODEL>
9

>  <REMARK>
 VINA RESULT:      -9.0      4.275      7.935
  Name = 
  2 active torsions:
  status: ('A' for Active; 'I' for Inactive)
    1  A    between atoms: C_9  and  C_22
    2  A    between atoms: C_15  and  N_23
                            x       y       z     vdW  Elec       q    Type
                         _______ _______ _______ _____ _____    ______ ____

>  <TORSDO>
F 2

$$$$
